=
 OpenBabel10222421543D

 40 44  0  0  1  0  0  0  0  0999 V2000
  181.2260  178.1610  136.7130 C   0  0  0  0  0  0  0  0  0  0  0  0
  182.1250  178.6170  137.8430 C   0  0  1  0  0  3  0  0  0  0  0  0
  179.9820  175.4720  135.9670 C   0  0  0  0  0  2  0  0  0  0  0  0
  184.0980  172.5090  136.2440 C   0  0  0  0  0  0  0  0  0  0  0  0
  180.9050  179.7750  141.0640 O   0  0  0  0  0  0  0  0  0  0  0  0
  183.2990  175.2880  138.6510 C   0  0  0  0  0  2  0  0  0  0  0  0
  185.0660  171.4910  135.7670 C   0  0  0  0  0  3  0  0  0  0  0  0
  181.3270  179.2050  138.8830 O   0  0  0  0  0  0  0  0  0  0  0  0
  180.8530  175.0230  137.0010 O   0  0  0  0  0  0  0  0  0  0  0  0
  183.1000  171.3650  134.5760 N   0  0  0  0  0  0  0  0  0  0  0  0
  181.8560  173.2010  135.7450 C   0  0  0  0  0  2  0  0  0  0  0  0
  182.7930  178.3300  140.7290 C   0  0  1  0  0  3  0  0  0  0  0  0
  181.6750  177.2560  135.6910 N   0  0  0  0  0  0  0  0  0  0  0  0
  184.2240  173.4530  137.2590 C   0  0  0  0  0  3  0  0  0  0  0  0
  181.6540  179.1830  140.2430 C   0  0  0  0  0  0  0  0  0  0  0  0
  182.3620  176.3320  138.6290 O   0  0  0  0  0  0  0  0  0  0  0  0
  183.0780  177.5130  138.3690 C   0  0  2  0  0  3  0  0  0  0  0  0
  183.8080  177.9860  139.6410 C   0  0  1  0  0  3  0  0  0  0  0  0
  184.3730  170.7660  134.6780 N   0  0  0  0  0  0  0  0  0  0  0  0
  182.9650  172.3940  135.5230 C   0  0  0  0  0  0  0  0  0  0  0  0
  181.9370  174.1760  136.7610 C   0  0  0  0  0  0  0  0  0  0  0  0
  180.0410  178.5930  136.6700 O   0  0  0  0  0  0  0  0  0  0  0  0
  183.1340  174.3080  137.5220 C   0  0  0  0  0  0  0  0  0  0  0  0
  180.7270  176.3910  134.9930 C   0  0  0  0  0  2  0  0  0  0  0  0
  185.7790  178.6400  138.4570 F   0  0  0  0  0  0  0  0  0  0  0  0
  184.2640  180.2520  138.9300 F   0  0  0  0  0  0  0  0  0  0  0  0
  184.8490  179.0800  139.3790 C   0  0  0  0  0  3  0  0  0  0  0  0
  183.0280  177.1810  135.3320 C   0  0  0  0  0  0  0  0  0  0  0  0
  184.1920  177.1270  135.0260 C   0  0  0  0  0  3  0  0  0  0  0  0
  182.3110  178.7520  143.1870 C   0  0  0  0  0  1  0  0  0  0  0  0
  183.3800  178.6470  142.1120 C   0  0  1  0  0  3  0  0  0  0  0  0
  184.3180  177.6660  142.4530 O   0  0  0  0  0  0  0  0  0  0  0  0
  185.1620  179.8500  142.8990 C   0  0  0  0  0  1  0  0  0  0  0  0
  185.4530  178.3620  142.8980 C   0  0  1  0  0  3  0  0  0  0  0  0
  185.8980  177.9230  144.3030 C   0  0  2  0  0  3  0  0  0  0  0  0
  185.4410  178.9800  145.3080 C   0  0  0  0  0  3  0  0  0  0  0  0
  184.4650  178.3330  146.2770 C   0  0  0  0  0  2  0  0  0  0  0  0
  185.8700  178.6620  146.7330 C   0  0  0  0  0  2  0  0  0  0  0  0
  187.2850  177.7230  144.3560 O   0  0  0  0  0  0  0  0  0  0  0  0
  187.6050  177.0770  143.1630 C   0  0  0  0  0  1  0  0  0  0  0  0
  2  1  1  6  0  0  0
  2 17  1  0  0  0  0
  2  8  1  0  0  0  0
  3  9  1  0  0  0  0
  4 14  2  0  0  0  0
  7  4  1  0  0  0  0
  8 15  1  0  0  0  0
 10 19  1  0  0  0  0
 10 20  2  0  0  0  0
 11 21  1  0  0  0  0
 12 31  1  1  0  0  0
 13  1  1  0  0  0  0
 14 23  1  0  0  0  0
 15 12  1  0  0  0  0
 15  5  2  0  0  0  0
 16  6  1  0  0  0  0
 17 16  1  1  0  0  0
 17 18  1  0  0  0  0
 18 27  1  6  0  0  0
 18 12  1  0  0  0  0
 19  7  2  0  0  0  0
 20 11  1  0  0  0  0
 20  4  1  0  0  0  0
 21  9  1  0  0  0  0
 21 23  2  0  0  0  0
 22  1  2  0  0  0  0
 23  6  1  0  0  0  0
 24 13  1  0  0  0  0
 24  3  1  0  0  0  0
 25 27  1  0  0  0  0
 26 27  1  0  0  0  0
 28 13  1  0  0  0  0
 29 28  3  0  0  0  0
 31 32  1  0  0  0  0
 31 30  1  1  0  0  0
 32 34  1  0  0  0  0
 34 33  1  1  0  0  0
 34 35  1  0  0  0  0
 35 39  1  6  0  0  0
 35 36  1  0  0  0  0
 36 37  1  0  0  0  0
 36 38  1  0  0  0  0
 37 38  1  0  0  0  0
 40 39  1  0  0  0  0
M  END
>  <MODEL>
1

>  <REMARK>
 VINA RESULT:      -6.1      0.000      0.000
  Name = 
  8 active torsions:
  status: ('A' for Active; 'I' for Inactive)
    1  A    between atoms: C_4  and  N_23
    2  A    between atoms: C_8  and  C_17
    3  A    between atoms: O_9  and  C_35
    4  A    between atoms: O_9  and  C_40
    5  A    between atoms: C_17  and  O_19
    6  A    between atoms: C_17  and  C_35
    7  A    between atoms: C_22  and  C_40
    8  A    between atoms: C_29  and  C_30
                            x       y       z     vdW  Elec       q    Type
                         _______ _______ _______ _____ _____    ______ ____

>  <TORSDO>
F 8

$$$$
=
 OpenBabel10222421543D

 40 44  0  0  1  0  0  0  0  0999 V2000
  189.4490  177.0970  135.5620 C   0  0  0  0  0  0  0  0  0  0  0  0
  190.5380  176.0480  135.6520 C   0  0  1  0  0  3  0  0  0  0  0  0
  188.6370  179.4450  137.3400 C   0  0  0  0  0  2  0  0  0  0  0  0
  188.4490  177.0970  141.8390 C   0  0  0  0  0  0  0  0  0  0  0  0
  193.9000  176.4980  134.3460 O   0  0  0  0  0  0  0  0  0  0  0  0
  191.0640  176.4700  139.2100 C   0  0  0  0  0  2  0  0  0  0  0  0
  187.8450  176.7100  143.1380 C   0  0  0  0  0  3  0  0  0  0  0  0
  191.6650  176.4570  134.8600 O   0  0  0  0  0  0  0  0  0  0  0  0
  189.5780  178.8330  138.2150 O   0  0  0  0  0  0  0  0  0  0  0  0
  186.7900  178.5650  142.2730 N   0  0  0  0  0  0  0  0  0  0  0  0
  188.1500  178.8040  140.1810 C   0  0  0  0  0  3  0  0  0  0  0  0
  193.3480  175.4760  136.4480 C   0  0  1  0  0  3  0  0  0  0  0  0
  188.3470  177.1420  136.4820 N   0  0  0  0  0  0  0  0  0  0  0  0
  189.5060  176.5220  141.1400 C   0  0  0  0  0  3  0  0  0  0  0  0
  192.9940  176.1270  135.1390 C   0  0  0  0  0  0  0  0  0  0  0  0
  191.1700  176.8370  137.8590 O   0  0  0  0  0  0  0  0  0  0  0  0
  190.9300  175.6760  137.1050 C   0  0  2  0  0  3  0  0  0  0  0  0
  192.1720  174.7650  137.1160 C   0  0  1  0  0  3  0  0  0  0  0  0
  186.7670  177.6940  143.3830 N   0  0  0  0  0  2  0  0  0  0  0  0
  187.8040  178.1860  141.3760 C   0  0  0  0  0  0  0  0  0  0  0  0
  189.2130  178.2560  139.4340 C   0  0  0  0  0  0  0  0  0  0  0  0
  189.5160  177.9610  134.6440 O   0  0  0  0  0  0  0  0  0  0  0  0
  189.8950  177.1000  139.9140 C   0  0  0  0  0  0  0  0  0  0  0  0
  187.6680  178.4030  136.7710 C   0  0  0  0  0  2  0  0  0  0  0  0
  190.5790  173.0140  136.7890 F   0  0  0  0  0  0  0  0  0  0  0  0
  192.2110  173.2420  135.2390 F   0  0  0  0  0  0  0  0  0  0  0  0
  191.9020  173.3530  136.5830 C   0  0  0  0  0  3  0  0  0  0  0  0
  187.8890  175.9820  137.1230 C   0  0  0  0  0  0  0  0  0  0  0  0
  187.4880  174.9910  137.6800 C   0  0  0  0  0  3  0  0  0  0  0  0
  195.8680  175.6680  136.1920 C   0  0  0  0  0  1  0  0  0  0  0  0
  194.7030  174.7590  136.5440 C   0  0  1  0  0  3  0  0  0  0  0  0
  194.8620  174.2410  137.8350 O   0  0  0  0  0  0  0  0  0  0  0  0
  196.7720  174.4030  139.2510 C   0  0  0  0  0  1  0  0  0  0  0  0
  196.2170  173.8870  137.9380 C   0  0  1  0  0  3  0  0  0  0  0  0
  196.4350  172.3680  137.8480 C   0  0  2  0  0  3  0  0  0  0  0  0
  197.1810  172.0610  136.5500 C   0  0  0  0  0  3  0  0  0  0  0  0
  198.3660  173.0060  136.4410 C   0  0  0  0  0  2  0  0  0  0  0  0
  198.5940  171.5500  136.7890 C   0  0  0  0  0  2  0  0  0  0  0  0
  195.2180  171.6760  137.9230 O   0  0  0  0  0  0  0  0  0  0  0  0
  195.1380  170.9500  136.7360 C   0  0  0  0  0  1  0  0  0  0  0  0
  1  2  1  0  0  0  0
  1 13  1  0  0  0  0
  2  8  1  6  0  0  0
  2 17  1  0  0  0  0
  3  9  1  0  0  0  0
  4  7  2  0  0  0  0
  5 15  2  0  0  0  0
  6 23  1  0  0  0  0
  7 19  1  0  0  0  0
  8 15  1  0  0  0  0
  9 21  1  0  0  0  0
 10 19  1  0  0  0  0
 11 20  1  0  0  0  0
 12 31  1  6  0  0  0
 12 18  1  0  0  0  0
 13 24  1  0  0  0  0
 13 28  1  0  0  0  0
 14  4  1  0  0  0  0
 15 12  1  0  0  0  0
 16  6  1  0  0  0  0
 17 18  1  0  0  0  0
 17 16  1  1  0  0  0
 18 27  1  6  0  0  0
 20  4  1  0  0  0  0
 20 10  2  0  0  0  0
 21 23  1  0  0  0  0
 21 11  2  0  0  0  0
 22  1  2  0  0  0  0
 23 14  2  0  0  0  0
 24  3  1  0  0  0  0
 26 27  1  0  0  0  0
 27 25  1  0  0  0  0
 28 29  3  0  0  0  0
 31 30  1  1  0  0  0
 31 32  1  0  0  0  0
 32 34  1  0  0  0  0
 34 33  1  1  0  0  0
 35 39  1  6  0  0  0
 35 34  1  0  0  0  0
 36 38  1  0  0  0  0
 36 35  1  0  0  0  0
 37 36  1  0  0  0  0
 37 38  1  0  0  0  0
 40 39  1  0  0  0  0
M  END
>  <MODEL>
2

>  <REMARK>
 VINA RESULT:      -5.9      8.269     11.004
  Name = 
  8 active torsions:
  status: ('A' for Active; 'I' for Inactive)
    1  A    between atoms: C_4  and  N_23
    2  A    between atoms: C_8  and  C_17
    3  A    between atoms: O_9  and  C_35
    4  A    between atoms: O_9  and  C_40
    5  A    between atoms: C_17  and  O_19
    6  A    between atoms: C_17  and  C_35
    7  A    between atoms: C_22  and  C_40
    8  A    between atoms: C_29  and  C_30
                            x       y       z     vdW  Elec       q    Type
                         _______ _______ _______ _____ _____    ______ ____

>  <TORSDO>
F 8

$$$$
=
 OpenBabel10222421543D

 40 44  0  0  1  0  0  0  0  0999 V2000
  181.5980  175.8490  136.5390 C   0  0  0  0  0  0  0  0  0  0  0  0
  181.4360  177.0560  137.4390 C   0  0  1  0  0  3  0  0  0  0  0  0
  183.7900  173.7470  136.2110 C   0  0  0  0  0  2  0  0  0  0  0  0
  187.8470  176.7810  135.8330 C   0  0  0  0  0  0  0  0  0  0  0  0
  179.9820  176.9230  140.7680 O   0  0  0  0  0  0  0  0  0  0  0  0
  184.9670  177.3460  138.1870 C   0  0  0  0  0  2  0  0  0  0  0  0
  189.1050  177.2870  135.2320 C   0  0  0  0  0  3  0  0  0  0  0  0
  180.6420  176.6990  138.5820 O   0  0  0  0  0  0  0  0  0  0  0  0
  184.4840  174.6420  137.0750 O   0  0  0  0  0  0  0  0  0  0  0  0
  188.6340  175.1680  134.4650 N   0  0  0  0  0  0  0  0  0  0  0  0
  186.5160  174.7860  135.7520 C   0  0  0  0  0  2  0  0  0  0  0  0
  181.9220  178.1940  140.1470 C   0  0  1  0  0  3  0  0  0  0  0  0
  182.5910  175.7920  135.5020 N   0  0  0  0  0  0  0  0  0  0  0  0
  186.9880  177.3850  136.7460 C   0  0  0  0  0  3  0  0  0  0  0  0
  180.7670  177.2780  139.8490 C   0  0  0  0  0  0  0  0  0  0  0  0
  183.6910  176.7720  138.2920 O   0  0  0  0  0  0  0  0  0  0  0  0
  182.7770  177.7320  137.8280 C   0  0  2  0  0  3  0  0  0  0  0  0
  182.5480  178.8150  138.8990 C   0  0  1  0  0  3  0  0  0  0  0  0
  189.5850  176.2030  134.3460 N   0  0  0  0  0  0  0  0  0  0  0  0
  187.6160  175.5400  135.3600 C   0  0  0  0  0  0  0  0  0  0  0  0
  185.6140  175.3570  136.6730 C   0  0  0  0  0  0  0  0  0  0  0  0
  180.8320  174.8610  136.7090 O   0  0  0  0  0  0  0  0  0  0  0  0
  185.8490  176.6710  137.1720 C   0  0  0  0  0  0  0  0  0  0  0  0
  183.1310  174.5090  135.0570 C   0  0  0  0  0  2  0  0  0  0  0  0
  182.5230  181.1950  138.6840 F   0  0  0  0  0  0  0  0  0  0  0  0
  181.6070  179.9880  137.0060 F   0  0  0  0  0  0  0  0  0  0  0  0
  181.8130  180.0530  138.3730 C   0  0  0  0  0  3  0  0  0  0  0  0
  183.0640  176.9580  134.8850 C   0  0  0  0  0  0  0  0  0  0  0  0
  183.4680  177.9670  134.3640 C   0  0  0  0  0  3  0  0  0  0  0  0
  180.4220  179.7460  141.4850 C   0  0  0  0  0  1  0  0  0  0  0  0
  181.8010  179.1200  141.3650 C   0  0  1  0  0  3  0  0  0  0  0  0
  182.1130  178.4030  142.5260 O   0  0  0  0  0  0  0  0  0  0  0  0
  182.9160  179.4480  144.5120 C   0  0  0  0  0  1  0  0  0  0  0  0
  183.2290  179.0460  143.0840 C   0  0  1  0  0  3  0  0  0  0  0  0
  184.4870  178.1620  143.0610 C   0  0  2  0  0  3  0  0  0  0  0  0
  185.5260  178.7740  144.0010 C   0  0  0  0  0  3  0  0  0  0  0  0
  185.4020  178.1010  145.3580 C   0  0  0  0  0  2  0  0  0  0  0  0
  186.5720  177.7670  144.4570 C   0  0  0  0  0  2  0  0  0  0  0  0
  184.9850  178.0240  141.7580 O   0  0  0  0  0  0  0  0  0  0  0  0
  185.7240  179.1820  141.5250 C   0  0  0  0  0  1  0  0  0  0  0  0
  1 22  2  0  0  0  0
  2  1  1  1  0  0  0
  2 17  1  0  0  0  0
  2  8  1  0  0  0  0
  3  9  1  0  0  0  0
  4 14  2  0  0  0  0
  6 16  1  0  0  0  0
  7  4  1  0  0  0  0
  8 15  1  0  0  0  0
 10 20  2  0  0  0  0
 11 21  1  0  0  0  0
 12 31  1  1  0  0  0
 13  1  1  0  0  0  0
 14 23  1  0  0  0  0
 15 12  1  0  0  0  0
 15  5  2  0  0  0  0
 17 16  1  1  0  0  0
 17 18  1  0  0  0  0
 18 27  1  6  0  0  0
 18 12  1  0  0  0  0
 19 10  1  0  0  0  0
 19  7  2  0  0  0  0
 20 11  1  0  0  0  0
 20  4  1  0  0  0  0
 21  9  1  0  0  0  0
 21 23  2  0  0  0  0
 23  6  1  0  0  0  0
 24 13  1  0  0  0  0
 24  3  1  0  0  0  0
 26 27  1  0  0  0  0
 27 25  1  0  0  0  0
 28 13  1  0  0  0  0
 29 28  3  0  0  0  0
 31 30  1  1  0  0  0
 31 32  1  0  0  0  0
 32 34  1  0  0  0  0
 34 33  1  1  0  0  0
 35 39  1  6  0  0  0
 35 34  1  0  0  0  0
 35 36  1  0  0  0  0
 36 38  1  0  0  0  0
 36 37  1  0  0  0  0
 38 37  1  0  0  0  0
 40 39  1  0  0  0  0
M  END
>  <MODEL>
3

>  <REMARK>
 VINA RESULT:      -5.8      2.591      3.533
  Name = 
  8 active torsions:
  status: ('A' for Active; 'I' for Inactive)
    1  A    between atoms: C_4  and  N_23
    2  A    between atoms: C_8  and  C_17
    3  A    between atoms: O_9  and  C_35
    4  A    between atoms: O_9  and  C_40
    5  A    between atoms: C_17  and  O_19
    6  A    between atoms: C_17  and  C_35
    7  A    between atoms: C_22  and  C_40
    8  A    between atoms: C_29  and  C_30
                            x       y       z     vdW  Elec       q    Type
                         _______ _______ _______ _____ _____    ______ ____

>  <TORSDO>
F 8

$$$$
=
 OpenBabel10222421543D

 40 44  0  0  1  0  0  0  0  0999 V2000
  191.7140  177.4200  141.9010 C   0  0  0  0  0  0  0  0  0  0  0  0
  190.9780  177.5610  140.5840 C   0  0  1  0  0  3  0  0  0  0  0  0
  190.9930  176.1630  144.5900 C   0  0  0  0  0  2  0  0  0  0  0  0
  186.4360  178.2770  145.3400 C   0  0  0  0  0  0  0  0  0  0  0  0
  191.0440  175.0600  137.9470 O   0  0  0  0  0  0  0  0  0  0  0  0
  187.6960  177.0330  142.0200 C   0  0  0  0  0  2  0  0  0  0  0  0
  185.3910  179.0030  146.1020 C   0  0  0  0  0  3  0  0  0  0  0  0
  191.3830  176.5080  139.6940 O   0  0  0  0  0  0  0  0  0  0  0  0
  189.7130  176.0840  143.9710 O   0  0  0  0  0  0  0  0  0  0  0  0
  187.0110  178.1850  147.5200 N   0  0  0  0  0  0  0  0  0  0  0  0
  188.4580  177.0710  145.8020 C   0  0  0  0  0  3  0  0  0  0  0  0
  189.1020  176.2790  138.6610 C   0  0  1  0  0  3  0  0  0  0  0  0
  191.2970  178.1080  143.0910 N   0  0  0  0  0  0  0  0  0  0  0  0
  186.5390  178.0380  143.9720 C   0  0  0  0  0  3  0  0  0  0  0  0
  190.5680  175.9450  138.7070 C   0  0  0  0  0  0  0  0  0  0  0  0
  188.9610  176.6320  141.5670 O   0  0  0  0  0  0  0  0  0  0  0  0
  189.4370  177.6590  140.7350 C   0  0  2  0  0  3  0  0  0  0  0  0
  188.7520  177.5930  139.3580 C   0  0  1  0  0  3  0  0  0  0  0  0
  185.8070  178.9190  147.5210 N   0  0  0  0  0  2  0  0  0  0  0  0
  187.3560  177.8130  146.2090 C   0  0  0  0  0  0  0  0  0  0  0  0
  188.6080  176.8070  144.4240 C   0  0  0  0  0  0  0  0  0  0  0  0
  192.7280  176.6710  141.9500 O   0  0  0  0  0  0  0  0  0  0  0  0
  187.6420  177.2990  143.5000 C   0  0  0  0  0  0  0  0  0  0  0  0
  191.5960  177.5600  144.4120 C   0  0  0  0  0  2  0  0  0  0  0  0
  190.1070  178.6860  137.7200 F   0  0  0  0  0  0  0  0  0  0  0  0
  187.8870  179.1190  137.6930 F   0  0  0  0  0  0  0  0  0  0  0  0
  188.9780  178.8430  138.5000 C   0  0  0  0  0  3  0  0  0  0  0  0
  190.5990  179.3220  143.0210 C   0  0  0  0  0  0  0  0  0  0  0  0
  189.9940  180.3630  142.9710 C   0  0  0  0  0  3  0  0  0  0  0  0
  189.1880  176.2830  136.1220 C   0  0  0  0  0  1  0  0  0  0  0  0
  188.3480  175.9950  137.3550 C   0  0  1  0  0  3  0  0  0  0  0  0
  187.9170  174.6620  137.3480 O   0  0  0  0  0  0  0  0  0  0  0  0
  187.5130  173.3680  135.3880 C   0  0  0  0  0  1  0  0  0  0  0  0
  187.0670  174.5410  136.2380 C   0  0  1  0  0  3  0  0  0  0  0  0
  185.5960  174.3540  136.6440 C   0  0  2  0  0  3  0  0  0  0  0  0
  185.0050  175.7250  136.9740 C   0  0  0  0  0  3  0  0  0  0  0  0
  185.1070  176.6030  135.7380 C   0  0  0  0  0  2  0  0  0  0  0  0
  183.7630  176.0440  136.1550 C   0  0  0  0  0  2  0  0  0  0  0  0
  185.4770  173.4650  137.7210 O   0  0  0  0  0  0  0  0  0  0  0  0
  184.4830  172.5650  137.3440 C   0  0  0  0  0  1  0  0  0  0  0  0
  1 22  2  0  0  0  0
  1 13  1  0  0  0  0
  2  8  1  6  0  0  0
  2 17  1  0  0  0  0
  2  1  1  0  0  0  0
  4  7  2  0  0  0  0
  4 20  1  0  0  0  0
  5 15  2  0  0  0  0
  6 23  1  0  0  0  0
  7 19  1  0  0  0  0
  9 21  1  0  0  0  0
  9  3  1  0  0  0  0
 10 19  1  0  0  0  0
 11 20  1  0  0  0  0
 12 31  1  6  0  0  0
 12 15  1  0  0  0  0
 12 18  1  0  0  0  0
 13 24  1  0  0  0  0
 14  4  1  0  0  0  0
 15  8  1  0  0  0  0
 16  6  1  0  0  0  0
 17 16  1  1  0  0  0
 18 27  1  6  0  0  0
 18 17  1  0  0  0  0
 20 10  2  0  0  0  0
 21 11  2  0  0  0  0
 23 14  2  0  0  0  0
 23 21  1  0  0  0  0
 24  3  1  0  0  0  0
 25 27  1  0  0  0  0
 26 27  1  0  0  0  0
 28 13  1  0  0  0  0
 29 28  3  0  0  0  0
 31 30  1  6  0  0  0
 32 31  1  0  0  0  0
 34 33  1  1  0  0  0
 34 35  1  0  0  0  0
 34 32  1  0  0  0  0
 35 36  1  0  0  0  0
 35 39  1  1  0  0  0
 37 38  1  0  0  0  0
 37 36  1  0  0  0  0
 38 36  1  0  0  0  0
 40 39  1  0  0  0  0
M  END
>  <MODEL>
4

>  <REMARK>
 VINA RESULT:      -5.4      5.033     10.157
  Name = 
  8 active torsions:
  status: ('A' for Active; 'I' for Inactive)
    1  A    between atoms: C_4  and  N_23
    2  A    between atoms: C_8  and  C_17
    3  A    between atoms: O_9  and  C_35
    4  A    between atoms: O_9  and  C_40
    5  A    between atoms: C_17  and  O_19
    6  A    between atoms: C_17  and  C_35
    7  A    between atoms: C_22  and  C_40
    8  A    between atoms: C_29  and  C_30
                            x       y       z     vdW  Elec       q    Type
                         _______ _______ _______ _____ _____    ______ ____

>  <TORSDO>
F 8

$$$$
=
 OpenBabel10222421543D

 40 44  0  0  1  0  0  0  0  0999 V2000
  181.8920  177.7010  135.9910 C   0  0  0  0  0  0  0  0  0  0  0  0
  183.0330  176.7130  136.1260 C   0  0  1  0  0  3  0  0  0  0  0  0
  181.1890  180.3110  137.4150 C   0  0  0  0  0  2  0  0  0  0  0  0
  181.6550  178.8120  142.2460 C   0  0  0  0  0  0  0  0  0  0  0  0
  186.1880  177.0030  134.3460 O   0  0  0  0  0  0  0  0  0  0  0  0
  183.9620  177.7850  139.4580 C   0  0  0  0  0  2  0  0  0  0  0  0
  181.2310  178.6510  143.6590 C   0  0  0  0  0  3  0  0  0  0  0  0
  184.0350  177.0010  135.1380 O   0  0  0  0  0  0  0  0  0  0  0  0
  182.2570  179.8910  138.2590 O   0  0  0  0  0  0  0  0  0  0  0  0
  179.9930  180.2920  142.6210 N   0  0  0  0  0  0  0  0  0  0  0  0
  181.0790  180.1830  140.3630 C   0  0  0  0  0  3  0  0  0  0  0  0
  185.9420  176.3650  136.6480 C   0  0  1  0  0  3  0  0  0  0  0  0
  180.9080  177.8840  137.0210 N   0  0  0  0  0  0  0  0  0  0  0  0
  182.6460  178.1470  141.5300 C   0  0  0  0  0  3  0  0  0  0  0  0
  185.4030  176.7590  135.3000 C   0  0  0  0  0  0  0  0  0  0  0  0
  183.8870  177.9040  138.0620 O   0  0  0  0  0  0  0  0  0  0  0  0
  183.6140  176.6200  137.5610 C   0  0  2  0  0  3  0  0  0  0  0  0
  184.8900  175.7580  137.5740 C   0  0  1  0  0  3  0  0  0  0  0  0
  180.1450  179.6360  143.8600 N   0  0  0  0  0  2  0  0  0  0  0  0
  180.9080  179.7830  141.6830 C   0  0  0  0  0  0  0  0  0  0  0  0
  182.0690  179.5350  139.5960 C   0  0  0  0  0  0  0  0  0  0  0  0
  181.8070  178.3860  134.9350 O   0  0  0  0  0  0  0  0  0  0  0  0
  182.8570  178.5030  140.1830 C   0  0  0  0  0  0  0  0  0  0  0  0
  180.2090  179.1590  137.1670 C   0  0  0  0  0  2  0  0  0  0  0  0
  185.5420  173.5050  138.0360 F   0  0  0  0  0  0  0  0  0  0  0  0
  183.3410  173.9060  137.7070 F   0  0  0  0  0  0  0  0  0  0  0  0
  184.6250  174.2670  137.3380 C   0  0  0  0  0  3  0  0  0  0  0  0
  180.5860  176.8480  137.9090 C   0  0  0  0  0  0  0  0  0  0  0  0
  180.3040  175.9520  138.6640 C   0  0  0  0  0  3  0  0  0  0  0  0
  187.5030  174.6330  135.6410 C   0  0  0  0  0  1  0  0  0  0  0  0
  187.3310  175.7120  136.6960 C   0  0  1  0  0  3  0  0  0  0  0  0
  188.3130  176.6990  136.5470 O   0  0  0  0  0  0  0  0  0  0  0  0
  189.7280  176.5490  134.6350 C   0  0  0  0  0  1  0  0  0  0  0  0
  189.4410  176.0390  136.0340 C   0  0  1  0  0  3  0  0  0  0  0  0
  190.6850  176.2300  136.9170 C   0  0  2  0  0  3  0  0  0  0  0  0
  190.9840  174.9090  137.6250 C   0  0  0  0  0  3  0  0  0  0  0  0
  191.0070  173.8000  136.5870 C   0  0  0  0  0  2  0  0  0  0  0  0
  192.3050  174.2930  137.1890 C   0  0  0  0  0  2  0  0  0  0  0  0
  190.5010  177.2780  137.8300 O   0  0  0  0  0  0  0  0  0  0  0  0
  190.3320  176.6580  139.0670 C   0  0  0  0  0  1  0  0  0  0  0  0
  1  2  1  0  0  0  0
  1 13  1  0  0  0  0
  2  8  1  6  0  0  0
  2 17  1  0  0  0  0
  3  9  1  0  0  0  0
  4  7  2  0  0  0  0
  5 15  2  0  0  0  0
  6 23  1  0  0  0  0
  7 19  1  0  0  0  0
  8 15  1  0  0  0  0
  9 21  1  0  0  0  0
 10 19  1  0  0  0  0
 11 20  1  0  0  0  0
 12 31  1  6  0  0  0
 12 18  1  0  0  0  0
 13 24  1  0  0  0  0
 13 28  1  0  0  0  0
 14  4  1  0  0  0  0
 15 12  1  0  0  0  0
 16  6  1  0  0  0  0
 17 18  1  0  0  0  0
 17 16  1  6  0  0  0
 18 27  1  6  0  0  0
 20  4  1  0  0  0  0
 20 10  2  0  0  0  0
 21 23  1  0  0  0  0
 21 11  2  0  0  0  0
 22  1  2  0  0  0  0
 23 14  2  0  0  0  0
 24  3  1  0  0  0  0
 27 26  1  0  0  0  0
 27 25  1  0  0  0  0
 28 29  3  0  0  0  0
 31 30  1  6  0  0  0
 32 31  1  0  0  0  0
 34 33  1  6  0  0  0
 34 32  1  0  0  0  0
 34 35  1  0  0  0  0
 35 36  1  0  0  0  0
 35 39  1  1  0  0  0
 37 38  1  0  0  0  0
 37 36  1  0  0  0  0
 38 36  1  0  0  0  0
 39 40  1  0  0  0  0
M  END
>  <MODEL>
5

>  <REMARK>
 VINA RESULT:      -5.1      4.190      7.406
  Name = 
  8 active torsions:
  status: ('A' for Active; 'I' for Inactive)
    1  A    between atoms: C_4  and  N_23
    2  A    between atoms: C_8  and  C_17
    3  A    between atoms: O_9  and  C_35
    4  A    between atoms: O_9  and  C_40
    5  A    between atoms: C_17  and  O_19
    6  A    between atoms: C_17  and  C_35
    7  A    between atoms: C_22  and  C_40
    8  A    between atoms: C_29  and  C_30
                            x       y       z     vdW  Elec       q    Type
                         _______ _______ _______ _____ _____    ______ ____

>  <TORSDO>
F 8

$$$$
=
 OpenBabel10222421543D

 40 44  0  0  1  0  0  0  0  0999 V2000
  182.7210  178.3610  137.8140 C   0  0  0  0  0  0  0  0  0  0  0  0
  184.2230  178.5570  137.7980 C   0  0  1  0  0  3  0  0  0  0  0  0
  180.9170  175.9720  138.4220 C   0  0  0  0  0  2  0  0  0  0  0  0
  183.1180  172.4570  135.4900 C   0  0  2  0  0  3  0  0  0  0  0  0
  186.1760  179.4980  140.7150 O   0  0  0  0  0  0  0  0  0  0  0  0
  184.9800  175.0270  137.5090 C   0  0  0  0  0  2  0  0  0  0  0  0
  183.1590  171.3760  134.4750 C   0  0  0  0  0  3  0  0  0  0  0  0
  184.6460  179.1260  139.0480 O   0  0  0  0  0  0  0  0  0  0  0  0
  182.1680  175.2920  138.4030 O   0  0  0  0  0  0  0  0  0  0  0  0
  181.0180  171.6590  135.2740 N   0  0  0  0  0  0  0  0  0  0  0  0
  181.4880  173.5040  136.9060 C   0  0  0  0  0  3  0  0  0  0  0  0
  186.8130  177.8540  139.0850 C   0  0  1  0  0  3  0  0  0  0  0  0
  182.0460  177.5250  136.8610 N   0  0  0  0  0  0  0  0  0  0  0  0
  184.1450  173.2530  135.9880 C   0  0  0  0  0  3  0  0  0  0  0  0
  185.8920  178.9050  139.6400 C   0  0  0  0  0  0  0  0  0  0  0  0
  184.5760  176.1860  138.1890 O   0  0  0  0  0  0  0  0  0  0  0  0
  185.0170  177.2790  137.4230 C   0  0  2  0  0  3  0  0  0  0  0  0
  186.5280  177.4990  137.6270 C   0  0  1  0  0  3  0  0  0  0  0  0
  181.7670  170.8830  134.3660 N   0  0  0  0  0  0  0  0  0  0  0  0
  181.8500  172.5820  135.9310 C   0  0  0  0  0  0  0  0  0  0  0  0
  182.4940  174.3360  137.4380 C   0  0  0  0  0  0  0  0  0  0  0  0
  182.0430  178.9550  138.6970 O   0  0  0  0  0  0  0  0  0  0  0  0
  183.8350  174.2140  136.9720 C   0  0  0  0  0  0  0  0  0  0  0  0
  180.7760  176.8840  137.1990 C   0  0  0  0  0  2  0  0  0  0  0  0
  186.7590  178.1180  135.3300 F   0  0  0  0  0  0  0  0  0  0  0  0
  186.8060  179.7770  136.8660 F   0  0  0  0  0  0  0  0  0  0  0  0
  187.1500  178.4620  136.6090 C   0  0  0  0  0  3  0  0  0  0  0  0
  182.5770  177.3050  135.5830 C   0  0  0  0  0  0  0  0  0  0  0  0
  183.0430  177.1100  134.4880 C   0  0  0  0  0  3  0  0  0  0  0  0
  189.1030  178.8060  138.5360 C   0  0  0  0  0  1  0  0  0  0  0  0
  188.2960  177.9270  139.4760 C   0  0  1  0  0  3  0  0  0  0  0  0
  188.4060  178.3940  140.7920 O   0  0  0  0  0  0  0  0  0  0  0  0
  190.2110  176.9290  141.3170 C   0  0  0  0  0  1  0  0  0  0  0  0
  188.7570  177.2760  141.5650 C   0  0  1  0  0  3  0  0  0  0  0  0
  188.5310  177.5070  143.0680 C   0  0  2  0  0  3  0  0  0  0  0  0
  189.8200  177.1540  143.8120 C   0  0  0  0  0  3  0  0  0  0  0  0
  190.3890  178.4260  144.4180 C   0  0  0  0  0  2  0  0  0  0  0  0
  189.7220  177.4010  145.3100 C   0  0  0  0  0  2  0  0  0  0  0  0
  187.4410  176.7610  143.5380 O   0  0  0  0  0  0  0  0  0  0  0  0
  186.4160  177.6880  143.7180 C   0  0  0  0  0  1  0  0  0  0  0  0
  1 22  2  0  0  0  0
  2  1  1  1  0  0  0
  2  8  1  0  0  0  0
  4  7  1  1  0  0  0
  4 20  1  0  0  0  0
  4 14  1  0  0  0  0
  6 16  1  0  0  0  0
  8 15  1  0  0  0  0
  9  3  1  0  0  0  0
 10 20  2  0  0  0  0
 11 21  2  0  0  0  0
 12 31  1  6  0  0  0
 12 15  1  0  0  0  0
 13 24  1  0  0  0  0
 13  1  1  0  0  0  0
 14 23  2  0  0  0  0
 15  5  2  0  0  0  0
 17 18  1  0  0  0  0
 17  2  1  0  0  0  0
 17 16  1  1  0  0  0
 18 27  1  6  0  0  0
 18 12  1  0  0  0  0
 19  7  2  0  0  0  0
 19 10  1  0  0  0  0
 20 11  1  0  0  0  0
 21  9  1  0  0  0  0
 23 21  1  0  0  0  0
 23  6  1  0  0  0  0
 24  3  1  0  0  0  0
 25 27  1  0  0  0  0
 27 26  1  0  0  0  0
 28 13  1  0  0  0  0
 29 28  3  0  0  0  0
 31 30  1  6  0  0  0
 31 32  1  0  0  0  0
 32 34  1  0  0  0  0
 34 33  1  1  0  0  0
 34 35  1  0  0  0  0
 35 39  1  1  0  0  0
 35 36  1  0  0  0  0
 36 37  1  0  0  0  0
 36 38  1  0  0  0  0
 37 38  1  0  0  0  0
 39 40  1  0  0  0  0
M  END
>  <MODEL>
6

>  <REMARK>
 VINA RESULT:      -5.0      2.209      3.399
  Name = 
  8 active torsions:
  status: ('A' for Active; 'I' for Inactive)
    1  A    between atoms: C_4  and  N_23
    2  A    between atoms: C_8  and  C_17
    3  A    between atoms: O_9  and  C_35
    4  A    between atoms: O_9  and  C_40
    5  A    between atoms: C_17  and  O_19
    6  A    between atoms: C_17  and  C_35
    7  A    between atoms: C_22  and  C_40
    8  A    between atoms: C_29  and  C_30
                            x       y       z     vdW  Elec       q    Type
                         _______ _______ _______ _____ _____    ______ ____

>  <TORSDO>
F 8

$$$$
=
 OpenBabel10222421543D

 40 44  0  0  1  0  0  0  0  0999 V2000
  184.0190  178.0080  137.8920 C   0  0  0  0  0  0  0  0  0  0  0  0
  185.4820  178.0240  137.5010 C   0  0  1  0  0  3  0  0  0  0  0  0
  182.1240  175.8200  138.8680 C   0  0  0  0  0  2  0  0  0  0  0  0
  183.0460  172.2550  135.3700 C   0  0  2  0  0  3  0  0  0  0  0  0
  188.2040  178.5420  139.8520 O   0  0  0  0  0  0  0  0  0  0  0  0
  185.6730  174.4530  136.9240 C   0  0  0  0  0  2  0  0  0  0  0  0
  182.6920  171.2410  134.3460 C   0  0  0  0  0  3  0  0  0  0  0  0
  186.2720  178.4600  138.6180 O   0  0  0  0  0  0  0  0  0  0  0  0
  183.2300  174.9970  138.5110 O   0  0  0  0  0  0  0  0  0  0  0  0
  180.8730  171.7280  135.6710 N   0  0  0  0  0  0  0  0  0  0  0  0
  181.9710  173.3990  137.1830 C   0  0  0  0  0  3  0  0  0  0  0  0
  188.1950  176.9370  138.0660 C   0  0  1  0  0  3  0  0  0  0  0  0
  183.0240  177.3200  137.1170 N   0  0  0  0  0  0  0  0  0  0  0  0
  184.2610  172.8890  135.6140 C   0  0  0  0  0  3  0  0  0  0  0  0
  187.5870  178.0550  138.8680 C   0  0  0  0  0  0  0  0  0  0  0  0
  185.6060  175.6080  137.7180 O   0  0  0  0  0  0  0  0  0  0  0  0
  185.9830  176.6850  136.8980 C   0  0  2  0  0  3  0  0  0  0  0  0
  187.5130  176.7100  136.7180 C   0  0  1  0  0  3  0  0  0  0  0  0
  181.2640  170.9260  134.5790 N   0  0  0  0  0  0  0  0  0  0  0  0
  181.9560  172.5030  136.1210 C   0  0  0  0  0  0  0  0  0  0  0  0
  183.1780  174.0710  137.4670 C   0  0  0  0  0  0  0  0  0  0  0  0
  183.6650  178.6230  138.9350 O   0  0  0  0  0  0  0  0  0  0  0  0
  184.3330  173.8180  136.6720 C   0  0  0  0  0  0  0  0  0  0  0  0
  181.8050  176.8160  137.7480 C   0  0  0  0  0  2  0  0  0  0  0  0
  188.9140  178.5440  136.1000 F   0  0  0  0  0  0  0  0  0  0  0  0
  188.5240  176.9580  134.5360 F   0  0  0  0  0  0  0  0  0  0  0  0
  187.9840  177.6520  135.6040 C   0  0  0  0  0  3  0  0  0  0  0  0
  183.1880  177.1170  135.7400 C   0  0  0  0  0  0  0  0  0  0  0  0
  183.3170  176.9430  134.5550 C   0  0  0  0  0  3  0  0  0  0  0  0
  190.3480  177.3120  139.3600 C   0  0  0  0  0  1  0  0  0  0  0  0
  189.7250  176.8080  138.0700 C   0  0  1  0  0  3  0  0  0  0  0  0
  190.0770  175.4710  137.8490 O   0  0  0  0  0  0  0  0  0  0  0  0
  191.7640  176.4850  136.5050 C   0  0  0  0  0  1  0  0  0  0  0  0
  190.6710  175.4380  136.5780 C   0  0  1  0  0  3  0  0  0  0  0  0
  191.2570  174.0570  136.2390 C   0  0  2  0  0  3  0  0  0  0  0  0
  190.1020  173.0980  135.9480 C   0  0  0  0  0  3  0  0  0  0  0  0
  189.3630  173.5950  134.7170 C   0  0  0  0  0  2  0  0  0  0  0  0
  190.2570  172.3770  134.6180 C   0  0  0  0  0  2  0  0  0  0  0  0
  192.0730  173.5850  137.2770 O   0  0  0  0  0  0  0  0  0  0  0  0
  193.3210  173.3780  136.6940 C   0  0  0  0  0  1  0  0  0  0  0  0
  1 22  2  0  0  0  0
  2  1  1  1  0  0  0
  2  8  1  0  0  0  0
  4  7  1  1  0  0  0
  4 14  1  0  0  0  0
  4 20  1  0  0  0  0
  6 16  1  0  0  0  0
  7 19  2  0  0  0  0
  8 15  1  0  0  0  0
  9  3  1  0  0  0  0
 10 20  2  0  0  0  0
 11 21  2  0  0  0  0
 12 31  1  6  0  0  0
 12 15  1  0  0  0  0
 13 24  1  0  0  0  0
 13  1  1  0  0  0  0
 14 23  2  0  0  0  0
 15  5  2  0  0  0  0
 17  2  1  0  0  0  0
 17 16  1  1  0  0  0
 18 27  1  6  0  0  0
 18 17  1  0  0  0  0
 18 12  1  0  0  0  0
 19 10  1  0  0  0  0
 20 11  1  0  0  0  0
 21  9  1  0  0  0  0
 23  6  1  0  0  0  0
 23 21  1  0  0  0  0
 24  3  1  0  0  0  0
 26 27  1  0  0  0  0
 27 25  1  0  0  0  0
 28 13  1  0  0  0  0
 29 28  3  0  0  0  0
 31 30  1  1  0  0  0
 32 31  1  0  0  0  0
 34 33  1  1  0  0  0
 34 32  1  0  0  0  0
 35 34  1  0  0  0  0
 35 39  1  1  0  0  0
 36 35  1  0  0  0  0
 37 36  1  0  0  0  0
 38 37  1  0  0  0  0
 38 36  1  0  0  0  0
 40 39  1  0  0  0  0
M  END
>  <MODEL>
7

>  <REMARK>
 VINA RESULT:      -5.0      4.186      6.332
  Name = 
  8 active torsions:
  status: ('A' for Active; 'I' for Inactive)
    1  A    between atoms: C_4  and  N_23
    2  A    between atoms: C_8  and  C_17
    3  A    between atoms: O_9  and  C_35
    4  A    between atoms: O_9  and  C_40
    5  A    between atoms: C_17  and  O_19
    6  A    between atoms: C_17  and  C_35
    7  A    between atoms: C_22  and  C_40
    8  A    between atoms: C_29  and  C_30
                            x       y       z     vdW  Elec       q    Type
                         _______ _______ _______ _____ _____    ______ ____

>  <TORSDO>
F 8

$$$$
=
 OpenBabel10222421543D

 40 44  0  0  1  0  0  0  0  0999 V2000
  191.0320  176.2710  137.9740 C   0  0  0  0  0  0  0  0  0  0  0  0
  190.8410  176.2270  139.4750 C   0  0  1  0  0  3  0  0  0  0  0  0
  189.8260  177.9790  135.7460 C   0  0  0  0  0  2  0  0  0  0  0  0
  184.8960  177.5170  136.8770 C   0  0  0  0  0  0  0  0  0  0  0  0
  192.7210  178.2710  141.8200 O   0  0  0  0  0  0  0  0  0  0  0  0
  187.6420  177.9230  139.4160 C   0  0  0  0  0  2  0  0  0  0  0  0
  183.4640  177.2480  136.5970 C   0  0  0  0  0  3  0  0  0  0  0  0
  191.8760  176.9920  140.1130 O   0  0  0  0  0  0  0  0  0  0  0  0
  188.9770  178.3920  136.8130 O   0  0  0  0  0  0  0  0  0  0  0  0
  184.6100  177.6600  134.6430 N   0  0  0  0  0  0  0  0  0  0  0  0
  186.8760  178.0620  135.6370 C   0  0  0  0  0  2  0  0  0  0  0  0
  190.3660  177.8180  141.9460 C   0  0  1  0  0  3  0  0  0  0  0  0
  189.9970  175.8860  137.0550 N   0  0  0  0  0  0  0  0  0  0  0  0
  185.5750  177.5580  138.0910 C   0  0  0  0  0  3  0  0  0  0  0  0
  191.7280  177.6720  141.3260 C   0  0  0  0  0  0  0  0  0  0  0  0
  189.0400  177.8500  139.3320 O   0  0  0  0  0  0  0  0  0  0  0  0
  189.4190  176.6400  139.9370 C   0  0  2  0  0  3  0  0  0  0  0  0
  189.3620  176.7680  141.4710 C   0  0  1  0  0  3  0  0  0  0  0  0
  183.3220  177.3520  135.1280 N   0  0  0  0  0  0  0  0  0  0  0  0
  185.5220  177.7570  135.7080 C   0  0  0  0  0  0  0  0  0  0  0  0
  187.6090  178.1110  136.8420 C   0  0  0  0  0  0  0  0  0  0  0  0
  192.1420  176.6590  137.5160 O   0  0  0  0  0  0  0  0  0  0  0  0
  186.9540  177.8520  138.0800 C   0  0  0  0  0  0  0  0  0  0  0  0
  189.9460  176.4520  135.7090 C   0  0  0  0  0  2  0  0  0  0  0  0
  190.6690  175.3290  142.8610 F   0  0  0  0  0  0  0  0  0  0  0  0
  188.4220  175.2520  143.1030 F   0  0  0  0  0  0  0  0  0  0  0  0
  189.4590  175.4250  142.2030 C   0  0  0  0  0  3  0  0  0  0  0  0
  189.0130  174.9560  137.4190 C   0  0  0  0  0  0  0  0  0  0  0  0
  188.1650  174.1540  137.7210 C   0  0  0  0  0  3  0  0  0  0  0  0
  190.8590  179.5630  143.7240 C   0  0  0  0  0  1  0  0  0  0  0  0
  190.2960  178.1810  143.4360 C   0  0  1  0  0  3  0  0  0  0  0  0
  188.9680  178.0970  143.8720 O   0  0  0  0  0  0  0  0  0  0  0  0
  190.4060  177.1210  145.5030 C   0  0  0  0  0  1  0  0  0  0  0  0
  188.9860  177.2400  144.9840 C   0  0  1  0  0  3  0  0  0  0  0  0
  188.0630  177.7250  146.1130 C   0  0  2  0  0  3  0  0  0  0  0  0
  188.6200  177.2220  147.4450 C   0  0  0  0  0  3  0  0  0  0  0  0
  189.1560  178.4120  148.2230 C   0  0  0  0  0  2  0  0  0  0  0  0
  187.8560  177.7610  148.6450 C   0  0  0  0  0  2  0  0  0  0  0  0
  186.7440  177.2960  145.9080 O   0  0  0  0  0  0  0  0  0  0  0  0
  186.0220  178.4560  145.6360 C   0  0  0  0  0  1  0  0  0  0  0  0
  2  1  1  6  0  0  0
  2 17  1  0  0  0  0
  2  8  1  0  0  0  0
  3  9  1  0  0  0  0
  4 14  2  0  0  0  0
  7  4  1  0  0  0  0
  8 15  1  0  0  0  0
  9 21  1  0  0  0  0
 10 19  1  0  0  0  0
 10 20  2  0  0  0  0
 11 20  1  0  0  0  0
 11 21  1  0  0  0  0
 12 31  1  1  0  0  0
 13 28  1  0  0  0  0
 13  1  1  0  0  0  0
 15  5  2  0  0  0  0
 15 12  1  0  0  0  0
 16  6  1  0  0  0  0
 17 16  1  6  0  0  0
 17 18  1  0  0  0  0
 18 12  1  0  0  0  0
 18 27  1  1  0  0  0
 19  7  2  0  0  0  0
 20  4  1  0  0  0  0
 21 23  2  0  0  0  0
 22  1  2  0  0  0  0
 23 14  1  0  0  0  0
 23  6  1  0  0  0  0
 24  3  1  0  0  0  0
 24 13  1  0  0  0  0
 27 25  1  0  0  0  0
 27 26  1  0  0  0  0
 28 29  3  0  0  0  0
 31 30  1  6  0  0  0
 31 32  1  0  0  0  0
 32 34  1  0  0  0  0
 34 33  1  1  0  0  0
 34 35  1  0  0  0  0
 35 39  1  6  0  0  0
 35 36  1  0  0  0  0
 36 37  1  0  0  0  0
 36 38  1  0  0  0  0
 37 38  1  0  0  0  0
 40 39  1  0  0  0  0
M  END
>  <MODEL>
8

>  <REMARK>
 VINA RESULT:      -4.9      4.546      7.237
  Name = 
  8 active torsions:
  status: ('A' for Active; 'I' for Inactive)
    1  A    between atoms: C_4  and  N_23
    2  A    between atoms: C_8  and  C_17
    3  A    between atoms: O_9  and  C_35
    4  A    between atoms: O_9  and  C_40
    5  A    between atoms: C_17  and  O_19
    6  A    between atoms: C_17  and  C_35
    7  A    between atoms: C_22  and  C_40
    8  A    between atoms: C_29  and  C_30
                            x       y       z     vdW  Elec       q    Type
                         _______ _______ _______ _____ _____    ______ ____

>  <TORSDO>
F 8

$$$$
=
 OpenBabel10222421543D

 40 44  0  0  1  0  0  0  0  0999 V2000
  189.4260  174.8810  134.7840 C   0  0  0  0  0  0  0  0  0  0  0  0
  188.9450  176.1020  135.5410 C   0  0  1  0  0  3  0  0  0  0  0  0
  191.0370  172.4110  135.5810 C   0  0  0  0  0  2  0  0  0  0  0  0
  194.9260  174.6470  137.9630 C   0  0  0  0  0  0  0  0  0  0  0  0
  185.8000  176.2540  137.3560 O   0  0  0  0  0  0  0  0  0  0  0  0
  191.3380  175.7420  138.2350 C   0  0  0  0  0  2  0  0  0  0  0  0
  196.3540  174.9110  138.2670 C   0  0  0  0  0  3  0  0  0  0  0  0
  187.5850  175.9020  135.9600 O   0  0  0  0  0  0  0  0  0  0  0  0
  191.2070  173.1680  136.7740 O   0  0  0  0  0  0  0  0  0  0  0  0
  196.1170  172.9100  137.1530 N   0  0  0  0  0  0  0  0  0  0  0  0
  193.6220  172.9290  136.9110 C   0  0  0  0  0  2  0  0  0  0  0  0
  187.8940  177.1440  138.1230 C   0  0  1  0  0  3  0  0  0  0  0  0
  190.8170  174.6370  134.5230 N   0  0  0  0  0  0  0  0  0  0  0  0
  193.7960  175.4030  138.2600 C   0  0  0  0  0  3  0  0  0  0  0  0
  187.0200  176.4550  137.1120 C   0  0  0  0  0  0  0  0  0  0  0  0
  190.1790  175.4130  137.5150 O   0  0  0  0  0  0  0  0  0  0  0  0
  189.8760  176.5220  136.7070 C   0  0  2  0  0  3  0  0  0  0  0  0
  189.2230  177.6340  137.5500 C   0  0  1  0  0  3  0  0  0  0  0  0
  197.0950  173.7520  137.7210 N   0  0  0  0  0  0  0  0  0  0  0  0
  194.8370  173.4670  137.3170 C   0  0  0  0  0  0  0  0  0  0  0  0
  192.4480  173.6620  137.1860 C   0  0  0  0  0  0  0  0  0  0  0  0
  188.5700  174.0500  134.3690 O   0  0  0  0  0  0  0  0  0  0  0  0
  192.5350  174.9120  137.8620 C   0  0  0  0  0  0  0  0  0  0  0  0
  191.3150  173.2750  134.3460 C   0  0  0  0  0  2  0  0  0  0  0  0
  187.8960  179.1350  136.2460 F   0  0  0  0  0  0  0  0  0  0  0  0
  189.3910  180.0430  137.6800 F   0  0  0  0  0  0  0  0  0  0  0  0
  189.1400  178.9830  136.8260 C   0  0  0  0  0  3  0  0  0  0  0  0
  191.7330  175.6940  134.4250 C   0  0  0  0  0  0  0  0  0  0  0  0
  192.5230  176.6010  134.3530 C   0  0  0  0  0  3  0  0  0  0  0  0
  185.7800  178.4050  138.7490 C   0  0  0  0  0  1  0  0  0  0  0  0
  187.2160  178.0840  139.1290 C   0  0  1  0  0  3  0  0  0  0  0  0
  187.2630  177.5090  140.4060 O   0  0  0  0  0  0  0  0  0  0  0  0
  186.5640  179.0070  142.1210 C   0  0  0  0  0  1  0  0  0  0  0  0
  187.7160  178.5230  141.2640 C   0  0  1  0  0  3  0  0  0  0  0  0
  188.8700  178.0560  142.1670 C   0  0  2  0  0  3  0  0  0  0  0  0
  189.7020  177.0300  141.3980 C   0  0  0  0  0  3  0  0  0  0  0  0
  191.1730  177.3530  141.6040 C   0  0  0  0  0  2  0  0  0  0  0  0
  190.5580  176.1640  142.3110 C   0  0  0  0  0  2  0  0  0  0  0  0
  188.3870  177.5320  143.3740 O   0  0  0  0  0  0  0  0  0  0  0  0
  189.0810  178.2160  144.3710 C   0  0  0  0  0  1  0  0  0  0  0  0
  2  1  1  1  0  0  0
  2  8  1  0  0  0  0
  2 17  1  0  0  0  0
  3  9  1  0  0  0  0
  4 14  2  0  0  0  0
  4  7  1  0  0  0  0
  8 15  1  0  0  0  0
  9 21  1  0  0  0  0
 10 20  2  0  0  0  0
 10 19  1  0  0  0  0
 11 21  1  0  0  0  0
 11 20  1  0  0  0  0
 12 31  1  6  0  0  0
 13  1  1  0  0  0  0
 15  5  2  0  0  0  0
 15 12  1  0  0  0  0
 16  6  1  0  0  0  0
 17 16  1  1  0  0  0
 17 18  1  0  0  0  0
 18 27  1  6  0  0  0
 18 12  1  0  0  0  0
 19  7  2  0  0  0  0
 20  4  1  0  0  0  0
 21 23  2  0  0  0  0
 22  1  2  0  0  0  0
 23  6  1  0  0  0  0
 23 14  1  0  0  0  0
 24 13  1  0  0  0  0
 24  3  1  0  0  0  0
 25 27  1  0  0  0  0
 27 26  1  0  0  0  0
 28 13  1  0  0  0  0
 29 28  3  0  0  0  0
 31 30  1  6  0  0  0
 31 32  1  0  0  0  0
 32 34  1  0  0  0  0
 34 33  1  1  0  0  0
 34 35  1  0  0  0  0
 35 39  1  1  0  0  0
 36 37  1  0  0  0  0
 36 35  1  0  0  0  0
 36 38  1  0  0  0  0
 37 38  1  0  0  0  0
 39 40  1  0  0  0  0
M  END
>  <MODEL>
9

>  <REMARK>
 VINA RESULT:      -4.8      6.547      8.322
  Name = 
  8 active torsions:
  status: ('A' for Active; 'I' for Inactive)
    1  A    between atoms: C_4  and  N_23
    2  A    between atoms: C_8  and  C_17
    3  A    between atoms: O_9  and  C_35
    4  A    between atoms: O_9  and  C_40
    5  A    between atoms: C_17  and  O_19
    6  A    between atoms: C_17  and  C_35
    7  A    between atoms: C_22  and  C_40
    8  A    between atoms: C_29  and  C_30
                            x       y       z     vdW  Elec       q    Type
                         _______ _______ _______ _____ _____    ______ ____

>  <TORSDO>
F 8

$$$$
