=
 OpenBabel10222421413D

 47 52  0  0  1  0  0  0  0  0999 V2000
  189.1280  178.4650  138.5770 C   0  0  0  0  0  2  0  0  0  0  0  0
  187.4260  175.0510  136.4880 C   0  0  1  0  0  3  0  0  0  0  0  0
  190.6890  176.9160  137.6460 C   0  0  1  0  0  3  0  0  0  0  0  0
  192.7380  175.7950  138.1800 O   0  0  0  0  0  0  0  0  0  0  0  0
  188.8500  175.2730  136.8960 C   0  0  0  0  0  0  0  0  0  0  0  0
  188.3610  177.6860  137.5170 C   0  0  2  0  0  0  0  0  0  0  0  0
  187.8720  178.6530  136.4540 C   0  0  0  0  0  1  0  0  0  0  0  0
  187.1640  177.0000  138.2000 C   0  0  0  0  0  2  0  0  0  0  0  0
  186.4650  175.9330  137.3350 C   0  0  1  0  0  3  0  0  0  0  0  0
  190.3350  177.6210  138.9430 C   0  0  2  0  0  3  0  0  0  0  0  0
  189.6220  174.2230  137.1860 C   0  0  0  0  0  3  0  0  0  0  0  0
  191.5350  175.6850  137.8210 C   0  0  0  0  0  0  0  0  0  0  0  0
  189.3700  176.6950  136.9000 C   0  0  1  0  0  3  0  0  0  0  0  0
  190.9770  174.3890  137.6040 N   0  0  0  0  0  2  0  0  0  0  0  0
  187.2720  175.2510  134.9780 C   0  0  0  0  0  2  0  0  0  0  0  0
  186.5480  174.0720  134.3470 C   0  0  0  0  0  2  0  0  0  0  0  0
  186.7990  172.8130  135.1580 C   0  0  0  0  0  2  0  0  0  0  0  0
  185.6020  172.1210  135.3440 O   0  0  0  0  0  0  0  0  0  0  0  0
  185.8770  170.8210  134.9070 C   0  0  0  0  0  1  0  0  0  0  0  0
  189.9540  176.6780  139.9390 O   0  0  0  0  0  0  0  0  0  0  0  0
  189.3650  176.5860  143.5720 C   0  0  0  0  0  3  0  0  0  0  0  0
  189.1880  176.4900  142.1910 C   0  0  0  0  0  3  0  0  0  0  0  0
  191.6370  177.3330  143.2260 C   0  0  0  0  0  3  0  0  0  0  0  0
  191.4750  177.2320  141.8400 C   0  0  0  0  0  0  0  0  0  0  0  0
  190.5890  177.0100  144.0990 C   0  0  0  0  0  0  0  0  0  0  0  0
  190.2310  176.8030  141.3090 C   0  0  0  0  0  0  0  0  0  0  0  0
  192.8450  177.7300  140.8540 Cl  0  0  0  0  0  0  0  0  0  0  0  0
  190.7640  177.1180  145.5210 N   0  0  0  0  0  0  0  0  0  0  0  0
  192.0200  176.9920  146.0760 O   0  0  0  0  0  0  0  0  0  0  0  0
  189.7730  177.2470  146.2730 O   0  0  0  0  0  0  0  0  0  0  0  0
  185.2560  176.4950  136.5670 C   0  0  0  0  0  2  0  0  0  0  0  0
  183.9160  175.8850  136.9850 C   0  0  1  0  0  3  0  0  0  0  0  0
  184.0380  174.5070  137.1930 O   0  0  0  0  0  1  0  0  0  0  0  0
  183.3640  176.5590  138.2030 C   0  0  0  0  0  3  0  0  0  0  0  0
  182.9450  177.8200  138.1580 C   0  0  0  0  0  3  0  0  0  0  0  0
  182.4030  178.4650  139.3900 C   0  0  0  0  0  2  0  0  0  0  0  0
  183.5190  178.8280  140.3060 C   0  0  0  0  0  0  0  0  0  0  0  0
  184.6880  179.3410  139.8840 N   0  0  0  0  0  0  0  0  0  0  0  0
  184.7030  179.0690  142.0100 C   0  0  0  0  0  0  0  0  0  0  0  0
  185.4340  179.5070  140.9630 N   0  0  0  0  0  0  0  0  0  0  0  0
  183.4790  178.6440  141.6400 N   0  0  0  0  0  2  0  0  0  0  0  0
  185.5140  178.1040  146.0920 C   0  0  0  0  0  3  0  0  0  0  0  0
  186.1680  177.3370  144.9790 C   0  0  0  0  0  2  0  0  0  0  0  0
  183.9670  178.9730  144.4050 C   0  0  0  0  0  2  0  0  0  0  0  0
  185.1510  179.1620  143.4430 C   0  0  1  0  0  3  0  0  0  0  0  0
  184.4610  178.8810  145.8210 C   0  0  0  0  0  3  0  0  0  0  0  0
  186.3450  178.2170  143.7330 C   0  0  0  0  0  2  0  0  0  0  0  0
  1 10  1  0  0  0  0
  2 15  1  6  0  0  0
  2  5  1  0  0  0  0
  2  9  1  0  0  0  0
  3 12  1  1  0  0  0
  3 10  1  0  0  0  0
  5 11  2  0  0  0  0
  6  7  1  6  0  0  0
  6  8  1  0  0  0  0
  6  1  1  0  0  0  0
  9 31  1  6  0  0  0
  9  8  1  0  0  0  0
 10 20  1  1  0  0  0
 11 14  1  0  0  0  0
 12  4  2  0  0  0  0
 13  5  1  1  0  0  0
 13  6  1  0  0  0  0
 13  3  1  0  0  0  0
 14 12  1  0  0  0  0
 16 15  1  0  0  0  0
 16 17  1  0  0  0  0
 17 18  1  0  0  0  0
 19 18  1  0  0  0  0
 20 26  1  0  0  0  0
 21 25  1  0  0  0  0
 22 21  2  0  0  0  0
 23 25  2  0  0  0  0
 24 23  1  0  0  0  0
 25 28  1  0  0  0  0
 26 24  2  0  0  0  0
 26 22  1  0  0  0  0
 27 24  1  0  0  0  0
 28 29  2  0  0  0  0
 28 30  2  0  0  0  0
 31 32  1  0  0  0  0
 32 33  1  1  0  0  0
 32 34  1  0  0  0  0
 35 34  2  0  0  0  0
 35 36  1  0  0  0  0
 36 37  1  0  0  0  0
 37 41  1  0  0  0  0
 38 37  2  0  0  0  0
 38 40  1  0  0  0  0
 40 39  2  0  0  0  0
 41 39  1  0  0  0  0
 43 42  1  0  0  0  0
 44 46  1  0  0  0  0
 45 39  1  6  0  0  0
 45 47  1  0  0  0  0
 45 44  1  0  0  0  0
 46 42  2  0  0  0  0
 47 43  1  0  0  0  0
M  END
>  <MODEL>
1

>  <REMARK>
 VINA RESULT:      -8.5      0.000      0.000
  Name = 
  13 active torsions:
  status: ('A' for Active; 'I' for Inactive)
    1  A    between atoms: N_2  and  C_34
    2  A    between atoms: C_4  and  C_21
    3  A    between atoms: C_5  and  C_18
    4  A    between atoms: C_6  and  C_7
    5  A    between atoms: C_7  and  C_11
    6  A    between atoms: O_14  and  C_20
    7  A    between atoms: C_18  and  C_32
    8  A    between atoms: C_20  and  C_30
    9  A    between atoms: C_21  and  C_30
   10  A    between atoms: C_22  and  C_29
   11  A    between atoms: O_31  and  C_37
   12  A    between atoms: O_31  and  C_40
   13  A    between atoms: C_32  and  C_35
                            x       y       z     vdW  Elec       q    Type
                         _______ _______ _______ _____ _____    ______ ____

>  <TORSDO>
F 13

$$$$
=
 OpenBabel10222421413D

 47 52  0  0  1  0  0  0  0  0999 V2000
  188.5720  178.3790  138.7680 C   0  0  0  0  0  2  0  0  0  0  0  0
  188.6380  174.7110  136.4310 C   0  0  1  0  0  3  0  0  0  0  0  0
  190.7300  177.4860  138.2730 C   0  0  1  0  0  3  0  0  0  0  0  0
  192.8540  177.0790  139.3050 O   0  0  0  0  0  0  0  0  0  0  0  0
  189.7720  175.3700  137.1570 C   0  0  0  0  0  0  0  0  0  0  0  0
  188.3750  177.4480  137.5800 C   0  0  2  0  0  0  0  0  0  0  0  0
  187.8500  178.2550  136.4050 C   0  0  0  0  0  1  0  0  0  0  0  0
  187.3530  176.3690  137.9790 C   0  0  0  0  0  2  0  0  0  0  0  0
  187.2700  175.1800  137.0030 C   0  0  1  0  0  3  0  0  0  0  0  0
  189.8720  177.9630  139.4310 C   0  0  2  0  0  3  0  0  0  0  0  0
  190.7610  174.6210  137.6490 C   0  0  0  0  0  3  0  0  0  0  0  0
  191.8740  176.5960  138.6770 C   0  0  0  0  0  0  0  0  0  0  0  0
  189.7710  176.8820  137.2450 C   0  0  1  0  0  3  0  0  0  0  0  0
  191.8470  175.2020  138.3690 N   0  0  0  0  0  2  0  0  0  0  0  0
  188.7790  174.9310  134.9220 C   0  0  0  0  0  2  0  0  0  0  0  0
  189.8740  174.0450  134.3470 C   0  0  0  0  0  2  0  0  0  0  0  0
  189.4970  172.5830  134.5040 C   0  0  0  0  0  2  0  0  0  0  0  0
  190.5650  171.8720  135.0510 O   0  0  0  0  0  0  0  0  0  0  0  0
  191.6970  172.4070  134.4290 C   0  0  0  0  0  1  0  0  0  0  0  0
  189.6080  176.8950  140.3350 O   0  0  0  0  0  0  0  0  0  0  0  0
  188.0200  176.9610  143.6550 C   0  0  0  0  0  3  0  0  0  0  0  0
  188.2280  176.8440  142.2810 C   0  0  0  0  0  3  0  0  0  0  0  0
  190.3610  177.4760  143.9620 C   0  0  0  0  0  3  0  0  0  0  0  0
  190.5840  177.3530  142.5870 C   0  0  0  0  0  0  0  0  0  0  0  0
  189.0840  177.2800  144.5060 C   0  0  0  0  0  0  0  0  0  0  0  0
  189.5020  177.0300  141.7270 C   0  0  0  0  0  0  0  0  0  0  0  0
  192.2180  177.6890  142.0270 Cl  0  0  0  0  0  0  0  0  0  0  0  0
  188.8640  177.4100  145.9190 N   0  0  0  0  0  0  0  0  0  0  0  0
  189.8510  177.0470  146.8110 O   0  0  0  0  0  0  0  0  0  0  0  0
  187.7500  177.7780  146.3550 O   0  0  0  0  0  0  0  0  0  0  0  0
  186.1550  175.3510  135.9580 C   0  0  0  0  0  2  0  0  0  0  0  0
  184.8110  174.7510  136.3790 C   0  0  1  0  0  3  0  0  0  0  0  0
  184.9910  173.7400  137.3290 O   0  0  0  0  0  1  0  0  0  0  0  0
  183.8790  175.8040  136.8950 C   0  0  0  0  0  3  0  0  0  0  0  0
  184.2200  177.0890  136.8750 C   0  0  0  0  0  3  0  0  0  0  0  0
  183.2710  178.1150  137.4000 C   0  0  0  0  0  2  0  0  0  0  0  0
  183.7000  178.5580  138.7550 C   0  0  0  0  0  0  0  0  0  0  0  0
  184.3550  179.7090  138.9860 N   0  0  0  0  0  0  0  0  0  0  0  0
  184.0930  178.6080  140.8060 C   0  0  0  0  0  0  0  0  0  0  0  0
  184.5920  179.7490  140.2860 N   0  0  0  0  0  0  0  0  0  0  0  0
  183.5070  177.8320  139.8730 N   0  0  0  0  0  2  0  0  0  0  0  0
  184.0080  179.0250  145.0570 C   0  0  0  0  0  3  0  0  0  0  0  0
  182.8660  179.5180  144.2160 C   0  0  0  0  0  2  0  0  0  0  0  0
  185.3040  178.8930  142.9840 C   0  0  0  0  0  2  0  0  0  0  0  0
  184.0770  178.2930  142.2770 C   0  0  1  0  0  3  0  0  0  0  0  0
  185.1730  178.7310  144.4720 C   0  0  0  0  0  3  0  0  0  0  0  0
  182.7280  178.6860  142.9320 C   0  0  0  0  0  2  0  0  0  0  0  0
  1 10  1  0  0  0  0
  2 15  1  6  0  0  0
  2  9  1  0  0  0  0
  2  5  1  0  0  0  0
  3 12  1  1  0  0  0
  3 10  1  0  0  0  0
  5 11  2  0  0  0  0
  6  7  1  6  0  0  0
  6  8  1  0  0  0  0
  6  1  1  0  0  0  0
  9 31  1  6  0  0  0
  9  8  1  0  0  0  0
 10 20  1  1  0  0  0
 11 14  1  0  0  0  0
 12  4  2  0  0  0  0
 13  5  1  1  0  0  0
 13  6  1  0  0  0  0
 13  3  1  0  0  0  0
 14 12  1  0  0  0  0
 16 17  1  0  0  0  0
 16 15  1  0  0  0  0
 17 18  1  0  0  0  0
 19 18  1  0  0  0  0
 20 26  1  0  0  0  0
 21 25  1  0  0  0  0
 22 21  2  0  0  0  0
 23 25  2  0  0  0  0
 24 23  1  0  0  0  0
 25 28  1  0  0  0  0
 26 22  1  0  0  0  0
 26 24  2  0  0  0  0
 27 24  1  0  0  0  0
 28 30  2  0  0  0  0
 28 29  2  0  0  0  0
 31 32  1  0  0  0  0
 32 34  1  0  0  0  0
 32 33  1  1  0  0  0
 35 34  2  0  0  0  0
 35 36  1  0  0  0  0
 36 37  1  0  0  0  0
 37 38  2  0  0  0  0
 37 41  1  0  0  0  0
 38 40  1  0  0  0  0
 40 39  2  0  0  0  0
 41 39  1  0  0  0  0
 43 42  1  0  0  0  0
 44 46  1  0  0  0  0
 45 39  1  6  0  0  0
 45 47  1  0  0  0  0
 45 44  1  0  0  0  0
 46 42  2  0  0  0  0
 47 43  1  0  0  0  0
M  END
>  <MODEL>
2

>  <REMARK>
 VINA RESULT:      -7.8      1.544      2.036
  Name = 
  13 active torsions:
  status: ('A' for Active; 'I' for Inactive)
    1  A    between atoms: N_2  and  C_34
    2  A    between atoms: C_4  and  C_21
    3  A    between atoms: C_5  and  C_18
    4  A    between atoms: C_6  and  C_7
    5  A    between atoms: C_7  and  C_11
    6  A    between atoms: O_14  and  C_20
    7  A    between atoms: C_18  and  C_32
    8  A    between atoms: C_20  and  C_30
    9  A    between atoms: C_21  and  C_30
   10  A    between atoms: C_22  and  C_29
   11  A    between atoms: O_31  and  C_37
   12  A    between atoms: O_31  and  C_40
   13  A    between atoms: C_32  and  C_35
                            x       y       z     vdW  Elec       q    Type
                         _______ _______ _______ _____ _____    ______ ____

>  <TORSDO>
F 13

$$$$
=
 OpenBabel10222421413D

 47 52  0  0  1  0  0  0  0  0999 V2000
  187.1560  176.4490  135.3220 C   0  0  0  0  0  2  0  0  0  0  0  0
  183.7850  175.6590  137.9550 C   0  0  1  0  0  3  0  0  0  0  0  0
  186.2730  174.2310  135.2630 C   0  0  1  0  0  3  0  0  0  0  0  0
  186.9900  171.9470  135.2010 O   0  0  0  0  0  0  0  0  0  0  0  0
  184.6090  174.6740  137.1820 C   0  0  1  0  0  3  0  0  0  0  0  0
  185.7500  176.5450  135.8970 C   0  0  2  0  0  0  0  0  0  0  0  0
  184.9230  177.4710  135.0230 C   0  0  0  0  0  1  0  0  0  0  0  0
  185.8530  177.1160  137.3230 C   0  0  0  0  0  2  0  0  0  0  0  0
  184.5600  176.9930  138.1520 C   0  0  1  0  0  3  0  0  0  0  0  0
  187.5730  174.9940  135.4420 C   0  0  2  0  0  3  0  0  0  0  0  0
  184.7790  173.4400  137.6600 C   0  0  0  0  0  3  0  0  0  0  0  0
  186.3040  172.8230  135.7910 C   0  0  0  0  0  0  0  0  0  0  0  0
  185.1680  175.1170  135.8450 C   0  0  1  0  0  3  0  0  0  0  0  0
  185.5760  172.4780  136.9700 N   0  0  0  0  0  0  0  0  0  0  0  0
  182.4160  175.8360  137.2930 C   0  0  0  0  0  2  0  0  0  0  0  0
  181.3240  175.1860  138.1280 C   0  0  0  0  0  2  0  0  0  0  0  0
  180.9430  173.8420  137.5320 C   0  0  0  0  0  2  0  0  0  0  0  0
  181.3670  173.7720  136.2060 O   0  0  0  0  0  0  0  0  0  0  0  0
  181.5460  172.4060  135.9660 C   0  0  0  0  0  1  0  0  0  0  0  0
  188.1090  174.7740  136.7430 O   0  0  0  0  0  0  0  0  0  0  0  0
  191.6260  173.6870  136.7750 C   0  0  0  0  0  3  0  0  0  0  0  0
  190.2570  173.7600  136.5160 C   0  0  0  0  0  3  0  0  0  0  0  0
  191.4680  175.6680  138.1510 C   0  0  0  0  0  3  0  0  0  0  0  0
  190.0970  175.7570  137.8920 C   0  0  0  0  0  0  0  0  0  0  0  0
  192.2410  174.6390  137.5960 C   0  0  0  0  0  0  0  0  0  0  0  0
  189.4760  174.7890  137.0590 C   0  0  0  0  0  0  0  0  0  0  0  0
  189.2300  177.0570  138.7020 Cl  0  0  0  0  0  0  0  0  0  0  0  0
  193.6490  174.5540  137.8700 N   0  0  0  0  0  0  0  0  0  0  0  0
  194.3120  175.6250  138.4310 O   0  0  0  0  0  0  0  0  0  0  0  0
  194.3000  173.5410  137.5290 O   0  0  0  0  0  0  0  0  0  0  0  0
  183.6920  178.2620  138.0840 C   0  0  0  0  0  2  0  0  0  0  0  0
  184.0580  179.3210  139.1260 C   0  0  1  0  0  3  0  0  0  0  0  0
  183.4290  180.5380  138.8430 O   0  0  0  0  0  1  0  0  0  0  0  0
  183.7250  178.8620  140.5120 C   0  0  0  0  0  3  0  0  0  0  0  0
  184.6350  178.8960  141.4820 C   0  0  0  0  0  3  0  0  0  0  0  0
  184.2750  178.4290  142.8520 C   0  0  0  0  0  2  0  0  0  0  0  0
  185.5080  178.1030  143.6190 C   0  0  0  0  0  0  0  0  0  0  0  0
  185.5940  178.1910  144.9580 N   0  0  0  0  0  0  0  0  0  0  0  0
  187.4730  177.5950  144.1160 C   0  0  0  0  0  0  0  0  0  0  0  0
  186.8330  177.8560  145.2760 N   0  0  0  0  0  0  0  0  0  0  0  0
  186.6660  177.7260  143.0440 N   0  0  0  0  0  2  0  0  0  0  0  0
  191.6150  177.2350  143.1340 C   0  0  0  0  0  3  0  0  0  0  0  0
  191.1110  178.4200  143.9070 C   0  0  0  0  0  2  0  0  0  0  0  0
  189.2760  176.7690  142.5810 C   0  0  0  0  0  2  0  0  0  0  0  0
  188.8880  177.0910  144.0340 C   0  0  1  0  0  3  0  0  0  0  0  0
  190.7410  176.4490  142.4960 C   0  0  0  0  0  3  0  0  0  0  0  0
  189.8790  178.0470  144.7450 C   0  0  0  0  0  2  0  0  0  0  0  0
  1 10  1  0  0  0  0
  1  6  1  0  0  0  0
  2 15  1  6  0  0  0
  2  9  1  0  0  0  0
  3 10  1  0  0  0  0
  3 12  1  1  0  0  0
  3 13  1  0  0  0  0
  4 12  2  0  0  0  0
  5 11  1  6  0  0  0
  5  2  1  0  0  0  0
  6  7  1  6  0  0  0
  6  8  1  0  0  0  0
  8  9  1  0  0  0  0
  9 31  1  6  0  0  0
 10 20  1  1  0  0  0
 12 14  1  0  0  0  0
 13  6  1  0  0  0  0
 13  5  1  0  0  0  0
 14 11  2  0  0  0  0
 15 16  1  0  0  0  0
 17 16  1  0  0  0  0
 18 17  1  0  0  0  0
 19 18  1  0  0  0  0
 20 26  1  0  0  0  0
 21 25  1  0  0  0  0
 22 21  2  0  0  0  0
 22 26  1  0  0  0  0
 24 23  1  0  0  0  0
 24 27  1  0  0  0  0
 25 28  1  0  0  0  0
 25 23  2  0  0  0  0
 26 24  2  0  0  0  0
 28 29  2  0  0  0  0
 30 28  2  0  0  0  0
 31 32  1  0  0  0  0
 32 34  1  0  0  0  0
 33 32  1  0  0  0  0
 34 35  2  0  0  0  0
 35 36  1  0  0  0  0
 36 37  1  0  0  0  0
 37 38  2  0  0  0  0
 38 40  1  0  0  0  0
 39 40  2  0  0  0  0
 41 37  1  0  0  0  0
 41 39  1  0  0  0  0
 42 43  1  0  0  0  0
 43 47  1  0  0  0  0
 44 45  1  0  0  0  0
 45 39  1  0  0  0  0
 45 47  1  0  0  0  0
 46 44  1  0  0  0  0
 46 42  2  0  0  0  0
M  END
>  <MODEL>
3

>  <REMARK>
 VINA RESULT:      -7.5      2.683      5.417
  Name = 
  13 active torsions:
  status: ('A' for Active; 'I' for Inactive)
    1  A    between atoms: N_2  and  C_34
    2  A    between atoms: C_4  and  C_21
    3  A    between atoms: C_5  and  C_18
    4  A    between atoms: C_6  and  C_7
    5  A    between atoms: C_7  and  C_11
    6  A    between atoms: O_14  and  C_20
    7  A    between atoms: C_18  and  C_32
    8  A    between atoms: C_20  and  C_30
    9  A    between atoms: C_21  and  C_30
   10  A    between atoms: C_22  and  C_29
   11  A    between atoms: O_31  and  C_37
   12  A    between atoms: O_31  and  C_40
   13  A    between atoms: C_32  and  C_35
                            x       y       z     vdW  Elec       q    Type
                         _______ _______ _______ _____ _____    ______ ____

>  <TORSDO>
F 13

$$$$
=
 OpenBabel10222421413D

 47 52  0  0  1  0  0  0  0  0999 V2000
  187.0810  176.3930  134.9850 C   0  0  0  0  0  2  0  0  0  0  0  0
  183.9060  175.6380  137.8580 C   0  0  1  0  0  3  0  0  0  0  0  0
  186.2890  174.1450  135.1080 C   0  0  1  0  0  3  0  0  0  0  0  0
  187.0960  171.8890  135.1370 O   0  0  0  0  0  0  0  0  0  0  0  0
  184.7230  174.6400  137.0950 C   0  0  1  0  0  3  0  0  0  0  0  0
  185.7080  176.4720  135.6370 C   0  0  2  0  0  0  0  0  0  0  0  0
  184.7950  177.3110  134.7610 C   0  0  0  0  0  1  0  0  0  0  0  0
  185.8710  177.1310  137.0180 C   0  0  0  0  0  2  0  0  0  0  0  0
  184.6340  177.0100  137.9300 C   0  0  1  0  0  3  0  0  0  0  0  0
  187.5640  174.9660  135.1640 C   0  0  2  0  0  3  0  0  0  0  0  0
  184.9710  173.4450  137.6330 C   0  0  0  0  0  3  0  0  0  0  0  0
  186.4090  172.7740  135.7150 C   0  0  0  0  0  0  0  0  0  0  0  0
  185.1840  175.0220  135.7040 C   0  0  1  0  0  3  0  0  0  0  0  0
  185.7660  172.4740  136.9540 N   0  0  0  0  0  0  0  0  0  0  0  0
  182.4940  175.7230  137.2710 C   0  0  0  0  0  2  0  0  0  0  0  0
  181.4830  175.0630  138.1960 C   0  0  0  0  0  2  0  0  0  0  0  0
  181.5320  175.7120  139.5680 C   0  0  0  0  0  2  0  0  0  0  0  0
  180.2690  176.1930  139.9120 O   0  0  0  0  0  0  0  0  0  0  0  0
  180.4410  177.5770  140.0270 C   0  0  0  0  0  1  0  0  0  0  0  0
  188.1840  174.8460  136.4400 O   0  0  0  0  0  0  0  0  0  0  0  0
  191.8550  174.9460  136.1810 C   0  0  0  0  0  3  0  0  0  0  0  0
  190.5130  174.6320  135.9660 C   0  0  0  0  0  3  0  0  0  0  0  0
  191.2130  176.4580  137.9550 C   0  0  0  0  0  3  0  0  0  0  0  0
  189.8640  176.1570  137.7420 C   0  0  0  0  0  0  0  0  0  0  0  0
  192.2150  175.8590  137.1780 C   0  0  0  0  0  0  0  0  0  0  0  0
  189.5020  175.2300  136.7300 C   0  0  0  0  0  0  0  0  0  0  0  0
  188.7110  176.9260  138.8270 Cl  0  0  0  0  0  0  0  0  0  0  0  0
  193.5990  176.1720  137.4050 N   0  0  0  0  0  0  0  0  0  0  0  0
  194.3330  176.8140  136.4290 O   0  0  0  0  0  0  0  0  0  0  0  0
  194.1700  175.7960  138.4530 O   0  0  0  0  0  0  0  0  0  0  0  0
  183.7120  178.2380  137.8400 C   0  0  0  0  0  2  0  0  0  0  0  0
  183.8910  179.2340  138.9890 C   0  0  1  0  0  3  0  0  0  0  0  0
  182.8340  180.1500  139.0250 O   0  0  0  0  0  1  0  0  0  0  0  0
  184.0320  178.5340  140.3040 C   0  0  0  0  0  3  0  0  0  0  0  0
  184.9930  178.8690  141.1600 C   0  0  0  0  0  3  0  0  0  0  0  0
  185.1100  178.1500  142.4620 C   0  0  0  0  0  2  0  0  0  0  0  0
  186.5400  178.0580  142.8650 C   0  0  0  0  0  0  0  0  0  0  0  0
  187.5520  177.9270  141.9880 N   0  0  0  0  0  0  0  0  0  0  0  0
  188.2880  177.9120  144.0010 C   0  0  0  0  0  0  0  0  0  0  0  0
  188.6590  177.8490  142.7050 N   0  0  0  0  0  0  0  0  0  0  0  0
  186.9560  178.0590  144.1460 N   0  0  0  0  0  2  0  0  0  0  0  0
  191.1560  176.7390  146.9410 C   0  0  0  0  0  3  0  0  0  0  0  0
  191.4800  176.6490  145.4770 C   0  0  0  0  0  2  0  0  0  0  0  0
  188.8140  176.9910  146.2740 C   0  0  0  0  0  2  0  0  0  0  0  0
  189.2570  177.9450  145.1510 C   0  0  1  0  0  3  0  0  0  0  0  0
  189.8850  176.8960  147.3230 C   0  0  0  0  0  3  0  0  0  0  0  0
  190.7150  177.7150  144.6790 C   0  0  0  0  0  2  0  0  0  0  0  0
  1 10  1  0  0  0  0
  1  6  1  0  0  0  0
  2 15  1  6  0  0  0
  2  9  1  0  0  0  0
  3 10  1  0  0  0  0
  3 13  1  0  0  0  0
  3 12  1  1  0  0  0
  4 12  2  0  0  0  0
  5 11  1  6  0  0  0
  5  2  1  0  0  0  0
  6  7  1  6  0  0  0
  6 13  1  0  0  0  0
  6  8  1  0  0  0  0
  8  9  1  0  0  0  0
  9 31  1  6  0  0  0
 10 20  1  1  0  0  0
 12 14  1  0  0  0  0
 13  5  1  0  0  0  0
 14 11  2  0  0  0  0
 15 16  1  0  0  0  0
 16 17  1  0  0  0  0
 17 18  1  0  0  0  0
 18 19  1  0  0  0  0
 20 26  1  0  0  0  0
 21 25  1  0  0  0  0
 22 21  2  0  0  0  0
 22 26  1  0  0  0  0
 24 23  1  0  0  0  0
 24 27  1  0  0  0  0
 25 28  1  0  0  0  0
 25 23  2  0  0  0  0
 26 24  2  0  0  0  0
 28 30  2  0  0  0  0
 29 28  2  0  0  0  0
 31 32  1  0  0  0  0
 32 33  1  0  0  0  0
 32 34  1  0  0  0  0
 34 35  2  0  0  0  0
 35 36  1  0  0  0  0
 36 37  1  0  0  0  0
 37 41  1  0  0  0  0
 38 40  1  0  0  0  0
 38 37  2  0  0  0  0
 39 41  1  0  0  0  0
 39 45  1  0  0  0  0
 40 39  2  0  0  0  0
 42 46  2  0  0  0  0
 43 42  1  0  0  0  0
 44 46  1  0  0  0  0
 45 44  1  0  0  0  0
 47 45  1  0  0  0  0
 47 43  1  0  0  0  0
M  END
>  <MODEL>
4

>  <REMARK>
 VINA RESULT:      -7.5      2.882      5.643
  Name = 
  13 active torsions:
  status: ('A' for Active; 'I' for Inactive)
    1  A    between atoms: N_2  and  C_34
    2  A    between atoms: C_4  and  C_21
    3  A    between atoms: C_5  and  C_18
    4  A    between atoms: C_6  and  C_7
    5  A    between atoms: C_7  and  C_11
    6  A    between atoms: O_14  and  C_20
    7  A    between atoms: C_18  and  C_32
    8  A    between atoms: C_20  and  C_30
    9  A    between atoms: C_21  and  C_30
   10  A    between atoms: C_22  and  C_29
   11  A    between atoms: O_31  and  C_37
   12  A    between atoms: O_31  and  C_40
   13  A    between atoms: C_32  and  C_35
                            x       y       z     vdW  Elec       q    Type
                         _______ _______ _______ _____ _____    ______ ____

>  <TORSDO>
F 13

$$$$
=
 OpenBabel10222421413D

 47 52  0  0  1  0  0  0  0  0999 V2000
  187.9330  178.3110  137.1230 C   0  0  0  0  0  2  0  0  0  0  0  0
  185.6580  174.7110  136.2420 C   0  0  1  0  0  3  0  0  0  0  0  0
  189.1090  176.5790  135.9750 C   0  0  1  0  0  3  0  0  0  0  0  0
  191.2260  175.4580  135.9710 O   0  0  0  0  0  0  0  0  0  0  0  0
  187.1360  174.9270  136.1230 C   0  0  0  0  0  0  0  0  0  0  0  0
  186.8640  177.4230  136.5030 C   0  0  2  0  0  0  0  0  0  0  0  0
  186.0450  178.2490  135.5260 C   0  0  0  0  0  1  0  0  0  0  0  0
  185.9640  176.8940  137.6330 C   0  0  0  0  0  2  0  0  0  0  0  0
  185.0250  175.7460  137.2150 C   0  0  1  0  0  3  0  0  0  0  0  0
  189.1990  177.4770  137.1960 C   0  0  2  0  0  3  0  0  0  0  0  0
  187.9670  173.8970  136.2980 C   0  0  0  0  0  3  0  0  0  0  0  0
  189.9730  175.3500  136.0460 C   0  0  0  0  0  0  0  0  0  0  0  0
  187.6190  176.3110  135.7450 C   0  0  1  0  0  3  0  0  0  0  0  0
  189.3830  174.0620  136.2200 N   0  0  0  0  0  2  0  0  0  0  0  0
  185.0130  174.7000  134.8540 C   0  0  0  0  0  2  0  0  0  0  0  0
  184.7610  173.2740  134.3860 C   0  0  0  0  0  2  0  0  0  0  0  0
  183.2690  172.9960  134.3460 C   0  0  0  0  0  2  0  0  0  0  0  0
  182.7140  173.1960  135.6100 O   0  0  0  0  0  0  0  0  0  0  0  0
  181.3400  173.0110  135.4230 C   0  0  0  0  0  1  0  0  0  0  0  0
  189.1730  176.7040  138.3920 O   0  0  0  0  0  0  0  0  0  0  0  0
  189.3140  177.9560  141.8510 C   0  0  0  0  0  3  0  0  0  0  0  0
  188.8490  177.5400  140.6030 C   0  0  0  0  0  3  0  0  0  0  0  0
  191.5840  177.5190  141.1460 C   0  0  0  0  0  3  0  0  0  0  0  0
  191.1290  177.0910  139.8950 C   0  0  0  0  0  0  0  0  0  0  0  0
  190.6850  177.9510  142.1310 C   0  0  0  0  0  0  0  0  0  0  0  0
  189.7380  177.0980  139.6140 C   0  0  0  0  0  0  0  0  0  0  0  0
  192.3650  176.6370  138.7270 Cl  0  0  0  0  0  0  0  0  0  0  0  0
  191.1610  178.3900  143.4130 N   0  0  0  0  0  0  0  0  0  0  0  0
  191.8710  177.5280  144.2210 O   0  0  0  0  0  0  0  0  0  0  0  0
  190.8690  179.5300  143.8400 O   0  0  0  0  0  0  0  0  0  0  0  0
  183.6270  176.2450  136.8100 C   0  0  0  0  0  2  0  0  0  0  0  0
  182.5730  176.0990  137.9100 C   0  0  1  0  0  3  0  0  0  0  0  0
  182.9470  175.1150  138.8330 O   0  0  0  0  0  1  0  0  0  0  0  0
  182.3170  177.4030  138.6000 C   0  0  0  0  0  3  0  0  0  0  0  0
  181.9820  177.4440  139.8860 C   0  0  0  0  0  3  0  0  0  0  0  0
  181.7290  178.7590  140.5440 C   0  0  0  0  0  2  0  0  0  0  0  0
  182.3690  178.7870  141.8870 C   0  0  0  0  0  0  0  0  0  0  0  0
  181.6760  178.7720  143.0400 N   0  0  0  0  0  0  0  0  0  0  0  0
  183.7810  178.9090  143.4230 C   0  0  0  0  0  0  0  0  0  0  0  0
  182.5680  178.8350  144.0130 N   0  0  0  0  0  0  0  0  0  0  0  0
  183.7000  178.8660  142.0780 N   0  0  0  0  0  2  0  0  0  0  0  0
  187.0570  177.7030  145.8850 C   0  0  0  0  0  3  0  0  0  0  0  0
  186.7330  176.9580  144.6210 C   0  0  0  0  0  2  0  0  0  0  0  0
  184.8450  178.7330  145.6870 C   0  0  0  0  0  2  0  0  0  0  0  0
  185.0820  178.9070  144.1770 C   0  0  1  0  0  3  0  0  0  0  0  0
  186.1560  178.5460  146.3970 C   0  0  0  0  0  3  0  0  0  0  0  0
  186.0880  177.8880  143.5840 C   0  0  0  0  0  2  0  0  0  0  0  0
  1 10  1  0  0  0  0
  2 15  1  6  0  0  0
  2  9  1  0  0  0  0
  3 12  1  1  0  0  0
  3 10  1  0  0  0  0
  4 12  2  0  0  0  0
  5  2  1  0  0  0  0
  5 11  2  0  0  0  0
  6  7  1  6  0  0  0
  6  1  1  0  0  0  0
  6  8  1  0  0  0  0
  9 31  1  6  0  0  0
  9  8  1  0  0  0  0
 10 20  1  1  0  0  0
 12 14  1  0  0  0  0
 13  3  1  0  0  0  0
 13  5  1  1  0  0  0
 13  6  1  0  0  0  0
 14 11  1  0  0  0  0
 16 15  1  0  0  0  0
 17 16  1  0  0  0  0
 17 18  1  0  0  0  0
 19 18  1  0  0  0  0
 20 26  1  0  0  0  0
 21 25  1  0  0  0  0
 22 21  2  0  0  0  0
 23 25  2  0  0  0  0
 24 23  1  0  0  0  0
 25 28  1  0  0  0  0
 26 24  2  0  0  0  0
 26 22  1  0  0  0  0
 27 24  1  0  0  0  0
 28 30  2  0  0  0  0
 28 29  2  0  0  0  0
 31 32  1  0  0  0  0
 32 34  1  0  0  0  0
 32 33  1  1  0  0  0
 34 35  2  0  0  0  0
 35 36  1  0  0  0  0
 36 37  1  0  0  0  0
 37 41  1  0  0  0  0
 37 38  2  0  0  0  0
 38 40  1  0  0  0  0
 39 40  2  0  0  0  0
 41 39  1  0  0  0  0
 42 46  2  0  0  0  0
 43 42  1  0  0  0  0
 44 46  1  0  0  0  0
 45 39  1  6  0  0  0
 45 44  1  0  0  0  0
 47 45  1  0  0  0  0
 47 43  1  0  0  0  0
M  END
>  <MODEL>
5

>  <REMARK>
 VINA RESULT:      -7.3      1.762      2.274
  Name = 
  13 active torsions:
  status: ('A' for Active; 'I' for Inactive)
    1  A    between atoms: N_2  and  C_34
    2  A    between atoms: C_4  and  C_21
    3  A    between atoms: C_5  and  C_18
    4  A    between atoms: C_6  and  C_7
    5  A    between atoms: C_7  and  C_11
    6  A    between atoms: O_14  and  C_20
    7  A    between atoms: C_18  and  C_32
    8  A    between atoms: C_20  and  C_30
    9  A    between atoms: C_21  and  C_30
   10  A    between atoms: C_22  and  C_29
   11  A    between atoms: O_31  and  C_37
   12  A    between atoms: O_31  and  C_40
   13  A    between atoms: C_32  and  C_35
                            x       y       z     vdW  Elec       q    Type
                         _______ _______ _______ _____ _____    ______ ____

>  <TORSDO>
F 13

$$$$
=
 OpenBabel10222421413D

 47 52  0  0  1  0  0  0  0  0999 V2000
  185.4480  178.0400  136.7430 C   0  0  0  0  0  2  0  0  0  0  0  0
  183.1390  174.3590  136.9460 C   0  0  1  0  0  3  0  0  0  0  0  0
  186.3260  176.1800  135.5300 C   0  0  1  0  0  3  0  0  0  0  0  0
  188.3990  175.0660  135.0810 O   0  0  0  0  0  0  0  0  0  0  0  0
  184.5220  174.5590  136.4040 C   0  0  1  0  0  3  0  0  0  0  0  0
  184.2800  177.0830  136.5460 C   0  0  2  0  0  0  0  0  0  0  0  0
  183.2010  177.7830  135.7390 C   0  0  0  0  0  1  0  0  0  0  0  0
  183.7380  176.6970  137.9330 C   0  0  0  0  0  2  0  0  0  0  0  0
  182.7600  175.5060  137.9250 C   0  0  1  0  0  3  0  0  0  0  0  0
  186.7130  177.2200  136.5650 C   0  0  2  0  0  3  0  0  0  0  0  0
  185.4030  173.5580  136.4660 C   0  0  0  0  0  3  0  0  0  0  0  0
  187.2170  174.9680  135.5070 C   0  0  0  0  0  0  0  0  0  0  0  0
  184.8390  175.8860  135.7470 C   0  0  1  0  0  3  0  0  0  0  0  0
  186.7380  173.7110  135.9850 N   0  0  0  0  0  0  0  0  0  0  0  0
  182.1430  174.1790  135.7970 C   0  0  0  0  0  2  0  0  0  0  0  0
  182.2500  172.7820  135.2040 C   0  0  0  0  0  2  0  0  0  0  0  0
  182.1240  171.7400  136.3000 C   0  0  0  0  0  2  0  0  0  0  0  0
  182.2390  170.4610  135.7560 O   0  0  0  0  0  0  0  0  0  0  0  0
  183.5370  170.0560  136.0820 C   0  0  0  0  0  1  0  0  0  0  0  0
  187.0370  176.5990  137.8050 O   0  0  0  0  0  0  0  0  0  0  0  0
  190.5720  176.3760  138.8080 C   0  0  0  0  0  3  0  0  0  0  0  0
  189.3660  176.1930  138.1320 C   0  0  0  0  0  3  0  0  0  0  0  0
  189.4730  177.8730  140.3550 C   0  0  0  0  0  3  0  0  0  0  0  0
  188.2600  177.7040  139.6810 C   0  0  0  0  0  0  0  0  0  0  0  0
  190.6350  177.2160  139.9260 C   0  0  0  0  0  0  0  0  0  0  0  0
  188.2000  176.8510  138.5480 C   0  0  0  0  0  0  0  0  0  0  0  0
  186.8650  178.5330  140.3610 Cl  0  0  0  0  0  0  0  0  0  0  0  0
  191.8760  177.3940  140.6260 N   0  0  0  0  0  0  0  0  0  0  0  0
  191.8770  177.6410  141.9830 O   0  0  0  0  0  0  0  0  0  0  0  0
  192.9600  177.4070  140.0010 O   0  0  0  0  0  0  0  0  0  0  0  0
  181.2880  175.9520  137.8610 C   0  0  0  0  0  2  0  0  0  0  0  0
  180.5880  175.9810  139.2220 C   0  0  1  0  0  3  0  0  0  0  0  0
  180.9120  174.8470  139.9740 O   0  0  0  0  0  1  0  0  0  0  0  0
  180.9140  177.2310  139.9780 C   0  0  0  0  0  3  0  0  0  0  0  0
  180.3270  177.5020  141.1410 C   0  0  0  0  0  3  0  0  0  0  0  0
  180.6700  178.7570  141.8690 C   0  0  0  0  0  2  0  0  0  0  0  0
  182.1180  178.7650  142.2150 C   0  0  0  0  0  0  0  0  0  0  0  0
  183.0980  178.6020  141.3090 N   0  0  0  0  0  0  0  0  0  0  0  0
  183.9150  178.7990  143.2800 C   0  0  0  0  0  0  0  0  0  0  0  0
  184.2360  178.6370  141.9790 N   0  0  0  0  0  0  0  0  0  0  0  0
  182.5840  178.8990  143.4710 N   0  0  0  0  0  2  0  0  0  0  0  0
  186.5080  178.0370  146.5890 C   0  0  0  0  0  3  0  0  0  0  0  0
  186.6910  177.3080  145.2880 C   0  0  0  0  0  2  0  0  0  0  0  0
  184.3030  178.6980  145.7560 C   0  0  0  0  0  2  0  0  0  0  0  0
  184.9270  178.9780  144.3780 C   0  0  1  0  0  3  0  0  0  0  0  0
  185.3680  178.6970  146.8150 C   0  0  0  0  0  3  0  0  0  0  0  0
  186.2190  178.1650  144.1060 C   0  0  0  0  0  2  0  0  0  0  0  0
  2 15  1  6  0  0  0
  2  9  1  0  0  0  0
  3 12  1  1  0  0  0
  3 13  1  0  0  0  0
  3 10  1  0  0  0  0
  4 12  2  0  0  0  0
  5 11  1  6  0  0  0
  5  2  1  0  0  0  0
  6  7  1  6  0  0  0
  6  1  1  0  0  0  0
  6  8  1  0  0  0  0
  9 31  1  6  0  0  0
  9  8  1  0  0  0  0
 10  1  1  0  0  0  0
 10 20  1  1  0  0  0
 12 14  1  0  0  0  0
 13  5  1  0  0  0  0
 13  6  1  0  0  0  0
 14 11  2  0  0  0  0
 16 15  1  0  0  0  0
 16 17  1  0  0  0  0
 18 19  1  0  0  0  0
 18 17  1  0  0  0  0
 20 26  1  0  0  0  0
 21 25  1  0  0  0  0
 22 26  1  0  0  0  0
 22 21  2  0  0  0  0
 24 23  1  0  0  0  0
 24 27  1  0  0  0  0
 25 23  2  0  0  0  0
 25 28  1  0  0  0  0
 26 24  2  0  0  0  0
 28 29  2  0  0  0  0
 30 28  2  0  0  0  0
 31 32  1  0  0  0  0
 32 33  1  0  0  0  0
 32 34  1  0  0  0  0
 34 35  2  0  0  0  0
 35 36  1  0  0  0  0
 36 37  1  0  0  0  0
 37 41  1  0  0  0  0
 38 40  1  0  0  0  0
 38 37  2  0  0  0  0
 39 41  1  0  0  0  0
 39 45  1  0  0  0  0
 40 39  2  0  0  0  0
 42 46  2  0  0  0  0
 43 42  1  0  0  0  0
 44 46  1  0  0  0  0
 45 44  1  0  0  0  0
 47 45  1  0  0  0  0
 47 43  1  0  0  0  0
M  END
>  <MODEL>
6

>  <REMARK>
 VINA RESULT:      -6.6      2.481      3.941
  Name = 
  13 active torsions:
  status: ('A' for Active; 'I' for Inactive)
    1  A    between atoms: N_2  and  C_34
    2  A    between atoms: C_4  and  C_21
    3  A    between atoms: C_5  and  C_18
    4  A    between atoms: C_6  and  C_7
    5  A    between atoms: C_7  and  C_11
    6  A    between atoms: O_14  and  C_20
    7  A    between atoms: C_18  and  C_32
    8  A    between atoms: C_20  and  C_30
    9  A    between atoms: C_21  and  C_30
   10  A    between atoms: C_22  and  C_29
   11  A    between atoms: O_31  and  C_37
   12  A    between atoms: O_31  and  C_40
   13  A    between atoms: C_32  and  C_35
                            x       y       z     vdW  Elec       q    Type
                         _______ _______ _______ _____ _____    ______ ____

>  <TORSDO>
F 13

$$$$
=
 OpenBabel10222421413D

 47 52  0  0  1  0  0  0  0  0999 V2000
  186.8600  176.4800  135.2340 C   0  0  0  0  0  2  0  0  0  0  0  0
  183.6910  175.3480  137.9880 C   0  0  1  0  0  3  0  0  0  0  0  0
  185.8680  174.3390  134.8710 C   0  0  1  0  0  3  0  0  0  0  0  0
  186.4650  172.0790  134.3480 O   0  0  0  0  0  0  0  0  0  0  0  0
  184.3970  174.4900  136.9830 C   0  0  1  0  0  3  0  0  0  0  0  0
  185.5140  176.5200  135.9440 C   0  0  2  0  0  0  0  0  0  0  0  0
  184.6630  177.6140  135.3230 C   0  0  0  0  0  1  0  0  0  0  0  0
  185.7660  176.8250  137.4310 C   0  0  0  0  0  2  0  0  0  0  0  0
  184.5430  176.6000  138.3410 C   0  0  1  0  0  3  0  0  0  0  0  0
  187.2140  175.0150  135.0600 C   0  0  2  0  0  3  0  0  0  0  0  0
  184.5450  173.1860  137.2210 C   0  0  0  0  0  3  0  0  0  0  0  0
  185.8750  172.8600  135.1410 C   0  0  0  0  0  0  0  0  0  0  0  0
  184.8610  175.1440  135.6980 C   0  0  1  0  0  3  0  0  0  0  0  0
  185.2340  172.3360  136.3050 N   0  0  0  0  0  0  0  0  0  0  0  0
  182.2810  175.6860  137.4950 C   0  0  0  0  0  2  0  0  0  0  0  0
  181.5840  176.6340  138.4590 C   0  0  0  0  0  2  0  0  0  0  0  0
  180.1650  176.1620  138.7190 C   0  0  0  0  0  2  0  0  0  0  0  0
  180.0350  175.7530  140.0460 O   0  0  0  0  0  0  0  0  0  0  0  0
  180.1930  174.3640  140.0020 C   0  0  0  0  0  1  0  0  0  0  0  0
  187.8480  174.5500  136.2480 O   0  0  0  0  0  0  0  0  0  0  0  0
  190.9040  176.0360  137.6640 C   0  0  0  0  0  3  0  0  0  0  0  0
  189.5710  175.8010  137.3240 C   0  0  0  0  0  3  0  0  0  0  0  0
  191.5630  174.0710  136.4210 C   0  0  0  0  0  3  0  0  0  0  0  0
  190.2300  173.8200  136.0800 C   0  0  0  0  0  0  0  0  0  0  0  0
  191.9100  175.1740  137.2140 C   0  0  0  0  0  0  0  0  0  0  0  0
  189.2120  174.6970  136.5390 C   0  0  0  0  0  0  0  0  0  0  0  0
  189.9380  172.4410  135.0270 Cl  0  0  0  0  0  0  0  0  0  0  0  0
  193.2820  175.4240  137.5570 N   0  0  0  0  0  0  0  0  0  0  0  0
  193.8210  176.6820  137.3850 O   0  0  0  0  0  0  0  0  0  0  0  0
  194.0200  174.4890  137.9390 O   0  0  0  0  0  0  0  0  0  0  0  0
  183.7360  177.8890  138.5750 C   0  0  0  0  0  2  0  0  0  0  0  0
  184.4280  178.8970  139.4950 C   0  0  1  0  0  3  0  0  0  0  0  0
  184.5100  180.1550  138.8870 O   0  0  0  0  0  1  0  0  0  0  0  0
  183.7380  178.9920  140.8200 C   0  0  0  0  0  3  0  0  0  0  0  0
  184.2850  178.4750  141.9170 C   0  0  0  0  0  3  0  0  0  0  0  0
  183.5700  178.5820  143.2220 C   0  0  0  0  0  2  0  0  0  0  0  0
  184.5430  178.4780  144.3440 C   0  0  0  0  0  0  0  0  0  0  0  0
  184.4240  179.1630  145.4960 N   0  0  0  0  0  0  0  0  0  0  0  0
  186.2160  177.9870  145.4960 C   0  0  0  0  0  0  0  0  0  0  0  0
  185.4740  178.8420  146.2310 N   0  0  0  0  0  0  0  0  0  0  0  0
  185.6540  177.7180  144.3000 N   0  0  0  0  0  2  0  0  0  0  0  0
  190.0970  177.3060  147.1470 C   0  0  0  0  0  3  0  0  0  0  0  0
  189.0220  177.9660  147.9620 C   0  0  0  0  0  2  0  0  0  0  0  0
  188.6930  177.7410  145.1880 C   0  0  0  0  0  2  0  0  0  0  0  0
  187.4600  177.3080  146.0000 C   0  0  1  0  0  3  0  0  0  0  0  0
  189.9430  177.2020  145.8230 C   0  0  0  0  0  3  0  0  0  0  0  0
  187.6300  177.4850  147.5300 C   0  0  0  0  0  2  0  0  0  0  0  0
  1  6  1  0  0  0  0
  2 15  1  6  0  0  0
  2  9  1  0  0  0  0
  3 10  1  0  0  0  0
  3 12  1  1  0  0  0
  3 13  1  0  0  0  0
  4 12  2  0  0  0  0
  5 11  1  6  0  0  0
  5  2  1  0  0  0  0
  6  7  1  6  0  0  0
  6  8  1  0  0  0  0
  8  9  1  0  0  0  0
  9 31  1  6  0  0  0
 10  1  1  0  0  0  0
 10 20  1  1  0  0  0
 12 14  1  0  0  0  0
 13  6  1  0  0  0  0
 13  5  1  0  0  0  0
 14 11  2  0  0  0  0
 15 16  1  0  0  0  0
 16 17  1  0  0  0  0
 17 18  1  0  0  0  0
 19 18  1  0  0  0  0
 20 26  1  0  0  0  0
 22 21  1  0  0  0  0
 23 25  1  0  0  0  0
 24 23  2  0  0  0  0
 24 26  1  0  0  0  0
 25 28  1  0  0  0  0
 25 21  2  0  0  0  0
 26 22  2  0  0  0  0
 27 24  1  0  0  0  0
 28 30  2  0  0  0  0
 29 28  2  0  0  0  0
 31 32  1  0  0  0  0
 32 34  1  0  0  0  0
 33 32  1  0  0  0  0
 34 35  2  0  0  0  0
 35 36  1  0  0  0  0
 36 37  1  0  0  0  0
 37 38  2  0  0  0  0
 38 40  1  0  0  0  0
 39 45  1  0  0  0  0
 39 40  2  0  0  0  0
 41 37  1  0  0  0  0
 41 39  1  0  0  0  0
 42 43  1  0  0  0  0
 44 46  1  0  0  0  0
 44 45  1  0  0  0  0
 45 47  1  0  0  0  0
 46 42  2  0  0  0  0
 47 43  1  0  0  0  0
M  END
>  <MODEL>
7

>  <REMARK>
 VINA RESULT:      -6.1      3.203      5.785
  Name = 
  13 active torsions:
  status: ('A' for Active; 'I' for Inactive)
    1  A    between atoms: N_2  and  C_34
    2  A    between atoms: C_4  and  C_21
    3  A    between atoms: C_5  and  C_18
    4  A    between atoms: C_6  and  C_7
    5  A    between atoms: C_7  and  C_11
    6  A    between atoms: O_14  and  C_20
    7  A    between atoms: C_18  and  C_32
    8  A    between atoms: C_20  and  C_30
    9  A    between atoms: C_21  and  C_30
   10  A    between atoms: C_22  and  C_29
   11  A    between atoms: O_31  and  C_37
   12  A    between atoms: O_31  and  C_40
   13  A    between atoms: C_32  and  C_35
                            x       y       z     vdW  Elec       q    Type
                         _______ _______ _______ _____ _____    ______ ____

>  <TORSDO>
F 13

$$$$
=
 OpenBabel10222421413D

 47 52  0  0  1  0  0  0  0  0999 V2000
  187.7810  178.7380  139.0240 C   0  0  0  0  0  2  0  0  0  0  0  0
  188.4250  175.1920  136.5900 C   0  0  1  0  0  3  0  0  0  0  0  0
  190.0420  177.9970  138.8250 C   0  0  1  0  0  3  0  0  0  0  0  0
  192.0120  177.6660  140.1470 O   0  0  0  0  0  0  0  0  0  0  0  0
  189.3950  175.8820  137.5010 C   0  0  0  0  0  0  0  0  0  0  0  0
  187.8210  177.8540  137.7860 C   0  0  2  0  0  0  0  0  0  0  0  0
  187.4240  178.6820  136.5770 C   0  0  0  0  0  1  0  0  0  0  0  0
  186.8230  176.7000  137.9890 C   0  0  0  0  0  2  0  0  0  0  0  0
  186.9600  175.5540  136.9680 C   0  0  1  0  0  3  0  0  0  0  0  0
  188.9940  178.3690  139.8580 C   0  0  2  0  0  3  0  0  0  0  0  0
  190.3470  175.1690  138.1070 C   0  0  0  0  0  3  0  0  0  0  0  0
  191.1680  177.1570  139.3620 C   0  0  0  0  0  0  0  0  0  0  0  0
  189.2840  177.3850  137.6430 C   0  0  1  0  0  3  0  0  0  0  0  0
  191.2760  175.7790  139.0020 N   0  0  0  0  0  2  0  0  0  0  0  0
  188.7710  175.4890  135.1280 C   0  0  0  0  0  2  0  0  0  0  0  0
  190.2570  175.2870  134.8740 C   0  0  0  0  0  2  0  0  0  0  0  0
  190.5100  173.8860  134.3470 C   0  0  0  0  0  2  0  0  0  0  0  0
  189.3220  173.1550  134.3490 O   0  0  0  0  0  0  0  0  0  0  0  0
  189.7270  171.8280  134.5250 C   0  0  0  0  0  1  0  0  0  0  0  0
  188.6690  177.2470  140.6730 O   0  0  0  0  0  0  0  0  0  0  0  0
  186.8640  178.0370  143.7820 C   0  0  0  0  0  3  0  0  0  0  0  0
  187.2120  177.9280  142.4350 C   0  0  0  0  0  3  0  0  0  0  0  0
  188.9140  176.9170  144.4000 C   0  0  0  0  0  3  0  0  0  0  0  0
  189.2700  176.7930  143.0540 C   0  0  0  0  0  0  0  0  0  0  0  0
  187.7130  177.5350  144.7740 C   0  0  0  0  0  0  0  0  0  0  0  0
  188.4070  177.3050  142.0490 C   0  0  0  0  0  0  0  0  0  0  0  0
  190.8340  176.0570  142.7220 Cl  0  0  0  0  0  0  0  0  0  0  0  0
  187.3560  177.6590  146.1600 N   0  0  0  0  0  0  0  0  0  0  0  0
  188.0620  176.9680  147.1220 O   0  0  0  0  0  0  0  0  0  0  0  0
  186.3550  178.3300  146.4990 O   0  0  0  0  0  0  0  0  0  0  0  0
  186.0020  175.7080  135.7750 C   0  0  0  0  0  2  0  0  0  0  0  0
  185.0730  176.9200  135.8770 C   0  0  1  0  0  3  0  0  0  0  0  0
  184.8480  177.4840  134.6160 O   0  0  0  0  0  1  0  0  0  0  0  0
  183.7770  176.5630  136.5370 C   0  0  0  0  0  3  0  0  0  0  0  0
  183.5760  175.3480  137.0380 C   0  0  0  0  0  3  0  0  0  0  0  0
  182.2730  175.0210  137.6870 C   0  0  0  0  0  2  0  0  0  0  0  0
  181.7780  176.1970  138.4560 C   0  0  0  0  0  0  0  0  0  0  0  0
  180.6400  176.8500  138.1620 N   0  0  0  0  0  0  0  0  0  0  0  0
  181.6410  177.7780  139.8140 C   0  0  0  0  0  0  0  0  0  0  0  0
  180.5440  177.8420  139.0300 N   0  0  0  0  0  0  0  0  0  0  0  0
  182.4420  176.7420  139.4930 N   0  0  0  0  0  2  0  0  0  0  0  0
  182.5280  179.1780  143.7520 C   0  0  0  0  0  3  0  0  0  0  0  0
  183.5510  178.4140  142.9620 C   0  0  0  0  0  2  0  0  0  0  0  0
  180.8770  178.3920  142.1230 C   0  0  0  0  0  2  0  0  0  0  0  0
  181.8820  178.6790  140.9940 C   0  0  1  0  0  3  0  0  0  0  0  0
  181.2510  179.1640  143.3560 C   0  0  0  0  0  3  0  0  0  0  0  0
  183.3620  178.6370  141.4550 C   0  0  0  0  0  2  0  0  0  0  0  0
  1 10  1  0  0  0  0
  2 15  1  6  0  0  0
  2  9  1  0  0  0  0
  2  5  1  0  0  0  0
  3 12  1  1  0  0  0
  3 10  1  0  0  0  0
  5 11  2  0  0  0  0
  6  7  1  6  0  0  0
  6  8  1  0  0  0  0
  6  1  1  0  0  0  0
  9 31  1  6  0  0  0
  9  8  1  0  0  0  0
 10 20  1  1  0  0  0
 11 14  1  0  0  0  0
 12  4  2  0  0  0  0
 13  5  1  1  0  0  0
 13  6  1  0  0  0  0
 13  3  1  0  0  0  0
 14 12  1  0  0  0  0
 16 15  1  0  0  0  0
 17 18  1  0  0  0  0
 17 16  1  0  0  0  0
 18 19  1  0  0  0  0
 20 26  1  0  0  0  0
 21 25  1  0  0  0  0
 22 21  2  0  0  0  0
 23 25  2  0  0  0  0
 24 23  1  0  0  0  0
 25 28  1  0  0  0  0
 26 22  1  0  0  0  0
 26 24  2  0  0  0  0
 27 24  1  0  0  0  0
 28 30  2  0  0  0  0
 28 29  2  0  0  0  0
 31 32  1  0  0  0  0
 32 33  1  6  0  0  0
 32 34  1  0  0  0  0
 34 35  2  0  0  0  0
 35 36  1  0  0  0  0
 36 37  1  0  0  0  0
 37 41  1  0  0  0  0
 38 37  2  0  0  0  0
 38 40  1  0  0  0  0
 40 39  2  0  0  0  0
 41 39  1  0  0  0  0
 43 42  1  0  0  0  0
 44 46  1  0  0  0  0
 45 39  1  6  0  0  0
 45 47  1  0  0  0  0
 45 44  1  0  0  0  0
 46 42  2  0  0  0  0
 47 43  1  0  0  0  0
M  END
>  <MODEL>
8

>  <REMARK>
 VINA RESULT:      -6.0      2.212      3.013
  Name = 
  13 active torsions:
  status: ('A' for Active; 'I' for Inactive)
    1  A    between atoms: N_2  and  C_34
    2  A    between atoms: C_4  and  C_21
    3  A    between atoms: C_5  and  C_18
    4  A    between atoms: C_6  and  C_7
    5  A    between atoms: C_7  and  C_11
    6  A    between atoms: O_14  and  C_20
    7  A    between atoms: C_18  and  C_32
    8  A    between atoms: C_20  and  C_30
    9  A    between atoms: C_21  and  C_30
   10  A    between atoms: C_22  and  C_29
   11  A    between atoms: O_31  and  C_37
   12  A    between atoms: O_31  and  C_40
   13  A    between atoms: C_32  and  C_35
                            x       y       z     vdW  Elec       q    Type
                         _______ _______ _______ _____ _____    ______ ____

>  <TORSDO>
F 13

$$$$
=
 OpenBabel10222421413D

 47 52  0  0  1  0  0  0  0  0999 V2000
  184.9240  178.9160  140.6740 C   0  0  0  0  0  2  0  0  0  0  0  0
  185.1070  178.0380  144.9300 C   0  0  1  0  0  3  0  0  0  0  0  0
  183.0100  179.5380  141.9590 C   0  0  1  0  0  3  0  0  0  0  0  0
  180.6170  179.4910  141.8700 O   0  0  0  0  0  0  0  0  0  0  0  0
  183.9220  178.4730  144.1220 C   0  0  1  0  0  3  0  0  0  0  0  0
  185.3980  178.9840  142.1190 C   0  0  2  0  0  0  0  0  0  0  0  0
  186.4810  180.0410  142.2320 C   0  0  0  0  0  1  0  0  0  0  0  0
  185.9610  177.6050  142.5050 C   0  0  0  0  0  2  0  0  0  0  0  0
  186.2000  177.4160  144.0160 C   0  0  1  0  0  3  0  0  0  0  0  0
  183.4160  178.7590  140.7210 C   0  0  2  0  0  3  0  0  0  0  0  0
  182.7000  178.0790  144.4850 C   0  0  0  0  0  3  0  0  0  0  0  0
  181.6570  179.1730  142.5050 C   0  0  0  0  0  0  0  0  0  0  0  0
  184.1680  179.4030  142.9520 C   0  0  1  0  0  3  0  0  0  0  0  0
  181.5450  178.4480  143.7300 N   0  0  0  0  0  0  0  0  0  0  0  0
  185.6150  179.2000  145.7890 C   0  0  0  0  0  2  0  0  0  0  0  0
  185.6690  178.8030  147.2570 C   0  0  0  0  0  2  0  0  0  0  0  0
  187.0930  178.9080  147.7720 C   0  0  0  0  0  2  0  0  0  0  0  0
  187.5630  177.6450  148.1320 O   0  0  0  0  0  0  0  0  0  0  0  0
  188.9430  177.7100  147.9130 C   0  0  0  0  0  1  0  0  0  0  0  0
  183.1000  177.3780  140.8700 O   0  0  0  0  0  0  0  0  0  0  0  0
  183.1180  175.3740  137.7820 C   0  0  0  0  0  3  0  0  0  0  0  0
  183.5140  176.1890  138.8430 C   0  0  0  0  0  3  0  0  0  0  0  0
  180.8810  175.2810  138.6930 C   0  0  0  0  0  3  0  0  0  0  0  0
  181.2680  176.0900  139.7660 C   0  0  0  0  0  0  0  0  0  0  0  0
  181.7990  174.9160  137.6980 C   0  0  0  0  0  0  0  0  0  0  0  0
  182.6070  176.5540  139.8480 C   0  0  0  0  0  0  0  0  0  0  0  0
  180.0050  176.5280  140.9100 Cl  0  0  0  0  0  0  0  0  0  0  0  0
  181.3920  174.0860  136.5980 N   0  0  0  0  0  0  0  0  0  0  0  0
  182.0210  172.8800  136.3710 O   0  0  0  0  0  0  0  0  0  0  0  0
  180.5220  174.4840  135.7920 O   0  0  0  0  0  0  0  0  0  0  0  0
  187.6480  177.7330  144.4280 C   0  0  0  0  0  2  0  0  0  0  0  0
  188.6630  176.6720  143.9980 C   0  0  1  0  0  3  0  0  0  0  0  0
  188.0290  175.6090  143.3460 O   0  0  0  0  0  1  0  0  0  0  0  0
  189.7360  177.2600  143.1340 C   0  0  0  0  0  3  0  0  0  0  0  0
  190.1050  176.6680  142.0020 C   0  0  0  0  0  3  0  0  0  0  0  0
  191.1790  177.2760  141.1640 C   0  0  0  0  0  2  0  0  0  0  0  0
  190.8350  177.1460  139.7220 C   0  0  0  0  0  0  0  0  0  0  0  0
  191.6940  176.6940  138.7910 N   0  0  0  0  0  0  0  0  0  0  0  0
  189.8290  177.2500  137.8930 C   0  0  0  0  0  0  0  0  0  0  0  0
  191.0550  176.7460  137.6360 N   0  0  0  0  0  0  0  0  0  0  0  0
  189.6440  177.5040  139.2040 N   0  0  0  0  0  2  0  0  0  0  0  0
  186.0300  177.1800  135.9420 C   0  0  0  0  0  3  0  0  0  0  0  0
  186.2520  178.0360  137.1560 C   0  0  0  0  0  2  0  0  0  0  0  0
  188.1090  176.0320  136.5350 C   0  0  0  0  0  2  0  0  0  0  0  0
  188.7470  177.3930  136.8590 C   0  0  1  0  0  3  0  0  0  0  0  0
  186.9120  176.2200  135.6470 C   0  0  0  0  0  3  0  0  0  0  0  0
  187.7170  178.4830  137.2530 C   0  0  0  0  0  2  0  0  0  0  0  0
  1 10  1  0  0  0  0
  1  6  1  0  0  0  0
  2 15  1  6  0  0  0
  3 12  1  1  0  0  0
  3 13  1  0  0  0  0
  4 12  2  0  0  0  0
  5 11  1  1  0  0  0
  5  2  1  0  0  0  0
  6  7  1  1  0  0  0
  6  8  1  0  0  0  0
  6 13  1  0  0  0  0
  8  9  1  0  0  0  0
  9 31  1  1  0  0  0
  9  2  1  0  0  0  0
 10 20  1  1  0  0  0
 10  3  1  0  0  0  0
 12 14  1  0  0  0  0
 13  5  1  0  0  0  0
 14 11  2  0  0  0  0
 15 16  1  0  0  0  0
 16 17  1  0  0  0  0
 17 18  1  0  0  0  0
 19 18  1  0  0  0  0
 21 22  1  0  0  0  0
 22 26  2  0  0  0  0
 23 24  2  0  0  0  0
 24 26  1  0  0  0  0
 24 27  1  0  0  0  0
 25 21  2  0  0  0  0
 25 23  1  0  0  0  0
 26 20  1  0  0  0  0
 28 25  1  0  0  0  0
 29 28  2  0  0  0  0
 30 28  2  0  0  0  0
 32 31  1  0  0  0  0
 33 32  1  0  0  0  0
 34 32  1  0  0  0  0
 35 34  2  0  0  0  0
 36 35  1  0  0  0  0
 37 36  1  0  0  0  0
 38 37  2  0  0  0  0
 39 41  1  0  0  0  0
 40 39  2  0  0  0  0
 40 38  1  0  0  0  0
 41 37  1  0  0  0  0
 42 43  1  0  0  0  0
 43 47  1  0  0  0  0
 44 45  1  0  0  0  0
 45 47  1  0  0  0  0
 45 39  1  0  0  0  0
 46 42  2  0  0  0  0
 46 44  1  0  0  0  0
M  END
>  <MODEL>
9

>  <REMARK>
 VINA RESULT:      -5.8      3.238      9.834
  Name = 
  13 active torsions:
  status: ('A' for Active; 'I' for Inactive)
    1  A    between atoms: N_2  and  C_34
    2  A    between atoms: C_4  and  C_21
    3  A    between atoms: C_5  and  C_18
    4  A    between atoms: C_6  and  C_7
    5  A    between atoms: C_7  and  C_11
    6  A    between atoms: O_14  and  C_20
    7  A    between atoms: C_18  and  C_32
    8  A    between atoms: C_20  and  C_30
    9  A    between atoms: C_21  and  C_30
   10  A    between atoms: C_22  and  C_29
   11  A    between atoms: O_31  and  C_37
   12  A    between atoms: O_31  and  C_40
   13  A    between atoms: C_32  and  C_35
                            x       y       z     vdW  Elec       q    Type
                         _______ _______ _______ _____ _____    ______ ____

>  <TORSDO>
F 13

$$$$
