=
 OpenBabel10232407533D

 26 28  0  0  1  0  0  0  0  0999 V2000
  185.3320  178.2460  145.0520 C   0  0  0  0  0  3  0  0  0  0  0  0
  191.4730  176.0120  144.0830 C   0  0  0  0  0  3  0  0  0  0  0  0
  184.8250  178.5620  143.7970 C   0  0  0  0  0  3  0  0  0  0  0  0
  188.2510  177.6980  147.0660 C   0  0  0  0  0  3  0  0  0  0  0  0
  186.6510  177.8070  145.2140 C   0  0  0  0  0  0  0  0  0  0  0  0
  189.2690  176.1560  143.1150 C   0  0  0  0  0  3  0  0  0  0  0  0
  187.0650  177.5630  146.5640 N   0  0  0  0  0  0  0  0  0  0  0  0
  190.5720  175.6610  143.0810 C   0  0  0  0  0  3  0  0  0  0  0  0
  189.3670  178.0370  146.3090 O   0  0  0  0  0  0  0  0  0  0  0  0
  191.0560  176.8310  145.1320 C   0  0  0  0  0  3  0  0  0  0  0  0
  186.9570  177.9910  142.7970 C   0  0  0  0  0  0  0  0  0  0  0  0
  188.8350  177.0050  144.1510 C   0  0  0  0  0  0  0  0  0  0  0  0
  189.7400  177.3040  145.1900 C   0  0  0  0  0  0  0  0  0  0  0  0
  185.6380  178.4470  142.6780 C   0  0  0  0  0  3  0  0  0  0  0  0
  187.4770  177.6200  144.0690 C   0  0  0  0  0  0  0  0  0  0  0  0
  187.7610  177.9170  141.6560 O   0  0  0  0  0  0  0  0  0  0  0  0
  187.4060  178.5250  140.4720 N   0  0  0  0  0  2  0  0  0  0  0  0
  188.0900  177.8100  139.4070 C   0  0  1  0  0  3  0  0  0  0  0  0
  187.1340  177.5000  135.6580 C   0  0  0  0  0  1  0  0  0  0  0  0
  187.3460  177.9780  138.1230 C   0  0  0  0  0  0  0  0  0  0  0  0
  186.2870  178.6610  138.1090 O   0  0  0  0  0  0  0  0  0  0  0  0
  187.8300  177.3660  136.9260 N   0  0  0  0  0  2  0  0  0  0  0  0
  189.5210  178.3160  139.2760 C   0  0  0  0  0  2  0  0  0  0  0  0
  191.6480  177.5380  140.3200 O   0  0  0  0  0  1  0  0  0  0  0  0
  190.4930  177.2370  139.6100 C   0  0  0  0  0  0  0  0  0  0  0  0
  190.2540  176.0490  139.2730 O   0  0  0  0  0  0  0  0  0  0  0  0
  1  5  1  0  0  0  0
  2 10  1  0  0  0  0
  3  1  2  0  0  0  0
  5  7  1  0  0  0  0
  6 12  2  0  0  0  0
  7  4  2  0  0  0  0
  8  6  1  0  0  0  0
  8  2  2  0  0  0  0
  9  4  1  0  0  0  0
 10 13  2  0  0  0  0
 11 15  1  0  0  0  0
 12 13  1  0  0  0  0
 13  9  1  0  0  0  0
 14 11  2  0  0  0  0
 14  3  1  0  0  0  0
 15 12  1  0  0  0  0
 15  5  2  0  0  0  0
 16 11  1  0  0  0  0
 17 16  1  0  0  0  0
 18 23  1  6  0  0  0
 18 17  1  0  0  0  0
 19 22  1  0  0  0  0
 20 18  1  0  0  0  0
 21 20  2  0  0  0  0
 22 20  1  0  0  0  0
 23 25  1  0  0  0  0
 25 24  1  0  0  0  0
 26 25  2  0  0  0  0
M  END
>  <MODEL>
1

>  <REMARK>
 VINA RESULT:      -8.5      0.000      0.000
  Name = 
  6 active torsions:
  status: ('A' for Active; 'I' for Inactive)
    1  A    between atoms: C_8  and  C_20
    2  A    between atoms: C_14  and  O_16
    3  A    between atoms: C_15  and  C_24
    4  A    between atoms: O_16  and  N_18
    5  A    between atoms: N_18  and  C_24
    6  A    between atoms: C_20  and  C_24
                            x       y       z     vdW  Elec       q    Type
                         _______ _______ _______ _____ _____    ______ ____

>  <TORSDO>
F 6

$$$$
=
 OpenBabel10232407533D

 26 28  0  0  1  0  0  0  0  0999 V2000
  185.1440  178.4310  146.8650 C   0  0  0  0  0  3  0  0  0  0  0  0
  190.2410  176.2770  143.2570 C   0  0  0  0  0  3  0  0  0  0  0  0
  184.1470  178.7880  145.9650 C   0  0  0  0  0  3  0  0  0  0  0  0
  188.6410  177.8330  147.3970 C   0  0  0  0  0  3  0  0  0  0  0  0
  186.3990  177.9960  146.4250 C   0  0  0  0  0  0  0  0  0  0  0  0
  187.8360  176.4390  143.3440 C   0  0  0  0  0  3  0  0  0  0  0  0
  187.3540  177.7070  147.4530 N   0  0  0  0  0  0  0  0  0  0  0  0
  188.9920  175.9550  142.7310 C   0  0  0  0  0  3  0  0  0  0  0  0
  189.3240  178.2060  146.2440 O   0  0  0  0  0  0  0  0  0  0  0  0
  190.3260  177.0550  144.4110 C   0  0  0  0  0  3  0  0  0  0  0  0
  185.6310  178.2670  144.1220 C   0  0  0  0  0  0  0  0  0  0  0  0
  187.9010  177.2480  144.4940 C   0  0  0  0  0  0  0  0  0  0  0  0
  189.1690  177.5160  145.0490 C   0  0  0  0  0  0  0  0  0  0  0  0
  184.3950  178.7180  144.6010 C   0  0  0  0  0  3  0  0  0  0  0  0
  186.6470  177.8560  145.0300 C   0  0  0  0  0  0  0  0  0  0  0  0
  185.8620  178.2400  142.7430 O   0  0  0  0  0  0  0  0  0  0  0  0
  185.8540  179.3860  141.9780 N   0  0  0  0  0  2  0  0  0  0  0  0
  185.0670  179.0970  140.7910 C   0  0  1  0  0  3  0  0  0  0  0  0
  188.2600  178.0820  138.8310 C   0  0  0  0  0  1  0  0  0  0  0  0
  185.9720  178.7400  139.6580 C   0  0  0  0  0  0  0  0  0  0  0  0
  185.5090  178.7020  138.4860 O   0  0  0  0  0  0  0  0  0  0  0  0
  187.3470  178.4400  139.9030 N   0  0  0  0  0  2  0  0  0  0  0  0
  184.0850  177.9680  141.0790 C   0  0  0  0  0  2  0  0  0  0  0  0
  182.1080  178.6610  139.7270 O   0  0  0  0  0  0  0  0  0  0  0  0
  182.6810  178.4540  140.9760 C   0  0  0  0  0  0  0  0  0  0  0  0
  182.0050  178.6510  142.0180 O   0  0  0  0  0  1  0  0  0  0  0  0
  2 10  1  0  0  0  0
  3  1  2  0  0  0  0
  4  7  2  0  0  0  0
  5  1  1  0  0  0  0
  5  7  1  0  0  0  0
  6 12  2  0  0  0  0
  8  2  2  0  0  0  0
  8  6  1  0  0  0  0
  9  4  1  0  0  0  0
 10 13  2  0  0  0  0
 11 14  2  0  0  0  0
 11 15  1  0  0  0  0
 12 15  1  0  0  0  0
 12 13  1  0  0  0  0
 13  9  1  0  0  0  0
 14  3  1  0  0  0  0
 15  5  2  0  0  0  0
 16 11  1  0  0  0  0
 17 16  1  0  0  0  0
 18 23  1  1  0  0  0
 18 17  1  0  0  0  0
 19 22  1  0  0  0  0
 20 22  1  0  0  0  0
 20 18  1  0  0  0  0
 21 20  2  0  0  0  0
 24 25  2  0  0  0  0
 25 23  1  0  0  0  0
 25 26  1  0  0  0  0
M  END
>  <MODEL>
2

>  <REMARK>
 VINA RESULT:      -8.4      2.171      3.692
  Name = 
  6 active torsions:
  status: ('A' for Active; 'I' for Inactive)
    1  A    between atoms: C_8  and  C_20
    2  A    between atoms: C_14  and  O_16
    3  A    between atoms: C_15  and  C_24
    4  A    between atoms: O_16  and  N_18
    5  A    between atoms: N_18  and  C_24
    6  A    between atoms: C_20  and  C_24
                            x       y       z     vdW  Elec       q    Type
                         _______ _______ _______ _____ _____    ______ ____

>  <TORSDO>
F 6

$$$$
=
 OpenBabel10232407533D

 26 28  0  0  1  0  0  0  0  0999 V2000
  185.4830  178.4190  146.6420 C   0  0  0  0  0  3  0  0  0  0  0  0
  190.7650  176.0020  143.4960 C   0  0  0  0  0  3  0  0  0  0  0  0
  184.5210  178.6600  145.6690 C   0  0  0  0  0  3  0  0  0  0  0  0
  188.9630  177.9510  147.3790 C   0  0  0  0  0  3  0  0  0  0  0  0
  186.7620  177.9650  146.3030 C   0  0  0  0  0  0  0  0  0  0  0  0
  188.3570  176.1250  143.4660 C   0  0  0  0  0  3  0  0  0  0  0  0
  187.6760  177.8060  147.3950 N   0  0  0  0  0  0  0  0  0  0  0  0
  189.5450  175.6020  142.9560 C   0  0  0  0  0  3  0  0  0  0  0  0
  189.6890  178.2150  146.2230 O   0  0  0  0  0  0  0  0  0  0  0  0
  190.7880  176.8990  144.5650 C   0  0  0  0  0  3  0  0  0  0  0  0
  186.0910  177.9790  143.9540 C   0  0  0  0  0  0  0  0  0  0  0  0
  188.3590  177.0510  144.5260 C   0  0  0  0  0  0  0  0  0  0  0  0
  189.5970  177.4010  145.1010 C   0  0  0  0  0  0  0  0  0  0  0  0
  184.8280  178.4530  144.3320 C   0  0  0  0  0  3  0  0  0  0  0  0
  187.0730  177.6860  144.9420 C   0  0  0  0  0  0  0  0  0  0  0  0
  186.3820  177.8120  142.5970 O   0  0  0  0  0  0  0  0  0  0  0  0
  186.7040  178.8760  141.7830 N   0  0  0  0  0  2  0  0  0  0  0  0
  186.9960  178.3290  140.4680 C   0  0  1  0  0  3  0  0  0  0  0  0
  183.7410  179.8870  139.0360 C   0  0  0  0  0  1  0  0  0  0  0  0
  185.9570  178.7750  139.4920 C   0  0  0  0  0  0  0  0  0  0  0  0
  186.1370  178.5700  138.2620 O   0  0  0  0  0  0  0  0  0  0  0  0
  184.7740  179.4320  139.9510 N   0  0  0  0  0  2  0  0  0  0  0  0
  188.3850  178.7640  140.0190 C   0  0  0  0  0  2  0  0  0  0  0  0
  190.4740  177.4150  140.2090 O   0  0  0  0  0  1  0  0  0  0  0  0
  189.2120  177.5800  139.6520 C   0  0  0  0  0  0  0  0  0  0  0  0
  188.7570  176.7160  138.8590 O   0  0  0  0  0  0  0  0  0  0  0  0
  2 10  1  0  0  0  0
  3  1  2  0  0  0  0
  4  7  2  0  0  0  0
  5  1  1  0  0  0  0
  5  7  1  0  0  0  0
  6 12  2  0  0  0  0
  8  6  1  0  0  0  0
  8  2  2  0  0  0  0
  9  4  1  0  0  0  0
 10 13  2  0  0  0  0
 11 14  2  0  0  0  0
 11 15  1  0  0  0  0
 12 15  1  0  0  0  0
 12 13  1  0  0  0  0
 13  9  1  0  0  0  0
 14  3  1  0  0  0  0
 15  5  2  0  0  0  0
 16 11  1  0  0  0  0
 17 16  1  0  0  0  0
 18 23  1  6  0  0  0
 18 17  1  0  0  0  0
 19 22  1  0  0  0  0
 20 22  1  0  0  0  0
 20 18  1  0  0  0  0
 21 20  2  0  0  0  0
 25 23  1  0  0  0  0
 25 24  1  0  0  0  0
 26 25  2  0  0  0  0
M  END
>  <MODEL>
3

>  <REMARK>
 VINA RESULT:      -8.3      1.629      1.872
  Name = 
  6 active torsions:
  status: ('A' for Active; 'I' for Inactive)
    1  A    between atoms: C_8  and  C_20
    2  A    between atoms: C_14  and  O_16
    3  A    between atoms: C_15  and  C_24
    4  A    between atoms: O_16  and  N_18
    5  A    between atoms: N_18  and  C_24
    6  A    between atoms: C_20  and  C_24
                            x       y       z     vdW  Elec       q    Type
                         _______ _______ _______ _____ _____    ______ ____

>  <TORSDO>
F 6

$$$$
=
 OpenBabel10232407533D

 26 28  0  0  1  0  0  0  0  0999 V2000
  183.5170  178.6520  141.2360 C   0  0  0  0  0  3  0  0  0  0  0  0
  187.1690  177.8950  146.6870 C   0  0  0  0  0  3  0  0  0  0  0  0
  184.4090  178.7590  140.1750 C   0  0  0  0  0  3  0  0  0  0  0  0
  183.0030  178.9440  144.7740 C   0  0  0  0  0  3  0  0  0  0  0  0
  183.9660  178.5510  142.5560 C   0  0  0  0  0  0  0  0  0  0  0  0
  187.0730  177.4480  144.3200 C   0  0  0  0  0  3  0  0  0  0  0  0
  182.9450  178.4980  143.5590 N   0  0  0  0  0  0  0  0  0  0  0  0
  187.6960  177.2770  145.5560 C   0  0  0  0  0  3  0  0  0  0  0  0
  184.1520  179.4920  145.3340 O   0  0  0  0  0  0  0  0  0  0  0  0
  186.0040  178.6540  146.5810 C   0  0  0  0  0  3  0  0  0  0  0  0
  186.2630  178.6530  141.7310 C   0  0  0  0  0  0  0  0  0  0  0  0
  185.9120  178.2310  144.1860 C   0  0  0  0  0  0  0  0  0  0  0  0
  185.3560  178.8010  145.3500 C   0  0  0  0  0  0  0  0  0  0  0  0
  185.7740  178.7720  140.4240 C   0  0  0  0  0  3  0  0  0  0  0  0
  185.3640  178.4970  142.8230 C   0  0  0  0  0  0  0  0  0  0  0  0
  187.6430  178.7020  141.9530 O   0  0  0  0  0  0  0  0  0  0  0  0
  188.5510  178.6480  140.9170 N   0  0  0  0  0  2  0  0  0  0  0  0
  189.1800  177.3380  140.9770 C   0  0  1  0  0  3  0  0  0  0  0  0
  190.8760  175.6050  137.9450 C   0  0  0  0  0  1  0  0  0  0  0  0
  189.4090  176.8230  139.5930 C   0  0  0  0  0  0  0  0  0  0  0  0
  188.5250  177.0030  138.7140 O   0  0  0  0  0  0  0  0  0  0  0  0
  190.6160  176.1280  139.2760 N   0  0  0  0  0  2  0  0  0  0  0  0
  190.4910  177.4250  141.7480 C   0  0  0  0  0  2  0  0  0  0  0  0
  191.7070  176.2190  143.5600 O   0  0  0  0  0  1  0  0  0  0  0  0
  190.5720  176.3440  142.7700 C   0  0  0  0  0  0  0  0  0  0  0  0
  189.6010  175.5620  142.9370 O   0  0  0  0  0  0  0  0  0  0  0  0
  1  5  1  0  0  0  0
  3 14  1  0  0  0  0
  3  1  2  0  0  0  0
  4  9  1  0  0  0  0
  5 15  2  0  0  0  0
  5  7  1  0  0  0  0
  6  8  1  0  0  0  0
  7  4  2  0  0  0  0
  8  2  2  0  0  0  0
  9 13  1  0  0  0  0
 10  2  1  0  0  0  0
 11 16  1  0  0  0  0
 11 15  1  0  0  0  0
 12  6  2  0  0  0  0
 12 13  1  0  0  0  0
 13 10  2  0  0  0  0
 14 11  2  0  0  0  0
 15 12  1  0  0  0  0
 17 18  1  0  0  0  0
 17 16  1  0  0  0  0
 18 23  1  6  0  0  0
 19 22  1  0  0  0  0
 20 18  1  0  0  0  0
 21 20  2  0  0  0  0
 22 20  1  0  0  0  0
 23 25  1  0  0  0  0
 25 26  2  0  0  0  0
 25 24  1  0  0  0  0
M  END
>  <MODEL>
4

>  <REMARK>
 VINA RESULT:      -8.2      2.410      3.786
  Name = 
  6 active torsions:
  status: ('A' for Active; 'I' for Inactive)
    1  A    between atoms: C_8  and  C_20
    2  A    between atoms: C_14  and  O_16
    3  A    between atoms: C_15  and  C_24
    4  A    between atoms: O_16  and  N_18
    5  A    between atoms: N_18  and  C_24
    6  A    between atoms: C_20  and  C_24
                            x       y       z     vdW  Elec       q    Type
                         _______ _______ _______ _____ _____    ______ ____

>  <TORSDO>
F 6

$$$$
=
 OpenBabel10232407533D

 26 28  0  0  1  0  0  0  0  0999 V2000
  186.4430  178.2790  146.4760 C   0  0  0  0  0  3  0  0  0  0  0  0
  184.0400  178.8650  140.3510 C   0  0  0  0  0  3  0  0  0  0  0  0
  187.6290  177.5620  146.3680 C   0  0  0  0  0  3  0  0  0  0  0  0
  183.2890  179.1160  144.9870 C   0  0  0  0  0  3  0  0  0  0  0  0
  185.6350  178.5210  145.3600 C   0  0  0  0  0  0  0  0  0  0  0  0
  186.0650  178.7020  141.6500 C   0  0  0  0  0  3  0  0  0  0  0  0
  184.4150  179.2270  145.6160 N   0  0  0  0  0  0  0  0  0  0  0  0
  185.4300  178.9160  140.4270 C   0  0  0  0  0  3  0  0  0  0  0  0
  183.1160  178.3160  143.8630 O   0  0  0  0  0  0  0  0  0  0  0  0
  183.2920  178.6320  141.5050 C   0  0  0  0  0  3  0  0  0  0  0  0
  187.2530  177.3100  143.9880 C   0  0  0  0  0  0  0  0  0  0  0  0
  185.3300  178.4390  142.8220 C   0  0  0  0  0  0  0  0  0  0  0  0
  183.9230  178.4500  142.7410 C   0  0  0  0  0  0  0  0  0  0  0  0
  188.0240  177.0700  145.1320 C   0  0  0  0  0  3  0  0  0  0  0  0
  186.0590  178.0790  144.0750 C   0  0  0  0  0  0  0  0  0  0  0  0
  187.6600  176.7720  142.7630 O   0  0  0  0  0  0  0  0  0  0  0  0
  188.9570  176.3620  142.5410 N   0  0  0  0  0  2  0  0  0  0  0  0
  189.6150  177.4260  141.8010 C   0  0  1  0  0  3  0  0  0  0  0  0
  191.9100  179.2580  144.3400 C   0  0  0  0  0  1  0  0  0  0  0  0
  190.8420  177.8660  142.5300 C   0  0  0  0  0  0  0  0  0  0  0  0
  191.9620  177.3950  142.1950 O   0  0  0  0  0  0  0  0  0  0  0  0
  190.7430  178.8080  143.6000 N   0  0  0  0  0  2  0  0  0  0  0  0
  189.9600  176.9480  140.3960 C   0  0  0  0  0  2  0  0  0  0  0  0
  188.8350  178.9090  139.3450 O   0  0  0  0  0  1  0  0  0  0  0  0
  189.0230  177.5330  139.3970 C   0  0  0  0  0  0  0  0  0  0  0  0
  188.4230  176.7860  138.5840 O   0  0  0  0  0  0  0  0  0  0  0  0
  2  8  2  0  0  0  0
  2 10  1  0  0  0  0
  3  1  1  0  0  0  0
  4  7  2  0  0  0  0
  5  7  1  0  0  0  0
  5  1  2  0  0  0  0
  6 12  2  0  0  0  0
  8  6  1  0  0  0  0
  9  4  1  0  0  0  0
 10 13  2  0  0  0  0
 11 15  2  0  0  0  0
 11 14  1  0  0  0  0
 12 15  1  0  0  0  0
 13 12  1  0  0  0  0
 13  9  1  0  0  0  0
 14  3  2  0  0  0  0
 15  5  1  0  0  0  0
 16 11  1  0  0  0  0
 17 16  1  0  0  0  0
 18 23  1  6  0  0  0
 18 20  1  0  0  0  0
 18 17  1  0  0  0  0
 20 22  1  0  0  0  0
 21 20  2  0  0  0  0
 22 19  1  0  0  0  0
 24 25  1  0  0  0  0
 25 23  1  0  0  0  0
 26 25  2  0  0  0  0
M  END
>  <MODEL>
5

>  <REMARK>
 VINA RESULT:      -8.2      2.399      5.116
  Name = 
  6 active torsions:
  status: ('A' for Active; 'I' for Inactive)
    1  A    between atoms: C_8  and  C_20
    2  A    between atoms: C_14  and  O_16
    3  A    between atoms: C_15  and  C_24
    4  A    between atoms: O_16  and  N_18
    5  A    between atoms: N_18  and  C_24
    6  A    between atoms: C_20  and  C_24
                            x       y       z     vdW  Elec       q    Type
                         _______ _______ _______ _____ _____    ______ ____

>  <TORSDO>
F 6

$$$$
=
 OpenBabel10232407533D

 26 28  0  0  1  0  0  0  0  0999 V2000
  185.3890  178.6690  146.6210 C   0  0  0  0  0  3  0  0  0  0  0  0
  184.5590  178.7020  140.0680 C   0  0  0  0  0  3  0  0  0  0  0  0
  186.6070  178.0440  146.8610 C   0  0  0  0  0  3  0  0  0  0  0  0
  182.6590  179.1610  144.3450 C   0  0  0  0  0  3  0  0  0  0  0  0
  184.8710  178.7790  145.3260 C   0  0  0  0  0  0  0  0  0  0  0  0
  186.2020  178.7780  141.8310 C   0  0  0  0  0  3  0  0  0  0  0  0
  183.5840  179.3980  145.2210 N   0  0  0  0  0  0  0  0  0  0  0  0
  185.8800  178.8680  140.4770 C   0  0  0  0  0  3  0  0  0  0  0  0
  182.8240  178.2860  143.2770 O   0  0  0  0  0  0  0  0  0  0  0  0
  183.5630  178.4770  141.0180 C   0  0  0  0  0  3  0  0  0  0  0  0
  186.8540  177.6240  144.4870 C   0  0  0  0  0  0  0  0  0  0  0  0
  185.2160  178.5260  142.8040 C   0  0  0  0  0  0  0  0  0  0  0  0
  183.8760  178.4180  142.3800 C   0  0  0  0  0  0  0  0  0  0  0  0
  187.3290  177.5140  145.8000 C   0  0  0  0  0  3  0  0  0  0  0  0
  185.6300  178.2990  144.2200 C   0  0  0  0  0  0  0  0  0  0  0  0
  187.5880  177.0510  143.4440 O   0  0  0  0  0  0  0  0  0  0  0  0
  188.7160  176.2950  143.6750 N   0  0  0  0  0  2  0  0  0  0  0  0
  189.8510  177.0800  143.2160 C   0  0  1  0  0  3  0  0  0  0  0  0
  191.6060  176.7640  146.6640 C   0  0  0  0  0  1  0  0  0  0  0  0
  190.7760  177.3500  144.3570 C   0  0  0  0  0  0  0  0  0  0  0  0
  191.6040  178.2950  144.2700 O   0  0  0  0  0  0  0  0  0  0  0  0
  190.7210  176.5400  145.5330 N   0  0  0  0  0  2  0  0  0  0  0  0
  190.5730  176.3440  142.0940 C   0  0  0  0  0  2  0  0  0  0  0  0
  190.4830  176.1660  139.6080 O   0  0  0  0  0  0  0  0  0  0  0  0
  190.1300  176.8510  140.7640 C   0  0  0  0  0  0  0  0  0  0  0  0
  189.4140  177.8820  140.6900 O   0  0  0  0  0  1  0  0  0  0  0  0
  1  3  1  0  0  0  0
  2  8  2  0  0  0  0
  2 10  1  0  0  0  0
  4  7  2  0  0  0  0
  5  1  2  0  0  0  0
  6 12  2  0  0  0  0
  7  5  1  0  0  0  0
  8  6  1  0  0  0  0
  9  4  1  0  0  0  0
 10 13  2  0  0  0  0
 11 14  1  0  0  0  0
 12 15  1  0  0  0  0
 13 12  1  0  0  0  0
 13  9  1  0  0  0  0
 14  3  2  0  0  0  0
 15 11  2  0  0  0  0
 15  5  1  0  0  0  0
 16 17  1  0  0  0  0
 16 11  1  0  0  0  0
 18 23  1  6  0  0  0
 18 17  1  0  0  0  0
 18 20  1  0  0  0  0
 20 22  1  0  0  0  0
 21 20  2  0  0  0  0
 22 19  1  0  0  0  0
 24 25  2  0  0  0  0
 25 23  1  0  0  0  0
 26 25  1  0  0  0  0
M  END
>  <MODEL>
6

>  <REMARK>
 VINA RESULT:      -8.1      2.605      5.617
  Name = 
  6 active torsions:
  status: ('A' for Active; 'I' for Inactive)
    1  A    between atoms: C_8  and  C_20
    2  A    between atoms: C_14  and  O_16
    3  A    between atoms: C_15  and  C_24
    4  A    between atoms: O_16  and  N_18
    5  A    between atoms: N_18  and  C_24
    6  A    between atoms: C_20  and  C_24
                            x       y       z     vdW  Elec       q    Type
                         _______ _______ _______ _____ _____    ______ ____

>  <TORSDO>
F 6

$$$$
=
 OpenBabel10232407533D

 26 28  0  0  1  0  0  0  0  0999 V2000
  185.0120  178.3890  146.6610 C   0  0  0  0  0  3  0  0  0  0  0  0
  190.3130  176.3940  143.2620 C   0  0  0  0  0  3  0  0  0  0  0  0
  184.0740  178.8030  145.7220 C   0  0  0  0  0  3  0  0  0  0  0  0
  188.4660  177.7350  147.3740 C   0  0  0  0  0  3  0  0  0  0  0  0
  186.2890  177.9690  146.2760 C   0  0  0  0  0  0  0  0  0  0  0  0
  187.9090  176.5710  143.2090 C   0  0  0  0  0  3  0  0  0  0  0  0
  187.1770  177.6170  147.3440 N   0  0  0  0  0  0  0  0  0  0  0  0
  189.0980  176.1110  142.6430 C   0  0  0  0  0  3  0  0  0  0  0  0
  189.2210  178.1650  146.2880 O   0  0  0  0  0  0  0  0  0  0  0  0
  190.3300  177.1080  144.4600 C   0  0  0  0  0  3  0  0  0  0  0  0
  185.6670  178.3720  143.9480 C   0  0  0  0  0  0  0  0  0  0  0  0
  187.9050  177.3150  144.4040 C   0  0  0  0  0  0  0  0  0  0  0  0
  189.1370  177.5430  145.0490 C   0  0  0  0  0  0  0  0  0  0  0  0
  184.4060  178.8060  144.3740 C   0  0  0  0  0  3  0  0  0  0  0  0
  186.6230  177.9030  144.8930 C   0  0  0  0  0  0  0  0  0  0  0  0
  185.9830  178.4170  142.5860 O   0  0  0  0  0  0  0  0  0  0  0  0
  185.2950  179.2210  141.7040 N   0  0  0  0  0  2  0  0  0  0  0  0
  184.8490  178.3670  140.6150 C   0  0  1  0  0  3  0  0  0  0  0  0
  181.1420  178.5680  141.7500 C   0  0  0  0  0  1  0  0  0  0  0  0
  183.4120  178.0080  140.8100 C   0  0  0  0  0  0  0  0  0  0  0  0
  182.9730  176.9340  140.3180 O   0  0  0  0  0  0  0  0  0  0  0  0
  182.5460  178.8770  141.5430 N   0  0  0  0  0  2  0  0  0  0  0  0
  185.0560  179.0730  139.2810 C   0  0  0  0  0  2  0  0  0  0  0  0
  185.3910  177.2910  137.5690 O   0  0  0  0  0  0  0  0  0  0  0  0
  185.9400  178.2660  138.3930 C   0  0  0  0  0  0  0  0  0  0  0  0
  187.1770  178.4870  138.3670 O   0  0  0  0  0  1  0  0  0  0  0  0
  2 10  1  0  0  0  0
  3  1  2  0  0  0  0
  5  1  1  0  0  0  0
  5  7  1  0  0  0  0
  6 12  2  0  0  0  0
  7  4  2  0  0  0  0
  8  6  1  0  0  0  0
  8  2  2  0  0  0  0
  9  4  1  0  0  0  0
 10 13  2  0  0  0  0
 11 14  2  0  0  0  0
 11 15  1  0  0  0  0
 12 15  1  0  0  0  0
 12 13  1  0  0  0  0
 13  9  1  0  0  0  0
 14  3  1  0  0  0  0
 15  5  2  0  0  0  0
 16 11  1  0  0  0  0
 17 16  1  0  0  0  0
 18 23  1  6  0  0  0
 18 20  1  0  0  0  0
 18 17  1  0  0  0  0
 20 22  1  0  0  0  0
 21 20  2  0  0  0  0
 22 19  1  0  0  0  0
 24 25  2  0  0  0  0
 25 23  1  0  0  0  0
 26 25  1  0  0  0  0
M  END
>  <MODEL>
7

>  <REMARK>
 VINA RESULT:      -8.0      2.339      3.533
  Name = 
  6 active torsions:
  status: ('A' for Active; 'I' for Inactive)
    1  A    between atoms: C_8  and  C_20
    2  A    between atoms: C_14  and  O_16
    3  A    between atoms: C_15  and  C_24
    4  A    between atoms: O_16  and  N_18
    5  A    between atoms: N_18  and  C_24
    6  A    between atoms: C_20  and  C_24
                            x       y       z     vdW  Elec       q    Type
                         _______ _______ _______ _____ _____    ______ ____

>  <TORSDO>
F 6

$$$$
=
 OpenBabel10232407533D

 26 28  0  0  1  0  0  0  0  0999 V2000
  186.3730  178.3240  146.8210 C   0  0  0  0  0  3  0  0  0  0  0  0
  184.3470  178.8840  140.5590 C   0  0  0  0  0  3  0  0  0  0  0  0
  187.6070  177.6850  146.7800 C   0  0  0  0  0  3  0  0  0  0  0  0
  183.2770  178.9920  145.1370 C   0  0  0  0  0  3  0  0  0  0  0  0
  185.6270  178.5370  145.6570 C   0  0  0  0  0  0  0  0  0  0  0  0
  186.2890  178.8210  141.9880 C   0  0  0  0  0  3  0  0  0  0  0  0
  184.3500  179.1600  145.8420 N   0  0  0  0  0  0  0  0  0  0  0  0
  185.7230  179.0200  140.7280 C   0  0  0  0  0  3  0  0  0  0  0  0
  183.2300  178.2060  143.9910 O   0  0  0  0  0  0  0  0  0  0  0  0
  183.5410  178.5810  141.6560 C   0  0  0  0  0  3  0  0  0  0  0  0
  187.4060  177.4580  144.3760 C   0  0  0  0  0  0  0  0  0  0  0  0
  185.4960  178.4890  143.1030 C   0  0  0  0  0  0  0  0  0  0  0  0
  184.0990  178.4130  142.9280 C   0  0  0  0  0  0  0  0  0  0  0  0
  188.1140  177.2430  145.5660 C   0  0  0  0  0  3  0  0  0  0  0  0
  186.1620  178.1500  144.3960 C   0  0  0  0  0  0  0  0  0  0  0  0
  187.9260  176.9720  143.1730 O   0  0  0  0  0  0  0  0  0  0  0  0
  189.0420  176.1650  143.1330 N   0  0  0  0  0  2  0  0  0  0  0  0
  190.1170  176.9590  142.5620 C   0  0  1  0  0  3  0  0  0  0  0  0
  189.0250  178.2430  139.0650 C   0  0  0  0  0  1  0  0  0  0  0  0
  189.9510  177.0450  141.0790 C   0  0  0  0  0  0  0  0  0  0  0  0
  190.4760  176.1640  140.3480 O   0  0  0  0  0  0  0  0  0  0  0  0
  189.2060  178.1180  140.5010 N   0  0  0  0  0  2  0  0  0  0  0  0
  190.1300  178.3480  143.1880 C   0  0  0  0  0  2  0  0  0  0  0  0
  191.6070  177.4600  144.9900 O   0  0  0  0  0  1  0  0  0  0  0  0
  191.2840  178.4930  144.1190 C   0  0  0  0  0  0  0  0  0  0  0  0
  191.9820  179.5380  144.0970 O   0  0  0  0  0  0  0  0  0  0  0  0
  2  8  2  0  0  0  0
  2 10  1  0  0  0  0
  3  1  1  0  0  0  0
  4  7  2  0  0  0  0
  5  7  1  0  0  0  0
  5  1  2  0  0  0  0
  6 12  2  0  0  0  0
  8  6  1  0  0  0  0
  9  4  1  0  0  0  0
 10 13  2  0  0  0  0
 11 15  2  0  0  0  0
 11 14  1  0  0  0  0
 12 15  1  0  0  0  0
 13 12  1  0  0  0  0
 13  9  1  0  0  0  0
 14  3  2  0  0  0  0
 15  5  1  0  0  0  0
 16 11  1  0  0  0  0
 17 16  1  0  0  0  0
 18 17  1  0  0  0  0
 18 23  1  1  0  0  0
 19 22  1  0  0  0  0
 20 18  1  0  0  0  0
 21 20  2  0  0  0  0
 22 20  1  0  0  0  0
 23 25  1  0  0  0  0
 25 24  1  0  0  0  0
 26 25  2  0  0  0  0
M  END
>  <MODEL>
8

>  <REMARK>
 VINA RESULT:      -8.0      2.183      4.761
  Name = 
  6 active torsions:
  status: ('A' for Active; 'I' for Inactive)
    1  A    between atoms: C_8  and  C_20
    2  A    between atoms: C_14  and  O_16
    3  A    between atoms: C_15  and  C_24
    4  A    between atoms: O_16  and  N_18
    5  A    between atoms: N_18  and  C_24
    6  A    between atoms: C_20  and  C_24
                            x       y       z     vdW  Elec       q    Type
                         _______ _______ _______ _____ _____    ______ ____

>  <TORSDO>
F 6

$$$$
=
 OpenBabel10232407533D

 26 28  0  0  1  0  0  0  0  0999 V2000
  185.4000  178.2160  144.8040 C   0  0  0  0  0  3  0  0  0  0  0  0
  191.5320  175.8780  144.0520 C   0  0  0  0  0  3  0  0  0  0  0  0
  184.9140  178.4670  143.5270 C   0  0  0  0  0  3  0  0  0  0  0  0
  188.2830  177.7550  146.8880 C   0  0  0  0  0  3  0  0  0  0  0  0
  186.7110  177.7750  145.0090 C   0  0  0  0  0  0  0  0  0  0  0  0
  189.3430  175.9880  143.0440 C   0  0  0  0  0  3  0  0  0  0  0  0
  187.1030  177.6020  146.3770 N   0  0  0  0  0  0  0  0  0  0  0  0
  190.6420  175.4800  143.0570 C   0  0  0  0  0  3  0  0  0  0  0  0
  189.4140  178.0410  146.1310 O   0  0  0  0  0  0  0  0  0  0  0  0
  191.1070  176.7570  145.0470 C   0  0  0  0  0  3  0  0  0  0  0  0
  187.0540  177.8220  142.5910 C   0  0  0  0  0  0  0  0  0  0  0  0
  188.9030  176.8970  144.0250 C   0  0  0  0  0  0  0  0  0  0  0  0
  189.7960  177.2440  145.0590 C   0  0  0  0  0  0  0  0  0  0  0  0
  185.7410  178.2830  142.4280 C   0  0  0  0  0  3  0  0  0  0  0  0
  187.5520  177.5180  143.8890 C   0  0  0  0  0  0  0  0  0  0  0  0
  187.8740  177.6780  141.4680 O   0  0  0  0  0  0  0  0  0  0  0  0
  188.6050  178.7300  140.9580 N   0  0  0  0  0  2  0  0  0  0  0  0
  188.8850  178.4130  139.5670 C   0  0  1  0  0  3  0  0  0  0  0  0
  191.4380  175.7930  138.2690 C   0  0  0  0  0  1  0  0  0  0  0  0
  190.1070  177.5580  139.4790 C   0  0  0  0  0  0  0  0  0  0  0  0
  190.9960  177.6590  140.3650 O   0  0  0  0  0  0  0  0  0  0  0  0
  190.2640  176.6390  138.3960 N   0  0  0  0  0  2  0  0  0  0  0  0
  187.6860  177.7140  138.9400 C   0  0  0  0  0  2  0  0  0  0  0  0
  188.1160  179.3770  137.1320 O   0  0  0  0  0  1  0  0  0  0  0  0
  187.3640  178.3130  137.6140 C   0  0  0  0  0  0  0  0  0  0  0  0
  186.4310  177.8370  136.9180 O   0  0  0  0  0  0  0  0  0  0  0  0
  1  5  1  0  0  0  0
  2 10  1  0  0  0  0
  3  1  2  0  0  0  0
  5  7  1  0  0  0  0
  6  8  1  0  0  0  0
  6 12  2  0  0  0  0
  7  4  2  0  0  0  0
  8  2  2  0  0  0  0
  9  4  1  0  0  0  0
 10 13  2  0  0  0  0
 11 15  1  0  0  0  0
 12 13  1  0  0  0  0
 13  9  1  0  0  0  0
 14 11  2  0  0  0  0
 14  3  1  0  0  0  0
 15 12  1  0  0  0  0
 15  5  2  0  0  0  0
 16 11  1  0  0  0  0
 17 16  1  0  0  0  0
 18 23  1  1  0  0  0
 18 17  1  0  0  0  0
 19 22  1  0  0  0  0
 20 18  1  0  0  0  0
 20 21  2  0  0  0  0
 22 20  1  0  0  0  0
 24 25  1  0  0  0  0
 25 23  1  0  0  0  0
 26 25  2  0  0  0  0
M  END
>  <MODEL>
9

>  <REMARK>
 VINA RESULT:      -8.0      0.977      2.374
  Name = 
  6 active torsions:
  status: ('A' for Active; 'I' for Inactive)
    1  A    between atoms: C_8  and  C_20
    2  A    between atoms: C_14  and  O_16
    3  A    between atoms: C_15  and  C_24
    4  A    between atoms: O_16  and  N_18
    5  A    between atoms: N_18  and  C_24
    6  A    between atoms: C_20  and  C_24
                            x       y       z     vdW  Elec       q    Type
                         _______ _______ _______ _____ _____    ______ ____

>  <TORSDO>
F 6

$$$$
