=
 OpenBabel10232410033D

 28 33  0  0  1  0  0  0  0  0999 V2000
  190.7900  177.4150  140.8840 C   0  0  0  0  0  0  0  0  0  0  0  0
  189.9970  177.4110  144.3710 C   0  0  0  0  0  0  0  0  0  0  0  0
  191.4430  177.0570  144.4990 C   0  0  2  0  0  0  0  0  0  0  0  0
  192.0020  177.1680  143.1400 C   0  0  1  0  0  3  0  0  0  0  0  0
  189.4220  177.3530  140.2440 C   0  0  1  0  0  3  0  0  0  0  0  0
  188.9640  177.3240  145.3010 C   0  0  0  0  0  3  0  0  0  0  0  0
  184.2620  178.9400  144.4700 C   0  0  0  0  0  0  0  0  0  0  0  0
  186.3030  178.9900  146.3360 N   0  0  0  0  0  2  0  0  0  0  0  0
  187.6510  177.6240  144.8860 C   0  0  0  0  0  0  0  0  0  0  0  0
  191.6810  175.8270  143.6620 N   0  0  1  0  0  0  0  0  0  0  0  0
  187.3940  178.0030  143.5240 C   0  0  0  0  0  0  0  0  0  0  0  0
  188.4870  178.1130  142.6360 C   0  0  0  0  0  0  0  0  0  0  0  0
  190.9020  177.6500  142.2930 N   0  0  0  0  0  0  0  0  0  0  0  0
  188.3120  178.6450  140.9240 S   0  0  0  0  0  0  0  0  0  0  0  0
  184.7910  177.9000  143.5440 C   0  0  0  0  0  2  0  0  0  0  0  0
  186.6060  177.6150  145.9500 C   0  0  0  0  0  2  0  0  0  0  0  0
  191.7280  175.7850  145.1300 C   0  0  0  0  0  2  0  0  0  0  0  0
  186.0830  178.2980  143.0020 N   0  0  0  0  0  2  0  0  0  0  0  0
  184.0920  178.6050  145.8460 N   0  0  0  0  0  2  0  0  0  0  0  0
  184.0270  180.1080  144.0630 O   0  0  0  0  0  0  0  0  0  0  0  0
  191.8230  177.1670  140.2050 O   0  0  0  0  0  0  0  0  0  0  0  0
  184.9850  179.0560  146.8380 N   0  0  0  0  0  2  0  0  0  0  0  0
  189.7590  177.8180  143.1010 C   0  0  0  0  0  0  0  0  0  0  0  0
  189.5200  177.5130  138.8000 N   0  0  0  0  0  2  0  0  0  0  0  0
  188.9810  176.3070  138.1910 C   0  0  1  0  0  3  0  0  0  0  0  0
  187.7190  176.6380  137.4150 C   0  0  0  0  0  1  0  0  0  0  0  0
  190.0190  175.6470  137.2860 C   0  0  0  0  0  2  0  0  0  0  0  0
  190.8340  174.7000  138.0300 N   0  0  0  0  0  1  0  0  0  0  0  0
  1 13  1  0  0  0  0
  2  3  1  0  0  0  0
  2  6  1  0  0  0  0
  3 17  1  1  0  0  0
  4 13  1  6  0  0  0
  4 10  1  0  0  0  0
  4  3  1  0  0  0  0
  5 24  1  6  0  0  0
  5  1  1  0  0  0  0
  5 14  1  0  0  0  0
  7 19  1  0  0  0  0
  8 22  1  0  0  0  0
  9  6  2  0  0  0  0
  9 16  1  0  0  0  0
 10  3  1  0  0  0  0
 10 17  1  1  0  0  0
 11  9  1  0  0  0  0
 12 23  1  0  0  0  0
 12 11  2  0  0  0  0
 13 23  1  0  0  0  0
 14 12  1  0  0  0  0
 15  7  1  0  0  0  0
 16  8  1  0  0  0  0
 18 11  1  0  0  0  0
 18 15  1  0  0  0  0
 19 22  1  0  0  0  0
 20  7  2  0  0  0  0
 21  1  2  0  0  0  0
 23  2  2  0  0  0  0
 25 26  1  6  0  0  0
 25 24  1  0  0  0  0
 27 28  1  0  0  0  0
 27 25  1  0  0  0  0
M  END
>  <MODEL>
1

>  <REMARK>
 VINA RESULT:      -8.9      0.000      0.000
  Name = 
  3 active torsions:
  status: ('A' for Active; 'I' for Inactive)
    1  A    between atoms: C_1  and  C_7
    2  A    between atoms: N_6  and  C_7
    3  A    between atoms: N_6  and  C_8
                            x       y       z     vdW  Elec       q    Type
                         _______ _______ _______ _____ _____    ______ ____

>  <TORSDO>
F 3

$$$$
=
 OpenBabel10232410033D

 28 33  0  0  1  0  0  0  0  0999 V2000
  186.4760  178.4460  140.7130 C   0  0  0  0  0  0  0  0  0  0  0  0
  186.2330  178.0860  144.2630 C   0  0  0  0  0  0  0  0  0  0  0  0
  184.7960  178.3990  144.0000 C   0  0  2  0  0  0  0  0  0  0  0  0
  184.6570  178.4250  142.5320 C   0  0  1  0  0  3  0  0  0  0  0  0
  187.9660  178.6010  140.5080 C   0  0  1  0  0  3  0  0  0  0  0  0
  186.9510  178.0910  145.4570 C   0  0  0  0  0  3  0  0  0  0  0  0
  191.7650  176.6580  145.8740 C   0  0  0  0  0  0  0  0  0  0  0  0
  189.2800  176.3700  147.0520 N   0  0  0  0  0  2  0  0  0  0  0  0
  188.3400  177.8610  145.4140 C   0  0  0  0  0  0  0  0  0  0  0  0
  184.7500  179.7080  143.2560 N   0  0  1  0  0  0  0  0  0  0  0  0
  188.9950  177.6360  144.1550 C   0  0  0  0  0  0  0  0  0  0  0  0
  188.2100  177.6030  142.9820 C   0  0  0  0  0  0  0  0  0  0  0  0
  185.9760  178.0570  141.9990 N   0  0  0  0  0  0  0  0  0  0  0  0
  188.8950  177.2630  141.3510 S   0  0  0  0  0  0  0  0  0  0  0  0
  191.4750  177.7820  144.9410 C   0  0  0  0  0  2  0  0  0  0  0  0
  189.0340  177.7730  146.7310 C   0  0  0  0  0  2  0  0  0  0  0  0
  184.2810  179.5900  144.6430 C   0  0  0  0  0  2  0  0  0  0  0  0
  190.4140  177.4220  144.0110 N   0  0  0  0  0  2  0  0  0  0  0  0
  191.5170  176.8450  147.2660 N   0  0  0  0  0  2  0  0  0  0  0  0
  192.1640  175.5450  145.4400 O   0  0  0  0  0  0  0  0  0  0  0  0
  185.6710  178.7470  139.7920 O   0  0  0  0  0  0  0  0  0  0  0  0
  190.3990  176.2740  147.9070 N   0  0  0  0  0  2  0  0  0  0  0  0
  186.8460  177.8230  143.0840 C   0  0  0  0  0  0  0  0  0  0  0  0
  188.2940  178.5970  139.0900 N   0  0  0  0  0  2  0  0  0  0  0  0
  188.6160  177.2260  138.7220 C   0  0  1  0  0  3  0  0  0  0  0  0
  187.6430  176.7310  137.6690 C   0  0  0  0  0  1  0  0  0  0  0  0
  190.0560  177.1240  138.2240 C   0  0  0  0  0  2  0  0  0  0  0  0
  190.6090  175.8060  138.4920 N   0  0  0  0  0  1  0  0  0  0  0  0
  1 13  1  0  0  0  0
  2  6  1  0  0  0  0
  3  2  1  0  0  0  0
  3 17  1  1  0  0  0
  4 13  1  6  0  0  0
  4 10  1  0  0  0  0
  4  3  1  0  0  0  0
  5 24  1  6  0  0  0
  5  1  1  0  0  0  0
  5 14  1  0  0  0  0
  7 19  1  0  0  0  0
  8 22  1  0  0  0  0
  9  6  2  0  0  0  0
  9 16  1  0  0  0  0
 10  3  1  0  0  0  0
 10 17  1  1  0  0  0
 11  9  1  0  0  0  0
 12 23  1  0  0  0  0
 12 11  2  0  0  0  0
 13 23  1  0  0  0  0
 14 12  1  0  0  0  0
 15  7  1  0  0  0  0
 16  8  1  0  0  0  0
 18 11  1  0  0  0  0
 18 15  1  0  0  0  0
 19 22  1  0  0  0  0
 20  7  2  0  0  0  0
 21  1  2  0  0  0  0
 23  2  2  0  0  0  0
 25 26  1  6  0  0  0
 25 24  1  0  0  0  0
 27 28  1  0  0  0  0
 27 25  1  0  0  0  0
M  END
>  <MODEL>
2

>  <REMARK>
 VINA RESULT:      -8.7      2.271      5.029
  Name = 
  3 active torsions:
  status: ('A' for Active; 'I' for Inactive)
    1  A    between atoms: C_1  and  C_7
    2  A    between atoms: N_6  and  C_7
    3  A    between atoms: N_6  and  C_8
                            x       y       z     vdW  Elec       q    Type
                         _______ _______ _______ _____ _____    ______ ____

>  <TORSDO>
F 3

$$$$
=
 OpenBabel10232410033D

 28 33  0  0  1  0  0  0  0  0999 V2000
  184.8350  178.7300  145.2200 C   0  0  0  0  0  0  0  0  0  0  0  0
  188.1220  177.3690  144.8570 C   0  0  0  0  0  0  0  0  0  0  0  0
  188.0120  177.2200  146.3400 C   0  0  2  0  0  0  0  0  0  0  0  0
  186.6240  177.5900  146.6750 C   0  0  1  0  0  3  0  0  0  0  0  0
  184.6350  179.4420  143.9020 C   0  0  1  0  0  3  0  0  0  0  0  0
  189.2380  177.3020  144.0260 C   0  0  0  0  0  3  0  0  0  0  0  0
  189.0490  177.5790  138.9970 C   0  0  0  0  0  0  0  0  0  0  0  0
  190.1690  176.1390  141.0750 N   0  0  0  0  0  2  0  0  0  0  0  0
  189.0830  177.5910  142.6560 C   0  0  0  0  0  0  0  0  0  0  0  0
  187.6930  178.5800  146.9050 N   0  0  1  0  0  0  0  0  0  0  0  0
  187.7920  177.9540  142.1380 C   0  0  0  0  0  0  0  0  0  0  0  0
  186.6890  177.9670  143.0200 C   0  0  0  0  0  0  0  0  0  0  0  0
  185.9620  177.8610  145.3910 N   0  0  0  0  0  0  0  0  0  0  0  0
  185.0090  178.3370  142.4860 S   0  0  0  0  0  0  0  0  0  0  0  0
  188.5030  178.7380  139.7570 C   0  0  0  0  0  2  0  0  0  0  0  0
  190.2900  177.4000  141.8020 C   0  0  0  0  0  2  0  0  0  0  0  0
  188.9980  177.9390  147.1210 C   0  0  0  0  0  2  0  0  0  0  0  0
  187.5440  178.2950  140.7590 N   0  0  0  0  0  2  0  0  0  0  0  0
  190.4400  177.2870  139.1040 N   0  0  0  0  0  2  0  0  0  0  0  0
  188.2890  176.8340  138.3220 O   0  0  0  0  0  0  0  0  0  0  0  0
  184.0720  178.9670  146.1950 O   0  0  0  0  0  0  0  0  0  0  0  0
  190.9180  176.2130  139.8810 N   0  0  0  0  0  2  0  0  0  0  0  0
  186.8980  177.6630  144.3550 C   0  0  0  0  0  0  0  0  0  0  0  0
  183.2700  179.9330  143.7820 N   0  0  0  0  0  2  0  0  0  0  0  0
  182.4700  178.8610  143.2100 C   0  0  1  0  0  3  0  0  0  0  0  0
  181.3420  178.4950  144.1560 C   0  0  0  0  0  1  0  0  0  0  0  0
  181.9240  179.2640  141.8430 C   0  0  0  0  0  2  0  0  0  0  0  0
  180.6330  179.9230  141.9690 N   0  0  0  0  0  1  0  0  0  0  0  0
  1 13  1  0  0  0  0
  1 21  2  0  0  0  0
  2  3  1  0  0  0  0
  3  4  1  0  0  0  0
  3 10  1  0  0  0  0
  3 17  1  1  0  0  0
  4 13  1  6  0  0  0
  4 10  1  0  0  0  0
  5 24  1  6  0  0  0
  5  1  1  0  0  0  0
  6  2  2  0  0  0  0
  7 19  1  0  0  0  0
  7 15  1  0  0  0  0
  8 16  1  0  0  0  0
  9  6  1  0  0  0  0
 10 17  1  1  0  0  0
 11  9  2  0  0  0  0
 11 12  1  0  0  0  0
 12 23  2  0  0  0  0
 14 12  1  0  0  0  0
 14  5  1  0  0  0  0
 15 18  1  0  0  0  0
 16  9  1  0  0  0  0
 18 11  1  0  0  0  0
 19 22  1  0  0  0  0
 20  7  2  0  0  0  0
 22  8  1  0  0  0  0
 23  2  1  0  0  0  0
 23 13  1  0  0  0  0
 25 24  1  0  0  0  0
 25 26  1  1  0  0  0
 27 28  1  0  0  0  0
 27 25  1  0  0  0  0
M  END
>  <MODEL>
3

>  <REMARK>
 VINA RESULT:      -8.1      2.209      6.737
  Name = 
  3 active torsions:
  status: ('A' for Active; 'I' for Inactive)
    1  A    between atoms: C_1  and  C_7
    2  A    between atoms: N_6  and  C_7
    3  A    between atoms: N_6  and  C_8
                            x       y       z     vdW  Elec       q    Type
                         _______ _______ _______ _____ _____    ______ ____

>  <TORSDO>
F 3

$$$$
=
 OpenBabel10232410033D

 28 33  0  0  1  0  0  0  0  0999 V2000
  183.8060  178.6800  144.2120 C   0  0  0  0  0  0  0  0  0  0  0  0
  186.9730  177.9550  145.7070 C   0  0  0  0  0  0  0  0  0  0  0  0
  186.1870  178.0910  146.9710 C   0  0  2  0  0  0  0  0  0  0  0  0
  184.7810  178.2370  146.5510 C   0  0  1  0  0  3  0  0  0  0  0  0
  184.1960  179.0570  142.8010 C   0  0  1  0  0  3  0  0  0  0  0  0
  188.3510  177.9440  145.5010 C   0  0  0  0  0  3  0  0  0  0  0  0
  190.5400  177.1530  141.0300 C   0  0  0  0  0  0  0  0  0  0  0  0
  190.6580  176.4160  143.6930 N   0  0  0  0  0  2  0  0  0  0  0  0
  188.8380  177.9120  144.1800 C   0  0  0  0  0  0  0  0  0  0  0  0
  185.5290  179.4460  146.9470 N   0  0  1  0  0  0  0  0  0  0  0  0
  187.9220  177.9000  143.0720 C   0  0  0  0  0  0  0  0  0  0  0  0
  186.5360  177.8720  143.3430 C   0  0  0  0  0  0  0  0  0  0  0  0
  184.7850  178.1060  145.0880 N   0  0  0  0  0  0  0  0  0  0  0  0
  185.2840  177.7840  142.0510 S   0  0  0  0  0  0  0  0  0  0  0  0
  189.6080  178.3100  141.1280 C   0  0  0  0  0  2  0  0  0  0  0  0
  190.3170  177.7960  144.0260 C   0  0  0  0  0  2  0  0  0  0  0  0
  186.6240  179.1330  147.8760 C   0  0  0  0  0  2  0  0  0  0  0  0
  188.3280  177.8980  141.6890 N   0  0  0  0  0  2  0  0  0  0  0  0
  191.7340  177.1710  141.8090 N   0  0  0  0  0  2  0  0  0  0  0  0
  190.2540  176.1520  140.3220 O   0  0  0  0  0  0  0  0  0  0  0  0
  182.6560  178.9540  144.6510 O   0  0  0  0  0  0  0  0  0  0  0  0
  191.8740  176.3930  142.9760 N   0  0  0  0  0  2  0  0  0  0  0  0
  186.1120  177.8920  144.6620 C   0  0  0  0  0  0  0  0  0  0  0  0
  183.0150  179.2320  141.9690 N   0  0  0  0  0  2  0  0  0  0  0  0
  183.2700  178.5580  140.7050 C   0  0  1  0  0  3  0  0  0  0  0  0
  182.2250  177.4820  140.4720 C   0  0  0  0  0  1  0  0  0  0  0  0
  183.2860  179.5590  139.5520 C   0  0  0  0  0  2  0  0  0  0  0  0
  184.6500  179.8990  139.1750 N   0  0  0  0  0  1  0  0  0  0  0  0
  1 21  2  0  0  0  0
  1 13  1  0  0  0  0
  2  3  1  0  0  0  0
  3 17  1  1  0  0  0
  4 13  1  6  0  0  0
  4 10  1  0  0  0  0
  4  3  1  0  0  0  0
  5 24  1  6  0  0  0
  5  1  1  0  0  0  0
  6  2  1  0  0  0  0
  7 15  1  0  0  0  0
  7 19  1  0  0  0  0
  8 16  1  0  0  0  0
  9  6  2  0  0  0  0
 10  3  1  0  0  0  0
 10 17  1  1  0  0  0
 11 12  2  0  0  0  0
 11  9  1  0  0  0  0
 12 23  1  0  0  0  0
 14  5  1  0  0  0  0
 14 12  1  0  0  0  0
 15 18  1  0  0  0  0
 16  9  1  0  0  0  0
 18 11  1  0  0  0  0
 19 22  1  0  0  0  0
 20  7  2  0  0  0  0
 22  8  1  0  0  0  0
 23 13  1  0  0  0  0
 23  2  2  0  0  0  0
 25 26  1  6  0  0  0
 25 24  1  0  0  0  0
 27 25  1  0  0  0  0
 28 27  1  0  0  0  0
M  END
>  <MODEL>
4

>  <REMARK>
 VINA RESULT:      -7.5      2.165      6.353
  Name = 
  3 active torsions:
  status: ('A' for Active; 'I' for Inactive)
    1  A    between atoms: C_1  and  C_7
    2  A    between atoms: N_6  and  C_7
    3  A    between atoms: N_6  and  C_8
                            x       y       z     vdW  Elec       q    Type
                         _______ _______ _______ _____ _____    ______ ____

>  <TORSDO>
F 3

$$$$
=
 OpenBabel10232410033D

 28 33  0  0  1  0  0  0  0  0999 V2000
  186.1910  178.6120  139.4840 C   0  0  0  0  0  0  0  0  0  0  0  0
  189.0930  177.7950  141.4090 C   0  0  0  0  0  0  0  0  0  0  0  0
  189.7440  177.7920  140.0640 C   0  0  2  0  0  0  0  0  0  0  0  0
  188.7170  178.2770  139.1240 C   0  0  1  0  0  3  0  0  0  0  0  0
  185.0710  178.3280  140.4580 C   0  0  1  0  0  3  0  0  0  0  0  0
  189.5430  177.2920  142.6280 C   0  0  0  0  0  3  0  0  0  0  0  0
  187.0790  177.8160  146.9930 C   0  0  0  0  0  0  0  0  0  0  0  0
  189.5860  178.0380  145.8480 N   0  0  0  0  0  2  0  0  0  0  0  0
  188.6760  177.3270  143.7380 C   0  0  0  0  0  0  0  0  0  0  0  0
  188.9780  176.8270  139.1970 N   0  0  1  0  0  0  0  0  0  0  0  0
  187.3500  177.8660  143.6010 C   0  0  0  0  0  0  0  0  0  0  0  0
  186.9630  178.3980  142.3510 C   0  0  0  0  0  0  0  0  0  0  0  0
  187.5480  178.6140  139.9480 N   0  0  0  0  0  0  0  0  0  0  0  0
  185.3590  179.1650  142.0650 S   0  0  0  0  0  0  0  0  0  0  0  0
  186.3570  177.1210  145.8920 C   0  0  0  0  0  2  0  0  0  0  0  0
  189.2500  176.8720  145.0360 C   0  0  0  0  0  2  0  0  0  0  0  0
  190.3440  176.5380  139.6560 C   0  0  0  0  0  2  0  0  0  0  0  0
  186.3860  177.9150  144.6710 N   0  0  0  0  0  2  0  0  0  0  0  0
  188.2540  177.2120  147.5280 N   0  0  0  0  0  2  0  0  0  0  0  0
  186.6960  178.9430  147.4050 O   0  0  0  0  0  0  0  0  0  0  0  0
  185.9490  178.7510  138.2550 O   0  0  0  0  0  0  0  0  0  0  0  0
  189.5440  177.6860  147.2150 N   0  0  0  0  0  2  0  0  0  0  0  0
  187.8610  178.3490  141.2970 C   0  0  0  0  0  0  0  0  0  0  0  0
  183.7920  178.7600  139.9130 N   0  0  0  0  0  2  0  0  0  0  0  0
  182.8010  177.7600  140.2800 C   0  0  1  0  0  3  0  0  0  0  0  0
  181.6620  178.4140  141.0400 C   0  0  0  0  0  1  0  0  0  0  0  0
  182.2830  177.0320  139.0420 C   0  0  0  0  0  2  0  0  0  0  0  0
  182.9810  175.7710  138.8460 N   0  0  0  0  0  1  0  0  0  0  0  0
  1 13  1  0  0  0  0
  1  5  1  0  0  0  0
  2  6  1  0  0  0  0
  3 17  1  6  0  0  0
  3  2  1  0  0  0  0
  4 10  1  0  0  0  0
  4 13  1  1  0  0  0
  4  3  1  0  0  0  0
  5 24  1  6  0  0  0
  5 14  1  0  0  0  0
  6  9  2  0  0  0  0
  7 20  2  0  0  0  0
  7 19  1  0  0  0  0
  8 22  1  0  0  0  0
  9 16  1  0  0  0  0
 10 17  1  6  0  0  0
 10  3  1  0  0  0  0
 11  9  1  0  0  0  0
 11 18  1  0  0  0  0
 12 11  2  0  0  0  0
 13 23  1  0  0  0  0
 14 12  1  0  0  0  0
 15  7  1  0  0  0  0
 16  8  1  0  0  0  0
 18 15  1  0  0  0  0
 21  1  2  0  0  0  0
 22 19  1  0  0  0  0
 23  2  2  0  0  0  0
 23 12  1  0  0  0  0
 24 25  1  0  0  0  0
 25 26  1  6  0  0  0
 27 25  1  0  0  0  0
 28 27  1  0  0  0  0
M  END
>  <MODEL>
5

>  <REMARK>
 VINA RESULT:      -7.4      3.015      4.736
  Name = 
  3 active torsions:
  status: ('A' for Active; 'I' for Inactive)
    1  A    between atoms: C_1  and  C_7
    2  A    between atoms: N_6  and  C_7
    3  A    between atoms: N_6  and  C_8
                            x       y       z     vdW  Elec       q    Type
                         _______ _______ _______ _____ _____    ______ ____

>  <TORSDO>
F 3

$$$$
=
 OpenBabel10232410033D

 28 33  0  0  1  0  0  0  0  0999 V2000
  190.2810  176.9320  143.9290 C   0  0  0  0  0  0  0  0  0  0  0  0
  187.4650  178.0810  145.8100 C   0  0  0  0  0  0  0  0  0  0  0  0
  188.4240  177.9580  146.9490 C   0  0  2  0  0  0  0  0  0  0  0  0
  189.7280  177.6400  146.3390 C   0  0  1  0  0  3  0  0  0  0  0  0
  189.6430  176.4950  142.6300 C   0  0  1  0  0  3  0  0  0  0  0  0
  186.0790  178.2160  145.8120 C   0  0  0  0  0  3  0  0  0  0  0  0
  183.2940  178.8980  141.6660 C   0  0  0  0  0  0  0  0  0  0  0  0
  183.6610  179.8350  144.2420 N   0  0  0  0  0  2  0  0  0  0  0  0
  185.3950  178.2010  144.5800 C   0  0  0  0  0  0  0  0  0  0  0  0
  188.9470  176.5450  146.9460 N   0  0  1  0  0  0  0  0  0  0  0  0
  186.1230  178.0400  143.3520 C   0  0  0  0  0  0  0  0  0  0  0  0
  187.5310  177.9470  143.4100 C   0  0  0  0  0  0  0  0  0  0  0  0
  189.5070  177.6640  144.8870 N   0  0  0  0  0  0  0  0  0  0  0  0
  188.5680  177.8130  141.9430 S   0  0  0  0  0  0  0  0  0  0  0  0
  184.1240  177.6620  141.7240 C   0  0  0  0  0  2  0  0  0  0  0  0
  183.9260  178.4550  144.6390 C   0  0  0  0  0  2  0  0  0  0  0  0
  188.0440  177.0340  147.9970 C   0  0  0  0  0  2  0  0  0  0  0  0
  185.5070  177.9830  142.0500 N   0  0  0  0  0  2  0  0  0  0  0  0
  182.2400  179.0570  142.6130 N   0  0  0  0  0  2  0  0  0  0  0  0
  183.5530  179.8110  140.8380 O   0  0  0  0  0  0  0  0  0  0  0  0
  191.4560  176.5760  144.2130 O   0  0  0  0  0  0  0  0  0  0  0  0
  182.3550  179.9280  143.7150 N   0  0  0  0  0  2  0  0  0  0  0  0
  188.1530  177.9810  144.6470 C   0  0  0  0  0  0  0  0  0  0  0  0
  190.6580  176.1410  141.6490 N   0  0  0  0  0  2  0  0  0  0  0  0
  190.8450  177.2930  140.7810 C   0  0  1  0  0  3  0  0  0  0  0  0
  192.3150  177.6630  140.7200 C   0  0  0  0  0  1  0  0  0  0  0  0
  190.2970  177.0120  139.3840 C   0  0  0  0  0  2  0  0  0  0  0  0
  190.8640  175.7880  138.8370 N   0  0  0  0  0  1  0  0  0  0  0  0
  1 21  2  0  0  0  0
  1 13  1  0  0  0  0
  2  6  1  0  0  0  0
  2  3  1  0  0  0  0
  3 17  1  1  0  0  0
  4 13  1  6  0  0  0
  4 10  1  0  0  0  0
  4  3  1  0  0  0  0
  5 24  1  6  0  0  0
  5  1  1  0  0  0  0
  7 15  1  0  0  0  0
  7 19  1  0  0  0  0
  8 16  1  0  0  0  0
  9 16  1  0  0  0  0
  9  6  2  0  0  0  0
 10  3  1  0  0  0  0
 10 17  1  1  0  0  0
 11 12  2  0  0  0  0
 11  9  1  0  0  0  0
 12 23  1  0  0  0  0
 14  5  1  0  0  0  0
 14 12  1  0  0  0  0
 15 18  1  0  0  0  0
 18 11  1  0  0  0  0
 19 22  1  0  0  0  0
 20  7  2  0  0  0  0
 22  8  1  0  0  0  0
 23 13  1  0  0  0  0
 23  2  2  0  0  0  0
 25 26  1  6  0  0  0
 25 24  1  0  0  0  0
 27 25  1  0  0  0  0
 28 27  1  0  0  0  0
M  END
>  <MODEL>
6

>  <REMARK>
 VINA RESULT:      -7.3      2.063      3.221
  Name = 
  3 active torsions:
  status: ('A' for Active; 'I' for Inactive)
    1  A    between atoms: C_1  and  C_7
    2  A    between atoms: N_6  and  C_7
    3  A    between atoms: N_6  and  C_8
                            x       y       z     vdW  Elec       q    Type
                         _______ _______ _______ _____ _____    ______ ____

>  <TORSDO>
F 3

$$$$
=
 OpenBabel10232410033D

 28 33  0  0  1  0  0  0  0  0999 V2000
  186.2480  178.2180  145.9490 C   0  0  0  0  0  0  0  0  0  0  0  0
  185.7570  178.9270  142.4780 C   0  0  0  0  0  0  0  0  0  0  0  0
  184.4430  179.4420  142.9700 C   0  0  2  0  0  0  0  0  0  0  0  0
  184.5190  179.3830  144.4410 C   0  0  1  0  0  3  0  0  0  0  0  0
  187.4080  177.2500  145.9170 C   0  0  1  0  0  3  0  0  0  0  0  0
  186.1760  178.6200  141.1850 C   0  0  0  0  0  3  0  0  0  0  0  0
  190.8560  177.1780  139.9910 C   0  0  0  0  0  0  0  0  0  0  0  0
  188.8200  178.8830  139.2190 N   0  0  0  0  0  2  0  0  0  0  0  0
  187.4470  178.0390  141.0040 C   0  0  0  0  0  0  0  0  0  0  0  0
  183.7780  178.3240  143.7290 N   0  0  1  0  0  0  0  0  0  0  0  0
  188.2830  177.7650  142.1410 C   0  0  0  0  0  0  0  0  0  0  0  0
  187.8220  178.1350  143.4230 C   0  0  0  0  0  0  0  0  0  0  0  0
  185.8770  178.9170  144.7540 N   0  0  0  0  0  0  0  0  0  0  0  0
  188.7980  177.9130  144.9200 S   0  0  0  0  0  0  0  0  0  0  0  0
  190.1210  176.3340  140.9730 C   0  0  0  0  0  2  0  0  0  0  0  0
  187.8800  177.8300  139.5930 C   0  0  0  0  0  2  0  0  0  0  0  0
  183.2680  178.7880  142.4320 C   0  0  0  0  0  2  0  0  0  0  0  0
  189.5830  177.1470  142.0550 N   0  0  0  0  0  2  0  0  0  0  0  0
  190.3560  177.2690  138.6590 N   0  0  0  0  0  2  0  0  0  0  0  0
  191.8630  177.8470  140.3420 O   0  0  0  0  0  0  0  0  0  0  0  0
  185.5490  178.3420  146.9900 O   0  0  0  0  0  0  0  0  0  0  0  0
  189.6710  178.4100  138.1960 N   0  0  0  0  0  2  0  0  0  0  0  0
  186.5690  178.7150  143.5420 C   0  0  0  0  0  0  0  0  0  0  0  0
  187.8770  176.9620  147.2650 N   0  0  0  0  0  2  0  0  0  0  0  0
  189.2220  177.5040  147.3840 C   0  0  1  0  0  3  0  0  0  0  0  0
  189.3090  178.4120  148.5960 C   0  0  0  0  0  1  0  0  0  0  0  0
  190.2510  176.3800  147.4710 C   0  0  0  0  0  2  0  0  0  0  0  0
  191.6060  176.9120  147.4870 N   0  0  0  0  0  1  0  0  0  0  0  0
  1 21  2  0  0  0  0
  2  3  1  0  0  0  0
  2 23  1  0  0  0  0
  3 17  1  6  0  0  0
  3 10  1  0  0  0  0
  3  4  1  0  0  0  0
  4 13  1  6  0  0  0
  5  1  1  0  0  0  0
  5 24  1  1  0  0  0
  6  2  2  0  0  0  0
  7 20  2  0  0  0  0
  7 15  1  0  0  0  0
  8 16  1  0  0  0  0
  9  6  1  0  0  0  0
  9 11  2  0  0  0  0
 10 17  1  1  0  0  0
 10  4  1  0  0  0  0
 11 12  1  0  0  0  0
 12 23  2  0  0  0  0
 12 14  1  0  0  0  0
 13  1  1  0  0  0  0
 14  5  1  0  0  0  0
 15 18  1  0  0  0  0
 16  9  1  0  0  0  0
 18 11  1  0  0  0  0
 19  7  1  0  0  0  0
 22 19  1  0  0  0  0
 22  8  1  0  0  0  0
 23 13  1  0  0  0  0
 24 25  1  0  0  0  0
 25 27  1  0  0  0  0
 25 26  1  1  0  0  0
 27 28  1  0  0  0  0
M  END
>  <MODEL>
7

>  <REMARK>
 VINA RESULT:      -7.2      2.204      7.451
  Name = 
  3 active torsions:
  status: ('A' for Active; 'I' for Inactive)
    1  A    between atoms: C_1  and  C_7
    2  A    between atoms: N_6  and  C_7
    3  A    between atoms: N_6  and  C_8
                            x       y       z     vdW  Elec       q    Type
                         _______ _______ _______ _____ _____    ______ ____

>  <TORSDO>
F 3

$$$$
=
 OpenBabel10232410033D

 28 33  0  0  1  0  0  0  0  0999 V2000
  186.2600  178.5290  139.1370 C   0  0  0  0  0  0  0  0  0  0  0  0
  189.4880  177.3460  140.1240 C   0  0  0  0  0  0  0  0  0  0  0  0
  189.7100  177.3120  138.6460 C   0  0  2  0  0  0  0  0  0  0  0  0
  188.5130  177.9320  138.0490 C   0  0  1  0  0  3  0  0  0  0  0  0
  185.4500  178.3410  140.3990 C   0  0  1  0  0  3  0  0  0  0  0  0
  190.2170  176.7620  141.1570 C   0  0  0  0  0  3  0  0  0  0  0  0
  189.2190  177.4250  146.0530 C   0  0  0  0  0  0  0  0  0  0  0  0
  191.2870  177.4070  144.2170 N   0  0  0  0  0  2  0  0  0  0  0  0
  189.7240  176.8590  142.4730 C   0  0  0  0  0  0  0  0  0  0  0  0
  188.6200  176.4610  138.0470 N   0  0  1  0  0  0  0  0  0  0  0  0
  188.4860  177.5430  142.7320 C   0  0  0  0  0  0  0  0  0  0  0  0
  187.8110  178.1490  141.6490 C   0  0  0  0  0  0  0  0  0  0  0  0
  187.6840  178.3710  139.1800 N   0  0  0  0  0  0  0  0  0  0  0  0
  186.2900  179.0940  141.8460 S   0  0  0  0  0  0  0  0  0  0  0  0
  188.1320  176.8440  145.2170 C   0  0  0  0  0  2  0  0  0  0  0  0
  190.5990  176.3070  143.5460 C   0  0  0  0  0  2  0  0  0  0  0  0
  190.0190  176.0130  138.0850 C   0  0  0  0  0  2  0  0  0  0  0  0
  187.8900  177.6660  144.0390 N   0  0  0  0  0  2  0  0  0  0  0  0
  190.4240  176.6810  146.2190 N   0  0  0  0  0  2  0  0  0  0  0  0
  189.1040  178.5740  146.5540 O   0  0  0  0  0  0  0  0  0  0  0  0
  185.6840  178.7290  138.0340 O   0  0  0  0  0  0  0  0  0  0  0  0
  191.6100  177.0220  145.5370 N   0  0  0  0  0  2  0  0  0  0  0  0
  188.3480  178.0340  140.3770 C   0  0  0  0  0  0  0  0  0  0  0  0
  184.1240  178.9250  140.2540 N   0  0  0  0  0  2  0  0  0  0  0  0
  183.1720  177.9960  140.8430 C   0  0  1  0  0  3  0  0  0  0  0  0
  182.3210  178.7120  141.8750 C   0  0  0  0  0  1  0  0  0  0  0  0
  182.3000  177.3590  139.7650 C   0  0  0  0  0  2  0  0  0  0  0  0
  182.6880  175.9770  139.5280 N   0  0  0  0  0  1  0  0  0  0  0  0
  1 13  1  0  0  0  0
  1  5  1  0  0  0  0
  2 23  2  0  0  0  0
  2  6  1  0  0  0  0
  3 17  1  6  0  0  0
  3  2  1  0  0  0  0
  4  3  1  0  0  0  0
  4 13  1  1  0  0  0
  5 24  1  6  0  0  0
  5 14  1  0  0  0  0
  6  9  2  0  0  0  0
  7 19  1  0  0  0  0
  7 20  2  0  0  0  0
  8 22  1  0  0  0  0
  9 11  1  0  0  0  0
  9 16  1  0  0  0  0
 10  4  1  0  0  0  0
 10 17  1  6  0  0  0
 10  3  1  0  0  0  0
 11 18  1  0  0  0  0
 12 14  1  0  0  0  0
 12 11  2  0  0  0  0
 13 23  1  0  0  0  0
 15  7  1  0  0  0  0
 16  8  1  0  0  0  0
 18 15  1  0  0  0  0
 21  1  2  0  0  0  0
 22 19  1  0  0  0  0
 23 12  1  0  0  0  0
 24 25  1  0  0  0  0
 25 26  1  1  0  0  0
 27 25  1  0  0  0  0
 28 27  1  0  0  0  0
M  END
>  <MODEL>
8

>  <REMARK>
 VINA RESULT:      -7.1      2.825      5.492
  Name = 
  3 active torsions:
  status: ('A' for Active; 'I' for Inactive)
    1  A    between atoms: C_1  and  C_7
    2  A    between atoms: N_6  and  C_7
    3  A    between atoms: N_6  and  C_8
                            x       y       z     vdW  Elec       q    Type
                         _______ _______ _______ _____ _____    ______ ____

>  <TORSDO>
F 3

$$$$
=
 OpenBabel10232410033D

 28 33  0  0  1  0  0  0  0  0999 V2000
  190.5990  177.4970  142.3180 C   0  0  0  0  0  0  0  0  0  0  0  0
  187.7800  177.7870  140.1360 C   0  0  0  0  0  0  0  0  0  0  0  0
  188.7900  177.4120  139.1010 C   0  0  2  0  0  0  0  0  0  0  0  0
  190.0200  177.0840  139.8450 C   0  0  1  0  0  3  0  0  0  0  0  0
  190.1190  178.2150  143.5590 C   0  0  1  0  0  3  0  0  0  0  0  0
  186.5040  178.3290  139.9930 C   0  0  0  0  0  3  0  0  0  0  0  0
  183.3310  179.1500  143.8230 C   0  0  0  0  0  0  0  0  0  0  0  0
  183.4650  178.0930  141.2710 N   0  0  0  0  0  2  0  0  0  0  0  0
  185.7910  178.6960  141.1510 C   0  0  0  0  0  0  0  0  0  0  0  0
  189.9200  178.4050  139.1950 N   0  0  1  0  0  0  0  0  0  0  0  0
  186.3810  178.5180  142.4500 C   0  0  0  0  0  0  0  0  0  0  0  0
  187.6610  177.9270  142.5340 C   0  0  0  0  0  0  0  0  0  0  0  0
  189.6690  177.2010  141.2680 N   0  0  0  0  0  0  0  0  0  0  0  0
  188.4830  177.5840  144.0990 S   0  0  0  0  0  0  0  0  0  0  0  0
  184.6510  179.8390  143.8810 C   0  0  0  0  0  2  0  0  0  0  0  0
  184.3930  179.1710  140.9400 C   0  0  0  0  0  2  0  0  0  0  0  0
  189.0040  178.3820  138.0470 C   0  0  0  0  0  2  0  0  0  0  0  0
  185.7390  178.8910  143.6860 N   0  0  0  0  0  2  0  0  0  0  0  0
  182.4300  179.4900  142.7730 N   0  0  0  0  0  2  0  0  0  0  0  0
  183.0400  178.2420  144.6460 O   0  0  0  0  0  0  0  0  0  0  0  0
  191.8230  177.2440  142.1610 O   0  0  0  0  0  0  0  0  0  0  0  0
  182.2260  178.6460  141.6630 N   0  0  0  0  0  2  0  0  0  0  0  0
  188.3120  177.5730  141.3630 C   0  0  0  0  0  0  0  0  0  0  0  0
  191.0760  178.0640  144.6450 N   0  0  0  0  0  2  0  0  0  0  0  0
  190.7260  176.8520  145.3690 C   0  0  1  0  0  3  0  0  0  0  0  0
  191.7870  175.7910  145.1470 C   0  0  0  0  0  1  0  0  0  0  0  0
  190.5500  177.1430  146.8570 C   0  0  0  0  0  2  0  0  0  0  0  0
  191.7510  176.7970  147.6030 N   0  0  0  0  0  1  0  0  0  0  0  0
  1  5  1  0  0  0  0
  2 23  1  0  0  0  0
  3 17  1  6  0  0  0
  3 10  1  0  0  0  0
  3  4  1  0  0  0  0
  3  2  1  0  0  0  0
  4 13  1  1  0  0  0
  5 14  1  0  0  0  0
  5 24  1  1  0  0  0
  6  2  2  0  0  0  0
  6  9  1  0  0  0  0
  7 15  1  0  0  0  0
  7 20  2  0  0  0  0
  8 22  1  0  0  0  0
  9 11  2  0  0  0  0
 10 17  1  6  0  0  0
 10  4  1  0  0  0  0
 11 12  1  0  0  0  0
 11 18  1  0  0  0  0
 12 14  1  0  0  0  0
 13 23  1  0  0  0  0
 13  1  1  0  0  0  0
 16  9  1  0  0  0  0
 16  8  1  0  0  0  0
 18 15  1  0  0  0  0
 19  7  1  0  0  0  0
 21  1  2  0  0  0  0
 22 19  1  0  0  0  0
 23 12  2  0  0  0  0
 24 25  1  0  0  0  0
 25 26  1  1  0  0  0
 25 27  1  0  0  0  0
 27 28  1  0  0  0  0
M  END
>  <MODEL>
9

>  <REMARK>
 VINA RESULT:      -6.9      2.216      5.167
  Name = 
  3 active torsions:
  status: ('A' for Active; 'I' for Inactive)
    1  A    between atoms: C_1  and  C_7
    2  A    between atoms: N_6  and  C_7
    3  A    between atoms: N_6  and  C_8
                            x       y       z     vdW  Elec       q    Type
                         _______ _______ _______ _____ _____    ______ ____

>  <TORSDO>
F 3

$$$$
