=
 OpenBabel10232411233D

 37 40  0  0  1  0  0  0  0  0999 V2000
  189.8680  177.1020  138.0240 C   0  0  0  0  0  0  0  0  0  0  0  0
  191.1980  176.8670  137.6580 C   0  0  0  0  0  3  0  0  0  0  0  0
  188.8250  176.5750  137.2250 C   0  0  0  0  0  0  0  0  0  0  0  0
  188.1740  175.2310  135.2430 N   0  0  0  0  0  1  0  0  0  0  0  0
  190.4770  175.6030  135.7730 N   0  0  0  0  0  0  0  0  0  0  0  0
  191.4850  176.1100  136.5260 C   0  0  0  0  0  3  0  0  0  0  0  0
  189.1690  175.8090  136.0840 C   0  0  0  0  0  0  0  0  0  0  0  0
  189.5870  177.9440  139.2120 C   0  0  0  0  0  0  0  0  0  0  0  0
  189.2180  179.1390  139.0470 O   0  0  0  0  0  0  0  0  0  0  0  0
  188.0790  175.9970  143.5110 C   0  0  0  0  0  1  0  0  0  0  0  0
  189.7360  177.4400  140.5920 C   0  0  0  0  0  0  0  0  0  0  0  0
  191.1680  177.3990  141.4850 S   0  0  0  0  0  0  0  0  0  0  0  0
  188.7040  176.9180  141.2950 N   0  0  0  0  0  0  0  0  0  0  0  0
  190.4390  176.6660  142.8070 C   0  0  0  0  0  0  0  0  0  0  0  0
  189.0820  176.4960  142.5310 C   0  0  0  0  0  0  0  0  0  0  0  0
  191.1130  176.4030  144.0420 N   0  0  0  0  0  2  0  0  0  0  0  0
  191.8250  177.0300  146.1630 O   0  0  0  0  0  0  0  0  0  0  0  0
  190.9890  177.1850  145.2360 C   0  0  0  0  0  0  0  0  0  0  0  0
  189.8280  178.1100  145.4500 C   0  0  0  0  0  2  0  0  0  0  0  0
  187.5040  177.9830  146.2870 C   0  0  0  0  0  1  0  0  0  0  0  0
  189.3080  178.3520  147.7810 O   0  0  0  0  0  1  0  0  0  0  0  0
  189.0750  176.3050  146.8250 F   0  0  0  0  0  0  0  0  0  0  0  0
  188.9490  177.6680  146.6170 C   0  0  2  0  0  0  0  0  0  0  0  0
  187.4620  176.8060  137.6240 N   0  0  0  0  0  2  0  0  0  0  0  0
  186.6950  178.0260  137.4200 C   0  0  0  0  0  2  0  0  0  0  0  0
  183.7280  178.6970  143.2960 C   0  0  0  0  0  3  0  0  0  0  0  0
  182.9980  179.2430  139.7240 O   0  0  0  0  0  0  0  0  0  0  0  0
  183.0430  178.9020  142.0960 C   0  0  0  0  0  3  0  0  0  0  0  0
  185.9500  178.7360  139.7030 O   0  0  0  0  0  0  0  0  0  0  0  0
  185.1130  178.5480  143.2920 C   0  0  0  0  0  3  0  0  0  0  0  0
  183.1760  177.4540  138.1240 C   0  0  0  0  0  3  0  0  0  0  0  0
  185.1460  178.7580  140.8640 C   0  0  0  0  0  0  0  0  0  0  0  0
  184.4460  177.7110  138.2140 C   0  0  0  0  0  0  0  0  0  0  0  0
  183.7330  178.9510  140.8780 C   0  0  0  0  0  0  0  0  0  0  0  0
  182.2670  178.2220  139.0340 C   0  0  0  0  0  2  0  0  0  0  0  0
  185.8130  178.5810  142.0840 C   0  0  0  0  0  3  0  0  0  0  0  0
  185.6450  178.1340  138.4680 C   0  0  0  0  0  0  0  0  0  0  0  0
  1  8  1  0  0  0  0
  2  1  1  0  0  0  0
  3 24  1  0  0  0  0
  3  1  2  0  0  0  0
  4  7  1  0  0  0  0
  5  7  2  0  0  0  0
  5  6  1  0  0  0  0
  6  2  2  0  0  0  0
  7  3  1  0  0  0  0
  8 11  1  0  0  0  0
  9  8  2  0  0  0  0
 11 13  2  0  0  0  0
 11 12  1  0  0  0  0
 12 14  1  0  0  0  0
 13 15  1  0  0  0  0
 14 16  1  0  0  0  0
 15 14  2  0  0  0  0
 15 10  1  0  0  0  0
 16 18  1  0  0  0  0
 18 19  1  0  0  0  0
 18 17  2  0  0  0  0
 19 23  1  0  0  0  0
 23 20  1  6  0  0  0
 23 22  1  0  0  0  0
 23 21  1  0  0  0  0
 25 24  1  0  0  0  0
 25 37  1  0  0  0  0
 27 34  1  0  0  0  0
 28 26  2  0  0  0  0
 29 32  1  0  0  0  0
 30 26  1  0  0  0  0
 31 33  2  0  0  0  0
 31 35  1  0  0  0  0
 32 34  2  0  0  0  0
 32 36  1  0  0  0  0
 33 37  2  0  0  0  0
 34 28  1  0  0  0  0
 35 27  1  0  0  0  0
 36 30  2  0  0  0  0
 37 29  1  0  0  0  0
M  END
>  <MODEL>
1

>  <REMARK>
 VINA RESULT:      -8.8      0.000      0.000
  Name = 
  8 active torsions:
  status: ('A' for Active; 'I' for Inactive)
    1  A    between atoms: C_1  and  C_3
    2  A    between atoms: C_3  and  C_8
    3  A    between atoms: C_7  and  N_23
    4  A    between atoms: N_11  and  C_25
    5  A    between atoms: C_18  and  C_30
    6  A    between atoms: N_23  and  C_27
    7  A    between atoms: C_27  and  C_37
    8  A    between atoms: C_28  and  C_30
                            x       y       z     vdW  Elec       q    Type
                         _______ _______ _______ _____ _____    ______ ____

>  <TORSDO>
F 8

$$$$
=
 OpenBabel10232411233D

 37 40  0  0  1  0  0  0  0  0999 V2000
  189.2330  177.2880  140.2320 C   0  0  0  0  0  0  0  0  0  0  0  0
  190.3410  176.6210  139.7000 C   0  0  0  0  0  3  0  0  0  0  0  0
  188.5370  178.2250  139.4330 C   0  0  0  0  0  0  0  0  0  0  0  0
  188.3230  179.3600  137.2360 N   0  0  0  0  0  1  0  0  0  0  0  0
  190.0640  177.7680  137.6330 N   0  0  0  0  0  0  0  0  0  0  0  0
  190.7440  176.8730  138.3920 C   0  0  0  0  0  3  0  0  0  0  0  0
  188.9840  178.4450  138.1060 C   0  0  0  0  0  0  0  0  0  0  0  0
  188.8470  177.0320  141.6420 C   0  0  0  0  0  0  0  0  0  0  0  0
  187.6960  176.5830  141.8930 O   0  0  0  0  0  0  0  0  0  0  0  0
  191.9130  179.7230  144.4530 C   0  0  0  0  0  1  0  0  0  0  0  0
  189.7590  177.2970  142.7720 C   0  0  0  0  0  0  0  0  0  0  0  0
  190.2130  176.1890  143.9630 S   0  0  0  0  0  0  0  0  0  0  0  0
  190.3240  178.5080  142.9870 N   0  0  0  0  0  0  0  0  0  0  0  0
  191.1470  177.3130  144.7900 C   0  0  0  0  0  0  0  0  0  0  0  0
  191.1050  178.5240  144.0990 C   0  0  0  0  0  0  0  0  0  0  0  0
  191.9430  176.9940  145.9370 N   0  0  0  0  0  2  0  0  0  0  0  0
  192.2480  176.8100  148.2330 O   0  0  0  0  0  0  0  0  0  0  0  0
  191.4420  176.8130  147.2670 C   0  0  0  0  0  0  0  0  0  0  0  0
  189.9940  176.5230  147.5260 C   0  0  0  0  0  2  0  0  0  0  0  0
  187.9150  177.3620  148.5710 C   0  0  0  0  0  1  0  0  0  0  0  0
  188.9300  178.5420  146.7820 O   0  0  0  0  0  1  0  0  0  0  0  0
  189.9480  178.5380  148.8120 F   0  0  0  0  0  0  0  0  0  0  0  0
  189.2170  177.7780  147.9150 C   0  0  2  0  0  0  0  0  0  0  0  0
  187.3860  178.8890  139.9840 N   0  0  0  0  0  2  0  0  0  0  0  0
  185.9920  178.6080  139.6710 C   0  0  0  0  0  2  0  0  0  0  0  0
  184.3450  178.5020  146.0790 C   0  0  0  0  0  3  0  0  0  0  0  0
  182.9850  179.6990  142.8690 O   0  0  0  0  0  0  0  0  0  0  0  0
  183.4620  178.9590  145.0970 C   0  0  0  0  0  3  0  0  0  0  0  0
  185.7990  178.9760  142.1400 O   0  0  0  0  0  0  0  0  0  0  0  0
  185.6760  178.2480  145.7550 C   0  0  0  0  0  3  0  0  0  0  0  0
  182.6420  178.1990  141.0180 C   0  0  0  0  0  3  0  0  0  0  0  0
  185.2490  178.8640  143.4360 C   0  0  0  0  0  0  0  0  0  0  0  0
  183.9240  178.3380  140.8710 C   0  0  0  0  0  0  0  0  0  0  0  0
  183.8980  179.1610  143.7810 C   0  0  0  0  0  0  0  0  0  0  0  0
  182.0230  178.8700  142.2060 C   0  0  0  0  0  2  0  0  0  0  0  0
  186.1210  178.4320  144.4450 C   0  0  0  0  0  3  0  0  0  0  0  0
  185.1890  178.6180  140.9240 C   0  0  0  0  0  0  0  0  0  0  0  0
  1  8  1  0  0  0  0
  2  1  1  0  0  0  0
  3 24  1  0  0  0  0
  3  1  2  0  0  0  0
  4  7  1  0  0  0  0
  5  7  2  0  0  0  0
  5  6  1  0  0  0  0
  6  2  2  0  0  0  0
  7  3  1  0  0  0  0
  8  9  2  0  0  0  0
  8 11  1  0  0  0  0
 11 13  2  0  0  0  0
 11 12  1  0  0  0  0
 12 14  1  0  0  0  0
 13 15  1  0  0  0  0
 14 16  1  0  0  0  0
 15 10  1  0  0  0  0
 15 14  2  0  0  0  0
 16 18  1  0  0  0  0
 18 19  1  0  0  0  0
 18 17  2  0  0  0  0
 19 23  1  0  0  0  0
 21 23  1  0  0  0  0
 23 20  1  1  0  0  0
 23 22  1  0  0  0  0
 25 24  1  0  0  0  0
 25 37  1  0  0  0  0
 27 34  1  0  0  0  0
 28 26  2  0  0  0  0
 29 32  1  0  0  0  0
 30 26  1  0  0  0  0
 31 35  1  0  0  0  0
 32 34  2  0  0  0  0
 32 36  1  0  0  0  0
 33 37  2  0  0  0  0
 33 31  2  0  0  0  0
 34 28  1  0  0  0  0
 35 27  1  0  0  0  0
 36 30  2  0  0  0  0
 37 29  1  0  0  0  0
M  END
>  <MODEL>
2

>  <REMARK>
 VINA RESULT:      -8.8      2.124      2.861
  Name = 
  8 active torsions:
  status: ('A' for Active; 'I' for Inactive)
    1  A    between atoms: C_1  and  C_3
    2  A    between atoms: C_3  and  C_8
    3  A    between atoms: C_7  and  N_23
    4  A    between atoms: N_11  and  C_25
    5  A    between atoms: C_18  and  C_30
    6  A    between atoms: N_23  and  C_27
    7  A    between atoms: C_27  and  C_37
    8  A    between atoms: C_28  and  C_30
                            x       y       z     vdW  Elec       q    Type
                         _______ _______ _______ _____ _____    ______ ____

>  <TORSDO>
F 8

$$$$
=
 OpenBabel10232411233D

 37 40  0  0  1  0  0  0  0  0999 V2000
  187.1190  178.3890  138.9740 C   0  0  0  0  0  0  0  0  0  0  0  0
  185.9520  178.3850  138.2030 C   0  0  0  0  0  3  0  0  0  0  0  0
  187.0190  178.4760  140.3830 C   0  0  0  0  0  0  0  0  0  0  0  0
  185.5490  178.6120  142.3780 N   0  0  0  0  0  1  0  0  0  0  0  0
  184.6240  178.5280  140.1740 N   0  0  0  0  0  0  0  0  0  0  0  0
  184.7070  178.4540  138.8220 C   0  0  0  0  0  3  0  0  0  0  0  0
  185.7290  178.5410  140.9660 C   0  0  0  0  0  0  0  0  0  0  0  0
  188.4340  178.3550  138.2890 C   0  0  0  0  0  0  0  0  0  0  0  0
  188.9700  179.4390  137.9300 O   0  0  0  0  0  0  0  0  0  0  0  0
  188.9870  173.8040  136.4120 C   0  0  0  0  0  1  0  0  0  0  0  0
  189.1410  177.0920  137.9970 C   0  0  0  0  0  0  0  0  0  0  0  0
  190.7050  176.6910  138.4910 S   0  0  0  0  0  0  0  0  0  0  0  0
  188.5920  176.1030  137.2540 N   0  0  0  0  0  0  0  0  0  0  0  0
  190.6790  175.2080  137.7050 C   0  0  0  0  0  0  0  0  0  0  0  0
  189.4350  175.0480  137.0960 C   0  0  0  0  0  0  0  0  0  0  0  0
  191.7360  174.2460  137.7890 N   0  0  0  0  0  2  0  0  0  0  0  0
  193.4650  173.0150  136.8450 O   0  0  0  0  0  0  0  0  0  0  0  0
  192.7610  174.0560  136.8060 C   0  0  0  0  0  0  0  0  0  0  0  0
  193.0840  175.1160  135.7950 C   0  0  0  0  0  2  0  0  0  0  0  0
  194.7430  176.8180  135.1120 C   0  0  0  0  0  1  0  0  0  0  0  0
  195.1670  175.3900  136.9570 O   0  0  0  0  0  1  0  0  0  0  0  0
  193.5890  177.0100  137.1630 F   0  0  0  0  0  0  0  0  0  0  0  0
  194.1500  176.0850  136.2980 C   0  0  2  0  0  0  0  0  0  0  0  0
  188.2260  178.4580  141.1660 N   0  0  0  0  0  2  0  0  0  0  0  0
  188.9090  177.2790  141.6770 C   0  0  0  0  0  2  0  0  0  0  0  0
  187.8200  178.1330  148.1470 C   0  0  0  0  0  3  0  0  0  0  0  0
  190.3440  176.6340  145.9180 O   0  0  0  0  0  0  0  0  0  0  0  0
  189.0170  177.5980  147.6650 C   0  0  0  0  0  3  0  0  0  0  0  0
  188.0790  177.1880  144.0370 O   0  0  0  0  0  0  0  0  0  0  0  0
  186.7380  178.3080  147.2880 C   0  0  0  0  0  3  0  0  0  0  0  0
  191.4320  177.9330  144.2090 C   0  0  0  0  0  3  0  0  0  0  0  0
  188.0580  177.4570  145.4240 C   0  0  0  0  0  0  0  0  0  0  0  0
  190.3170  177.7410  143.5730 C   0  0  0  0  0  0  0  0  0  0  0  0
  189.1490  177.2410  146.3160 C   0  0  0  0  0  0  0  0  0  0  0  0
  191.5050  177.4150  145.6120 C   0  0  0  0  0  2  0  0  0  0  0  0
  186.8590  177.9700  145.9380 C   0  0  0  0  0  3  0  0  0  0  0  0
  189.1350  177.4300  143.1400 C   0  0  0  0  0  0  0  0  0  0  0  0
  1  3  1  0  0  0  0
  2  6  1  0  0  0  0
  2  1  2  0  0  0  0
  3  7  2  0  0  0  0
  3 24  1  0  0  0  0
  5  7  1  0  0  0  0
  6  5  2  0  0  0  0
  7  4  1  0  0  0  0
  8  1  1  0  0  0  0
  9  8  2  0  0  0  0
 10 15  1  0  0  0  0
 11  8  1  0  0  0  0
 11 12  1  0  0  0  0
 13 11  2  0  0  0  0
 14 16  1  0  0  0  0
 14 12  1  0  0  0  0
 15 13  1  0  0  0  0
 15 14  2  0  0  0  0
 18 17  2  0  0  0  0
 18 16  1  0  0  0  0
 19 23  1  0  0  0  0
 19 18  1  0  0  0  0
 23 20  1  6  0  0  0
 23 21  1  0  0  0  0
 23 22  1  0  0  0  0
 24 25  1  0  0  0  0
 25 37  1  0  0  0  0
 27 34  1  0  0  0  0
 28 26  1  0  0  0  0
 29 32  1  0  0  0  0
 30 26  2  0  0  0  0
 31 35  1  0  0  0  0
 32 36  2  0  0  0  0
 32 34  1  0  0  0  0
 33 31  2  0  0  0  0
 34 28  2  0  0  0  0
 35 27  1  0  0  0  0
 36 30  1  0  0  0  0
 37 33  2  0  0  0  0
 37 29  1  0  0  0  0
M  END
>  <MODEL>
3

>  <REMARK>
 VINA RESULT:      -8.8      3.151      7.554
  Name = 
  8 active torsions:
  status: ('A' for Active; 'I' for Inactive)
    1  A    between atoms: C_1  and  C_3
    2  A    between atoms: C_3  and  C_8
    3  A    between atoms: C_7  and  N_23
    4  A    between atoms: N_11  and  C_25
    5  A    between atoms: C_18  and  C_30
    6  A    between atoms: N_23  and  C_27
    7  A    between atoms: C_27  and  C_37
    8  A    between atoms: C_28  and  C_30
                            x       y       z     vdW  Elec       q    Type
                         _______ _______ _______ _____ _____    ______ ____

>  <TORSDO>
F 8

$$$$
=
 OpenBabel10232411233D

 37 40  0  0  1  0  0  0  0  0999 V2000
  189.2730  177.3670  137.0690 C   0  0  0  0  0  0  0  0  0  0  0  0
  189.3450  177.2970  135.6740 C   0  0  0  0  0  3  0  0  0  0  0  0
  189.9680  176.4130  137.8490 C   0  0  0  0  0  0  0  0  0  0  0  0
  191.4730  174.4400  137.8990 N   0  0  0  0  0  1  0  0  0  0  0  0
  190.7750  175.4000  135.8230 N   0  0  0  0  0  0  0  0  0  0  0  0
  190.1060  176.3040  135.0650 C   0  0  0  0  0  3  0  0  0  0  0  0
  190.7310  175.4220  137.1820 C   0  0  0  0  0  0  0  0  0  0  0  0
  188.4240  178.4110  137.6950 C   0  0  0  0  0  0  0  0  0  0  0  0
  188.9540  179.4900  138.0750 O   0  0  0  0  0  0  0  0  0  0  0  0
  184.1540  178.5730  140.2030 C   0  0  0  0  0  1  0  0  0  0  0  0
  186.9730  178.2290  137.9050 C   0  0  0  0  0  0  0  0  0  0  0  0
  185.8800  177.5900  136.7880 S   0  0  0  0  0  0  0  0  0  0  0  0
  186.3490  178.5930  139.0490 N   0  0  0  0  0  0  0  0  0  0  0  0
  184.5620  177.8110  137.8020 C   0  0  0  0  0  0  0  0  0  0  0  0
  185.0110  178.3550  139.0060 C   0  0  0  0  0  0  0  0  0  0  0  0
  183.2350  177.3740  137.4890 N   0  0  0  0  0  2  0  0  0  0  0  0
  181.7050  175.7270  136.9060 O   0  0  0  0  0  0  0  0  0  0  0  0
  182.8000  176.0100  137.4560 C   0  0  0  0  0  0  0  0  0  0  0  0
  183.5680  174.9250  138.1510 C   0  0  0  0  0  2  0  0  0  0  0  0
  185.2090  173.1110  137.7890 C   0  0  0  0  0  1  0  0  0  0  0  0
  184.4020  174.3910  135.9640 O   0  0  0  0  0  1  0  0  0  0  0  0
  183.0000  172.9200  136.9780 F   0  0  0  0  0  0  0  0  0  0  0  0
  184.0210  173.8330  137.1860 C   0  0  2  0  0  0  0  0  0  0  0  0
  189.9030  176.5080  139.2830 N   0  0  0  0  0  2  0  0  0  0  0  0
  190.8640  177.1730  140.1510 C   0  0  0  0  0  2  0  0  0  0  0  0
  186.4930  177.9250  145.0620 C   0  0  0  0  0  3  0  0  0  0  0  0
  189.8910  176.5980  144.5310 O   0  0  0  0  0  0  0  0  0  0  0  0
  187.7920  177.4690  145.2940 C   0  0  0  0  0  3  0  0  0  0  0  0
  188.9240  177.0190  141.7270 O   0  0  0  0  0  0  0  0  0  0  0  0
  186.0160  178.0380  143.7580 C   0  0  0  0  0  3  0  0  0  0  0  0
  191.6400  177.9710  143.6100 C   0  0  0  0  0  3  0  0  0  0  0  0
  188.1630  177.2800  142.8880 C   0  0  0  0  0  0  0  0  0  0  0  0
  191.0380  177.7130  142.4900 C   0  0  0  0  0  0  0  0  0  0  0  0
  188.6320  177.1280  144.2260 C   0  0  0  0  0  0  0  0  0  0  0  0
  190.9940  177.4520  144.8580 C   0  0  0  0  0  2  0  0  0  0  0  0
  186.8470  177.7140  142.6830 C   0  0  0  0  0  3  0  0  0  0  0  0
  190.2780  177.3310  141.5100 C   0  0  0  0  0  0  0  0  0  0  0  0
  1  8  1  0  0  0  0
  1  3  1  0  0  0  0
  2  1  2  0  0  0  0
  3 24  1  0  0  0  0
  5  7  1  0  0  0  0
  6  2  1  0  0  0  0
  6  5  2  0  0  0  0
  7  3  2  0  0  0  0
  7  4  1  0  0  0  0
  8 11  1  0  0  0  0
  8  9  2  0  0  0  0
 11 13  2  0  0  0  0
 12 14  1  0  0  0  0
 12 11  1  0  0  0  0
 14 15  2  0  0  0  0
 15 13  1  0  0  0  0
 15 10  1  0  0  0  0
 16 14  1  0  0  0  0
 17 18  2  0  0  0  0
 18 16  1  0  0  0  0
 18 19  1  0  0  0  0
 21 23  1  0  0  0  0
 22 23  1  0  0  0  0
 23 20  1  1  0  0  0
 23 19  1  0  0  0  0
 24 25  1  0  0  0  0
 25 37  1  0  0  0  0
 26 28  1  0  0  0  0
 27 35  1  0  0  0  0
 29 32  1  0  0  0  0
 30 26  2  0  0  0  0
 31 35  1  0  0  0  0
 32 34  1  0  0  0  0
 33 31  2  0  0  0  0
 34 27  1  0  0  0  0
 34 28  2  0  0  0  0
 36 32  2  0  0  0  0
 36 30  1  0  0  0  0
 37 29  1  0  0  0  0
 37 33  2  0  0  0  0
M  END
>  <MODEL>
4

>  <REMARK>
 VINA RESULT:      -8.7      3.235      7.101
  Name = 
  8 active torsions:
  status: ('A' for Active; 'I' for Inactive)
    1  A    between atoms: C_1  and  C_3
    2  A    between atoms: C_3  and  C_8
    3  A    between atoms: C_7  and  N_23
    4  A    between atoms: N_11  and  C_25
    5  A    between atoms: C_18  and  C_30
    6  A    between atoms: N_23  and  C_27
    7  A    between atoms: C_27  and  C_37
    8  A    between atoms: C_28  and  C_30
                            x       y       z     vdW  Elec       q    Type
                         _______ _______ _______ _____ _____    ______ ____

>  <TORSDO>
F 8

$$$$
=
 OpenBabel10232411233D

 37 40  0  0  1  0  0  0  0  0999 V2000
  191.2720  175.3780  137.2320 C   0  0  0  0  0  0  0  0  0  0  0  0
  192.1420  175.3340  136.1370 C   0  0  0  0  0  3  0  0  0  0  0  0
  191.6870  176.0190  138.4230 C   0  0  0  0  0  0  0  0  0  0  0  0
  193.4530  177.2920  139.6150 N   0  0  0  0  0  1  0  0  0  0  0  0
  193.7800  176.5490  137.3650 N   0  0  0  0  0  0  0  0  0  0  0  0
  193.3970  175.9300  136.2210 C   0  0  0  0  0  3  0  0  0  0  0  0
  192.9730  176.6130  138.4580 C   0  0  0  0  0  0  0  0  0  0  0  0
  189.9550  174.7020  137.1320 C   0  0  0  0  0  0  0  0  0  0  0  0
  189.8810  173.4620  137.3470 O   0  0  0  0  0  0  0  0  0  0  0  0
  187.2510  178.2830  135.0320 C   0  0  0  0  0  1  0  0  0  0  0  0
  188.7190  175.4270  136.7740 C   0  0  0  0  0  0  0  0  0  0  0  0
  187.1510  175.0080  137.2400 S   0  0  0  0  0  0  0  0  0  0  0  0
  188.7200  176.5280  135.9870 N   0  0  0  0  0  0  0  0  0  0  0  0
  186.4530  176.2710  136.3820 C   0  0  0  0  0  0  0  0  0  0  0  0
  187.4670  177.0110  135.7730 C   0  0  0  0  0  0  0  0  0  0  0  0
  185.0550  176.5750  136.4120 N   0  0  0  0  0  2  0  0  0  0  0  0
  183.1540  177.3750  137.4820 O   0  0  0  0  0  0  0  0  0  0  0  0
  184.4080  177.4000  137.3890 C   0  0  0  0  0  0  0  0  0  0  0  0
  185.1820  178.3690  138.2330 C   0  0  0  0  0  2  0  0  0  0  0  0
  183.3180  179.7930  139.0150 C   0  0  0  0  0  1  0  0  0  0  0  0
  185.2360  179.4630  140.3690 O   0  0  0  0  0  1  0  0  0  0  0  0
  183.7920  177.7360  140.0710 F   0  0  0  0  0  0  0  0  0  0  0  0
  184.3930  178.8220  139.4580 C   0  0  2  0  0  0  0  0  0  0  0  0
  190.7750  176.0750  139.5340 N   0  0  0  0  0  2  0  0  0  0  0  0
  189.8730  177.1710  139.8600 C   0  0  0  0  0  2  0  0  0  0  0  0
  187.2030  177.7230  145.8890 C   0  0  0  0  0  3  0  0  0  0  0  0
  190.2620  176.4160  144.3030 O   0  0  0  0  0  0  0  0  0  0  0  0
  188.5050  177.2560  145.6980 C   0  0  0  0  0  3  0  0  0  0  0  0
  188.4990  176.9530  141.9420 O   0  0  0  0  0  0  0  0  0  0  0  0
  186.3560  177.8900  144.7960 C   0  0  0  0  0  3  0  0  0  0  0  0
  191.6700  177.8240  142.9500 C   0  0  0  0  0  3  0  0  0  0  0  0
  188.1280  177.1670  143.2880 C   0  0  0  0  0  0  0  0  0  0  0  0
  190.7540  177.6130  142.0550 C   0  0  0  0  0  0  0  0  0  0  0  0
  188.9780  176.9590  144.4140 C   0  0  0  0  0  0  0  0  0  0  0  0
  191.4240  177.2540  144.3140 C   0  0  0  0  0  2  0  0  0  0  0  0
  186.8170  177.6100  143.5080 C   0  0  0  0  0  3  0  0  0  0  0  0
  189.7280  177.2730  141.3370 C   0  0  0  0  0  0  0  0  0  0  0  0
  1  3  1  0  0  0  0
  2  6  1  0  0  0  0
  2  1  2  0  0  0  0
  3  7  2  0  0  0  0
  3 24  1  0  0  0  0
  5  7  1  0  0  0  0
  6  5  2  0  0  0  0
  7  4  1  0  0  0  0
  8  1  1  0  0  0  0
  8  9  2  0  0  0  0
 10 15  1  0  0  0  0
 11  8  1  0  0  0  0
 11 12  1  0  0  0  0
 13 11  2  0  0  0  0
 14 16  1  0  0  0  0
 14 12  1  0  0  0  0
 15 13  1  0  0  0  0
 15 14  2  0  0  0  0
 16 18  1  0  0  0  0
 18 17  2  0  0  0  0
 18 19  1  0  0  0  0
 19 23  1  0  0  0  0
 23 20  1  6  0  0  0
 23 22  1  0  0  0  0
 23 21  1  0  0  0  0
 24 25  1  0  0  0  0
 25 37  1  0  0  0  0
 27 35  1  0  0  0  0
 27 34  1  0  0  0  0
 28 26  1  0  0  0  0
 29 32  1  0  0  0  0
 30 26  2  0  0  0  0
 31 35  1  0  0  0  0
 32 36  2  0  0  0  0
 32 34  1  0  0  0  0
 33 31  2  0  0  0  0
 34 28  2  0  0  0  0
 36 30  1  0  0  0  0
 37 29  1  0  0  0  0
 37 33  2  0  0  0  0
M  END
>  <MODEL>
5

>  <REMARK>
 VINA RESULT:      -8.7      2.824      6.787
  Name = 
  8 active torsions:
  status: ('A' for Active; 'I' for Inactive)
    1  A    between atoms: C_1  and  C_3
    2  A    between atoms: C_3  and  C_8
    3  A    between atoms: C_7  and  N_23
    4  A    between atoms: N_11  and  C_25
    5  A    between atoms: C_18  and  C_30
    6  A    between atoms: N_23  and  C_27
    7  A    between atoms: C_27  and  C_37
    8  A    between atoms: C_28  and  C_30
                            x       y       z     vdW  Elec       q    Type
                         _______ _______ _______ _____ _____    ______ ____

>  <TORSDO>
F 8

$$$$
=
 OpenBabel10232411233D

 37 40  0  0  1  0  0  0  0  0999 V2000
  190.0620  177.4120  139.2960 C   0  0  0  0  0  0  0  0  0  0  0  0
  189.3330  177.6960  138.1360 C   0  0  0  0  0  3  0  0  0  0  0  0
  189.4730  177.6510  140.5600 C   0  0  0  0  0  0  0  0  0  0  0  0
  187.4870  178.4070  141.8410 N   0  0  0  0  0  1  0  0  0  0  0  0
  187.4820  178.4130  139.4490 N   0  0  0  0  0  0  0  0  0  0  0  0
  188.0380  178.1960  138.2310 C   0  0  0  0  0  3  0  0  0  0  0  0
  188.1510  178.1590  140.6050 C   0  0  0  0  0  0  0  0  0  0  0  0
  191.4540  176.9170  139.1680 C   0  0  0  0  0  0  0  0  0  0  0  0
  192.3190  177.2890  140.0070 O   0  0  0  0  0  0  0  0  0  0  0  0
  191.1360  172.9820  136.1750 C   0  0  0  0  0  1  0  0  0  0  0  0
  191.8740  176.0090  138.0810 C   0  0  0  0  0  0  0  0  0  0  0  0
  193.2660  176.1670  137.1380 S   0  0  0  0  0  0  0  0  0  0  0  0
  191.1450  174.9340  137.7040 N   0  0  0  0  0  0  0  0  0  0  0  0
  192.9030  174.8220  136.2020 C   0  0  0  0  0  0  0  0  0  0  0  0
  191.7140  174.2620  136.6690 C   0  0  0  0  0  0  0  0  0  0  0  0
  193.7720  174.2990  135.1920 N   0  0  0  0  0  2  0  0  0  0  0  0
  195.7340  173.2560  134.5160 O   0  0  0  0  0  0  0  0  0  0  0  0
  194.8850  173.4290  135.4270 C   0  0  0  0  0  0  0  0  0  0  0  0
  195.0080  172.6390  136.6960 C   0  0  0  0  0  2  0  0  0  0  0  0
  197.3250  172.4720  137.5440 C   0  0  0  0  0  1  0  0  0  0  0  0
  195.5630  173.1670  138.9700 O   0  0  0  0  0  1  0  0  0  0  0  0
  196.2650  174.5710  137.3300 F   0  0  0  0  0  0  0  0  0  0  0  0
  196.0270  173.2460  137.6560 C   0  0  2  0  0  0  0  0  0  0  0  0
  190.2250  177.3350  141.7460 N   0  0  0  0  0  2  0  0  0  0  0  0
  190.0390  176.1760  142.6050 C   0  0  0  0  0  2  0  0  0  0  0  0
  186.9590  178.5810  147.9450 C   0  0  0  0  0  3  0  0  0  0  0  0
  189.7750  176.3510  147.1180 O   0  0  0  0  0  0  0  0  0  0  0  0
  188.1280  177.8230  148.0460 C   0  0  0  0  0  3  0  0  0  0  0  0
  188.4430  176.7110  144.4590 O   0  0  0  0  0  0  0  0  0  0  0  0
  186.2930  178.6750  146.7250 C   0  0  0  0  0  3  0  0  0  0  0  0
  191.6070  177.1040  145.7500 C   0  0  0  0  0  3  0  0  0  0  0  0
  187.9940  177.2870  145.6680 C   0  0  0  0  0  0  0  0  0  0  0  0
  190.7650  176.8970  144.7840 C   0  0  0  0  0  0  0  0  0  0  0  0
  188.6490  177.1590  146.9280 C   0  0  0  0  0  0  0  0  0  0  0  0
  191.0930  176.9110  147.1440 C   0  0  0  0  0  2  0  0  0  0  0  0
  186.8080  178.0300  145.5990 C   0  0  0  0  0  3  0  0  0  0  0  0
  189.7690  176.6270  143.9970 C   0  0  0  0  0  0  0  0  0  0  0  0
  1  3  1  0  0  0  0
  2  6  1  0  0  0  0
  2  1  2  0  0  0  0
  3  7  2  0  0  0  0
  3 24  1  0  0  0  0
  5  7  1  0  0  0  0
  6  5  2  0  0  0  0
  7  4  1  0  0  0  0
  8  1  1  0  0  0  0
  8  9  2  0  0  0  0
 10 15  1  0  0  0  0
 11  8  1  0  0  0  0
 12 11  1  0  0  0  0
 13 11  2  0  0  0  0
 14 15  2  0  0  0  0
 14 12  1  0  0  0  0
 15 13  1  0  0  0  0
 16 18  1  0  0  0  0
 16 14  1  0  0  0  0
 17 18  2  0  0  0  0
 18 19  1  0  0  0  0
 19 23  1  0  0  0  0
 22 23  1  0  0  0  0
 23 20  1  6  0  0  0
 23 21  1  0  0  0  0
 24 25  1  0  0  0  0
 25 37  1  0  0  0  0
 26 28  1  0  0  0  0
 27 35  1  0  0  0  0
 29 32  1  0  0  0  0
 30 26  2  0  0  0  0
 31 35  1  0  0  0  0
 32 34  1  0  0  0  0
 33 31  2  0  0  0  0
 34 27  1  0  0  0  0
 34 28  2  0  0  0  0
 36 32  2  0  0  0  0
 36 30  1  0  0  0  0
 37 29  1  0  0  0  0
 37 33  2  0  0  0  0
M  END
>  <MODEL>
6

>  <REMARK>
 VINA RESULT:      -8.6      3.942      8.039
  Name = 
  8 active torsions:
  status: ('A' for Active; 'I' for Inactive)
    1  A    between atoms: C_1  and  C_3
    2  A    between atoms: C_3  and  C_8
    3  A    between atoms: C_7  and  N_23
    4  A    between atoms: N_11  and  C_25
    5  A    between atoms: C_18  and  C_30
    6  A    between atoms: N_23  and  C_27
    7  A    between atoms: C_27  and  C_37
    8  A    between atoms: C_28  and  C_30
                            x       y       z     vdW  Elec       q    Type
                         _______ _______ _______ _____ _____    ______ ____

>  <TORSDO>
F 8

$$$$
=
 OpenBabel10232411233D

 37 40  0  0  1  0  0  0  0  0999 V2000
  189.3690  177.5570  138.0260 C   0  0  0  0  0  0  0  0  0  0  0  0
  189.9850  176.7550  137.0590 C   0  0  0  0  0  3  0  0  0  0  0  0
  189.7420  177.4160  139.3830 C   0  0  0  0  0  0  0  0  0  0  0  0
  191.1850  176.2870  141.0580 N   0  0  0  0  0  1  0  0  0  0  0  0
  191.3180  175.7200  138.7380 N   0  0  0  0  0  0  0  0  0  0  0  0
  190.9640  175.8390  137.4340 C   0  0  0  0  0  3  0  0  0  0  0  0
  190.7450  176.4720  139.7150 C   0  0  0  0  0  0  0  0  0  0  0  0
  188.3020  178.4980  137.6070 C   0  0  0  0  0  0  0  0  0  0  0  0
  188.6070  179.6890  137.3260 O   0  0  0  0  0  0  0  0  0  0  0  0
  183.5570  178.2870  139.0160 C   0  0  0  0  0  1  0  0  0  0  0  0
  186.8840  178.0970  137.5180 C   0  0  0  0  0  0  0  0  0  0  0  0
  186.2040  177.1080  136.3300 S   0  0  0  0  0  0  0  0  0  0  0  0
  185.9480  178.5180  138.4010 N   0  0  0  0  0  0  0  0  0  0  0  0
  184.6550  177.2460  136.9610 C   0  0  0  0  0  0  0  0  0  0  0  0
  184.7090  178.0420  138.1060 C   0  0  0  0  0  0  0  0  0  0  0  0
  183.5220  176.5370  136.4490 N   0  0  0  0  0  2  0  0  0  0  0  0
  182.4040  174.5710  135.9170 O   0  0  0  0  0  0  0  0  0  0  0  0
  183.2700  175.1380  136.6310 C   0  0  0  0  0  0  0  0  0  0  0  0
  183.9400  174.3570  137.7220 C   0  0  0  0  0  2  0  0  0  0  0  0
  184.0900  172.0270  136.9040 C   0  0  0  0  0  1  0  0  0  0  0  0
  185.8900  173.0080  138.0950 O   0  0  0  0  0  1  0  0  0  0  0  0
  185.4530  173.7210  135.9840 F   0  0  0  0  0  0  0  0  0  0  0  0
  184.8830  173.2910  137.1700 C   0  0  2  0  0  0  0  0  0  0  0  0
  189.1160  178.2620  140.3650 N   0  0  0  0  0  2  0  0  0  0  0  0
  187.9520  177.9330  141.1750 C   0  0  0  0  0  2  0  0  0  0  0  0
  187.5120  178.0330  147.7770 C   0  0  0  0  0  3  0  0  0  0  0  0
  189.9090  177.0470  145.1560 O   0  0  0  0  0  0  0  0  0  0  0  0
  188.6950  177.6840  147.1210 C   0  0  0  0  0  3  0  0  0  0  0  0
  187.4040  177.5230  143.5840 O   0  0  0  0  0  0  0  0  0  0  0  0
  186.3290  178.1690  147.0540 C   0  0  0  0  0  3  0  0  0  0  0  0
  190.6640  178.6180  143.4950 C   0  0  0  0  0  3  0  0  0  0  0  0
  187.5110  177.6540  144.9860 C   0  0  0  0  0  0  0  0  0  0  0  0
  189.5090  178.3650  142.9580 C   0  0  0  0  0  0  0  0  0  0  0  0
  188.7110  177.4760  145.7360 C   0  0  0  0  0  0  0  0  0  0  0  0
  190.9450  177.9780  144.8210 C   0  0  0  0  0  2  0  0  0  0  0  0
  186.3320  177.9780  145.6710 C   0  0  0  0  0  3  0  0  0  0  0  0
  188.3230  177.9670  142.6160 C   0  0  0  0  0  0  0  0  0  0  0  0
  1  3  1  0  0  0  0
  2  6  1  0  0  0  0
  2  1  2  0  0  0  0
  3  7  2  0  0  0  0
  3 24  1  0  0  0  0
  5  7  1  0  0  0  0
  6  5  2  0  0  0  0
  7  4  1  0  0  0  0
  8  1  1  0  0  0  0
  9  8  2  0  0  0  0
 11  8  1  0  0  0  0
 11 13  2  0  0  0  0
 12 14  1  0  0  0  0
 12 11  1  0  0  0  0
 14 15  2  0  0  0  0
 15 13  1  0  0  0  0
 15 10  1  0  0  0  0
 16 18  1  0  0  0  0
 16 14  1  0  0  0  0
 17 18  2  0  0  0  0
 18 19  1  0  0  0  0
 22 23  1  0  0  0  0
 23 20  1  6  0  0  0
 23 19  1  0  0  0  0
 23 21  1  0  0  0  0
 24 25  1  0  0  0  0
 25 37  1  0  0  0  0
 27 34  1  0  0  0  0
 28 26  1  0  0  0  0
 29 32  1  0  0  0  0
 30 26  2  0  0  0  0
 31 35  1  0  0  0  0
 32 36  2  0  0  0  0
 32 34  1  0  0  0  0
 33 31  2  0  0  0  0
 34 28  2  0  0  0  0
 35 27  1  0  0  0  0
 36 30  1  0  0  0  0
 37 33  2  0  0  0  0
 37 29  1  0  0  0  0
M  END
>  <MODEL>
7

>  <REMARK>
 VINA RESULT:      -8.5      3.435      7.384
  Name = 
  8 active torsions:
  status: ('A' for Active; 'I' for Inactive)
    1  A    between atoms: C_1  and  C_3
    2  A    between atoms: C_3  and  C_8
    3  A    between atoms: C_7  and  N_23
    4  A    between atoms: N_11  and  C_25
    5  A    between atoms: C_18  and  C_30
    6  A    between atoms: N_23  and  C_27
    7  A    between atoms: C_27  and  C_37
    8  A    between atoms: C_28  and  C_30
                            x       y       z     vdW  Elec       q    Type
                         _______ _______ _______ _____ _____    ______ ____

>  <TORSDO>
F 8

$$$$
=
 OpenBabel10232411233D

 37 40  0  0  1  0  0  0  0  0999 V2000
  183.5460  179.0630  140.5120 C   0  0  0  0  0  0  0  0  0  0  0  0
  182.1710  178.8180  140.4500 C   0  0  0  0  0  3  0  0  0  0  0  0
  184.1870  179.1060  141.7740 C   0  0  0  0  0  0  0  0  0  0  0  0
  183.9840  178.8930  144.2380 N   0  0  0  0  0  1  0  0  0  0  0  0
  182.0730  178.6430  142.8220 N   0  0  0  0  0  0  0  0  0  0  0  0
  181.4460  178.6070  141.6190 C   0  0  0  0  0  3  0  0  0  0  0  0
  183.4070  178.8830  142.9350 C   0  0  0  0  0  0  0  0  0  0  0  0
  184.2900  179.3230  139.2550 C   0  0  0  0  0  0  0  0  0  0  0  0
  184.4740  180.5140  138.8840 O   0  0  0  0  0  0  0  0  0  0  0  0
  184.2960  174.8610  137.1020 C   0  0  0  0  0  1  0  0  0  0  0  0
  184.8130  178.2340  138.4060 C   0  0  0  0  0  0  0  0  0  0  0  0
  186.2700  178.2540  137.5520 S   0  0  0  0  0  0  0  0  0  0  0  0
  184.1410  177.0780  138.2030 N   0  0  0  0  0  0  0  0  0  0  0  0
  186.0120  176.7370  136.8830 C   0  0  0  0  0  0  0  0  0  0  0  0
  184.8030  176.2350  137.3670 C   0  0  0  0  0  0  0  0  0  0  0  0
  186.9680  176.0570  136.0630 N   0  0  0  0  0  2  0  0  0  0  0  0
  189.1510  175.5260  135.4710 O   0  0  0  0  0  0  0  0  0  0  0  0
  188.3560  175.8910  136.3750 C   0  0  0  0  0  0  0  0  0  0  0  0
  188.8680  176.0410  137.7770 C   0  0  0  0  0  2  0  0  0  0  0  0
  191.2530  176.6790  137.9250 C   0  0  0  0  0  1  0  0  0  0  0  0
  189.6000  177.9010  139.1060 O   0  0  0  0  0  1  0  0  0  0  0  0
  189.6930  178.0820  136.8440 F   0  0  0  0  0  0  0  0  0  0  0  0
  189.8360  177.2140  137.9130 C   0  0  2  0  0  0  0  0  0  0  0  0
  185.6060  179.3380  141.8230 N   0  0  0  0  0  2  0  0  0  0  0  0
  186.6510  178.3900  141.4650 C   0  0  0  0  0  2  0  0  0  0  0  0
  188.6110  177.5630  147.7310 C   0  0  0  0  0  3  0  0  0  0  0  0
  189.5700  176.4750  144.3420 O   0  0  0  0  0  0  0  0  0  0  0  0
  189.3460  177.0590  146.6550 C   0  0  0  0  0  3  0  0  0  0  0  0
  186.8990  177.7470  143.8730 O   0  0  0  0  0  0  0  0  0  0  0  0
  187.3330  178.0750  147.5220 C   0  0  0  0  0  3  0  0  0  0  0  0
  190.0840  178.0700  142.6140 C   0  0  0  0  0  3  0  0  0  0  0  0
  187.5250  177.6310  145.1340 C   0  0  0  0  0  0  0  0  0  0  0  0
  188.7920  178.1730  142.5430 C   0  0  0  0  0  0  0  0  0  0  0  0
  188.8160  177.0700  145.3580 C   0  0  0  0  0  0  0  0  0  0  0  0
  190.6310  177.1860  143.6930 C   0  0  0  0  0  2  0  0  0  0  0  0
  186.7970  178.1050  146.2340 C   0  0  0  0  0  3  0  0  0  0  0  0
  187.5010  178.1140  142.6550 C   0  0  0  0  0  0  0  0  0  0  0  0
  1  3  1  0  0  0  0
  2  1  2  0  0  0  0
  2  6  1  0  0  0  0
  3 24  1  0  0  0  0
  3  7  2  0  0  0  0
  5  7  1  0  0  0  0
  6  5  2  0  0  0  0
  7  4  1  0  0  0  0
  8  1  1  0  0  0  0
  9  8  2  0  0  0  0
 10 15  1  0  0  0  0
 11  8  1  0  0  0  0
 12 11  1  0  0  0  0
 13 11  2  0  0  0  0
 14 15  2  0  0  0  0
 14 12  1  0  0  0  0
 15 13  1  0  0  0  0
 16 18  1  0  0  0  0
 16 14  1  0  0  0  0
 17 18  2  0  0  0  0
 18 19  1  0  0  0  0
 19 23  1  0  0  0  0
 22 23  1  0  0  0  0
 23 20  1  1  0  0  0
 23 21  1  0  0  0  0
 25 24  1  0  0  0  0
 25 37  1  0  0  0  0
 27 34  1  0  0  0  0
 28 26  2  0  0  0  0
 29 32  1  0  0  0  0
 30 26  1  0  0  0  0
 31 35  1  0  0  0  0
 32 34  2  0  0  0  0
 32 36  1  0  0  0  0
 33 31  2  0  0  0  0
 33 37  2  0  0  0  0
 34 28  1  0  0  0  0
 35 27  1  0  0  0  0
 36 30  2  0  0  0  0
 37 29  1  0  0  0  0
M  END
>  <MODEL>
8

>  <REMARK>
 VINA RESULT:      -8.5      3.126      7.787
  Name = 
  8 active torsions:
  status: ('A' for Active; 'I' for Inactive)
    1  A    between atoms: C_1  and  C_3
    2  A    between atoms: C_3  and  C_8
    3  A    between atoms: C_7  and  N_23
    4  A    between atoms: N_11  and  C_25
    5  A    between atoms: C_18  and  C_30
    6  A    between atoms: N_23  and  C_27
    7  A    between atoms: C_27  and  C_37
    8  A    between atoms: C_28  and  C_30
                            x       y       z     vdW  Elec       q    Type
                         _______ _______ _______ _____ _____    ______ ____

>  <TORSDO>
F 8

$$$$
=
 OpenBabel10232411233D

 37 40  0  0  1  0  0  0  0  0999 V2000
  189.6420  177.5210  137.8640 C   0  0  0  0  0  0  0  0  0  0  0  0
  190.4900  176.8510  136.9750 C   0  0  0  0  0  3  0  0  0  0  0  0
  190.0380  177.6820  139.2130 C   0  0  0  0  0  0  0  0  0  0  0  0
  191.7700  177.3070  140.9500 N   0  0  0  0  0  1  0  0  0  0  0  0
  192.0870  176.5280  138.7110 N   0  0  0  0  0  0  0  0  0  0  0  0
  191.7150  176.3610  137.4170 C   0  0  0  0  0  3  0  0  0  0  0  0
  191.2960  177.1670  139.6140 C   0  0  0  0  0  0  0  0  0  0  0  0
  188.3240  178.0010  137.3790 C   0  0  0  0  0  0  0  0  0  0  0  0
  188.1850  179.2170  137.0770 O   0  0  0  0  0  0  0  0  0  0  0  0
  185.9510  173.6610  137.1020 C   0  0  0  0  0  1  0  0  0  0  0  0
  187.1570  177.1070  137.2480 C   0  0  0  0  0  0  0  0  0  0  0  0
  185.5520  177.5920  137.0460 S   0  0  0  0  0  0  0  0  0  0  0  0
  187.2590  175.7580  137.3030 N   0  0  0  0  0  0  0  0  0  0  0  0
  184.9720  176.0170  137.0530 C   0  0  0  0  0  0  0  0  0  0  0  0
  186.0520  175.1440  137.1850 C   0  0  0  0  0  0  0  0  0  0  0  0
  183.6010  175.6740  136.8240 N   0  0  0  0  0  2  0  0  0  0  0  0
  181.5580  174.8190  137.5260 O   0  0  0  0  0  0  0  0  0  0  0  0
  182.6430  175.3680  137.8450 C   0  0  0  0  0  0  0  0  0  0  0  0
  182.8580  175.7820  139.2700 C   0  0  0  0  0  2  0  0  0  0  0  0
  183.3480  177.9040  140.4440 C   0  0  0  0  0  1  0  0  0  0  0  0
  181.1120  177.1610  140.1720 O   0  0  0  0  0  1  0  0  0  0  0  0
  182.2510  177.9050  138.3540 F   0  0  0  0  0  0  0  0  0  0  0  0
  182.3570  177.1990  139.5400 C   0  0  2  0  0  0  0  0  0  0  0  0
  189.1670  178.3920  140.1110 N   0  0  0  0  0  2  0  0  0  0  0  0
  187.8310  177.9850  140.5240 C   0  0  0  0  0  2  0  0  0  0  0  0
  185.4130  178.4720  146.6640 C   0  0  0  0  0  3  0  0  0  0  0  0
  188.2540  176.9210  144.9010 O   0  0  0  0  0  0  0  0  0  0  0  0
  186.6460  177.8710  146.4020 C   0  0  0  0  0  3  0  0  0  0  0  0
  186.5000  177.8010  142.6370 O   0  0  0  0  0  0  0  0  0  0  0  0
  184.5610  178.8020  145.6130 C   0  0  0  0  0  3  0  0  0  0  0  0
  189.7780  178.2380  143.5830 C   0  0  0  0  0  3  0  0  0  0  0  0
  186.1940  177.9730  144.0050 C   0  0  0  0  0  0  0  0  0  0  0  0
  188.8180  178.1890  142.7100 C   0  0  0  0  0  0  0  0  0  0  0  0
  187.0450  177.6000  145.0870 C   0  0  0  0  0  0  0  0  0  0  0  0
  189.5050  177.6180  144.9190 C   0  0  0  0  0  2  0  0  0  0  0  0
  184.9510  178.5500  144.2960 C   0  0  0  0  0  3  0  0  0  0  0  0
  187.7410  178.0130  142.0090 C   0  0  0  0  0  0  0  0  0  0  0  0
  1  3  1  0  0  0  0
  2  6  1  0  0  0  0
  2  1  2  0  0  0  0
  3  7  2  0  0  0  0
  3 24  1  0  0  0  0
  5  7  1  0  0  0  0
  6  5  2  0  0  0  0
  7  4  1  0  0  0  0
  8  1  1  0  0  0  0
  9  8  2  0  0  0  0
 10 15  1  0  0  0  0
 11 13  2  0  0  0  0
 11  8  1  0  0  0  0
 12 14  1  0  0  0  0
 12 11  1  0  0  0  0
 14 15  2  0  0  0  0
 15 13  1  0  0  0  0
 16 14  1  0  0  0  0
 16 18  1  0  0  0  0
 17 18  2  0  0  0  0
 18 19  1  0  0  0  0
 19 23  1  0  0  0  0
 22 23  1  0  0  0  0
 23 21  1  0  0  0  0
 23 20  1  1  0  0  0
 24 25  1  0  0  0  0
 25 37  1  0  0  0  0
 27 35  1  0  0  0  0
 27 34  1  0  0  0  0
 28 26  1  0  0  0  0
 29 32  1  0  0  0  0
 30 26  2  0  0  0  0
 31 35  1  0  0  0  0
 32 36  2  0  0  0  0
 32 34  1  0  0  0  0
 33 31  2  0  0  0  0
 34 28  2  0  0  0  0
 36 30  1  0  0  0  0
 37 29  1  0  0  0  0
 37 33  2  0  0  0  0
M  END
>  <MODEL>
9

>  <REMARK>
 VINA RESULT:      -8.4      3.109      6.695
  Name = 
  8 active torsions:
  status: ('A' for Active; 'I' for Inactive)
    1  A    between atoms: C_1  and  C_3
    2  A    between atoms: C_3  and  C_8
    3  A    between atoms: C_7  and  N_23
    4  A    between atoms: N_11  and  C_25
    5  A    between atoms: C_18  and  C_30
    6  A    between atoms: N_23  and  C_27
    7  A    between atoms: C_27  and  C_37
    8  A    between atoms: C_28  and  C_30
                            x       y       z     vdW  Elec       q    Type
                         _______ _______ _______ _____ _____    ______ ____

>  <TORSDO>
F 8

$$$$
