=
 OpenBabel10232410453D

 35 38  0  0  1  0  0  0  0  0999 V2000
  189.2460  176.6920  141.7170 N   0  0  0  0  0  0  0  0  0  0  0  0
  187.8040  178.3130  142.8370 C   0  0  0  0  0  3  0  0  0  0  0  0
  186.9160  178.5340  141.7270 N   0  0  0  0  0  0  0  0  0  0  0  0
  188.6440  178.3380  140.0210 C   0  0  1  0  0  3  0  0  0  0  0  0
  186.1910  178.7190  139.4870 N   0  0  0  0  0  2  0  0  0  0  0  0
  188.8950  177.5240  142.8380 C   0  0  0  0  0  0  0  0  0  0  0  0
  187.2200  178.5150  140.4620 C   0  0  0  0  0  0  0  0  0  0  0  0
  189.1340  177.0030  140.4630 C   0  0  0  0  0  3  0  0  0  0  0  0
  191.0800  177.2370  144.1440 C   0  0  0  0  0  0  0  0  0  0  0  0
  191.6720  176.7930  147.7360 N   0  0  0  0  0  1  0  0  0  0  0  0
  188.9740  177.2320  145.2610 N   0  0  0  0  0  0  0  0  0  0  0  0
  188.7670  176.9570  147.6960 C   0  0  0  0  0  1  0  0  0  0  0  0
  189.5900  177.0570  146.4570 C   0  0  0  0  0  0  0  0  0  0  0  0
  191.6910  177.0620  145.3460 N   0  0  0  0  0  0  0  0  0  0  0  0
  189.6680  177.3360  144.0930 C   0  0  0  0  0  0  0  0  0  0  0  0
  190.9850  176.9760  146.5020 C   0  0  0  0  0  0  0  0  0  0  0  0
  191.8800  177.2700  142.9660 N   0  0  0  0  0  1  0  0  0  0  0  0
  188.8150  178.4920  138.5120 C   0  0  0  0  0  2  0  0  0  0  0  0
  189.4000  176.7510  136.8650 C   0  0  0  0  0  3  0  0  0  0  0  0
  189.7270  177.4450  137.9600 C   0  0  0  0  0  3  0  0  0  0  0  0
  191.7170  176.1660  136.1840 C   0  0  0  0  0  2  0  0  0  0  0  0
  190.3250  174.4550  137.1730 C   0  0  0  0  0  2  0  0  0  0  0  0
  190.2890  175.6880  136.2880 C   0  0  1  0  0  3  0  0  0  0  0  0
  192.5350  175.1040  136.8850 C   0  0  2  0  0  3  0  0  0  0  0  0
  191.6480  174.3730  137.7770 N   0  0  0  0  0  2  0  0  0  0  0  0
  193.4220  176.7430  138.3670 O   0  0  0  0  0  1  0  0  0  0  0  0
  194.9270  175.1870  137.6110 O   0  0  0  0  0  0  0  0  0  0  0  0
  193.6470  175.7270  137.6580 C   0  0  0  0  0  0  0  0  0  0  0  0
  184.7980  178.9260  139.8500 C   0  0  0  0  0  2  0  0  0  0  0  0
  182.9530  176.0560  137.8800 C   0  0  0  0  0  3  0  0  0  0  0  0
  184.1890  177.1920  137.7290 S   0  0  0  0  0  0  0  0  0  0  0  0
  183.9640  177.8490  139.2540 C   0  0  0  0  0  0  0  0  0  0  0  0
  182.4130  176.2410  139.1520 C   0  0  0  0  0  0  0  0  0  0  0  0
  181.3390  175.4450  139.6380 N   0  0  0  0  0  1  0  0  0  0  0  0
  182.9710  177.2210  139.9140 N   0  0  0  0  0  0  0  0  0  0  0  0
  1  6  1  0  0  0  0
  2  6  2  0  0  0  0
  3  2  1  0  0  0  0
  4 18  1  6  0  0  0
  4  7  1  0  0  0  0
  4  8  1  0  0  0  0
  5 29  1  0  0  0  0
  5  7  1  0  0  0  0
  6 15  1  0  0  0  0
  7  3  2  0  0  0  0
  8  1  2  0  0  0  0
  9 14  1  0  0  0  0
 11 13  2  0  0  0  0
 13 16  1  0  0  0  0
 13 12  1  0  0  0  0
 14 16  2  0  0  0  0
 15  9  2  0  0  0  0
 15 11  1  0  0  0  0
 16 10  1  0  0  0  0
 17  9  1  0  0  0  0
 19 20  2  0  0  0  0
 20 18  1  0  0  0  0
 21 23  1  0  0  0  0
 21 24  1  0  0  0  0
 22 25  1  0  0  0  0
 23 19  1  1  0  0  0
 23 22  1  0  0  0  0
 24 28  1  1  0  0  0
 24 25  1  0  0  0  0
 27 28  2  0  0  0  0
 28 26  1  0  0  0  0
 30 33  2  0  0  0  0
 31 30  1  0  0  0  0
 31 32  1  0  0  0  0
 32 29  1  0  0  0  0
 32 35  2  0  0  0  0
 33 34  1  0  0  0  0
 33 35  1  0  0  0  0
M  END
>  <MODEL>
1

>  <REMARK>
 VINA RESULT:      -8.3      0.000      0.000
  Name = 
  7 active torsions:
  status: ('A' for Active; 'I' for Inactive)
    1  A    between atoms: C_10  and  CA_25
    2  A    between atoms: C_11  and  C_13
    3  A    between atoms: C_11  and  C_20
    4  A    between atoms: C_15  and  C_19
    5  A    between atoms: C_16  and  C_24
    6  A    between atoms: N_17  and  C_19
    7  A    between atoms: C_22  and  C_31
                            x       y       z     vdW  Elec       q    Type
                         _______ _______ _______ _____ _____    ______ ____

>  <TORSDO>
F 7

$$$$
=
 OpenBabel10232410453D

 35 38  0  0  1  0  0  0  0  0999 V2000
  189.3970  176.6850  141.6940 N   0  0  0  0  0  0  0  0  0  0  0  0
  187.8690  178.2540  142.7720 C   0  0  0  0  0  3  0  0  0  0  0  0
  187.0110  178.4530  141.6360 N   0  0  0  0  0  0  0  0  0  0  0  0
  188.7960  178.3190  139.9850 C   0  0  1  0  0  3  0  0  0  0  0  0
  186.3510  178.6240  139.3750 N   0  0  0  0  0  2  0  0  0  0  0  0
  188.9840  177.5010  142.8060 C   0  0  0  0  0  0  0  0  0  0  0  0
  187.3550  178.4480  140.3810 C   0  0  0  0  0  0  0  0  0  0  0  0
  189.3140  176.9970  140.4380 C   0  0  0  0  0  3  0  0  0  0  0  0
  191.1330  177.2420  144.1760 C   0  0  0  0  0  0  0  0  0  0  0  0
  191.6260  176.8430  147.7890 N   0  0  0  0  0  1  0  0  0  0  0  0
  188.9960  177.2370  145.2330 N   0  0  0  0  0  0  0  0  0  0  0  0
  188.7220  176.9880  147.6650 C   0  0  0  0  0  1  0  0  0  0  0  0
  189.5790  177.0790  146.4480 C   0  0  0  0  0  0  0  0  0  0  0  0
  191.7100  177.0850  145.3960 N   0  0  0  0  0  0  0  0  0  0  0  0
  189.7230  177.3320  144.0840 C   0  0  0  0  0  0  0  0  0  0  0  0
  190.9720  177.0080  146.5330 C   0  0  0  0  0  0  0  0  0  0  0  0
  191.9660  177.2680  143.0210 N   0  0  0  0  0  1  0  0  0  0  0  0
  189.0100  178.4840  138.4820 C   0  0  0  0  0  2  0  0  0  0  0  0
  189.6490  176.8240  136.7720 C   0  0  0  0  0  3  0  0  0  0  0  0
  189.9080  177.4180  137.9420 C   0  0  0  0  0  3  0  0  0  0  0  0
  191.9760  176.1660  136.1990 C   0  0  0  0  0  2  0  0  0  0  0  0
  190.4600  174.4800  137.0390 C   0  0  0  0  0  2  0  0  0  0  0  0
  190.5260  175.7460  136.2040 C   0  0  1  0  0  3  0  0  0  0  0  0
  192.7080  175.0440  136.9010 C   0  0  2  0  0  3  0  0  0  0  0  0
  191.7420  174.3180  137.7130 N   0  0  0  0  0  2  0  0  0  0  0  0
  194.9560  175.1020  137.6830 O   0  0  0  0  0  0  0  0  0  0  0  0
  193.5470  176.6390  138.6360 O   0  0  0  0  0  1  0  0  0  0  0  0
  193.7980  175.5890  137.7600 C   0  0  0  0  0  0  0  0  0  0  0  0
  184.9410  178.7860  139.6930 C   0  0  0  0  0  2  0  0  0  0  0  0
  182.3540  177.6400  136.9520 C   0  0  0  0  0  3  0  0  0  0  0  0
  182.4590  178.4460  138.4280 S   0  0  0  0  0  0  0  0  0  0  0  0
  184.1150  178.2410  138.5830 C   0  0  0  0  0  0  0  0  0  0  0  0
  183.6530  177.2460  136.6350 C   0  0  0  0  0  0  0  0  0  0  0  0
  183.9550  176.5370  135.4400 N   0  0  0  0  0  1  0  0  0  0  0  0
  184.6260  177.5810  137.5250 N   0  0  0  0  0  0  0  0  0  0  0  0
  1  6  1  0  0  0  0
  2  6  2  0  0  0  0
  3  2  1  0  0  0  0
  4 18  1  6  0  0  0
  4  7  1  0  0  0  0
  4  8  1  0  0  0  0
  5 29  1  0  0  0  0
  5  7  1  0  0  0  0
  6 15  1  0  0  0  0
  7  3  2  0  0  0  0
  8  1  2  0  0  0  0
  9 14  1  0  0  0  0
 11 13  2  0  0  0  0
 13 16  1  0  0  0  0
 13 12  1  0  0  0  0
 14 16  2  0  0  0  0
 15  9  2  0  0  0  0
 15 11  1  0  0  0  0
 16 10  1  0  0  0  0
 17  9  1  0  0  0  0
 19 20  2  0  0  0  0
 20 18  1  0  0  0  0
 21 23  1  0  0  0  0
 21 24  1  0  0  0  0
 22 25  1  0  0  0  0
 23 19  1  1  0  0  0
 23 22  1  0  0  0  0
 24 25  1  0  0  0  0
 24 28  1  1  0  0  0
 26 28  2  0  0  0  0
 28 27  1  0  0  0  0
 30 31  1  0  0  0  0
 31 32  1  0  0  0  0
 32 29  1  0  0  0  0
 33 30  2  0  0  0  0
 33 35  1  0  0  0  0
 34 33  1  0  0  0  0
 35 32  2  0  0  0  0
M  END
>  <MODEL>
2

>  <REMARK>
 VINA RESULT:      -8.2      1.136      1.350
  Name = 
  7 active torsions:
  status: ('A' for Active; 'I' for Inactive)
    1  A    between atoms: C_10  and  CA_25
    2  A    between atoms: C_11  and  C_13
    3  A    between atoms: C_11  and  C_20
    4  A    between atoms: C_15  and  C_19
    5  A    between atoms: C_16  and  C_24
    6  A    between atoms: N_17  and  C_19
    7  A    between atoms: C_22  and  C_31
                            x       y       z     vdW  Elec       q    Type
                         _______ _______ _______ _____ _____    ______ ____

>  <TORSDO>
F 7

$$$$
=
 OpenBabel10232410453D

 35 38  0  0  1  0  0  0  0  0999 V2000
  188.2920  178.5410  140.6820 N   0  0  0  0  0  0  0  0  0  0  0  0
  189.6180  176.6560  141.4870 C   0  0  0  0  0  3  0  0  0  0  0  0
  190.3940  176.4790  140.2890 N   0  0  0  0  0  0  0  0  0  0  0  0
  188.5830  177.0580  138.7670 C   0  0  1  0  0  3  0  0  0  0  0  0
  190.9320  176.4920  137.9900 N   0  0  0  0  0  2  0  0  0  0  0  0
  188.6260  177.5470  141.6690 C   0  0  0  0  0  0  0  0  0  0  0  0
  190.0050  176.6820  139.0650 C   0  0  0  0  0  0  0  0  0  0  0  0
  188.2790  178.3740  139.3960 C   0  0  0  0  0  3  0  0  0  0  0  0
  186.5880  177.9130  143.1780 C   0  0  0  0  0  0  0  0  0  0  0  0
  186.3040  177.9630  146.8340 N   0  0  0  0  0  1  0  0  0  0  0  0
  188.7510  177.5380  144.1070 N   0  0  0  0  0  0  0  0  0  0  0  0
  189.1580  177.4780  146.5320 C   0  0  0  0  0  1  0  0  0  0  0  0
  188.2450  177.6290  145.3630 C   0  0  0  0  0  0  0  0  0  0  0  0
  186.0880  178.0030  144.4380 N   0  0  0  0  0  0  0  0  0  0  0  0
  187.9700  177.6610  142.9970 C   0  0  0  0  0  0  0  0  0  0  0  0
  186.8770  177.8600  145.5330 C   0  0  0  0  0  0  0  0  0  0  0  0
  185.7100  178.1190  142.0740 N   0  0  0  0  0  1  0  0  0  0  0  0
  188.2890  177.1060  137.2690 C   0  0  0  0  0  2  0  0  0  0  0  0
  185.8630  177.0630  136.8200 C   0  0  0  0  0  3  0  0  0  0  0  0
  187.0150  176.3950  136.9440 C   0  0  0  0  0  3  0  0  0  0  0  0
  184.7850  174.9350  136.1230 C   0  0  0  0  0  2  0  0  0  0  0  0
  183.6380  176.3610  137.7030 C   0  0  0  0  0  2  0  0  0  0  0  0
  184.5650  176.3800  136.5000 C   0  0  1  0  0  3  0  0  0  0  0  0
  183.8570  174.1520  137.0240 C   0  0  2  0  0  3  0  0  0  0  0  0
  183.5410  174.9860  138.1740 N   0  0  0  0  0  2  0  0  0  0  0  0
  185.6200  172.9270  138.0540 O   0  0  0  0  0  1  0  0  0  0  0  0
  183.8850  171.6610  137.2500 O   0  0  0  0  0  0  0  0  0  0  0  0
  184.5070  172.8850  137.4680 C   0  0  0  0  0  0  0  0  0  0  0  0
  192.3160  176.0990  138.2090 C   0  0  0  0  0  2  0  0  0  0  0  0
  193.8460  176.1190  134.5790 C   0  0  0  0  0  3  0  0  0  0  0  0
  192.5170  175.5720  135.4600 S   0  0  0  0  0  0  0  0  0  0  0  0
  193.0630  176.1740  136.9260 C   0  0  0  0  0  0  0  0  0  0  0  0
  194.6710  176.7720  135.4930 C   0  0  0  0  0  0  0  0  0  0  0  0
  195.8990  177.3760  135.1020 N   0  0  0  0  0  1  0  0  0  0  0  0
  194.2410  176.8120  136.7820 N   0  0  0  0  0  0  0  0  0  0  0  0
  1  6  1  0  0  0  0
  2  6  2  0  0  0  0
  3  2  1  0  0  0  0
  4 18  1  6  0  0  0
  4  7  1  0  0  0  0
  4  8  1  0  0  0  0
  5 29  1  0  0  0  0
  5  7  1  0  0  0  0
  6 15  1  0  0  0  0
  7  3  2  0  0  0  0
  8  1  2  0  0  0  0
  9 14  1  0  0  0  0
 11 13  2  0  0  0  0
 13 16  1  0  0  0  0
 13 12  1  0  0  0  0
 14 16  2  0  0  0  0
 15  9  2  0  0  0  0
 15 11  1  0  0  0  0
 16 10  1  0  0  0  0
 17  9  1  0  0  0  0
 19 20  2  0  0  0  0
 20 18  1  0  0  0  0
 21 23  1  0  0  0  0
 21 24  1  0  0  0  0
 22 25  1  0  0  0  0
 23 19  1  1  0  0  0
 23 22  1  0  0  0  0
 24 28  1  1  0  0  0
 24 25  1  0  0  0  0
 27 28  2  0  0  0  0
 28 26  1  0  0  0  0
 30 31  1  0  0  0  0
 30 33  2  0  0  0  0
 31 32  1  0  0  0  0
 32 29  1  0  0  0  0
 33 35  1  0  0  0  0
 34 33  1  0  0  0  0
 35 32  2  0  0  0  0
M  END
>  <MODEL>
3

>  <REMARK>
 VINA RESULT:      -7.9      3.570      7.053
  Name = 
  7 active torsions:
  status: ('A' for Active; 'I' for Inactive)
    1  A    between atoms: C_10  and  CA_25
    2  A    between atoms: C_11  and  C_13
    3  A    between atoms: C_11  and  C_20
    4  A    between atoms: C_15  and  C_19
    5  A    between atoms: C_16  and  C_24
    6  A    between atoms: N_17  and  C_19
    7  A    between atoms: C_22  and  C_31
                            x       y       z     vdW  Elec       q    Type
                         _______ _______ _______ _____ _____    ______ ____

>  <TORSDO>
F 7

$$$$
=
 OpenBabel10232410453D

 35 38  0  0  1  0  0  0  0  0999 V2000
  189.4580  176.7310  141.5920 N   0  0  0  0  0  0  0  0  0  0  0  0
  187.8730  178.2220  142.6990 C   0  0  0  0  0  3  0  0  0  0  0  0
  187.0190  178.4260  141.5600 N   0  0  0  0  0  0  0  0  0  0  0  0
  188.8240  178.3940  139.9240 C   0  0  1  0  0  3  0  0  0  0  0  0
  186.3760  178.6430  139.2980 N   0  0  0  0  0  2  0  0  0  0  0  0
  189.0100  177.5020  142.7230 C   0  0  0  0  0  0  0  0  0  0  0  0
  187.3750  178.4690  140.3090 C   0  0  0  0  0  0  0  0  0  0  0  0
  189.3780  177.0770  140.3450 C   0  0  0  0  0  3  0  0  0  0  0  0
  191.1490  177.1960  144.0990 C   0  0  0  0  0  0  0  0  0  0  0  0
  191.6240  176.7950  147.7130 N   0  0  0  0  0  1  0  0  0  0  0  0
  189.0100  177.2440  145.1500 N   0  0  0  0  0  0  0  0  0  0  0  0
  188.7240  177.0090  147.5820 C   0  0  0  0  0  1  0  0  0  0  0  0
  189.5860  177.0760  146.3670 C   0  0  0  0  0  0  0  0  0  0  0  0
  191.7200  177.0280  145.3210 N   0  0  0  0  0  0  0  0  0  0  0  0
  189.7420  177.3190  144.0030 C   0  0  0  0  0  0  0  0  0  0  0  0
  190.9780  176.9720  146.4560 C   0  0  0  0  0  0  0  0  0  0  0  0
  191.9850  177.1980  142.9450 N   0  0  0  0  0  1  0  0  0  0  0  0
  189.0470  178.6090  138.4290 C   0  0  0  0  0  2  0  0  0  0  0  0
  189.5140  177.2740  136.4080 C   0  0  0  0  0  3  0  0  0  0  0  0
  189.3060  177.3150  137.7280 C   0  0  0  0  0  3  0  0  0  0  0  0
  189.5980  174.7960  136.5770 C   0  0  0  0  0  2  0  0  0  0  0  0
  188.7840  175.7980  134.5330 C   0  0  0  0  0  2  0  0  0  0  0  0
  189.7710  175.9910  135.6710 C   0  0  1  0  0  3  0  0  0  0  0  0
  188.6330  173.8900  135.8470 C   0  0  2  0  0  3  0  0  0  0  0  0
  187.8950  174.7020  134.8900 N   0  0  0  0  0  2  0  0  0  0  0  0
  187.9360  172.0830  137.2320 O   0  0  0  0  0  0  0  0  0  0  0  0
  186.5610  173.9180  137.2480 O   0  0  0  0  0  1  0  0  0  0  0  0
  187.6940  173.2440  136.8080 C   0  0  0  0  0  0  0  0  0  0  0  0
  184.9590  178.7520  139.6070 C   0  0  0  0  0  2  0  0  0  0  0  0
  182.4530  177.5660  136.8080 C   0  0  0  0  0  3  0  0  0  0  0  0
  182.5260  178.4530  138.2390 S   0  0  0  0  0  0  0  0  0  0  0  0
  184.1610  178.1810  138.4890 C   0  0  0  0  0  0  0  0  0  0  0  0
  183.7450  177.0940  136.5800 C   0  0  0  0  0  0  0  0  0  0  0  0
  184.0690  176.3010  135.4440 N   0  0  0  0  0  1  0  0  0  0  0  0
  184.6890  177.4370  137.4980 N   0  0  0  0  0  0  0  0  0  0  0  0
  1  6  1  0  0  0  0
  2  6  2  0  0  0  0
  3  2  1  0  0  0  0
  4 18  1  6  0  0  0
  4  7  1  0  0  0  0
  4  8  1  0  0  0  0
  5 29  1  0  0  0  0
  5  7  1  0  0  0  0
  6 15  1  0  0  0  0
  7  3  2  0  0  0  0
  8  1  2  0  0  0  0
  9 14  1  0  0  0  0
 11 13  2  0  0  0  0
 13 16  1  0  0  0  0
 13 12  1  0  0  0  0
 14 16  2  0  0  0  0
 15  9  2  0  0  0  0
 15 11  1  0  0  0  0
 16 10  1  0  0  0  0
 17  9  1  0  0  0  0
 19 20  2  0  0  0  0
 20 18  1  0  0  0  0
 22 25  1  0  0  0  0
 22 23  1  0  0  0  0
 23 19  1  1  0  0  0
 23 21  1  0  0  0  0
 24 21  1  0  0  0  0
 24 28  1  1  0  0  0
 25 24  1  0  0  0  0
 28 26  2  0  0  0  0
 28 27  1  0  0  0  0
 30 31  1  0  0  0  0
 31 32  1  0  0  0  0
 32 29  1  0  0  0  0
 33 30  2  0  0  0  0
 33 35  1  0  0  0  0
 34 33  1  0  0  0  0
 35 32  2  0  0  0  0
M  END
>  <MODEL>
4

>  <REMARK>
 VINA RESULT:      -7.6      2.469      2.829
  Name = 
  7 active torsions:
  status: ('A' for Active; 'I' for Inactive)
    1  A    between atoms: C_10  and  CA_25
    2  A    between atoms: C_11  and  C_13
    3  A    between atoms: C_11  and  C_20
    4  A    between atoms: C_15  and  C_19
    5  A    between atoms: C_16  and  C_24
    6  A    between atoms: N_17  and  C_19
    7  A    between atoms: C_22  and  C_31
                            x       y       z     vdW  Elec       q    Type
                         _______ _______ _______ _____ _____    ______ ____

>  <TORSDO>
F 7

$$$$
=
 OpenBabel10232410453D

 35 38  0  0  1  0  0  0  0  0999 V2000
  188.7500  178.6960  141.8760 N   0  0  0  0  0  0  0  0  0  0  0  0
  189.8740  176.5310  141.9870 C   0  0  0  0  0  3  0  0  0  0  0  0
  190.3260  176.5130  140.6220 N   0  0  0  0  0  0  0  0  0  0  0  0
  188.3540  177.6230  139.7210 C   0  0  1  0  0  3  0  0  0  0  0  0
  190.3430  176.9390  138.2990 N   0  0  0  0  0  2  0  0  0  0  0  0
  189.1150  177.4840  142.5610 C   0  0  0  0  0  0  0  0  0  0  0  0
  189.7200  177.0160  139.5870 C   0  0  0  0  0  0  0  0  0  0  0  0
  188.4280  178.8050  140.6250 C   0  0  0  0  0  3  0  0  0  0  0  0
  187.4900  177.5390  144.5410 C   0  0  0  0  0  0  0  0  0  0  0  0
  188.0950  177.1420  148.1360 N   0  0  0  0  0  1  0  0  0  0  0  0
  189.8240  177.1960  144.8790 N   0  0  0  0  0  0  0  0  0  0  0  0
  190.8060  176.8780  147.1120 C   0  0  0  0  0  1  0  0  0  0  0  0
  189.6340  177.1060  146.2200 C   0  0  0  0  0  0  0  0  0  0  0  0
  187.3050  177.4480  145.8840 N   0  0  0  0  0  0  0  0  0  0  0  0
  188.7950  177.3990  144.0100 C   0  0  0  0  0  0  0  0  0  0  0  0
  188.3400  177.2290  146.7350 C   0  0  0  0  0  0  0  0  0  0  0  0
  186.3660  177.8170  143.7110 N   0  0  0  0  0  1  0  0  0  0  0  0
  187.7530  178.0210  138.3760 C   0  0  0  0  0  2  0  0  0  0  0  0
  185.3590  178.3580  138.8710 C   0  0  0  0  0  3  0  0  0  0  0  0
  186.3140  177.6260  138.2870 C   0  0  0  0  0  3  0  0  0  0  0  0
  183.4000  177.5240  140.1530 C   0  0  0  0  0  2  0  0  0  0  0  0
  183.0460  179.1780  138.4260 C   0  0  0  0  0  2  0  0  0  0  0  0
  183.9060  177.9870  138.8080 C   0  0  1  0  0  3  0  0  0  0  0  0
  182.1740  178.3680  140.4180 C   0  0  2  0  0  3  0  0  0  0  0  0
  182.2660  179.5640  139.5940 N   0  0  0  0  0  2  0  0  0  0  0  0
  180.9810  178.9920  142.3820 O   0  0  0  0  0  0  0  0  0  0  0  0
  183.2520  178.7970  142.6350 O   0  0  0  0  0  1  0  0  0  0  0  0
  182.0980  178.7400  141.8600 C   0  0  0  0  0  0  0  0  0  0  0  0
  191.6510  176.3360  138.0960 C   0  0  0  0  0  2  0  0  0  0  0  0
  191.7860  172.9620  136.0690 C   0  0  0  0  0  3  0  0  0  0  0  0
  192.7730  174.1020  136.8210 S   0  0  0  0  0  0  0  0  0  0  0  0
  191.5070  175.0960  137.2900 C   0  0  0  0  0  0  0  0  0  0  0  0
  190.4790  173.4170  136.2300 C   0  0  0  0  0  0  0  0  0  0  0  0
  189.3620  172.6970  135.7220 N   0  0  0  0  0  1  0  0  0  0  0  0
  190.3200  174.5860  136.9080 N   0  0  0  0  0  0  0  0  0  0  0  0
  1  6  1  0  0  0  0
  2  6  2  0  0  0  0
  3  2  1  0  0  0  0
  4 18  1  6  0  0  0
  4  8  1  0  0  0  0
  5  7  1  0  0  0  0
  6 15  1  0  0  0  0
  7  4  1  0  0  0  0
  7  3  2  0  0  0  0
  8  1  2  0  0  0  0
  9 14  1  0  0  0  0
 11 13  2  0  0  0  0
 13 16  1  0  0  0  0
 13 12  1  0  0  0  0
 14 16  2  0  0  0  0
 15  9  2  0  0  0  0
 15 11  1  0  0  0  0
 16 10  1  0  0  0  0
 17  9  1  0  0  0  0
 20 18  1  0  0  0  0
 20 19  2  0  0  0  0
 21 24  1  0  0  0  0
 22 23  1  0  0  0  0
 22 25  1  0  0  0  0
 23 19  1  1  0  0  0
 23 21  1  0  0  0  0
 24 28  1  1  0  0  0
 25 24  1  0  0  0  0
 28 26  2  0  0  0  0
 28 27  1  0  0  0  0
 29  5  1  0  0  0  0
 30 33  2  0  0  0  0
 30 31  1  0  0  0  0
 31 32  1  0  0  0  0
 32 29  1  0  0  0  0
 33 35  1  0  0  0  0
 34 33  1  0  0  0  0
 35 32  2  0  0  0  0
M  END
>  <MODEL>
5

>  <REMARK>
 VINA RESULT:      -7.4      3.785      6.981
  Name = 
  7 active torsions:
  status: ('A' for Active; 'I' for Inactive)
    1  A    between atoms: C_10  and  CA_25
    2  A    between atoms: C_11  and  C_13
    3  A    between atoms: C_11  and  C_20
    4  A    between atoms: C_15  and  C_19
    5  A    between atoms: C_16  and  C_24
    6  A    between atoms: N_17  and  C_19
    7  A    between atoms: C_22  and  C_31
                            x       y       z     vdW  Elec       q    Type
                         _______ _______ _______ _____ _____    ______ ____

>  <TORSDO>
F 7

$$$$
=
 OpenBabel10232410453D

 35 38  0  0  1  0  0  0  0  0999 V2000
  188.6900  178.5160  141.3450 N   0  0  0  0  0  0  0  0  0  0  0  0
  190.0120  176.5490  141.9330 C   0  0  0  0  0  3  0  0  0  0  0  0
  190.6640  176.4040  140.6590 N   0  0  0  0  0  0  0  0  0  0  0  0
  188.7420  177.1180  139.3460 C   0  0  1  0  0  3  0  0  0  0  0  0
  190.9830  176.5100  138.3220 N   0  0  0  0  0  2  0  0  0  0  0  0
  189.0770  177.4640  142.2490 C   0  0  0  0  0  0  0  0  0  0  0  0
  190.1700  176.6800  139.4880 C   0  0  0  0  0  0  0  0  0  0  0  0
  188.5500  178.4110  140.0600 C   0  0  0  0  0  3  0  0  0  0  0  0
  187.1930  177.7570  143.9600 C   0  0  0  0  0  0  0  0  0  0  0  0
  187.2730  177.7210  147.6260 N   0  0  0  0  0  1  0  0  0  0  0  0
  189.4440  177.4040  144.6620 N   0  0  0  0  0  0  0  0  0  0  0  0
  190.0900  177.2990  147.0330 C   0  0  0  0  0  1  0  0  0  0  0  0
  189.0630  177.4570  145.9640 C   0  0  0  0  0  0  0  0  0  0  0  0
  186.8190  177.8090  145.2650 N   0  0  0  0  0  0  0  0  0  0  0  0
  188.5540  177.5360  143.6380 C   0  0  0  0  0  0  0  0  0  0  0  0
  187.7150  177.6580  146.2730 C   0  0  0  0  0  0  0  0  0  0  0  0
  186.2070  177.9700  142.9540 N   0  0  0  0  0  1  0  0  0  0  0  0
  188.3090  177.2490  137.8870 C   0  0  0  0  0  2  0  0  0  0  0  0
  185.8500  177.4230  137.7980 C   0  0  0  0  0  3  0  0  0  0  0  0
  187.0410  178.0300  137.7660 C   0  0  0  0  0  3  0  0  0  0  0  0
  183.3730  177.2420  137.7140 C   0  0  0  0  0  2  0  0  0  0  0  0
  184.3660  179.1440  138.8270 C   0  0  0  0  0  2  0  0  0  0  0  0
  184.5570  178.1770  137.6730 C   0  0  1  0  0  3  0  0  0  0  0  0
  182.4720  177.8020  138.7910 C   0  0  2  0  0  3  0  0  0  0  0  0
  183.2830  178.6410  139.6610 N   0  0  0  0  0  2  0  0  0  0  0  0
  180.7810  176.9110  140.2110 O   0  0  0  0  0  1  0  0  0  0  0  0
  182.4220  175.4340  139.5950 O   0  0  0  0  0  0  0  0  0  0  0  0
  181.8450  176.6990  139.5740 C   0  0  0  0  0  0  0  0  0  0  0  0
  192.3650  176.0590  138.3890 C   0  0  0  0  0  2  0  0  0  0  0  0
  193.5260  176.1530  134.6260 C   0  0  0  0  0  3  0  0  0  0  0  0
  192.2650  175.6350  135.6170 S   0  0  0  0  0  0  0  0  0  0  0  0
  192.9840  176.1510  137.0400 C   0  0  0  0  0  0  0  0  0  0  0  0
  194.4700  176.7290  135.4740 C   0  0  0  0  0  0  0  0  0  0  0  0
  195.6820  177.2890  134.9820 N   0  0  0  0  0  1  0  0  0  0  0  0
  194.1730  176.7370  136.8010 N   0  0  0  0  0  0  0  0  0  0  0  0
  1  6  1  0  0  0  0
  2  6  2  0  0  0  0
  3  2  1  0  0  0  0
  4 18  1  6  0  0  0
  4  7  1  0  0  0  0
  4  8  1  0  0  0  0
  5 29  1  0  0  0  0
  5  7  1  0  0  0  0
  6 15  1  0  0  0  0
  7  3  2  0  0  0  0
  8  1  2  0  0  0  0
  9 14  1  0  0  0  0
 11 13  2  0  0  0  0
 13 16  1  0  0  0  0
 13 12  1  0  0  0  0
 14 16  2  0  0  0  0
 15  9  2  0  0  0  0
 15 11  1  0  0  0  0
 16 10  1  0  0  0  0
 17  9  1  0  0  0  0
 20 19  2  0  0  0  0
 20 18  1  0  0  0  0
 21 24  1  0  0  0  0
 22 25  1  0  0  0  0
 23 21  1  0  0  0  0
 23 19  1  1  0  0  0
 23 22  1  0  0  0  0
 24 28  1  1  0  0  0
 24 25  1  0  0  0  0
 28 27  2  0  0  0  0
 28 26  1  0  0  0  0
 30 33  2  0  0  0  0
 30 31  1  0  0  0  0
 31 32  1  0  0  0  0
 32 29  1  0  0  0  0
 33 35  1  0  0  0  0
 34 33  1  0  0  0  0
 35 32  2  0  0  0  0
M  END
>  <MODEL>
6

>  <REMARK>
 VINA RESULT:      -7.4      3.729      7.434
  Name = 
  7 active torsions:
  status: ('A' for Active; 'I' for Inactive)
    1  A    between atoms: C_10  and  CA_25
    2  A    between atoms: C_11  and  C_13
    3  A    between atoms: C_11  and  C_20
    4  A    between atoms: C_15  and  C_19
    5  A    between atoms: C_16  and  C_24
    6  A    between atoms: N_17  and  C_19
    7  A    between atoms: C_22  and  C_31
                            x       y       z     vdW  Elec       q    Type
                         _______ _______ _______ _____ _____    ______ ____

>  <TORSDO>
F 7

$$$$
=
 OpenBabel10232410453D

 35 38  0  0  1  0  0  0  0  0999 V2000
  188.5200  178.4550  140.9970 N   0  0  0  0  0  0  0  0  0  0  0  0
  190.1280  176.7880  141.7660 C   0  0  0  0  0  3  0  0  0  0  0  0
  190.8680  176.6960  140.5370 N   0  0  0  0  0  0  0  0  0  0  0  0
  188.9300  176.9890  139.0910 C   0  0  1  0  0  3  0  0  0  0  0  0
  191.3000  176.7370  138.2150 N   0  0  0  0  0  2  0  0  0  0  0  0
  189.0310  177.5370  141.9810 C   0  0  0  0  0  0  0  0  0  0  0  0
  190.4020  176.8190  139.3290 C   0  0  0  0  0  0  0  0  0  0  0  0
  188.4750  178.2620  139.7150 C   0  0  0  0  0  3  0  0  0  0  0  0
  187.0450  177.8000  143.5780 C   0  0  0  0  0  0  0  0  0  0  0  0
  186.8990  177.7050  147.2410 N   0  0  0  0  0  1  0  0  0  0  0  0
  189.2490  177.4380  144.4100 N   0  0  0  0  0  0  0  0  0  0  0  0
  189.7490  177.2940  146.8150 C   0  0  0  0  0  1  0  0  0  0  0  0
  188.7890  177.4690  145.6870 C   0  0  0  0  0  0  0  0  0  0  0  0
  186.5910  177.8310  144.8580 N   0  0  0  0  0  0  0  0  0  0  0  0
  188.4230  177.5860  143.3360 C   0  0  0  0  0  0  0  0  0  0  0  0
  187.4240  177.6640  145.9170 C   0  0  0  0  0  0  0  0  0  0  0  0
  186.1220  178.0290  142.5170 N   0  0  0  0  0  1  0  0  0  0  0  0
  188.5670  176.9660  137.6080 C   0  0  0  0  0  2  0  0  0  0  0  0
  186.3750  176.9590  136.4760 C   0  0  0  0  0  3  0  0  0  0  0  0
  187.1890  176.4290  137.3950 C   0  0  0  0  0  3  0  0  0  0  0  0
  184.9870  174.9720  135.9270 C   0  0  0  0  0  2  0  0  0  0  0  0
  184.1180  176.6100  137.4770 C   0  0  0  0  0  2  0  0  0  0  0  0
  184.9830  176.4480  136.2410 C   0  0  1  0  0  3  0  0  0  0  0  0
  184.0030  174.3650  136.9010 C   0  0  2  0  0  3  0  0  0  0  0  0
  183.8540  175.2840  138.0200 N   0  0  0  0  0  2  0  0  0  0  0  0
  183.8230  172.0020  137.1420 O   0  0  0  0  0  0  0  0  0  0  0  0
  185.6900  172.9450  138.0820 O   0  0  0  0  0  1  0  0  0  0  0  0
  184.4920  173.0410  137.3820 C   0  0  0  0  0  0  0  0  0  0  0  0
  192.7320  176.5430  138.3760 C   0  0  0  0  0  2  0  0  0  0  0  0
  194.2600  173.2160  136.9210 C   0  0  0  0  0  3  0  0  0  0  0  0
  194.6620  174.5810  137.8240 S   0  0  0  0  0  0  0  0  0  0  0  0
  193.1390  175.2730  137.7190 C   0  0  0  0  0  0  0  0  0  0  0  0
  192.9160  173.3630  136.5780 C   0  0  0  0  0  0  0  0  0  0  0  0
  192.2230  172.3860  135.8110 N   0  0  0  0  0  1  0  0  0  0  0  0
  192.2940  174.4880  137.0210 N   0  0  0  0  0  0  0  0  0  0  0  0
  1  6  1  0  0  0  0
  2  6  2  0  0  0  0
  3  2  1  0  0  0  0
  4 18  1  6  0  0  0
  4  7  1  0  0  0  0
  4  8  1  0  0  0  0
  5 29  1  0  0  0  0
  5  7  1  0  0  0  0
  6 15  1  0  0  0  0
  7  3  2  0  0  0  0
  8  1  2  0  0  0  0
  9 14  1  0  0  0  0
 11 13  2  0  0  0  0
 13 16  1  0  0  0  0
 13 12  1  0  0  0  0
 14 16  2  0  0  0  0
 15  9  2  0  0  0  0
 15 11  1  0  0  0  0
 16 10  1  0  0  0  0
 17  9  1  0  0  0  0
 19 20  2  0  0  0  0
 20 18  1  0  0  0  0
 21 23  1  0  0  0  0
 21 24  1  0  0  0  0
 22 25  1  0  0  0  0
 23 19  1  1  0  0  0
 23 22  1  0  0  0  0
 24 28  1  1  0  0  0
 24 25  1  0  0  0  0
 26 28  2  0  0  0  0
 28 27  1  0  0  0  0
 30 31  1  0  0  0  0
 32 31  1  0  0  0  0
 32 29  1  0  0  0  0
 33 30  2  0  0  0  0
 33 35  1  0  0  0  0
 34 33  1  0  0  0  0
 35 32  2  0  0  0  0
M  END
>  <MODEL>
7

>  <REMARK>
 VINA RESULT:      -7.4      3.522      6.690
  Name = 
  7 active torsions:
  status: ('A' for Active; 'I' for Inactive)
    1  A    between atoms: C_10  and  CA_25
    2  A    between atoms: C_11  and  C_13
    3  A    between atoms: C_11  and  C_20
    4  A    between atoms: C_15  and  C_19
    5  A    between atoms: C_16  and  C_24
    6  A    between atoms: N_17  and  C_19
    7  A    between atoms: C_22  and  C_31
                            x       y       z     vdW  Elec       q    Type
                         _______ _______ _______ _____ _____    ______ ____

>  <TORSDO>
F 7

$$$$
=
 OpenBabel10232410453D

 35 38  0  0  1  0  0  0  0  0999 V2000
  189.3210  176.7770  139.2090 N   0  0  0  0  0  0  0  0  0  0  0  0
  191.1800  176.8240  140.7910 C   0  0  0  0  0  3  0  0  0  0  0  0
  190.3810  176.9800  141.9770 N   0  0  0  0  0  0  0  0  0  0  0  0
  188.7020  178.3970  140.9250 C   0  0  1  0  0  3  0  0  0  0  0  0
  188.5740  177.6420  143.3460 N   0  0  0  0  0  2  0  0  0  0  0  0
  190.7260  176.7830  139.5250 C   0  0  0  0  0  0  0  0  0  0  0  0
  189.2570  177.6260  142.0870 C   0  0  0  0  0  0  0  0  0  0  0  0
  188.3950  177.4560  139.8120 C   0  0  0  0  0  3  0  0  0  0  0  0
  193.0710  176.7610  138.4920 C   0  0  0  0  0  0  0  0  0  0  0  0
  194.1910  175.7920  135.1370 N   0  0  0  0  0  1  0  0  0  0  0  0
  191.1660  176.0880  137.2260 N   0  0  0  0  0  0  0  0  0  0  0  0
  191.3270  175.3410  134.8880 C   0  0  0  0  0  1  0  0  0  0  0  0
  191.9510  175.8360  136.1480 C   0  0  0  0  0  0  0  0  0  0  0  0
  193.8510  176.5060  137.4090 N   0  0  0  0  0  0  0  0  0  0  0  0
  191.6750  176.5360  138.4080 C   0  0  0  0  0  0  0  0  0  0  0  0
  193.3300  176.0440  136.2440 C   0  0  0  0  0  0  0  0  0  0  0  0
  193.6780  177.2890  139.6680 N   0  0  0  0  0  1  0  0  0  0  0  0
  187.4590  179.2030  141.2950 C   0  0  0  0  0  2  0  0  0  0  0  0
  185.1050  179.0480  140.5740 C   0  0  0  0  0  3  0  0  0  0  0  0
  186.2090  178.4340  141.0110 C   0  0  0  0  0  3  0  0  0  0  0  0
  183.0510  178.0460  141.5510 C   0  0  0  0  0  2  0  0  0  0  0  0
  182.9120  179.1150  139.3870 C   0  0  0  0  0  2  0  0  0  0  0  0
  183.8310  178.3070  140.2850 C   0  0  1  0  0  3  0  0  0  0  0  0
  181.6640  178.5800  141.2700 C   0  0  2  0  0  3  0  0  0  0  0  0
  181.7660  179.5390  140.1800 N   0  0  0  0  0  2  0  0  0  0  0  0
  181.3870  178.7870  143.6260 O   0  0  0  0  0  1  0  0  0  0  0  0
  180.2720  180.3460  142.3660 O   0  0  0  0  0  0  0  0  0  0  0  0
  181.1010  179.2360  142.4850 C   0  0  0  0  0  0  0  0  0  0  0  0
  189.0750  176.9410  144.5180 C   0  0  0  0  0  2  0  0  0  0  0  0
  187.5050  178.0350  147.9620 C   0  0  0  0  0  3  0  0  0  0  0  0
  188.8990  177.3720  147.2860 S   0  0  0  0  0  0  0  0  0  0  0  0
  188.3070  177.3690  145.7180 C   0  0  0  0  0  0  0  0  0  0  0  0
  186.6220  178.2380  146.9020 C   0  0  0  0  0  0  0  0  0  0  0  0
  185.3290  178.7980  147.0960 N   0  0  0  0  0  1  0  0  0  0  0  0
  187.0620  177.8800  145.6660 N   0  0  0  0  0  0  0  0  0  0  0  0
  1  6  1  0  0  0  0
  1  8  2  0  0  0  0
  2  3  1  0  0  0  0
  3  7  2  0  0  0  0
  4 18  1  1  0  0  0
  4  7  1  0  0  0  0
  5 29  1  0  0  0  0
  6  2  2  0  0  0  0
  7  5  1  0  0  0  0
  8  4  1  0  0  0  0
  9 17  1  0  0  0  0
 10 16  1  0  0  0  0
 11 15  2  0  0  0  0
 12 13  1  0  0  0  0
 13 16  2  0  0  0  0
 13 11  1  0  0  0  0
 14  9  2  0  0  0  0
 15  9  1  0  0  0  0
 15  6  1  0  0  0  0
 16 14  1  0  0  0  0
 19 20  2  0  0  0  0
 20 18  1  0  0  0  0
 22 25  1  0  0  0  0
 22 23  1  0  0  0  0
 23 19  1  1  0  0  0
 23 21  1  0  0  0  0
 24 21  1  0  0  0  0
 24 28  1  1  0  0  0
 25 24  1  0  0  0  0
 27 28  2  0  0  0  0
 28 26  1  0  0  0  0
 29 32  1  0  0  0  0
 31 30  1  0  0  0  0
 32 31  1  0  0  0  0
 33 34  1  0  0  0  0
 33 30  2  0  0  0  0
 35 32  2  0  0  0  0
 35 33  1  0  0  0  0
M  END
>  <MODEL>
8

>  <REMARK>
 VINA RESULT:      -7.4      4.443      8.737
  Name = 
  7 active torsions:
  status: ('A' for Active; 'I' for Inactive)
    1  A    between atoms: C_10  and  CA_25
    2  A    between atoms: C_11  and  C_13
    3  A    between atoms: C_11  and  C_20
    4  A    between atoms: C_15  and  C_19
    5  A    between atoms: C_16  and  C_24
    6  A    between atoms: N_17  and  C_19
    7  A    between atoms: C_22  and  C_31
                            x       y       z     vdW  Elec       q    Type
                         _______ _______ _______ _____ _____    ______ ____

>  <TORSDO>
F 7

$$$$
=
 OpenBabel10232410453D

 35 38  0  0  1  0  0  0  0  0999 V2000
  186.4930  177.4270  142.6420 N   0  0  0  0  0  0  0  0  0  0  0  0
  185.9630  178.7030  140.6290 C   0  0  0  0  0  3  0  0  0  0  0  0
  187.1840  178.4140  139.9270 N   0  0  0  0  0  0  0  0  0  0  0  0
  188.5910  178.4360  141.9140 C   0  0  1  0  0  3  0  0  0  0  0  0
  189.4680  177.9190  139.5890 N   0  0  0  0  0  2  0  0  0  0  0  0
  185.6510  178.3110  141.8790 C   0  0  0  0  0  0  0  0  0  0  0  0
  188.3650  178.2420  140.4430 C   0  0  0  0  0  0  0  0  0  0  0  0
  187.7890  177.4350  142.6720 C   0  0  0  0  0  3  0  0  0  0  0  0
  184.0850  179.0080  143.7830 C   0  0  0  0  0  0  0  0  0  0  0  0
  180.4450  179.4570  143.8350 N   0  0  0  0  0  1  0  0  0  0  0  0
  183.2330  178.5140  141.6110 N   0  0  0  0  0  0  0  0  0  0  0  0
  180.8370  178.6420  141.0690 C   0  0  0  0  0  1  0  0  0  0  0  0
  181.9690  178.7770  142.0300 C   0  0  0  0  0  0  0  0  0  0  0  0
  182.8170  179.2700  144.1950 N   0  0  0  0  0  0  0  0  0  0  0  0
  184.3100  178.6250  142.4380 C   0  0  0  0  0  0  0  0  0  0  0  0
  181.7560  179.1710  143.3540 C   0  0  0  0  0  0  0  0  0  0  0  0
  185.1450  179.0860  144.7310 N   0  0  0  0  0  1  0  0  0  0  0  0
  190.0650  178.3360  142.3010 C   0  0  0  0  0  2  0  0  0  0  0  0
  191.1170  177.6030  144.4080 C   0  0  0  0  0  3  0  0  0  0  0  0
  190.2420  178.3980  143.7840 C   0  0  0  0  0  3  0  0  0  0  0  0
  190.1560  178.3090  146.5890 C   0  0  0  0  0  2  0  0  0  0  0  0
  191.3880  176.2320  146.4750 C   0  0  0  0  0  2  0  0  0  0  0  0
  191.3150  177.6340  145.8960 C   0  0  1  0  0  3  0  0  0  0  0  0
  189.7070  177.3250  147.6450 C   0  0  2  0  0  3  0  0  0  0  0  0
  190.1800  176.0040  147.2560 N   0  0  0  0  0  2  0  0  0  0  0  0
  187.6840  177.3750  148.9000 O   0  0  0  0  0  1  0  0  0  0  0  0
  187.4240  177.2880  146.6230 O   0  0  0  0  0  0  0  0  0  0  0  0
  188.2210  177.3270  147.7620 C   0  0  0  0  0  0  0  0  0  0  0  0
  189.3210  177.7480  138.1510 C   0  0  0  0  0  2  0  0  0  0  0  0
  192.1720  175.7880  136.2660 C   0  0  0  0  0  3  0  0  0  0  0  0
  190.5920  176.3430  136.0800 S   0  0  0  0  0  0  0  0  0  0  0  0
  190.4910  176.9990  137.6190 C   0  0  0  0  0  0  0  0  0  0  0  0
  192.5610  176.1590  137.5520 C   0  0  0  0  0  0  0  0  0  0  0  0
  193.8540  175.8590  138.0640 N   0  0  0  0  0  1  0  0  0  0  0  0
  191.6430  176.8320  138.2960 N   0  0  0  0  0  0  0  0  0  0  0  0
  1  8  2  0  0  0  0
  2  6  2  0  0  0  0
  3  7  2  0  0  0  0
  3  2  1  0  0  0  0
  4 18  1  6  0  0  0
  4  8  1  0  0  0  0
  5  7  1  0  0  0  0
  6 15  1  0  0  0  0
  6  1  1  0  0  0  0
  7  4  1  0  0  0  0
  9 14  1  0  0  0  0
  9 17  1  0  0  0  0
 11 13  2  0  0  0  0
 11 15  1  0  0  0  0
 12 13  1  0  0  0  0
 13 16  1  0  0  0  0
 15  9  2  0  0  0  0
 16 10  1  0  0  0  0
 16 14  2  0  0  0  0
 18 20  1  0  0  0  0
 20 19  2  0  0  0  0
 21 24  1  0  0  0  0
 22 25  1  0  0  0  0
 23 19  1  6  0  0  0
 23 22  1  0  0  0  0
 23 21  1  0  0  0  0
 24 28  1  6  0  0  0
 25 24  1  0  0  0  0
 27 28  2  0  0  0  0
 28 26  1  0  0  0  0
 29  5  1  0  0  0  0
 30 33  2  0  0  0  0
 31 30  1  0  0  0  0
 31 32  1  0  0  0  0
 32 29  1  0  0  0  0
 32 35  2  0  0  0  0
 33 34  1  0  0  0  0
 33 35  1  0  0  0  0
M  END
>  <MODEL>
9

>  <REMARK>
 VINA RESULT:      -7.4      3.683      8.227
  Name = 
  7 active torsions:
  status: ('A' for Active; 'I' for Inactive)
    1  A    between atoms: C_10  and  CA_25
    2  A    between atoms: C_11  and  C_13
    3  A    between atoms: C_11  and  C_20
    4  A    between atoms: C_15  and  C_19
    5  A    between atoms: C_16  and  C_24
    6  A    between atoms: N_17  and  C_19
    7  A    between atoms: C_22  and  C_31
                            x       y       z     vdW  Elec       q    Type
                         _______ _______ _______ _____ _____    ______ ____

>  <TORSDO>
F 7

$$$$
