=
 OpenBabel10232408403D

 28 30  0  0  1  0  0  0  0  0999 V2000
  189.1840  177.3380  145.7070 C   0  0  0  0  0  0  0  0  0  0  0  0
  189.1190  176.8160  147.0030 C   0  0  0  0  0  3  0  0  0  0  0  0
  191.4660  176.6090  147.0790 C   0  0  0  0  0  0  0  0  0  0  0  0
  192.6420  176.2290  147.7810 N   0  0  0  0  0  1  0  0  0  0  0  0
  190.4580  177.4980  145.1220 C   0  0  0  0  0  0  0  0  0  0  0  0
  190.2510  176.4680  147.6640 N   0  0  0  0  0  0  0  0  0  0  0  0
  191.5600  177.1130  145.8220 N   0  0  0  0  0  0  0  0  0  0  0  0
  185.2240  178.7840  146.9590 N   0  0  0  0  0  2  0  0  0  0  0  0
  186.5300  178.3370  146.7510 N   0  0  0  0  0  0  0  0  0  0  0  0
  184.6120  178.8150  145.6830 C   0  0  0  0  0  0  0  0  0  0  0  0
  183.4210  179.1740  145.4930 O   0  0  0  0  0  0  0  0  0  0  0  0
  186.7370  178.1020  145.4930 C   0  0  0  0  0  0  0  0  0  0  0  0
  187.9890  177.6450  144.9700 N   0  0  0  0  0  2  0  0  0  0  0  0
  185.5510  178.3740  144.6240 C   0  0  0  0  0  2  0  0  0  0  0  0
  190.8110  179.2850  143.6310 O   0  0  0  0  0  0  0  0  0  0  0  0
  190.6610  178.0380  143.7560 C   0  0  0  0  0  0  0  0  0  0  0  0
  191.9450  177.2120  141.9250 O   0  0  0  0  0  1  0  0  0  0  0  0
  190.6760  177.1680  142.5090 C   0  0  1  0  0  0  0  0  0  0  0  0
  190.3940  175.7250  142.8980 C   0  0  0  0  0  1  0  0  0  0  0  0
  189.6260  177.6080  141.5060 C   0  0  0  0  0  0  0  0  0  0  0  0
  188.4180  177.6880  141.8620 O   0  0  0  0  0  0  0  0  0  0  0  0
  189.9350  177.8920  140.1700 O   0  0  0  0  0  0  0  0  0  0  0  0
  189.1270  178.5580  138.0150 C   0  0  2  0  0  3  0  0  0  0  0  0
  190.0180  177.3420  137.8430 C   0  0  0  0  0  2  0  0  0  0  0  0
  189.1440  177.4660  139.0700 C   0  0  1  0  0  3  0  0  0  0  0  0
  188.0000  177.9940  135.9880 O   0  0  0  0  0  0  0  0  0  0  0  0
  186.6650  178.8060  137.6620 O   0  0  0  0  0  1  0  0  0  0  0  0
  187.9050  178.4220  137.1680 C   0  0  0  0  0  0  0  0  0  0  0  0
  1  2  2  0  0  0  0
  2  6  1  0  0  0  0
  3  6  2  0  0  0  0
  3  4  1  0  0  0  0
  5  1  1  0  0  0  0
  5  7  2  0  0  0  0
  7  3  1  0  0  0  0
  9  8  1  0  0  0  0
 10  8  1  0  0  0  0
 11 10  2  0  0  0  0
 12  9  2  0  0  0  0
 13 12  1  0  0  0  0
 13  1  1  0  0  0  0
 14 12  1  0  0  0  0
 14 10  1  0  0  0  0
 15 16  2  0  0  0  0
 16  5  1  0  0  0  0
 17 18  1  0  0  0  0
 18 19  1  1  0  0  0
 18 16  1  0  0  0  0
 20 21  2  0  0  0  0
 20 18  1  0  0  0  0
 22 20  1  0  0  0  0
 23 28  1  6  0  0  0
 23 25  1  0  0  0  0
 24 23  1  0  0  0  0
 24 25  1  0  0  0  0
 25 22  1  1  0  0  0
 26 28  2  0  0  0  0
 28 27  1  0  0  0  0
M  END
>  <MODEL>
1

>  <REMARK>
 VINA RESULT:      -8.8      0.000      0.000
  Name = 
  7 active torsions:
  status: ('A' for Active; 'I' for Inactive)
    1  A    between atoms: O_1  and  C_17
    2  A    between atoms: O_1  and  C_20
    3  A    between atoms: C_2  and  C_22
    4  A    between atoms: C_3  and  N_27
    5  A    between atoms: C_10  and  C_17
    6  A    between atoms: C_10  and  C_26
    7  A    between atoms: C_18  and  C_26
                            x       y       z     vdW  Elec       q    Type
                         _______ _______ _______ _____ _____    ______ ____

>  <TORSDO>
F 7

$$$$
=
 OpenBabel10232408403D

 28 30  0  0  1  0  0  0  0  0999 V2000
  189.1260  177.3920  145.7050 C   0  0  0  0  0  0  0  0  0  0  0  0
  189.0290  176.8550  146.9930 C   0  0  0  0  0  3  0  0  0  0  0  0
  191.3740  176.6510  147.1250 C   0  0  0  0  0  0  0  0  0  0  0  0
  192.5340  176.2640  147.8520 N   0  0  0  0  0  1  0  0  0  0  0  0
  190.4140  177.5600  145.1530 C   0  0  0  0  0  0  0  0  0  0  0  0
  190.1450  176.5010  147.6780 N   0  0  0  0  0  0  0  0  0  0  0  0
  191.4980  177.1690  145.8770 N   0  0  0  0  0  0  0  0  0  0  0  0
  185.1180  178.7720  146.8780 N   0  0  0  0  0  2  0  0  0  0  0  0
  186.4340  178.3420  146.6970 N   0  0  0  0  0  0  0  0  0  0  0  0
  184.5430  178.8280  145.5870 C   0  0  0  0  0  0  0  0  0  0  0  0
  183.3540  179.1810  145.3710 O   0  0  0  0  0  0  0  0  0  0  0  0
  186.6790  178.1390  145.4400 C   0  0  0  0  0  0  0  0  0  0  0  0
  187.9500  177.7050  144.9420 N   0  0  0  0  0  2  0  0  0  0  0  0
  185.5150  178.4210  144.5440 C   0  0  0  0  0  2  0  0  0  0  0  0
  190.8430  179.3590  143.6970 O   0  0  0  0  0  0  0  0  0  0  0  0
  190.6500  178.1150  143.7990 C   0  0  0  0  0  0  0  0  0  0  0  0
  191.8980  177.3580  141.9140 O   0  0  0  0  0  1  0  0  0  0  0  0
  190.6500  177.2660  142.5380 C   0  0  1  0  0  0  0  0  0  0  0  0
  190.4240  175.8090  142.9110 C   0  0  0  0  0  1  0  0  0  0  0  0
  189.5550  177.6910  141.5770 C   0  0  0  0  0  0  0  0  0  0  0  0
  188.7320  178.5810  141.9230 O   0  0  0  0  0  0  0  0  0  0  0  0
  189.3870  177.0970  140.3190 O   0  0  0  0  0  0  0  0  0  0  0  0
  190.9670  176.1030  138.8160 C   0  0  2  0  0  3  0  0  0  0  0  0
  189.7540  176.5490  138.0200 C   0  0  0  0  0  2  0  0  0  0  0  0
  190.2200  177.3690  139.2020 C   0  0  1  0  0  3  0  0  0  0  0  0
  192.2520  176.4070  136.8280 O   0  0  0  0  0  0  0  0  0  0  0  0
  193.3640  176.8110  138.7890 O   0  0  0  0  0  1  0  0  0  0  0  0
  192.2190  176.4610  138.0860 C   0  0  0  0  0  0  0  0  0  0  0  0
  1  2  2  0  0  0  0
  2  6  1  0  0  0  0
  3  6  2  0  0  0  0
  3  4  1  0  0  0  0
  5  1  1  0  0  0  0
  5  7  2  0  0  0  0
  7  3  1  0  0  0  0
  9  8  1  0  0  0  0
 10  8  1  0  0  0  0
 11 10  2  0  0  0  0
 12  9  2  0  0  0  0
 13 12  1  0  0  0  0
 13  1  1  0  0  0  0
 14 12  1  0  0  0  0
 14 10  1  0  0  0  0
 15 16  2  0  0  0  0
 16  5  1  0  0  0  0
 17 18  1  0  0  0  0
 18 19  1  1  0  0  0
 18 16  1  0  0  0  0
 20 21  2  0  0  0  0
 20 18  1  0  0  0  0
 22 20  1  0  0  0  0
 23 28  1  6  0  0  0
 23 25  1  0  0  0  0
 24 23  1  0  0  0  0
 24 25  1  0  0  0  0
 25 22  1  1  0  0  0
 26 28  2  0  0  0  0
 28 27  1  0  0  0  0
M  END
>  <MODEL>
2

>  <REMARK>
 VINA RESULT:      -8.6      1.394      1.971
  Name = 
  7 active torsions:
  status: ('A' for Active; 'I' for Inactive)
    1  A    between atoms: O_1  and  C_17
    2  A    between atoms: O_1  and  C_20
    3  A    between atoms: C_2  and  C_22
    4  A    between atoms: C_3  and  N_27
    5  A    between atoms: C_10  and  C_17
    6  A    between atoms: C_10  and  C_26
    7  A    between atoms: C_18  and  C_26
                            x       y       z     vdW  Elec       q    Type
                         _______ _______ _______ _____ _____    ______ ____

>  <TORSDO>
F 7

$$$$
=
 OpenBabel10232408403D

 28 30  0  0  1  0  0  0  0  0999 V2000
  189.4730  177.7980  140.4810 C   0  0  0  0  0  0  0  0  0  0  0  0
  188.5240  178.4610  139.6960 C   0  0  0  0  0  3  0  0  0  0  0  0
  186.9220  178.2850  141.4170 C   0  0  0  0  0  0  0  0  0  0  0  0
  185.6070  178.5300  141.8990 N   0  0  0  0  0  1  0  0  0  0  0  0
  189.0940  177.3960  141.7800 C   0  0  0  0  0  0  0  0  0  0  0  0
  187.2770  178.6960  140.1740 N   0  0  0  0  0  0  0  0  0  0  0  0
  187.8220  177.6390  142.2010 N   0  0  0  0  0  0  0  0  0  0  0  0
  190.8730  174.6790  137.7140 N   0  0  0  0  0  2  0  0  0  0  0  0
  190.2500  175.5950  138.5640 N   0  0  0  0  0  0  0  0  0  0  0  0
  192.2490  175.0100  137.7230 C   0  0  0  0  0  0  0  0  0  0  0  0
  193.1170  174.3860  137.0600 O   0  0  0  0  0  0  0  0  0  0  0  0
  191.1180  176.4170  139.0640 C   0  0  0  0  0  0  0  0  0  0  0  0
  190.7740  177.4800  139.9620 N   0  0  0  0  0  2  0  0  0  0  0  0
  192.5190  176.1720  138.6030 C   0  0  0  0  0  2  0  0  0  0  0  0
  190.1510  175.4400  142.5520 O   0  0  0  0  0  0  0  0  0  0  0  0
  190.0050  176.6840  142.7080 C   0  0  0  0  0  0  0  0  0  0  0  0
  192.0740  176.9390  143.8640 O   0  0  0  0  0  1  0  0  0  0  0  0
  190.7460  177.3750  143.8420 C   0  0  1  0  0  0  0  0  0  0  0  0
  190.7540  178.8760  143.5980 C   0  0  0  0  0  1  0  0  0  0  0  0
  190.0880  177.1110  145.1840 C   0  0  0  0  0  0  0  0  0  0  0  0
  190.8060  176.9240  146.2040 O   0  0  0  0  0  0  0  0  0  0  0  0
  188.6990  177.0180  145.3340 O   0  0  0  0  0  0  0  0  0  0  0  0
  186.4980  177.5030  146.1470 C   0  0  2  0  0  3  0  0  0  0  0  0
  187.4760  177.6180  147.3010 C   0  0  0  0  0  2  0  0  0  0  0  0
  187.8990  178.0390  145.9120 C   0  0  1  0  0  3  0  0  0  0  0  0
  185.5330  179.4410  147.1520 O   0  0  0  0  0  1  0  0  0  0  0  0
  184.5790  178.7800  145.1780 O   0  0  0  0  0  0  0  0  0  0  0  0
  185.5250  178.6350  146.1850 C   0  0  0  0  0  0  0  0  0  0  0  0
  1  5  1  0  0  0  0
  2  6  1  0  0  0  0
  2  1  2  0  0  0  0
  3  4  1  0  0  0  0
  3  7  1  0  0  0  0
  5  7  2  0  0  0  0
  5 16  1  0  0  0  0
  6  3  2  0  0  0  0
  8 10  1  0  0  0  0
  8  9  1  0  0  0  0
  9 12  2  0  0  0  0
 10 14  1  0  0  0  0
 11 10  2  0  0  0  0
 12 13  1  0  0  0  0
 13  1  1  0  0  0  0
 14 12  1  0  0  0  0
 15 16  2  0  0  0  0
 16 18  1  0  0  0  0
 18 19  1  6  0  0  0
 18 17  1  0  0  0  0
 18 20  1  0  0  0  0
 20 22  1  0  0  0  0
 20 21  2  0  0  0  0
 23 28  1  1  0  0  0
 23 24  1  0  0  0  0
 25 22  1  6  0  0  0
 25 23  1  0  0  0  0
 25 24  1  0  0  0  0
 27 28  2  0  0  0  0
 28 26  1  0  0  0  0
M  END
>  <MODEL>
3

>  <REMARK>
 VINA RESULT:      -8.5      3.438      7.736
  Name = 
  7 active torsions:
  status: ('A' for Active; 'I' for Inactive)
    1  A    between atoms: O_1  and  C_17
    2  A    between atoms: O_1  and  C_20
    3  A    between atoms: C_2  and  C_22
    4  A    between atoms: C_3  and  N_27
    5  A    between atoms: C_10  and  C_17
    6  A    between atoms: C_10  and  C_26
    7  A    between atoms: C_18  and  C_26
                            x       y       z     vdW  Elec       q    Type
                         _______ _______ _______ _____ _____    ______ ____

>  <TORSDO>
F 7

$$$$
=
 OpenBabel10232408403D

 28 30  0  0  1  0  0  0  0  0999 V2000
  189.1860  177.0780  145.7630 C   0  0  0  0  0  0  0  0  0  0  0  0
  189.2520  177.1670  147.1570 C   0  0  0  0  0  3  0  0  0  0  0  0
  191.5020  176.4640  147.1340 C   0  0  0  0  0  0  0  0  0  0  0  0
  192.6950  176.1410  147.8380 N   0  0  0  0  0  1  0  0  0  0  0  0
  190.3480  176.6780  145.0690 C   0  0  0  0  0  0  0  0  0  0  0  0
  190.4000  176.8660  147.8140 N   0  0  0  0  0  0  0  0  0  0  0  0
  191.4670  176.3680  145.7800 N   0  0  0  0  0  0  0  0  0  0  0  0
  185.4010  178.9470  146.9940 N   0  0  0  0  0  2  0  0  0  0  0  0
  186.6650  178.3940  146.7840 N   0  0  0  0  0  0  0  0  0  0  0  0
  184.7000  178.7970  145.7740 C   0  0  0  0  0  0  0  0  0  0  0  0
  183.5170  179.1890  145.6000 O   0  0  0  0  0  0  0  0  0  0  0  0
  186.7690  177.9380  145.5760 C   0  0  0  0  0  0  0  0  0  0  0  0
  187.9570  177.3250  145.0610 N   0  0  0  0  0  2  0  0  0  0  0  0
  185.5370  178.1280  144.7490 C   0  0  0  0  0  2  0  0  0  0  0  0
  190.3700  175.3790  143.1060 O   0  0  0  0  0  0  0  0  0  0  0  0
  190.4070  176.5430  143.5940 C   0  0  0  0  0  0  0  0  0  0  0  0
  189.2720  178.3030  142.4550 O   0  0  0  0  0  1  0  0  0  0  0  0
  190.5320  177.7300  142.6520 C   0  0  1  0  0  0  0  0  0  0  0  0
  191.4280  178.7840  143.2850 C   0  0  0  0  0  1  0  0  0  0  0  0
  191.1340  177.3270  141.3190 C   0  0  0  0  0  0  0  0  0  0  0  0
  192.3700  177.4830  141.1190 O   0  0  0  0  0  0  0  0  0  0  0  0
  190.3600  176.8220  140.2670 O   0  0  0  0  0  0  0  0  0  0  0  0
  188.9470  176.9630  138.3370 C   0  0  2  0  0  3  0  0  0  0  0  0
  188.9370  178.3060  139.0430 C   0  0  0  0  0  2  0  0  0  0  0  0
  190.2020  177.4790  139.0180 C   0  0  1  0  0  3  0  0  0  0  0  0
  189.5310  176.2480  136.1360 O   0  0  0  0  0  0  0  0  0  0  0  0
  188.6790  178.3690  136.2870 O   0  0  0  0  0  1  0  0  0  0  0  0
  189.0570  177.1610  136.8610 C   0  0  0  0  0  0  0  0  0  0  0  0
  1  2  2  0  0  0  0
  2  6  1  0  0  0  0
  3  6  2  0  0  0  0
  3  4  1  0  0  0  0
  5  1  1  0  0  0  0
  5  7  2  0  0  0  0
  7  3  1  0  0  0  0
  9  8  1  0  0  0  0
 10  8  1  0  0  0  0
 11 10  2  0  0  0  0
 12  9  2  0  0  0  0
 13 12  1  0  0  0  0
 13  1  1  0  0  0  0
 14 12  1  0  0  0  0
 14 10  1  0  0  0  0
 15 16  2  0  0  0  0
 16  5  1  0  0  0  0
 17 18  1  0  0  0  0
 18 19  1  1  0  0  0
 18 16  1  0  0  0  0
 20 18  1  0  0  0  0
 21 20  2  0  0  0  0
 22 20  1  0  0  0  0
 23 28  1  6  0  0  0
 23 25  1  0  0  0  0
 23 24  1  0  0  0  0
 25 24  1  0  0  0  0
 25 22  1  1  0  0  0
 26 28  2  0  0  0  0
 27 28  1  0  0  0  0
M  END
>  <MODEL>
4

>  <REMARK>
 VINA RESULT:      -8.2      1.012      1.706
  Name = 
  7 active torsions:
  status: ('A' for Active; 'I' for Inactive)
    1  A    between atoms: O_1  and  C_17
    2  A    between atoms: O_1  and  C_20
    3  A    between atoms: C_2  and  C_22
    4  A    between atoms: C_3  and  N_27
    5  A    between atoms: C_10  and  C_17
    6  A    between atoms: C_10  and  C_26
    7  A    between atoms: C_18  and  C_26
                            x       y       z     vdW  Elec       q    Type
                         _______ _______ _______ _____ _____    ______ ____

>  <TORSDO>
F 7

$$$$
=
 OpenBabel10232408403D

 28 30  0  0  1  0  0  0  0  0999 V2000
  189.7450  177.6040  140.5130 C   0  0  0  0  0  0  0  0  0  0  0  0
  189.7510  177.4670  139.1210 C   0  0  0  0  0  3  0  0  0  0  0  0
  192.0460  176.9290  139.1450 C   0  0  0  0  0  0  0  0  0  0  0  0
  193.2340  176.5870  138.4420 N   0  0  0  0  0  1  0  0  0  0  0  0
  190.9520  177.3710  141.2060 C   0  0  0  0  0  0  0  0  0  0  0  0
  190.8900  177.1300  138.4660 N   0  0  0  0  0  0  0  0  0  0  0  0
  192.0710  177.0560  140.4960 N   0  0  0  0  0  0  0  0  0  0  0  0
  185.7500  178.8000  139.1150 N   0  0  0  0  0  2  0  0  0  0  0  0
  187.0600  178.3890  139.3700 N   0  0  0  0  0  0  0  0  0  0  0  0
  185.1780  179.0870  140.3770 C   0  0  0  0  0  0  0  0  0  0  0  0
  183.9940  179.4880  140.5270 O   0  0  0  0  0  0  0  0  0  0  0  0
  187.3060  178.4120  140.6420 C   0  0  0  0  0  0  0  0  0  0  0  0
  188.5640  178.0290  141.2110 N   0  0  0  0  0  2  0  0  0  0  0  0
  186.1460  178.8550  141.4750 C   0  0  0  0  0  2  0  0  0  0  0  0
  191.5300  178.5670  143.1490 O   0  0  0  0  0  0  0  0  0  0  0  0
  191.0780  177.4860  142.6780 C   0  0  0  0  0  0  0  0  0  0  0  0
  189.9310  175.4160  142.9680 O   0  0  0  0  0  1  0  0  0  0  0  0
  190.7120  176.3630  143.6370 C   0  0  1  0  0  0  0  0  0  0  0  0
  191.9810  175.6700  144.1080 C   0  0  0  0  0  1  0  0  0  0  0  0
  189.9700  176.8850  144.8530 C   0  0  0  0  0  0  0  0  0  0  0  0
  190.6170  177.2150  145.8850 O   0  0  0  0  0  0  0  0  0  0  0  0
  188.5730  176.9760  144.8990 O   0  0  0  0  0  0  0  0  0  0  0  0
  186.4190  177.5790  145.7570 C   0  0  2  0  0  3  0  0  0  0  0  0
  187.3820  177.4400  146.9220 C   0  0  0  0  0  2  0  0  0  0  0  0
  187.8720  177.9920  145.6020 C   0  0  1  0  0  3  0  0  0  0  0  0
  185.2370  179.1620  147.0960 O   0  0  0  0  0  1  0  0  0  0  0  0
  185.1010  179.4920  144.8330 O   0  0  0  0  0  0  0  0  0  0  0  0
  185.5680  178.7920  145.9390 C   0  0  0  0  0  0  0  0  0  0  0  0
  1  5  1  0  0  0  0
  1 13  1  0  0  0  0
  2  1  2  0  0  0  0
  3  7  1  0  0  0  0
  4  3  1  0  0  0  0
  5 16  1  0  0  0  0
  6  2  1  0  0  0  0
  6  3  2  0  0  0  0
  7  5  2  0  0  0  0
  8  9  1  0  0  0  0
  8 10  1  0  0  0  0
  9 12  2  0  0  0  0
 10 11  2  0  0  0  0
 10 14  1  0  0  0  0
 12 13  1  0  0  0  0
 12 14  1  0  0  0  0
 16 15  2  0  0  0  0
 16 18  1  0  0  0  0
 17 18  1  0  0  0  0
 18 19  1  1  0  0  0
 18 20  1  0  0  0  0
 20 22  1  0  0  0  0
 20 21  2  0  0  0  0
 23 28  1  1  0  0  0
 23 24  1  0  0  0  0
 25 22  1  6  0  0  0
 25 23  1  0  0  0  0
 25 24  1  0  0  0  0
 27 28  2  0  0  0  0
 28 26  1  0  0  0  0
M  END
>  <MODEL>
5

>  <REMARK>
 VINA RESULT:      -8.2      3.488      6.373
  Name = 
  7 active torsions:
  status: ('A' for Active; 'I' for Inactive)
    1  A    between atoms: O_1  and  C_17
    2  A    between atoms: O_1  and  C_20
    3  A    between atoms: C_2  and  C_22
    4  A    between atoms: C_3  and  N_27
    5  A    between atoms: C_10  and  C_17
    6  A    between atoms: C_10  and  C_26
    7  A    between atoms: C_18  and  C_26
                            x       y       z     vdW  Elec       q    Type
                         _______ _______ _______ _____ _____    ______ ____

>  <TORSDO>
F 7

$$$$
=
 OpenBabel10232408403D

 28 30  0  0  1  0  0  0  0  0999 V2000
  188.3330  178.0560  141.1180 C   0  0  0  0  0  0  0  0  0  0  0  0
  188.2880  178.5700  139.8180 C   0  0  0  0  0  3  0  0  0  0  0  0
  190.1620  177.2800  139.2010 C   0  0  0  0  0  0  0  0  0  0  0  0
  191.1080  176.8830  138.2170 N   0  0  0  0  0  1  0  0  0  0  0  0
  189.3360  177.1110  141.4210 C   0  0  0  0  0  0  0  0  0  0  0  0
  189.1910  178.1730  138.8870 N   0  0  0  0  0  0  0  0  0  0  0  0
  190.2300  176.7640  140.4550 N   0  0  0  0  0  0  0  0  0  0  0  0
  183.9420  178.1960  141.3190 N   0  0  0  0  0  2  0  0  0  0  0  0
  185.3120  178.0680  141.0800 N   0  0  0  0  0  0  0  0  0  0  0  0
  183.8220  178.7930  142.5970 C   0  0  0  0  0  0  0  0  0  0  0  0
  182.7170  179.0580  143.1380 O   0  0  0  0  0  0  0  0  0  0  0  0
  185.9940  178.5290  142.0800 C   0  0  0  0  0  0  0  0  0  0  0  0
  187.4260  178.5200  142.1310 N   0  0  0  0  0  2  0  0  0  0  0  0
  185.1510  179.0550  143.1970 C   0  0  0  0  0  2  0  0  0  0  0  0
  188.7820  175.4840  143.0300 O   0  0  0  0  0  0  0  0  0  0  0  0
  189.4920  176.4930  142.7600 C   0  0  0  0  0  0  0  0  0  0  0  0
  191.6410  176.3110  143.7760 O   0  0  0  0  0  1  0  0  0  0  0  0
  190.4420  177.0290  143.8200 C   0  0  1  0  0  0  0  0  0  0  0  0
  190.7610  178.4850  143.5210 C   0  0  0  0  0  1  0  0  0  0  0  0
  189.8360  176.9460  145.2080 C   0  0  0  0  0  0  0  0  0  0  0  0
  190.5860  176.7740  146.2080 O   0  0  0  0  0  0  0  0  0  0  0  0
  188.4540  177.0070  145.4300 O   0  0  0  0  0  0  0  0  0  0  0  0
  186.5640  177.6140  146.7720 C   0  0  2  0  0  3  0  0  0  0  0  0
  187.8300  177.9320  147.5460 C   0  0  0  0  0  2  0  0  0  0  0  0
  187.8020  178.1090  146.0440 C   0  0  1  0  0  3  0  0  0  0  0  0
  185.9060  179.7790  147.5300 O   0  0  0  0  0  1  0  0  0  0  0  0
  184.2970  178.6010  146.4040 O   0  0  0  0  0  0  0  0  0  0  0  0
  185.5830  178.7300  146.9130 C   0  0  0  0  0  0  0  0  0  0  0  0
  1  5  1  0  0  0  0
  1 13  1  0  0  0  0
  2  1  2  0  0  0  0
  3  7  1  0  0  0  0
  4  3  1  0  0  0  0
  5 16  1  0  0  0  0
  6  3  2  0  0  0  0
  6  2  1  0  0  0  0
  7  5  2  0  0  0  0
  8 10  1  0  0  0  0
  9  8  1  0  0  0  0
  9 12  2  0  0  0  0
 10 11  2  0  0  0  0
 10 14  1  0  0  0  0
 12 13  1  0  0  0  0
 12 14  1  0  0  0  0
 16 15  2  0  0  0  0
 16 18  1  0  0  0  0
 17 18  1  0  0  0  0
 18 19  1  6  0  0  0
 18 20  1  0  0  0  0
 20 22  1  0  0  0  0
 20 21  2  0  0  0  0
 23 28  1  1  0  0  0
 23 24  1  0  0  0  0
 25 22  1  6  0  0  0
 25 23  1  0  0  0  0
 25 24  1  0  0  0  0
 27 28  2  0  0  0  0
 28 26  1  0  0  0  0
M  END
>  <MODEL>
6

>  <REMARK>
 VINA RESULT:      -8.0      3.619      6.369
  Name = 
  7 active torsions:
  status: ('A' for Active; 'I' for Inactive)
    1  A    between atoms: O_1  and  C_17
    2  A    between atoms: O_1  and  C_20
    3  A    between atoms: C_2  and  C_22
    4  A    between atoms: C_3  and  N_27
    5  A    between atoms: C_10  and  C_17
    6  A    between atoms: C_10  and  C_26
    7  A    between atoms: C_18  and  C_26
                            x       y       z     vdW  Elec       q    Type
                         _______ _______ _______ _____ _____    ______ ____

>  <TORSDO>
F 7

$$$$
=
 OpenBabel10232408403D

 28 30  0  0  1  0  0  0  0  0999 V2000
  187.9560  177.8090  141.6250 C   0  0  0  0  0  0  0  0  0  0  0  0
  187.2580  178.4130  140.5740 C   0  0  0  0  0  3  0  0  0  0  0  0
  189.0290  177.9590  139.0860 C   0  0  0  0  0  0  0  0  0  0  0  0
  189.5870  178.0400  137.7810 N   0  0  0  0  0  1  0  0  0  0  0  0
  189.2260  177.2600  141.3470 C   0  0  0  0  0  0  0  0  0  0  0  0
  187.7990  178.4730  139.3320 N   0  0  0  0  0  0  0  0  0  0  0  0
  189.7300  177.3660  140.0870 N   0  0  0  0  0  0  0  0  0  0  0  0
  184.1790  179.2960  143.3170 N   0  0  0  0  0  2  0  0  0  0  0  0
  185.3090  178.8850  142.6070 N   0  0  0  0  0  0  0  0  0  0  0  0
  184.4130  178.9400  144.6660 C   0  0  0  0  0  0  0  0  0  0  0  0
  183.5930  179.1620  145.5950 O   0  0  0  0  0  0  0  0  0  0  0  0
  186.1710  178.3340  143.4020 C   0  0  0  0  0  0  0  0  0  0  0  0
  187.4250  177.8010  142.9600 N   0  0  0  0  0  2  0  0  0  0  0  0
  185.7310  178.2820  144.8300 C   0  0  0  0  0  2  0  0  0  0  0  0
  189.7690  175.4130  142.7020 O   0  0  0  0  0  0  0  0  0  0  0  0
  190.0650  176.5950  142.3730 C   0  0  0  0  0  0  0  0  0  0  0  0
  192.3580  177.2310  142.2130 O   0  0  0  0  0  1  0  0  0  0  0  0
  191.2420  177.2750  143.0550 C   0  0  1  0  0  0  0  0  0  0  0  0
  190.9050  178.7370  143.3040 C   0  0  0  0  0  1  0  0  0  0  0  0
  191.5690  176.6250  144.3870 C   0  0  0  0  0  0  0  0  0  0  0  0
  191.9820  175.4330  144.4150 O   0  0  0  0  0  0  0  0  0  0  0  0
  191.3870  177.2840  145.6090 O   0  0  0  0  0  0  0  0  0  0  0  0
  189.4110  178.1130  146.6810 C   0  0  2  0  0  3  0  0  0  0  0  0
  189.0360  176.9070  145.8390 C   0  0  0  0  0  2  0  0  0  0  0  0
  190.3730  176.9460  146.5440 C   0  0  1  0  0  3  0  0  0  0  0  0
  189.3450  178.3630  149.0530 O   0  0  0  0  0  1  0  0  0  0  0  0
  187.4140  177.5920  148.0930 O   0  0  0  0  0  0  0  0  0  0  0  0
  188.7240  178.0460  148.0050 C   0  0  0  0  0  0  0  0  0  0  0  0
  1 13  1  0  0  0  0
  2  1  2  0  0  0  0
  3  6  2  0  0  0  0
  3  7  1  0  0  0  0
  4  3  1  0  0  0  0
  5  1  1  0  0  0  0
  5 16  1  0  0  0  0
  6  2  1  0  0  0  0
  7  5  2  0  0  0  0
  8 10  1  0  0  0  0
  9  8  1  0  0  0  0
  9 12  2  0  0  0  0
 10 14  1  0  0  0  0
 10 11  2  0  0  0  0
 12 14  1  0  0  0  0
 13 12  1  0  0  0  0
 16 15  2  0  0  0  0
 16 18  1  0  0  0  0
 17 18  1  0  0  0  0
 18 19  1  1  0  0  0
 18 20  1  0  0  0  0
 20 21  2  0  0  0  0
 20 22  1  0  0  0  0
 23 28  1  1  0  0  0
 24 25  1  0  0  0  0
 24 23  1  0  0  0  0
 25 22  1  6  0  0  0
 25 23  1  0  0  0  0
 28 27  2  0  0  0  0
 28 26  1  0  0  0  0
M  END
>  <MODEL>
7

>  <REMARK>
 VINA RESULT:      -8.0      3.241      6.343
  Name = 
  7 active torsions:
  status: ('A' for Active; 'I' for Inactive)
    1  A    between atoms: O_1  and  C_17
    2  A    between atoms: O_1  and  C_20
    3  A    between atoms: C_2  and  C_22
    4  A    between atoms: C_3  and  N_27
    5  A    between atoms: C_10  and  C_17
    6  A    between atoms: C_10  and  C_26
    7  A    between atoms: C_18  and  C_26
                            x       y       z     vdW  Elec       q    Type
                         _______ _______ _______ _____ _____    ______ ____

>  <TORSDO>
F 7

$$$$
=
 OpenBabel10232408403D

 28 30  0  0  1  0  0  0  0  0999 V2000
  186.4170  178.0750  144.7900 C   0  0  0  0  0  0  0  0  0  0  0  0
  185.8660  178.5990  145.9640 C   0  0  0  0  0  3  0  0  0  0  0  0
  187.6820  177.7810  147.2260 C   0  0  0  0  0  0  0  0  0  0  0  0
  188.3330  177.6230  148.4800 N   0  0  0  0  0  1  0  0  0  0  0  0
  187.6530  177.4010  144.8820 C   0  0  0  0  0  0  0  0  0  0  0  0
  186.5040  178.4490  147.1510 N   0  0  0  0  0  0  0  0  0  0  0  0
  188.2400  177.2620  146.1030 N   0  0  0  0  0  0  0  0  0  0  0  0
  182.2130  178.9070  143.8020 N   0  0  0  0  0  2  0  0  0  0  0  0
  183.4950  178.6680  144.3020 N   0  0  0  0  0  0  0  0  0  0  0  0
  182.3160  178.8010  142.3950 C   0  0  0  0  0  0  0  0  0  0  0  0
  181.3430  178.9600  141.6130 O   0  0  0  0  0  0  0  0  0  0  0  0
  184.3250  178.4320  143.3360 C   0  0  0  0  0  0  0  0  0  0  0  0
  185.7180  178.1650  143.5380 N   0  0  0  0  0  2  0  0  0  0  0  0
  183.7030  178.4850  141.9770 C   0  0  0  0  0  2  0  0  0  0  0  0
  187.9800  175.6460  143.3480 O   0  0  0  0  0  0  0  0  0  0  0  0
  188.3400  176.8000  143.7130 C   0  0  0  0  0  0  0  0  0  0  0  0
  189.7710  178.7020  143.5880 O   0  0  0  0  0  1  0  0  0  0  0  0
  189.4610  177.4940  142.9560 C   0  0  1  0  0  0  0  0  0  0  0  0
  190.7060  176.6210  142.9870 C   0  0  0  0  0  1  0  0  0  0  0  0
  189.0860  177.7450  141.5070 C   0  0  0  0  0  0  0  0  0  0  0  0
  188.3800  178.7470  141.2090 O   0  0  0  0  0  0  0  0  0  0  0  0
  189.4580  176.8760  140.4740 O   0  0  0  0  0  0  0  0  0  0  0  0
  191.0400  176.0560  138.8720 C   0  0  2  0  0  3  0  0  0  0  0  0
  189.8010  176.5250  138.1320 C   0  0  0  0  0  2  0  0  0  0  0  0
  190.2630  177.2620  139.3700 C   0  0  1  0  0  3  0  0  0  0  0  0
  192.2690  176.5940  136.8980 O   0  0  0  0  0  0  0  0  0  0  0  0
  193.4280  176.7990  138.8630 O   0  0  0  0  0  1  0  0  0  0  0  0
  192.2680  176.5100  138.1540 C   0  0  0  0  0  0  0  0  0  0  0  0
  1  5  1  0  0  0  0
  1  2  2  0  0  0  0
  2  6  1  0  0  0  0
  3  4  1  0  0  0  0
  5  7  2  0  0  0  0
  6  3  2  0  0  0  0
  7  3  1  0  0  0  0
  8  9  1  0  0  0  0
 10  8  1  0  0  0  0
 11 10  2  0  0  0  0
 12 13  1  0  0  0  0
 12  9  2  0  0  0  0
 13  1  1  0  0  0  0
 14 10  1  0  0  0  0
 14 12  1  0  0  0  0
 15 16  2  0  0  0  0
 16  5  1  0  0  0  0
 18 19  1  1  0  0  0
 18 17  1  0  0  0  0
 18 16  1  0  0  0  0
 20 18  1  0  0  0  0
 21 20  2  0  0  0  0
 22 20  1  0  0  0  0
 23 28  1  6  0  0  0
 23 25  1  0  0  0  0
 24 23  1  0  0  0  0
 24 25  1  0  0  0  0
 25 22  1  1  0  0  0
 26 28  2  0  0  0  0
 28 27  1  0  0  0  0
M  END
>  <MODEL>
8

>  <REMARK>
 VINA RESULT:      -7.6      2.385      3.530
  Name = 
  7 active torsions:
  status: ('A' for Active; 'I' for Inactive)
    1  A    between atoms: O_1  and  C_17
    2  A    between atoms: O_1  and  C_20
    3  A    between atoms: C_2  and  C_22
    4  A    between atoms: C_3  and  N_27
    5  A    between atoms: C_10  and  C_17
    6  A    between atoms: C_10  and  C_26
    7  A    between atoms: C_18  and  C_26
                            x       y       z     vdW  Elec       q    Type
                         _______ _______ _______ _____ _____    ______ ____

>  <TORSDO>
F 7

$$$$
=
 OpenBabel10232408403D

 28 30  0  0  1  0  0  0  0  0999 V2000
  186.7270  177.9000  143.1720 C   0  0  0  0  0  0  0  0  0  0  0  0
  185.3340  177.9820  143.0790 C   0  0  0  0  0  3  0  0  0  0  0  0
  185.4970  178.9790  140.9480 C   0  0  0  0  0  0  0  0  0  0  0  0
  184.8660  179.5400  139.8040 N   0  0  0  0  0  1  0  0  0  0  0  0
  187.4920  178.3720  142.0840 C   0  0  0  0  0  0  0  0  0  0  0  0
  184.7470  178.5110  141.9760 N   0  0  0  0  0  0  0  0  0  0  0  0
  186.8520  178.9120  141.0110 N   0  0  0  0  0  0  0  0  0  0  0  0
  186.3670  179.0370  147.4050 N   0  0  0  0  0  2  0  0  0  0  0  0
  186.3450  178.8120  146.0270 N   0  0  0  0  0  0  0  0  0  0  0  0
  187.3080  178.1240  147.9360 C   0  0  0  0  0  0  0  0  0  0  0  0
  187.5860  178.0460  149.1610 O   0  0  0  0  0  0  0  0  0  0  0  0
  187.1740  177.8700  145.7050 C   0  0  0  0  0  0  0  0  0  0  0  0
  187.3630  177.4070  144.3620 N   0  0  0  0  0  2  0  0  0  0  0  0
  187.9100  177.2870  146.8700 C   0  0  0  0  0  2  0  0  0  0  0  0
  189.5910  179.3550  142.4940 O   0  0  0  0  0  0  0  0  0  0  0  0
  188.9740  178.3420  142.0610 C   0  0  0  0  0  0  0  0  0  0  0  0
  189.1330  176.6380  140.4010 O   0  0  0  0  0  1  0  0  0  0  0  0
  189.7770  177.1680  141.5240 C   0  0  1  0  0  0  0  0  0  0  0  0
  191.1500  177.6540  141.0860 C   0  0  0  0  0  1  0  0  0  0  0  0
  189.9630  176.0890  142.5750 C   0  0  0  0  0  0  0  0  0  0  0  0
  189.1850  175.0970  142.5950 O   0  0  0  0  0  0  0  0  0  0  0  0
  190.9470  176.1700  143.5670 O   0  0  0  0  0  0  0  0  0  0  0  0
  191.9820  176.5310  145.6980 C   0  0  2  0  0  3  0  0  0  0  0  0
  191.3850  177.8420  145.2210 C   0  0  0  0  0  2  0  0  0  0  0  0
  190.6820  176.5390  144.9130 C   0  0  1  0  0  3  0  0  0  0  0  0
  191.2720  177.2960  147.8450 O   0  0  0  0  0  1  0  0  0  0  0  0
  191.9240  175.1030  147.7500 O   0  0  0  0  0  0  0  0  0  0  0  0
  191.6910  176.3340  147.1490 C   0  0  0  0  0  0  0  0  0  0  0  0
  1 13  1  0  0  0  0
  2  1  2  0  0  0  0
  3  7  1  0  0  0  0
  3  6  2  0  0  0  0
  4  3  1  0  0  0  0
  5  1  1  0  0  0  0
  6  2  1  0  0  0  0
  7  5  2  0  0  0  0
  8 10  1  0  0  0  0
  9  8  1  0  0  0  0
 10 11  2  0  0  0  0
 12  9  2  0  0  0  0
 12 14  1  0  0  0  0
 13 12  1  0  0  0  0
 14 10  1  0  0  0  0
 16  5  1  0  0  0  0
 16 15  2  0  0  0  0
 17 18  1  0  0  0  0
 18 19  1  6  0  0  0
 18 16  1  0  0  0  0
 18 20  1  0  0  0  0
 20 21  2  0  0  0  0
 20 22  1  0  0  0  0
 23 28  1  1  0  0  0
 24 23  1  0  0  0  0
 25 22  1  6  0  0  0
 25 24  1  0  0  0  0
 25 23  1  0  0  0  0
 28 27  2  0  0  0  0
 28 26  1  0  0  0  0
M  END
>  <MODEL>
9

>  <REMARK>
 VINA RESULT:      -7.3      2.958      6.228
  Name = 
  7 active torsions:
  status: ('A' for Active; 'I' for Inactive)
    1  A    between atoms: O_1  and  C_17
    2  A    between atoms: O_1  and  C_20
    3  A    between atoms: C_2  and  C_22
    4  A    between atoms: C_3  and  N_27
    5  A    between atoms: C_10  and  C_17
    6  A    between atoms: C_10  and  C_26
    7  A    between atoms: C_18  and  C_26
                            x       y       z     vdW  Elec       q    Type
                         _______ _______ _______ _____ _____    ______ ____

>  <TORSDO>
F 7

$$$$
