=
 OpenBabel10232412413D

 37 42  0  0  1  0  0  0  0  0999 V2000
  187.9960  177.1830  135.3470 N   0  0  0  0  0  2  0  0  0  0  0  0
  187.4780  177.6750  137.6520 C   0  0  1  0  0  0  0  0  0  0  0  0
  187.3490  176.1810  137.4240 C   0  0  0  0  0  2  0  0  0  0  0  0
  187.3860  175.9970  135.9180 C   0  0  0  0  0  2  0  0  0  0  0  0
  187.6580  178.2640  136.2590 C   0  0  0  0  0  2  0  0  0  0  0  0
  184.3760  179.0230  142.1690 C   0  0  0  0  0  3  0  0  0  0  0  0
  181.7310  178.4110  141.1920 C   0  0  0  0  0  0  0  0  0  0  0  0
  181.9800  178.4710  142.6850 C   0  0  1  0  0  3  0  0  0  0  0  0
  184.1910  178.6440  138.5950 C   0  0  0  0  0  0  0  0  0  0  0  0
  183.4190  178.7710  143.0870 C   0  0  0  0  0  0  0  0  0  0  0  0
  184.8830  179.0200  139.6640 C   0  0  0  0  0  0  0  0  0  0  0  0
  186.2020  178.1760  138.2900 C   0  0  0  0  0  0  0  0  0  0  0  0
  184.9810  178.0660  137.6810 N   0  0  0  0  0  0  0  0  0  0  0  0
  184.0420  179.0130  140.7360 C   0  0  0  0  0  0  0  0  0  0  0  0
  186.1730  178.7130  139.5490 N   0  0  0  0  0  2  0  0  0  0  0  0
  182.8150  178.6690  140.2860 N   0  0  0  0  0  0  0  0  0  0  0  0
  182.8850  178.3750  138.9570 C   0  0  0  0  0  3  0  0  0  0  0  0
  180.5880  178.1090  140.7670 O   0  0  0  0  0  0  0  0  0  0  0  0
  181.0840  179.4340  143.3160 N   0  0  0  0  0  1  0  0  0  0  0  0
  183.7300  178.7490  144.4570 O   0  0  0  0  0  0  0  0  0  0  0  0
  185.0030  179.0980  144.9770 C   0  0  0  0  0  1  0  0  0  0  0  0
  189.0760  179.1910  138.5400 O   0  0  0  0  0  0  0  0  0  0  0  0
  188.7080  178.0280  138.4730 C   0  0  0  0  0  0  0  0  0  0  0  0
  189.5620  176.9270  139.0810 C   0  0  2  0  0  3  0  0  0  0  0  0
  189.5510  176.8680  140.6110 C   0  0  1  0  0  3  0  0  0  0  0  0
  190.7430  177.4540  139.8780 C   0  0  0  0  0  2  0  0  0  0  0  0
  188.7900  177.9500  141.2350 N   0  0  0  0  0  2  0  0  0  0  0  0
  188.1340  177.3670  142.3920 C   0  0  0  0  0  2  0  0  0  0  0  0
  189.1790  176.7530  143.3130 C   0  0  0  0  0  2  0  0  0  0  0  0
  191.9740  177.0050  143.0330 O   0  0  0  0  0  0  0  0  0  0  0  0
  191.9100  179.2260  144.2400 O   0  0  0  0  0  0  0  0  0  0  0  0
  191.3870  177.8210  144.1520 S   0  0  0  0  0  0  0  0  0  0  0  0
  189.6650  177.7600  144.2460 N   0  0  0  0  0  0  0  0  0  0  0  0
  189.7160  177.1330  145.5780 C   0  0  1  0  0  3  0  0  0  0  0  0
  191.2410  177.0230  145.7080 C   0  0  0  0  0  2  0  0  0  0  0  0
  188.3670  177.2710  147.3360 C   0  0  0  0  0  1  0  0  0  0  0  0
  189.2310  178.0360  146.5260 O   0  0  0  0  0  0  0  0  0  0  0  0
  1  4  1  0  0  0  0
  1  5  1  0  0  0  0
  2 12  1  0  0  0  0
  2 23  1  1  0  0  0
  3  2  1  0  0  0  0
  4  3  1  0  0  0  0
  5  2  1  0  0  0  0
  6 10  2  0  0  0  0
  7  8  1  0  0  0  0
  8 10  1  0  0  0  0
  8 19  1  6  0  0  0
  9 17  2  0  0  0  0
  9 11  1  0  0  0  0
 10 20  1  0  0  0  0
 11 14  2  0  0  0  0
 12 15  1  0  0  0  0
 13 12  2  0  0  0  0
 13  9  1  0  0  0  0
 14  6  1  0  0  0  0
 15 11  1  0  0  0  0
 16 14  1  0  0  0  0
 16  7  1  0  0  0  0
 17 16  1  0  0  0  0
 18  7  2  0  0  0  0
 20 21  1  0  0  0  0
 23 22  2  0  0  0  0
 24 23  1  1  0  0  0
 24 26  1  0  0  0  0
 24 25  1  0  0  0  0
 25 27  1  1  0  0  0
 26 25  1  0  0  0  0
 27 28  1  0  0  0  0
 28 29  1  0  0  0  0
 29 33  1  0  0  0  0
 30 32  2  0  0  0  0
 32 31  2  0  0  0  0
 32 33  1  0  0  0  0
 32 35  1  0  0  0  0
 33 34  1  0  0  0  0
 34 35  1  0  0  0  0
 34 37  1  1  0  0  0
 37 36  1  0  0  0  0
M  END
>  <MODEL>
1

>  <REMARK>
 VINA RESULT:      -8.0      0.000      0.000
  Name = 
  9 active torsions:
  status: ('A' for Active; 'I' for Inactive)
    1  A    between atoms: C_6  and  C_35
    2  A    between atoms: C_7  and  N_14
    3  A    between atoms: C_7  and  C_22
    4  A    between atoms: C_8  and  C_18
    5  A    between atoms: C_8  and  C_35
    6  A    between atoms: C_9  and  N_33
    7  A    between atoms: C_13  and  O_17
    8  A    between atoms: C_20  and  O_28
    9  A    between atoms: C_22  and  N_33
                            x       y       z     vdW  Elec       q    Type
                         _______ _______ _______ _____ _____    ______ ____

>  <TORSDO>
F 9

$$$$
=
 OpenBabel10232412413D

 37 42  0  0  1  0  0  0  0  0999 V2000
  192.2310  178.2400  144.6000 N   0  0  0  0  0  2  0  0  0  0  0  0
  190.2740  177.6550  143.3130 C   0  0  1  0  0  0  0  0  0  0  0  0
  190.6070  179.1150  143.0720 C   0  0  0  0  0  2  0  0  0  0  0  0
  191.6350  179.4760  144.1280 C   0  0  0  0  0  2  0  0  0  0  0  0
  191.1890  177.2350  144.4560 C   0  0  0  0  0  2  0  0  0  0  0  0
  184.7600  178.1420  142.2160 C   0  0  0  0  0  3  0  0  0  0  0  0
  183.7620  178.8310  144.8340 C   0  0  0  0  0  0  0  0  0  0  0  0
  182.9380  179.1680  143.6090 C   0  0  1  0  0  3  0  0  0  0  0  0
  187.0880  177.4970  144.8830 C   0  0  0  0  0  0  0  0  0  0  0  0
  183.5760  178.7880  142.2780 C   0  0  0  0  0  0  0  0  0  0  0  0
  186.7510  177.3470  143.6080 C   0  0  0  0  0  0  0  0  0  0  0  0
  188.8210  177.5550  143.7200 C   0  0  0  0  0  0  0  0  0  0  0  0
  188.4100  177.6640  145.0220 N   0  0  0  0  0  0  0  0  0  0  0  0
  185.4710  177.7880  143.4550 C   0  0  0  0  0  0  0  0  0  0  0  0
  187.8120  177.4140  142.8060 N   0  0  0  0  0  2  0  0  0  0  0  0
  185.0240  178.1650  144.6730 N   0  0  0  0  0  0  0  0  0  0  0  0
  186.0330  178.0500  145.5830 C   0  0  0  0  0  3  0  0  0  0  0  0
  183.3440  179.1640  145.9710 O   0  0  0  0  0  0  0  0  0  0  0  0
  181.6100  178.5720  143.7040 N   0  0  0  0  0  1  0  0  0  0  0  0
  182.9010  179.1570  141.1030 O   0  0  0  0  0  0  0  0  0  0  0  0
  182.3470  178.2220  140.1910 C   0  0  0  0  0  1  0  0  0  0  0  0
  190.4280  175.5750  142.1760 O   0  0  0  0  0  0  0  0  0  0  0  0
  190.5960  176.7850  142.1100 C   0  0  0  0  0  0  0  0  0  0  0  0
  191.2620  177.3900  140.8860 C   0  0  2  0  0  3  0  0  0  0  0  0
  190.3250  177.6640  139.7050 C   0  0  1  0  0  3  0  0  0  0  0  0
  191.2560  176.4660  139.6800 C   0  0  0  0  0  2  0  0  0  0  0  0
  188.9550  177.2050  139.9250 N   0  0  0  0  0  2  0  0  0  0  0  0
  188.1090  178.0390  139.0880 C   0  0  0  0  0  2  0  0  0  0  0  0
  188.1450  177.5230  137.6570 C   0  0  0  0  0  2  0  0  0  0  0  0
  190.3220  176.3200  136.3250 O   0  0  0  0  0  0  0  0  0  0  0  0
  189.7300  174.0840  137.3480 O   0  0  0  0  0  0  0  0  0  0  0  0
  189.2360  175.3610  136.7310 S   0  0  0  0  0  0  0  0  0  0  0  0
  187.9640  176.0770  137.6500 N   0  0  0  0  0  0  0  0  0  0  0  0
  186.9740  175.7660  136.6050 C   0  0  1  0  0  3  0  0  0  0  0  0
  187.9280  175.1300  135.5840 C   0  0  0  0  0  2  0  0  0  0  0  0
  184.8230  175.4100  137.0260 C   0  0  0  0  0  1  0  0  0  0  0  0
  186.0920  174.7970  137.0850 O   0  0  0  0  0  0  0  0  0  0  0  0
  2 23  1  6  0  0  0
  2 12  1  0  0  0  0
  2  5  1  0  0  0  0
  3  2  1  0  0  0  0
  3  4  1  0  0  0  0
  4  1  1  0  0  0  0
  5  1  1  0  0  0  0
  6 10  2  0  0  0  0
  6 14  1  0  0  0  0
  7 18  2  0  0  0  0
  8 19  1  1  0  0  0
  8  7  1  0  0  0  0
  9 13  1  0  0  0  0
  9 17  2  0  0  0  0
 10  8  1  0  0  0  0
 11  9  1  0  0  0  0
 12 13  2  0  0  0  0
 14 11  2  0  0  0  0
 14 16  1  0  0  0  0
 15 11  1  0  0  0  0
 15 12  1  0  0  0  0
 16  7  1  0  0  0  0
 16 17  1  0  0  0  0
 20 10  1  0  0  0  0
 21 20  1  0  0  0  0
 23 22  2  0  0  0  0
 24 23  1  1  0  0  0
 25 27  1  1  0  0  0
 25 24  1  0  0  0  0
 26 25  1  0  0  0  0
 26 24  1  0  0  0  0
 28 27  1  0  0  0  0
 29 28  1  0  0  0  0
 30 32  2  0  0  0  0
 32 31  2  0  0  0  0
 32 33  1  0  0  0  0
 33 29  1  0  0  0  0
 34 37  1  1  0  0  0
 34 33  1  0  0  0  0
 35 34  1  0  0  0  0
 35 32  1  0  0  0  0
 36 37  1  0  0  0  0
M  END
>  <MODEL>
2

>  <REMARK>
 VINA RESULT:      -7.3      2.623      6.445
  Name = 
  9 active torsions:
  status: ('A' for Active; 'I' for Inactive)
    1  A    between atoms: C_6  and  C_35
    2  A    between atoms: C_7  and  N_14
    3  A    between atoms: C_7  and  C_22
    4  A    between atoms: C_8  and  C_18
    5  A    between atoms: C_8  and  C_35
    6  A    between atoms: C_9  and  N_33
    7  A    between atoms: C_13  and  O_17
    8  A    between atoms: C_20  and  O_28
    9  A    between atoms: C_22  and  N_33
                            x       y       z     vdW  Elec       q    Type
                         _______ _______ _______ _____ _____    ______ ____

>  <TORSDO>
F 9

$$$$
=
 OpenBabel10232412413D

 37 42  0  0  1  0  0  0  0  0999 V2000
  180.8260  178.4290  139.1860 N   0  0  0  0  0  2  0  0  0  0  0  0
  183.0650  178.4080  140.0880 C   0  0  1  0  0  0  0  0  0  0  0  0
  182.5200  176.9930  140.0850 C   0  0  0  0  0  2  0  0  0  0  0  0
  181.0360  177.1310  139.8020 C   0  0  0  0  0  2  0  0  0  0  0  0
  181.8700  179.2820  139.7310 C   0  0  0  0  0  2  0  0  0  0  0  0
  186.9740  178.0960  144.1460 C   0  0  0  0  0  3  0  0  0  0  0  0
  185.3010  178.1850  146.4950 C   0  0  0  0  0  0  0  0  0  0  0  0
  186.6990  177.6110  146.5960 C   0  0  1  0  0  3  0  0  0  0  0  0
  183.6150  179.2180  143.5060 C   0  0  0  0  0  0  0  0  0  0  0  0
  187.4810  177.5840  145.2880 C   0  0  0  0  0  0  0  0  0  0  0  0
  184.8620  179.0610  143.0770 C   0  0  0  0  0  0  0  0  0  0  0  0
  183.5710  178.7250  141.4770 C   0  0  0  0  0  0  0  0  0  0  0  0
  182.7300  178.9880  142.5260 N   0  0  0  0  0  0  0  0  0  0  0  0
  185.6320  178.6990  144.1420 C   0  0  0  0  0  0  0  0  0  0  0  0
  184.9020  178.7060  141.7950 N   0  0  0  0  0  2  0  0  0  0  0  0
  184.8340  178.6850  145.2320 N   0  0  0  0  0  0  0  0  0  0  0  0
  183.5500  178.9490  144.8590 C   0  0  0  0  0  3  0  0  0  0  0  0
  184.5610  178.1910  147.5090 O   0  0  0  0  0  0  0  0  0  0  0  0
  187.4710  178.3150  147.6140 N   0  0  0  0  0  1  0  0  0  0  0  0
  188.7490  176.9800  145.2990 O   0  0  0  0  0  0  0  0  0  0  0  0
  189.9230  177.6130  144.8160 C   0  0  0  0  0  1  0  0  0  0  0  0
  184.5910  179.7340  138.8400 O   0  0  0  0  0  0  0  0  0  0  0  0
  184.1320  178.6160  139.0260 C   0  0  0  0  0  0  0  0  0  0  0  0
  184.5200  177.4760  138.0990 C   0  0  2  0  0  3  0  0  0  0  0  0
  186.0250  177.3080  137.8700 C   0  0  1  0  0  3  0  0  0  0  0  0
  185.1560  177.9460  136.8020 C   0  0  0  0  0  2  0  0  0  0  0  0
  186.8350  178.3420  138.5120 N   0  0  0  0  0  2  0  0  0  0  0  0
  188.0790  178.4040  137.7640 C   0  0  0  0  0  2  0  0  0  0  0  0
  189.2490  178.5010  138.7330 C   0  0  0  0  0  2  0  0  0  0  0  0
  188.9950  178.7910  141.5270 O   0  0  0  0  0  0  0  0  0  0  0  0
  188.7280  176.2880  141.7770 O   0  0  0  0  0  0  0  0  0  0  0  0
  189.4290  177.4210  141.0830 S   0  0  0  0  0  0  0  0  0  0  0  0
  189.4670  177.2090  139.3710 N   0  0  0  0  0  0  0  0  0  0  0  0
  190.9210  176.9720  139.3890 C   0  0  1  0  0  3  0  0  0  0  0  0
  191.1560  177.1710  140.8920 C   0  0  0  0  0  2  0  0  0  0  0  0
  191.5690  175.6850  137.6990 C   0  0  0  0  0  1  0  0  0  0  0  0
  191.1700  175.6410  139.0510 O   0  0  0  0  0  0  0  0  0  0  0  0
  1  5  1  0  0  0  0
  1  4  1  0  0  0  0
  2 23  1  6  0  0  0
  2 12  1  0  0  0  0
  3  2  1  0  0  0  0
  4  3  1  0  0  0  0
  5  2  1  0  0  0  0
  6 10  2  0  0  0  0
  7  8  1  0  0  0  0
  7 18  2  0  0  0  0
  8 19  1  1  0  0  0
  9 17  2  0  0  0  0
 10 20  1  0  0  0  0
 10  8  1  0  0  0  0
 11  9  1  0  0  0  0
 11 14  2  0  0  0  0
 12 15  1  0  0  0  0
 12 13  2  0  0  0  0
 13  9  1  0  0  0  0
 14  6  1  0  0  0  0
 14 16  1  0  0  0  0
 15 11  1  0  0  0  0
 16  7  1  0  0  0  0
 17 16  1  0  0  0  0
 21 20  1  0  0  0  0
 22 23  2  0  0  0  0
 24 23  1  1  0  0  0
 25 24  1  0  0  0  0
 25 27  1  1  0  0  0
 26 25  1  0  0  0  0
 26 24  1  0  0  0  0
 28 27  1  0  0  0  0
 28 29  1  0  0  0  0
 29 33  1  0  0  0  0
 32 30  2  0  0  0  0
 32 31  2  0  0  0  0
 33 34  1  0  0  0  0
 33 32  1  0  0  0  0
 34 37  1  1  0  0  0
 34 35  1  0  0  0  0
 35 32  1  0  0  0  0
 36 37  1  0  0  0  0
M  END
>  <MODEL>
3

>  <REMARK>
 VINA RESULT:      -7.3      2.288      5.660
  Name = 
  9 active torsions:
  status: ('A' for Active; 'I' for Inactive)
    1  A    between atoms: C_6  and  C_35
    2  A    between atoms: C_7  and  N_14
    3  A    between atoms: C_7  and  C_22
    4  A    between atoms: C_8  and  C_18
    5  A    between atoms: C_8  and  C_35
    6  A    between atoms: C_9  and  N_33
    7  A    between atoms: C_13  and  O_17
    8  A    between atoms: C_20  and  O_28
    9  A    between atoms: C_22  and  N_33
                            x       y       z     vdW  Elec       q    Type
                         _______ _______ _______ _____ _____    ______ ____

>  <TORSDO>
F 9

$$$$
=
 OpenBabel10232412413D

 37 42  0  0  1  0  0  0  0  0999 V2000
  187.9260  179.1830  136.9710 N   0  0  0  0  0  2  0  0  0  0  0  0
  189.0850  177.3160  137.9680 C   0  0  1  0  0  0  0  0  0  0  0  0
  187.5940  177.0370  137.9800 C   0  0  0  0  0  2  0  0  0  0  0  0
  186.9320  178.3560  137.6290 C   0  0  0  0  0  2  0  0  0  0  0  0
  189.2010  178.7720  137.5370 C   0  0  0  0  0  2  0  0  0  0  0  0
  188.3590  176.7800  143.5390 C   0  0  0  0  0  3  0  0  0  0  0  0
  190.8170  177.9420  144.5030 C   0  0  0  0  0  0  0  0  0  0  0  0
  189.6190  177.8590  145.4250 C   0  0  1  0  0  3  0  0  0  0  0  0
  190.9040  177.1180  141.0160 C   0  0  0  0  0  0  0  0  0  0  0  0
  188.3650  177.2560  144.8010 C   0  0  0  0  0  0  0  0  0  0  0  0
  189.7300  176.6200  141.3880 C   0  0  0  0  0  0  0  0  0  0  0  0
  189.6210  177.1230  139.3690 C   0  0  0  0  0  0  0  0  0  0  0  0
  190.8910  177.4890  139.7290 N   0  0  0  0  0  0  0  0  0  0  0  0
  189.5840  176.8350  142.7250 C   0  0  0  0  0  0  0  0  0  0  0  0
  188.8510  176.6320  140.3880 N   0  0  0  0  0  2  0  0  0  0  0  0
  190.7130  177.4320  143.1650 N   0  0  0  0  0  0  0  0  0  0  0  0
  191.5390  177.6780  142.1090 C   0  0  0  0  0  3  0  0  0  0  0  0
  191.8760  178.4810  144.9120 O   0  0  0  0  0  0  0  0  0  0  0  0
  189.9580  177.1310  146.6440 N   0  0  0  0  0  1  0  0  0  0  0  0
  187.1960  177.2360  145.5800 O   0  0  0  0  0  0  0  0  0  0  0  0
  186.6000  178.4010  146.1280 C   0  0  0  0  0  1  0  0  0  0  0  0
  190.0340  176.9090  135.8290 O   0  0  0  0  0  0  0  0  0  0  0  0
  189.8220  176.4640  136.9480 C   0  0  0  0  0  0  0  0  0  0  0  0
  190.1610  175.0170  137.2640 C   0  0  2  0  0  3  0  0  0  0  0  0
  191.6580  174.7090  137.3730 C   0  0  1  0  0  3  0  0  0  0  0  0
  190.8840  174.3080  136.1310 C   0  0  0  0  0  2  0  0  0  0  0  0
  192.5160  175.8500  137.0580 N   0  0  0  0  0  2  0  0  0  0  0  0
  193.3820  175.4180  135.9740 C   0  0  0  0  0  2  0  0  0  0  0  0
  194.8360  175.5710  136.3960 C   0  0  0  0  0  2  0  0  0  0  0  0
  195.1640  175.3280  139.1870 O   0  0  0  0  0  0  0  0  0  0  0  0
  195.3760  172.8180  138.9580 O   0  0  0  0  0  0  0  0  0  0  0  0
  195.7080  174.1710  138.3950 S   0  0  0  0  0  0  0  0  0  0  0  0
  195.4010  174.2630  136.7000 N   0  0  0  0  0  0  0  0  0  0  0  0
  196.8410  174.3290  136.3980 C   0  0  1  0  0  3  0  0  0  0  0  0
  197.3670  174.3160  137.8400 C   0  0  0  0  0  2  0  0  0  0  0  0
  197.9060  173.5890  134.5950 C   0  0  0  0  0  1  0  0  0  0  0  0
  197.2260  173.1530  135.7510 O   0  0  0  0  0  0  0  0  0  0  0  0
  1  5  1  0  0  0  0
  1  4  1  0  0  0  0
  2 23  1  6  0  0  0
  2  3  1  0  0  0  0
  2 12  1  0  0  0  0
  4  3  1  0  0  0  0
  5  2  1  0  0  0  0
  6 10  2  0  0  0  0
  7 18  2  0  0  0  0
  7  8  1  0  0  0  0
  8 19  1  1  0  0  0
  9 11  1  0  0  0  0
  9 17  2  0  0  0  0
 10  8  1  0  0  0  0
 10 20  1  0  0  0  0
 11 14  2  0  0  0  0
 12 13  2  0  0  0  0
 12 15  1  0  0  0  0
 13  9  1  0  0  0  0
 14 16  1  0  0  0  0
 14  6  1  0  0  0  0
 15 11  1  0  0  0  0
 16  7  1  0  0  0  0
 17 16  1  0  0  0  0
 20 21  1  0  0  0  0
 22 23  2  0  0  0  0
 24 23  1  6  0  0  0
 24 25  1  0  0  0  0
 25 27  1  6  0  0  0
 26 24  1  0  0  0  0
 26 25  1  0  0  0  0
 28 29  1  0  0  0  0
 28 27  1  0  0  0  0
 29 33  1  0  0  0  0
 32 31  2  0  0  0  0
 32 30  2  0  0  0  0
 33 32  1  0  0  0  0
 34 37  1  6  0  0  0
 34 33  1  0  0  0  0
 34 35  1  0  0  0  0
 35 32  1  0  0  0  0
 36 37  1  0  0  0  0
M  END
>  <MODEL>
4

>  <REMARK>
 VINA RESULT:      -7.2      4.354      7.534
  Name = 
  9 active torsions:
  status: ('A' for Active; 'I' for Inactive)
    1  A    between atoms: C_6  and  C_35
    2  A    between atoms: C_7  and  N_14
    3  A    between atoms: C_7  and  C_22
    4  A    between atoms: C_8  and  C_18
    5  A    between atoms: C_8  and  C_35
    6  A    between atoms: C_9  and  N_33
    7  A    between atoms: C_13  and  O_17
    8  A    between atoms: C_20  and  O_28
    9  A    between atoms: C_22  and  N_33
                            x       y       z     vdW  Elec       q    Type
                         _______ _______ _______ _____ _____    ______ ____

>  <TORSDO>
F 9

$$$$
=
 OpenBabel10232412413D

 37 42  0  0  1  0  0  0  0  0999 V2000
  192.1660  175.6080  146.1700 N   0  0  0  0  0  2  0  0  0  0  0  0
  190.6370  177.2260  145.2360 C   0  0  1  0  0  0  0  0  0  0  0  0
  191.0570  177.6830  146.6200 C   0  0  0  0  0  2  0  0  0  0  0  0
  191.7550  176.4910  147.2470 C   0  0  0  0  0  2  0  0  0  0  0  0
  191.1850  175.8100  145.1160 C   0  0  0  0  0  2  0  0  0  0  0  0
  185.7890  178.1370  142.4950 C   0  0  0  0  0  3  0  0  0  0  0  0
  184.0710  178.8670  144.6950 C   0  0  0  0  0  0  0  0  0  0  0  0
  183.6970  179.2800  143.2870 C   0  0  1  0  0  3  0  0  0  0  0  0
  187.1180  177.2880  145.7300 C   0  0  0  0  0  0  0  0  0  0  0  0
  184.6920  178.8690  142.2090 C   0  0  0  0  0  0  0  0  0  0  0  0
  187.1870  177.1790  144.4080 C   0  0  0  0  0  0  0  0  0  0  0  0
  189.1270  177.2290  145.1660 C   0  0  0  0  0  0  0  0  0  0  0  0
  188.3380  177.3530  146.2790 N   0  0  0  0  0  0  0  0  0  0  0  0
  186.0520  177.7160  143.8810 C   0  0  0  0  0  0  0  0  0  0  0  0
  188.4480  177.1760  143.9800 N   0  0  0  0  0  2  0  0  0  0  0  0
  185.2720  178.1100  144.9120 N   0  0  0  0  0  0  0  0  0  0  0  0
  185.9360  177.9090  146.0860 C   0  0  0  0  0  3  0  0  0  0  0  0
  183.3420  179.2150  145.6570 O   0  0  0  0  0  0  0  0  0  0  0  0
  182.3680  178.7830  142.9440 N   0  0  0  0  0  1  0  0  0  0  0  0
  184.4440  179.3020  140.8950 O   0  0  0  0  0  0  0  0  0  0  0  0
  185.1200  178.7860  139.7600 C   0  0  0  0  0  1  0  0  0  0  0  0
  191.0950  179.2770  144.1290 O   0  0  0  0  0  0  0  0  0  0  0  0
  191.2650  178.0670  144.1360 C   0  0  0  0  0  0  0  0  0  0  0  0
  191.9730  177.3950  142.9710 C   0  0  2  0  0  3  0  0  0  0  0  0
  191.2520  177.5000  141.6240 C   0  0  1  0  0  3  0  0  0  0  0  0
  191.2130  176.2040  142.4120 C   0  0  0  0  0  2  0  0  0  0  0  0
  189.9460  178.1530  141.7080 N   0  0  0  0  0  2  0  0  0  0  0  0
  189.1650  177.6390  140.5970 C   0  0  0  0  0  2  0  0  0  0  0  0
  190.0140  177.6430  139.3340 C   0  0  0  0  0  2  0  0  0  0  0  0
  192.4120  176.5300  138.3490 O   0  0  0  0  0  0  0  0  0  0  0  0
  191.2100  174.3680  137.8240 O   0  0  0  0  0  0  0  0  0  0  0  0
  191.1630  175.8690  137.8330 S   0  0  0  0  0  0  0  0  0  0  0  0
  189.7030  176.4710  138.5270 N   0  0  0  0  0  0  0  0  0  0  0  0
  189.2290  176.9550  137.2190 C   0  0  1  0  0  3  0  0  0  0  0  0
  190.4550  176.5620  136.3840 C   0  0  0  0  0  2  0  0  0  0  0  0
  187.0440  177.0910  136.8460 C   0  0  0  0  0  1  0  0  0  0  0  0
  188.1300  176.1920  136.8210 O   0  0  0  0  0  0  0  0  0  0  0  0
  1  4  1  0  0  0  0
  2 23  1  6  0  0  0
  2  3  1  0  0  0  0
  3  4  1  0  0  0  0
  5  2  1  0  0  0  0
  5  1  1  0  0  0  0
  6 14  1  0  0  0  0
  7 16  1  0  0  0  0
  7 18  2  0  0  0  0
  8 19  1  6  0  0  0
  8  7  1  0  0  0  0
  9 17  2  0  0  0  0
  9 13  1  0  0  0  0
 10  6  2  0  0  0  0
 10  8  1  0  0  0  0
 11  9  1  0  0  0  0
 12  2  1  0  0  0  0
 12 13  2  0  0  0  0
 14 11  2  0  0  0  0
 14 16  1  0  0  0  0
 15 11  1  0  0  0  0
 15 12  1  0  0  0  0
 16 17  1  0  0  0  0
 20 10  1  0  0  0  0
 21 20  1  0  0  0  0
 22 23  2  0  0  0  0
 24 23  1  1  0  0  0
 25 27  1  1  0  0  0
 25 26  1  0  0  0  0
 25 24  1  0  0  0  0
 26 24  1  0  0  0  0
 28 27  1  0  0  0  0
 29 28  1  0  0  0  0
 31 32  2  0  0  0  0
 32 30  2  0  0  0  0
 32 33  1  0  0  0  0
 33 29  1  0  0  0  0
 34 37  1  6  0  0  0
 34 33  1  0  0  0  0
 35 34  1  0  0  0  0
 35 32  1  0  0  0  0
 37 36  1  0  0  0  0
M  END
>  <MODEL>
5

>  <REMARK>
 VINA RESULT:      -7.0      2.539      6.746
  Name = 
  9 active torsions:
  status: ('A' for Active; 'I' for Inactive)
    1  A    between atoms: C_6  and  C_35
    2  A    between atoms: C_7  and  N_14
    3  A    between atoms: C_7  and  C_22
    4  A    between atoms: C_8  and  C_18
    5  A    between atoms: C_8  and  C_35
    6  A    between atoms: C_9  and  N_33
    7  A    between atoms: C_13  and  O_17
    8  A    between atoms: C_20  and  O_28
    9  A    between atoms: C_22  and  N_33
                            x       y       z     vdW  Elec       q    Type
                         _______ _______ _______ _____ _____    ______ ____

>  <TORSDO>
F 9

$$$$
=
 OpenBabel10232412413D

 37 42  0  0  1  0  0  0  0  0999 V2000
  180.8560  177.6790  138.6740 N   0  0  0  0  0  2  0  0  0  0  0  0
  183.1230  177.8370  139.4880 C   0  0  1  0  0  0  0  0  0  0  0  0
  182.6490  176.4020  139.6190 C   0  0  0  0  0  2  0  0  0  0  0  0
  181.1510  176.4470  139.3820 C   0  0  0  0  0  2  0  0  0  0  0  0
  181.8740  178.6220  139.1090 C   0  0  0  0  0  2  0  0  0  0  0  0
  187.0050  177.7230  143.5820 C   0  0  0  0  0  3  0  0  0  0  0  0
  185.3550  178.2680  145.8850 C   0  0  0  0  0  0  0  0  0  0  0  0
  186.6970  177.5920  146.0720 C   0  0  1  0  0  3  0  0  0  0  0  0
  183.7550  179.0400  142.7730 C   0  0  0  0  0  0  0  0  0  0  0  0
  187.4690  177.3250  144.7850 C   0  0  0  0  0  0  0  0  0  0  0  0
  184.9820  178.7190  142.3790 C   0  0  0  0  0  0  0  0  0  0  0  0
  183.6600  178.2890  140.8260 C   0  0  0  0  0  0  0  0  0  0  0  0
  182.8500  178.7610  141.8250 N   0  0  0  0  0  0  0  0  0  0  0  0
  185.7200  178.4350  143.4880 C   0  0  0  0  0  0  0  0  0  0  0  0
  184.9850  178.1960  141.1540 N   0  0  0  0  0  2  0  0  0  0  0  0
  184.9290  178.6350  144.5640 N   0  0  0  0  0  0  0  0  0  0  0  0
  183.6710  178.9590  144.1490 C   0  0  0  0  0  3  0  0  0  0  0  0
  184.6220  178.4730  146.8840 O   0  0  0  0  0  0  0  0  0  0  0  0
  187.5320  178.3550  146.9940 N   0  0  0  0  0  1  0  0  0  0  0  0
  188.6800  176.6180  144.8860 O   0  0  0  0  0  0  0  0  0  0  0  0
  189.9550  177.2360  144.8160 C   0  0  0  0  0  1  0  0  0  0  0  0
  185.1130  178.7290  138.5460 O   0  0  0  0  0  0  0  0  0  0  0  0
  184.1410  178.0080  138.3720 C   0  0  0  0  0  0  0  0  0  0  0  0
  183.8790  177.4090  137.0000 C   0  0  2  0  0  3  0  0  0  0  0  0
  184.7500  176.2010  136.6410 C   0  0  1  0  0  3  0  0  0  0  0  0
  185.0480  177.5640  136.0430 C   0  0  0  0  0  2  0  0  0  0  0  0
  185.7600  175.8860  137.6500 N   0  0  0  0  0  2  0  0  0  0  0  0
  186.7560  175.0660  136.9820 C   0  0  0  0  0  2  0  0  0  0  0  0
  188.1450  175.6030  137.2910 C   0  0  0  0  0  2  0  0  0  0  0  0
  189.0470  177.6500  135.5710 O   0  0  0  0  0  0  0  0  0  0  0  0
  187.9020  179.3850  137.0120 O   0  0  0  0  0  0  0  0  0  0  0  0
  188.7010  178.1140  136.9600 S   0  0  0  0  0  0  0  0  0  0  0  0
  188.0370  176.8860  137.9730 N   0  0  0  0  0  0  0  0  0  0  0  0
  189.1710  176.9810  138.9070 C   0  0  1  0  0  3  0  0  0  0  0  0
  189.9870  178.0390  138.1520 C   0  0  0  0  0  2  0  0  0  0  0  0
  189.5660  176.9410  141.0920 C   0  0  0  0  0  1  0  0  0  0  0  0
  188.7240  177.5140  140.1170 O   0  0  0  0  0  0  0  0  0  0  0  0
  1  5  1  0  0  0  0
  1  4  1  0  0  0  0
  2 23  1  6  0  0  0
  2  3  1  0  0  0  0
  2 12  1  0  0  0  0
  4  3  1  0  0  0  0
  5  2  1  0  0  0  0
  6 10  2  0  0  0  0
  7  8  1  0  0  0  0
  7 18  2  0  0  0  0
  8 19  1  1  0  0  0
  9 17  2  0  0  0  0
 10 20  1  0  0  0  0
 10  8  1  0  0  0  0
 11  9  1  0  0  0  0
 11 14  2  0  0  0  0
 12 15  1  0  0  0  0
 12 13  2  0  0  0  0
 13  9  1  0  0  0  0
 14  6  1  0  0  0  0
 14 16  1  0  0  0  0
 15 11  1  0  0  0  0
 16  7  1  0  0  0  0
 17 16  1  0  0  0  0
 21 20  1  0  0  0  0
 23 22  2  0  0  0  0
 24 23  1  1  0  0  0
 25 24  1  0  0  0  0
 25 27  1  1  0  0  0
 26 25  1  0  0  0  0
 26 24  1  0  0  0  0
 28 29  1  0  0  0  0
 28 27  1  0  0  0  0
 29 33  1  0  0  0  0
 30 32  2  0  0  0  0
 32 31  2  0  0  0  0
 32 33  1  0  0  0  0
 32 35  1  0  0  0  0
 33 34  1  0  0  0  0
 34 37  1  1  0  0  0
 35 34  1  0  0  0  0
 37 36  1  0  0  0  0
M  END
>  <MODEL>
6

>  <REMARK>
 VINA RESULT:      -7.0      2.522      5.887
  Name = 
  9 active torsions:
  status: ('A' for Active; 'I' for Inactive)
    1  A    between atoms: C_6  and  C_35
    2  A    between atoms: C_7  and  N_14
    3  A    between atoms: C_7  and  C_22
    4  A    between atoms: C_8  and  C_18
    5  A    between atoms: C_8  and  C_35
    6  A    between atoms: C_9  and  N_33
    7  A    between atoms: C_13  and  O_17
    8  A    between atoms: C_20  and  O_28
    9  A    between atoms: C_22  and  N_33
                            x       y       z     vdW  Elec       q    Type
                         _______ _______ _______ _____ _____    ______ ____

>  <TORSDO>
F 9

$$$$
=
 OpenBabel10232412413D

 37 42  0  0  1  0  0  0  0  0999 V2000
  183.3900  180.2220  144.0300 N   0  0  0  0  0  2  0  0  0  0  0  0
  184.8100  178.8120  142.6810 C   0  0  1  0  0  0  0  0  0  0  0  0
  183.5920  178.0190  143.1130 C   0  0  0  0  0  2  0  0  0  0  0  0
  182.9210  178.8570  144.1850 C   0  0  0  0  0  2  0  0  0  0  0  0
  184.7320  180.1050  143.4820 C   0  0  0  0  0  2  0  0  0  0  0  0
  188.8000  177.2340  146.3460 C   0  0  0  0  0  3  0  0  0  0  0  0
  191.0150  176.7870  144.5520 C   0  0  0  0  0  0  0  0  0  0  0  0
  191.2840  177.0430  146.0200 C   0  0  1  0  0  3  0  0  0  0  0  0
  187.8470  176.9760  142.8850 C   0  0  0  0  0  0  0  0  0  0  0  0
  190.0430  177.2970  146.8680 C   0  0  0  0  0  0  0  0  0  0  0  0
  187.4880  177.0170  144.1630 C   0  0  0  0  0  0  0  0  0  0  0  0
  186.0490  178.0250  143.0440 C   0  0  0  0  0  0  0  0  0  0  0  0
  186.9730  177.6330  142.1120 N   0  0  0  0  0  0  0  0  0  0  0  0
  188.6150  176.9130  144.9220 C   0  0  0  0  0  0  0  0  0  0  0  0
  186.3640  177.7090  144.3370 N   0  0  0  0  0  2  0  0  0  0  0  0
  189.6590  176.7620  144.0780 N   0  0  0  0  0  0  0  0  0  0  0  0
  189.2200  176.8540  142.7910 C   0  0  0  0  0  3  0  0  0  0  0  0
  191.9810  176.6270  143.7650 O   0  0  0  0  0  0  0  0  0  0  0  0
  192.0570  175.9480  146.5990 N   0  0  0  0  0  1  0  0  0  0  0  0
  190.2350  177.6300  148.2200 O   0  0  0  0  0  0  0  0  0  0  0  0
  189.3210  178.4130  148.9710 C   0  0  0  0  0  1  0  0  0  0  0  0
  185.6230  179.9130  140.7390 O   0  0  0  0  0  0  0  0  0  0  0  0
  184.7700  179.1720  141.2040 C   0  0  0  0  0  0  0  0  0  0  0  0
  183.5950  178.7360  140.3440 C   0  0  2  0  0  3  0  0  0  0  0  0
  183.9720  178.0880  139.0090 C   0  0  1  0  0  3  0  0  0  0  0  0
  183.4750  179.5220  139.0490 C   0  0  0  0  0  2  0  0  0  0  0  0
  185.4100  178.0850  138.7440 N   0  0  0  0  0  2  0  0  0  0  0  0
  185.5800  177.4670  137.4410 C   0  0  0  0  0  2  0  0  0  0  0  0
  186.9780  177.7610  136.9180 C   0  0  0  0  0  2  0  0  0  0  0  0
  188.9820  179.5780  137.7190 O   0  0  0  0  0  0  0  0  0  0  0  0
  189.7370  177.9740  139.5230 O   0  0  0  0  0  0  0  0  0  0  0  0
  189.2460  178.1510  138.1140 S   0  0  0  0  0  0  0  0  0  0  0  0
  187.9640  177.0600  137.7310 N   0  0  0  0  0  0  0  0  0  0  0  0
  188.8280  176.3010  136.8100 C   0  0  1  0  0  3  0  0  0  0  0  0
  190.0940  177.1580  136.9410 C   0  0  0  0  0  2  0  0  0  0  0  0
  188.8830  174.1480  136.2660 C   0  0  0  0  0  1  0  0  0  0  0  0
  189.0650  175.0350  137.3480 O   0  0  0  0  0  0  0  0  0  0  0  0
  1  4  1  0  0  0  0
  2 23  1  6  0  0  0
  2 12  1  0  0  0  0
  2  3  1  0  0  0  0
  2  5  1  0  0  0  0
  3  4  1  0  0  0  0
  5  1  1  0  0  0  0
  6 10  2  0  0  0  0
  7  8  1  0  0  0  0
  8 19  1  1  0  0  0
  8 10  1  0  0  0  0
  9 11  1  0  0  0  0
 10 20  1  0  0  0  0
 11 15  1  0  0  0  0
 11 14  2  0  0  0  0
 12 15  1  0  0  0  0
 13  9  1  0  0  0  0
 13 12  2  0  0  0  0
 14  6  1  0  0  0  0
 16  7  1  0  0  0  0
 16 14  1  0  0  0  0
 17  9  2  0  0  0  0
 17 16  1  0  0  0  0
 18  7  2  0  0  0  0
 20 21  1  0  0  0  0
 22 23  2  0  0  0  0
 24 23  1  1  0  0  0
 25 27  1  1  0  0  0
 25 26  1  0  0  0  0
 25 24  1  0  0  0  0
 26 24  1  0  0  0  0
 28 27  1  0  0  0  0
 29 28  1  0  0  0  0
 29 33  1  0  0  0  0
 30 32  2  0  0  0  0
 32 31  2  0  0  0  0
 33 32  1  0  0  0  0
 34 35  1  0  0  0  0
 34 37  1  1  0  0  0
 34 33  1  0  0  0  0
 35 32  1  0  0  0  0
 36 37  1  0  0  0  0
M  END
>  <MODEL>
7

>  <REMARK>
 VINA RESULT:      -7.0      2.226      7.606
  Name = 
  9 active torsions:
  status: ('A' for Active; 'I' for Inactive)
    1  A    between atoms: C_6  and  C_35
    2  A    between atoms: C_7  and  N_14
    3  A    between atoms: C_7  and  C_22
    4  A    between atoms: C_8  and  C_18
    5  A    between atoms: C_8  and  C_35
    6  A    between atoms: C_9  and  N_33
    7  A    between atoms: C_13  and  O_17
    8  A    between atoms: C_20  and  O_28
    9  A    between atoms: C_22  and  N_33
                            x       y       z     vdW  Elec       q    Type
                         _______ _______ _______ _____ _____    ______ ____

>  <TORSDO>
F 9

$$$$
=
 OpenBabel10232412413D

 37 42  0  0  1  0  0  0  0  0999 V2000
  190.4020  175.1780  137.8640 N   0  0  0  0  0  2  0  0  0  0  0  0
  189.6950  177.2840  138.8070 C   0  0  1  0  0  0  0  0  0  0  0  0
  191.2090  177.2610  138.7270 C   0  0  0  0  0  2  0  0  0  0  0  0
  191.5780  175.8220  138.4220 C   0  0  0  0  0  2  0  0  0  0  0  0
  189.2700  175.8610  138.4680 C   0  0  0  0  0  2  0  0  0  0  0  0
  190.7700  177.6870  144.3320 C   0  0  0  0  0  3  0  0  0  0  0  0
  188.1250  177.2920  145.4130 C   0  0  0  0  0  0  0  0  0  0  0  0
  189.3340  177.0450  146.2900 C   0  0  1  0  0  3  0  0  0  0  0  0
  188.1340  178.0460  141.9090 C   0  0  0  0  0  0  0  0  0  0  0  0
  190.6800  177.2540  145.6070 C   0  0  0  0  0  0  0  0  0  0  0  0
  189.4150  178.1950  142.2250 C   0  0  0  0  0  0  0  0  0  0  0  0
  189.2930  177.6460  140.2190 C   0  0  0  0  0  0  0  0  0  0  0  0
  187.9880  177.6650  140.6330 N   0  0  0  0  0  0  0  0  0  0  0  0
  189.5480  177.9700  143.5620 C   0  0  0  0  0  0  0  0  0  0  0  0
  190.2130  177.9150  141.1960 N   0  0  0  0  0  2  0  0  0  0  0  0
  188.3150  177.7280  144.0580 N   0  0  0  0  0  0  0  0  0  0  0  0
  187.4110  177.7110  143.0370 C   0  0  0  0  0  3  0  0  0  0  0  0
  186.9740  177.0860  145.8730 O   0  0  0  0  0  0  0  0  0  0  0  0
  189.2660  177.8610  147.4990 N   0  0  0  0  0  1  0  0  0  0  0  0
  191.8380  176.9530  146.3440 O   0  0  0  0  0  0  0  0  0  0  0  0
  191.9840  175.7800  147.1280 C   0  0  0  0  0  1  0  0  0  0  0  0
  189.1040  179.4240  137.9620 O   0  0  0  0  0  0  0  0  0  0  0  0
  189.0770  178.2160  137.7770 C   0  0  0  0  0  0  0  0  0  0  0  0
  188.3010  177.6470  136.6010 C   0  0  2  0  0  3  0  0  0  0  0  0
  186.8170  178.0220  136.5600 C   0  0  1  0  0  3  0  0  0  0  0  0
  187.2430  176.6370  137.0110 C   0  0  0  0  0  2  0  0  0  0  0  0
  186.3740  178.7910  137.7220 N   0  0  0  0  0  2  0  0  0  0  0  0
  185.1670  178.1400  138.2020 C   0  0  0  0  0  2  0  0  0  0  0  0
  184.6080  178.9170  139.3850 C   0  0  0  0  0  2  0  0  0  0  0  0
  181.9560  178.4270  138.5550 O   0  0  0  0  0  0  0  0  0  0  0  0
  181.8550  176.3810  140.0390 O   0  0  0  0  0  0  0  0  0  0  0  0
  182.3200  177.8000  139.8730 S   0  0  0  0  0  0  0  0  0  0  0  0
  183.9740  177.9990  140.3220 N   0  0  0  0  0  0  0  0  0  0  0  0
  183.6030  178.7790  141.5140 C   0  0  1  0  0  3  0  0  0  0  0  0
  182.0830  178.7920  141.3020 C   0  0  0  0  0  2  0  0  0  0  0  0
  184.1260  179.0060  143.6610 C   0  0  0  0  0  1  0  0  0  0  0  0
  183.9080  178.0390  142.6580 O   0  0  0  0  0  0  0  0  0  0  0  0
  1  4  1  0  0  0  0
  1  5  1  0  0  0  0
  2 23  1  6  0  0  0
  2 12  1  0  0  0  0
  3  2  1  0  0  0  0
  4  3  1  0  0  0  0
  5  2  1  0  0  0  0
  6 10  2  0  0  0  0
  7 18  2  0  0  0  0
  7  8  1  0  0  0  0
  8 19  1  1  0  0  0
  9 11  1  0  0  0  0
  9 17  2  0  0  0  0
 10  8  1  0  0  0  0
 10 20  1  0  0  0  0
 11 14  2  0  0  0  0
 12 13  2  0  0  0  0
 12 15  1  0  0  0  0
 13  9  1  0  0  0  0
 14 16  1  0  0  0  0
 14  6  1  0  0  0  0
 15 11  1  0  0  0  0
 16  7  1  0  0  0  0
 17 16  1  0  0  0  0
 20 21  1  0  0  0  0
 23 22  2  0  0  0  0
 24 26  1  0  0  0  0
 24 23  1  1  0  0  0
 25 24  1  0  0  0  0
 25 26  1  0  0  0  0
 25 27  1  1  0  0  0
 27 28  1  0  0  0  0
 28 29  1  0  0  0  0
 29 33  1  0  0  0  0
 30 32  2  0  0  0  0
 32 31  2  0  0  0  0
 32 33  1  0  0  0  0
 32 35  1  0  0  0  0
 33 34  1  0  0  0  0
 34 37  1  1  0  0  0
 35 34  1  0  0  0  0
 37 36  1  0  0  0  0
M  END
>  <MODEL>
8

>  <REMARK>
 VINA RESULT:      -6.8      2.348      6.609
  Name = 
  9 active torsions:
  status: ('A' for Active; 'I' for Inactive)
    1  A    between atoms: C_6  and  C_35
    2  A    between atoms: C_7  and  N_14
    3  A    between atoms: C_7  and  C_22
    4  A    between atoms: C_8  and  C_18
    5  A    between atoms: C_8  and  C_35
    6  A    between atoms: C_9  and  N_33
    7  A    between atoms: C_13  and  O_17
    8  A    between atoms: C_20  and  O_28
    9  A    between atoms: C_22  and  N_33
                            x       y       z     vdW  Elec       q    Type
                         _______ _______ _______ _____ _____    ______ ____

>  <TORSDO>
F 9

$$$$
=
 OpenBabel10232412413D

 37 42  0  0  1  0  0  0  0  0999 V2000
  189.3040  176.9060  135.5480 N   0  0  0  0  0  2  0  0  0  0  0  0
  188.1710  177.4320  137.6140 C   0  0  1  0  0  0  0  0  0  0  0  0
  188.2700  175.9250  137.4730 C   0  0  0  0  0  2  0  0  0  0  0  0
  188.7050  175.6790  136.0410 C   0  0  0  0  0  2  0  0  0  0  0  0
  188.6280  177.9750  136.2670 C   0  0  0  0  0  2  0  0  0  0  0  0
  183.9800  178.9060  141.0930 C   0  0  0  0  0  3  0  0  0  0  0  0
  181.7320  177.6960  139.7500 C   0  0  0  0  0  0  0  0  0  0  0  0
  181.6290  178.0310  141.2230 C   0  0  1  0  0  3  0  0  0  0  0  0
  184.6550  177.9460  137.6910 C   0  0  0  0  0  0  0  0  0  0  0  0
  182.8860  178.6370  141.8360 C   0  0  0  0  0  0  0  0  0  0  0  0
  185.0320  178.6000  138.7840 C   0  0  0  0  0  0  0  0  0  0  0  0
  186.7280  177.7950  137.8820 C   0  0  0  0  0  0  0  0  0  0  0  0
  185.7010  177.3790  137.0770 N   0  0  0  0  0  0  0  0  0  0  0  0
  183.9810  178.6140  139.6510 C   0  0  0  0  0  0  0  0  0  0  0  0
  186.3450  178.5080  138.9850 N   0  0  0  0  0  2  0  0  0  0  0  0
  182.9450  177.9950  139.0420 N   0  0  0  0  0  0  0  0  0  0  0  0
  183.3510  177.5130  137.8340 C   0  0  0  0  0  3  0  0  0  0  0  0
  180.7660  177.1370  139.1740 O   0  0  0  0  0  0  0  0  0  0  0  0
  180.4900  178.9090  141.4720 N   0  0  0  0  0  1  0  0  0  0  0  0
  182.8820  178.8840  143.2190 O   0  0  0  0  0  0  0  0  0  0  0  0
  184.0260  178.7370  144.0450 C   0  0  0  0  0  1  0  0  0  0  0  0
  189.1800  179.1790  138.8670 O   0  0  0  0  0  0  0  0  0  0  0  0
  189.1080  177.9730  138.6810 C   0  0  0  0  0  0  0  0  0  0  0  0
  190.0590  177.0370  139.4090 C   0  0  2  0  0  3  0  0  0  0  0  0
  189.6350  176.6560  140.8300 C   0  0  1  0  0  3  0  0  0  0  0  0
  190.7330  177.6800  140.6090 C   0  0  0  0  0  2  0  0  0  0  0  0
  188.4240  177.3380  141.2840 N   0  0  0  0  0  2  0  0  0  0  0  0
  188.6870  177.7630  142.6480 C   0  0  0  0  0  2  0  0  0  0  0  0
  188.0280  176.7930  143.6170 C   0  0  0  0  0  2  0  0  0  0  0  0
  187.0790  178.2870  145.8140 O   0  0  0  0  0  0  0  0  0  0  0  0
  188.4730  176.8840  147.3890 O   0  0  0  0  0  0  0  0  0  0  0  0
  188.3840  177.5810  146.0610 S   0  0  0  0  0  0  0  0  0  0  0  0
  188.9020  176.5710  144.7620 N   0  0  0  0  0  0  0  0  0  0  0  0
  190.1100  177.3870  144.5520 C   0  0  1  0  0  3  0  0  0  0  0  0
  189.8420  178.4530  145.6220 C   0  0  0  0  0  2  0  0  0  0  0  0
  191.5530  175.8980  143.7550 C   0  0  0  0  0  1  0  0  0  0  0  0
  191.2330  176.6390  144.9110 O   0  0  0  0  0  0  0  0  0  0  0  0
  1  4  1  0  0  0  0
  1  5  1  0  0  0  0
  2 12  1  0  0  0  0
  2 23  1  1  0  0  0
  3  2  1  0  0  0  0
  4  3  1  0  0  0  0
  5  2  1  0  0  0  0
  6 10  2  0  0  0  0
  7  8  1  0  0  0  0
  8 19  1  6  0  0  0
  8 10  1  0  0  0  0
  9 17  2  0  0  0  0
  9 11  1  0  0  0  0
 10 20  1  0  0  0  0
 11 15  1  0  0  0  0
 11 14  2  0  0  0  0
 12 15  1  0  0  0  0
 13  9  1  0  0  0  0
 13 12  2  0  0  0  0
 14  6  1  0  0  0  0
 16 14  1  0  0  0  0
 16  7  1  0  0  0  0
 17 16  1  0  0  0  0
 18  7  2  0  0  0  0
 20 21  1  0  0  0  0
 23 22  2  0  0  0  0
 24 23  1  6  0  0  0
 24 26  1  0  0  0  0
 24 25  1  0  0  0  0
 25 27  1  6  0  0  0
 26 25  1  0  0  0  0
 27 28  1  0  0  0  0
 28 29  1  0  0  0  0
 29 33  1  0  0  0  0
 30 32  2  0  0  0  0
 32 31  2  0  0  0  0
 33 32  1  0  0  0  0
 34 33  1  0  0  0  0
 34 37  1  1  0  0  0
 34 35  1  0  0  0  0
 35 32  1  0  0  0  0
 36 37  1  0  0  0  0
M  END
>  <MODEL>
9

>  <REMARK>
 VINA RESULT:      -6.8      1.415      2.045
  Name = 
  9 active torsions:
  status: ('A' for Active; 'I' for Inactive)
    1  A    between atoms: C_6  and  C_35
    2  A    between atoms: C_7  and  N_14
    3  A    between atoms: C_7  and  C_22
    4  A    between atoms: C_8  and  C_18
    5  A    between atoms: C_8  and  C_35
    6  A    between atoms: C_9  and  N_33
    7  A    between atoms: C_13  and  O_17
    8  A    between atoms: C_20  and  O_28
    9  A    between atoms: C_22  and  N_33
                            x       y       z     vdW  Elec       q    Type
                         _______ _______ _______ _____ _____    ______ ____

>  <TORSDO>
F 9

$$$$
