=
 OpenBabel10232409563D

 34 37  0  0  1  0  0  0  0  0999 V2000
  189.8160  177.3030  140.3690 C   0  0  0  0  0  0  0  0  0  0  0  0
  185.5670  177.8060  137.4080 C   0  0  0  0  0  2  0  0  0  0  0  0
  184.8990  179.2640  143.3980 C   0  0  0  0  0  2  0  0  0  0  0  0
  182.8610  177.2050  139.2030 N   0  0  0  0  0  0  0  0  0  0  0  0
  182.3420  178.6520  141.9780 C   0  0  0  0  0  2  0  0  0  0  0  0
  189.4640  176.9440  139.0640 C   0  0  0  0  0  3  0  0  0  0  0  0
  181.2470  178.9920  139.7810 C   0  0  1  0  0  3  0  0  0  0  0  0
  181.2850  178.6330  144.1150 O   0  0  0  0  0  1  0  0  0  0  0  0
  180.9510  179.2550  137.5570 C   0  0  0  0  0  3  0  0  0  0  0  0
  184.6820  176.6010  137.6920 C   0  0  0  0  0  2  0  0  0  0  0  0
  180.8280  179.8660  138.8770 C   0  0  0  0  0  3  0  0  0  0  0  0
  188.2280  177.3230  138.5400 C   0  0  0  0  0  3  0  0  0  0  0  0
  185.6710  177.9600  142.4020 S   0  0  0  0  0  0  0  0  0  0  0  0
  188.9140  178.0310  141.1460 C   0  0  0  0  0  3  0  0  0  0  0  0
  186.0200  178.4500  138.6820 C   0  0  0  0  0  0  0  0  0  0  0  0
  187.3150  178.0670  139.3060 C   0  0  0  0  0  0  0  0  0  0  0  0
  183.6770  178.7010  144.1100 C   0  0  2  0  0  3  0  0  0  0  0  0
  186.7490  179.1490  141.5520 C   0  0  0  0  0  2  0  0  0  0  0  0
  181.3200  177.9940  137.7250 C   0  0  2  0  0  3  0  0  0  0  0  0
  181.1540  179.2490  141.2470 C   0  0  0  0  0  2  0  0  0  0  0  0
  181.4780  177.6580  139.1550 C   0  0  1  0  0  3  0  0  0  0  0  0
  183.2870  177.0340  137.9890 C   0  0  0  0  0  0  0  0  0  0  0  0
  182.3860  179.1400  143.4190 C   0  0  1  0  0  3  0  0  0  0  0  0
  187.6730  178.4230  140.6310 C   0  0  0  0  0  0  0  0  0  0  0  0
  185.2780  179.3210  139.2080 O   0  0  0  0  0  0  0  0  0  0  0  0
  182.3880  177.4550  136.9650 N   0  0  0  0  0  2  0  0  0  0  0  0
  183.6760  179.1630  145.4900 N   0  0  0  0  0  2  0  0  0  0  0  0
  185.6860  179.0890  146.8390 C   0  0  0  0  0  1  0  0  0  0  0  0
  184.5570  178.2820  146.2360 C   0  0  0  0  0  2  0  0  0  0  0  0
  191.0730  176.9180  140.9340 N   0  0  0  0  0  2  0  0  0  0  0  0
  191.5460  177.3780  142.2330 C   0  0  0  0  0  2  0  0  0  0  0  0
  191.5030  176.2460  143.2440 C   0  0  2  0  0  3  0  0  0  0  0  0
  190.4930  175.3420  142.9130 O   0  0  0  0  0  1  0  0  0  0  0  0
  191.2310  176.8150  144.6210 C   0  0  0  0  0  1  0  0  0  0  0  0
  1 30  1  0  0  0  0
  1 14  1  0  0  0  0
  2 10  1  0  0  0  0
  2 15  1  0  0  0  0
  3 17  1  0  0  0  0
  5 23  1  0  0  0  0
  6  1  2  0  0  0  0
  7 11  1  6  0  0  0
  7 20  1  0  0  0  0
  9 11  2  0  0  0  0
 10 22  1  0  0  0  0
 12  6  1  0  0  0  0
 12 16  2  0  0  0  0
 13  3  1  0  0  0  0
 15 25  2  0  0  0  0
 15 16  1  0  0  0  0
 16 24  1  0  0  0  0
 17 27  1  1  0  0  0
 18 13  1  0  0  0  0
 19  9  1  1  0  0  0
 19 21  1  0  0  0  0
 20  5  1  0  0  0  0
 21  4  1  6  0  0  0
 21  7  1  0  0  0  0
 22  4  2  0  0  0  0
 23 17  1  0  0  0  0
 23  8  1  1  0  0  0
 24 14  2  0  0  0  0
 24 18  1  0  0  0  0
 26 19  1  0  0  0  0
 26 22  1  0  0  0  0
 27 29  1  0  0  0  0
 29 28  1  0  0  0  0
 30 31  1  0  0  0  0
 31 32  1  0  0  0  0
 32 34  1  1  0  0  0
 33 32  1  0  0  0  0
M  END
>  <MODEL>
1

>  <REMARK>
 VINA RESULT:      -8.2      0.000      0.000
  Name = 
  5 active torsions:
  status: ('A' for Active; 'I' for Inactive)
    1  A    between atoms: C_1  and  N_33
    2  A    between atoms: C_9  and  C_31
    3  A    between atoms: N_10  and  C_22
    4  A    between atoms: N_10  and  C_30
    5  A    between atoms: C_31  and  N_33
                            x       y       z     vdW  Elec       q    Type
                         _______ _______ _______ _____ _____    ______ ____

>  <TORSDO>
F 5

$$$$
=
 OpenBabel10232409563D

 34 37  0  0  1  0  0  0  0  0999 V2000
  188.7610  178.3320  138.5300 C   0  0  0  0  0  0  0  0  0  0  0  0
  191.3550  176.6950  142.7330 C   0  0  0  0  0  2  0  0  0  0  0  0
  185.4310  178.2880  143.6400 C   0  0  0  0  0  2  0  0  0  0  0  0
  190.2030  178.2080  145.4330 N   0  0  0  0  0  0  0  0  0  0  0  0
  187.1050  178.2780  146.1140 C   0  0  0  0  0  2  0  0  0  0  0  0
  190.0970  178.0450  138.8250 C   0  0  0  0  0  3  0  0  0  0  0  0
  188.9370  176.9920  147.1780 C   0  0  1  0  0  3  0  0  0  0  0  0
  185.2900  179.3610  147.2170 O   0  0  0  0  0  1  0  0  0  0  0  0
  190.7850  175.7200  147.4400 C   0  0  0  0  0  3  0  0  0  0  0  0
  191.7210  177.9320  143.5390 C   0  0  0  0  0  2  0  0  0  0  0  0
  189.3420  175.8150  147.6350 C   0  0  0  0  0  3  0  0  0  0  0  0
  190.4450  177.5250  140.0730 C   0  0  0  0  0  3  0  0  0  0  0  0
  186.8820  178.9230  142.7560 S   0  0  0  0  0  0  0  0  0  0  0  0
  187.7810  178.1050  139.4970 C   0  0  0  0  0  3  0  0  0  0  0  0
  189.9060  176.7110  142.3550 C   0  0  0  0  0  0  0  0  0  0  0  0
  189.4690  177.2790  141.0520 C   0  0  0  0  0  0  0  0  0  0  0  0
  185.1340  179.1810  144.8370 C   0  0  2  0  0  3  0  0  0  0  0  0
  187.0110  177.4220  141.7430 C   0  0  0  0  0  2  0  0  0  0  0  0
  191.2120  176.8900  146.9890 C   0  0  2  0  0  3  0  0  0  0  0  0
  187.5300  177.4660  147.3240 C   0  0  0  0  0  2  0  0  0  0  0  0
  190.1050  177.8560  146.8420 C   0  0  1  0  0  3  0  0  0  0  0  0
  191.3290  177.7610  144.9680 C   0  0  0  0  0  0  0  0  0  0  0  0
  185.6040  178.5310  146.1380 C   0  0  1  0  0  3  0  0  0  0  0  0
  188.1150  177.5770  140.7500 C   0  0  0  0  0  0  0  0  0  0  0  0
  189.0710  176.2310  143.1670 O   0  0  0  0  0  0  0  0  0  0  0  0
  192.0790  176.9500  145.8700 N   0  0  0  0  0  2  0  0  0  0  0  0
  183.7030  179.4290  144.9010 N   0  0  0  0  0  2  0  0  0  0  0  0
  181.6040  178.8400  143.8450 C   0  0  0  0  0  1  0  0  0  0  0  0
  183.1120  178.8350  143.7150 C   0  0  0  0  0  2  0  0  0  0  0  0
  188.3780  178.8760  137.2630 N   0  0  0  0  0  2  0  0  0  0  0  0
  187.1650  178.4900  136.5550 C   0  0  0  0  0  2  0  0  0  0  0  0
  187.4560  177.3620  135.5800 C   0  0  2  0  0  3  0  0  0  0  0  0
  187.3290  176.1290  136.2180 O   0  0  0  0  0  1  0  0  0  0  0  0
  188.8680  177.5090  135.0520 C   0  0  0  0  0  1  0  0  0  0  0  0
  1  6  2  0  0  0  0
  1 14  1  0  0  0  0
  2 10  1  0  0  0  0
  3 17  1  0  0  0  0
  5 23  1  0  0  0  0
  5 20  1  0  0  0  0
  6 12  1  0  0  0  0
  7 20  1  1  0  0  0
  7 11  1  0  0  0  0
  9 11  2  0  0  0  0
 10 22  1  0  0  0  0
 12 16  2  0  0  0  0
 13  3  1  0  0  0  0
 14 24  2  0  0  0  0
 15  2  1  0  0  0  0
 15 25  2  0  0  0  0
 16 15  1  0  0  0  0
 17 27  1  1  0  0  0
 17 23  1  0  0  0  0
 18 13  1  0  0  0  0
 19  9  1  6  0  0  0
 21  4  1  6  0  0  0
 21 19  1  0  0  0  0
 21  7  1  0  0  0  0
 22  4  2  0  0  0  0
 22 26  1  0  0  0  0
 23  8  1  1  0  0  0
 24 16  1  0  0  0  0
 24 18  1  0  0  0  0
 26 19  1  0  0  0  0
 29 28  1  0  0  0  0
 29 27  1  0  0  0  0
 30  1  1  0  0  0  0
 31 30  1  0  0  0  0
 32 34  1  1  0  0  0
 32 33  1  0  0  0  0
 32 31  1  0  0  0  0
M  END
>  <MODEL>
2

>  <REMARK>
 VINA RESULT:      -7.6      3.251      7.580
  Name = 
  5 active torsions:
  status: ('A' for Active; 'I' for Inactive)
    1  A    between atoms: C_1  and  N_33
    2  A    between atoms: C_9  and  C_31
    3  A    between atoms: N_10  and  C_22
    4  A    between atoms: N_10  and  C_30
    5  A    between atoms: C_31  and  N_33
                            x       y       z     vdW  Elec       q    Type
                         _______ _______ _______ _____ _____    ______ ____

>  <TORSDO>
F 5

$$$$
=
 OpenBabel10232409563D

 34 37  0  0  1  0  0  0  0  0999 V2000
  190.3990  177.1460  147.1230 C   0  0  0  0  0  0  0  0  0  0  0  0
  185.4680  177.9370  145.6640 C   0  0  0  0  0  2  0  0  0  0  0  0
  189.5590  177.0850  141.0820 C   0  0  0  0  0  2  0  0  0  0  0  0
  185.3860  179.4930  142.7520 N   0  0  0  0  0  0  0  0  0  0  0  0
  187.0300  178.4410  140.2500 C   0  0  0  0  0  2  0  0  0  0  0  0
  189.2210  177.5350  147.7680 C   0  0  0  0  0  3  0  0  0  0  0  0
  184.5920  178.3760  140.6900 C   0  0  1  0  0  3  0  0  0  0  0  0
  188.0960  178.9180  138.1720 O   0  0  0  0  0  1  0  0  0  0  0  0
  182.6170  178.1160  141.7560 C   0  0  0  0  0  3  0  0  0  0  0  0
  185.3700  179.3800  145.1910 C   0  0  0  0  0  2  0  0  0  0  0  0
  183.4850  177.6470  140.6800 C   0  0  0  0  0  3  0  0  0  0  0  0
  188.0140  177.5640  147.0680 C   0  0  0  0  0  3  0  0  0  0  0  0
  189.4460  178.0070  142.6410 S   0  0  0  0  0  0  0  0  0  0  0  0
  190.3580  176.7990  145.7720 C   0  0  0  0  0  3  0  0  0  0  0  0
  186.6340  177.2440  145.0300 C   0  0  0  0  0  0  0  0  0  0  0  0
  187.9550  177.2050  145.7110 C   0  0  0  0  0  0  0  0  0  0  0  0
  189.4930  178.0570  139.9120 C   0  0  2  0  0  3  0  0  0  0  0  0
  189.2130  176.4870  143.6050 C   0  0  0  0  0  2  0  0  0  0  0  0
  183.1790  179.1890  142.2920 C   0  0  2  0  0  3  0  0  0  0  0  0
  185.6510  178.2390  139.6490 C   0  0  0  0  0  2  0  0  0  0  0  0
  184.4560  179.5250  141.6320 C   0  0  1  0  0  3  0  0  0  0  0  0
  184.7080  179.4520  143.8570 C   0  0  0  0  0  0  0  0  0  0  0  0
  188.1120  178.0390  139.2580 C   0  0  1  0  0  3  0  0  0  0  0  0
  189.1540  176.8160  145.0600 C   0  0  0  0  0  0  0  0  0  0  0  0
  186.4650  176.6970  143.9080 O   0  0  0  0  0  0  0  0  0  0  0  0
  183.2980  179.3030  143.6990 N   0  0  0  0  0  2  0  0  0  0  0  0
  190.5050  177.6910  138.9330 N   0  0  0  0  0  2  0  0  0  0  0  0
  191.7380  175.7960  138.0640 C   0  0  0  0  0  1  0  0  0  0  0  0
  190.5420  176.2400  138.8790 C   0  0  0  0  0  2  0  0  0  0  0  0
  191.6510  177.1180  147.8140 N   0  0  0  0  0  2  0  0  0  0  0  0
  192.4900  175.9300  147.9130 C   0  0  0  0  0  2  0  0  0  0  0  0
  193.4340  176.0460  149.0970 C   0  0  2  0  0  3  0  0  0  0  0  0
  193.1590  175.0480  150.0320 O   0  0  0  0  0  1  0  0  0  0  0  0
  193.2570  177.4020  149.7480 C   0  0  0  0  0  1  0  0  0  0  0  0
  1  6  1  0  0  0  0
  1 30  1  0  0  0  0
  3 13  1  0  0  0  0
  4 22  2  0  0  0  0
  7 20  1  6  0  0  0
  7 21  1  0  0  0  0
 10  2  1  0  0  0  0
 11  7  1  0  0  0  0
 11  9  2  0  0  0  0
 12  6  2  0  0  0  0
 13 18  1  0  0  0  0
 14  1  2  0  0  0  0
 15  2  1  0  0  0  0
 15 16  1  0  0  0  0
 16 12  1  0  0  0  0
 17 27  1  6  0  0  0
 17  3  1  0  0  0  0
 18 24  1  0  0  0  0
 19  9  1  1  0  0  0
 19 26  1  0  0  0  0
 20  5  1  0  0  0  0
 21 19  1  0  0  0  0
 21  4  1  1  0  0  0
 22 10  1  0  0  0  0
 23  8  1  6  0  0  0
 23 17  1  0  0  0  0
 23  5  1  0  0  0  0
 24 16  2  0  0  0  0
 24 14  1  0  0  0  0
 25 15  2  0  0  0  0
 26 22  1  0  0  0  0
 28 29  1  0  0  0  0
 29 27  1  0  0  0  0
 30 31  1  0  0  0  0
 31 32  1  0  0  0  0
 32 34  1  1  0  0  0
 32 33  1  0  0  0  0
M  END
>  <MODEL>
3

>  <REMARK>
 VINA RESULT:      -7.6      3.099      6.683
  Name = 
  5 active torsions:
  status: ('A' for Active; 'I' for Inactive)
    1  A    between atoms: C_1  and  N_33
    2  A    between atoms: C_9  and  C_31
    3  A    between atoms: N_10  and  C_22
    4  A    between atoms: N_10  and  C_30
    5  A    between atoms: C_31  and  N_33
                            x       y       z     vdW  Elec       q    Type
                         _______ _______ _______ _____ _____    ______ ____

>  <TORSDO>
F 5

$$$$
=
 OpenBabel10232409563D

 34 37  0  0  1  0  0  0  0  0999 V2000
  190.0360  177.4150  140.9070 C   0  0  0  0  0  0  0  0  0  0  0  0
  186.4930  177.4390  137.0950 C   0  0  0  0  0  2  0  0  0  0  0  0
  184.4800  179.1890  142.6940 C   0  0  0  0  0  2  0  0  0  0  0  0
  183.5070  176.7490  138.3240 N   0  0  0  0  0  0  0  0  0  0  0  0
  182.3250  178.3140  140.8190 C   0  0  0  0  0  2  0  0  0  0  0  0
  189.9920  176.9570  139.5860 C   0  0  0  0  0  3  0  0  0  0  0  0
  181.7060  178.4460  138.4230 C   0  0  1  0  0  3  0  0  0  0  0  0
  180.8410  178.3420  142.6840 O   0  0  0  0  0  1  0  0  0  0  0  0
  181.8750  178.5580  136.1730 C   0  0  0  0  0  3  0  0  0  0  0  0
  185.6400  176.1920  137.2740 C   0  0  0  0  0  2  0  0  0  0  0  0
  181.4390  179.2340  137.3910 C   0  0  0  0  0  3  0  0  0  0  0  0
  188.8750  177.2150  138.7900 C   0  0  0  0  0  3  0  0  0  0  0  0
  185.5220  177.8880  141.9760 S   0  0  0  0  0  0  0  0  0  0  0  0
  188.9490  178.1200  141.4240 C   0  0  0  0  0  3  0  0  0  0  0  0
  186.6270  178.1860  138.3860 C   0  0  0  0  0  0  0  0  0  0  0  0
  187.7790  177.9340  139.2920 C   0  0  0  0  0  0  0  0  0  0  0  0
  183.1700  178.5820  143.1730 C   0  0  2  0  0  3  0  0  0  0  0  0
  186.6850  179.1000  141.2870 C   0  0  0  0  0  2  0  0  0  0  0  0
  182.2730  177.3390  136.5050 C   0  0  2  0  0  3  0  0  0  0  0  0
  181.2870  178.7800  139.8150 C   0  0  0  0  0  2  0  0  0  0  0  0
  182.1420  177.0980  137.9560 C   0  0  1  0  0  3  0  0  0  0  0  0
  184.1900  176.5400  137.2410 C   0  0  0  0  0  0  0  0  0  0  0  0
  182.0320  178.8860  142.1980 C   0  0  1  0  0  3  0  0  0  0  0  0
  187.8250  178.3910  140.6350 C   0  0  0  0  0  0  0  0  0  0  0  0
  185.7400  179.0300  138.6820 O   0  0  0  0  0  0  0  0  0  0  0  0
  183.5070  176.8350  136.0250 N   0  0  0  0  0  2  0  0  0  0  0  0
  182.8480  179.1220  144.4860 N   0  0  0  0  0  2  0  0  0  0  0  0
  184.4400  178.4020  146.1630 C   0  0  0  0  0  1  0  0  0  0  0  0
  184.1070  179.4560  145.1300 C   0  0  0  0  0  2  0  0  0  0  0  0
  191.1640  177.1550  141.7470 N   0  0  0  0  0  2  0  0  0  0  0  0
  191.0550  176.8460  143.1670 C   0  0  0  0  0  2  0  0  0  0  0  0
  191.8030  177.8790  143.9920 C   0  0  2  0  0  3  0  0  0  0  0  0
  191.8910  177.4620  145.3210 O   0  0  0  0  0  1  0  0  0  0  0  0
  191.0640  179.1990  143.9310 C   0  0  0  0  0  1  0  0  0  0  0  0
  1 14  1  0  0  0  0
  1 30  1  0  0  0  0
  2 10  1  0  0  0  0
  2 15  1  0  0  0  0
  3 17  1  0  0  0  0
  5 23  1  0  0  0  0
  6  1  2  0  0  0  0
  7 11  1  6  0  0  0
  7 20  1  0  0  0  0
  9 11  2  0  0  0  0
 12 16  2  0  0  0  0
 12  6  1  0  0  0  0
 13  3  1  0  0  0  0
 15 25  2  0  0  0  0
 15 16  1  0  0  0  0
 16 24  1  0  0  0  0
 17 27  1  1  0  0  0
 18 13  1  0  0  0  0
 19  9  1  1  0  0  0
 19 21  1  0  0  0  0
 20  5  1  0  0  0  0
 21  4  1  1  0  0  0
 21  7  1  0  0  0  0
 22 10  1  0  0  0  0
 22  4  2  0  0  0  0
 23  8  1  1  0  0  0
 23 17  1  0  0  0  0
 24 18  1  0  0  0  0
 24 14  2  0  0  0  0
 26 19  1  0  0  0  0
 26 22  1  0  0  0  0
 27 29  1  0  0  0  0
 29 28  1  0  0  0  0
 30 31  1  0  0  0  0
 31 32  1  0  0  0  0
 32 34  1  1  0  0  0
 32 33  1  0  0  0  0
M  END
>  <MODEL>
4

>  <REMARK>
 VINA RESULT:      -7.2      1.200      1.383
  Name = 
  5 active torsions:
  status: ('A' for Active; 'I' for Inactive)
    1  A    between atoms: C_1  and  N_33
    2  A    between atoms: C_9  and  C_31
    3  A    between atoms: N_10  and  C_22
    4  A    between atoms: N_10  and  C_30
    5  A    between atoms: C_31  and  N_33
                            x       y       z     vdW  Elec       q    Type
                         _______ _______ _______ _____ _____    ______ ____

>  <TORSDO>
F 5

$$$$
=
 OpenBabel10232409563D

 34 37  0  0  1  0  0  0  0  0999 V2000
  189.5920  177.2420  139.7760 C   0  0  0  0  0  0  0  0  0  0  0  0
  185.0350  177.8080  137.3300 C   0  0  0  0  0  2  0  0  0  0  0  0
  185.0840  179.2510  143.3610 C   0  0  0  0  0  2  0  0  0  0  0  0
  182.5480  177.2320  139.4250 N   0  0  0  0  0  0  0  0  0  0  0  0
  182.3720  178.6740  142.2450 C   0  0  0  0  0  2  0  0  0  0  0  0
  189.0870  176.8930  138.5200 C   0  0  0  0  0  3  0  0  0  0  0  0
  181.0340  179.0350  140.1910 C   0  0  1  0  0  3  0  0  0  0  0  0
  181.5710  178.6590  144.4900 O   0  0  0  0  0  1  0  0  0  0  0  0
  180.4850  179.3110  138.0170 C   0  0  0  0  0  3  0  0  0  0  0  0
  184.1740  176.6120  137.7120 C   0  0  0  0  0  2  0  0  0  0  0  0
  180.5240  179.9180  139.3440 C   0  0  0  0  0  3  0  0  0  0  0  0
  187.8020  177.2880  138.1450 C   0  0  0  0  0  3  0  0  0  0  0  0
  185.7190  177.9410  142.2780 S   0  0  0  0  0  0  0  0  0  0  0  0
  188.7950  177.9780  140.6550 C   0  0  0  0  0  3  0  0  0  0  0  0
  185.6400  178.4410  138.5440 C   0  0  0  0  0  0  0  0  0  0  0  0
  186.9940  178.0410  139.0120 C   0  0  0  0  0  0  0  0  0  0  0  0
  183.9460  178.7000  144.2080 C   0  0  2  0  0  3  0  0  0  0  0  0
  186.7050  179.1200  141.3120 C   0  0  0  0  0  2  0  0  0  0  0  0
  180.8560  178.0450  138.1390 C   0  0  2  0  0  3  0  0  0  0  0  0
  181.1140  179.2880  141.6590 C   0  0  0  0  0  2  0  0  0  0  0  0
  181.1740  177.7010  139.5390 C   0  0  1  0  0  3  0  0  0  0  0  0
  182.8270  177.0600  138.1700 C   0  0  0  0  0  0  0  0  0  0  0  0
  182.5890  179.1560  143.6730 C   0  0  1  0  0  3  0  0  0  0  0  0
  187.5080  178.3870  140.2880 C   0  0  0  0  0  0  0  0  0  0  0  0
  184.9750  179.3190  139.1550 O   0  0  0  0  0  0  0  0  0  0  0  0
  181.8210  177.4960  137.2580 N   0  0  0  0  0  2  0  0  0  0  0  0
  184.1110  179.1560  145.5800 N   0  0  0  0  0  2  0  0  0  0  0  0
  185.9880  179.1780  147.1100 C   0  0  0  0  0  1  0  0  0  0  0  0
  185.1430  178.3310  146.1830 C   0  0  0  0  0  2  0  0  0  0  0  0
  190.9010  176.8410  140.1910 N   0  0  0  0  0  2  0  0  0  0  0  0
  192.1250  177.3090  139.5550 C   0  0  0  0  0  2  0  0  0  0  0  0
  192.7360  176.2080  138.7050 C   0  0  2  0  0  3  0  0  0  0  0  0
  194.1170  176.1660  138.8920 O   0  0  0  0  0  1  0  0  0  0  0  0
  192.4370  176.4790  137.2460 C   0  0  0  0  0  1  0  0  0  0  0  0
  1 30  1  0  0  0  0
  1 14  1  0  0  0  0
  2 10  1  0  0  0  0
  2 15  1  0  0  0  0
  3 17  1  0  0  0  0
  5 23  1  0  0  0  0
  6  1  2  0  0  0  0
  7 11  1  1  0  0  0
  7 20  1  0  0  0  0
  9 11  2  0  0  0  0
 10 22  1  0  0  0  0
 12  6  1  0  0  0  0
 12 16  2  0  0  0  0
 13  3  1  0  0  0  0
 15 16  1  0  0  0  0
 15 25  2  0  0  0  0
 16 24  1  0  0  0  0
 17 27  1  1  0  0  0
 18 13  1  0  0  0  0
 19  9  1  1  0  0  0
 19 21  1  0  0  0  0
 20  5  1  0  0  0  0
 21  4  1  6  0  0  0
 21  7  1  0  0  0  0
 22  4  2  0  0  0  0
 23 17  1  0  0  0  0
 23  8  1  1  0  0  0
 24 14  2  0  0  0  0
 24 18  1  0  0  0  0
 26 19  1  0  0  0  0
 26 22  1  0  0  0  0
 27 29  1  0  0  0  0
 29 28  1  0  0  0  0
 31 30  1  0  0  0  0
 32 34  1  6  0  0  0
 32 33  1  0  0  0  0
 32 31  1  0  0  0  0
M  END
>  <MODEL>
5

>  <REMARK>
 VINA RESULT:      -7.1      1.559      1.899
  Name = 
  5 active torsions:
  status: ('A' for Active; 'I' for Inactive)
    1  A    between atoms: C_1  and  N_33
    2  A    between atoms: C_9  and  C_31
    3  A    between atoms: N_10  and  C_22
    4  A    between atoms: N_10  and  C_30
    5  A    between atoms: C_31  and  N_33
                            x       y       z     vdW  Elec       q    Type
                         _______ _______ _______ _____ _____    ______ ____

>  <TORSDO>
F 5

$$$$
=
 OpenBabel10232409563D

 34 37  0  0  1  0  0  0  0  0999 V2000
  189.1340  177.4830  146.8960 C   0  0  0  0  0  0  0  0  0  0  0  0
  184.6190  178.1290  144.3920 C   0  0  0  0  0  2  0  0  0  0  0  0
  189.5860  177.1010  140.8260 C   0  0  0  0  0  2  0  0  0  0  0  0
  185.1490  179.5320  141.4500 N   0  0  0  0  0  0  0  0  0  0  0  0
  187.2860  178.3760  139.4100 C   0  0  0  0  0  2  0  0  0  0  0  0
  187.8450  177.8890  147.2570 C   0  0  0  0  0  3  0  0  0  0  0  0
  184.8100  178.3000  139.3300 C   0  0  1  0  0  3  0  0  0  0  0  0
  188.7650  178.7600  137.5800 O   0  0  0  0  0  1  0  0  0  0  0  0
  182.6550  178.0670  139.9680 C   0  0  0  0  0  3  0  0  0  0  0  0
  184.6190  179.5450  143.8340 C   0  0  0  0  0  2  0  0  0  0  0  0
  183.7320  177.5560  139.1250 C   0  0  0  0  0  3  0  0  0  0  0  0
  186.8130  177.8640  146.3190 C   0  0  0  0  0  3  0  0  0  0  0  0
  189.1450  178.1000  142.2750 S   0  0  0  0  0  0  0  0  0  0  0  0
  189.3800  177.0670  145.5880 C   0  0  0  0  0  3  0  0  0  0  0  0
  185.8940  177.4210  144.0560 C   0  0  0  0  0  0  0  0  0  0  0  0
  187.0420  177.4350  145.0010 C   0  0  0  0  0  0  0  0  0  0  0  0
  189.7660  178.0100  139.6180 C   0  0  2  0  0  3  0  0  0  0  0  0
  188.7180  176.6280  143.2480 C   0  0  0  0  0  2  0  0  0  0  0  0
  183.0880  179.1740  140.5530 C   0  0  2  0  0  3  0  0  0  0  0  0
  186.0660  178.1240  138.5440 C   0  0  0  0  0  2  0  0  0  0  0  0
  184.4750  179.4930  140.1600 C   0  0  1  0  0  3  0  0  0  0  0  0
  184.2530  179.5380  142.3880 C   0  0  0  0  0  0  0  0  0  0  0  0
  188.5540  177.9390  138.6900 C   0  0  1  0  0  3  0  0  0  0  0  0
  188.3520  177.0310  144.6380 C   0  0  0  0  0  0  0  0  0  0  0  0
  185.9680  176.8140  142.9540 O   0  0  0  0  0  0  0  0  0  0  0  0
  182.9080  179.3620  141.9460 N   0  0  0  0  0  2  0  0  0  0  0  0
  190.9620  177.6090  138.8950 N   0  0  0  0  0  2  0  0  0  0  0  0
  191.7910  175.6930  137.6660 C   0  0  0  0  0  1  0  0  0  0  0  0
  190.9650  176.1570  138.8460 C   0  0  0  0  0  2  0  0  0  0  0  0
  190.2130  177.5090  147.8360 N   0  0  0  0  0  2  0  0  0  0  0  0
  191.6050  177.2880  147.4690 C   0  0  0  0  0  2  0  0  0  0  0  0
  192.0050  175.8490  147.7480 C   0  0  2  0  0  3  0  0  0  0  0  0
  193.1090  175.8110  148.5990 O   0  0  0  0  0  1  0  0  0  0  0  0
  192.3570  175.1650  146.4430 C   0  0  0  0  0  1  0  0  0  0  0  0
  1  6  1  0  0  0  0
  1 30  1  0  0  0  0
  3 13  1  0  0  0  0
  4 22  2  0  0  0  0
  7 20  1  6  0  0  0
  7 21  1  0  0  0  0
 10  2  1  0  0  0  0
 11  7  1  0  0  0  0
 11  9  2  0  0  0  0
 12  6  2  0  0  0  0
 13 18  1  0  0  0  0
 14  1  2  0  0  0  0
 15  2  1  0  0  0  0
 15 16  1  0  0  0  0
 16 12  1  0  0  0  0
 17 27  1  6  0  0  0
 17  3  1  0  0  0  0
 18 24  1  0  0  0  0
 19  9  1  1  0  0  0
 19 26  1  0  0  0  0
 20  5  1  0  0  0  0
 21 19  1  0  0  0  0
 21  4  1  1  0  0  0
 22 10  1  0  0  0  0
 23  8  1  6  0  0  0
 23  5  1  0  0  0  0
 23 17  1  0  0  0  0
 24 16  2  0  0  0  0
 24 14  1  0  0  0  0
 25 15  2  0  0  0  0
 26 22  1  0  0  0  0
 28 29  1  0  0  0  0
 29 27  1  0  0  0  0
 31 32  1  0  0  0  0
 31 30  1  0  0  0  0
 32 34  1  6  0  0  0
 32 33  1  0  0  0  0
M  END
>  <MODEL>
6

>  <REMARK>
 VINA RESULT:      -7.1      2.862      6.292
  Name = 
  5 active torsions:
  status: ('A' for Active; 'I' for Inactive)
    1  A    between atoms: C_1  and  N_33
    2  A    between atoms: C_9  and  C_31
    3  A    between atoms: N_10  and  C_22
    4  A    between atoms: N_10  and  C_30
    5  A    between atoms: C_31  and  N_33
                            x       y       z     vdW  Elec       q    Type
                         _______ _______ _______ _____ _____    ______ ____

>  <TORSDO>
F 5

$$$$
=
 OpenBabel10232409563D

 34 37  0  0  1  0  0  0  0  0999 V2000
  191.0790  177.6170  143.8730 C   0  0  0  0  0  0  0  0  0  0  0  0
  190.8470  177.0690  138.7040 C   0  0  0  0  0  2  0  0  0  0  0  0
  185.6210  178.9200  141.4820 C   0  0  0  0  0  2  0  0  0  0  0  0
  187.8060  176.1520  137.8000 N   0  0  0  0  0  0  0  0  0  0  0  0
  185.2290  177.7270  138.7710 C   0  0  0  0  0  2  0  0  0  0  0  0
  191.9190  177.0840  142.8900 C   0  0  0  0  0  3  0  0  0  0  0  0
  186.3030  177.6610  136.5380 C   0  0  1  0  0  3  0  0  0  0  0  0
  182.8910  177.7100  139.2350 O   0  0  0  0  0  1  0  0  0  0  0  0
  187.8830  177.6630  134.9240 C   0  0  0  0  0  3  0  0  0  0  0  0
  190.1320  175.7550  138.4280 C   0  0  0  0  0  2  0  0  0  0  0  0
  186.7350  178.3590  135.4970 C   0  0  0  0  0  3  0  0  0  0  0  0
  191.5730  177.1820  141.5420 C   0  0  0  0  0  3  0  0  0  0  0  0
  186.9310  177.6930  141.7450 S   0  0  0  0  0  0  0  0  0  0  0  0
  189.8880  178.2370  143.4940 C   0  0  0  0  0  3  0  0  0  0  0  0
  190.0830  177.8980  139.6900 C   0  0  0  0  0  0  0  0  0  0  0  0
  190.3840  177.8150  141.1440 C   0  0  0  0  0  0  0  0  0  0  0  0
  184.3370  178.2120  141.0730 C   0  0  2  0  0  3  0  0  0  0  0  0
  188.2130  178.9750  141.8340 C   0  0  0  0  0  2  0  0  0  0  0  0
  188.0200  176.5110  135.5630 C   0  0  2  0  0  3  0  0  0  0  0  0
  185.0690  178.0290  137.2920 C   0  0  0  0  0  2  0  0  0  0  0  0
  186.9910  176.3400  136.6080 C   0  0  1  0  0  3  0  0  0  0  0  0
  189.0360  175.9520  137.4370 C   0  0  0  0  0  0  0  0  0  0  0  0
  184.0900  178.3440  139.5700 C   0  0  1  0  0  3  0  0  0  0  0  0
  189.5320  178.3490  142.1450 C   0  0  0  0  0  0  0  0  0  0  0  0
  189.1830  178.6640  139.2560 O   0  0  0  0  0  0  0  0  0  0  0  0
  189.2910  176.1080  136.0430 N   0  0  0  0  0  2  0  0  0  0  0  0
  183.2220  178.7890  141.8060 N   0  0  0  0  0  2  0  0  0  0  0  0
  182.4460  178.7880  144.1010 C   0  0  0  0  0  1  0  0  0  0  0  0
  183.6460  178.9290  143.1890 C   0  0  0  0  0  2  0  0  0  0  0  0
  191.4040  177.5210  145.2630 N   0  0  0  0  0  2  0  0  0  0  0  0
  190.5030  176.9650  146.2640 C   0  0  0  0  0  2  0  0  0  0  0  0
  191.2940  176.3130  147.3850 C   0  0  2  0  0  3  0  0  0  0  0  0
  191.9050  177.2880  148.1730 O   0  0  0  0  0  1  0  0  0  0  0  0
  192.3570  175.4130  146.7910 C   0  0  0  0  0  1  0  0  0  0  0  0
  1 30  1  0  0  0  0
  2 15  1  0  0  0  0
  3 13  1  0  0  0  0
  5 23  1  0  0  0  0
  6  1  2  0  0  0  0
  7 11  1  6  0  0  0
  7 21  1  0  0  0  0
  7 20  1  0  0  0  0
  9 11  2  0  0  0  0
 10  2  1  0  0  0  0
 12  6  1  0  0  0  0
 13 18  1  0  0  0  0
 14  1  1  0  0  0  0
 15 16  1  0  0  0  0
 16 12  2  0  0  0  0
 16 24  1  0  0  0  0
 17  3  1  0  0  0  0
 17 27  1  1  0  0  0
 18 24  1  0  0  0  0
 19  9  1  1  0  0  0
 19 26  1  0  0  0  0
 19 21  1  0  0  0  0
 20  5  1  0  0  0  0
 21  4  1  1  0  0  0
 22  4  2  0  0  0  0
 22 10  1  0  0  0  0
 23  8  1  1  0  0  0
 23 17  1  0  0  0  0
 24 14  2  0  0  0  0
 25 15  2  0  0  0  0
 26 22  1  0  0  0  0
 27 29  1  0  0  0  0
 29 28  1  0  0  0  0
 30 31  1  0  0  0  0
 31 32  1  0  0  0  0
 32 34  1  6  0  0  0
 32 33  1  0  0  0  0
M  END
>  <MODEL>
7

>  <REMARK>
 VINA RESULT:      -6.9      2.755      4.775
  Name = 
  5 active torsions:
  status: ('A' for Active; 'I' for Inactive)
    1  A    between atoms: C_1  and  N_33
    2  A    between atoms: C_9  and  C_31
    3  A    between atoms: N_10  and  C_22
    4  A    between atoms: N_10  and  C_30
    5  A    between atoms: C_31  and  N_33
                            x       y       z     vdW  Elec       q    Type
                         _______ _______ _______ _____ _____    ______ ____

>  <TORSDO>
F 5

$$$$
=
 OpenBabel10232409563D

 34 37  0  0  1  0  0  0  0  0999 V2000
  191.1360  176.5410  136.7350 C   0  0  0  0  0  0  0  0  0  0  0  0
  186.1450  177.6650  135.7850 C   0  0  0  0  0  2  0  0  0  0  0  0
  188.0580  178.4920  141.6260 C   0  0  0  0  0  2  0  0  0  0  0  0
  184.3190  177.0590  138.4690 N   0  0  0  0  0  0  0  0  0  0  0  0
  185.0990  178.2210  141.3170 C   0  0  0  0  0  2  0  0  0  0  0  0
  190.2610  176.3550  135.6590 C   0  0  0  0  0  3  0  0  0  0  0  0
  183.2690  178.8780  139.7790 C   0  0  1  0  0  3  0  0  0  0  0  0
  184.9760  178.0380  143.6900 O   0  0  0  0  0  1  0  0  0  0  0  0
  182.1500  179.4070  137.8900 C   0  0  0  0  0  3  0  0  0  0  0  0
  185.3190  176.5010  136.3120 C   0  0  0  0  0  2  0  0  0  0  0  0
  182.6250  179.8750  139.1880 C   0  0  0  0  0  3  0  0  0  0  0  0
  188.9670  176.8750  135.7090 C   0  0  0  0  0  3  0  0  0  0  0  0
  188.2280  177.2550  140.3090 S   0  0  0  0  0  0  0  0  0  0  0  0
  190.6990  177.2390  137.8610 C   0  0  0  0  0  3  0  0  0  0  0  0
  187.1320  178.1300  136.8110 C   0  0  0  0  0  0  0  0  0  0  0  0
  188.5170  177.5910  136.8300 C   0  0  0  0  0  0  0  0  0  0  0  0
  187.1630  177.9400  142.7270 C   0  0  2  0  0  3  0  0  0  0  0  0
  189.0050  178.4530  139.1870 C   0  0  0  0  0  2  0  0  0  0  0  0
  182.4160  178.1130  137.8010 C   0  0  2  0  0  3  0  0  0  0  0  0
  183.7900  178.9770  141.1740 C   0  0  0  0  0  2  0  0  0  0  0  0
  183.0880  177.6090  139.0160 C   0  0  1  0  0  3  0  0  0  0  0  0
  184.2100  176.9940  137.1780 C   0  0  0  0  0  0  0  0  0  0  0  0
  185.7600  178.5420  142.6490 C   0  0  1  0  0  3  0  0  0  0  0  0
  189.4060  177.7720  137.9210 C   0  0  0  0  0  0  0  0  0  0  0  0
  186.7570  178.9870  137.6550 O   0  0  0  0  0  0  0  0  0  0  0  0
  183.0310  177.5890  136.6380 N   0  0  0  0  0  2  0  0  0  0  0  0
  187.7570  178.2450  144.0190 N   0  0  0  0  0  2  0  0  0  0  0  0
  189.2980  177.3900  145.6810 C   0  0  0  0  0  1  0  0  0  0  0  0
  188.5050  177.0700  144.4330 C   0  0  0  0  0  2  0  0  0  0  0  0
  192.4640  176.0090  136.7140 N   0  0  0  0  0  2  0  0  0  0  0  0
  193.3570  176.0300  137.8650 C   0  0  0  0  0  2  0  0  0  0  0  0
  194.3580  174.8900  137.7800 C   0  0  2  0  0  3  0  0  0  0  0  0
  195.3420  175.0390  138.7560 O   0  0  0  0  0  1  0  0  0  0  0  0
  195.0070  174.8950  136.4110 C   0  0  0  0  0  1  0  0  0  0  0  0
  1 14  1  0  0  0  0
  2 10  1  0  0  0  0
  2 15  1  0  0  0  0
  3 17  1  0  0  0  0
  5 23  1  0  0  0  0
  6 12  1  0  0  0  0
  6  1  2  0  0  0  0
  7 11  1  1  0  0  0
  7 20  1  0  0  0  0
  9 11  2  0  0  0  0
 10 22  1  0  0  0  0
 12 16  2  0  0  0  0
 13  3  1  0  0  0  0
 14 24  2  0  0  0  0
 15 16  1  0  0  0  0
 15 25  2  0  0  0  0
 16 24  1  0  0  0  0
 17 27  1  1  0  0  0
 18 13  1  0  0  0  0
 19  9  1  6  0  0  0
 19 21  1  0  0  0  0
 20  5  1  0  0  0  0
 21  4  1  6  0  0  0
 21  7  1  0  0  0  0
 22  4  2  0  0  0  0
 23 17  1  0  0  0  0
 23  8  1  1  0  0  0
 24 18  1  0  0  0  0
 26 22  1  0  0  0  0
 26 19  1  0  0  0  0
 27 29  1  0  0  0  0
 29 28  1  0  0  0  0
 30  1  1  0  0  0  0
 30 31  1  0  0  0  0
 32 34  1  6  0  0  0
 32 31  1  0  0  0  0
 32 33  1  0  0  0  0
M  END
>  <MODEL>
8

>  <REMARK>
 VINA RESULT:      -6.5      2.917      3.691
  Name = 
  5 active torsions:
  status: ('A' for Active; 'I' for Inactive)
    1  A    between atoms: C_1  and  N_33
    2  A    between atoms: C_9  and  C_31
    3  A    between atoms: N_10  and  C_22
    4  A    between atoms: N_10  and  C_30
    5  A    between atoms: C_31  and  N_33
                            x       y       z     vdW  Elec       q    Type
                         _______ _______ _______ _____ _____    ______ ____

>  <TORSDO>
F 5

$$$$
=
 OpenBabel10232409563D

 34 37  0  0  1  0  0  0  0  0999 V2000
  188.6790  177.9220  146.2640 C   0  0  0  0  0  0  0  0  0  0  0  0
  184.0870  178.2390  143.8390 C   0  0  0  0  0  2  0  0  0  0  0  0
  189.0230  177.2880  140.2080 C   0  0  0  0  0  2  0  0  0  0  0  0
  184.4870  179.5320  140.8260 N   0  0  0  0  0  0  0  0  0  0  0  0
  186.6350  178.3880  138.7900 C   0  0  0  0  0  2  0  0  0  0  0  0
  187.3800  178.2820  146.6370 C   0  0  0  0  0  3  0  0  0  0  0  0
  184.1640  178.1900  138.7710 C   0  0  1  0  0  3  0  0  0  0  0  0
  188.0540  178.7590  136.9120 O   0  0  0  0  0  1  0  0  0  0  0  0
  182.0370  177.8840  139.4680 C   0  0  0  0  0  3  0  0  0  0  0  0
  184.0070  179.6270  143.2190 C   0  0  0  0  0  2  0  0  0  0  0  0
  183.1190  177.3870  138.6240 C   0  0  0  0  0  3  0  0  0  0  0  0
  186.3310  178.1660  145.7240 C   0  0  0  0  0  3  0  0  0  0  0  0
  188.5640  178.3290  141.6210 S   0  0  0  0  0  0  0  0  0  0  0  0
  188.9180  177.4590  144.9700 C   0  0  0  0  0  3  0  0  0  0  0  0
  185.3880  177.5780  143.5040 C   0  0  0  0  0  0  0  0  0  0  0  0
  186.5530  177.6890  144.4220 C   0  0  0  0  0  0  0  0  0  0  0  0
  189.1330  178.1500  138.9580 C   0  0  2  0  0  3  0  0  0  0  0  0
  188.2300  176.8840  142.6680 C   0  0  0  0  0  2  0  0  0  0  0  0
  182.4280  179.0350  139.9940 C   0  0  2  0  0  3  0  0  0  0  0  0
  185.4100  178.0390  137.9640 C   0  0  0  0  0  2  0  0  0  0  0  0
  183.7890  179.4020  139.5550 C   0  0  1  0  0  3  0  0  0  0  0  0
  183.6110  179.5380  141.7840 C   0  0  0  0  0  0  0  0  0  0  0  0
  187.9070  177.9790  138.0620 C   0  0  1  0  0  3  0  0  0  0  0  0
  187.8740  177.3320  144.0470 C   0  0  0  0  0  0  0  0  0  0  0  0
  185.4680  176.9260  142.4290 O   0  0  0  0  0  0  0  0  0  0  0  0
  182.2680  179.2780  141.3800 N   0  0  0  0  0  2  0  0  0  0  0  0
  190.3330  177.7730  138.2250 N   0  0  0  0  0  2  0  0  0  0  0  0
  191.9770  176.0130  137.9710 C   0  0  0  0  0  1  0  0  0  0  0  0
  190.7420  176.4690  138.7170 C   0  0  0  0  0  2  0  0  0  0  0  0
  189.7750  178.0410  147.1770 N   0  0  0  0  0  2  0  0  0  0  0  0
  190.3920  176.9030  147.8460 C   0  0  0  0  0  2  0  0  0  0  0  0
  191.8510  176.7780  147.4410 C   0  0  2  0  0  3  0  0  0  0  0  0
  191.9820  176.9280  146.0600 O   0  0  0  0  0  1  0  0  0  0  0  0
  192.3670  175.4130  147.8460 C   0  0  0  0  0  1  0  0  0  0  0  0
  1  6  1  0  0  0  0
  1 30  1  0  0  0  0
  3 13  1  0  0  0  0
  4 22  2  0  0  0  0
  7 20  1  6  0  0  0
  7 21  1  0  0  0  0
 10  2  1  0  0  0  0
 11  7  1  0  0  0  0
 11  9  2  0  0  0  0
 12  6  2  0  0  0  0
 13 18  1  0  0  0  0
 14  1  2  0  0  0  0
 15  2  1  0  0  0  0
 15 16  1  0  0  0  0
 16 12  1  0  0  0  0
 17 27  1  6  0  0  0
 17  3  1  0  0  0  0
 18 24  1  0  0  0  0
 19  9  1  1  0  0  0
 19 26  1  0  0  0  0
 20  5  1  0  0  0  0
 21 19  1  0  0  0  0
 21  4  1  1  0  0  0
 22 10  1  0  0  0  0
 23  8  1  6  0  0  0
 23  5  1  0  0  0  0
 23 17  1  0  0  0  0
 24 16  2  0  0  0  0
 24 14  1  0  0  0  0
 25 15  2  0  0  0  0
 26 22  1  0  0  0  0
 27 29  1  0  0  0  0
 28 29  1  0  0  0  0
 30 31  1  0  0  0  0
 32 31  1  0  0  0  0
 32 34  1  6  0  0  0
 33 32  1  0  0  0  0
M  END
>  <MODEL>
9

>  <REMARK>
 VINA RESULT:      -6.2      2.612      5.947
  Name = 
  5 active torsions:
  status: ('A' for Active; 'I' for Inactive)
    1  A    between atoms: C_1  and  N_33
    2  A    between atoms: C_9  and  C_31
    3  A    between atoms: N_10  and  C_22
    4  A    between atoms: N_10  and  C_30
    5  A    between atoms: C_31  and  N_33
                            x       y       z     vdW  Elec       q    Type
                         _______ _______ _______ _____ _____    ______ ____

>  <TORSDO>
F 5

$$$$
