=
 OpenBabel10232407463D

 25 28  0  0  1  0  0  0  0  0999 V2000
  191.4190  176.6110  146.6540 C   0  0  0  0  0  0  0  0  0  0  0  0
  187.3930  178.1350  148.3210 N   0  0  0  0  0  0  0  0  0  0  0  0
  188.4700  177.5200  146.4410 C   0  0  1  0  0  3  0  0  0  0  0  0
  192.5080  176.1020  147.0260 O   0  0  0  0  0  0  0  0  0  0  0  0
  188.6510  177.9660  148.5990 O   0  0  0  0  0  0  0  0  0  0  0  0
  189.3290  177.5800  147.5430 C   0  0  0  0  0  0  0  0  0  0  0  0
  187.2420  177.8440  147.0180 C   0  0  0  0  0  0  0  0  0  0  0  0
  190.1720  177.4640  144.6370 C   0  0  2  0  0  3  0  0  0  0  0  0
  188.0440  177.0890  142.6940 C   0  0  0  0  0  2  0  0  0  0  0  0
  190.3310  177.3080  143.1250 C   0  0  0  0  0  2  0  0  0  0  0  0
  190.5790  177.2280  147.6340 N   0  0  0  0  0  0  0  0  0  0  0  0
  185.9940  177.9790  146.3450 N   0  0  0  0  0  1  0  0  0  0  0  0
  189.2100  177.9150  142.4140 N   0  0  0  0  0  0  0  0  0  0  0  0
  187.6030  177.2900  144.1370 C   0  0  0  0  0  2  0  0  0  0  0  0
  191.0530  176.5170  145.2840 N   0  0  0  0  0  2  0  0  0  0  0  0
  188.7460  177.3310  145.1310 C   0  0  2  0  0  3  0  0  0  0  0  0
  189.4410  177.9410  140.9610 C   0  0  2  0  0  3  0  0  0  0  0  0
  188.1970  178.2470  140.0990 C   0  0  0  0  0  2  0  0  0  0  0  0
  188.1770  177.4920  138.7770 C   0  0  0  0  0  3  0  0  0  0  0  0
  187.0710  178.0520  137.9080 C   0  0  0  0  0  2  0  0  0  0  0  0
  188.5080  178.4520  137.6540 C   0  0  0  0  0  2  0  0  0  0  0  0
  190.2360  176.7180  140.4980 C   0  0  0  0  0  2  0  0  0  0  0  0
  191.5280  177.1270  139.8080 C   0  0  0  0  0  2  0  0  0  0  0  0
  191.6720  176.4030  138.4830 C   0  0  0  0  0  2  0  0  0  0  0  0
  190.9200  175.2300  138.5130 O   0  0  0  0  0  1  0  0  0  0  0  0
  1  4  2  0  0  0  0
  1 11  1  0  0  0  0
  2  5  1  0  0  0  0
  3  7  1  6  0  0  0
  3  6  1  0  0  0  0
  6 11  2  0  0  0  0
  6  5  1  0  0  0  0
  7  2  2  0  0  0  0
  8 10  1  6  0  0  0
  8 16  1  0  0  0  0
  8 15  1  0  0  0  0
  9 14  1  0  0  0  0
 12  7  1  0  0  0  0
 13  9  1  0  0  0  0
 13 10  1  0  0  0  0
 15  1  1  0  0  0  0
 16 14  1  6  0  0  0
 16  3  1  0  0  0  0
 17 18  1  6  0  0  0
 17 13  1  0  0  0  0
 19 18  1  0  0  0  0
 20 19  1  0  0  0  0
 21 20  1  0  0  0  0
 21 19  1  0  0  0  0
 22 17  1  0  0  0  0
 23 22  1  0  0  0  0
 24 25  1  0  0  0  0
 24 23  1  0  0  0  0
M  END
>  <MODEL>
1

>  <REMARK>
 VINA RESULT:      -8.1      0.000      0.000
  Name = 
  6 active torsions:
  status: ('A' for Active; 'I' for Inactive)
    1  A    between atoms: C_3  and  C_4
    2  A    between atoms: C_4  and  C_10
    3  A    between atoms: C_6  and  C_9
    4  A    between atoms: C_6  and  C_16
    5  A    between atoms: C_10  and  C_16
    6  A    between atoms: C_10  and  N_21
                            x       y       z     vdW  Elec       q    Type
                         _______ _______ _______ _____ _____    ______ ____

>  <TORSDO>
F 6

$$$$
=
 OpenBabel10232407463D

 25 28  0  0  1  0  0  0  0  0999 V2000
  184.6060  179.1920  139.8600 C   0  0  0  0  0  0  0  0  0  0  0  0
  180.6110  178.6610  142.1120 N   0  0  0  0  0  0  0  0  0  0  0  0
  182.8470  178.7630  142.3680 C   0  0  1  0  0  3  0  0  0  0  0  0
  185.0680  179.5670  138.7520 O   0  0  0  0  0  0  0  0  0  0  0  0
  181.1650  178.6630  140.9370 O   0  0  0  0  0  0  0  0  0  0  0  0
  182.4730  178.7480  141.0210 C   0  0  0  0  0  0  0  0  0  0  0  0
  181.6080  178.7500  143.0090 C   0  0  0  0  0  0  0  0  0  0  0  0
  185.2550  178.2310  142.0970 C   0  0  2  0  0  3  0  0  0  0  0  0
  185.6220  178.6210  144.9540 C   0  0  0  0  0  2  0  0  0  0  0  0
  186.5620  178.1010  142.8780 C   0  0  0  0  0  2  0  0  0  0  0  0
  183.2100  178.8970  139.9580 N   0  0  0  0  0  0  0  0  0  0  0  0
  181.3760  178.7130  144.4150 N   0  0  0  0  0  1  0  0  0  0  0  0
  186.3230  177.5790  144.2200 N   0  0  0  0  0  0  0  0  0  0  0  0
  184.1940  178.7430  144.4410 C   0  0  0  0  0  2  0  0  0  0  0  0
  185.4830  179.1140  140.9760 N   0  0  0  0  0  2  0  0  0  0  0  0
  184.0730  178.6810  142.9320 C   0  0  2  0  0  3  0  0  0  0  0  0
  187.5850  177.2690  144.9130 C   0  0  2  0  0  3  0  0  0  0  0  0
  187.8460  178.0770  146.2030 C   0  0  0  0  0  2  0  0  0  0  0  0
  188.2030  177.2070  147.3990 C   0  0  0  0  0  3  0  0  0  0  0  0
  189.2490  177.9200  148.2300 C   0  0  0  0  0  2  0  0  0  0  0  0
  187.8020  177.9250  148.6700 C   0  0  0  0  0  2  0  0  0  0  0  0
  188.7670  177.2470  143.9410 C   0  0  0  0  0  2  0  0  0  0  0  0
  189.9600  178.0040  144.5040 C   0  0  0  0  0  2  0  0  0  0  0  0
  191.1580  177.0830  144.6290 C   0  0  0  0  0  2  0  0  0  0  0  0
  191.7600  177.2720  145.8720 O   0  0  0  0  0  1  0  0  0  0  0  0
  1 11  1  0  0  0  0
  1 15  1  0  0  0  0
  2  7  2  0  0  0  0
  3  6  1  6  0  0  0
  3 16  1  0  0  0  0
  3  7  1  0  0  0  0
  4  1  2  0  0  0  0
  5  6  1  0  0  0  0
  5  2  1  0  0  0  0
  7 12  1  0  0  0  0
  8 10  1  1  0  0  0
  8 16  1  0  0  0  0
 10 13  1  0  0  0  0
 11  6  2  0  0  0  0
 13 17  1  0  0  0  0
 13  9  1  0  0  0  0
 14  9  1  0  0  0  0
 15  8  1  0  0  0  0
 16 14  1  1  0  0  0
 17 22  1  6  0  0  0
 17 18  1  0  0  0  0
 18 19  1  0  0  0  0
 19 20  1  0  0  0  0
 19 21  1  0  0  0  0
 20 21  1  0  0  0  0
 22 23  1  0  0  0  0
 23 24  1  0  0  0  0
 24 25  1  0  0  0  0
M  END
>  <MODEL>
2

>  <REMARK>
 VINA RESULT:      -8.0      4.358      7.583
  Name = 
  6 active torsions:
  status: ('A' for Active; 'I' for Inactive)
    1  A    between atoms: C_3  and  C_4
    2  A    between atoms: C_4  and  C_10
    3  A    between atoms: C_6  and  C_9
    4  A    between atoms: C_6  and  C_16
    5  A    between atoms: C_10  and  C_16
    6  A    between atoms: C_10  and  N_21
                            x       y       z     vdW  Elec       q    Type
                         _______ _______ _______ _____ _____    ______ ____

>  <TORSDO>
F 6

$$$$
=
 OpenBabel10232407463D

 25 28  0  0  1  0  0  0  0  0999 V2000
  192.2270  177.0040  139.2440 C   0  0  0  0  0  0  0  0  0  0  0  0
  188.6010  177.5180  136.4330 N   0  0  0  0  0  0  0  0  0  0  0  0
  189.2710  177.6290  138.5810 C   0  0  1  0  0  3  0  0  0  0  0  0
  193.4820  176.9110  139.2240 O   0  0  0  0  0  0  0  0  0  0  0  0
  189.8110  177.0510  136.5170 O   0  0  0  0  0  0  0  0  0  0  0  0
  190.2670  177.1140  137.7460 C   0  0  0  0  0  0  0  0  0  0  0  0
  188.2510  177.9070  137.6710 C   0  0  0  0  0  0  0  0  0  0  0  0
  190.2220  176.9470  140.7680 C   0  0  2  0  0  3  0  0  0  0  0  0
  188.0780  178.3850  142.1040 C   0  0  0  0  0  2  0  0  0  0  0  0
  190.0080  177.0780  142.2760 C   0  0  0  0  0  2  0  0  0  0  0  0
  191.5050  176.8200  138.0230 N   0  0  0  0  0  0  0  0  0  0  0  0
  186.9550  178.4170  137.9730 N   0  0  0  0  0  1  0  0  0  0  0  0
  188.5870  177.1160  142.6040 N   0  0  0  0  0  0  0  0  0  0  0  0
  188.0150  178.3530  140.5830 C   0  0  0  0  0  2  0  0  0  0  0  0
  191.5850  177.3250  140.4700 N   0  0  0  0  0  2  0  0  0  0  0  0
  189.2280  177.7240  139.9290 C   0  0  2  0  0  3  0  0  0  0  0  0
  188.3640  177.0490  144.0580 C   0  0  2  0  0  3  0  0  0  0  0  0
  186.8910  177.1630  144.5070 C   0  0  0  0  0  2  0  0  0  0  0  0
  186.6110  178.3990  145.3500 C   0  0  0  0  0  3  0  0  0  0  0  0
  185.1540  178.7810  145.1920 C   0  0  0  0  0  2  0  0  0  0  0  0
  185.6120  178.0440  146.4310 C   0  0  0  0  0  2  0  0  0  0  0  0
  189.3210  177.9740  144.8130 C   0  0  0  0  0  2  0  0  0  0  0  0
  189.9440  177.2690  146.0080 C   0  0  0  0  0  2  0  0  0  0  0  0
  191.4050  176.9660  145.7390 C   0  0  0  0  0  2  0  0  0  0  0  0
  192.0460  176.6720  146.9420 O   0  0  0  0  0  1  0  0  0  0  0  0
  1 15  1  0  0  0  0
  2  5  1  0  0  0  0
  2  7  2  0  0  0  0
  3  7  1  1  0  0  0
  3 16  1  0  0  0  0
  4  1  2  0  0  0  0
  5  6  1  0  0  0  0
  6 11  2  0  0  0  0
  6  3  1  0  0  0  0
  7 12  1  0  0  0  0
  8 10  1  1  0  0  0
  9 13  1  0  0  0  0
 10 13  1  0  0  0  0
 11  1  1  0  0  0  0
 13 17  1  0  0  0  0
 14  9  1  0  0  0  0
 15  8  1  0  0  0  0
 16 14  1  1  0  0  0
 16  8  1  0  0  0  0
 17 18  1  6  0  0  0
 17 22  1  0  0  0  0
 18 19  1  0  0  0  0
 19 21  1  0  0  0  0
 20 19  1  0  0  0  0
 20 21  1  0  0  0  0
 22 23  1  0  0  0  0
 24 23  1  0  0  0  0
 24 25  1  0  0  0  0
M  END
>  <MODEL>
3

>  <REMARK>
 VINA RESULT:      -8.0      2.425      7.265
  Name = 
  6 active torsions:
  status: ('A' for Active; 'I' for Inactive)
    1  A    between atoms: C_3  and  C_4
    2  A    between atoms: C_4  and  C_10
    3  A    between atoms: C_6  and  C_9
    4  A    between atoms: C_6  and  C_16
    5  A    between atoms: C_10  and  C_16
    6  A    between atoms: C_10  and  N_21
                            x       y       z     vdW  Elec       q    Type
                         _______ _______ _______ _____ _____    ______ ____

>  <TORSDO>
F 6

$$$$
=
 OpenBabel10232407463D

 25 28  0  0  1  0  0  0  0  0999 V2000
  185.2480  178.9980  140.8240 C   0  0  0  0  0  0  0  0  0  0  0  0
  182.3370  178.9560  144.4070 N   0  0  0  0  0  0  0  0  0  0  0  0
  184.4920  178.6900  143.8080 C   0  0  1  0  0  3  0  0  0  0  0  0
  185.3250  179.3670  139.6240 O   0  0  0  0  0  0  0  0  0  0  0  0
  182.4100  178.9470  143.1090 O   0  0  0  0  0  0  0  0  0  0  0  0
  183.6510  178.8200  142.6980 C   0  0  0  0  0  0  0  0  0  0  0  0
  183.5930  178.8300  144.8660 C   0  0  0  0  0  0  0  0  0  0  0  0
  186.5030  177.8060  142.6550 C   0  0  2  0  0  3  0  0  0  0  0  0
  187.9580  177.9500  145.1670 C   0  0  0  0  0  2  0  0  0  0  0  0
  187.9640  177.4230  142.8900 C   0  0  0  0  0  2  0  0  0  0  0  0
  183.9580  178.9200  141.4370 N   0  0  0  0  0  0  0  0  0  0  0  0
  183.8940  178.7400  146.2560 N   0  0  0  0  0  1  0  0  0  0  0  0
  188.1520  176.8600  144.2220 N   0  0  0  0  0  0  0  0  0  0  0  0
  186.4840  178.3260  145.2260 C   0  0  0  0  0  2  0  0  0  0  0  0
  186.4480  178.7120  141.5300 N   0  0  0  0  0  2  0  0  0  0  0  0
  185.8070  178.3810  143.8720 C   0  0  2  0  0  3  0  0  0  0  0  0
  189.5080  176.3130  144.3930 C   0  0  2  0  0  3  0  0  0  0  0  0
  190.3820  177.0290  145.4450 C   0  0  0  0  0  2  0  0  0  0  0  0
  190.6110  176.2040  146.7030 C   0  0  0  0  0  3  0  0  0  0  0  0
  192.0960  175.9580  146.8670 C   0  0  0  0  0  2  0  0  0  0  0  0
  191.4100  177.0230  147.6940 C   0  0  0  0  0  2  0  0  0  0  0  0
  190.2010  176.1040  143.0450 C   0  0  0  0  0  2  0  0  0  0  0  0
  191.5860  176.7310  143.0310 C   0  0  0  0  0  2  0  0  0  0  0  0
  191.7730  177.5710  141.7820 C   0  0  0  0  0  2  0  0  0  0  0  0
  190.9800  177.0580  140.7560 O   0  0  0  0  0  1  0  0  0  0  0  0
  1 11  1  0  0  0  0
  1 15  1  0  0  0  0
  2  7  2  0  0  0  0
  3  6  1  6  0  0  0
  3 16  1  0  0  0  0
  3  7  1  0  0  0  0
  4  1  2  0  0  0  0
  5  2  1  0  0  0  0
  6  5  1  0  0  0  0
  7 12  1  0  0  0  0
  8 10  1  1  0  0  0
  8 16  1  0  0  0  0
  9 14  1  0  0  0  0
 10 13  1  0  0  0  0
 11  6  2  0  0  0  0
 13 17  1  0  0  0  0
 13  9  1  0  0  0  0
 15  8  1  0  0  0  0
 16 14  1  1  0  0  0
 17 22  1  6  0  0  0
 17 18  1  0  0  0  0
 18 19  1  0  0  0  0
 19 20  1  0  0  0  0
 19 21  1  0  0  0  0
 20 21  1  0  0  0  0
 23 22  1  0  0  0  0
 24 23  1  0  0  0  0
 25 24  1  0  0  0  0
M  END
>  <MODEL>
4

>  <REMARK>
 VINA RESULT:      -7.9      3.349      6.217
  Name = 
  6 active torsions:
  status: ('A' for Active; 'I' for Inactive)
    1  A    between atoms: C_3  and  C_4
    2  A    between atoms: C_4  and  C_10
    3  A    between atoms: C_6  and  C_9
    4  A    between atoms: C_6  and  C_16
    5  A    between atoms: C_10  and  C_16
    6  A    between atoms: C_10  and  N_21
                            x       y       z     vdW  Elec       q    Type
                         _______ _______ _______ _____ _____    ______ ____

>  <TORSDO>
F 6

$$$$
=
 OpenBabel10232407463D

 25 28  0  0  1  0  0  0  0  0999 V2000
  184.3270  179.1780  139.7610 C   0  0  0  0  0  0  0  0  0  0  0  0
  180.2010  178.4030  141.6810 N   0  0  0  0  0  0  0  0  0  0  0  0
  182.3830  178.7450  142.1280 C   0  0  1  0  0  3  0  0  0  0  0  0
  184.8570  179.5230  138.6730 O   0  0  0  0  0  0  0  0  0  0  0  0
  180.8630  178.3810  140.5630 O   0  0  0  0  0  0  0  0  0  0  0  0
  182.1430  178.6020  140.7580 C   0  0  0  0  0  0  0  0  0  0  0  0
  181.0940  178.6520  142.6550 C   0  0  0  0  0  0  0  0  0  0  0  0
  184.8440  178.4390  142.1140 C   0  0  2  0  0  3  0  0  0  0  0  0
  184.8970  179.0560  144.9540 C   0  0  0  0  0  2  0  0  0  0  0  0
  186.0770  178.4940  143.0160 C   0  0  0  0  0  2  0  0  0  0  0  0
  182.9610  178.7530  139.7560 N   0  0  0  0  0  0  0  0  0  0  0  0
  180.7330  178.6860  144.0320 N   0  0  0  0  0  1  0  0  0  0  0  0
  185.7600  178.0420  144.3670 N   0  0  0  0  0  0  0  0  0  0  0  0
  183.5190  178.9990  144.3080 C   0  0  0  0  0  2  0  0  0  0  0  0
  185.0970  179.2630  140.9530 N   0  0  0  0  0  2  0  0  0  0  0  0
  183.5510  178.8240  142.8030 C   0  0  2  0  0  3  0  0  0  0  0  0
  186.9720  177.9080  145.1910 C   0  0  2  0  0  3  0  0  0  0  0  0
  188.1470  177.1610  144.5230 C   0  0  0  0  0  2  0  0  0  0  0  0
  189.4780  177.3740  145.2300 C   0  0  0  0  0  3  0  0  0  0  0  0
  190.6000  176.9580  144.3010 C   0  0  0  0  0  2  0  0  0  0  0  0
  190.2730  178.4230  144.4820 C   0  0  0  0  0  2  0  0  0  0  0  0
  186.6390  177.4120  146.6000 C   0  0  0  0  0  2  0  0  0  0  0  0
  187.0850  178.4100  147.6580 C   0  0  0  0  0  2  0  0  0  0  0  0
  188.0200  177.7450  148.6500 C   0  0  0  0  0  2  0  0  0  0  0  0
  189.2740  178.3490  148.5820 O   0  0  0  0  0  1  0  0  0  0  0  0
  1 15  1  0  0  0  0
  2  7  2  0  0  0  0
  3  6  1  6  0  0  0
  3  7  1  0  0  0  0
  3 16  1  0  0  0  0
  4  1  2  0  0  0  0
  5  6  1  0  0  0  0
  5  2  1  0  0  0  0
  7 12  1  0  0  0  0
  8 16  1  0  0  0  0
  8 10  1  1  0  0  0
 10 13  1  0  0  0  0
 11  1  1  0  0  0  0
 11  6  2  0  0  0  0
 13  9  1  0  0  0  0
 13 17  1  0  0  0  0
 14  9  1  0  0  0  0
 15  8  1  0  0  0  0
 16 14  1  1  0  0  0
 17 18  1  6  0  0  0
 17 22  1  0  0  0  0
 18 19  1  0  0  0  0
 20 21  1  0  0  0  0
 20 19  1  0  0  0  0
 21 19  1  0  0  0  0
 22 23  1  0  0  0  0
 23 24  1  0  0  0  0
 25 24  1  0  0  0  0
M  END
>  <MODEL>
5

>  <REMARK>
 VINA RESULT:      -7.9      4.622      7.998
  Name = 
  6 active torsions:
  status: ('A' for Active; 'I' for Inactive)
    1  A    between atoms: C_3  and  C_4
    2  A    between atoms: C_4  and  C_10
    3  A    between atoms: C_6  and  C_9
    4  A    between atoms: C_6  and  C_16
    5  A    between atoms: C_10  and  C_16
    6  A    between atoms: C_10  and  N_21
                            x       y       z     vdW  Elec       q    Type
                         _______ _______ _______ _____ _____    ______ ____

>  <TORSDO>
F 6

$$$$
=
 OpenBabel10232407463D

 25 28  0  0  1  0  0  0  0  0999 V2000
  185.9400  178.4350  141.1870 C   0  0  0  0  0  0  0  0  0  0  0  0
  189.2780  178.1380  138.0120 N   0  0  0  0  0  0  0  0  0  0  0  0
  188.7500  177.6630  140.1500 C   0  0  1  0  0  3  0  0  0  0  0  0
  184.7070  178.6550  141.3000 O   0  0  0  0  0  0  0  0  0  0  0  0
  188.1400  178.6980  138.2940 O   0  0  0  0  0  0  0  0  0  0  0  0
  187.7650  178.4330  139.5240 C   0  0  0  0  0  0  0  0  0  0  0  0
  189.6660  177.4740  139.1140 C   0  0  0  0  0  0  0  0  0  0  0  0
  188.0400  177.9800  142.5050 C   0  0  2  0  0  3  0  0  0  0  0  0
  190.0890  176.0940  143.3370 C   0  0  0  0  0  2  0  0  0  0  0  0
  188.3400  177.5260  143.9330 C   0  0  0  0  0  2  0  0  0  0  0  0
  186.5920  178.7880  139.9640 N   0  0  0  0  0  0  0  0  0  0  0  0
  190.9110  176.7850  139.1930 N   0  0  0  0  0  1  0  0  0  0  0  0
  189.7670  177.2800  144.1160 N   0  0  0  0  0  0  0  0  0  0  0  0
  190.0490  176.4260  141.8510 C   0  0  0  0  0  2  0  0  0  0  0  0
  186.6240  177.8080  142.2640 N   0  0  0  0  0  2  0  0  0  0  0  0
  188.8750  177.2930  141.4440 C   0  0  2  0  0  3  0  0  0  0  0  0
  190.0950  177.0290  145.5290 C   0  0  2  0  0  3  0  0  0  0  0  0
  189.3870  177.9490  146.5470 C   0  0  0  0  0  2  0  0  0  0  0  0
  188.4880  177.1970  147.5180 C   0  0  0  0  0  3  0  0  0  0  0  0
  188.2950  178.0400  148.7620 C   0  0  0  0  0  2  0  0  0  0  0  0
  187.2070  177.9790  147.7130 C   0  0  0  0  0  2  0  0  0  0  0  0
  191.6070  176.9120  145.7400 C   0  0  0  0  0  2  0  0  0  0  0  0
  191.9820  175.5560  146.3180 C   0  0  0  0  0  2  0  0  0  0  0  0
  192.0210  175.6210  147.8330 C   0  0  0  0  0  2  0  0  0  0  0  0
  192.3570  176.9130  148.2340 O   0  0  0  0  0  1  0  0  0  0  0  0
  1  4  2  0  0  0  0
  1 15  1  0  0  0  0
  2  5  1  0  0  0  0
  2  7  2  0  0  0  0
  3  7  1  1  0  0  0
  3 16  1  0  0  0  0
  5  6  1  0  0  0  0
  6 11  2  0  0  0  0
  6  3  1  0  0  0  0
  7 12  1  0  0  0  0
  8 10  1  1  0  0  0
  9 13  1  0  0  0  0
 10 13  1  0  0  0  0
 11  1  1  0  0  0  0
 13 17  1  0  0  0  0
 14  9  1  0  0  0  0
 15  8  1  0  0  0  0
 16 14  1  1  0  0  0
 16  8  1  0  0  0  0
 17 22  1  6  0  0  0
 17 18  1  0  0  0  0
 18 19  1  0  0  0  0
 19 21  1  0  0  0  0
 19 20  1  0  0  0  0
 21 20  1  0  0  0  0
 22 23  1  0  0  0  0
 23 24  1  0  0  0  0
 24 25  1  0  0  0  0
M  END
>  <MODEL>
6

>  <REMARK>
 VINA RESULT:      -7.9      2.570      7.524
  Name = 
  6 active torsions:
  status: ('A' for Active; 'I' for Inactive)
    1  A    between atoms: C_3  and  C_4
    2  A    between atoms: C_4  and  C_10
    3  A    between atoms: C_6  and  C_9
    4  A    between atoms: C_6  and  C_16
    5  A    between atoms: C_10  and  C_16
    6  A    between atoms: C_10  and  N_21
                            x       y       z     vdW  Elec       q    Type
                         _______ _______ _______ _____ _____    ______ ____

>  <TORSDO>
F 6

$$$$
=
 OpenBabel10232407463D

 25 28  0  0  1  0  0  0  0  0999 V2000
  189.9530  176.1160  143.4460 C   0  0  0  0  0  0  0  0  0  0  0  0
  190.2130  177.5240  147.8340 N   0  0  0  0  0  0  0  0  0  0  0  0
  188.8400  177.3430  146.0580 C   0  0  1  0  0  3  0  0  0  0  0  0
  190.5680  175.4170  142.5990 O   0  0  0  0  0  0  0  0  0  0  0  0
  190.9140  177.1590  146.8030 O   0  0  0  0  0  0  0  0  0  0  0  0
  190.1600  177.0110  145.7380 C   0  0  0  0  0  0  0  0  0  0  0  0
  188.9380  177.6190  147.4230 C   0  0  0  0  0  0  0  0  0  0  0  0
  187.9490  177.6110  143.7590 C   0  0  2  0  0  3  0  0  0  0  0  0
  185.2940  178.0020  144.8750 C   0  0  0  0  0  2  0  0  0  0  0  0
  186.6570  177.8610  142.9810 C   0  0  0  0  0  2  0  0  0  0  0  0
  190.6430  176.5220  144.6320 N   0  0  0  0  0  0  0  0  0  0  0  0
  187.8880  178.0590  148.2800 N   0  0  0  0  0  1  0  0  0  0  0  0
  185.7640  178.7490  143.7180 N   0  0  0  0  0  0  0  0  0  0  0  0
  186.4250  177.8420  145.8820 C   0  0  0  0  0  2  0  0  0  0  0  0
  188.5900  176.4390  143.2060 N   0  0  0  0  0  2  0  0  0  0  0  0
  187.7610  177.4930  145.2570 C   0  0  2  0  0  3  0  0  0  0  0  0
  184.6060  179.1500  142.9030 C   0  0  2  0  0  3  0  0  0  0  0  0
  183.2810  178.4300  143.2370 C   0  0  0  0  0  2  0  0  0  0  0  0
  182.1330  179.3840  143.5350 C   0  0  0  0  0  3  0  0  0  0  0  0
  180.9590  179.0320  142.6460 C   0  0  0  0  0  2  0  0  0  0  0  0
  180.9680  178.5960  144.0940 C   0  0  0  0  0  2  0  0  0  0  0  0
  184.9480  179.1640  141.4120 C   0  0  0  0  0  2  0  0  0  0  0  0
  183.9000  178.4240  140.5960 C   0  0  0  0  0  2  0  0  0  0  0  0
  183.6880  179.1100  139.2600 C   0  0  0  0  0  2  0  0  0  0  0  0
  184.4340  180.2870  139.2200 O   0  0  0  0  0  1  0  0  0  0  0  0
  1 11  1  0  0  0  0
  3  6  1  6  0  0  0
  3  7  1  0  0  0  0
  4  1  2  0  0  0  0
  5  2  1  0  0  0  0
  6  5  1  0  0  0  0
  7  2  2  0  0  0  0
  7 12  1  0  0  0  0
  8 10  1  6  0  0  0
  8 16  1  0  0  0  0
  9 14  1  0  0  0  0
 10 13  1  0  0  0  0
 11  6  2  0  0  0  0
 13  9  1  0  0  0  0
 15  1  1  0  0  0  0
 15  8  1  0  0  0  0
 16 14  1  1  0  0  0
 16  3  1  0  0  0  0
 17 22  1  6  0  0  0
 17 18  1  0  0  0  0
 17 13  1  0  0  0  0
 18 19  1  0  0  0  0
 19 21  1  0  0  0  0
 20 19  1  0  0  0  0
 20 21  1  0  0  0  0
 23 22  1  0  0  0  0
 24 23  1  0  0  0  0
 25 24  1  0  0  0  0
M  END
>  <MODEL>
7

>  <REMARK>
 VINA RESULT:      -7.8      3.611      5.143
  Name = 
  6 active torsions:
  status: ('A' for Active; 'I' for Inactive)
    1  A    between atoms: C_3  and  C_4
    2  A    between atoms: C_4  and  C_10
    3  A    between atoms: C_6  and  C_9
    4  A    between atoms: C_6  and  C_16
    5  A    between atoms: C_10  and  C_16
    6  A    between atoms: C_10  and  N_21
                            x       y       z     vdW  Elec       q    Type
                         _______ _______ _______ _____ _____    ______ ____

>  <TORSDO>
F 6

$$$$
=
 OpenBabel10232407463D

 25 28  0  0  1  0  0  0  0  0999 V2000
  191.6160  176.4980  146.8600 C   0  0  0  0  0  0  0  0  0  0  0  0
  187.8520  178.4110  148.7270 N   0  0  0  0  0  0  0  0  0  0  0  0
  188.6990  177.5290  146.8360 C   0  0  1  0  0  3  0  0  0  0  0  0
  192.7170  175.9790  147.1790 O   0  0  0  0  0  0  0  0  0  0  0  0
  189.1250  178.2090  148.8960 O   0  0  0  0  0  0  0  0  0  0  0  0
  189.6710  177.6700  147.8310 C   0  0  0  0  0  0  0  0  0  0  0  0
  187.5530  177.9800  147.4900 C   0  0  0  0  0  0  0  0  0  0  0  0
  190.1990  177.1780  144.8910 C   0  0  2  0  0  3  0  0  0  0  0  0
  187.8640  176.6940  143.2280 C   0  0  0  0  0  2  0  0  0  0  0  0
  190.1900  176.8420  143.3990 C   0  0  0  0  0  2  0  0  0  0  0  0
  190.9090  177.2660  147.8390 N   0  0  0  0  0  0  0  0  0  0  0  0
  186.2470  178.1020  146.9330 N   0  0  0  0  0  1  0  0  0  0  0  0
  189.0260  177.4200  142.7370 N   0  0  0  0  0  0  0  0  0  0  0  0
  187.5860  177.0820  144.6740 C   0  0  0  0  0  2  0  0  0  0  0  0
  191.1030  176.2670  145.5550 N   0  0  0  0  0  2  0  0  0  0  0  0
  188.8280  177.1760  145.5360 C   0  0  2  0  0  3  0  0  0  0  0  0
  189.1040  177.2680  141.2750 C   0  0  2  0  0  3  0  0  0  0  0  0
  190.4410  176.7130  140.7380 C   0  0  0  0  0  2  0  0  0  0  0  0
  190.8420  177.3000  139.3930 C   0  0  0  0  0  3  0  0  0  0  0  0
  191.8180  176.3580  138.7170 C   0  0  0  0  0  2  0  0  0  0  0  0
  190.3670  176.3780  138.2890 C   0  0  0  0  0  2  0  0  0  0  0  0
  188.6170  178.5280  140.5540 C   0  0  0  0  0  2  0  0  0  0  0  0
  187.1750  178.3800  140.0940 C   0  0  0  0  0  2  0  0  0  0  0  0
  186.2300  178.9800  141.1180 C   0  0  0  0  0  2  0  0  0  0  0  0
  185.1310  179.5350  140.4640 O   0  0  0  0  0  1  0  0  0  0  0  0
  1  4  2  0  0  0  0
  1 11  1  0  0  0  0
  2  5  1  0  0  0  0
  3  7  1  6  0  0  0
  3  6  1  0  0  0  0
  6 11  2  0  0  0  0
  6  5  1  0  0  0  0
  7  2  2  0  0  0  0
  8 10  1  6  0  0  0
  8 16  1  0  0  0  0
  8 15  1  0  0  0  0
  9 14  1  0  0  0  0
 12  7  1  0  0  0  0
 13  9  1  0  0  0  0
 13 10  1  0  0  0  0
 15  1  1  0  0  0  0
 16 14  1  6  0  0  0
 16  3  1  0  0  0  0
 17 22  1  6  0  0  0
 17 13  1  0  0  0  0
 18 17  1  0  0  0  0
 19 18  1  0  0  0  0
 20 19  1  0  0  0  0
 21 20  1  0  0  0  0
 21 19  1  0  0  0  0
 23 22  1  0  0  0  0
 23 24  1  0  0  0  0
 25 24  1  0  0  0  0
M  END
>  <MODEL>
8

>  <REMARK>
 VINA RESULT:      -7.8      1.770      2.684
  Name = 
  6 active torsions:
  status: ('A' for Active; 'I' for Inactive)
    1  A    between atoms: C_3  and  C_4
    2  A    between atoms: C_4  and  C_10
    3  A    between atoms: C_6  and  C_9
    4  A    between atoms: C_6  and  C_16
    5  A    between atoms: C_10  and  C_16
    6  A    between atoms: C_10  and  N_21
                            x       y       z     vdW  Elec       q    Type
                         _______ _______ _______ _____ _____    ______ ____

>  <TORSDO>
F 6

$$$$
=
 OpenBabel10232407463D

 25 28  0  0  1  0  0  0  0  0999 V2000
  192.8200  177.1270  139.7500 C   0  0  0  0  0  0  0  0  0  0  0  0
  189.7580  176.3950  136.3740 N   0  0  0  0  0  0  0  0  0  0  0  0
  189.9930  177.1190  138.4940 C   0  0  1  0  0  3  0  0  0  0  0  0
  194.0580  177.2230  139.9510 O   0  0  0  0  0  0  0  0  0  0  0  0
  190.9730  176.1500  136.7650 O   0  0  0  0  0  0  0  0  0  0  0  0
  191.1790  176.5760  137.9890 C   0  0  0  0  0  0  0  0  0  0  0  0
  189.1400  177.0120  137.3950 C   0  0  0  0  0  0  0  0  0  0  0  0
  190.5800  177.1350  140.9040 C   0  0  2  0  0  3  0  0  0  0  0  0
  188.0810  178.5100  141.4630 C   0  0  0  0  0  2  0  0  0  0  0  0
  190.0720  177.5910  142.2720 C   0  0  0  0  0  2  0  0  0  0  0  0
  192.3660  176.5470  138.5230 N   0  0  0  0  0  0  0  0  0  0  0  0
  187.7640  177.3780  137.3460 N   0  0  0  0  0  1  0  0  0  0  0  0
  188.6190  177.4910  142.3520 N   0  0  0  0  0  0  0  0  0  0  0  0
  188.3110  178.1040  140.0130 C   0  0  0  0  0  2  0  0  0  0  0  0
  191.9270  177.6330  140.7320 N   0  0  0  0  0  2  0  0  0  0  0  0
  189.6860  177.5280  139.7450 C   0  0  2  0  0  3  0  0  0  0  0  0
  188.1330  177.7430  143.7190 C   0  0  2  0  0  3  0  0  0  0  0  0
  188.7990  176.8950  144.8240 C   0  0  0  0  0  2  0  0  0  0  0  0
  189.5270  177.7270  145.8690 C   0  0  0  0  0  3  0  0  0  0  0  0
  189.4680  177.0060  147.2000 C   0  0  0  0  0  2  0  0  0  0  0  0
  190.7300  176.9540  146.3670 C   0  0  0  0  0  2  0  0  0  0  0  0
  186.6040  177.7540  143.7770 C   0  0  0  0  0  2  0  0  0  0  0  0
  186.1060  178.1680  145.1530 C   0  0  0  0  0  2  0  0  0  0  0  0
  184.7610  178.8610  145.0410 C   0  0  0  0  0  2  0  0  0  0  0  0
  184.1030  178.7960  146.2680 O   0  0  0  0  0  1  0  0  0  0  0  0
  1  4  2  0  0  0  0
  1 15  1  0  0  0  0
  2  5  1  0  0  0  0
  2  7  2  0  0  0  0
  3  7  1  1  0  0  0
  3 16  1  0  0  0  0
  5  6  1  0  0  0  0
  6  3  1  0  0  0  0
  6 11  2  0  0  0  0
  8 10  1  1  0  0  0
  9 13  1  0  0  0  0
 10 13  1  0  0  0  0
 11  1  1  0  0  0  0
 12  7  1  0  0  0  0
 13 17  1  0  0  0  0
 14  9  1  0  0  0  0
 15  8  1  0  0  0  0
 16 14  1  1  0  0  0
 16  8  1  0  0  0  0
 17 22  1  6  0  0  0
 17 18  1  0  0  0  0
 18 19  1  0  0  0  0
 19 21  1  0  0  0  0
 19 20  1  0  0  0  0
 21 20  1  0  0  0  0
 22 23  1  0  0  0  0
 24 23  1  0  0  0  0
 24 25  1  0  0  0  0
M  END
>  <MODEL>
9

>  <REMARK>
 VINA RESULT:      -7.7      2.968      7.709
  Name = 
  6 active torsions:
  status: ('A' for Active; 'I' for Inactive)
    1  A    between atoms: C_3  and  C_4
    2  A    between atoms: C_4  and  C_10
    3  A    between atoms: C_6  and  C_9
    4  A    between atoms: C_6  and  C_16
    5  A    between atoms: C_10  and  C_16
    6  A    between atoms: C_10  and  N_21
                            x       y       z     vdW  Elec       q    Type
                         _______ _______ _______ _____ _____    ______ ____

>  <TORSDO>
F 6

$$$$
