=
 OpenBabel10232410163D

 41 44  0  0  1  0  0  0  0  0999 V2000
  190.5790  176.7570  138.6510 N   0  0  0  0  0  0  0  0  0  0  0  0
  189.6980  177.9150  138.9790 C   0  0  2  0  0  3  0  0  0  0  0  0
  189.8010  176.9100  139.9160 C   0  0  2  0  0  3  0  0  0  0  0  0
  191.4890  176.0950  137.7760 C   0  0  0  0  0  0  0  0  0  0  0  0
  189.4810  172.3660  135.4680 N   0  0  0  0  0  2  0  0  0  0  0  0
  191.6820  173.2540  135.6960 N   0  0  0  0  0  0  0  0  0  0  0  0
  193.7580  176.0030  136.9290 C   0  0  0  0  0  3  0  0  0  0  0  0
  193.4570  174.8040  136.1940 N   0  0  0  0  0  2  0  0  0  0  0  0
  189.9000  174.2390  136.9760 C   0  0  0  0  0  0  0  0  0  0  0  0
  192.8410  176.5900  137.6570 N   0  0  0  0  0  0  0  0  0  0  0  0
  191.1460  174.9920  137.0990 C   0  0  0  0  0  0  0  0  0  0  0  0
  190.3090  173.1470  136.0800 C   0  0  0  0  0  0  0  0  0  0  0  0
  192.1280  174.3040  136.2990 C   0  0  0  0  0  0  0  0  0  0  0  0
  188.4060  174.9090  136.9520 S   0  0  0  0  0  0  0  0  0  0  0  0
  184.3910  178.8630  139.7300 N   0  0  0  0  0  2  0  0  0  0  0  0
  183.7080  178.0670  137.6540 O   0  0  0  0  0  0  0  0  0  0  0  0
  187.1850  178.1430  138.8250 C   0  0  0  0  0  0  0  0  0  0  0  0
  187.1280  178.6130  140.0310 N   0  0  0  0  0  2  0  0  0  0  0  0
  184.6590  178.2900  138.4480 C   0  0  0  0  0  0  0  0  0  0  0  0
  188.4440  177.7830  138.2540 N   0  0  0  0  0  2  0  0  0  0  0  0
  185.9950  177.9680  138.0460 N   0  0  0  0  0  2  0  0  0  0  0  0
  183.1310  179.1870  140.1130 O   0  0  0  0  0  0  0  0  0  0  0  0
  182.7800  178.2210  141.0600 C   0  0  0  0  0  2  0  0  0  0  0  0
  182.3890  178.8880  142.3670 C   0  0  0  0  0  2  0  0  0  0  0  0
  183.6170  179.1120  143.2330 C   0  0  0  0  0  2  0  0  0  0  0  0
  183.3050  178.8000  144.6860 C   0  0  0  0  0  2  0  0  0  0  0  0
  184.5770  178.8030  145.5130 C   0  0  0  0  0  1  0  0  0  0  0  0
  190.7440  177.3290  141.0290 C   0  0  0  0  0  2  0  0  0  0  0  0
  190.6690  176.3480  142.1850 C   0  0  0  0  0  2  0  0  0  0  0  0
  189.2340  176.2070  142.6600 C   0  0  0  0  0  2  0  0  0  0  0  0
  188.1140  176.9700  144.7200 C   0  0  1  0  0  3  0  0  0  0  0  0
  187.3310  177.5100  143.5410 C   0  0  0  0  0  2  0  0  0  0  0  0
  188.8420  177.4240  143.4710 C   0  0  2  0  0  3  0  0  0  0  0  0
  188.2350  178.0280  145.7630 C   0  0  0  0  0  3  0  0  0  0  0  0
  188.8970  177.8240  146.8970 C   0  0  0  0  0  3  0  0  0  0  0  0
  189.5100  176.6030  147.1640 O   0  0  0  0  0  0  0  0  0  0  0  0
  191.8110  177.5570  148.0080 O   0  0  0  0  0  1  0  0  0  0  0  0
  191.2180  176.4660  147.1480 P   0  0  1  0  0  0  0  0  0  0  0  0
  191.6710  174.9580  147.7650 O   0  0  0  0  0  0  0  0  0  0  0  0
  191.8420  176.6400  145.4520 C   0  0  0  0  0  2  0  0  0  0  0  0
  191.9030  177.9900  145.1090 O   0  0  0  0  0  1  0  0  0  0  0  0
  1  2  1  0  0  0  0
  1  3  1  0  0  0  0
  2 20  1  6  0  0  0
  2  3  1  0  0  0  0
  3 28  1  1  0  0  0
  4  1  1  0  0  0  0
  5 12  2  0  0  0  0
  6 12  1  0  0  0  0
  6 13  2  0  0  0  0
  7 10  2  0  0  0  0
  8 13  1  0  0  0  0
  8  7  1  0  0  0  0
  9 11  1  0  0  0  0
 10  4  1  0  0  0  0
 11  4  2  0  0  0  0
 12  9  1  0  0  0  0
 13 11  1  0  0  0  0
 14  9  2  0  0  0  0
 15 22  1  0  0  0  0
 16 19  2  0  0  0  0
 17 18  2  0  0  0  0
 19 15  1  0  0  0  0
 20 17  1  0  0  0  0
 21 19  1  0  0  0  0
 21 17  1  0  0  0  0
 22 23  1  0  0  0  0
 23 24  1  0  0  0  0
 24 25  1  0  0  0  0
 25 26  1  0  0  0  0
 26 27  1  0  0  0  0
 28 29  1  0  0  0  0
 29 30  1  0  0  0  0
 31 34  1  1  0  0  0
 32 31  1  0  0  0  0
 33 30  1  6  0  0  0
 33 32  1  0  0  0  0
 33 31  1  0  0  0  0
 34 35  2  0  0  0  0
 35 36  1  0  0  0  0
 38 36  1  0  0  0  0
 38 39  2  1  0  0  0
 38 37  1  0  0  0  0
 40 38  1  0  0  0  0
 41 40  1  0  0  0  0
M  END
>  <MODEL>
1

>  <REMARK>
 VINA RESULT:      -7.4      0.000      0.000
  Name = 
  15 active torsions:
  status: ('A' for Active; 'I' for Inactive)
    1  A    between atoms: C_1  and  P_20
    2  A    between atoms: C_2  and  N_8
    3  A    between atoms: N_4  and  O_27
    4  A    between atoms: C_6  and  C_13
    5  A    between atoms: C_7  and  C_40
    6  A    between atoms: C_7  and  C_41
    7  A    between atoms: C_14  and  C_22
    8  A    between atoms: C_14  and  C_41
    9  A    between atoms: C_17  and  O_33
   10  A    between atoms: C_19  and  O_27
   11  A    between atoms: C_19  and  C_31
   12  A    between atoms: P_20  and  O_33
   13  A    between atoms: C_21  and  N_36
   14  A    between atoms: C_28  and  C_29
   15  A    between atoms: C_29  and  C_31
                            x       y       z     vdW  Elec       q    Type
                         _______ _______ _______ _____ _____    ______ ____

>  <TORSDO>
F 15

$$$$
=
 OpenBabel10232410163D

 41 44  0  0  1  0  0  0  0  0999 V2000
  190.0510  176.5570  138.9590 N   0  0  0  0  0  0  0  0  0  0  0  0
  189.4500  177.0370  140.2360 C   0  0  2  0  0  3  0  0  0  0  0  0
  189.8270  177.9890  139.3140 C   0  0  2  0  0  3  0  0  0  0  0  0
  190.4590  175.4970  138.0960 C   0  0  0  0  0  0  0  0  0  0  0  0
  195.1760  175.6160  137.0970 N   0  0  0  0  0  2  0  0  0  0  0  0
  193.2950  174.3660  136.3320 N   0  0  0  0  0  0  0  0  0  0  0  0
  189.7560  173.5710  136.8040 C   0  0  0  0  0  3  0  0  0  0  0  0
  191.0810  173.4220  136.2660 N   0  0  0  0  0  2  0  0  0  0  0  0
  192.9330  176.1650  137.8870 C   0  0  0  0  0  0  0  0  0  0  0  0
  189.4790  174.5340  137.6480 N   0  0  0  0  0  0  0  0  0  0  0  0
  191.7150  175.3970  137.6420 C   0  0  0  0  0  0  0  0  0  0  0  0
  193.8950  175.4660  137.0220 C   0  0  0  0  0  0  0  0  0  0  0  0
  192.0580  174.3620  136.6990 C   0  0  0  0  0  0  0  0  0  0  0  0
  193.3390  176.8330  139.3260 S   0  0  0  0  0  0  0  0  0  0  0  0
  189.6800  176.9830  145.6740 N   0  0  0  0  0  2  0  0  0  0  0  0
  191.9990  176.8670  145.8160 O   0  0  0  0  0  0  0  0  0  0  0  0
  190.0980  176.9900  142.6790 C   0  0  0  0  0  0  0  0  0  0  0  0
  188.8570  177.0920  143.0360 N   0  0  0  0  0  2  0  0  0  0  0  0
  190.9790  176.9220  145.0800 C   0  0  0  0  0  0  0  0  0  0  0  0
  190.4450  176.9550  141.2930 N   0  0  0  0  0  2  0  0  0  0  0  0
  191.1430  176.9200  143.6570 N   0  0  0  0  0  2  0  0  0  0  0  0
  189.5140  176.9700  147.0190 O   0  0  0  0  0  0  0  0  0  0  0  0
  188.1290  176.9590  147.2140 C   0  0  0  0  0  2  0  0  0  0  0  0
  187.4540  177.8820  146.2150 C   0  0  0  0  0  2  0  0  0  0  0  0
  186.3140  178.6340  146.8810 C   0  0  0  0  0  2  0  0  0  0  0  0
  185.4700  179.3470  145.8380 C   0  0  0  0  0  2  0  0  0  0  0  0
  184.2200  178.5440  145.5300 C   0  0  0  0  0  1  0  0  0  0  0  0
  188.6100  178.5010  138.5660 C   0  0  0  0  0  2  0  0  0  0  0  0
  189.0190  179.0800  137.2230 C   0  0  0  0  0  2  0  0  0  0  0  0
  188.9250  178.0150  136.1440 C   0  0  0  0  0  2  0  0  0  0  0  0
  186.7990  176.7850  136.3560 C   0  0  1  0  0  3  0  0  0  0  0  0
  187.3070  176.5930  134.9420 C   0  0  0  0  0  2  0  0  0  0  0  0
  187.5010  177.9220  135.6410 C   0  0  2  0  0  3  0  0  0  0  0  0
  185.3280  177.0280  136.3270 C   0  0  0  0  0  3  0  0  0  0  0  0
  184.6750  177.5050  137.3820 C   0  0  0  0  0  3  0  0  0  0  0  0
  185.3390  177.7970  138.5690 O   0  0  0  0  0  0  0  0  0  0  0  0
  184.4360  180.2020  139.1280 O   0  0  0  0  0  0  0  0  0  0  0  0
  184.6250  178.8310  139.7340 P   0  0  1  0  0  0  0  0  0  0  0  0
  183.1200  178.2120  140.1950 O   0  0  0  0  0  1  0  0  0  0  0  0
  185.6990  178.9670  141.1910 C   0  0  0  0  0  2  0  0  0  0  0  0
  184.9630  179.4420  142.2750 O   0  0  0  0  0  1  0  0  0  0  0  0
  1  3  1  0  0  0  0
  1  2  1  0  0  0  0
  2 20  1  1  0  0  0
  3 28  1  6  0  0  0
  3  2  1  0  0  0  0
  4  1  1  0  0  0  0
  6 13  2  0  0  0  0
  6 12  1  0  0  0  0
  7 10  2  0  0  0  0
  8 13  1  0  0  0  0
  8  7  1  0  0  0  0
  9 14  2  0  0  0  0
 10  4  1  0  0  0  0
 11  9  1  0  0  0  0
 11  4  2  0  0  0  0
 12  5  2  0  0  0  0
 12  9  1  0  0  0  0
 13 11  1  0  0  0  0
 15 22  1  0  0  0  0
 17 18  2  0  0  0  0
 17 21  1  0  0  0  0
 19 15  1  0  0  0  0
 19 16  2  0  0  0  0
 20 17  1  0  0  0  0
 21 19  1  0  0  0  0
 22 23  1  0  0  0  0
 24 25  1  0  0  0  0
 24 23  1  0  0  0  0
 26 25  1  0  0  0  0
 27 26  1  0  0  0  0
 29 28  1  0  0  0  0
 30 29  1  0  0  0  0
 31 34  1  6  0  0  0
 32 33  1  0  0  0  0
 32 31  1  0  0  0  0
 33 30  1  1  0  0  0
 33 31  1  0  0  0  0
 34 35  2  0  0  0  0
 35 36  1  0  0  0  0
 36 38  1  0  0  0  0
 38 37  2  6  0  0  0
 38 39  1  0  0  0  0
 38 40  1  0  0  0  0
 40 41  1  0  0  0  0
M  END
>  <MODEL>
2

>  <REMARK>
 VINA RESULT:      -7.2      2.876      6.820
  Name = 
  15 active torsions:
  status: ('A' for Active; 'I' for Inactive)
    1  A    between atoms: C_1  and  P_20
    2  A    between atoms: C_2  and  N_8
    3  A    between atoms: N_4  and  O_27
    4  A    between atoms: C_6  and  C_13
    5  A    between atoms: C_7  and  C_40
    6  A    between atoms: C_7  and  C_41
    7  A    between atoms: C_14  and  C_22
    8  A    between atoms: C_14  and  C_41
    9  A    between atoms: C_17  and  O_33
   10  A    between atoms: C_19  and  O_27
   11  A    between atoms: C_19  and  C_31
   12  A    between atoms: P_20  and  O_33
   13  A    between atoms: C_21  and  N_36
   14  A    between atoms: C_28  and  C_29
   15  A    between atoms: C_29  and  C_31
                            x       y       z     vdW  Elec       q    Type
                         _______ _______ _______ _____ _____    ______ ____

>  <TORSDO>
F 15

$$$$
=
 OpenBabel10232410163D

 41 44  0  0  1  0  0  0  0  0999 V2000
  189.1170  177.1790  143.7180 N   0  0  0  0  0  0  0  0  0  0  0  0
  188.8810  177.8840  142.4260 C   0  0  2  0  0  3  0  0  0  0  0  0
  187.9490  176.9480  142.8170 C   0  0  2  0  0  3  0  0  0  0  0  0
  189.8870  176.9700  144.8990 C   0  0  0  0  0  0  0  0  0  0  0  0
  187.5840  178.3720  148.8990 N   0  0  0  0  0  2  0  0  0  0  0  0
  189.7840  177.6260  148.3630 N   0  0  0  0  0  0  0  0  0  0  0  0
  191.9970  176.2100  145.8170 C   0  0  0  0  0  3  0  0  0  0  0  0
  191.5980  176.6260  147.1350 N   0  0  0  0  0  2  0  0  0  0  0  0
  188.2120  177.9700  146.5760 C   0  0  0  0  0  0  0  0  0  0  0  0
  191.1990  176.3750  144.7920 N   0  0  0  0  0  0  0  0  0  0  0  0
  189.4550  177.3610  146.1050 C   0  0  0  0  0  0  0  0  0  0  0  0
  188.4880  178.1180  148.0120 C   0  0  0  0  0  0  0  0  0  0  0  0
  190.3070  177.2130  147.2580 C   0  0  0  0  0  0  0  0  0  0  0  0
  186.7260  177.6340  145.9760 S   0  0  0  0  0  0  0  0  0  0  0  0
  189.4020  177.8780  137.0080 N   0  0  0  0  0  2  0  0  0  0  0  0
  191.2430  176.4560  136.9440 O   0  0  0  0  0  0  0  0  0  0  0  0
  189.5430  177.5430  140.0100 C   0  0  0  0  0  0  0  0  0  0  0  0
  188.5570  178.2820  139.6090 N   0  0  0  0  0  2  0  0  0  0  0  0
  190.3920  177.0660  137.6440 C   0  0  0  0  0  0  0  0  0  0  0  0
  189.7490  177.3170  141.4050 N   0  0  0  0  0  2  0  0  0  0  0  0
  190.4360  176.9340  139.0700 N   0  0  0  0  0  2  0  0  0  0  0  0
  189.3630  178.0220  135.6600 O   0  0  0  0  0  0  0  0  0  0  0  0
  188.1830  177.3870  135.2620 C   0  0  0  0  0  2  0  0  0  0  0  0
  187.0160  177.8800  136.0990 C   0  0  0  0  0  2  0  0  0  0  0  0
  185.9800  176.7800  136.2600 C   0  0  0  0  0  2  0  0  0  0  0  0
  184.8230  177.2620  137.1160 C   0  0  0  0  0  2  0  0  0  0  0  0
  185.3010  178.2960  138.1190 C   0  0  0  0  0  1  0  0  0  0  0  0
  186.7300  177.6380  143.4000 C   0  0  0  0  0  2  0  0  0  0  0  0
  185.9690  178.3780  142.3150 C   0  0  0  0  0  2  0  0  0  0  0  0
  184.9430  179.3090  142.9370 C   0  0  0  0  0  2  0  0  0  0  0  0
  182.6850  179.4030  143.9230 C   0  0  1  0  0  3  0  0  0  0  0  0
  183.6530  179.0110  145.0200 C   0  0  0  0  0  2  0  0  0  0  0  0
  183.8580  178.4960  143.6110 C   0  0  2  0  0  3  0  0  0  0  0  0
  181.4490  178.5770  144.0320 C   0  0  0  0  0  3  0  0  0  0  0  0
  180.4550  178.6810  143.1560 C   0  0  0  0  0  3  0  0  0  0  0  0
  180.5240  179.5750  142.0920 O   0  0  0  0  0  0  0  0  0  0  0  0
  179.9820  177.6870  140.3430 O   0  0  0  0  0  1  0  0  0  0  0  0
  180.7090  179.0030  140.4870 P   0  0  1  0  0  0  0  0  0  0  0  0
  180.0520  180.1260  139.4060 O   0  0  0  0  0  0  0  0  0  0  0  0
  182.4680  178.7560  140.1110 C   0  0  0  0  0  2  0  0  0  0  0  0
  182.8220  177.4320  140.3660 O   0  0  0  0  0  1  0  0  0  0  0  0
  1  4  1  0  0  0  0
  2 20  1  6  0  0  0
  2  3  1  0  0  0  0
  2  1  1  0  0  0  0
  3 28  1  1  0  0  0
  3  1  1  0  0  0  0
  4 11  2  0  0  0  0
  7  8  1  0  0  0  0
  8 13  1  0  0  0  0
  9 12  1  0  0  0  0
 10  4  1  0  0  0  0
 10  7  2  0  0  0  0
 11  9  1  0  0  0  0
 11 13  1  0  0  0  0
 12  6  1  0  0  0  0
 12  5  2  0  0  0  0
 13  6  2  0  0  0  0
 14  9  2  0  0  0  0
 15 19  1  0  0  0  0
 16 19  2  0  0  0  0
 17 20  1  0  0  0  0
 18 17  2  0  0  0  0
 19 21  1  0  0  0  0
 21 17  1  0  0  0  0
 22 15  1  0  0  0  0
 23 22  1  0  0  0  0
 23 24  1  0  0  0  0
 24 25  1  0  0  0  0
 25 26  1  0  0  0  0
 26 27  1  0  0  0  0
 29 30  1  0  0  0  0
 29 28  1  0  0  0  0
 31 34  1  1  0  0  0
 31 32  1  0  0  0  0
 33 30  1  6  0  0  0
 33 31  1  0  0  0  0
 33 32  1  0  0  0  0
 35 34  2  0  0  0  0
 36 35  1  0  0  0  0
 37 38  1  0  0  0  0
 38 39  2  6  0  0  0
 38 36  1  0  0  0  0
 40 41  1  0  0  0  0
 40 38  1  0  0  0  0
M  END
>  <MODEL>
3

>  <REMARK>
 VINA RESULT:      -7.1      4.628      8.727
  Name = 
  15 active torsions:
  status: ('A' for Active; 'I' for Inactive)
    1  A    between atoms: C_1  and  P_20
    2  A    between atoms: C_2  and  N_8
    3  A    between atoms: N_4  and  O_27
    4  A    between atoms: C_6  and  C_13
    5  A    between atoms: C_7  and  C_40
    6  A    between atoms: C_7  and  C_41
    7  A    between atoms: C_14  and  C_22
    8  A    between atoms: C_14  and  C_41
    9  A    between atoms: C_17  and  O_33
   10  A    between atoms: C_19  and  O_27
   11  A    between atoms: C_19  and  C_31
   12  A    between atoms: P_20  and  O_33
   13  A    between atoms: C_21  and  N_36
   14  A    between atoms: C_28  and  C_29
   15  A    between atoms: C_29  and  C_31
                            x       y       z     vdW  Elec       q    Type
                         _______ _______ _______ _____ _____    ______ ____

>  <TORSDO>
F 15

$$$$
=
 OpenBabel10232410163D

 41 44  0  0  1  0  0  0  0  0999 V2000
  187.9610  178.0930  139.5980 N   0  0  0  0  0  0  0  0  0  0  0  0
  189.4490  178.1140  139.5230 C   0  0  2  0  0  3  0  0  0  0  0  0
  188.7670  177.6060  138.4400 C   0  0  2  0  0  3  0  0  0  0  0  0
  186.7450  178.3850  140.2830 C   0  0  0  0  0  0  0  0  0  0  0  0
  182.8670  178.0340  137.4360 N   0  0  0  0  0  2  0  0  0  0  0  0
  183.2990  178.7960  139.6540 N   0  0  0  0  0  0  0  0  0  0  0  0
  185.7280  179.0620  142.3770 C   0  0  0  0  0  3  0  0  0  0  0  0
  184.4350  179.1310  141.7510 N   0  0  0  0  0  2  0  0  0  0  0  0
  185.1560  178.1300  138.2780 C   0  0  0  0  0  0  0  0  0  0  0  0
  186.7890  178.7170  141.6890 N   0  0  0  0  0  0  0  0  0  0  0  0
  185.5640  178.4140  139.6520 C   0  0  0  0  0  0  0  0  0  0  0  0
  183.7120  178.3980  138.3440 C   0  0  0  0  0  0  0  0  0  0  0  0
  184.3750  178.8040  140.3660 C   0  0  0  0  0  0  0  0  0  0  0  0
  185.8100  176.9630  137.3340 S   0  0  0  0  0  0  0  0  0  0  0  0
  191.3710  177.2480  144.5420 N   0  0  0  0  0  2  0  0  0  0  0  0
  191.8660  174.9960  144.2250 O   0  0  0  0  0  0  0  0  0  0  0  0
  190.4210  177.2010  141.6710 C   0  0  0  0  0  0  0  0  0  0  0  0
  190.3450  178.3670  142.2310 N   0  0  0  0  0  2  0  0  0  0  0  0
  191.4150  176.0660  143.7380 C   0  0  0  0  0  0  0  0  0  0  0  0
  189.9840  177.0220  140.3230 N   0  0  0  0  0  2  0  0  0  0  0  0
  190.9500  176.0750  142.3830 N   0  0  0  0  0  2  0  0  0  0  0  0
  191.7930  177.2450  145.8300 O   0  0  0  0  0  0  0  0  0  0  0  0
  190.6970  176.7940  146.5700 C   0  0  0  0  0  2  0  0  0  0  0  0
  189.4980  177.6940  146.3280 C   0  0  0  0  0  2  0  0  0  0  0  0
  188.7100  177.8790  147.6140 C   0  0  0  0  0  2  0  0  0  0  0  0
  187.2290  178.0240  147.3120 C   0  0  0  0  0  2  0  0  0  0  0  0
  186.9520  177.7030  145.8550 C   0  0  0  0  0  1  0  0  0  0  0  0
  188.7100  178.6370  137.3280 C   0  0  0  0  0  2  0  0  0  0  0  0
  188.9760  177.9840  135.9840 C   0  0  0  0  0  2  0  0  0  0  0  0
  189.4490  176.5550  136.1810 C   0  0  0  0  0  2  0  0  0  0  0  0
  191.4080  175.0600  136.0980 C   0  0  1  0  0  3  0  0  0  0  0  0
  191.8080  176.3060  136.8620 C   0  0  0  0  0  2  0  0  0  0  0  0
  190.8700  176.4130  135.6780 C   0  0  2  0  0  3  0  0  0  0  0  0
  192.5110  174.6680  135.1740 C   0  0  0  0  0  3  0  0  0  0  0  0
  193.5590  173.9650  135.5900 C   0  0  0  0  0  3  0  0  0  0  0  0
  193.6760  173.5640  136.9170 O   0  0  0  0  0  0  0  0  0  0  0  0
  194.7960  175.3090  138.5350 O   0  0  0  0  0  0  0  0  0  0  0  0
  195.0570  173.9950  137.8360 P   0  0  1  0  0  0  0  0  0  0  0  0
  195.3650  172.7980  138.9910 O   0  0  0  0  0  1  0  0  0  0  0  0
  196.5000  174.1750  136.7500 C   0  0  0  0  0  2  0  0  0  0  0  0
  196.8590  175.5190  136.6630 O   0  0  0  0  0  1  0  0  0  0  0  0
  1  4  1  0  0  0  0
  2  1  1  0  0  0  0
  2 20  1  1  0  0  0
  3 28  1  6  0  0  0
  3  2  1  0  0  0  0
  3  1  1  0  0  0  0
  4 10  1  0  0  0  0
  5 12  2  0  0  0  0
  6 13  2  0  0  0  0
  8  7  1  0  0  0  0
  9 12  1  0  0  0  0
  9 11  1  0  0  0  0
 10  7  2  0  0  0  0
 11  4  2  0  0  0  0
 11 13  1  0  0  0  0
 12  6  1  0  0  0  0
 13  8  1  0  0  0  0
 14  9  2  0  0  0  0
 15 22  1  0  0  0  0
 17 18  2  0  0  0  0
 17 21  1  0  0  0  0
 19 16  2  0  0  0  0
 19 15  1  0  0  0  0
 20 17  1  0  0  0  0
 21 19  1  0  0  0  0
 22 23  1  0  0  0  0
 24 23  1  0  0  0  0
 24 25  1  0  0  0  0
 26 25  1  0  0  0  0
 27 26  1  0  0  0  0
 29 30  1  0  0  0  0
 29 28  1  0  0  0  0
 31 34  1  6  0  0  0
 31 32  1  0  0  0  0
 33 31  1  0  0  0  0
 33 30  1  1  0  0  0
 33 32  1  0  0  0  0
 34 35  2  0  0  0  0
 35 36  1  0  0  0  0
 36 38  1  0  0  0  0
 38 37  2  1  0  0  0
 38 39  1  0  0  0  0
 40 38  1  0  0  0  0
 41 40  1  0  0  0  0
M  END
>  <MODEL>
4

>  <REMARK>
 VINA RESULT:      -6.8      3.864      8.260
  Name = 
  15 active torsions:
  status: ('A' for Active; 'I' for Inactive)
    1  A    between atoms: C_1  and  P_20
    2  A    between atoms: C_2  and  N_8
    3  A    between atoms: N_4  and  O_27
    4  A    between atoms: C_6  and  C_13
    5  A    between atoms: C_7  and  C_40
    6  A    between atoms: C_7  and  C_41
    7  A    between atoms: C_14  and  C_22
    8  A    between atoms: C_14  and  C_41
    9  A    between atoms: C_17  and  O_33
   10  A    between atoms: C_19  and  O_27
   11  A    between atoms: C_19  and  C_31
   12  A    between atoms: P_20  and  O_33
   13  A    between atoms: C_21  and  N_36
   14  A    between atoms: C_28  and  C_29
   15  A    between atoms: C_29  and  C_31
                            x       y       z     vdW  Elec       q    Type
                         _______ _______ _______ _____ _____    ______ ____

>  <TORSDO>
F 15

$$$$
=
 OpenBabel10232410163D

 41 44  0  0  1  0  0  0  0  0999 V2000
  188.7290  177.4620  143.3550 N   0  0  0  0  0  0  0  0  0  0  0  0
  187.4420  177.2970  142.6220 C   0  0  2  0  0  3  0  0  0  0  0  0
  188.2140  178.3930  142.3080 C   0  0  2  0  0  3  0  0  0  0  0  0
  189.6890  177.0020  144.3040 C   0  0  0  0  0  0  0  0  0  0  0  0
  188.4770  178.0650  148.8500 N   0  0  0  0  0  2  0  0  0  0  0  0
  190.3930  177.1620  147.7560 N   0  0  0  0  0  0  0  0  0  0  0  0
  191.8150  175.8860  144.6350 C   0  0  0  0  0  3  0  0  0  0  0  0
  191.7580  176.1520  146.0470 N   0  0  0  0  0  2  0  0  0  0  0  0
  188.5520  177.9320  146.4140 C   0  0  0  0  0  0  0  0  0  0  0  0
  190.8540  176.2840  143.8390 N   0  0  0  0  0  0  0  0  0  0  0  0
  189.5730  177.2610  145.6120 C   0  0  0  0  0  0  0  0  0  0  0  0
  189.1350  177.8420  147.7600 C   0  0  0  0  0  0  0  0  0  0  0  0
  190.6150  176.8560  146.5210 C   0  0  0  0  0  0  0  0  0  0  0  0
  186.9420  177.8540  146.1260 S   0  0  0  0  0  0  0  0  0  0  0  0
  182.2420  178.8530  142.2130 N   0  0  0  0  0  2  0  0  0  0  0  0
  181.9120  179.1920  144.4910 O   0  0  0  0  0  0  0  0  0  0  0  0
  185.0610  178.0700  142.9770 C   0  0  0  0  0  0  0  0  0  0  0  0
  184.8380  178.0500  141.7010 N   0  0  0  0  0  2  0  0  0  0  0  0
  182.6980  178.8530  143.5680 C   0  0  0  0  0  0  0  0  0  0  0  0
  186.3430  177.6990  143.4860 N   0  0  0  0  0  2  0  0  0  0  0  0
  184.0380  178.4690  143.8970 N   0  0  0  0  0  2  0  0  0  0  0  0
  180.9700  179.1980  141.8930 O   0  0  0  0  0  0  0  0  0  0  0  0
  180.9230  179.1560  140.4960 C   0  0  0  0  0  2  0  0  0  0  0  0
  181.4630  177.8280  139.9950 C   0  0  0  0  0  2  0  0  0  0  0  0
  182.0170  177.9820  138.5880 C   0  0  0  0  0  2  0  0  0  0  0  0
  183.2120  178.9190  138.5900 C   0  0  0  0  0  2  0  0  0  0  0  0
  184.4720  178.1710  138.1940 C   0  0  0  0  0  1  0  0  0  0  0  0
  188.9670  178.1490  141.0140 C   0  0  0  0  0  2  0  0  0  0  0  0
  188.0330  178.2800  139.8240 C   0  0  0  0  0  2  0  0  0  0  0  0
  188.8040  178.0900  138.5300 C   0  0  0  0  0  2  0  0  0  0  0  0
  190.1010  176.3390  137.3770 C   0  0  1  0  0  3  0  0  0  0  0  0
  188.7730  176.4780  136.6620 C   0  0  0  0  0  2  0  0  0  0  0  0
  188.8400  176.6210  138.1680 C   0  0  2  0  0  3  0  0  0  0  0  0
  190.4450  174.8940  137.5100 C   0  0  0  0  0  3  0  0  0  0  0  0
  191.5660  174.3900  137.0040 C   0  0  0  0  0  3  0  0  0  0  0  0
  192.4730  175.1940  136.3200 O   0  0  0  0  0  0  0  0  0  0  0  0
  194.8180  176.3570  136.0650 O   0  0  0  0  0  0  0  0  0  0  0  0
  193.8880  175.7660  137.0990 P   0  0  1  0  0  0  0  0  0  0  0  0
  193.4730  176.9570  138.2250 O   0  0  0  0  0  1  0  0  0  0  0  0
  194.7310  174.3980  137.9450 C   0  0  0  0  0  2  0  0  0  0  0  0
  195.5340  174.9010  138.9670 O   0  0  0  0  0  1  0  0  0  0  0  0
  1  4  1  0  0  0  0
  2  1  1  0  0  0  0
  2 20  1  1  0  0  0
  3 28  1  6  0  0  0
  3  2  1  0  0  0  0
  3  1  1  0  0  0  0
  4 11  2  0  0  0  0
  6 12  1  0  0  0  0
  7  8  1  0  0  0  0
  8 13  1  0  0  0  0
  9 12  1  0  0  0  0
 10  4  1  0  0  0  0
 10  7  2  0  0  0  0
 11  9  1  0  0  0  0
 11 13  1  0  0  0  0
 12  5  2  0  0  0  0
 13  6  2  0  0  0  0
 14  9  2  0  0  0  0
 15 19  1  0  0  0  0
 17 20  1  0  0  0  0
 17 21  1  0  0  0  0
 18 17  2  0  0  0  0
 19 21  1  0  0  0  0
 19 16  2  0  0  0  0
 22 15  1  0  0  0  0
 23 22  1  0  0  0  0
 24 23  1  0  0  0  0
 25 26  1  0  0  0  0
 25 24  1  0  0  0  0
 27 26  1  0  0  0  0
 29 28  1  0  0  0  0
 30 29  1  0  0  0  0
 31 34  1  1  0  0  0
 31 33  1  0  0  0  0
 32 31  1  0  0  0  0
 32 33  1  0  0  0  0
 33 30  1  6  0  0  0
 35 34  2  0  0  0  0
 36 35  1  0  0  0  0
 36 38  1  0  0  0  0
 38 37  2  6  0  0  0
 38 40  1  0  0  0  0
 38 39  1  0  0  0  0
 40 41  1  0  0  0  0
M  END
>  <MODEL>
5

>  <REMARK>
 VINA RESULT:      -6.8      4.834      7.906
  Name = 
  15 active torsions:
  status: ('A' for Active; 'I' for Inactive)
    1  A    between atoms: C_1  and  P_20
    2  A    between atoms: C_2  and  N_8
    3  A    between atoms: N_4  and  O_27
    4  A    between atoms: C_6  and  C_13
    5  A    between atoms: C_7  and  C_40
    6  A    between atoms: C_7  and  C_41
    7  A    between atoms: C_14  and  C_22
    8  A    between atoms: C_14  and  C_41
    9  A    between atoms: C_17  and  O_33
   10  A    between atoms: C_19  and  O_27
   11  A    between atoms: C_19  and  C_31
   12  A    between atoms: P_20  and  O_33
   13  A    between atoms: C_21  and  N_36
   14  A    between atoms: C_28  and  C_29
   15  A    between atoms: C_29  and  C_31
                            x       y       z     vdW  Elec       q    Type
                         _______ _______ _______ _____ _____    ______ ____

>  <TORSDO>
F 15

$$$$
=
 OpenBabel10232410163D

 41 44  0  0  1  0  0  0  0  0999 V2000
  190.8010  176.7050  138.9300 N   0  0  0  0  0  0  0  0  0  0  0  0
  189.9920  176.5980  140.1780 C   0  0  2  0  0  3  0  0  0  0  0  0
  189.9420  177.7900  139.4890 C   0  0  2  0  0  3  0  0  0  0  0  0
  191.6810  176.1320  137.9650 C   0  0  0  0  0  0  0  0  0  0  0  0
  189.7110  172.4030  135.6250 N   0  0  0  0  0  2  0  0  0  0  0  0
  191.8730  173.3990  135.7440 N   0  0  0  0  0  0  0  0  0  0  0  0
  193.8860  176.2020  136.9620 C   0  0  0  0  0  3  0  0  0  0  0  0
  193.5960  175.0210  136.1930 N   0  0  0  0  0  2  0  0  0  0  0  0
  190.1370  174.2280  137.1880 C   0  0  0  0  0  0  0  0  0  0  0  0
  192.9940  176.7060  137.7780 N   0  0  0  0  0  0  0  0  0  0  0  0
  191.3490  175.0420  137.2610 C   0  0  0  0  0  0  0  0  0  0  0  0
  190.5380  173.2010  136.2150 C   0  0  0  0  0  0  0  0  0  0  0  0
  192.3060  174.4450  136.3650 C   0  0  0  0  0  0  0  0  0  0  0  0
  188.6130  174.8150  137.2970 S   0  0  0  0  0  0  0  0  0  0  0  0
  189.6430  176.8500  145.6040 N   0  0  0  0  0  2  0  0  0  0  0  0
  191.9230  177.1240  145.9790 O   0  0  0  0  0  0  0  0  0  0  0  0
  190.3740  176.7790  142.6700 C   0  0  0  0  0  0  0  0  0  0  0  0
  189.1010  176.6920  142.8970 N   0  0  0  0  0  2  0  0  0  0  0  0
  190.9920  176.9750  145.1450 C   0  0  0  0  0  0  0  0  0  0  0  0
  190.8680  176.7330  141.3310 N   0  0  0  0  0  2  0  0  0  0  0  0
  191.3060  176.9290  143.7480 N   0  0  0  0  0  2  0  0  0  0  0  0
  189.3380  176.8760  146.9240 O   0  0  0  0  0  0  0  0  0  0  0  0
  188.3800  177.8850  147.0560 C   0  0  0  0  0  2  0  0  0  0  0  0
  187.3060  177.7280  145.9940 C   0  0  0  0  0  2  0  0  0  0  0  0
  186.2450  178.8030  146.1560 C   0  0  0  0  0  2  0  0  0  0  0  0
  184.8560  178.1940  146.0730 C   0  0  0  0  0  2  0  0  0  0  0  0
  184.0200  178.9200  145.0350 C   0  0  0  0  0  1  0  0  0  0  0  0
  188.6600  177.8720  138.6800 C   0  0  0  0  0  2  0  0  0  0  0  0
  188.7910  178.9130  137.5840 C   0  0  0  0  0  2  0  0  0  0  0  0
  188.5100  178.2860  136.2300 C   0  0  0  0  0  2  0  0  0  0  0  0
  186.3430  177.1310  136.0100 C   0  0  1  0  0  3  0  0  0  0  0  0
  186.7330  177.6490  134.6410 C   0  0  0  0  0  2  0  0  0  0  0  0
  187.0490  178.4650  135.8770 C   0  0  2  0  0  3  0  0  0  0  0  0
  184.8890  177.3720  136.2380 C   0  0  0  0  0  3  0  0  0  0  0  0
  184.4060  177.6590  137.4420 C   0  0  0  0  0  3  0  0  0  0  0  0
  185.2410  177.7440  138.5520 O   0  0  0  0  0  0  0  0  0  0  0  0
  186.1280  179.1900  140.5630 O   0  0  0  0  0  1  0  0  0  0  0  0
  184.8550  178.7930  139.8510 P   0  0  1  0  0  0  0  0  0  0  0  0
  184.0930  180.1800  139.2530 O   0  0  0  0  0  0  0  0  0  0  0  0
  183.7540  177.9540  141.0260 C   0  0  0  0  0  2  0  0  0  0  0  0
  182.5100  178.5820  141.0350 O   0  0  0  0  0  1  0  0  0  0  0  0
  1  3  1  0  0  0  0
  1  2  1  0  0  0  0
  2 20  1  1  0  0  0
  3 28  1  6  0  0  0
  3  2  1  0  0  0  0
  4  1  1  0  0  0  0
  5 12  2  0  0  0  0
  6 12  1  0  0  0  0
  6 13  2  0  0  0  0
  7 10  2  0  0  0  0
  8 13  1  0  0  0  0
  8  7  1  0  0  0  0
  9 11  1  0  0  0  0
  9 14  2  0  0  0  0
 10  4  1  0  0  0  0
 11  4  2  0  0  0  0
 12  9  1  0  0  0  0
 13 11  1  0  0  0  0
 15 22  1  0  0  0  0
 17 18  2  0  0  0  0
 17 21  1  0  0  0  0
 19 15  1  0  0  0  0
 19 16  2  0  0  0  0
 20 17  1  0  0  0  0
 21 19  1  0  0  0  0
 22 23  1  0  0  0  0
 24 25  1  0  0  0  0
 24 23  1  0  0  0  0
 26 25  1  0  0  0  0
 27 26  1  0  0  0  0
 29 28  1  0  0  0  0
 30 29  1  0  0  0  0
 31 34  1  6  0  0  0
 32 33  1  0  0  0  0
 32 31  1  0  0  0  0
 33 31  1  0  0  0  0
 33 30  1  1  0  0  0
 34 35  2  0  0  0  0
 35 36  1  0  0  0  0
 36 38  1  0  0  0  0
 38 39  2  6  0  0  0
 38 37  1  0  0  0  0
 38 40  1  0  0  0  0
 40 41  1  0  0  0  0
M  END
>  <MODEL>
6

>  <REMARK>
 VINA RESULT:      -6.7      2.588      6.600
  Name = 
  15 active torsions:
  status: ('A' for Active; 'I' for Inactive)
    1  A    between atoms: C_1  and  P_20
    2  A    between atoms: C_2  and  N_8
    3  A    between atoms: N_4  and  O_27
    4  A    between atoms: C_6  and  C_13
    5  A    between atoms: C_7  and  C_40
    6  A    between atoms: C_7  and  C_41
    7  A    between atoms: C_14  and  C_22
    8  A    between atoms: C_14  and  C_41
    9  A    between atoms: C_17  and  O_33
   10  A    between atoms: C_19  and  O_27
   11  A    between atoms: C_19  and  C_31
   12  A    between atoms: P_20  and  O_33
   13  A    between atoms: C_21  and  N_36
   14  A    between atoms: C_28  and  C_29
   15  A    between atoms: C_29  and  C_31
                            x       y       z     vdW  Elec       q    Type
                         _______ _______ _______ _____ _____    ______ ____

>  <TORSDO>
F 15

$$$$
=
 OpenBabel10232410163D

 41 44  0  0  1  0  0  0  0  0999 V2000
  189.8830  177.1800  143.5300 N   0  0  0  0  0  0  0  0  0  0  0  0
  189.9820  177.9780  142.2750 C   0  0  2  0  0  3  0  0  0  0  0  0
  189.0980  176.9220  142.2870 C   0  0  2  0  0  3  0  0  0  0  0  0
  190.2600  176.9370  144.8840 C   0  0  0  0  0  0  0  0  0  0  0  0
  186.8830  178.3200  148.0380 N   0  0  0  0  0  2  0  0  0  0  0  0
  189.1320  177.5390  148.1710 N   0  0  0  0  0  0  0  0  0  0  0  0
  191.9860  176.1200  146.3760 C   0  0  0  0  0  3  0  0  0  0  0  0
  191.2170  176.5230  147.5220 N   0  0  0  0  0  2  0  0  0  0  0  0
  188.1740  177.9430  146.0020 C   0  0  0  0  0  0  0  0  0  0  0  0
  191.5350  176.3170  145.1620 N   0  0  0  0  0  0  0  0  0  0  0  0
  189.4910  177.3170  145.9130 C   0  0  0  0  0  0  0  0  0  0  0  0
  188.0080  178.0620  147.4580 C   0  0  0  0  0  0  0  0  0  0  0  0
  189.9570  177.1340  147.2640 C   0  0  0  0  0  0  0  0  0  0  0  0
  186.9310  177.6460  144.9780 S   0  0  0  0  0  0  0  0  0  0  0  0
  191.5060  176.4970  137.2640 N   0  0  0  0  0  2  0  0  0  0  0  0
  193.7530  176.1830  137.7790 O   0  0  0  0  0  0  0  0  0  0  0  0
  191.1860  177.2440  140.1770 C   0  0  0  0  0  0  0  0  0  0  0  0
  190.0770  177.2550  139.5070 N   0  0  0  0  0  2  0  0  0  0  0  0
  192.6030  176.5020  138.1810 C   0  0  0  0  0  0  0  0  0  0  0  0
  191.1910  177.5990  141.5610 N   0  0  0  0  0  2  0  0  0  0  0  0
  192.4200  176.8680  139.5530 N   0  0  0  0  0  2  0  0  0  0  0  0
  191.6730  176.1680  135.9600 O   0  0  0  0  0  0  0  0  0  0  0  0
  190.7860  175.1110  135.7350 C   0  0  0  0  0  2  0  0  0  0  0  0
  189.3810  175.5120  136.1480 C   0  0  0  0  0  2  0  0  0  0  0  0
  188.3940  174.4130  135.7910 C   0  0  0  0  0  2  0  0  0  0  0  0
  188.5710  173.2210  136.7140 C   0  0  0  0  0  2  0  0  0  0  0  0
  187.2220  172.6350  137.0870 C   0  0  0  0  0  1  0  0  0  0  0  0
  187.6810  177.4290  142.4820 C   0  0  0  0  0  2  0  0  0  0  0  0
  187.3240  178.4340  141.4030 C   0  0  0  0  0  2  0  0  0  0  0  0
  185.9940  179.0940  141.7220 C   0  0  0  0  0  2  0  0  0  0  0  0
  183.8220  178.4890  140.7250 C   0  0  1  0  0  3  0  0  0  0  0  0
  183.6110  178.6840  142.2130 C   0  0  0  0  0  2  0  0  0  0  0  0
  184.8920  178.0560  141.7060 C   0  0  2  0  0  3  0  0  0  0  0  0
  183.0660  177.2870  140.2690 C   0  0  0  0  0  3  0  0  0  0  0  0
  183.0310  176.9240  138.9900 C   0  0  0  0  0  3  0  0  0  0  0  0
  183.6990  177.6580  138.0150 O   0  0  0  0  0  0  0  0  0  0  0  0
  184.9390  175.4410  137.3320 O   0  0  0  0  0  1  0  0  0  0  0  0
  184.9300  176.9290  137.0710 P   0  0  1  0  0  0  0  0  0  0  0  0
  184.6270  177.2080  135.4310 O   0  0  0  0  0  0  0  0  0  0  0  0
  186.5490  177.6200  137.5160 C   0  0  0  0  0  2  0  0  0  0  0  0
  186.3840  178.8840  138.0770 O   0  0  0  0  0  1  0  0  0  0  0  0
  1  4  1  0  0  0  0
  2 20  1  6  0  0  0
  2  3  1  0  0  0  0
  2  1  1  0  0  0  0
  3 28  1  1  0  0  0
  3  1  1  0  0  0  0
  4 10  1  0  0  0  0
  4 11  2  0  0  0  0
  7  8  1  0  0  0  0
  9 12  1  0  0  0  0
 10  7  2  0  0  0  0
 11  9  1  0  0  0  0
 11 13  1  0  0  0  0
 12  5  2  0  0  0  0
 12  6  1  0  0  0  0
 13  8  1  0  0  0  0
 13  6  2  0  0  0  0
 14  9  2  0  0  0  0
 15 19  1  0  0  0  0
 16 19  2  0  0  0  0
 17 20  1  0  0  0  0
 18 17  2  0  0  0  0
 19 21  1  0  0  0  0
 21 17  1  0  0  0  0
 22 15  1  0  0  0  0
 23 22  1  0  0  0  0
 23 24  1  0  0  0  0
 25 24  1  0  0  0  0
 25 26  1  0  0  0  0
 26 27  1  0  0  0  0
 29 30  1  0  0  0  0
 29 28  1  0  0  0  0
 31 34  1  1  0  0  0
 31 33  1  0  0  0  0
 31 32  1  0  0  0  0
 33 30  1  6  0  0  0
 33 32  1  0  0  0  0
 35 34  2  0  0  0  0
 36 35  1  0  0  0  0
 38 39  2  6  0  0  0
 38 37  1  0  0  0  0
 38 40  1  0  0  0  0
 38 36  1  0  0  0  0
 40 41  1  0  0  0  0
M  END
>  <MODEL>
7

>  <REMARK>
 VINA RESULT:      -6.6      4.356      9.049
  Name = 
  15 active torsions:
  status: ('A' for Active; 'I' for Inactive)
    1  A    between atoms: C_1  and  P_20
    2  A    between atoms: C_2  and  N_8
    3  A    between atoms: N_4  and  O_27
    4  A    between atoms: C_6  and  C_13
    5  A    between atoms: C_7  and  C_40
    6  A    between atoms: C_7  and  C_41
    7  A    between atoms: C_14  and  C_22
    8  A    between atoms: C_14  and  C_41
    9  A    between atoms: C_17  and  O_33
   10  A    between atoms: C_19  and  O_27
   11  A    between atoms: C_19  and  C_31
   12  A    between atoms: P_20  and  O_33
   13  A    between atoms: C_21  and  N_36
   14  A    between atoms: C_28  and  C_29
   15  A    between atoms: C_29  and  C_31
                            x       y       z     vdW  Elec       q    Type
                         _______ _______ _______ _____ _____    ______ ____

>  <TORSDO>
F 15

$$$$
=
 OpenBabel10232410163D

 41 44  0  0  1  0  0  0  0  0999 V2000
  190.1250  176.3880  138.5570 N   0  0  0  0  0  0  0  0  0  0  0  0
  189.4370  176.9170  139.7690 C   0  0  2  0  0  3  0  0  0  0  0  0
  189.9290  177.8350  138.8670 C   0  0  2  0  0  3  0  0  0  0  0  0
  190.5620  175.2960  137.7510 C   0  0  0  0  0  0  0  0  0  0  0  0
  195.3010  175.4170  136.8570 N   0  0  0  0  0  2  0  0  0  0  0  0
  193.4490  174.1170  136.1040 N   0  0  0  0  0  0  0  0  0  0  0  0
  189.9060  173.3090  136.5280 C   0  0  0  0  0  3  0  0  0  0  0  0
  191.2450  173.1500  136.0270 N   0  0  0  0  0  2  0  0  0  0  0  0
  193.0350  175.9780  137.5700 C   0  0  0  0  0  0  0  0  0  0  0  0
  189.6020  174.3050  137.3230 N   0  0  0  0  0  0  0  0  0  0  0  0
  191.8290  175.1880  137.3310 C   0  0  0  0  0  0  0  0  0  0  0  0
  194.0230  175.2510  136.7600 C   0  0  0  0  0  0  0  0  0  0  0  0
  192.2030  174.1170  136.4420 C   0  0  0  0  0  0  0  0  0  0  0  0
  193.4010  176.7110  138.9880 S   0  0  0  0  0  0  0  0  0  0  0  0
  189.3680  177.7760  145.1440 N   0  0  0  0  0  2  0  0  0  0  0  0
  191.5960  177.2090  145.5060 O   0  0  0  0  0  0  0  0  0  0  0  0
  189.9320  177.1690  142.2350 C   0  0  0  0  0  0  0  0  0  0  0  0
  188.7270  177.5860  142.4610 N   0  0  0  0  0  2  0  0  0  0  0  0
  190.6520  177.3440  144.6840 C   0  0  0  0  0  0  0  0  0  0  0  0
  190.3350  176.8190  140.9100 N   0  0  0  0  0  2  0  0  0  0  0  0
  190.8840  177.0570  143.3000 N   0  0  0  0  0  2  0  0  0  0  0  0
  189.1340  178.0340  146.4540 O   0  0  0  0  0  0  0  0  0  0  0  0
  187.8790  177.4750  146.7150 C   0  0  0  0  0  2  0  0  0  0  0  0
  186.8520  178.0170  145.7360 C   0  0  0  0  0  2  0  0  0  0  0  0
  185.6840  178.6340  146.4870 C   0  0  0  0  0  2  0  0  0  0  0  0
  184.4860  178.7880  145.5670 C   0  0  0  0  0  2  0  0  0  0  0  0
  184.9270  178.7700  144.1150 C   0  0  0  0  0  1  0  0  0  0  0  0
  188.8030  178.3780  138.0080 C   0  0  0  0  0  2  0  0  0  0  0  0
  187.5000  178.3920  138.7870 C   0  0  0  0  0  2  0  0  0  0  0  0
  186.3310  178.1160  137.8590 C   0  0  0  0  0  2  0  0  0  0  0  0
  184.0570  177.1740  137.7200 C   0  0  1  0  0  3  0  0  0  0  0  0
  183.9500  178.5540  138.3350 C   0  0  0  0  0  2  0  0  0  0  0  0
  185.1320  177.6680  138.6670 C   0  0  2  0  0  3  0  0  0  0  0  0
  183.1620  176.2320  138.4520 C   0  0  0  0  0  3  0  0  0  0  0  0
  182.9530  174.9900  138.0280 C   0  0  0  0  0  3  0  0  0  0  0  0
  183.5640  174.5100  136.8740 O   0  0  0  0  0  0  0  0  0  0  0  0
  185.4560  173.1530  138.0970 O   0  0  0  0  0  1  0  0  0  0  0  0
  184.5110  173.0830  136.9200 P   0  0  1  0  0  0  0  0  0  0  0  0
  183.5020  171.7380  137.0930 O   0  0  0  0  0  0  0  0  0  0  0  0
  185.4770  172.9240  135.3910 C   0  0  0  0  0  2  0  0  0  0  0  0
  185.6720  174.1830  134.8240 O   0  0  0  0  0  1  0  0  0  0  0  0
  1  3  1  0  0  0  0
  1  2  1  0  0  0  0
  2 20  1  1  0  0  0
  3 28  1  6  0  0  0
  3  2  1  0  0  0  0
  4  1  1  0  0  0  0
  6 13  2  0  0  0  0
  6 12  1  0  0  0  0
  7 10  2  0  0  0  0
  8 13  1  0  0  0  0
  8  7  1  0  0  0  0
  9 14  2  0  0  0  0
 10  4  1  0  0  0  0
 11  9  1  0  0  0  0
 11  4  2  0  0  0  0
 12  5  2  0  0  0  0
 12  9  1  0  0  0  0
 13 11  1  0  0  0  0
 15 22  1  0  0  0  0
 17 18  2  0  0  0  0
 17 21  1  0  0  0  0
 19 15  1  0  0  0  0
 19 16  2  0  0  0  0
 20 17  1  0  0  0  0
 21 19  1  0  0  0  0
 22 23  1  0  0  0  0
 24 25  1  0  0  0  0
 24 23  1  0  0  0  0
 26 25  1  0  0  0  0
 27 26  1  0  0  0  0
 28 29  1  0  0  0  0
 30 29  1  0  0  0  0
 31 32  1  0  0  0  0
 31 34  1  1  0  0  0
 31 33  1  0  0  0  0
 32 33  1  0  0  0  0
 33 30  1  6  0  0  0
 35 34  2  0  0  0  0
 36 38  1  0  0  0  0
 36 35  1  0  0  0  0
 38 39  2  1  0  0  0
 38 37  1  0  0  0  0
 40 38  1  0  0  0  0
 41 40  1  0  0  0  0
M  END
>  <MODEL>
8

>  <REMARK>
 VINA RESULT:      -6.5      3.321      7.146
  Name = 
  15 active torsions:
  status: ('A' for Active; 'I' for Inactive)
    1  A    between atoms: C_1  and  P_20
    2  A    between atoms: C_2  and  N_8
    3  A    between atoms: N_4  and  O_27
    4  A    between atoms: C_6  and  C_13
    5  A    between atoms: C_7  and  C_40
    6  A    between atoms: C_7  and  C_41
    7  A    between atoms: C_14  and  C_22
    8  A    between atoms: C_14  and  C_41
    9  A    between atoms: C_17  and  O_33
   10  A    between atoms: C_19  and  O_27
   11  A    between atoms: C_19  and  C_31
   12  A    between atoms: P_20  and  O_33
   13  A    between atoms: C_21  and  N_36
   14  A    between atoms: C_28  and  C_29
   15  A    between atoms: C_29  and  C_31
                            x       y       z     vdW  Elec       q    Type
                         _______ _______ _______ _____ _____    ______ ____

>  <TORSDO>
F 15

$$$$
=
 OpenBabel10232410163D

 41 44  0  0  1  0  0  0  0  0999 V2000
  190.5780  176.8800  139.8000 N   0  0  0  0  0  0  0  0  0  0  0  0
  189.8230  176.6220  141.0590 C   0  0  2  0  0  3  0  0  0  0  0  0
  189.9920  177.9350  140.6780 C   0  0  2  0  0  3  0  0  0  0  0  0
  191.2730  176.4110  138.6460 C   0  0  0  0  0  0  0  0  0  0  0  0
  188.3300  174.4480  135.3670 N   0  0  0  0  0  2  0  0  0  0  0  0
  190.6890  174.6310  135.6580 N   0  0  0  0  0  0  0  0  0  0  0  0
  193.4270  176.1170  137.5760 C   0  0  0  0  0  3  0  0  0  0  0  0
  192.8140  175.4010  136.4900 N   0  0  0  0  0  2  0  0  0  0  0  0
  189.2430  175.4390  137.4020 C   0  0  0  0  0  0  0  0  0  0  0  0
  192.7060  176.5780  138.5680 N   0  0  0  0  0  0  0  0  0  0  0  0
  190.6440  175.7680  137.6540 C   0  0  0  0  0  0  0  0  0  0  0  0
  189.3410  174.7130  136.1270 C   0  0  0  0  0  0  0  0  0  0  0  0
  191.4020  175.2290  136.5520 C   0  0  0  0  0  0  0  0  0  0  0  0
  187.9760  176.4000  137.7940 S   0  0  0  0  0  0  0  0  0  0  0  0
  190.2430  177.0870  146.4660 N   0  0  0  0  0  2  0  0  0  0  0  0
  192.3600  176.1340  146.6260 O   0  0  0  0  0  0  0  0  0  0  0  0
  190.5100  176.6080  143.4920 C   0  0  0  0  0  0  0  0  0  0  0  0
  189.4100  177.2020  143.8320 N   0  0  0  0  0  2  0  0  0  0  0  0
  191.4020  176.4820  145.8860 C   0  0  0  0  0  0  0  0  0  0  0  0
  190.7610  176.2940  142.1210 N   0  0  0  0  0  2  0  0  0  0  0  0
  191.4940  176.2620  144.4740 N   0  0  0  0  0  2  0  0  0  0  0  0
  190.1400  177.2840  147.8030 O   0  0  0  0  0  0  0  0  0  0  0  0
  189.1250  178.2340  147.9530 C   0  0  0  0  0  2  0  0  0  0  0  0
  187.7690  177.5510  147.9670 C   0  0  0  0  0  2  0  0  0  0  0  0
  186.7010  178.4900  147.4330 C   0  0  0  0  0  2  0  0  0  0  0  0
  186.6760  178.4560  145.9150 C   0  0  0  0  0  2  0  0  0  0  0  0
  186.2790  177.0760  145.4230 C   0  0  0  0  0  1  0  0  0  0  0  0
  188.7200  178.4610  140.0390 C   0  0  0  0  0  2  0  0  0  0  0  0
  187.7070  178.8370  141.1050 C   0  0  0  0  0  2  0  0  0  0  0  0
  186.3180  178.3880  140.6890 C   0  0  0  0  0  2  0  0  0  0  0  0
  184.2930  179.2020  141.8370 C   0  0  1  0  0  3  0  0  0  0  0  0
  185.4810  179.4990  142.7280 C   0  0  0  0  0  2  0  0  0  0  0  0
  185.4460  178.2220  141.9150 C   0  0  2  0  0  3  0  0  0  0  0  0
  183.1640  178.6910  142.6670 C   0  0  0  0  0  3  0  0  0  0  0  0
  181.9170  178.6510  142.2080 C   0  0  0  0  0  3  0  0  0  0  0  0
  181.6080  179.0910  140.9240 O   0  0  0  0  0  0  0  0  0  0  0  0
  182.3170  176.7300  140.0070 O   0  0  0  0  0  1  0  0  0  0  0  0
  181.5830  177.9900  139.6110 P   0  0  1  0  0  0  0  0  0  0  0  0
  179.9820  177.6060  139.2240 O   0  0  0  0  0  0  0  0  0  0  0  0
  182.3980  178.7230  138.1650 C   0  0  0  0  0  2  0  0  0  0  0  0
  183.7710  178.8060  138.3900 O   0  0  0  0  0  1  0  0  0  0  0  0
  1  3  1  0  0  0  0
  1  2  1  0  0  0  0
  2 20  1  1  0  0  0
  3 28  1  6  0  0  0
  3  2  1  0  0  0  0
  4  1  1  0  0  0  0
  5 12  2  0  0  0  0
  6 12  1  0  0  0  0
  6 13  2  0  0  0  0
  7 10  2  0  0  0  0
  8 13  1  0  0  0  0
  8  7  1  0  0  0  0
  9 11  1  0  0  0  0
  9 14  2  0  0  0  0
 10  4  1  0  0  0  0
 11  4  2  0  0  0  0
 12  9  1  0  0  0  0
 13 11  1  0  0  0  0
 15 22  1  0  0  0  0
 17 18  2  0  0  0  0
 17 21  1  0  0  0  0
 19 15  1  0  0  0  0
 19 16  2  0  0  0  0
 20 17  1  0  0  0  0
 21 19  1  0  0  0  0
 22 23  1  0  0  0  0
 23 24  1  0  0  0  0
 25 24  1  0  0  0  0
 26 25  1  0  0  0  0
 27 26  1  0  0  0  0
 28 29  1  0  0  0  0
 30 29  1  0  0  0  0
 31 33  1  0  0  0  0
 31 34  1  1  0  0  0
 31 32  1  0  0  0  0
 33 30  1  6  0  0  0
 33 32  1  0  0  0  0
 35 34  2  0  0  0  0
 36 35  1  0  0  0  0
 38 39  2  6  0  0  0
 38 37  1  0  0  0  0
 38 36  1  0  0  0  0
 40 41  1  0  0  0  0
 40 38  1  0  0  0  0
M  END
>  <MODEL>
9

>  <REMARK>
 VINA RESULT:      -6.5      3.024      6.855
  Name = 
  15 active torsions:
  status: ('A' for Active; 'I' for Inactive)
    1  A    between atoms: C_1  and  P_20
    2  A    between atoms: C_2  and  N_8
    3  A    between atoms: N_4  and  O_27
    4  A    between atoms: C_6  and  C_13
    5  A    between atoms: C_7  and  C_40
    6  A    between atoms: C_7  and  C_41
    7  A    between atoms: C_14  and  C_22
    8  A    between atoms: C_14  and  C_41
    9  A    between atoms: C_17  and  O_33
   10  A    between atoms: C_19  and  O_27
   11  A    between atoms: C_19  and  C_31
   12  A    between atoms: P_20  and  O_33
   13  A    between atoms: C_21  and  N_36
   14  A    between atoms: C_28  and  C_29
   15  A    between atoms: C_29  and  C_31
                            x       y       z     vdW  Elec       q    Type
                         _______ _______ _______ _____ _____    ______ ____

>  <TORSDO>
F 15

$$$$
