=
 OpenBabel10232410033D

 28 31  0  0  1  0  0  0  0  0999 V2000
  185.8240  177.1170  145.9650 O   0  0  0  0  0  0  0  0  0  0  0  0
  191.3340  176.3450  146.4670 N   0  0  0  0  0  1  0  0  0  0  0  0
  187.8370  177.7670  147.7860 C   0  0  0  0  0  2  0  0  0  0  0  0
  188.3720  178.0930  143.5970 C   0  0  2  0  0  3  0  0  0  0  0  0
  189.5890  177.8760  144.4730 C   0  0  0  0  0  0  0  0  0  0  0  0
  190.9720  177.8220  143.8630 C   0  0  0  0  0  2  0  0  0  0  0  0
  190.0370  177.4650  141.7350 C   0  0  1  0  0  0  0  0  0  0  0  0
  186.9700  177.3310  145.4810 C   0  0  0  0  0  0  0  0  0  0  0  0
  190.6130  177.5800  146.7320 C   0  0  1  0  0  3  0  0  0  0  0  0
  189.4170  177.6990  145.8020 C   0  0  0  0  0  0  0  0  0  0  0  0
  191.0170  178.1620  142.4900 O   0  0  0  0  0  0  0  0  0  0  0  0
  189.0050  178.4490  148.4780 C   0  0  0  0  0  2  0  0  0  0  0  0
  187.1990  177.1900  144.0030 C   0  0  1  0  0  3  0  0  0  0  0  0
  188.5070  179.3340  141.5720 O   0  0  0  0  0  1  0  0  0  0  0  0
  188.0760  177.6430  146.3460 N   0  0  0  0  0  0  0  0  0  0  0  0
  190.0570  175.9480  142.0040 C   0  0  0  0  0  1  0  0  0  0  0  0
  188.6530  178.0440  142.0890 C   0  0  2  0  0  3  0  0  0  0  0  0
  190.2530  177.6250  148.2170 C   0  0  0  0  0  2  0  0  0  0  0  0
  191.4630  176.1440  138.7090 N   0  0  0  0  0  0  0  0  0  0  0  0
  191.5960  177.0810  139.7600 C   0  0  0  0  0  0  0  0  0  0  0  0
  190.3260  177.7090  140.2330 C   0  0  1  0  0  3  0  0  0  0  0  0
  189.8790  175.0770  137.2240 C   0  0  0  0  0  1  0  0  0  0  0  0
  192.7240  177.3800  140.2350 O   0  0  0  0  0  0  0  0  0  0  0  0
  189.0140  177.0330  139.1360 S   0  0  0  0  0  0  0  0  0  0  0  0
  190.2430  176.0190  138.3140 C   0  0  0  0  0  0  0  0  0  0  0  0
  185.9910  177.5650  143.2780 N   0  0  0  0  0  0  0  0  0  0  0  0
  184.3310  179.1090  142.6570 N   0  0  0  0  0  1  0  0  0  0  0  0
  185.5100  178.7610  143.3690 C   0  0  0  0  0  3  0  0  0  0  0  0
  3 12  1  0  0  0  0
  4 13  1  0  0  0  0
  4  5  1  1  0  0  0
  5 10  2  0  0  0  0
  6  5  1  0  0  0  0
  7 16  1  1  0  0  0
  7 17  1  0  0  0  0
  7 11  1  0  0  0  0
  8  1  2  0  0  0  0
  8 15  1  0  0  0  0
  9  2  1  1  0  0  0
  9 18  1  0  0  0  0
 10 15  1  0  0  0  0
 10  9  1  0  0  0  0
 11  6  1  0  0  0  0
 13 26  1  6  0  0  0
 13  8  1  0  0  0  0
 15  3  1  0  0  0  0
 17 14  1  1  0  0  0
 17  4  1  0  0  0  0
 18 12  1  0  0  0  0
 19 20  1  0  0  0  0
 20 21  1  0  0  0  0
 20 23  2  0  0  0  0
 21 24  1  6  0  0  0
 21  7  1  0  0  0  0
 22 25  1  0  0  0  0
 25 19  2  0  0  0  0
 25 24  1  0  0  0  0
 26 28  2  0  0  0  0
 27 28  1  0  0  0  0
M  END
>  <MODEL>
1

>  <REMARK>
 VINA RESULT:      -7.7      0.000      0.000
  Name = 
  2 active torsions:
  status: ('A' for Active; 'I' for Inactive)
    1  A    between atoms: C_8  and  C_14
    2  A    between atoms: N_16  and  C_19
                            x       y       z     vdW  Elec       q    Type
                         _______ _______ _______ _____ _____    ______ ____

>  <TORSDO>
F 2

$$$$
=
 OpenBabel10232410033D

 28 31  0  0  1  0  0  0  0  0999 V2000
  187.8310  178.7890  138.6980 O   0  0  0  0  0  0  0  0  0  0  0  0
  193.0610  177.7000  140.3300 N   0  0  0  0  0  1  0  0  0  0  0  0
  190.1070  177.5680  137.6390 C   0  0  0  0  0  2  0  0  0  0  0  0
  188.8430  176.9400  141.6330 C   0  0  2  0  0  3  0  0  0  0  0  0
  190.3110  176.7700  141.2960 C   0  0  0  0  0  0  0  0  0  0  0  0
  191.2950  176.3410  142.3610 C   0  0  0  0  0  2  0  0  0  0  0  0
  189.7540  176.9150  144.0410 C   0  0  1  0  0  0  0  0  0  0  0  0
  188.5790  178.1890  139.5200 C   0  0  0  0  0  0  0  0  0  0  0  0
  192.1730  176.7850  139.6320 C   0  0  1  0  0  3  0  0  0  0  0  0
  190.7310  177.0400  140.0410 C   0  0  0  0  0  0  0  0  0  0  0  0
  190.6990  175.9580  143.5870 O   0  0  0  0  0  0  0  0  0  0  0  0
  191.1950  176.5610  137.3120 C   0  0  0  0  0  2  0  0  0  0  0  0
  188.2440  178.1960  140.9840 C   0  0  1  0  0  3  0  0  0  0  0  0
  187.8060  175.6570  143.3460 O   0  0  0  0  0  1  0  0  0  0  0  0
  189.7900  177.5560  139.0700 N   0  0  0  0  0  0  0  0  0  0  0  0
  190.3230  178.3470  144.0430 C   0  0  0  0  0  1  0  0  0  0  0  0
  188.5150  176.8420  143.1280 C   0  0  2  0  0  3  0  0  0  0  0  0
  192.4250  176.9130  138.1290 C   0  0  0  0  0  2  0  0  0  0  0  0
  189.8360  177.8520  147.5130 N   0  0  0  0  0  0  0  0  0  0  0  0
  190.3360  176.9790  146.5190 C   0  0  0  0  0  0  0  0  0  0  0  0
  189.3480  176.5380  145.4880 C   0  0  1  0  0  3  0  0  0  0  0  0
  187.8560  178.9960  148.3010 C   0  0  0  0  0  1  0  0  0  0  0  0
  191.5310  176.5830  146.5330 O   0  0  0  0  0  0  0  0  0  0  0  0
  187.7490  177.2880  145.9980 S   0  0  0  0  0  0  0  0  0  0  0  0
  188.5790  178.0930  147.3690 C   0  0  0  0  0  0  0  0  0  0  0  0
  186.7960  178.2190  141.1590 N   0  0  0  0  0  0  0  0  0  0  0  0
  184.8150  179.1680  141.9950 N   0  0  0  0  0  1  0  0  0  0  0  0
  186.2270  179.1620  141.8330 C   0  0  0  0  0  3  0  0  0  0  0  0
  1  8  2  0  0  0  0
  3 15  1  0  0  0  0
  4  5  1  1  0  0  0
  4 17  1  0  0  0  0
  5  6  1  0  0  0  0
  6 11  1  0  0  0  0
  7 16  1  6  0  0  0
  7 21  1  0  0  0  0
  8 13  1  0  0  0  0
  9 10  1  0  0  0  0
  9  2  1  1  0  0  0
 10  5  2  0  0  0  0
 11  7  1  0  0  0  0
 12  3  1  0  0  0  0
 12 18  1  0  0  0  0
 13 26  1  6  0  0  0
 13  4  1  0  0  0  0
 15  8  1  0  0  0  0
 15 10  1  0  0  0  0
 17 14  1  6  0  0  0
 17  7  1  0  0  0  0
 18  9  1  0  0  0  0
 20 23  2  0  0  0  0
 20 19  1  0  0  0  0
 21 24  1  1  0  0  0
 21 20  1  0  0  0  0
 24 25  1  0  0  0  0
 25 19  2  0  0  0  0
 25 22  1  0  0  0  0
 26 28  2  0  0  0  0
 28 27  1  0  0  0  0
M  END
>  <MODEL>
2

>  <REMARK>
 VINA RESULT:      -7.4      2.308      6.546
  Name = 
  2 active torsions:
  status: ('A' for Active; 'I' for Inactive)
    1  A    between atoms: C_8  and  C_14
    2  A    between atoms: N_16  and  C_19
                            x       y       z     vdW  Elec       q    Type
                         _______ _______ _______ _____ _____    ______ ____

>  <TORSDO>
F 2

$$$$
=
 OpenBabel10232410033D

 28 31  0  0  1  0  0  0  0  0999 V2000
  186.1940  178.3470  143.7020 O   0  0  0  0  0  0  0  0  0  0  0  0
  190.8270  175.2520  143.3050 N   0  0  0  0  0  1  0  0  0  0  0  0
  188.4850  177.8650  145.2220 C   0  0  0  0  0  2  0  0  0  0  0  0
  188.6180  178.4110  141.0230 C   0  0  2  0  0  3  0  0  0  0  0  0
  189.7090  177.5970  141.6890 C   0  0  0  0  0  0  0  0  0  0  0  0
  190.8480  177.0300  140.8700 C   0  0  0  0  0  2  0  0  0  0  0  0
  189.6110  177.3530  138.8960 C   0  0  1  0  0  0  0  0  0  0  0  0
  187.2530  178.1070  143.0580 C   0  0  0  0  0  0  0  0  0  0  0  0
  190.7560  176.6360  143.7420 C   0  0  1  0  0  3  0  0  0  0  0  0
  189.6330  177.3590  143.0160 C   0  0  0  0  0  0  0  0  0  0  0  0
  190.8770  177.4740  139.5260 O   0  0  0  0  0  0  0  0  0  0  0  0
  189.9050  177.9000  145.7600 C   0  0  0  0  0  2  0  0  0  0  0  0
  187.2240  178.0520  141.5570 C   0  0  1  0  0  3  0  0  0  0  0  0
  189.0460  179.7000  139.0710 O   0  0  0  0  0  1  0  0  0  0  0  0
  188.4770  177.8170  143.7570 N   0  0  0  0  0  0  0  0  0  0  0  0
  188.9970  175.9510  139.0780 C   0  0  0  0  0  1  0  0  0  0  0  0
  188.6720  178.4200  139.4900 C   0  0  2  0  0  3  0  0  0  0  0  0
  190.6270  176.6590  145.2660 C   0  0  0  0  0  2  0  0  0  0  0  0
  189.9040  175.9090  135.6140 N   0  0  0  0  0  0  0  0  0  0  0  0
  190.5750  176.5540  136.6790 C   0  0  0  0  0  0  0  0  0  0  0  0
  189.8000  177.6210  137.3820 C   0  0  1  0  0  3  0  0  0  0  0  0
  187.8450  175.8490  134.3460 C   0  0  0  0  0  1  0  0  0  0  0  0
  191.7610  176.2580  136.9840 O   0  0  0  0  0  0  0  0  0  0  0  0
  188.2060  177.7390  136.4740 S   0  0  0  0  0  0  0  0  0  0  0  0
  188.7260  176.3910  135.4130 C   0  0  0  0  0  0  0  0  0  0  0  0
  186.2260  178.9870  141.0490 N   0  0  0  0  0  0  0  0  0  0  0  0
  184.4320  179.5560  139.6420 N   0  0  0  0  0  1  0  0  0  0  0  0
  185.3960  178.6300  140.1260 C   0  0  0  0  0  3  0  0  0  0  0  0
  3 12  1  0  0  0  0
  4 13  1  0  0  0  0
  4  5  1  1  0  0  0
  5 10  2  0  0  0  0
  6  5  1  0  0  0  0
  7 16  1  1  0  0  0
  7 17  1  0  0  0  0
  7 11  1  0  0  0  0
  8  1  2  0  0  0  0
  8 15  1  0  0  0  0
  9  2  1  6  0  0  0
  9 18  1  0  0  0  0
 10  9  1  0  0  0  0
 10 15  1  0  0  0  0
 11  6  1  0  0  0  0
 13 26  1  6  0  0  0
 13  8  1  0  0  0  0
 15  3  1  0  0  0  0
 17 14  1  1  0  0  0
 17  4  1  0  0  0  0
 18 12  1  0  0  0  0
 19 20  1  0  0  0  0
 20 23  2  0  0  0  0
 20 21  1  0  0  0  0
 21 24  1  6  0  0  0
 21  7  1  0  0  0  0
 22 25  1  0  0  0  0
 25 19  2  0  0  0  0
 25 24  1  0  0  0  0
 27 28  1  0  0  0  0
 28 26  2  0  0  0  0
M  END
>  <MODEL>
3

>  <REMARK>
 VINA RESULT:      -6.8      2.258      2.985
  Name = 
  2 active torsions:
  status: ('A' for Active; 'I' for Inactive)
    1  A    between atoms: C_8  and  C_14
    2  A    between atoms: N_16  and  C_19
                            x       y       z     vdW  Elec       q    Type
                         _______ _______ _______ _____ _____    ______ ____

>  <TORSDO>
F 2

$$$$
=
 OpenBabel10232410033D

 28 31  0  0  1  0  0  0  0  0999 V2000
  188.1160  175.9410  137.0130 O   0  0  0  0  0  0  0  0  0  0  0  0
  185.4780  177.9460  141.5100 N   0  0  0  0  0  1  0  0  0  0  0  0
  186.1880  177.8780  137.5750 C   0  0  0  0  0  2  0  0  0  0  0  0
  189.6420  177.3490  139.9700 C   0  0  2  0  0  3  0  0  0  0  0  0
  188.4000  177.9440  140.6010 C   0  0  0  0  0  0  0  0  0  0  0  0
  188.4120  178.3810  142.0490 C   0  0  0  0  0  2  0  0  0  0  0  0
  190.3540  177.1120  142.4330 C   0  0  1  0  0  0  0  0  0  0  0  0
  188.2210  176.5290  138.1250 C   0  0  0  0  0  0  0  0  0  0  0  0
  186.0370  178.7320  140.4220 C   0  0  1  0  0  3  0  0  0  0  0  0
  187.2740  178.0480  139.8620 C   0  0  0  0  0  0  0  0  0  0  0  0
  189.6900  178.3460  142.6580 O   0  0  0  0  0  0  0  0  0  0  0  0
  185.5050  179.1710  137.9900 C   0  0  0  0  0  2  0  0  0  0  0  0
  189.3150  176.1420  139.0790 C   0  0  1  0  0  3  0  0  0  0  0  0
  191.8210  177.9580  140.7030 O   0  0  0  0  0  1  0  0  0  0  0  0
  187.2550  177.5210  138.5140 N   0  0  0  0  0  0  0  0  0  0  0  0
  189.4680  175.8980  142.7700 C   0  0  0  0  0  1  0  0  0  0  0  0
  190.7820  177.0570  140.9540 C   0  0  2  0  0  3  0  0  0  0  0  0
  184.9400  178.9780  139.3850 C   0  0  0  0  0  2  0  0  0  0  0  0
  191.7110  177.7160  145.7090 N   0  0  0  0  0  0  0  0  0  0  0  0
  191.6430  178.1540  144.3660 C   0  0  0  0  0  0  0  0  0  0  0  0
  191.6140  177.0750  143.3330 C   0  0  1  0  0  3  0  0  0  0  0  0
  191.8390  175.7620  147.1290 C   0  0  0  0  0  1  0  0  0  0  0  0
  191.6380  179.3790  144.0730 O   0  0  0  0  0  0  0  0  0  0  0  0
  191.7730  175.5020  144.2730 S   0  0  0  0  0  0  0  0  0  0  0  0
  191.7720  176.4330  145.8050 C   0  0  0  0  0  0  0  0  0  0  0  0
  190.4950  175.7230  138.3330 N   0  0  0  0  0  0  0  0  0  0  0  0
  192.2730  176.1290  136.8490 N   0  0  0  0  0  1  0  0  0  0  0  0
  191.1250  176.5550  137.5710 C   0  0  0  0  0  3  0  0  0  0  0  0
  1  8  2  0  0  0  0
  3 12  1  0  0  0  0
  3 15  1  0  0  0  0
  4  5  1  1  0  0  0
  4 17  1  0  0  0  0
  5  6  1  0  0  0  0
  6 11  1  0  0  0  0
  7 11  1  0  0  0  0
  7 16  1  1  0  0  0
  7 21  1  0  0  0  0
  8 15  1  0  0  0  0
  8 13  1  0  0  0  0
  9  2  1  1  0  0  0
 10  9  1  0  0  0  0
 10  5  2  0  0  0  0
 12 18  1  0  0  0  0
 13 26  1  6  0  0  0
 13  4  1  0  0  0  0
 15 10  1  0  0  0  0
 17 14  1  1  0  0  0
 17  7  1  0  0  0  0
 18  9  1  0  0  0  0
 19 25  2  0  0  0  0
 20 19  1  0  0  0  0
 21 24  1  1  0  0  0
 21 20  1  0  0  0  0
 23 20  2  0  0  0  0
 24 25  1  0  0  0  0
 25 22  1  0  0  0  0
 27 28  1  0  0  0  0
 28 26  2  0  0  0  0
M  END
>  <MODEL>
4

>  <REMARK>
 VINA RESULT:      -6.6      2.751      6.889
  Name = 
  2 active torsions:
  status: ('A' for Active; 'I' for Inactive)
    1  A    between atoms: C_8  and  C_14
    2  A    between atoms: N_16  and  C_19
                            x       y       z     vdW  Elec       q    Type
                         _______ _______ _______ _____ _____    ______ ____

>  <TORSDO>
F 2

$$$$
=
 OpenBabel10232410033D

 28 31  0  0  1  0  0  0  0  0999 V2000
  187.8590  178.1350  147.8840 O   0  0  0  0  0  0  0  0  0  0  0  0
  185.2180  179.9800  143.3200 N   0  0  0  0  0  1  0  0  0  0  0  0
  185.2260  178.4700  147.0230 C   0  0  0  0  0  2  0  0  0  0  0  0
  188.2570  176.9100  144.5080 C   0  0  2  0  0  3  0  0  0  0  0  0
  187.0700  177.6080  143.8750 C   0  0  0  0  0  0  0  0  0  0  0  0
  186.9530  177.7040  142.3700 C   0  0  0  0  0  2  0  0  0  0  0  0
  189.2350  177.1860  142.1420 C   0  0  1  0  0  0  0  0  0  0  0  0
  187.6500  177.9810  146.6480 C   0  0  0  0  0  0  0  0  0  0  0  0
  184.8800  178.7910  144.0840 C   0  0  1  0  0  3  0  0  0  0  0  0
  186.1370  178.1710  144.6740 C   0  0  0  0  0  0  0  0  0  0  0  0
  187.9210  176.9530  141.6610 O   0  0  0  0  0  0  0  0  0  0  0  0
  183.8810  178.2630  146.3460 C   0  0  0  0  0  2  0  0  0  0  0  0
  188.7950  177.6760  145.7250 C   0  0  1  0  0  3  0  0  0  0  0  0
  189.3810  175.1270  143.4070 O   0  0  0  0  0  1  0  0  0  0  0  0
  186.3290  178.1630  146.1080 N   0  0  0  0  0  0  0  0  0  0  0  0
  189.5640  178.6880  142.2480 C   0  0  0  0  0  1  0  0  0  0  0  0
  189.3680  176.5200  143.5250 C   0  0  2  0  0  3  0  0  0  0  0  0
  183.8240  179.1640  145.1260 C   0  0  0  0  0  2  0  0  0  0  0  0
  191.4110  177.6630  139.3180 N   0  0  0  0  0  0  0  0  0  0  0  0
  190.1930  177.1160  139.7850 C   0  0  0  0  0  0  0  0  0  0  0  0
  190.2320  176.5260  141.1570 C   0  0  1  0  0  3  0  0  0  0  0  0
  193.7340  178.0390  139.8790 C   0  0  0  0  0  1  0  0  0  0  0  0
  189.1590  177.1060  139.0660 O   0  0  0  0  0  0  0  0  0  0  0  0
  191.9810  176.6810  141.7010 S   0  0  0  0  0  0  0  0  0  0  0  0
  192.3690  177.5240  140.1670 C   0  0  0  0  0  0  0  0  0  0  0  0
  189.7970  176.8820  146.4260 N   0  0  0  0  0  0  0  0  0  0  0  0
  191.9840  176.4960  147.1940 N   0  0  0  0  0  1  0  0  0  0  0  0
  191.0210  177.2850  146.5080 C   0  0  0  0  0  3  0  0  0  0  0  0
  4  5  1  6  0  0  0
  4 13  1  0  0  0  0
  5 10  2  0  0  0  0
  6  5  1  0  0  0  0
  7 16  1  1  0  0  0
  7 17  1  0  0  0  0
  8  1  2  0  0  0  0
  9  2  1  1  0  0  0
  9 10  1  0  0  0  0
  9 18  1  0  0  0  0
 10 15  1  0  0  0  0
 11  7  1  0  0  0  0
 11  6  1  0  0  0  0
 12  3  1  0  0  0  0
 13 26  1  1  0  0  0
 13  8  1  0  0  0  0
 15  8  1  0  0  0  0
 15  3  1  0  0  0  0
 17 14  1  6  0  0  0
 17  4  1  0  0  0  0
 18 12  1  0  0  0  0
 19 20  1  0  0  0  0
 19 25  2  0  0  0  0
 21 20  1  6  0  0  0
 21 24  1  0  0  0  0
 21  7  1  0  0  0  0
 22 25  1  0  0  0  0
 23 20  2  0  0  0  0
 25 24  1  0  0  0  0
 26 28  2  0  0  0  0
 28 27  1  0  0  0  0
M  END
>  <MODEL>
5

>  <REMARK>
 VINA RESULT:      -6.1      2.012      4.357
  Name = 
  2 active torsions:
  status: ('A' for Active; 'I' for Inactive)
    1  A    between atoms: C_8  and  C_14
    2  A    between atoms: N_16  and  C_19
                            x       y       z     vdW  Elec       q    Type
                         _______ _______ _______ _____ _____    ______ ____

>  <TORSDO>
F 2

$$$$
=
 OpenBabel10232410033D

 28 31  0  0  1  0  0  0  0  0999 V2000
  191.8230  177.0500  139.9310 O   0  0  0  0  0  0  0  0  0  0  0  0
  191.0400  174.0760  135.2690 N   0  0  0  0  0  1  0  0  0  0  0  0
  193.2790  176.3820  137.6470 C   0  0  0  0  0  2  0  0  0  0  0  0
  189.1970  177.5010  137.4910 C   0  0  2  0  0  3  0  0  0  0  0  0
  189.7530  176.6120  136.3960 C   0  0  0  0  0  0  0  0  0  0  0  0
  188.8730  176.1720  135.2480 C   0  0  0  0  0  2  0  0  0  0  0  0
  186.9530  176.7530  136.4740 C   0  0  1  0  0  0  0  0  0  0  0  0
  191.1600  176.9100  138.8660 C   0  0  0  0  0  0  0  0  0  0  0  0
  191.6630  175.3860  135.3550 C   0  0  1  0  0  3  0  0  0  0  0  0
  191.0340  176.1930  136.4800 C   0  0  0  0  0  0  0  0  0  0  0  0
  187.6030  176.7970  135.2130 O   0  0  0  0  0  0  0  0  0  0  0  0
  193.8280  176.3540  136.2310 C   0  0  0  0  0  2  0  0  0  0  0  0
  189.6660  177.0620  138.8850 C   0  0  1  0  0  3  0  0  0  0  0  0
  187.4430  179.0500  137.0610 O   0  0  0  0  0  1  0  0  0  0  0  0
  191.8220  176.5360  137.6450 N   0  0  0  0  0  0  0  0  0  0  0  0
  186.9360  175.3350  137.0770 C   0  0  0  0  0  1  0  0  0  0  0  0
  187.6800  177.7210  137.4270 C   0  0  2  0  0  3  0  0  0  0  0  0
  193.1750  175.1990  135.4950 C   0  0  0  0  0  2  0  0  0  0  0  0
  183.4990  175.7820  136.2090 N   0  0  0  0  0  0  0  0  0  0  0  0
  184.6430  176.2550  135.5250 C   0  0  0  0  0  0  0  0  0  0  0  0
  185.4920  177.2280  136.2770 C   0  0  1  0  0  3  0  0  0  0  0  0
  182.2390  175.9460  138.2670 C   0  0  0  0  0  1  0  0  0  0  0  0
  184.9010  175.8930  134.3460 O   0  0  0  0  0  0  0  0  0  0  0  0
  184.6120  177.5080  137.8670 S   0  0  0  0  0  0  0  0  0  0  0  0
  183.3700  176.3120  137.3750 C   0  0  0  0  0  0  0  0  0  0  0  0
  189.2830  178.0500  139.8870 N   0  0  0  0  0  0  0  0  0  0  0  0
  188.2240  178.6840  141.8870 N   0  0  0  0  0  1  0  0  0  0  0  0
  188.5890  177.7070  140.9220 C   0  0  0  0  0  3  0  0  0  0  0  0
  4  5  1  6  0  0  0
  4 13  1  0  0  0  0
  5 10  2  0  0  0  0
  6  5  1  0  0  0  0
  7 16  1  1  0  0  0
  7 17  1  0  0  0  0
  8 13  1  0  0  0  0
  8  1  2  0  0  0  0
  9  2  1  1  0  0  0
  9 18  1  0  0  0  0
  9 10  1  0  0  0  0
 10 15  1  0  0  0  0
 11  6  1  0  0  0  0
 11  7  1  0  0  0  0
 12  3  1  0  0  0  0
 13 26  1  1  0  0  0
 15  3  1  0  0  0  0
 15  8  1  0  0  0  0
 17 14  1  6  0  0  0
 17  4  1  0  0  0  0
 18 12  1  0  0  0  0
 19 25  2  0  0  0  0
 20 19  1  0  0  0  0
 21 20  1  6  0  0  0
 21  7  1  0  0  0  0
 21 24  1  0  0  0  0
 23 20  2  0  0  0  0
 25 24  1  0  0  0  0
 25 22  1  0  0  0  0
 26 28  2  0  0  0  0
 28 27  1  0  0  0  0
M  END
>  <MODEL>
6

>  <REMARK>
 VINA RESULT:      -5.9      4.370      8.305
  Name = 
  2 active torsions:
  status: ('A' for Active; 'I' for Inactive)
    1  A    between atoms: C_8  and  C_14
    2  A    between atoms: N_16  and  C_19
                            x       y       z     vdW  Elec       q    Type
                         _______ _______ _______ _____ _____    ______ ____

>  <TORSDO>
F 2

$$$$
=
 OpenBabel10232410033D

 28 31  0  0  1  0  0  0  0  0999 V2000
  189.7450  178.1110  141.9610 O   0  0  0  0  0  0  0  0  0  0  0  0
  191.2040  174.5840  137.8830 N   0  0  0  0  0  1  0  0  0  0  0  0
  192.0660  177.4060  140.5820 C   0  0  0  0  0  2  0  0  0  0  0  0
  188.3420  177.9470  138.6360 C   0  0  2  0  0  3  0  0  0  0  0  0
  189.3700  177.0300  138.0040 C   0  0  0  0  0  0  0  0  0  0  0  0
  189.0840  176.3580  136.6800 C   0  0  0  0  0  2  0  0  0  0  0  0
  186.7890  176.8030  136.9310 C   0  0  1  0  0  0  0  0  0  0  0  0
  189.5980  177.7720  140.7540 C   0  0  0  0  0  0  0  0  0  0  0  0
  191.6300  175.9670  138.0140 C   0  0  1  0  0  3  0  0  0  0  0  0
  190.5300  176.7970  138.6560 C   0  0  0  0  0  0  0  0  0  0  0  0
  187.8980  176.8000  136.0450 O   0  0  0  0  0  0  0  0  0  0  0  0
  193.1530  177.3030  139.5260 C   0  0  0  0  0  2  0  0  0  0  0  0
  188.2230  177.7240  140.1500 C   0  0  1  0  0  3  0  0  0  0  0  0
  186.8100  179.1930  137.3110 O   0  0  0  0  0  1  0  0  0  0  0  0
  190.7340  177.3630  139.9730 N   0  0  0  0  0  0  0  0  0  0  0  0
  186.6340  175.4670  137.6830 C   0  0  0  0  0  1  0  0  0  0  0  0
  186.9770  177.9550  137.9370 C   0  0  2  0  0  3  0  0  0  0  0  0
  192.9570  176.0000  138.7730 C   0  0  0  0  0  2  0  0  0  0  0  0
  183.8210  175.3660  135.4940 N   0  0  0  0  0  0  0  0  0  0  0  0
  185.1100  175.8920  135.2470 C   0  0  0  0  0  0  0  0  0  0  0  0
  185.5090  177.0550  136.0950 C   0  0  1  0  0  3  0  0  0  0  0  0
  181.8200  175.6280  136.8270 C   0  0  0  0  0  1  0  0  0  0  0  0
  185.8520  175.4180  134.3460 O   0  0  0  0  0  0  0  0  0  0  0  0
  184.0380  177.4210  137.1360 S   0  0  0  0  0  0  0  0  0  0  0  0
  183.1900  176.0210  136.4060 C   0  0  0  0  0  0  0  0  0  0  0  0
  187.3830  178.7520  140.7530 N   0  0  0  0  0  0  0  0  0  0  0  0
  185.6220  179.4500  142.1450 N   0  0  0  0  0  1  0  0  0  0  0  0
  186.4320  178.4340  141.5680 C   0  0  0  0  0  3  0  0  0  0  0  0
  4  5  1  6  0  0  0
  4 13  1  0  0  0  0
  5 10  2  0  0  0  0
  6  5  1  0  0  0  0
  7 16  1  1  0  0  0
  7 17  1  0  0  0  0
  8  1  2  0  0  0  0
  9  2  1  1  0  0  0
  9 10  1  0  0  0  0
  9 18  1  0  0  0  0
 10 15  1  0  0  0  0
 11  6  1  0  0  0  0
 11  7  1  0  0  0  0
 12  3  1  0  0  0  0
 13 26  1  1  0  0  0
 13  8  1  0  0  0  0
 15  3  1  0  0  0  0
 15  8  1  0  0  0  0
 17 14  1  6  0  0  0
 17  4  1  0  0  0  0
 18 12  1  0  0  0  0
 19 25  2  0  0  0  0
 20 19  1  0  0  0  0
 21 20  1  1  0  0  0
 21  7  1  0  0  0  0
 21 24  1  0  0  0  0
 23 20  2  0  0  0  0
 25 22  1  0  0  0  0
 25 24  1  0  0  0  0
 26 28  2  0  0  0  0
 28 27  1  0  0  0  0
M  END
>  <MODEL>
7

>  <REMARK>
 VINA RESULT:      -5.9      4.139      6.840
  Name = 
  2 active torsions:
  status: ('A' for Active; 'I' for Inactive)
    1  A    between atoms: C_8  and  C_14
    2  A    between atoms: N_16  and  C_19
                            x       y       z     vdW  Elec       q    Type
                         _______ _______ _______ _____ _____    ______ ____

>  <TORSDO>
F 2

$$$$
=
 OpenBabel10232410033D

 28 31  0  0  1  0  0  0  0  0999 V2000
  189.2130  175.9760  143.7990 O   0  0  0  0  0  0  0  0  0  0  0  0
  187.8670  177.0160  138.4790 N   0  0  0  0  0  1  0  0  0  0  0  0
  190.5120  176.7950  141.4690 C   0  0  0  0  0  2  0  0  0  0  0  0
  186.7250  178.3120  142.6120 C   0  0  2  0  0  3  0  0  0  0  0  0
  187.0980  178.3090  141.1430 C   0  0  0  0  0  0  0  0  0  0  0  0
  186.1490  178.8790  140.1120 C   0  0  0  0  0  2  0  0  0  0  0  0
  184.3790  178.7670  141.6550 C   0  0  1  0  0  0  0  0  0  0  0  0
  188.5360  176.6780  142.9980 C   0  0  0  0  0  0  0  0  0  0  0  0
  188.7330  177.8260  139.3180 C   0  0  1  0  0  3  0  0  0  0  0  0
  188.2730  177.7600  140.7650 C   0  0  0  0  0  0  0  0  0  0  0  0
  185.0250  179.5440  140.6590 O   0  0  0  0  0  0  0  0  0  0  0  0
  191.0450  177.6380  140.3230 C   0  0  0  0  0  2  0  0  0  0  0  0
  187.0990  176.9940  143.3050 C   0  0  1  0  0  3  0  0  0  0  0  0
  185.3070  179.9860  143.5290 O   0  0  0  0  0  1  0  0  0  0  0  0
  189.1130  177.1210  141.7570 N   0  0  0  0  0  0  0  0  0  0  0  0
  184.0860  177.3300  141.1820 C   0  0  0  0  0  1  0  0  0  0  0  0
  185.2800  178.7360  142.9040 C   0  0  2  0  0  3  0  0  0  0  0  0
  190.1790  177.3770  139.1040 C   0  0  0  0  0  2  0  0  0  0  0  0
  180.8060  178.4250  141.8920 N   0  0  0  0  0  0  0  0  0  0  0  0
  181.8880  178.9900  141.1770 C   0  0  0  0  0  0  0  0  0  0  0  0
  183.0380  179.4590  142.0080 C   0  0  1  0  0  3  0  0  0  0  0  0
  179.9830  177.8910  144.1030 C   0  0  0  0  0  1  0  0  0  0  0  0
  181.8570  179.1100  139.9240 O   0  0  0  0  0  0  0  0  0  0  0  0
  182.5250  179.1740  143.7500 S   0  0  0  0  0  0  0  0  0  0  0  0
  180.9940  178.4450  143.1660 C   0  0  0  0  0  0  0  0  0  0  0  0
  186.9160  177.1060  144.7470 N   0  0  0  0  0  0  0  0  0  0  0  0
  187.3130  178.1360  146.8230 N   0  0  0  0  0  1  0  0  0  0  0  0
  187.5020  178.0430  145.4170 C   0  0  0  0  0  3  0  0  0  0  0  0
  3 15  1  0  0  0  0
  4  5  1  6  0  0  0
  4 17  1  0  0  0  0
  4 13  1  0  0  0  0
  6 11  1  0  0  0  0
  6  5  1  0  0  0  0
  7 16  1  6  0  0  0
  7 21  1  0  0  0  0
  7 17  1  0  0  0  0
  8 13  1  0  0  0  0
  8  1  2  0  0  0  0
  9  2  1  6  0  0  0
  9 10  1  0  0  0  0
 10  5  2  0  0  0  0
 10 15  1  0  0  0  0
 11  7  1  0  0  0  0
 12  3  1  0  0  0  0
 13 26  1  1  0  0  0
 15  8  1  0  0  0  0
 17 14  1  6  0  0  0
 18  9  1  0  0  0  0
 18 12  1  0  0  0  0
 19 25  2  0  0  0  0
 20 19  1  0  0  0  0
 21 20  1  6  0  0  0
 21 24  1  0  0  0  0
 23 20  2  0  0  0  0
 25 24  1  0  0  0  0
 25 22  1  0  0  0  0
 26 28  2  0  0  0  0
 28 27  1  0  0  0  0
M  END
>  <MODEL>
8

>  <REMARK>
 VINA RESULT:      -5.8      3.361      7.065
  Name = 
  2 active torsions:
  status: ('A' for Active; 'I' for Inactive)
    1  A    between atoms: C_8  and  C_14
    2  A    between atoms: N_16  and  C_19
                            x       y       z     vdW  Elec       q    Type
                         _______ _______ _______ _____ _____    ______ ____

>  <TORSDO>
F 2

$$$$
=
 OpenBabel10232410033D

 28 31  0  0  1  0  0  0  0  0999 V2000
  188.6390  178.4480  139.2560 O   0  0  0  0  0  0  0  0  0  0  0  0
  189.4700  173.2620  137.3530 N   0  0  0  0  0  1  0  0  0  0  0  0
  190.7220  176.9830  138.1140 C   0  0  0  0  0  2  0  0  0  0  0  0
  186.7380  176.7510  136.6950 C   0  0  2  0  0  3  0  0  0  0  0  0
  187.6610  175.5690  136.4760 C   0  0  0  0  0  0  0  0  0  0  0  0
  187.1770  174.3490  135.7250 C   0  0  0  0  0  2  0  0  0  0  0  0
  184.9460  175.0260  136.0310 C   0  0  1  0  0  0  0  0  0  0  0  0
  188.3090  177.5640  138.4180 C   0  0  0  0  0  0  0  0  0  0  0  0
  189.9020  174.4920  136.7090 C   0  0  1  0  0  3  0  0  0  0  0  0
  188.9100  175.6080  136.9900 C   0  0  0  0  0  0  0  0  0  0  0  0
  185.9040  174.5010  135.1240 O   0  0  0  0  0  0  0  0  0  0  0  0
  191.6330  176.2890  137.1160 C   0  0  0  0  0  2  0  0  0  0  0  0
  186.8570  177.3210  138.1160 C   0  0  1  0  0  3  0  0  0  0  0  0
  185.0090  177.2790  135.1490 O   0  0  0  0  0  1  0  0  0  0  0  0
  189.3120  176.7390  137.8000 N   0  0  0  0  0  0  0  0  0  0  0  0
  184.9190  174.2570  137.3660 C   0  0  0  0  0  1  0  0  0  0  0  0
  185.2800  176.5080  136.2830 C   0  0  2  0  0  3  0  0  0  0  0  0
  191.3310  174.8020  137.1570 C   0  0  0  0  0  2  0  0  0  0  0  0
  181.9150  173.1130  135.7240 N   0  0  0  0  0  0  0  0  0  0  0  0
  183.1200  173.5140  135.1010 C   0  0  0  0  0  0  0  0  0  0  0  0
  183.5500  174.9200  135.3680 C   0  0  1  0  0  3  0  0  0  0  0  0
  180.1010  173.8540  137.1420 C   0  0  0  0  0  1  0  0  0  0  0  0
  183.7630  172.7350  134.3490 O   0  0  0  0  0  0  0  0  0  0  0  0
  182.2130  175.6480  136.3990 S   0  0  0  0  0  0  0  0  0  0  0  0
  181.3710  174.0650  136.4000 C   0  0  0  0  0  0  0  0  0  0  0  0
  186.1140  178.5710  138.2280 N   0  0  0  0  0  0  0  0  0  0  0  0
  184.4840  179.9410  139.2220 N   0  0  0  0  0  1  0  0  0  0  0  0
  185.1990  178.7170  139.1290 C   0  0  0  0  0  3  0  0  0  0  0  0
  4  5  1  1  0  0  0
  4 13  1  0  0  0  0
  5 10  2  0  0  0  0
  6  5  1  0  0  0  0
  7 17  1  0  0  0  0
  7 16  1  1  0  0  0
  8  1  2  0  0  0  0
  9 10  1  0  0  0  0
  9 18  1  0  0  0  0
  9  2  1  1  0  0  0
 10 15  1  0  0  0  0
 11  6  1  0  0  0  0
 11  7  1  0  0  0  0
 12 18  1  0  0  0  0
 12  3  1  0  0  0  0
 13 26  1  6  0  0  0
 13  8  1  0  0  0  0
 15  3  1  0  0  0  0
 15  8  1  0  0  0  0
 17 14  1  6  0  0  0
 17  4  1  0  0  0  0
 19 25  2  0  0  0  0
 20 19  1  0  0  0  0
 21 20  1  1  0  0  0
 21  7  1  0  0  0  0
 21 24  1  0  0  0  0
 23 20  2  0  0  0  0
 24 25  1  0  0  0  0
 25 22  1  0  0  0  0
 26 28  2  0  0  0  0
 28 27  1  0  0  0  0
M  END
>  <MODEL>
9

>  <REMARK>
 VINA RESULT:      -5.6      5.991      8.737
  Name = 
  2 active torsions:
  status: ('A' for Active; 'I' for Inactive)
    1  A    between atoms: C_8  and  C_14
    2  A    between atoms: N_16  and  C_19
                            x       y       z     vdW  Elec       q    Type
                         _______ _______ _______ _____ _____    ______ ____

>  <TORSDO>
F 2

$$$$
