=
 OpenBabel10222421443D

 31 34  0  0  1  0  0  0  0  0999 V2000
  184.3480  179.1640  139.2670 P   0  0  2  0  0  0  0  0  0  0  0  0
  186.8920  177.8570  143.2100 C   0  0  0  0  0  0  0  0  0  0  0  0
  185.5900  178.1910  142.8030 C   0  0  0  0  0  3  0  0  0  0  0  0
  187.9490  177.8620  142.2820 C   0  0  0  0  0  3  0  0  0  0  0  0
  186.0270  178.8620  139.2520 O   0  0  0  0  0  0  0  0  0  0  0  0
  186.4160  178.5150  140.5430 C   0  0  0  0  0  0  0  0  0  0  0  0
  185.3690  178.5130  141.4660 C   0  0  0  0  0  0  0  0  0  0  0  0
  187.7230  178.1910  140.9360 C   0  0  0  0  0  0  0  0  0  0  0  0
  183.5930  178.1750  138.4100 O   0  0  0  0  0  0  0  0  0  0  0  0
  183.9850  180.7670  138.8640 O   0  0  0  0  0  1  0  0  0  0  0  0
  184.1330  178.8550  140.9300 O   0  0  0  0  0  0  0  0  0  0  0  0
  188.8100  179.2200  139.0660 O   0  0  0  0  0  1  0  0  0  0  0  0
  188.8780  178.1590  139.9720 C   0  0  2  0  0  3  0  0  0  0  0  0
  189.0380  176.8240  139.2330 C   0  0  1  0  0  3  0  0  0  0  0  0
  188.7500  176.9840  137.7520 C   0  0  0  0  0  1  0  0  0  0  0  0
  190.3670  176.2570  139.4200 N   0  0  0  0  0  2  0  0  0  0  0  0
  191.1140  176.4760  138.1910 C   0  0  0  0  0  2  0  0  0  0  0  0
  191.9940  175.2730  137.9030 C   0  0  0  0  0  2  0  0  0  0  0  0
  193.4260  175.6860  137.8260 C   0  0  0  0  0  0  0  0  0  0  0  0
  194.4980  174.6560  137.8970 C   0  0  0  0  0  1  0  0  0  0  0  0
  193.7210  176.8620  137.6840 O   0  0  0  0  0  0  0  0  0  0  0  0
  187.1610  177.5340  144.6390 C   0  0  0  0  0  2  0  0  0  0  0  0
  191.8430  176.2200  145.2770 N   0  0  0  0  0  0  0  0  0  0  0  0
  189.4350  176.5850  144.8700 C   0  0  1  0  0  3  0  0  0  0  0  0
  191.9070  176.1680  146.5680 C   0  0  0  0  0  3  0  0  0  0  0  0
  188.6050  177.8510  144.9810 C   0  0  2  0  0  3  0  0  0  0  0  0
  190.8690  176.9690  144.5080 C   0  0  2  0  0  3  0  0  0  0  0  0
  188.9990  177.1090  146.2420 C   0  0  2  0  0  3  0  0  0  0  0  0
  191.1020  176.7300  143.0300 C   0  0  0  0  0  1  0  0  0  0  0  0
  190.0840  177.8130  146.9180 N   0  0  0  0  0  2  0  0  0  0  0  0
  190.9280  176.7990  147.5360 C   0  0  0  0  0  2  0  0  0  0  0  0
  1  9  2  6  0  0  0
  1 11  1  0  0  0  0
  2 22  1  0  0  0  0
  3  2  1  0  0  0  0
  4  2  2  0  0  0  0
  5  1  1  0  0  0  0
  5  6  1  0  0  0  0
  6  8  2  0  0  0  0
  6  7  1  0  0  0  0
  7  3  2  0  0  0  0
  8  4  1  0  0  0  0
 10  1  1  0  0  0  0
 11  7  1  0  0  0  0
 13 12  1  6  0  0  0
 13  8  1  0  0  0  0
 14 15  1  6  0  0  0
 14 16  1  0  0  0  0
 14 13  1  0  0  0  0
 17 16  1  0  0  0  0
 18 17  1  0  0  0  0
 19 20  1  0  0  0  0
 19 18  1  0  0  0  0
 21 19  2  0  0  0  0
 22 26  1  0  0  0  0
 23 25  2  0  0  0  0
 24 26  1  0  0  0  0
 24 28  1  0  0  0  0
 25 31  1  0  0  0  0
 26 28  1  0  0  0  0
 27 24  1  0  0  0  0
 27 23  1  0  0  0  0
 28 30  1  0  0  0  0
 29 27  1  0  0  0  0
 30 31  1  0  0  0  0
M  END
>  <MODEL>
1

>  <REMARK>
 VINA RESULT:      -8.4      0.000      0.000
  Name = 
  8 active torsions:
  status: ('A' for Active; 'I' for Inactive)
    1  A    between atoms: C_3  and  C_16
    2  A    between atoms: N_5  and  C_8
    3  A    between atoms: N_5  and  C_24
    4  A    between atoms: C_6  and  C_8
    5  A    between atoms: C_6  and  C_25
    6  A    between atoms: C_12  and  C_13
    7  A    between atoms: C_12  and  C_19
    8  A    between atoms: C_16  and  C_24
                            x       y       z     vdW  Elec       q    Type
                         _______ _______ _______ _____ _____    ______ ____

>  <TORSDO>
F 8

$$$$
=
 OpenBabel10222421443D

 31 34  0  0  1  0  0  0  0  0999 V2000
  187.4100  177.8750  137.8030 P   0  0  2  0  0  0  0  0  0  0  0  0
  190.8960  177.5410  141.1890 C   0  0  0  0  0  0  0  0  0  0  0  0
  189.6190  178.0830  140.9770 C   0  0  0  0  0  3  0  0  0  0  0  0
  191.5410  176.8220  140.1650 C   0  0  0  0  0  3  0  0  0  0  0  0
  188.8910  177.0650  137.5580 O   0  0  0  0  0  0  0  0  0  0  0  0
  189.6400  177.1680  138.7280 C   0  0  0  0  0  0  0  0  0  0  0  0
  189.0040  177.8840  139.7430 C   0  0  0  0  0  0  0  0  0  0  0  0
  190.9200  176.6270  138.9220 C   0  0  0  0  0  0  0  0  0  0  0  0
  186.2360  176.9280  137.7360 O   0  0  0  0  0  1  0  0  0  0  0  0
  187.2270  179.1960  136.7620 O   0  0  0  0  0  0  0  0  0  0  0  0
  187.7420  178.3600  139.4040 O   0  0  0  0  0  0  0  0  0  0  0  0
  191.1740  174.5130  137.8250 O   0  0  0  0  0  1  0  0  0  0  0  0
  191.6350  175.8300  137.8630 C   0  0  2  0  0  3  0  0  0  0  0  0
  193.1630  175.8690  137.9800 C   0  0  1  0  0  3  0  0  0  0  0  0
  193.7530  174.4750  137.8700 C   0  0  0  0  0  1  0  0  0  0  0  0
  193.7630  176.7390  136.9770 N   0  0  0  0  0  2  0  0  0  0  0  0
  194.3540  175.8880  135.9550 C   0  0  0  0  0  2  0  0  0  0  0  0
  194.8420  176.7400  134.7960 C   0  0  0  0  0  2  0  0  0  0  0  0
  196.1160  177.4250  135.1600 C   0  0  0  0  0  0  0  0  0  0  0  0
  196.2780  178.8810  134.8870 C   0  0  0  0  0  1  0  0  0  0  0  0
  197.0190  176.8040  135.6980 O   0  0  0  0  0  0  0  0  0  0  0  0
  191.5880  177.7590  142.4890 C   0  0  0  0  0  2  0  0  0  0  0  0
  188.8150  177.2360  146.4990 N   0  0  0  0  0  0  0  0  0  0  0  0
  190.1380  177.8030  144.4940 C   0  0  1  0  0  3  0  0  0  0  0  0
  189.7250  177.0930  147.4080 C   0  0  0  0  0  3  0  0  0  0  0  0
  190.9460  176.9090  143.5700 C   0  0  2  0  0  3  0  0  0  0  0  0
  188.9880  176.9870  145.0830 C   0  0  2  0  0  3  0  0  0  0  0  0
  191.5190  177.2930  144.9190 C   0  0  2  0  0  3  0  0  0  0  0  0
  187.7030  177.3170  144.3510 C   0  0  0  0  0  1  0  0  0  0  0  0
  191.4140  176.1690  145.8440 N   0  0  0  0  0  2  0  0  0  0  0  0
  191.1760  176.7290  147.1680 C   0  0  0  0  0  2  0  0  0  0  0  0
  1 10  2  6  0  0  0
  1 11  1  0  0  0  0
  2 22  1  0  0  0  0
  3  2  1  0  0  0  0
  4  2  2  0  0  0  0
  5  1  1  0  0  0  0
  5  6  1  0  0  0  0
  6  8  2  0  0  0  0
  6  7  1  0  0  0  0
  7  3  2  0  0  0  0
  8  4  1  0  0  0  0
  9  1  1  0  0  0  0
 11  7  1  0  0  0  0
 13 12  1  1  0  0  0
 13 14  1  0  0  0  0
 13  8  1  0  0  0  0
 14 15  1  6  0  0  0
 16 14  1  0  0  0  0
 17 16  1  0  0  0  0
 18 19  1  0  0  0  0
 18 17  1  0  0  0  0
 19 21  2  0  0  0  0
 20 19  1  0  0  0  0
 22 26  1  0  0  0  0
 23 25  2  0  0  0  0
 24 28  1  0  0  0  0
 24 27  1  0  0  0  0
 26 24  1  0  0  0  0
 26 28  1  0  0  0  0
 27 23  1  0  0  0  0
 28 30  1  0  0  0  0
 29 27  1  0  0  0  0
 30 31  1  0  0  0  0
 31 25  1  0  0  0  0
M  END
>  <MODEL>
2

>  <REMARK>
 VINA RESULT:      -8.2      2.294      3.911
  Name = 
  8 active torsions:
  status: ('A' for Active; 'I' for Inactive)
    1  A    between atoms: C_3  and  C_16
    2  A    between atoms: N_5  and  C_8
    3  A    between atoms: N_5  and  C_24
    4  A    between atoms: C_6  and  C_8
    5  A    between atoms: C_6  and  C_25
    6  A    between atoms: C_12  and  C_13
    7  A    between atoms: C_12  and  C_19
    8  A    between atoms: C_16  and  C_24
                            x       y       z     vdW  Elec       q    Type
                         _______ _______ _______ _____ _____    ______ ____

>  <TORSDO>
F 8

$$$$
=
 OpenBabel10222421443D

 31 34  0  0  1  0  0  0  0  0999 V2000
  190.7010  176.4860  147.1230 P   0  0  2  0  0  0  0  0  0  0  0  0
  186.5110  178.3530  145.4840 C   0  0  0  0  0  0  0  0  0  0  0  0
  187.2450  178.1730  146.6670 C   0  0  0  0  0  3  0  0  0  0  0  0
  187.0120  177.8800  144.2580 C   0  0  0  0  0  3  0  0  0  0  0  0
  190.2230  176.4430  145.4860 O   0  0  0  0  0  0  0  0  0  0  0  0
  188.9810  177.0640  145.3810 C   0  0  0  0  0  0  0  0  0  0  0  0
  188.4790  177.5310  146.5970 C   0  0  0  0  0  0  0  0  0  0  0  0
  188.2550  177.2290  144.1920 C   0  0  0  0  0  0  0  0  0  0  0  0
  191.9490  177.3150  147.3200 O   0  0  0  0  0  0  0  0  0  0  0  0
  190.8500  174.9360  147.7840 O   0  0  0  0  0  1  0  0  0  0  0  0
  189.3090  177.2940  147.6870 O   0  0  0  0  0  0  0  0  0  0  0  0
  189.4270  175.5370  142.9680 O   0  0  0  0  0  1  0  0  0  0  0  0
  188.7660  176.7610  142.8560 C   0  0  2  0  0  3  0  0  0  0  0  0
  189.6430  177.7880  142.1290 C   0  0  1  0  0  3  0  0  0  0  0  0
  191.0970  177.6540  142.5450 C   0  0  0  0  0  1  0  0  0  0  0  0
  189.5310  177.6700  140.6810 N   0  0  0  0  0  2  0  0  0  0  0  0
  188.3530  178.4180  140.2700 C   0  0  0  0  0  2  0  0  0  0  0  0
  187.9080  177.9590  138.8920 C   0  0  0  0  0  2  0  0  0  0  0  0
  188.8550  178.4560  137.8510 C   0  0  0  0  0  0  0  0  0  0  0  0
  189.6760  177.4870  137.0740 C   0  0  0  0  0  1  0  0  0  0  0  0
  188.9430  179.6510  137.6190 O   0  0  0  0  0  0  0  0  0  0  0  0
  185.1770  179.0140  145.5330 C   0  0  0  0  0  2  0  0  0  0  0  0
  182.4820  178.9940  141.4360 N   0  0  0  0  0  0  0  0  0  0  0  0
  183.9330  179.2890  143.4110 C   0  0  1  0  0  3  0  0  0  0  0  0
  181.2990  179.1920  141.9230 C   0  0  0  0  0  3  0  0  0  0  0  0
  184.2260  178.3410  144.5600 C   0  0  2  0  0  3  0  0  0  0  0  0
  183.6170  178.4640  142.1640 C   0  0  2  0  0  3  0  0  0  0  0  0
  182.9120  179.0950  144.5370 C   0  0  2  0  0  3  0  0  0  0  0  0
  184.8290  178.4320  141.2550 C   0  0  0  0  0  1  0  0  0  0  0  0
  181.8310  178.2020  144.1330 N   0  0  0  0  0  2  0  0  0  0  0  0
  180.8840  179.0010  143.3660 C   0  0  0  0  0  2  0  0  0  0  0  0
  1  9  2  1  0  0  0
  1 11  1  0  0  0  0
  1 10  1  0  0  0  0
  2 22  1  0  0  0  0
  2  3  1  0  0  0  0
  4  2  2  0  0  0  0
  5  1  1  0  0  0  0
  6  5  1  0  0  0  0
  6  7  1  0  0  0  0
  7  3  2  0  0  0  0
  7 11  1  0  0  0  0
  8  4  1  0  0  0  0
  8  6  2  0  0  0  0
 13 12  1  1  0  0  0
 13  8  1  0  0  0  0
 14 15  1  6  0  0  0
 14 13  1  0  0  0  0
 16 14  1  0  0  0  0
 17 16  1  0  0  0  0
 18 17  1  0  0  0  0
 19 18  1  0  0  0  0
 20 19  1  0  0  0  0
 21 19  2  0  0  0  0
 23 25  2  0  0  0  0
 23 27  1  0  0  0  0
 24 28  1  0  0  0  0
 24 26  1  0  0  0  0
 25 31  1  0  0  0  0
 26 22  1  0  0  0  0
 27 24  1  0  0  0  0
 28 26  1  0  0  0  0
 29 27  1  0  0  0  0
 30 28  1  0  0  0  0
 31 30  1  0  0  0  0
M  END
>  <MODEL>
3

>  <REMARK>
 VINA RESULT:      -8.1      4.730      7.067
  Name = 
  8 active torsions:
  status: ('A' for Active; 'I' for Inactive)
    1  A    between atoms: C_3  and  C_16
    2  A    between atoms: N_5  and  C_8
    3  A    between atoms: N_5  and  C_24
    4  A    between atoms: C_6  and  C_8
    5  A    between atoms: C_6  and  C_25
    6  A    between atoms: C_12  and  C_13
    7  A    between atoms: C_12  and  C_19
    8  A    between atoms: C_16  and  C_24
                            x       y       z     vdW  Elec       q    Type
                         _______ _______ _______ _____ _____    ______ ____

>  <TORSDO>
F 8

$$$$
=
 OpenBabel10222421443D

 31 34  0  0  1  0  0  0  0  0999 V2000
  189.9260  176.8380  142.8950 P   0  0  2  0  0  0  0  0  0  0  0  0
  185.3160  178.4080  142.9920 C   0  0  0  0  0  0  0  0  0  0  0  0
  186.3780  178.1750  142.1050 C   0  0  0  0  0  3  0  0  0  0  0  0
  185.4730  178.1630  144.3690 C   0  0  0  0  0  3  0  0  0  0  0  0
  188.9990  176.9600  144.3210 O   0  0  0  0  0  0  0  0  0  0  0  0
  187.7380  177.4400  143.9780 C   0  0  0  0  0  0  0  0  0  0  0  0
  187.5800  177.6880  142.6140 C   0  0  0  0  0  0  0  0  0  0  0  0
  186.6870  177.6760  144.8780 C   0  0  0  0  0  0  0  0  0  0  0  0
  190.3010  175.4060  142.5910 O   0  0  0  0  0  0  0  0  0  0  0  0
  191.2730  177.8600  142.9210 O   0  0  0  0  0  1  0  0  0  0  0  0
  188.7070  177.4090  141.8480 O   0  0  0  0  0  0  0  0  0  0  0  0
  185.7480  177.9800  147.0600 O   0  0  0  0  0  1  0  0  0  0  0  0
  186.8050  177.4030  146.3540 C   0  0  2  0  0  3  0  0  0  0  0  0
  188.1520  177.8160  146.9590 C   0  0  1  0  0  3  0  0  0  0  0  0
  187.9550  178.6220  148.2300 C   0  0  0  0  0  1  0  0  0  0  0  0
  189.0000  176.6630  147.2320 N   0  0  0  0  0  2  0  0  0  0  0  0
  190.3070  177.1640  147.6310 C   0  0  0  0  0  2  0  0  0  0  0  0
  191.3180  176.8940  146.5300 C   0  0  0  0  0  2  0  0  0  0  0  0
  192.2050  175.7560  146.9110 C   0  0  0  0  0  0  0  0  0  0  0  0
  192.7900  175.7010  148.2800 C   0  0  0  0  0  1  0  0  0  0  0  0
  192.4360  174.8610  146.1140 O   0  0  0  0  0  0  0  0  0  0  0  0
  184.0280  178.9530  142.4800 C   0  0  0  0  0  2  0  0  0  0  0  0
  182.7760  178.4370  137.7670 N   0  0  0  0  0  0  0  0  0  0  0  0
  183.4790  178.9920  140.0670 C   0  0  1  0  0  3  0  0  0  0  0  0
  181.4850  178.4460  137.8560 C   0  0  0  0  0  3  0  0  0  0  0  0
  183.5400  178.1210  141.3080 C   0  0  2  0  0  3  0  0  0  0  0  0
  183.6950  178.1100  138.8380 C   0  0  2  0  0  3  0  0  0  0  0  0
  182.2010  178.6500  140.8380 C   0  0  2  0  0  3  0  0  0  0  0  0
  185.1190  178.2630  138.3450 C   0  0  0  0  0  1  0  0  0  0  0  0
  181.4460  177.5870  140.1820 N   0  0  0  0  0  2  0  0  0  0  0  0
  180.6760  178.2100  139.1140 C   0  0  0  0  0  2  0  0  0  0  0  0
  1  9  2  6  0  0  0
  1 10  1  0  0  0  0
  1  5  1  0  0  0  0
  2  4  1  0  0  0  0
  3  7  1  0  0  0  0
  3  2  2  0  0  0  0
  4  8  2  0  0  0  0
  6  5  1  0  0  0  0
  6  8  1  0  0  0  0
  7  6  2  0  0  0  0
  8 13  1  0  0  0  0
 11  7  1  0  0  0  0
 11  1  1  0  0  0  0
 13 14  1  0  0  0  0
 13 12  1  1  0  0  0
 14 16  1  0  0  0  0
 14 15  1  1  0  0  0
 16 17  1  0  0  0  0
 18 19  1  0  0  0  0
 18 17  1  0  0  0  0
 19 20  1  0  0  0  0
 21 19  2  0  0  0  0
 22  2  1  0  0  0  0
 23 25  2  0  0  0  0
 23 27  1  0  0  0  0
 24 28  1  0  0  0  0
 24 26  1  0  0  0  0
 25 31  1  0  0  0  0
 26 22  1  0  0  0  0
 27 24  1  0  0  0  0
 28 26  1  0  0  0  0
 29 27  1  0  0  0  0
 30 28  1  0  0  0  0
 31 30  1  0  0  0  0
M  END
>  <MODEL>
4

>  <REMARK>
 VINA RESULT:      -8.1      4.355      8.202
  Name = 
  8 active torsions:
  status: ('A' for Active; 'I' for Inactive)
    1  A    between atoms: C_3  and  C_16
    2  A    between atoms: N_5  and  C_8
    3  A    between atoms: N_5  and  C_24
    4  A    between atoms: C_6  and  C_8
    5  A    between atoms: C_6  and  C_25
    6  A    between atoms: C_12  and  C_13
    7  A    between atoms: C_12  and  C_19
    8  A    between atoms: C_16  and  C_24
                            x       y       z     vdW  Elec       q    Type
                         _______ _______ _______ _____ _____    ______ ____

>  <TORSDO>
F 8

$$$$
=
 OpenBabel10222421443D

 31 34  0  0  1  0  0  0  0  0999 V2000
  188.0630  177.6630  147.3630 P   0  0  2  0  0  0  0  0  0  0  0  0
  185.0850  178.5490  143.6110 C   0  0  0  0  0  0  0  0  0  0  0  0
  185.1640  178.6820  145.0060 C   0  0  0  0  0  3  0  0  0  0  0  0
  186.1480  177.9720  142.8920 C   0  0  0  0  0  3  0  0  0  0  0  0
  188.4430  177.2830  145.7440 O   0  0  0  0  0  0  0  0  0  0  0  0
  187.3710  177.6720  144.9440 C   0  0  0  0  0  0  0  0  0  0  0  0
  186.3140  178.2420  145.6560 C   0  0  0  0  0  0  0  0  0  0  0  0
  187.3040  177.5260  143.5510 C   0  0  0  0  0  0  0  0  0  0  0  0
  189.0040  178.7010  147.9290 O   0  0  0  0  0  0  0  0  0  0  0  0
  187.9710  176.2840  148.3370 O   0  0  0  0  0  1  0  0  0  0  0  0
  186.5250  178.3180  147.0290 O   0  0  0  0  0  0  0  0  0  0  0  0
  188.9400  175.7880  143.3450 O   0  0  0  0  0  1  0  0  0  0  0  0
  188.4280  176.9370  142.7400 C   0  0  2  0  0  3  0  0  0  0  0  0
  189.5520  177.9300  142.4190 C   0  0  1  0  0  3  0  0  0  0  0  0
  190.7300  177.7410  143.3570 C   0  0  0  0  0  1  0  0  0  0  0  0
  189.9990  177.8150  141.0370 N   0  0  0  0  0  2  0  0  0  0  0  0
  188.8410  178.0290  140.1820 C   0  0  0  0  0  2  0  0  0  0  0  0
  189.0570  177.3450  138.8430 C   0  0  0  0  0  2  0  0  0  0  0  0
  188.9920  178.3430  137.7370 C   0  0  0  0  0  0  0  0  0  0  0  0
  188.9120  177.8780  136.3240 C   0  0  0  0  0  1  0  0  0  0  0  0
  188.9820  179.5380  137.9840 O   0  0  0  0  0  0  0  0  0  0  0  0
  183.8570  178.9880  142.8930 C   0  0  0  0  0  2  0  0  0  0  0  0
  183.1790  178.3160  138.0830 N   0  0  0  0  0  0  0  0  0  0  0  0
  183.5580  178.9570  140.4360 C   0  0  1  0  0  3  0  0  0  0  0  0
  181.8970  178.1430  138.0400 C   0  0  0  0  0  3  0  0  0  0  0  0
  183.6130  178.0990  141.6870 C   0  0  2  0  0  3  0  0  0  0  0  0
  184.0200  178.1180  139.2450 C   0  0  2  0  0  3  0  0  0  0  0  0
  182.2680  178.4360  141.0770 C   0  0  2  0  0  3  0  0  0  0  0  0
  185.4520  178.4710  138.8990 C   0  0  0  0  0  1  0  0  0  0  0  0
  181.7410  177.2800  140.3590 N   0  0  0  0  0  2  0  0  0  0  0  0
  181.0040  177.7920  139.2110 C   0  0  0  0  0  2  0  0  0  0  0  0
  1  9  2  1  0  0  0
  1 10  1  0  0  0  0
  2  3  1  0  0  0  0
  3  7  2  0  0  0  0
  4  8  1  0  0  0  0
  4  2  2  0  0  0  0
  5  1  1  0  0  0  0
  6  7  1  0  0  0  0
  6  5  1  0  0  0  0
  7 11  1  0  0  0  0
  8  6  2  0  0  0  0
 11  1  1  0  0  0  0
 13 12  1  1  0  0  0
 13  8  1  0  0  0  0
 14 13  1  0  0  0  0
 14 15  1  1  0  0  0
 16 14  1  0  0  0  0
 17 16  1  0  0  0  0
 18 17  1  0  0  0  0
 19 21  2  0  0  0  0
 19 18  1  0  0  0  0
 20 19  1  0  0  0  0
 22  2  1  0  0  0  0
 23 27  1  0  0  0  0
 24 28  1  0  0  0  0
 24 26  1  0  0  0  0
 25 23  2  0  0  0  0
 25 31  1  0  0  0  0
 26 22  1  0  0  0  0
 27 24  1  0  0  0  0
 28 26  1  0  0  0  0
 29 27  1  0  0  0  0
 30 28  1  0  0  0  0
 31 30  1  0  0  0  0
M  END
>  <MODEL>
5

>  <REMARK>
 VINA RESULT:      -8.0      4.358      7.189
  Name = 
  8 active torsions:
  status: ('A' for Active; 'I' for Inactive)
    1  A    between atoms: C_3  and  C_16
    2  A    between atoms: N_5  and  C_8
    3  A    between atoms: N_5  and  C_24
    4  A    between atoms: C_6  and  C_8
    5  A    between atoms: C_6  and  C_25
    6  A    between atoms: C_12  and  C_13
    7  A    between atoms: C_12  and  C_19
    8  A    between atoms: C_16  and  C_24
                            x       y       z     vdW  Elec       q    Type
                         _______ _______ _______ _____ _____    ______ ____

>  <TORSDO>
F 8

$$$$
=
 OpenBabel10222421443D

 31 34  0  0  1  0  0  0  0  0999 V2000
  185.0360  178.7640  139.5760 P   0  0  2  0  0  0  0  0  0  0  0  0
  189.3670  178.0520  141.6890 C   0  0  0  0  0  0  0  0  0  0  0  0
  188.0300  178.3510  141.9960 C   0  0  0  0  0  3  0  0  0  0  0  0
  189.7640  177.8730  140.3510 C   0  0  0  0  0  3  0  0  0  0  0  0
  186.4640  178.4150  138.7110 O   0  0  0  0  0  0  0  0  0  0  0  0
  187.5020  178.2740  139.6270 C   0  0  0  0  0  0  0  0  0  0  0  0
  187.1110  178.4550  140.9550 C   0  0  0  0  0  0  0  0  0  0  0  0
  188.8360  177.9820  139.3040 C   0  0  0  0  0  0  0  0  0  0  0  0
  184.0060  177.6700  139.4220 O   0  0  0  0  0  1  0  0  0  0  0  0
  184.4120  180.2880  139.1890 O   0  0  0  0  0  0  0  0  0  0  0  0
  185.7600  178.7390  141.1200 O   0  0  0  0  0  0  0  0  0  0  0  0
  188.8560  178.7790  137.0450 O   0  0  0  0  0  1  0  0  0  0  0  0
  189.2980  177.7590  137.8890 C   0  0  2  0  0  3  0  0  0  0  0  0
  188.9260  176.3830  137.3210 C   0  0  1  0  0  3  0  0  0  0  0  0
  188.4850  176.4940  135.8730 C   0  0  0  0  0  1  0  0  0  0  0  0
  190.0260  175.4350  137.4310 N   0  0  0  0  0  2  0  0  0  0  0  0
  191.2310  176.1050  136.9670 C   0  0  0  0  0  2  0  0  0  0  0  0
  192.3780  175.1110  136.8970 C   0  0  0  0  0  2  0  0  0  0  0  0
  193.4940  175.5470  137.7850 C   0  0  0  0  0  0  0  0  0  0  0  0
  194.6420  174.6320  138.0350 C   0  0  0  0  0  1  0  0  0  0  0  0
  193.4810  176.6580  138.2910 O   0  0  0  0  0  0  0  0  0  0  0  0
  190.3760  177.9600  142.7800 C   0  0  0  0  0  2  0  0  0  0  0  0
  188.1560  177.6410  147.1410 N   0  0  0  0  0  0  0  0  0  0  0  0
  189.2310  178.1100  144.9690 C   0  0  1  0  0  3  0  0  0  0  0  0
  189.1680  177.4040  147.9120 C   0  0  0  0  0  3  0  0  0  0  0  0
  189.8160  177.1580  143.9410 C   0  0  2  0  0  3  0  0  0  0  0  0
  188.1050  177.3950  145.7140 C   0  0  2  0  0  3  0  0  0  0  0  0
  190.6050  177.4720  145.1950 C   0  0  2  0  0  3  0  0  0  0  0  0
  186.7660  177.8500  145.1710 C   0  0  0  0  0  1  0  0  0  0  0  0
  190.5290  176.3510  146.1270 N   0  0  0  0  0  2  0  0  0  0  0  0
  190.5310  176.9130  147.4700 C   0  0  0  0  0  2  0  0  0  0  0  0
  1 10  2  6  0  0  0
  1 11  1  0  0  0  0
  2  3  1  0  0  0  0
  2 22  1  0  0  0  0
  4  2  2  0  0  0  0
  5  1  1  0  0  0  0
  5  6  1  0  0  0  0
  6  7  1  0  0  0  0
  7 11  1  0  0  0  0
  7  3  2  0  0  0  0
  8  6  2  0  0  0  0
  8  4  1  0  0  0  0
  9  1  1  0  0  0  0
 13 12  1  6  0  0  0
 13  8  1  0  0  0  0
 14 15  1  6  0  0  0
 14 16  1  0  0  0  0
 14 13  1  0  0  0  0
 17 16  1  0  0  0  0
 18 17  1  0  0  0  0
 18 19  1  0  0  0  0
 19 20  1  0  0  0  0
 19 21  2  0  0  0  0
 22 26  1  0  0  0  0
 23 25  2  0  0  0  0
 24 28  1  0  0  0  0
 24 27  1  0  0  0  0
 26 24  1  0  0  0  0
 26 28  1  0  0  0  0
 27 23  1  0  0  0  0
 28 30  1  0  0  0  0
 29 27  1  0  0  0  0
 30 31  1  0  0  0  0
 31 25  1  0  0  0  0
M  END
>  <MODEL>
6

>  <REMARK>
 VINA RESULT:      -7.6      1.266      2.218
  Name = 
  8 active torsions:
  status: ('A' for Active; 'I' for Inactive)
    1  A    between atoms: C_3  and  C_16
    2  A    between atoms: N_5  and  C_8
    3  A    between atoms: N_5  and  C_24
    4  A    between atoms: C_6  and  C_8
    5  A    between atoms: C_6  and  C_25
    6  A    between atoms: C_12  and  C_13
    7  A    between atoms: C_12  and  C_19
    8  A    between atoms: C_16  and  C_24
                            x       y       z     vdW  Elec       q    Type
                         _______ _______ _______ _____ _____    ______ ____

>  <TORSDO>
F 8

$$$$
=
 OpenBabel10222421443D

 31 34  0  0  1  0  0  0  0  0999 V2000
  188.5910  178.3070  137.8260 P   0  0  2  0  0  0  0  0  0  0  0  0
  188.7480  177.1630  142.5580 C   0  0  0  0  0  0  0  0  0  0  0  0
  189.4560  176.9810  141.3600 C   0  0  0  0  0  3  0  0  0  0  0  0
  187.5500  177.9000  142.5700 C   0  0  0  0  0  3  0  0  0  0  0  0
  187.4060  178.7880  138.9550 O   0  0  0  0  0  0  0  0  0  0  0  0
  187.7680  178.2880  140.2030 C   0  0  0  0  0  0  0  0  0  0  0  0
  188.9550  177.5530  140.1930 C   0  0  0  0  0  0  0  0  0  0  0  0
  187.0460  178.4720  141.3910 C   0  0  0  0  0  0  0  0  0  0  0  0
  189.3220  179.4940  137.2420 O   0  0  0  0  0  1  0  0  0  0  0  0
  187.9570  177.2940  136.6290 O   0  0  0  0  0  0  0  0  0  0  0  0
  189.5570  177.4560  138.9440 O   0  0  0  0  0  0  0  0  0  0  0  0
  185.3750  179.4890  142.7740 O   0  0  0  0  0  1  0  0  0  0  0  0
  185.7740  179.2740  141.4530 C   0  0  2  0  0  3  0  0  0  0  0  0
  184.6240  178.6850  140.6270 C   0  0  1  0  0  3  0  0  0  0  0  0
  183.4180  178.3940  141.5020 C   0  0  0  0  0  1  0  0  0  0  0  0
  184.2370  179.5630  139.5300 N   0  0  0  0  0  2  0  0  0  0  0  0
  183.4270  178.7830  138.6080 C   0  0  0  0  0  2  0  0  0  0  0  0
  184.2570  177.6530  138.0250 C   0  0  0  0  0  2  0  0  0  0  0  0
  183.4390  176.4090  137.9260 C   0  0  0  0  0  0  0  0  0  0  0  0
  183.2010  175.7830  136.5960 C   0  0  0  0  0  1  0  0  0  0  0  0
  182.9820  175.8900  138.9320 O   0  0  0  0  0  0  0  0  0  0  0  0
  189.2470  176.5410  143.8160 C   0  0  0  0  0  2  0  0  0  0  0  0
  188.9480  177.6640  148.5800 N   0  0  0  0  0  0  0  0  0  0  0  0
  189.1030  176.8000  146.2730 C   0  0  1  0  0  3  0  0  0  0  0  0
  187.7020  178.0010  148.6720 C   0  0  0  0  0  3  0  0  0  0  0  0
  189.1870  177.5440  144.9530 C   0  0  2  0  0  3  0  0  0  0  0  0
  189.7350  177.6630  147.3640 C   0  0  2  0  0  3  0  0  0  0  0  0
  187.8500  177.4290  145.6550 C   0  0  2  0  0  3  0  0  0  0  0  0
  191.1310  177.1580  147.6670 C   0  0  0  0  0  1  0  0  0  0  0  0
  187.5130  178.6950  146.2990 N   0  0  0  0  0  2  0  0  0  0  0  0
  186.7900  178.3710  147.5210 C   0  0  0  0  0  2  0  0  0  0  0  0
  1 10  2  6  0  0  0
  1 11  1  0  0  0  0
  1  5  1  0  0  0  0
  2  4  1  0  0  0  0
  2 22  1  0  0  0  0
  3  2  2  0  0  0  0
  5  6  1  0  0  0  0
  6  8  1  0  0  0  0
  7  6  2  0  0  0  0
  7  3  1  0  0  0  0
  8 13  1  0  0  0  0
  8  4  2  0  0  0  0
  9  1  1  0  0  0  0
 11  7  1  0  0  0  0
 13 12  1  1  0  0  0
 14 13  1  0  0  0  0
 14 15  1  1  0  0  0
 16 14  1  0  0  0  0
 17 16  1  0  0  0  0
 18 17  1  0  0  0  0
 19 18  1  0  0  0  0
 19 21  2  0  0  0  0
 20 19  1  0  0  0  0
 22 26  1  0  0  0  0
 23 25  2  0  0  0  0
 24 27  1  0  0  0  0
 26 28  1  0  0  0  0
 26 24  1  0  0  0  0
 27 29  1  0  0  0  0
 27 23  1  0  0  0  0
 28 24  1  0  0  0  0
 28 30  1  0  0  0  0
 30 31  1  0  0  0  0
 31 25  1  0  0  0  0
M  END
>  <MODEL>
7

>  <REMARK>
 VINA RESULT:      -7.5      2.976      5.447
  Name = 
  8 active torsions:
  status: ('A' for Active; 'I' for Inactive)
    1  A    between atoms: C_3  and  C_16
    2  A    between atoms: N_5  and  C_8
    3  A    between atoms: N_5  and  C_24
    4  A    between atoms: C_6  and  C_8
    5  A    between atoms: C_6  and  C_25
    6  A    between atoms: C_12  and  C_13
    7  A    between atoms: C_12  and  C_19
    8  A    between atoms: C_16  and  C_24
                            x       y       z     vdW  Elec       q    Type
                         _______ _______ _______ _____ _____    ______ ____

>  <TORSDO>
F 8

$$$$
=
 OpenBabel10222421443D

 31 34  0  0  1  0  0  0  0  0999 V2000
  184.9970  178.7580  139.4710 P   0  0  2  0  0  0  0  0  0  0  0  0
  189.6550  177.6060  138.6340 C   0  0  0  0  0  0  0  0  0  0  0  0
  188.4470  177.8510  137.9640 C   0  0  0  0  0  3  0  0  0  0  0  0
  189.7120  177.6630  140.0390 C   0  0  0  0  0  3  0  0  0  0  0  0
  186.1550  178.5430  140.7060 O   0  0  0  0  0  0  0  0  0  0  0  0
  187.3710  178.2240  140.1080 C   0  0  0  0  0  0  0  0  0  0  0  0
  187.3160  178.1620  138.7150 C   0  0  0  0  0  0  0  0  0  0  0  0
  188.5700  177.9730  140.7930 C   0  0  0  0  0  0  0  0  0  0  0  0
  184.4810  180.1770  139.4290 O   0  0  0  0  0  0  0  0  0  0  0  0
  183.7450  177.6240  139.5670 O   0  0  0  0  0  1  0  0  0  0  0  0
  186.0620  178.4330  138.1790 O   0  0  0  0  0  0  0  0  0  0  0  0
  189.8710  178.6660  142.6810 O   0  0  0  0  0  1  0  0  0  0  0  0
  188.6810  178.0490  142.2920 C   0  0  2  0  0  3  0  0  0  0  0  0
  188.5130  176.6980  142.9990 C   0  0  1  0  0  3  0  0  0  0  0  0
  189.7840  175.8730  142.9050 C   0  0  0  0  0  1  0  0  0  0  0  0
  188.1310  176.8600  144.3950 N   0  0  0  0  0  2  0  0  0  0  0  0
  186.7660  177.3610  144.4220 C   0  0  0  0  0  2  0  0  0  0  0  0
  186.5000  178.0600  145.7440 C   0  0  0  0  0  2  0  0  0  0  0  0
  185.1440  178.6820  145.7360 C   0  0  0  0  0  0  0  0  0  0  0  0
  184.5850  179.2200  144.4650 C   0  0  0  0  0  1  0  0  0  0  0  0
  184.4830  178.7330  146.7600 O   0  0  0  0  0  0  0  0  0  0  0  0
  190.8740  177.2460  137.8570 C   0  0  0  0  0  2  0  0  0  0  0  0
  192.9940  173.1090  136.2950 N   0  0  0  0  0  0  0  0  0  0  0  0
  192.0850  175.3350  136.8530 C   0  0  1  0  0  3  0  0  0  0  0  0
  192.0030  172.5440  135.6840 C   0  0  0  0  0  3  0  0  0  0  0  0
  191.1370  175.7550  137.9620 C   0  0  2  0  0  3  0  0  0  0  0  0
  192.8850  174.1220  137.3250 C   0  0  2  0  0  3  0  0  0  0  0  0
  190.5820  175.0580  136.7370 C   0  0  2  0  0  3  0  0  0  0  0  0
  194.2710  174.5610  137.7500 C   0  0  0  0  0  1  0  0  0  0  0  0
  190.2670  173.6690  137.0520 N   0  0  0  0  0  2  0  0  0  0  0  0
  190.5380  172.8890  135.8510 C   0  0  0  0  0  2  0  0  0  0  0  0
  1  9  2  6  0  0  0
  1 10  1  0  0  0  0
  1  5  1  0  0  0  0
  2  4  1  0  0  0  0
  3  2  2  0  0  0  0
  3  7  1  0  0  0  0
  4  8  2  0  0  0  0
  6  5  1  0  0  0  0
  6  8  1  0  0  0  0
  7  6  2  0  0  0  0
  8 13  1  0  0  0  0
 11  7  1  0  0  0  0
 11  1  1  0  0  0  0
 13 12  1  6  0  0  0
 13 14  1  0  0  0  0
 14 15  1  1  0  0  0
 14 16  1  0  0  0  0
 16 17  1  0  0  0  0
 17 18  1  0  0  0  0
 19 18  1  0  0  0  0
 19 21  2  0  0  0  0
 20 19  1  0  0  0  0
 22 26  1  0  0  0  0
 22  2  1  0  0  0  0
 23 27  1  0  0  0  0
 24 27  1  0  0  0  0
 24 26  1  0  0  0  0
 25 31  1  0  0  0  0
 25 23  2  0  0  0  0
 27 29  1  0  0  0  0
 28 24  1  0  0  0  0
 28 30  1  0  0  0  0
 28 26  1  0  0  0  0
 31 30  1  0  0  0  0
M  END
>  <MODEL>
8

>  <REMARK>
 VINA RESULT:      -7.5      2.443      7.456
  Name = 
  8 active torsions:
  status: ('A' for Active; 'I' for Inactive)
    1  A    between atoms: C_3  and  C_16
    2  A    between atoms: N_5  and  C_8
    3  A    between atoms: N_5  and  C_24
    4  A    between atoms: C_6  and  C_8
    5  A    between atoms: C_6  and  C_25
    6  A    between atoms: C_12  and  C_13
    7  A    between atoms: C_12  and  C_19
    8  A    between atoms: C_16  and  C_24
                            x       y       z     vdW  Elec       q    Type
                         _______ _______ _______ _____ _____    ______ ____

>  <TORSDO>
F 8

$$$$
=
 OpenBabel10222421443D

 31 34  0  0  1  0  0  0  0  0999 V2000
  191.2330  175.0280  137.1540 P   0  0  2  0  0  0  0  0  0  0  0  0
  189.3380  177.9400  140.5690 C   0  0  0  0  0  0  0  0  0  0  0  0
  190.2630  176.8970  140.4050 C   0  0  0  0  0  3  0  0  0  0  0  0
  188.6140  178.4270  139.4660 C   0  0  0  0  0  3  0  0  0  0  0  0
  190.0460  176.2120  136.8360 O   0  0  0  0  0  0  0  0  0  0  0  0
  189.7400  176.8510  138.0340 C   0  0  0  0  0  0  0  0  0  0  0  0
  190.4540  176.3670  139.1310 C   0  0  0  0  0  0  0  0  0  0  0  0
  188.8070  177.8880  138.1840 C   0  0  0  0  0  0  0  0  0  0  0  0
  192.5310  175.3310  136.4430 O   0  0  0  0  0  0  0  0  0  0  0  0
  190.6760  173.4640  136.8310 O   0  0  0  0  0  1  0  0  0  0  0  0
  191.3400  175.3390  138.8280 O   0  0  0  0  0  0  0  0  0  0  0  0
  188.1660  179.8440  136.9580 O   0  0  0  0  0  1  0  0  0  0  0  0
  188.0290  178.4560  137.0270 C   0  0  2  0  0  3  0  0  0  0  0  0
  186.5490  178.0540  137.0120 C   0  0  1  0  0  3  0  0  0  0  0  0
  186.3640  176.6420  137.5370 C   0  0  0  0  0  1  0  0  0  0  0  0
  185.7280  178.9790  137.7830 N   0  0  0  0  0  2  0  0  0  0  0  0
  185.0870  178.2170  138.8430 C   0  0  0  0  0  2  0  0  0  0  0  0
  184.7460  179.1370  140.0030 C   0  0  0  0  0  2  0  0  0  0  0  0
  184.4060  178.3360  141.2140 C   0  0  0  0  0  0  0  0  0  0  0  0
  185.3660  178.2690  142.3510 C   0  0  0  0  0  1  0  0  0  0  0  0
  183.3360  177.7530  141.2880 O   0  0  0  0  0  0  0  0  0  0  0  0
  189.0950  178.5080  141.9240 C   0  0  0  0  0  2  0  0  0  0  0  0
  189.3570  177.0230  146.5900 N   0  0  0  0  0  0  0  0  0  0  0  0
  189.1770  178.0580  144.3560 C   0  0  1  0  0  3  0  0  0  0  0  0
  190.6330  176.8450  146.7170 C   0  0  0  0  0  3  0  0  0  0  0  0
  189.2450  177.4260  142.9770 C   0  0  2  0  0  3  0  0  0  0  0  0
  188.6250  177.0270  145.3400 C   0  0  2  0  0  3  0  0  0  0  0  0
  190.5260  177.6530  143.7530 C   0  0  2  0  0  3  0  0  0  0  0  0
  187.1630  177.3170  145.6130 C   0  0  0  0  0  1  0  0  0  0  0  0
  191.0050  176.3910  144.3080 N   0  0  0  0  0  2  0  0  0  0  0  0
  191.6300  176.6980  145.5870 C   0  0  0  0  0  2  0  0  0  0  0  0
  1  9  2  6  0  0  0
  1 11  1  0  0  0  0
  2 22  1  0  0  0  0
  3  2  1  0  0  0  0
  4  2  2  0  0  0  0
  5  1  1  0  0  0  0
  5  6  1  0  0  0  0
  6  8  2  0  0  0  0
  6  7  1  0  0  0  0
  7  3  2  0  0  0  0
  8  4  1  0  0  0  0
 10  1  1  0  0  0  0
 11  7  1  0  0  0  0
 13 12  1  1  0  0  0
 13  8  1  0  0  0  0
 14 13  1  0  0  0  0
 14 15  1  1  0  0  0
 14 16  1  0  0  0  0
 16 17  1  0  0  0  0
 17 18  1  0  0  0  0
 18 19  1  0  0  0  0
 19 21  2  0  0  0  0
 19 20  1  0  0  0  0
 22 26  1  0  0  0  0
 23 25  2  0  0  0  0
 24 27  1  0  0  0  0
 26 28  1  0  0  0  0
 26 24  1  0  0  0  0
 27 29  1  0  0  0  0
 27 23  1  0  0  0  0
 28 30  1  0  0  0  0
 28 24  1  0  0  0  0
 30 31  1  0  0  0  0
 31 25  1  0  0  0  0
M  END
>  <MODEL>
9

>  <REMARK>
 VINA RESULT:      -7.5      2.579      5.880
  Name = 
  8 active torsions:
  status: ('A' for Active; 'I' for Inactive)
    1  A    between atoms: C_3  and  C_16
    2  A    between atoms: N_5  and  C_8
    3  A    between atoms: N_5  and  C_24
    4  A    between atoms: C_6  and  C_8
    5  A    between atoms: C_6  and  C_25
    6  A    between atoms: C_12  and  C_13
    7  A    between atoms: C_12  and  C_19
    8  A    between atoms: C_16  and  C_24
                            x       y       z     vdW  Elec       q    Type
                         _______ _______ _______ _____ _____    ______ ____

>  <TORSDO>
F 8

$$$$
