=
 OpenBabel10222422003D

 44 48  0  0  1  0  0  0  0  0999 V2000
  186.3360  177.6370  137.6200 C   0  0  2  0  0  3  0  0  0  0  0  0
  184.9710  177.1580  137.6350 N   0  0  0  0  0  2  0  0  0  0  0  0
  186.5780  178.6410  139.6420 N   0  0  0  0  0  2  0  0  0  0  0  0
  183.9660  178.0330  139.6090 C   0  0  0  0  0  0  0  0  0  0  0  0
  185.8730  178.7620  140.8690 C   0  0  0  0  0  3  0  0  0  0  0  0
  184.5740  178.5310  140.9020 C   0  0  0  0  0  0  0  0  0  0  0  0
  182.4730  178.2600  139.4820 C   0  0  0  0  0  2  0  0  0  0  0  0
  183.0160  176.8470  139.6290 C   0  0  0  0  0  2  0  0  0  0  0  0
  184.6310  178.3430  138.3220 N   0  0  1  0  0  0  0  0  0  0  0  0
  185.9790  178.8150  138.3770 N   0  0  2  0  0  0  0  0  0  0  0  0
  182.4550  178.8380  142.2510 C   0  0  0  0  0  3  0  0  0  0  0  0
  180.4110  179.1180  143.5010 O   0  0  0  0  0  1  0  0  0  0  0  0
  182.5090  178.9080  144.6680 C   0  0  0  0  0  3  0  0  0  0  0  0
  183.8490  178.6720  142.2010 C   0  0  0  0  0  0  0  0  0  0  0  0
  181.7890  178.9560  143.4740 C   0  0  0  0  0  0  0  0  0  0  0  0
  183.8970  178.7430  144.6400 C   0  0  0  0  0  0  0  0  0  0  0  0
  184.5590  178.6170  143.4150 C   0  0  0  0  0  3  0  0  0  0  0  0
  184.6630  178.6510  145.9130 C   0  0  0  0  0  2  0  0  0  0  0  0
  186.1510  178.7510  145.6260 C   0  0  0  0  0  2  0  0  0  0  0  0
  187.1860  178.0520  147.5710 C   0  0  0  0  0  1  0  0  0  0  0  0
  186.8500  177.6200  146.2220 N   0  0  0  0  0  0  0  0  0  0  0  0
  188.1090  177.3860  145.4930 C   0  0  1  0  0  3  0  0  0  0  0  0
  187.8610  177.3270  144.0070 C   0  0  0  0  0  3  0  0  0  0  0  0
  188.0290  176.2010  143.3150 C   0  0  0  0  0  2  0  0  0  0  0  0
  189.0410  178.4130  145.7650 O   0  0  0  0  0  0  0  0  0  0  0  0
  190.3330  177.8580  145.9460 C   0  0  2  0  0  3  0  0  0  0  0  0
  191.1270  177.7300  144.6440 C   0  0  0  0  0  2  0  0  0  0  0  0
  191.2170  179.0780  143.9540 C   0  0  0  0  0  1  0  0  0  0  0  0
  190.3220  176.5600  146.7530 C   0  0  0  0  0  2  0  0  0  0  0  0
  191.6250  176.3980  147.5130 C   0  0  0  0  0  2  0  0  0  0  0  0
  192.4040  175.4230  146.8930 O   0  0  0  0  0  1  0  0  0  0  0  0
  186.7290  178.0380  136.2050 C   0  0  0  0  0  2  0  0  0  0  0  0
  187.5020  177.0090  135.5960 O   0  0  0  0  0  0  0  0  0  0  0  0
  189.8680  174.4630  136.8520 C   0  0  0  0  0  3  0  0  0  0  0  0
  188.6340  176.4470  136.1980 C   0  0  0  0  0  0  0  0  0  0  0  0
  190.7850  176.6530  137.3050 C   0  0  0  0  0  3  0  0  0  0  0  0
  190.8950  175.2570  137.3730 C   0  0  0  0  0  0  0  0  0  0  0  0
  189.6620  177.2460  136.7210 C   0  0  0  0  0  3  0  0  0  0  0  0
  188.7430  175.0540  136.2680 C   0  0  0  0  0  3  0  0  0  0  0  0
  194.1250  173.5960  137.9120 O   0  0  0  0  0  0  0  0  0  0  0  0
  192.0380  174.6130  137.9520 N   0  0  0  0  0  2  0  0  0  0  0  0
  193.2200  174.1880  137.2640 C   0  0  0  0  0  0  0  0  0  0  0  0
  193.3750  174.4200  135.8950 O   0  0  0  0  0  0  0  0  0  0  0  0
  194.0150  173.4850  135.0410 C   0  0  0  0  0  1  0  0  0  0  0  0
  1 32  1  6  0  0  0
  1  2  1  0  0  0  0
  1 10  1  0  0  0  0
  3  5  1  0  0  0  0
  4  8  1  0  0  0  0
  4  6  1  0  0  0  0
  5  6  2  0  0  0  0
  6 14  1  0  0  0  0
  7  4  1  0  0  0  0
  7  8  1  0  0  0  0
  9  2  1  6  0  0  0
  9 10  1  0  0  0  0
  9  4  1  0  0  0  0
 10  3  1  1  0  0  0
 11 15  1  0  0  0  0
 14 11  2  0  0  0  0
 14 17  1  0  0  0  0
 15 12  1  0  0  0  0
 15 13  2  0  0  0  0
 16 13  1  0  0  0  0
 16 18  1  0  0  0  0
 17 16  2  0  0  0  0
 19 18  1  0  0  0  0
 19 21  1  0  0  0  0
 21 20  1  0  0  0  0
 22 23  1  6  0  0  0
 22 25  1  0  0  0  0
 22 21  1  0  0  0  0
 24 23  2  0  0  0  0
 25 26  1  0  0  0  0
 26 27  1  6  0  0  0
 26 29  1  0  0  0  0
 28 27  1  0  0  0  0
 29 30  1  0  0  0  0
 31 30  1  0  0  0  0
 33 35  1  0  0  0  0
 33 32  1  0  0  0  0
 34 37  1  0  0  0  0
 35 39  1  0  0  0  0
 35 38  2  0  0  0  0
 36 37  2  0  0  0  0
 37 41  1  0  0  0  0
 38 36  1  0  0  0  0
 39 34  2  0  0  0  0
 42 40  2  0  0  0  0
 42 41  1  0  0  0  0
 43 42  1  0  0  0  0
 44 43  1  0  0  0  0
M  END
>  <MODEL>
1

>  <REMARK>
 VINA RESULT:      -8.3      0.000      0.000
  Name = 
  16 active torsions:
  status: ('A' for Active; 'I' for Inactive)
    1  A    between atoms: C_1  and  C_40
    2  A    between atoms: O_3  and  C_24
    3  A    between atoms: C_7  and  C_41
    4  A    between atoms: O_8  and  C_13
    5  A    between atoms: O_8  and  C_28
    6  A    between atoms: C_9  and  O_17
    7  A    between atoms: C_13  and  C_14
    8  A    between atoms: C_13  and  C_41
    9  A    between atoms: C_16  and  C_28
   10  A    between atoms: O_17  and  C_40
   11  A    between atoms: C_18  and  N_26
   12  A    between atoms: C_18  and  C_42
   13  A    between atoms: N_19  and  C_20
   14  A    between atoms: N_26  and  C_28
   15  A    between atoms: C_29  and  C_33
   16  A    between atoms: C_37  and  C_42
                            x       y       z     vdW  Elec       q    Type
                         _______ _______ _______ _____ _____    ______ ____

>  <TORSDO>
F 16

$$$$
=
 OpenBabel10222422003D

 44 48  0  0  1  0  0  0  0  0999 V2000
  186.3240  177.4710  137.3430 C   0  0  2  0  0  3  0  0  0  0  0  0
  184.9690  176.9660  137.3830 N   0  0  0  0  0  2  0  0  0  0  0  0
  186.5450  178.5780  139.3130 N   0  0  0  0  0  2  0  0  0  0  0  0
  183.9450  177.9160  139.3120 C   0  0  0  0  0  0  0  0  0  0  0  0
  185.8370  178.7450  140.5330 C   0  0  0  0  0  3  0  0  0  0  0  0
  184.5430  178.4890  140.5780 C   0  0  0  0  0  0  0  0  0  0  0  0
  182.4480  178.1070  139.1740 C   0  0  0  0  0  2  0  0  0  0  0  0
  183.0190  176.7130  139.3900 C   0  0  0  0  0  2  0  0  0  0  0  0
  184.6050  178.1760  138.0100 N   0  0  1  0  0  0  0  0  0  0  0  0
  185.9420  178.6780  138.0410 N   0  0  2  0  0  0  0  0  0  0  0  0
  182.4190  178.8360  141.9100 C   0  0  0  0  0  3  0  0  0  0  0  0
  180.3710  179.1520  143.1440 O   0  0  0  0  0  1  0  0  0  0  0  0
  182.4690  179.0070  144.3220 C   0  0  0  0  0  3  0  0  0  0  0  0
  183.8140  178.6790  141.8690 C   0  0  0  0  0  0  0  0  0  0  0  0
  181.7510  179.0010  143.1270 C   0  0  0  0  0  0  0  0  0  0  0  0
  183.8580  178.8530  144.3030 C   0  0  0  0  0  0  0  0  0  0  0  0
  184.5230  178.6800  143.0850 C   0  0  0  0  0  3  0  0  0  0  0  0
  184.6220  178.8200  145.5800 C   0  0  0  0  0  2  0  0  0  0  0  0
  186.0380  178.3360  145.3190 C   0  0  0  0  0  2  0  0  0  0  0  0
  186.0160  178.3930  147.6300 C   0  0  0  0  0  1  0  0  0  0  0  0
  186.5550  177.6530  146.4970 N   0  0  0  0  0  0  0  0  0  0  0  0
  188.0230  177.7800  146.5290 C   0  0  1  0  0  3  0  0  0  0  0  0
  188.5540  177.4750  147.9070 C   0  0  0  0  0  3  0  0  0  0  0  0
  189.4240  178.2800  148.5140 C   0  0  0  0  0  2  0  0  0  0  0  0
  188.6210  176.8990  145.5990 O   0  0  0  0  0  0  0  0  0  0  0  0
  189.3810  177.6360  144.6560 C   0  0  2  0  0  3  0  0  0  0  0  0
  189.3210  177.0580  143.2420 C   0  0  0  0  0  2  0  0  0  0  0  0
  187.9010  176.6460  142.9050 C   0  0  0  0  0  1  0  0  0  0  0  0
  190.8130  177.9060  145.1170 C   0  0  0  0  0  2  0  0  0  0  0  0
  191.5490  176.6000  145.3490 C   0  0  0  0  0  2  0  0  0  0  0  0
  191.7400  176.4140  146.7160 O   0  0  0  0  0  1  0  0  0  0  0  0
  186.7090  177.8100  135.9090 C   0  0  0  0  0  2  0  0  0  0  0  0
  188.0720  178.2180  135.8460 O   0  0  0  0  0  0  0  0  0  0  0  0
  190.7680  176.9060  138.0060 C   0  0  0  0  0  3  0  0  0  0  0  0
  189.1300  177.4180  136.2900 C   0  0  0  0  0  0  0  0  0  0  0  0
  190.6560  175.5500  136.0070 C   0  0  0  0  0  3  0  0  0  0  0  0
  191.2430  175.8290  137.2500 C   0  0  0  0  0  0  0  0  0  0  0  0
  189.6060  176.3380  135.5290 C   0  0  0  0  0  3  0  0  0  0  0  0
  189.7170  177.6960  137.5290 C   0  0  0  0  0  3  0  0  0  0  0  0
  194.5370  174.4880  138.1640 O   0  0  0  0  0  0  0  0  0  0  0  0
  192.3130  175.0340  137.7790 N   0  0  0  0  0  2  0  0  0  0  0  0
  193.7150  175.3110  137.6780 C   0  0  0  0  0  0  0  0  0  0  0  0
  194.1720  176.4740  137.0520 O   0  0  0  0  0  0  0  0  0  0  0  0
  194.4850  176.5090  135.6680 C   0  0  0  0  0  1  0  0  0  0  0  0
  1 32  1  6  0  0  0
  1  2  1  0  0  0  0
  1 10  1  0  0  0  0
  3  5  1  0  0  0  0
  4  8  1  0  0  0  0
  4  6  1  0  0  0  0
  5  6  2  0  0  0  0
  6 14  1  0  0  0  0
  7  4  1  0  0  0  0
  7  8  1  0  0  0  0
  9  2  1  6  0  0  0
  9 10  1  0  0  0  0
  9  4  1  0  0  0  0
 10  3  1  1  0  0  0
 11 15  1  0  0  0  0
 14 11  2  0  0  0  0
 14 17  1  0  0  0  0
 15 12  1  0  0  0  0
 15 13  2  0  0  0  0
 16 13  1  0  0  0  0
 16 18  1  0  0  0  0
 17 16  2  0  0  0  0
 19 18  1  0  0  0  0
 19 21  1  0  0  0  0
 21 22  1  0  0  0  0
 21 20  1  0  0  0  0
 22 23  1  1  0  0  0
 23 24  2  0  0  0  0
 25 22  1  0  0  0  0
 26 27  1  6  0  0  0
 26 29  1  0  0  0  0
 26 25  1  0  0  0  0
 28 27  1  0  0  0  0
 29 30  1  0  0  0  0
 30 31  1  0  0  0  0
 33 32  1  0  0  0  0
 33 35  1  0  0  0  0
 35 39  2  0  0  0  0
 36 37  1  0  0  0  0
 37 41  1  0  0  0  0
 37 34  2  0  0  0  0
 38 36  2  0  0  0  0
 38 35  1  0  0  0  0
 39 34  1  0  0  0  0
 42 41  1  0  0  0  0
 42 40  2  0  0  0  0
 43 42  1  0  0  0  0
 44 43  1  0  0  0  0
M  END
>  <MODEL>
2

>  <REMARK>
 VINA RESULT:      -8.2      1.095      1.780
  Name = 
  16 active torsions:
  status: ('A' for Active; 'I' for Inactive)
    1  A    between atoms: C_1  and  C_40
    2  A    between atoms: O_3  and  C_24
    3  A    between atoms: C_7  and  C_41
    4  A    between atoms: O_8  and  C_13
    5  A    between atoms: O_8  and  C_28
    6  A    between atoms: C_9  and  O_17
    7  A    between atoms: C_13  and  C_14
    8  A    between atoms: C_13  and  C_41
    9  A    between atoms: C_16  and  C_28
   10  A    between atoms: O_17  and  C_40
   11  A    between atoms: C_18  and  N_26
   12  A    between atoms: C_18  and  C_42
   13  A    between atoms: N_19  and  C_20
   14  A    between atoms: N_26  and  C_28
   15  A    between atoms: C_29  and  C_33
   16  A    between atoms: C_37  and  C_42
                            x       y       z     vdW  Elec       q    Type
                         _______ _______ _______ _____ _____    ______ ____

>  <TORSDO>
F 16

$$$$
=
 OpenBabel10222422003D

 44 48  0  0  1  0  0  0  0  0999 V2000
  185.3030  177.0140  136.9160 C   0  0  2  0  0  3  0  0  0  0  0  0
  184.1210  176.2720  137.2980 N   0  0  0  0  0  2  0  0  0  0  0  0
  185.5900  178.4860  138.6210 N   0  0  0  0  0  2  0  0  0  0  0  0
  183.2400  177.3450  139.2330 C   0  0  0  0  0  0  0  0  0  0  0  0
  185.0730  178.7350  139.9190 C   0  0  0  0  0  3  0  0  0  0  0  0
  183.8940  178.2470  140.2580 C   0  0  0  0  0  0  0  0  0  0  0  0
  181.7370  177.2150  139.3700 C   0  0  0  0  0  2  0  0  0  0  0  0
  182.6330  176.0220  139.6680 C   0  0  0  0  0  2  0  0  0  0  0  0
  183.6030  177.4840  137.8020 N   0  0  1  0  0  0  0  0  0  0  0  0
  184.7810  178.2310  137.4940 N   0  0  2  0  0  0  0  0  0  0  0  0
  182.0000  178.7870  141.8480 C   0  0  0  0  0  3  0  0  0  0  0  0
  180.1660  179.2880  143.3320 O   0  0  0  0  0  1  0  0  0  0  0  0
  182.3900  179.0240  144.2230 C   0  0  0  0  0  3  0  0  0  0  0  0
  183.3620  178.5270  141.6260 C   0  0  0  0  0  0  0  0  0  0  0  0
  181.5160  179.0350  143.1360 C   0  0  0  0  0  0  0  0  0  0  0  0
  183.7490  178.7670  144.0240 C   0  0  0  0  0  0  0  0  0  0  0  0
  184.2290  178.5110  142.7360 C   0  0  0  0  0  3  0  0  0  0  0  0
  184.6760  178.7150  145.1870 C   0  0  0  0  0  2  0  0  0  0  0  0
  185.8620  177.8230  144.8620 C   0  0  0  0  0  2  0  0  0  0  0  0
  186.2650  178.6650  146.9760 C   0  0  0  0  0  1  0  0  0  0  0  0
  186.6680  177.6100  146.0560 N   0  0  0  0  0  0  0  0  0  0  0  0
  188.0890  177.8120  145.7270 C   0  0  1  0  0  3  0  0  0  0  0  0
  188.9320  177.8020  146.9770 C   0  0  0  0  0  3  0  0  0  0  0  0
  189.4080  176.6680  147.4890 C   0  0  0  0  0  2  0  0  0  0  0  0
  188.5480  176.8000  144.8520 O   0  0  0  0  0  0  0  0  0  0  0  0
  189.2830  177.3790  143.7870 C   0  0  2  0  0  3  0  0  0  0  0  0
  188.6980  177.0720  142.4080 C   0  0  0  0  0  2  0  0  0  0  0  0
  188.3760  178.3620  141.6780 C   0  0  0  0  0  1  0  0  0  0  0  0
  190.7820  177.0890  143.8630 C   0  0  0  0  0  2  0  0  0  0  0  0
  191.5770  178.3720  143.7180 C   0  0  0  0  0  2  0  0  0  0  0  0
  190.7830  179.4540  144.0930 O   0  0  0  0  0  1  0  0  0  0  0  0
  185.3630  177.1500  135.4010 C   0  0  0  0  0  2  0  0  0  0  0  0
  186.3120  176.2370  134.8590 O   0  0  0  0  0  0  0  0  0  0  0  0
  189.7650  177.2990  135.6350 C   0  0  0  0  0  3  0  0  0  0  0  0
  187.6420  176.1760  135.2870 C   0  0  0  0  0  0  0  0  0  0  0  0
  189.5230  174.9700  136.2380 C   0  0  0  0  0  3  0  0  0  0  0  0
  190.3170  176.1230  136.1550 C   0  0  0  0  0  0  0  0  0  0  0  0
  188.1940  174.9950  135.8070 C   0  0  0  0  0  3  0  0  0  0  0  0
  188.4350  177.3250  135.2020 C   0  0  0  0  0  3  0  0  0  0  0  0
  193.3960  176.5470  138.1100 O   0  0  0  0  0  0  0  0  0  0  0  0
  191.6810  176.1400  136.6000 N   0  0  0  0  0  2  0  0  0  0  0  0
  192.1550  176.5530  137.8870 C   0  0  0  0  0  0  0  0  0  0  0  0
  191.2640  176.9580  138.8830 O   0  0  0  0  0  0  0  0  0  0  0  0
  191.7010  177.3040  140.1880 C   0  0  0  0  0  1  0  0  0  0  0  0
  1 32  1  6  0  0  0
  1  2  1  0  0  0  0
  1 10  1  0  0  0  0
  3  5  1  0  0  0  0
  4  7  1  0  0  0  0
  4  8  1  0  0  0  0
  4  6  1  0  0  0  0
  5  6  2  0  0  0  0
  6 14  1  0  0  0  0
  7  8  1  0  0  0  0
  9  2  1  1  0  0  0
  9  4  1  0  0  0  0
 10  9  1  0  0  0  0
 10  3  1  1  0  0  0
 11 15  1  0  0  0  0
 14 11  2  0  0  0  0
 14 17  1  0  0  0  0
 15 12  1  0  0  0  0
 15 13  2  0  0  0  0
 16 13  1  0  0  0  0
 16 18  1  0  0  0  0
 17 16  2  0  0  0  0
 19 18  1  0  0  0  0
 19 21  1  0  0  0  0
 21 20  1  0  0  0  0
 22 21  1  0  0  0  0
 22 23  1  1  0  0  0
 23 24  2  0  0  0  0
 25 22  1  0  0  0  0
 26 27  1  6  0  0  0
 26 29  1  0  0  0  0
 26 25  1  0  0  0  0
 28 27  1  0  0  0  0
 30 29  1  0  0  0  0
 30 31  1  0  0  0  0
 33 35  1  0  0  0  0
 33 32  1  0  0  0  0
 34 37  1  0  0  0  0
 35 38  2  0  0  0  0
 37 36  2  0  0  0  0
 37 41  1  0  0  0  0
 38 36  1  0  0  0  0
 39 35  1  0  0  0  0
 39 34  2  0  0  0  0
 41 42  1  0  0  0  0
 42 40  2  0  0  0  0
 42 43  1  0  0  0  0
 43 44  1  0  0  0  0
M  END
>  <MODEL>
3

>  <REMARK>
 VINA RESULT:      -8.2      1.672      2.468
  Name = 
  16 active torsions:
  status: ('A' for Active; 'I' for Inactive)
    1  A    between atoms: C_1  and  C_40
    2  A    between atoms: O_3  and  C_24
    3  A    between atoms: C_7  and  C_41
    4  A    between atoms: O_8  and  C_13
    5  A    between atoms: O_8  and  C_28
    6  A    between atoms: C_9  and  O_17
    7  A    between atoms: C_13  and  C_14
    8  A    between atoms: C_13  and  C_41
    9  A    between atoms: C_16  and  C_28
   10  A    between atoms: O_17  and  C_40
   11  A    between atoms: C_18  and  N_26
   12  A    between atoms: C_18  and  C_42
   13  A    between atoms: N_19  and  C_20
   14  A    between atoms: N_26  and  C_28
   15  A    between atoms: C_29  and  C_33
   16  A    between atoms: C_37  and  C_42
                            x       y       z     vdW  Elec       q    Type
                         _______ _______ _______ _____ _____    ______ ____

>  <TORSDO>
F 16

$$$$
=
 OpenBabel10222422003D

 44 48  0  0  1  0  0  0  0  0999 V2000
  188.4600  178.7350  137.3380 C   0  0  2  0  0  3  0  0  0  0  0  0
  189.0680  178.7900  138.6490 N   0  0  0  0  0  2  0  0  0  0  0  0
  186.2400  178.5540  137.7790 N   0  0  0  0  0  2  0  0  0  0  0  0
  187.3320  178.3610  140.2220 C   0  0  0  0  0  0  0  0  0  0  0  0
  185.3580  178.6470  138.8870 C   0  0  0  0  0  3  0  0  0  0  0  0
  185.8290  178.5030  140.1120 C   0  0  0  0  0  0  0  0  0  0  0  0
  187.8150  177.6960  141.4950 C   0  0  0  0  0  2  0  0  0  0  0  0
  188.0930  179.1730  141.2570 C   0  0  0  0  0  2  0  0  0  0  0  0
  188.1030  177.8480  139.0650 N   0  0  1  0  0  0  0  0  0  0  0  0
  187.4430  177.8170  137.7980 N   0  0  2  0  0  0  0  0  0  0  0  0
  183.4940  178.6810  141.0730 C   0  0  0  0  0  3  0  0  0  0  0  0
  181.2530  178.8360  141.9500 O   0  0  0  0  0  1  0  0  0  0  0  0
  183.1270  178.7400  143.4630 C   0  0  0  0  0  3  0  0  0  0  0  0
  184.8830  178.5950  141.2650 C   0  0  0  0  0  0  0  0  0  0  0  0
  182.6220  178.7540  142.1630 C   0  0  0  0  0  0  0  0  0  0  0  0
  184.5050  178.6560  143.6760 C   0  0  0  0  0  0  0  0  0  0  0  0
  185.3750  178.5750  142.5840 C   0  0  0  0  0  3  0  0  0  0  0  0
  185.0440  178.6020  145.0620 C   0  0  0  0  0  2  0  0  0  0  0  0
  186.3700  177.8610  145.0700 C   0  0  0  0  0  2  0  0  0  0  0  0
  186.0630  178.5200  147.2640 C   0  0  0  0  0  1  0  0  0  0  0  0
  186.7520  177.5390  146.4380 N   0  0  0  0  0  0  0  0  0  0  0  0
  188.2020  177.7460  146.6020 C   0  0  1  0  0  3  0  0  0  0  0  0
  188.6150  177.5170  148.0340 C   0  0  0  0  0  3  0  0  0  0  0  0
  189.2380  178.4590  148.7400 C   0  0  0  0  0  2  0  0  0  0  0  0
  188.9290  176.8680  145.7650 O   0  0  0  0  0  0  0  0  0  0  0  0
  190.1660  177.4580  145.4050 C   0  0  2  0  0  3  0  0  0  0  0  0
  190.0290  178.5640  144.3570 C   0  0  0  0  0  2  0  0  0  0  0  0
  191.3910  179.1510  144.0370 C   0  0  0  0  0  1  0  0  0  0  0  0
  191.2370  176.4320  145.0360 C   0  0  0  0  0  2  0  0  0  0  0  0
  191.9470  175.9360  146.2810 C   0  0  0  0  0  2  0  0  0  0  0  0
  191.9590  176.9470  147.2400 O   0  0  0  0  0  1  0  0  0  0  0  0
  189.3900  178.0220  136.3650 C   0  0  0  0  0  2  0  0  0  0  0  0
  189.5390  176.6540  136.7350 O   0  0  0  0  0  0  0  0  0  0  0  0
  192.9170  175.9870  138.0760 C   0  0  0  0  0  3  0  0  0  0  0  0
  190.7850  176.0450  136.9190 C   0  0  0  0  0  0  0  0  0  0  0  0
  192.4080  174.3130  136.4070 C   0  0  0  0  0  3  0  0  0  0  0  0
  193.2940  174.8500  137.3530 C   0  0  0  0  0  0  0  0  0  0  0  0
  191.1610  174.9050  136.1910 C   0  0  0  0  0  3  0  0  0  0  0  0
  191.6690  176.5810  137.8600 C   0  0  0  0  0  3  0  0  0  0  0  0
  196.8620  173.9840  137.3170 O   0  0  0  0  0  0  0  0  0  0  0  0
  194.5760  174.2610  137.6120 N   0  0  0  0  0  2  0  0  0  0  0  0
  195.8230  174.6300  137.0110 C   0  0  0  0  0  0  0  0  0  0  0  0
  195.8950  175.6860  136.1000 O   0  0  0  0  0  0  0  0  0  0  0  0
  197.1130  176.0560  135.4720 C   0  0  0  0  0  1  0  0  0  0  0  0
  1 32  1  6  0  0  0
  1 10  1  0  0  0  0
  1  2  1  0  0  0  0
  3  5  1  0  0  0  0
  4  8  1  0  0  0  0
  4  7  1  0  0  0  0
  5  6  2  0  0  0  0
  6  4  1  0  0  0  0
  6 14  1  0  0  0  0
  8  7  1  0  0  0  0
  9  2  1  6  0  0  0
  9  4  1  0  0  0  0
 10  3  1  1  0  0  0
 10  9  1  0  0  0  0
 11 14  2  0  0  0  0
 11 15  1  0  0  0  0
 12 15  1  0  0  0  0
 13 16  1  0  0  0  0
 14 17  1  0  0  0  0
 15 13  2  0  0  0  0
 16 18  1  0  0  0  0
 17 16  2  0  0  0  0
 18 19  1  0  0  0  0
 19 21  1  0  0  0  0
 21 22  1  0  0  0  0
 21 20  1  0  0  0  0
 22 23  1  1  0  0  0
 23 24  2  0  0  0  0
 25 22  1  0  0  0  0
 26 27  1  6  0  0  0
 26 25  1  0  0  0  0
 28 27  1  0  0  0  0
 29 26  1  0  0  0  0
 29 30  1  0  0  0  0
 30 31  1  0  0  0  0
 32 33  1  0  0  0  0
 33 35  1  0  0  0  0
 35 39  2  0  0  0  0
 36 37  1  0  0  0  0
 37 41  1  0  0  0  0
 37 34  2  0  0  0  0
 38 36  2  0  0  0  0
 38 35  1  0  0  0  0
 39 34  1  0  0  0  0
 42 40  2  0  0  0  0
 42 41  1  0  0  0  0
 43 42  1  0  0  0  0
 44 43  1  0  0  0  0
M  END
>  <MODEL>
4

>  <REMARK>
 VINA RESULT:      -8.2      1.713      2.740
  Name = 
  16 active torsions:
  status: ('A' for Active; 'I' for Inactive)
    1  A    between atoms: C_1  and  C_40
    2  A    between atoms: O_3  and  C_24
    3  A    between atoms: C_7  and  C_41
    4  A    between atoms: O_8  and  C_13
    5  A    between atoms: O_8  and  C_28
    6  A    between atoms: C_9  and  O_17
    7  A    between atoms: C_13  and  C_14
    8  A    between atoms: C_13  and  C_41
    9  A    between atoms: C_16  and  C_28
   10  A    between atoms: O_17  and  C_40
   11  A    between atoms: C_18  and  N_26
   12  A    between atoms: C_18  and  C_42
   13  A    between atoms: N_19  and  C_20
   14  A    between atoms: N_26  and  C_28
   15  A    between atoms: C_29  and  C_33
   16  A    between atoms: C_37  and  C_42
                            x       y       z     vdW  Elec       q    Type
                         _______ _______ _______ _____ _____    ______ ____

>  <TORSDO>
F 16

$$$$
=
 OpenBabel10222422003D

 44 48  0  0  1  0  0  0  0  0999 V2000
  191.4680  176.2900  138.3330 C   0  0  2  0  0  3  0  0  0  0  0  0
  190.3550  176.4880  137.4290 N   0  0  0  0  0  2  0  0  0  0  0  0
  190.6900  177.0600  140.3220 N   0  0  0  0  0  2  0  0  0  0  0  0
  188.7080  177.7120  138.6360 C   0  0  0  0  0  0  0  0  0  0  0  0
  189.4640  177.4830  140.9020 C   0  0  0  0  0  3  0  0  0  0  0  0
  188.4720  177.8700  140.1220 C   0  0  0  0  0  0  0  0  0  0  0  0
  187.8450  178.5970  137.7600 C   0  0  0  0  0  2  0  0  0  0  0  0
  187.6310  177.0910  137.7610 C   0  0  0  0  0  2  0  0  0  0  0  0
  190.0950  177.6930  138.1150 N   0  0  1  0  0  0  0  0  0  0  0  0
  191.1480  177.4970  139.0610 N   0  0  2  0  0  0  0  0  0  0  0  0
  186.1220  178.7990  139.9800 C   0  0  0  0  0  3  0  0  0  0  0  0
  183.8810  179.6730  139.8010 O   0  0  0  0  0  1  0  0  0  0  0  0
  184.7860  179.1310  141.9680 C   0  0  0  0  0  3  0  0  0  0  0  0
  187.1930  178.3180  140.7520 C   0  0  0  0  0  0  0  0  0  0  0  0
  184.9270  179.2030  140.5830 C   0  0  0  0  0  0  0  0  0  0  0  0
  185.8390  178.6560  142.7540 C   0  0  0  0  0  0  0  0  0  0  0  0
  187.0300  178.2440  142.1480 C   0  0  0  0  0  3  0  0  0  0  0  0
  185.6760  178.5400  144.2290 C   0  0  0  0  0  2  0  0  0  0  0  0
  186.4000  177.3030  144.7310 C   0  0  0  0  0  2  0  0  0  0  0  0
  185.8540  178.5710  146.5840 C   0  0  0  0  0  1  0  0  0  0  0  0
  186.6110  177.3990  146.1690 N   0  0  0  0  0  0  0  0  0  0  0  0
  188.0360  177.6610  146.4360 C   0  0  1  0  0  3  0  0  0  0  0  0
  188.3540  177.4460  147.8950 C   0  0  0  0  0  3  0  0  0  0  0  0
  188.8490  178.4230  148.6530 C   0  0  0  0  0  2  0  0  0  0  0  0
  188.8550  176.8120  145.6560 O   0  0  0  0  0  0  0  0  0  0  0  0
  190.0770  177.4630  145.3550 C   0  0  2  0  0  3  0  0  0  0  0  0
  189.9070  178.6890  144.4560 C   0  0  0  0  0  2  0  0  0  0  0  0
  191.2650  179.2350  144.0550 C   0  0  0  0  0  1  0  0  0  0  0  0
  191.1570  176.5100  144.8440 C   0  0  0  0  0  2  0  0  0  0  0  0
  191.9830  175.9780  146.0000 C   0  0  0  0  0  2  0  0  0  0  0  0
  191.8490  176.8300  147.0950 O   0  0  0  0  0  1  0  0  0  0  0  0
  192.7810  176.4760  137.5850 C   0  0  0  0  0  2  0  0  0  0  0  0
  193.8610  175.9330  138.3390 O   0  0  0  0  0  0  0  0  0  0  0  0
  194.2710  172.5460  136.9180 C   0  0  0  0  0  3  0  0  0  0  0  0
  194.3990  174.6640  138.0950 C   0  0  0  0  0  0  0  0  0  0  0  0
  196.0960  172.9640  138.4480 C   0  0  0  0  0  3  0  0  0  0  0  0
  195.4460  172.1130  137.5420 C   0  0  0  0  0  0  0  0  0  0  0  0
  195.5780  174.2320  138.7230 C   0  0  0  0  0  3  0  0  0  0  0  0
  193.7500  173.8150  137.1930 C   0  0  0  0  0  3  0  0  0  0  0  0
  196.2900  168.5400  137.5720 O   0  0  0  0  0  0  0  0  0  0  0  0
  195.9560  170.8100  137.2240 N   0  0  0  0  0  2  0  0  0  0  0  0
  195.7360  169.6030  137.9620 C   0  0  0  0  0  0  0  0  0  0  0  0
  194.9200  169.5940  139.0960 O   0  0  0  0  0  0  0  0  0  0  0  0
  194.3960  168.3910  139.6370 C   0  0  0  0  0  1  0  0  0  0  0  0
  1 32  1  6  0  0  0
  1 10  1  0  0  0  0
  2  1  1  0  0  0  0
  3  5  1  0  0  0  0
  4  6  1  0  0  0  0
  6 14  1  0  0  0  0
  6  5  2  0  0  0  0
  7  8  1  0  0  0  0
  7  4  1  0  0  0  0
  8  4  1  0  0  0  0
  9  2  1  6  0  0  0
  9  4  1  0  0  0  0
  9 10  1  0  0  0  0
 10  3  1  1  0  0  0
 11 15  2  0  0  0  0
 11 14  1  0  0  0  0
 12 15  1  0  0  0  0
 13 16  2  0  0  0  0
 14 17  2  0  0  0  0
 15 13  1  0  0  0  0
 16 18  1  0  0  0  0
 17 16  1  0  0  0  0
 18 19  1  0  0  0  0
 19 21  1  0  0  0  0
 21 22  1  0  0  0  0
 21 20  1  0  0  0  0
 22 23  1  1  0  0  0
 23 24  2  0  0  0  0
 25 22  1  0  0  0  0
 26 27  1  6  0  0  0
 26 25  1  0  0  0  0
 28 27  1  0  0  0  0
 29 26  1  0  0  0  0
 29 30  1  0  0  0  0
 30 31  1  0  0  0  0
 32 33  1  0  0  0  0
 34 39  2  0  0  0  0
 34 37  1  0  0  0  0
 35 33  1  0  0  0  0
 35 38  2  0  0  0  0
 36 38  1  0  0  0  0
 37 36  2  0  0  0  0
 39 35  1  0  0  0  0
 40 42  2  0  0  0  0
 41 37  1  0  0  0  0
 41 42  1  0  0  0  0
 42 43  1  0  0  0  0
 43 44  1  0  0  0  0
M  END
>  <MODEL>
5

>  <REMARK>
 VINA RESULT:      -8.0      2.713      4.527
  Name = 
  16 active torsions:
  status: ('A' for Active; 'I' for Inactive)
    1  A    between atoms: C_1  and  C_40
    2  A    between atoms: O_3  and  C_24
    3  A    between atoms: C_7  and  C_41
    4  A    between atoms: O_8  and  C_13
    5  A    between atoms: O_8  and  C_28
    6  A    between atoms: C_9  and  O_17
    7  A    between atoms: C_13  and  C_14
    8  A    between atoms: C_13  and  C_41
    9  A    between atoms: C_16  and  C_28
   10  A    between atoms: O_17  and  C_40
   11  A    between atoms: C_18  and  N_26
   12  A    between atoms: C_18  and  C_42
   13  A    between atoms: N_19  and  C_20
   14  A    between atoms: N_26  and  C_28
   15  A    between atoms: C_29  and  C_33
   16  A    between atoms: C_37  and  C_42
                            x       y       z     vdW  Elec       q    Type
                         _______ _______ _______ _____ _____    ______ ____

>  <TORSDO>
F 16

$$$$
=
 OpenBabel10222422003D

 44 48  0  0  1  0  0  0  0  0999 V2000
  191.6440  176.1560  138.7790 C   0  0  2  0  0  3  0  0  0  0  0  0
  190.5770  176.3440  137.8200 N   0  0  0  0  0  2  0  0  0  0  0  0
  190.7690  176.9410  140.7210 N   0  0  0  0  0  2  0  0  0  0  0  0
  188.8710  177.5760  138.9340 C   0  0  0  0  0  0  0  0  0  0  0  0
  189.5150  177.3660  141.2360 C   0  0  0  0  0  3  0  0  0  0  0  0
  188.5620  177.7450  140.4060 C   0  0  0  0  0  0  0  0  0  0  0  0
  188.0510  178.4530  138.0090 C   0  0  0  0  0  2  0  0  0  0  0  0
  187.8400  176.9470  138.0130 C   0  0  0  0  0  2  0  0  0  0  0  0
  190.2830  177.5550  138.4820 N   0  0  1  0  0  0  0  0  0  0  0  0
  191.2880  177.3680  139.4810 N   0  0  2  0  0  0  0  0  0  0  0  0
  186.2440  178.7270  140.1480 C   0  0  0  0  0  3  0  0  0  0  0  0
  184.0350  179.6530  139.8570 O   0  0  0  0  0  1  0  0  0  0  0  0
  184.7870  179.0150  142.0560 C   0  0  0  0  0  3  0  0  0  0  0  0
  187.2530  178.1970  140.9680 C   0  0  0  0  0  0  0  0  0  0  0  0
  185.0200  179.1340  140.6870 C   0  0  0  0  0  0  0  0  0  0  0  0
  185.7780  178.4900  142.8900 C   0  0  0  0  0  0  0  0  0  0  0  0
  186.9980  178.0760  142.3470 C   0  0  0  0  0  3  0  0  0  0  0  0
  185.5170  178.3240  144.3460 C   0  0  0  0  0  2  0  0  0  0  0  0
  186.4080  177.2290  144.9070 C   0  0  0  0  0  2  0  0  0  0  0  0
  185.9750  178.7190  146.6210 C   0  0  0  0  0  1  0  0  0  0  0  0
  186.6740  177.4770  146.3170 N   0  0  0  0  0  0  0  0  0  0  0  0
  188.1160  177.7100  146.5070 C   0  0  1  0  0  3  0  0  0  0  0  0
  188.5290  177.3720  147.9180 C   0  0  0  0  0  3  0  0  0  0  0  0
  188.9320  178.3120  148.7720 C   0  0  0  0  0  2  0  0  0  0  0  0
  188.8720  176.9270  145.6050 O   0  0  0  0  0  0  0  0  0  0  0  0
  190.1740  177.4690  145.4680 C   0  0  2  0  0  3  0  0  0  0  0  0
  190.2360  178.6740  144.5290 C   0  0  0  0  0  2  0  0  0  0  0  0
  191.6400  178.8370  143.9790 C   0  0  0  0  0  1  0  0  0  0  0  0
  191.2320  176.4160  145.1380 C   0  0  0  0  0  2  0  0  0  0  0  0
  191.9500  175.9730  146.3990 C   0  0  0  0  0  2  0  0  0  0  0  0
  191.8630  176.9800  147.3580 O   0  0  0  0  0  1  0  0  0  0  0  0
  192.9930  176.3380  138.0960 C   0  0  0  0  0  2  0  0  0  0  0  0
  193.1440  175.3940  137.0400 O   0  0  0  0  0  0  0  0  0  0  0  0
  195.5620  172.9590  138.4120 C   0  0  0  0  0  3  0  0  0  0  0  0
  193.9380  174.2470  137.1500 C   0  0  0  0  0  0  0  0  0  0  0  0
  194.7120  172.1010  136.3180 C   0  0  0  0  0  3  0  0  0  0  0  0
  195.5400  171.9530  137.4400 C   0  0  0  0  0  0  0  0  0  0  0  0
  193.9160  173.2400  136.1720 C   0  0  0  0  0  3  0  0  0  0  0  0
  194.7660  174.1000  138.2680 C   0  0  0  0  0  3  0  0  0  0  0  0
  198.3120  169.5460  137.4660 O   0  0  0  0  0  0  0  0  0  0  0  0
  196.3610  170.7920  137.6300 N   0  0  0  0  0  2  0  0  0  0  0  0
  197.7390  170.6520  137.2690 C   0  0  0  0  0  0  0  0  0  0  0  0
  198.4450  171.7180  136.7050 O   0  0  0  0  0  0  0  0  0  0  0  0
  199.8630  171.7760  136.7260 C   0  0  0  0  0  1  0  0  0  0  0  0
  1 32  1  6  0  0  0
  1 10  1  0  0  0  0
  2  1  1  0  0  0  0
  3  5  1  0  0  0  0
  4  6  1  0  0  0  0
  6 14  1  0  0  0  0
  6  5  2  0  0  0  0
  7  8  1  0  0  0  0
  7  4  1  0  0  0  0
  8  4  1  0  0  0  0
  9  2  1  6  0  0  0
  9  4  1  0  0  0  0
  9 10  1  0  0  0  0
 10  3  1  1  0  0  0
 11 15  2  0  0  0  0
 11 14  1  0  0  0  0
 12 15  1  0  0  0  0
 13 16  2  0  0  0  0
 14 17  2  0  0  0  0
 15 13  1  0  0  0  0
 16 18  1  0  0  0  0
 17 16  1  0  0  0  0
 18 19  1  0  0  0  0
 19 21  1  0  0  0  0
 21 22  1  0  0  0  0
 21 20  1  0  0  0  0
 22 23  1  1  0  0  0
 23 24  2  0  0  0  0
 25 22  1  0  0  0  0
 26 27  1  6  0  0  0
 26 25  1  0  0  0  0
 28 27  1  0  0  0  0
 29 26  1  0  0  0  0
 29 30  1  0  0  0  0
 30 31  1  0  0  0  0
 33 35  1  0  0  0  0
 33 32  1  0  0  0  0
 35 39  2  0  0  0  0
 36 37  1  0  0  0  0
 37 41  1  0  0  0  0
 37 34  2  0  0  0  0
 38 36  2  0  0  0  0
 38 35  1  0  0  0  0
 39 34  1  0  0  0  0
 42 40  2  0  0  0  0
 42 41  1  0  0  0  0
 43 44  1  0  0  0  0
 43 42  1  0  0  0  0
M  END
>  <MODEL>
6

>  <REMARK>
 VINA RESULT:      -8.0      2.737      4.560
  Name = 
  16 active torsions:
  status: ('A' for Active; 'I' for Inactive)
    1  A    between atoms: C_1  and  C_40
    2  A    between atoms: O_3  and  C_24
    3  A    between atoms: C_7  and  C_41
    4  A    between atoms: O_8  and  C_13
    5  A    between atoms: O_8  and  C_28
    6  A    between atoms: C_9  and  O_17
    7  A    between atoms: C_13  and  C_14
    8  A    between atoms: C_13  and  C_41
    9  A    between atoms: C_16  and  C_28
   10  A    between atoms: O_17  and  C_40
   11  A    between atoms: C_18  and  N_26
   12  A    between atoms: C_18  and  C_42
   13  A    between atoms: N_19  and  C_20
   14  A    between atoms: N_26  and  C_28
   15  A    between atoms: C_29  and  C_33
   16  A    between atoms: C_37  and  C_42
                            x       y       z     vdW  Elec       q    Type
                         _______ _______ _______ _____ _____    ______ ____

>  <TORSDO>
F 16

$$$$
=
 OpenBabel10222422003D

 44 48  0  0  1  0  0  0  0  0999 V2000
  182.5960  178.5770  143.6510 C   0  0  2  0  0  3  0  0  0  0  0  0
  182.7920  178.7920  145.0680 N   0  0  0  0  0  2  0  0  0  0  0  0
  184.6680  178.0360  142.8970 N   0  0  0  0  0  2  0  0  0  0  0  0
  185.1400  178.7010  145.4520 C   0  0  0  0  0  0  0  0  0  0  0  0
  185.9480  177.7130  143.4200 C   0  0  0  0  0  3  0  0  0  0  0  0
  186.2580  178.0660  144.6540 C   0  0  0  0  0  0  0  0  0  0  0  0
  185.5990  179.5510  146.6200 C   0  0  0  0  0  2  0  0  0  0  0  0
  184.8710  178.2400  146.8750 C   0  0  0  0  0  2  0  0  0  0  0  0
  184.0310  179.3820  144.7420 N   0  0  1  0  0  0  0  0  0  0  0  0
  183.8960  179.1290  143.3420 N   0  0  2  0  0  0  0  0  0  0  0  0
  187.9150  177.8260  146.5520 C   0  0  0  0  0  3  0  0  0  0  0  0
  189.4600  177.5980  148.3900 O   0  0  0  0  0  1  0  0  0  0  0  0
  190.1690  177.0470  146.1540 C   0  0  0  0  0  3  0  0  0  0  0  0
  187.6130  177.7240  145.1840 C   0  0  0  0  0  0  0  0  0  0  0  0
  189.1830  177.4920  147.0340 C   0  0  0  0  0  0  0  0  0  0  0  0
  189.8890  176.9380  144.7890 C   0  0  0  0  0  0  0  0  0  0  0  0
  188.6170  177.2660  144.3110 C   0  0  0  0  0  3  0  0  0  0  0  0
  190.9270  176.4260  143.8530 C   0  0  0  0  0  2  0  0  0  0  0  0
  190.2660  175.8910  142.5940 C   0  0  0  0  0  2  0  0  0  0  0  0
  191.6870  177.5830  141.9160 C   0  0  0  0  0  1  0  0  0  0  0  0
  190.9040  176.4620  141.4160 N   0  0  0  0  0  0  0  0  0  0  0  0
  189.8700  176.9980  140.5130 C   0  0  1  0  0  3  0  0  0  0  0  0
  189.0220  178.0230  141.2240 C   0  0  0  0  0  3  0  0  0  0  0  0
  187.8450  178.4150  140.7360 C   0  0  0  0  0  2  0  0  0  0  0  0
  190.4600  177.5950  139.3760 O   0  0  0  0  0  0  0  0  0  0  0  0
  190.3900  176.7080  138.2730 C   0  0  2  0  0  3  0  0  0  0  0  0
  191.7380  176.0800  137.9120 C   0  0  0  0  0  2  0  0  0  0  0  0
  191.5320  174.6770  137.3720 C   0  0  0  0  0  1  0  0  0  0  0  0
  189.6820  177.3100  137.0600 C   0  0  0  0  0  2  0  0  0  0  0  0
  189.3030  178.7540  137.3320 C   0  0  0  0  0  2  0  0  0  0  0  0
  187.9160  178.8590  137.4150 O   0  0  0  0  0  1  0  0  0  0  0  0
  181.5090  179.5070  143.1310 C   0  0  0  0  0  2  0  0  0  0  0  0
  180.6900  178.8300  142.1830 O   0  0  0  0  0  0  0  0  0  0  0  0
  180.9940  177.1830  138.8890 C   0  0  0  0  0  3  0  0  0  0  0  0
  181.0880  178.5910  140.8630 C   0  0  0  0  0  0  0  0  0  0  0  0
  182.3000  179.2170  138.8540 C   0  0  0  0  0  3  0  0  0  0  0  0
  181.8330  178.0670  138.2020 C   0  0  0  0  0  0  0  0  0  0  0  0
  181.9310  179.4790  140.1770 C   0  0  0  0  0  3  0  0  0  0  0  0
  180.6240  177.4430  140.2120 C   0  0  0  0  0  3  0  0  0  0  0  0
  183.4590  176.8180  135.1560 O   0  0  0  0  0  0  0  0  0  0  0  0
  182.1790  177.7730  136.8420 N   0  0  0  0  0  2  0  0  0  0  0  0
  183.2600  176.9460  136.3940 C   0  0  0  0  0  0  0  0  0  0  0  0
  184.0850  176.2880  137.3100 O   0  0  0  0  0  0  0  0  0  0  0  0
  183.8470  174.9470  137.7080 C   0  0  0  0  0  1  0  0  0  0  0  0
  1 32  1  6  0  0  0
  1  2  1  0  0  0  0
  3  5  1  0  0  0  0
  4  7  1  0  0  0  0
  4  8  1  0  0  0  0
  5  6  2  0  0  0  0
  6 14  1  0  0  0  0
  6  4  1  0  0  0  0
  7  8  1  0  0  0  0
  9  2  1  1  0  0  0
  9  4  1  0  0  0  0
 10  3  1  1  0  0  0
 10  1  1  0  0  0  0
 10  9  1  0  0  0  0
 11 15  1  0  0  0  0
 13 15  2  0  0  0  0
 14 11  2  0  0  0  0
 15 12  1  0  0  0  0
 16 13  1  0  0  0  0
 17 16  2  0  0  0  0
 17 14  1  0  0  0  0
 18 16  1  0  0  0  0
 19 18  1  0  0  0  0
 21 20  1  0  0  0  0
 21 19  1  0  0  0  0
 22 23  1  1  0  0  0
 22 21  1  0  0  0  0
 24 23  2  0  0  0  0
 25 22  1  0  0  0  0
 26 29  1  6  0  0  0
 26 25  1  0  0  0  0
 27 26  1  0  0  0  0
 28 27  1  0  0  0  0
 29 30  1  0  0  0  0
 30 31  1  0  0  0  0
 33 32  1  0  0  0  0
 34 39  1  0  0  0  0
 35 33  1  0  0  0  0
 36 38  2  0  0  0  0
 37 36  1  0  0  0  0
 37 34  2  0  0  0  0
 38 35  1  0  0  0  0
 39 35  2  0  0  0  0
 40 42  2  0  0  0  0
 41 37  1  0  0  0  0
 42 41  1  0  0  0  0
 42 43  1  0  0  0  0
 43 44  1  0  0  0  0
M  END
>  <MODEL>
7

>  <REMARK>
 VINA RESULT:      -7.7      2.522      7.917
  Name = 
  16 active torsions:
  status: ('A' for Active; 'I' for Inactive)
    1  A    between atoms: C_1  and  C_40
    2  A    between atoms: O_3  and  C_24
    3  A    between atoms: C_7  and  C_41
    4  A    between atoms: O_8  and  C_13
    5  A    between atoms: O_8  and  C_28
    6  A    between atoms: C_9  and  O_17
    7  A    between atoms: C_13  and  C_14
    8  A    between atoms: C_13  and  C_41
    9  A    between atoms: C_16  and  C_28
   10  A    between atoms: O_17  and  C_40
   11  A    between atoms: C_18  and  N_26
   12  A    between atoms: C_18  and  C_42
   13  A    between atoms: N_19  and  C_20
   14  A    between atoms: N_26  and  C_28
   15  A    between atoms: C_29  and  C_33
   16  A    between atoms: C_37  and  C_42
                            x       y       z     vdW  Elec       q    Type
                         _______ _______ _______ _____ _____    ______ ____

>  <TORSDO>
F 16

$$$$
=
 OpenBabel10222422003D

 44 48  0  0  1  0  0  0  0  0999 V2000
  183.5230  179.3230  143.8860 C   0  0  2  0  0  3  0  0  0  0  0  0
  182.0880  179.4170  143.7270 N   0  0  0  0  0  2  0  0  0  0  0  0
  184.2880  179.0900  141.7610 N   0  0  0  0  0  2  0  0  0  0  0  0
  181.6280  178.9680  141.4340 C   0  0  0  0  0  0  0  0  0  0  0  0
  183.7980  179.1770  140.4310 C   0  0  0  0  0  3  0  0  0  0  0  0
  182.5020  179.0670  140.2030 C   0  0  0  0  0  0  0  0  0  0  0  0
  180.2700  178.3380  141.1980 C   0  0  0  0  0  2  0  0  0  0  0  0
  180.3720  179.8170  141.5390 C   0  0  0  0  0  2  0  0  0  0  0  0
  182.2040  178.4560  142.7000 N   0  0  1  0  0  0  0  0  0  0  0  0
  183.6290  178.3860  142.7900 N   0  0  2  0  0  0  0  0  0  0  0  0
  181.5570  180.3650  138.2460 C   0  0  0  0  0  3  0  0  0  0  0  0
  180.6700  181.6410  136.4010 O   0  0  0  0  0  1  0  0  0  0  0  0
  181.1050  179.2860  136.1300 C   0  0  0  0  0  3  0  0  0  0  0  0
  182.0070  179.1530  138.7950 C   0  0  0  0  0  0  0  0  0  0  0  0
  181.1080  180.4320  136.9240 C   0  0  0  0  0  0  0  0  0  0  0  0
  181.5480  178.0700  136.6570 C   0  0  0  0  0  0  0  0  0  0  0  0
  182.0040  178.0080  137.9770 C   0  0  0  0  0  3  0  0  0  0  0  0
  181.5830  176.8540  135.8000 C   0  0  0  0  0  2  0  0  0  0  0  0
  182.0780  175.6670  136.6090 C   0  0  0  0  0  2  0  0  0  0  0  0
  182.7110  173.6660  135.6430 C   0  0  0  0  0  1  0  0  0  0  0  0
  183.1810  175.0170  135.9150 N   0  0  0  0  0  0  0  0  0  0  0  0
  184.3390  174.9210  136.8220 C   0  0  1  0  0  3  0  0  0  0  0  0
  184.4820  173.5180  137.3560 C   0  0  0  0  0  3  0  0  0  0  0  0
  185.6660  173.0270  137.7180 C   0  0  0  0  0  2  0  0  0  0  0  0
  185.5300  175.2840  136.1520 O   0  0  0  0  0  0  0  0  0  0  0  0
  185.6720  176.6940  136.1490 C   0  0  2  0  0  3  0  0  0  0  0  0
  186.8670  177.1830  135.3300 C   0  0  0  0  0  2  0  0  0  0  0  0
  187.7030  176.0030  134.8710 C   0  0  0  0  0  1  0  0  0  0  0  0
  185.6350  177.3050  137.5500 C   0  0  0  0  0  2  0  0  0  0  0  0
  186.9710  177.9390  137.8860 C   0  0  0  0  0  2  0  0  0  0  0  0
  186.9260  178.4530  139.1800 O   0  0  0  0  0  1  0  0  0  0  0  0
  183.8540  178.6190  145.1950 C   0  0  0  0  0  2  0  0  0  0  0  0
  184.9370  179.2730  145.8480 O   0  0  0  0  0  0  0  0  0  0  0  0
  188.0240  177.2840  145.4340 C   0  0  0  0  0  3  0  0  0  0  0  0
  186.1400  178.6300  146.1600 C   0  0  0  0  0  0  0  0  0  0  0  0
  187.9010  178.0430  147.7260 C   0  0  0  0  0  3  0  0  0  0  0  0
  188.5760  177.3390  146.7190 C   0  0  0  0  0  0  0  0  0  0  0  0
  186.6910  178.6860  147.4500 C   0  0  0  0  0  3  0  0  0  0  0  0
  186.8130  177.9260  145.1560 C   0  0  0  0  0  3  0  0  0  0  0  0
  192.0680  176.2150  146.5780 O   0  0  0  0  0  0  0  0  0  0  0  0
  189.8260  176.6790  146.9610 N   0  0  0  0  0  2  0  0  0  0  0  0
  191.0620  176.9100  146.2740 C   0  0  0  0  0  0  0  0  0  0  0  0
  191.1570  177.8870  145.2800 O   0  0  0  0  0  0  0  0  0  0  0  0
  191.5200  177.5690  143.9450 C   0  0  0  0  0  1  0  0  0  0  0  0
  1 32  1  1  0  0  0
  2  1  1  0  0  0  0
  4  8  1  0  0  0  0
  4  9  1  0  0  0  0
  5  3  1  0  0  0  0
  6  5  2  0  0  0  0
  6  4  1  0  0  0  0
  7  4  1  0  0  0  0
  7  8  1  0  0  0  0
  9 10  1  0  0  0  0
  9  2  1  1  0  0  0
 10  3  1  6  0  0  0
 10  1  1  0  0  0  0
 11 14  1  0  0  0  0
 12 15  1  0  0  0  0
 13 16  2  0  0  0  0
 13 15  1  0  0  0  0
 14  6  1  0  0  0  0
 15 11  2  0  0  0  0
 16 17  1  0  0  0  0
 17 14  2  0  0  0  0
 18 19  1  0  0  0  0
 18 16  1  0  0  0  0
 20 21  1  0  0  0  0
 21 19  1  0  0  0  0
 21 22  1  0  0  0  0
 22 23  1  6  0  0  0
 23 24  2  0  0  0  0
 25 22  1  0  0  0  0
 26 27  1  1  0  0  0
 26 25  1  0  0  0  0
 26 29  1  0  0  0  0
 28 27  1  0  0  0  0
 29 30  1  0  0  0  0
 30 31  1  0  0  0  0
 32 33  1  0  0  0  0
 33 35  1  0  0  0  0
 34 37  1  0  0  0  0
 35 38  2  0  0  0  0
 37 41  1  0  0  0  0
 37 36  2  0  0  0  0
 38 36  1  0  0  0  0
 39 34  2  0  0  0  0
 39 35  1  0  0  0  0
 42 40  2  0  0  0  0
 42 41  1  0  0  0  0
 43 42  1  0  0  0  0
 44 43  1  0  0  0  0
M  END
>  <MODEL>
8

>  <REMARK>
 VINA RESULT:      -7.6      3.404      8.720
  Name = 
  16 active torsions:
  status: ('A' for Active; 'I' for Inactive)
    1  A    between atoms: C_1  and  C_40
    2  A    between atoms: O_3  and  C_24
    3  A    between atoms: C_7  and  C_41
    4  A    between atoms: O_8  and  C_13
    5  A    between atoms: O_8  and  C_28
    6  A    between atoms: C_9  and  O_17
    7  A    between atoms: C_13  and  C_14
    8  A    between atoms: C_13  and  C_41
    9  A    between atoms: C_16  and  C_28
   10  A    between atoms: O_17  and  C_40
   11  A    between atoms: C_18  and  N_26
   12  A    between atoms: C_18  and  C_42
   13  A    between atoms: N_19  and  C_20
   14  A    between atoms: N_26  and  C_28
   15  A    between atoms: C_29  and  C_33
   16  A    between atoms: C_37  and  C_42
                            x       y       z     vdW  Elec       q    Type
                         _______ _______ _______ _____ _____    ______ ____

>  <TORSDO>
F 16

$$$$
=
 OpenBabel10222422003D

 44 48  0  0  1  0  0  0  0  0999 V2000
  183.8570  179.3960  144.3340 C   0  0  2  0  0  3  0  0  0  0  0  0
  182.4300  179.3810  144.0970 N   0  0  0  0  0  2  0  0  0  0  0  0
  184.7500  179.1090  142.2660 N   0  0  0  0  0  2  0  0  0  0  0  0
  182.1260  178.7830  141.8120 C   0  0  0  0  0  0  0  0  0  0  0  0
  184.3290  179.0930  140.9100 C   0  0  0  0  0  3  0  0  0  0  0  0
  183.0580  178.8800  140.6230 C   0  0  0  0  0  0  0  0  0  0  0  0
  180.8290  178.0480  141.5420 C   0  0  0  0  0  2  0  0  0  0  0  0
  180.8120  179.5460  141.8060 C   0  0  0  0  0  2  0  0  0  0  0  0
  182.6660  178.3790  143.1320 N   0  0  1  0  0  0  0  0  0  0  0  0
  184.0850  178.4140  143.2980 N   0  0  2  0  0  0  0  0  0  0  0  0
  181.7580  179.8220  138.6670 C   0  0  0  0  0  3  0  0  0  0  0  0
  180.5140  180.7590  136.8240 O   0  0  0  0  0  1  0  0  0  0  0  0
  181.8800  178.8040  136.4770 C   0  0  0  0  0  3  0  0  0  0  0  0
  182.6350  178.8580  139.1900 C   0  0  0  0  0  0  0  0  0  0  0  0
  181.3810  179.7950  137.3210 C   0  0  0  0  0  0  0  0  0  0  0  0
  182.7550  177.8360  136.9770 C   0  0  0  0  0  0  0  0  0  0  0  0
  183.1360  177.8690  138.3220 C   0  0  0  0  0  3  0  0  0  0  0  0
  183.3200  176.8000  136.0690 C   0  0  0  0  0  2  0  0  0  0  0  0
  184.8360  176.8890  136.0680 C   0  0  0  0  0  2  0  0  0  0  0  0
  184.4020  174.7840  136.9190 C   0  0  0  0  0  1  0  0  0  0  0  0
  185.4130  175.5590  136.2130 N   0  0  0  0  0  0  0  0  0  0  0  0
  186.6080  175.6360  137.0710 C   0  0  1  0  0  3  0  0  0  0  0  0
  187.6660  174.6710  136.6000 C   0  0  0  0  0  3  0  0  0  0  0  0
  188.0100  174.5850  135.3160 C   0  0  0  0  0  2  0  0  0  0  0  0
  187.1420  176.9450  137.0670 O   0  0  0  0  0  0  0  0  0  0  0  0
  188.0480  177.1010  138.1460 C   0  0  2  0  0  3  0  0  0  0  0  0
  187.4690  177.8970  139.3170 C   0  0  0  0  0  2  0  0  0  0  0  0
  188.4280  177.8700  140.4910 C   0  0  0  0  0  1  0  0  0  0  0  0
  189.4190  177.6170  137.7100 C   0  0  0  0  0  2  0  0  0  0  0  0
  189.2660  178.7290  136.6900 C   0  0  0  0  0  2  0  0  0  0  0  0
  188.9800  179.9230  137.3470 O   0  0  0  0  0  1  0  0  0  0  0  0
  184.1630  178.7860  145.6950 C   0  0  0  0  0  2  0  0  0  0  0  0
  185.3400  179.3690  146.2450 O   0  0  0  0  0  0  0  0  0  0  0  0
  188.3170  177.9290  147.8940 C   0  0  0  0  0  3  0  0  0  0  0  0
  186.5330  178.6580  146.4200 C   0  0  0  0  0  0  0  0  0  0  0  0
  188.3180  177.2460  145.5750 C   0  0  0  0  0  3  0  0  0  0  0  0
  188.9180  177.2270  146.8430 C   0  0  0  0  0  0  0  0  0  0  0  0
  187.1340  177.9560  145.3630 C   0  0  0  0  0  3  0  0  0  0  0  0
  187.1320  178.6410  147.6840 C   0  0  0  0  0  3  0  0  0  0  0  0
  192.3610  175.9540  146.7900 O   0  0  0  0  0  0  0  0  0  0  0  0
  190.1250  176.4990  147.1010 N   0  0  0  0  0  2  0  0  0  0  0  0
  191.4000  176.7110  146.4830 C   0  0  0  0  0  0  0  0  0  0  0  0
  191.5840  177.7370  145.5530 O   0  0  0  0  0  0  0  0  0  0  0  0
  191.6110  177.4890  144.1560 C   0  0  0  0  0  1  0  0  0  0  0  0
  1 32  1  1  0  0  0
  2  1  1  0  0  0  0
  4  9  1  0  0  0  0
  5  3  1  0  0  0  0
  6  5  2  0  0  0  0
  6  4  1  0  0  0  0
  7  8  1  0  0  0  0
  7  4  1  0  0  0  0
  8  4  1  0  0  0  0
  9 10  1  0  0  0  0
  9  2  1  1  0  0  0
 10  3  1  6  0  0  0
 10  1  1  0  0  0  0
 11 14  1  0  0  0  0
 12 15  1  0  0  0  0
 13 16  2  0  0  0  0
 13 15  1  0  0  0  0
 14  6  1  0  0  0  0
 15 11  2  0  0  0  0
 16 17  1  0  0  0  0
 17 14  2  0  0  0  0
 18 16  1  0  0  0  0
 19 18  1  0  0  0  0
 19 21  1  0  0  0  0
 21 20  1  0  0  0  0
 21 22  1  0  0  0  0
 22 23  1  6  0  0  0
 24 23  2  0  0  0  0
 25 22  1  0  0  0  0
 25 26  1  0  0  0  0
 26 29  1  6  0  0  0
 26 27  1  0  0  0  0
 27 28  1  0  0  0  0
 30 31  1  0  0  0  0
 30 29  1  0  0  0  0
 32 33  1  0  0  0  0
 33 35  1  0  0  0  0
 35 39  2  0  0  0  0
 36 37  1  0  0  0  0
 37 41  1  0  0  0  0
 37 34  2  0  0  0  0
 38 36  2  0  0  0  0
 38 35  1  0  0  0  0
 39 34  1  0  0  0  0
 42 40  2  0  0  0  0
 42 41  1  0  0  0  0
 43 42  1  0  0  0  0
 44 43  1  0  0  0  0
M  END
>  <MODEL>
9

>  <REMARK>
 VINA RESULT:      -7.5      2.959      8.288
  Name = 
  16 active torsions:
  status: ('A' for Active; 'I' for Inactive)
    1  A    between atoms: C_1  and  C_40
    2  A    between atoms: O_3  and  C_24
    3  A    between atoms: C_7  and  C_41
    4  A    between atoms: O_8  and  C_13
    5  A    between atoms: O_8  and  C_28
    6  A    between atoms: C_9  and  O_17
    7  A    between atoms: C_13  and  C_14
    8  A    between atoms: C_13  and  C_41
    9  A    between atoms: C_16  and  C_28
   10  A    between atoms: O_17  and  C_40
   11  A    between atoms: C_18  and  N_26
   12  A    between atoms: C_18  and  C_42
   13  A    between atoms: N_19  and  C_20
   14  A    between atoms: N_26  and  C_28
   15  A    between atoms: C_29  and  C_33
   16  A    between atoms: C_37  and  C_42
                            x       y       z     vdW  Elec       q    Type
                         _______ _______ _______ _____ _____    ______ ____

>  <TORSDO>
F 16

$$$$
