=
 OpenBabel10232407493D

 32 37  0  0  1  0  0  0  0  0999 V2000
  186.5830  178.2320  145.0120 C   0  0  0  0  0  0  0  0  0  0  0  0
  185.3180  178.4860  142.9610 C   0  0  0  0  0  0  0  0  0  0  0  0
  186.5810  178.2320  146.4130 C   0  0  0  0  0  3  0  0  0  0  0  0
  185.3630  178.4670  144.3180 C   0  0  0  0  0  0  0  0  0  0  0  0
  184.1140  178.7210  142.2510 C   0  0  0  0  0  0  0  0  0  0  0  0
  187.6850  178.6850  138.7380 N   0  0  0  0  0  2  0  0  0  0  0  0
  186.5030  178.2690  142.2340 C   0  0  2  0  0  3  0  0  0  0  0  0
  185.2370  178.6740  138.6730 C   0  0  0  0  0  2  0  0  0  0  0  0
  185.2810  178.5490  140.1710 C   0  0  0  0  0  0  0  0  0  0  0  0
  184.1930  178.6890  145.0710 C   0  0  0  0  0  0  0  0  0  0  0  0
  184.1430  178.7430  140.8870 N   0  0  0  0  0  0  0  0  0  0  0  0
  182.8730  178.9310  144.4040 C   0  0  0  0  0  3  0  0  0  0  0  0
  184.2430  178.6880  146.4300 N   0  0  0  0  0  0  0  0  0  0  0  0
  187.6930  178.0140  142.9260 O   0  0  0  0  0  0  0  0  0  0  0  0
  187.7220  178.0080  144.3240 C   0  0  0  0  0  0  0  0  0  0  0  0
  186.4940  178.3180  140.8370 C   0  0  0  0  0  0  0  0  0  0  0  0
  182.9470  178.9380  142.8970 C   0  0  0  0  0  0  0  0  0  0  0  0
  185.3980  178.4660  147.1060 C   0  0  0  0  0  3  0  0  0  0  0  0
  186.5240  178.1620  138.0250 C   0  0  0  0  0  2  0  0  0  0  0  0
  187.7460  178.0400  140.0490 C   0  0  0  0  0  2  0  0  0  0  0  0
  191.2300  176.5010  144.5340 C   0  0  0  0  0  0  0  0  0  0  0  0
  191.7700  177.0740  148.1760 O   0  0  0  0  0  1  0  0  0  0  0  0
  191.5660  175.5200  143.8930 O   0  0  0  0  0  0  0  0  0  0  0  0
  189.7790  176.5010  147.0300 C   0  0  0  0  0  3  0  0  0  0  0  0
  189.0250  177.7340  145.0160 C   0  0  1  0  0  3  0  0  0  0  0  0
  191.9710  176.8130  145.8110 C   0  0  0  0  0  2  0  0  0  0  0  0
  188.8280  176.7200  146.1130 C   0  0  0  0  0  3  0  0  0  0  0  0
  190.1200  177.3700  143.9980 C   0  0  1  0  0  3  0  0  0  0  0  0
  190.8010  178.8520  143.2870 Cl  0  0  0  0  0  0  0  0  0  0  0  0
  191.0810  177.2480  146.9790 C   0  0  2  0  0  3  0  0  0  0  0  0
  181.6970  179.2180  142.1070 C   0  0  0  0  0  2  0  0  0  0  0  0
  180.7860  179.9800  142.8420 O   0  0  0  0  0  1  0  0  0  0  0  0
  1  3  1  0  0  0  0
  2  4  2  0  0  0  0
  3 18  2  0  0  0  0
  4  1  1  0  0  0  0
  4 10  1  0  0  0  0
  5 17  1  0  0  0  0
  5  2  1  0  0  0  0
  6 20  1  0  0  0  0
  7 16  1  1  0  0  0
  7 14  1  0  0  0  0
  7  2  1  0  0  0  0
  8  9  1  0  0  0  0
  9 16  2  0  0  0  0
  9 11  1  0  0  0  0
 10 13  2  0  0  0  0
 11  5  2  0  0  0  0
 12 10  1  0  0  0  0
 13 18  1  0  0  0  0
 14 15  1  0  0  0  0
 15  1  2  0  0  0  0
 17 12  2  0  0  0  0
 19  8  1  0  0  0  0
 19  6  1  0  0  0  0
 20 16  1  0  0  0  0
 21 26  1  0  0  0  0
 23 21  2  0  0  0  0
 25 15  1  6  0  0  0
 25 27  1  0  0  0  0
 26 30  1  0  0  0  0
 27 24  2  0  0  0  0
 28 29  1  1  0  0  0
 28 21  1  0  0  0  0
 28 25  1  0  0  0  0
 30 24  1  0  0  0  0
 30 22  1  1  0  0  0
 31 32  1  0  0  0  0
 31 17  1  0  0  0  0
M  END
>  <MODEL>
1

>  <REMARK>
 VINA RESULT:     -11.3      0.000      0.000
  Name = 
  2 active torsions:
  status: ('A' for Active; 'I' for Inactive)
    1  A    between atoms: C_13  and  C_29
    2  A    between atoms: C_16  and  C_27
                            x       y       z     vdW  Elec       q    Type
                         _______ _______ _______ _____ _____    ______ ____

>  <TORSDO>
F 2

$$$$
=
 OpenBabel10232407493D

 32 37  0  0  1  0  0  0  0  0999 V2000
  184.1870  178.5970  142.6590 C   0  0  0  0  0  0  0  0  0  0  0  0
  186.4250  178.1570  143.4760 C   0  0  0  0  0  0  0  0  0  0  0  0
  182.8460  178.8640  142.9620 C   0  0  0  0  0  3  0  0  0  0  0  0
  185.1170  178.4270  143.7210 C   0  0  0  0  0  0  0  0  0  0  0  0
  187.3670  177.9800  144.5210 C   0  0  0  0  0  0  0  0  0  0  0  0
  189.8560  176.7880  140.3400 N   0  0  0  0  0  2  0  0  0  0  0  0
  186.8620  178.0420  142.1420 C   0  0  2  0  0  3  0  0  0  0  0  0
  190.5230  177.1680  142.6660 C   0  0  0  0  0  2  0  0  0  0  0  0
  189.0970  177.5680  142.9220 C   0  0  0  0  0  0  0  0  0  0  0  0
  184.6520  178.5380  145.0470 C   0  0  0  0  0  0  0  0  0  0  0  0
  188.6630  177.6940  144.2030 N   0  0  0  0  0  0  0  0  0  0  0  0
  185.5800  178.3810  146.2130 C   0  0  0  0  0  3  0  0  0  0  0  0
  183.3380  178.7900  145.2920 N   0  0  0  0  0  0  0  0  0  0  0  0
  185.9440  178.2360  141.1040 O   0  0  0  0  0  0  0  0  0  0  0  0
  184.5990  178.5050  141.3770 C   0  0  0  0  0  0  0  0  0  0  0  0
  188.1950  177.7300  141.8600 C   0  0  0  0  0  0  0  0  0  0  0  0
  187.0030  178.0750  145.8180 C   0  0  0  0  0  0  0  0  0  0  0  0
  182.4390  178.9540  144.2900 C   0  0  0  0  0  3  0  0  0  0  0  0
  190.9030  177.3400  141.1940 C   0  0  0  0  0  2  0  0  0  0  0  0
  188.6820  177.6540  140.4380 C   0  0  0  0  0  2  0  0  0  0  0  0
  183.2410  177.6930  137.8960 C   0  0  0  0  0  0  0  0  0  0  0  0
  181.0190  180.6640  137.5520 O   0  0  0  0  0  1  0  0  0  0  0  0
  183.9260  177.1900  137.0210 O   0  0  0  0  0  0  0  0  0  0  0  0
  183.1390  180.4920  138.5940 C   0  0  0  0  0  3  0  0  0  0  0  0
  183.6550  178.6990  140.2260 C   0  0  1  0  0  3  0  0  0  0  0  0
  182.0370  178.5050  137.4870 C   0  0  0  0  0  2  0  0  0  0  0  0
  183.9850  179.9740  139.4930 C   0  0  0  0  0  3  0  0  0  0  0  0
  183.6110  177.4440  139.3370 C   0  0  1  0  0  3  0  0  0  0  0  0
  182.5090  176.2400  140.0460 Cl  0  0  0  0  0  0  0  0  0  0  0  0
  181.8420  179.8040  138.2740 C   0  0  2  0  0  3  0  0  0  0  0  0
  188.0270  177.8480  146.8990 C   0  0  0  0  0  2  0  0  0  0  0  0
  187.6220  178.4040  148.1140 O   0  0  0  0  0  1  0  0  0  0  0  0
  1  3  1  0  0  0  0
  1  4  1  0  0  0  0
  2  4  2  0  0  0  0
  2  5  1  0  0  0  0
  3 18  2  0  0  0  0
  4 10  1  0  0  0  0
  5 17  1  0  0  0  0
  6 20  1  0  0  0  0
  6 19  1  0  0  0  0
  7 14  1  1  0  0  0
  7  2  1  0  0  0  0
  8  9  1  0  0  0  0
  9 11  1  0  0  0  0
 10 13  2  0  0  0  0
 10 12  1  0  0  0  0
 11  5  2  0  0  0  0
 14 15  1  0  0  0  0
 15  1  2  0  0  0  0
 16  7  1  0  0  0  0
 16  9  2  0  0  0  0
 17 12  2  0  0  0  0
 17 31  1  0  0  0  0
 18 13  1  0  0  0  0
 19  8  1  0  0  0  0
 20 16  1  0  0  0  0
 21 28  1  0  0  0  0
 23 21  2  0  0  0  0
 24 27  2  0  0  0  0
 25 15  1  1  0  0  0
 26 21  1  0  0  0  0
 26 30  1  0  0  0  0
 27 25  1  0  0  0  0
 28 29  1  1  0  0  0
 28 25  1  0  0  0  0
 30 22  1  6  0  0  0
 30 24  1  0  0  0  0
 31 32  1  0  0  0  0
M  END
>  <MODEL>
2

>  <REMARK>
 VINA RESULT:     -10.4      3.074      7.151
  Name = 
  2 active torsions:
  status: ('A' for Active; 'I' for Inactive)
    1  A    between atoms: C_13  and  C_29
    2  A    between atoms: C_16  and  C_27
                            x       y       z     vdW  Elec       q    Type
                         _______ _______ _______ _____ _____    ______ ____

>  <TORSDO>
F 2

$$$$
=
 OpenBabel10232407493D

 32 37  0  0  1  0  0  0  0  0999 V2000
  187.7100  178.1650  140.9890 C   0  0  0  0  0  0  0  0  0  0  0  0
  188.8350  177.6350  138.9080 C   0  0  0  0  0  0  0  0  0  0  0  0
  186.5470  178.6160  141.6250 C   0  0  0  0  0  3  0  0  0  0  0  0
  187.7270  178.0580  139.5700 C   0  0  0  0  0  0  0  0  0  0  0  0
  188.8730  177.5260  137.4950 C   0  0  0  0  0  0  0  0  0  0  0  0
  193.5820  176.6670  138.9730 N   0  0  0  0  0  2  0  0  0  0  0  0
  189.9860  177.2990  139.6460 C   0  0  0  0  0  0  0  0  0  0  0  0
  192.3980  176.4260  136.8420 C   0  0  0  0  0  2  0  0  0  0  0  0
  191.1480  176.7940  137.5910 C   0  0  0  0  0  0  0  0  0  0  0  0
  186.5640  178.4100  138.8560 C   0  0  0  0  0  0  0  0  0  0  0  0
  190.0250  177.1100  136.8940 N   0  0  0  0  0  0  0  0  0  0  0  0
  186.5100  178.3110  137.3610 C   0  0  0  0  0  2  0  0  0  0  0  0
  185.4610  178.8500  139.5170 N   0  0  0  0  0  0  0  0  0  0  0  0
  189.9510  177.3830  141.0430 O   0  0  0  0  0  0  0  0  0  0  0  0
  188.8030  177.8290  141.7060 C   0  0  0  0  0  0  0  0  0  0  0  0
  191.1520  176.8940  138.9900 C   0  0  0  0  0  0  0  0  0  0  0  0
  187.7990  177.8390  136.7370 C   0  0  0  0  0  0  0  0  0  0  0  0
  185.4300  178.9580  140.8690 C   0  0  0  0  0  3  0  0  0  0  0  0
  193.4640  175.8450  137.7720 C   0  0  0  0  0  2  0  0  0  0  0  0
  192.3720  176.4860  139.7720 C   0  0  0  0  0  2  0  0  0  0  0  0
  190.4080  177.3020  145.1360 C   0  0  0  0  0  0  0  0  0  0  0  0
  187.3700  177.9750  147.1860 O   0  0  0  0  0  1  0  0  0  0  0  0
  191.2540  176.4490  145.3450 O   0  0  0  0  0  0  0  0  0  0  0  0
  187.5500  176.9020  145.0810 C   0  0  0  0  0  3  0  0  0  0  0  0
  188.8210  177.9050  143.2050 C   0  0  1  0  0  3  0  0  0  0  0  0
  189.5790  177.7910  146.2980 C   0  0  0  0  0  2  0  0  0  0  0  0
  187.8970  176.8680  143.7890 C   0  0  0  0  0  3  0  0  0  0  0  0
  190.2630  177.8500  143.7380 C   0  0  1  0  0  3  0  0  0  0  0  0
  191.0060  179.4650  143.6400 Cl  0  0  0  0  0  0  0  0  0  0  0  0
  188.0890  177.9680  145.9930 C   0  0  2  0  0  3  0  0  0  0  0  0
  187.8910  177.7420  135.2370 C   0  0  0  0  0  2  0  0  0  0  0  0
  186.7870  178.3290  134.6170 O   0  0  0  0  0  1  0  0  0  0  0  0
  1  3  1  0  0  0  0
  1 15  2  0  0  0  0
  2  4  2  0  0  0  0
  2  7  1  0  0  0  0
  4  1  1  0  0  0  0
  5  2  1  0  0  0  0
  6 20  1  0  0  0  0
  7 14  1  0  0  0  0
  8  9  1  0  0  0  0
  8 19  1  0  0  0  0
  9 16  1  0  0  0  0
 10 13  2  0  0  0  0
 10  4  1  0  0  0  0
 11  5  1  0  0  0  0
 11  9  2  0  0  0  0
 12 10  1  0  0  0  0
 13 18  1  0  0  0  0
 14 15  1  0  0  0  0
 16  7  2  0  0  0  0
 16 20  1  0  0  0  0
 17 12  1  0  0  0  0
 17  5  2  0  0  0  0
 18  3  2  0  0  0  0
 19  6  1  0  0  0  0
 21 23  2  0  0  0  0
 21 26  1  0  0  0  0
 24 30  1  0  0  0  0
 25 15  1  6  0  0  0
 25 28  1  0  0  0  0
 25 27  1  0  0  0  0
 27 24  2  0  0  0  0
 28 29  1  1  0  0  0
 28 21  1  0  0  0  0
 30 26  1  0  0  0  0
 30 22  1  1  0  0  0
 31 17  1  0  0  0  0
 32 31  1  0  0  0  0
M  END
>  <MODEL>
3

>  <REMARK>
 VINA RESULT:     -10.1      3.237      5.584
  Name = 
  2 active torsions:
  status: ('A' for Active; 'I' for Inactive)
    1  A    between atoms: C_13  and  C_29
    2  A    between atoms: C_16  and  C_27
                            x       y       z     vdW  Elec       q    Type
                         _______ _______ _______ _____ _____    ______ ____

>  <TORSDO>
F 2

$$$$
=
 OpenBabel10232407493D

 32 37  0  0  1  0  0  0  0  0999 V2000
  186.8820  177.8890  144.3990 C   0  0  0  0  0  0  0  0  0  0  0  0
  185.0040  178.4310  142.9670 C   0  0  0  0  0  0  0  0  0  0  0  0
  187.3810  177.7640  145.7020 C   0  0  0  0  0  3  0  0  0  0  0  0
  185.5290  178.2860  144.2110 C   0  0  0  0  0  0  0  0  0  0  0  0
  183.6590  178.8290  142.7580 C   0  0  0  0  0  0  0  0  0  0  0  0
  185.7120  178.8090  138.1890 N   0  0  0  0  0  2  0  0  0  0  0  0
  185.8190  178.1820  141.8470 C   0  0  2  0  0  3  0  0  0  0  0  0
  183.4170  179.0090  139.0210 C   0  0  0  0  0  2  0  0  0  0  0  0
  183.9790  178.7470  140.3900 C   0  0  0  0  0  0  0  0  0  0  0  0
  184.7370  178.5370  145.3490 C   0  0  0  0  0  0  0  0  0  0  0  0
  183.2010  178.9710  141.4810 N   0  0  0  0  0  0  0  0  0  0  0  0
  183.3020  178.9480  145.2230 C   0  0  0  0  0  3  0  0  0  0  0  0
  185.2690  178.4100  146.5940 N   0  0  0  0  0  0  0  0  0  0  0  0
  187.1410  177.7670  142.0430 O   0  0  0  0  0  0  0  0  0  0  0  0
  187.6670  177.6330  143.3320 C   0  0  0  0  0  0  0  0  0  0  0  0
  185.3160  178.3560  140.5550 C   0  0  0  0  0  0  0  0  0  0  0  0
  182.8330  179.0840  143.7960 C   0  0  0  0  0  0  0  0  0  0  0  0
  186.5570  178.0320  146.7900 C   0  0  0  0  0  3  0  0  0  0  0  0
  184.3230  178.4520  137.9220 C   0  0  0  0  0  2  0  0  0  0  0  0
  186.1660  178.0470  139.3510 C   0  0  0  0  0  2  0  0  0  0  0  0
  191.3520  177.5610  142.3160 C   0  0  0  0  0  0  0  0  0  0  0  0
  192.3890  174.7270  144.5020 O   0  0  0  0  0  1  0  0  0  0  0  0
  191.7270  177.7770  141.1760 O   0  0  0  0  0  0  0  0  0  0  0  0
  190.3490  175.0580  143.3450 C   0  0  0  0  0  3  0  0  0  0  0  0
  189.0930  177.1900  143.4860 C   0  0  1  0  0  3  0  0  0  0  0  0
  192.2360  176.7350  143.2180 C   0  0  0  0  0  2  0  0  0  0  0  0
  189.2390  175.7500  143.0640 C   0  0  0  0  0  3  0  0  0  0  0  0
  190.0480  178.1640  142.7750 C   0  0  1  0  0  3  0  0  0  0  0  0
  190.3650  179.5690  143.8190 Cl  0  0  0  0  0  0  0  0  0  0  0  0
  191.4940  175.7040  144.0730 C   0  0  2  0  0  3  0  0  0  0  0  0
  181.4210  179.5380  143.5330 C   0  0  0  0  0  2  0  0  0  0  0  0
  180.5160  178.4810  143.6330 O   0  0  0  0  0  1  0  0  0  0  0  0
  1  3  1  0  0  0  0
  2  4  2  0  0  0  0
  3 18  2  0  0  0  0
  4  1  1  0  0  0  0
  4 10  1  0  0  0  0
  5  2  1  0  0  0  0
  5 17  1  0  0  0  0
  6 20  1  0  0  0  0
  7 16  1  1  0  0  0
  7 14  1  0  0  0  0
  7  2  1  0  0  0  0
  8  9  1  0  0  0  0
  9 16  2  0  0  0  0
  9 11  1  0  0  0  0
 10 13  2  0  0  0  0
 11  5  2  0  0  0  0
 12 10  1  0  0  0  0
 13 18  1  0  0  0  0
 14 15  1  0  0  0  0
 15  1  2  0  0  0  0
 17 12  2  0  0  0  0
 19  6  1  0  0  0  0
 19  8  1  0  0  0  0
 20 16  1  0  0  0  0
 21 28  1  0  0  0  0
 21 26  1  0  0  0  0
 23 21  2  0  0  0  0
 24 30  1  0  0  0  0
 25 15  1  6  0  0  0
 26 30  1  0  0  0  0
 27 24  2  0  0  0  0
 27 25  1  0  0  0  0
 28 25  1  0  0  0  0
 28 29  1  1  0  0  0
 30 22  1  6  0  0  0
 31 32  1  0  0  0  0
 31 17  1  0  0  0  0
M  END
>  <MODEL>
4

>  <REMARK>
 VINA RESULT:      -9.8      1.597      1.966
  Name = 
  2 active torsions:
  status: ('A' for Active; 'I' for Inactive)
    1  A    between atoms: C_13  and  C_29
    2  A    between atoms: C_16  and  C_27
                            x       y       z     vdW  Elec       q    Type
                         _______ _______ _______ _____ _____    ______ ____

>  <TORSDO>
F 2

$$$$
=
 OpenBabel10232407493D

 32 37  0  0  1  0  0  0  0  0999 V2000
  186.7190  178.2890  143.5340 C   0  0  0  0  0  0  0  0  0  0  0  0
  186.1610  178.4210  141.1800 C   0  0  0  0  0  0  0  0  0  0  0  0
  186.2800  178.3640  144.8620 C   0  0  0  0  0  3  0  0  0  0  0  0
  185.7800  178.4750  142.4820 C   0  0  0  0  0  0  0  0  0  0  0  0
  185.2410  178.6070  140.1170 C   0  0  0  0  0  0  0  0  0  0  0  0
  189.7310  178.4140  137.9050 N   0  0  0  0  0  2  0  0  0  0  0  0
  187.5130  178.1760  140.8720 C   0  0  0  0  0  0  0  0  0  0  0  0
  187.4260  178.3780  137.0780 C   0  0  0  0  0  2  0  0  0  0  0  0
  186.9990  178.3340  138.5190 C   0  0  0  0  0  0  0  0  0  0  0  0
  184.4350  178.7270  142.8190 C   0  0  0  0  0  0  0  0  0  0  0  0
  185.6950  178.5560  138.8320 N   0  0  0  0  0  0  0  0  0  0  0  0
  183.3920  178.9210  141.7600 C   0  0  0  0  0  2  0  0  0  0  0  0
  184.0570  178.7990  144.1230 N   0  0  0  0  0  0  0  0  0  0  0  0
  188.4240  177.9690  141.9140 O   0  0  0  0  0  0  0  0  0  0  0  0
  188.0140  178.0380  143.2490 C   0  0  0  0  0  0  0  0  0  0  0  0
  187.9410  178.1490  139.5420 C   0  0  0  0  0  0  0  0  0  0  0  0
  183.9330  178.8480  140.3540 C   0  0  0  0  0  0  0  0  0  0  0  0
  184.9410  178.6240  145.1370 C   0  0  0  0  0  3  0  0  0  0  0  0
  188.8470  177.8430  136.8940 C   0  0  0  0  0  2  0  0  0  0  0  0
  189.3740  177.8410  139.2010 C   0  0  0  0  0  2  0  0  0  0  0  0
  191.2450  176.5390  144.6410 C   0  0  0  0  0  0  0  0  0  0  0  0
  190.6540  177.3890  148.2210 O   0  0  0  0  0  1  0  0  0  0  0  0
  191.7350  175.5100  144.2070 O   0  0  0  0  0  0  0  0  0  0  0  0
  189.0970  176.7360  146.5590 C   0  0  0  0  0  3  0  0  0  0  0  0
  189.0330  177.8140  144.3280 C   0  0  1  0  0  3  0  0  0  0  0  0
  191.5660  176.9450  146.0580 C   0  0  0  0  0  2  0  0  0  0  0  0
  188.4810  176.8870  145.3810 C   0  0  0  0  0  3  0  0  0  0  0  0
  190.3780  177.3680  143.7270 C   0  0  1  0  0  3  0  0  0  0  0  0
  191.2850  178.7890  143.1560 Cl  0  0  0  0  0  0  0  0  0  0  0  0
  190.3720  177.4730  146.8600 C   0  0  2  0  0  3  0  0  0  0  0  0
  182.9940  179.0740  139.1990 C   0  0  0  0  0  2  0  0  0  0  0  0
  182.9310  180.4230  138.8470 O   0  0  0  0  0  1  0  0  0  0  0  0
  1  3  1  0  0  0  0
  2  4  2  0  0  0  0
  3 18  2  0  0  0  0
  4 10  1  0  0  0  0
  4  1  1  0  0  0  0
  5 17  2  0  0  0  0
  5  2  1  0  0  0  0
  6 20  1  0  0  0  0
  7  2  1  0  0  0  0
  7 14  1  0  0  0  0
  8  9  1  0  0  0  0
  9 11  2  0  0  0  0
  9 16  1  0  0  0  0
 10 13  2  0  0  0  0
 11  5  1  0  0  0  0
 12 10  1  0  0  0  0
 13 18  1  0  0  0  0
 14 15  1  0  0  0  0
 15  1  2  0  0  0  0
 16  7  2  0  0  0  0
 17 12  1  0  0  0  0
 19  8  1  0  0  0  0
 19  6  1  0  0  0  0
 20 16  1  0  0  0  0
 21 26  1  0  0  0  0
 23 21  2  0  0  0  0
 24 30  1  0  0  0  0
 25 15  1  6  0  0  0
 25 27  1  0  0  0  0
 26 30  1  0  0  0  0
 27 24  2  0  0  0  0
 28 29  1  1  0  0  0
 28 25  1  0  0  0  0
 28 21  1  0  0  0  0
 30 22  1  1  0  0  0
 31 17  1  0  0  0  0
 32 31  1  0  0  0  0
M  END
>  <MODEL>
5

>  <REMARK>
 VINA RESULT:      -9.6      1.449      1.994
  Name = 
  2 active torsions:
  status: ('A' for Active; 'I' for Inactive)
    1  A    between atoms: C_13  and  C_29
    2  A    between atoms: C_16  and  C_27
                            x       y       z     vdW  Elec       q    Type
                         _______ _______ _______ _____ _____    ______ ____

>  <TORSDO>
F 2

$$$$
=
 OpenBabel10232407493D

 32 37  0  0  1  0  0  0  0  0999 V2000
  189.7100  177.3600  142.4170 C   0  0  0  0  0  0  0  0  0  0  0  0
  187.8760  177.7870  143.9420 C   0  0  0  0  0  0  0  0  0  0  0  0
  191.0740  177.0880  142.2510 C   0  0  0  0  0  3  0  0  0  0  0  0
  189.1890  177.5120  143.7320 C   0  0  0  0  0  0  0  0  0  0  0  0
  187.3380  177.9450  145.2440 C   0  0  0  0  0  0  0  0  0  0  0  0
  183.6020  179.2080  142.1550 N   0  0  0  0  0  2  0  0  0  0  0  0
  187.0190  177.9240  142.8330 C   0  0  2  0  0  3  0  0  0  0  0  0
  183.7480  178.7890  144.5630 C   0  0  0  0  0  2  0  0  0  0  0  0
  185.1760  178.3850  144.3220 C   0  0  0  0  0  0  0  0  0  0  0  0
  190.0700  177.3790  144.8230 C   0  0  0  0  0  0  0  0  0  0  0  0
  186.0130  178.2370  145.3820 N   0  0  0  0  0  0  0  0  0  0  0  0
  189.5860  177.5150  146.2350 C   0  0  0  0  0  3  0  0  0  0  0  0
  191.3880  177.1220  144.6120 N   0  0  0  0  0  0  0  0  0  0  0  0
  187.5360  177.7470  141.5450 O   0  0  0  0  0  0  0  0  0  0  0  0
  188.8940  177.4730  141.3480 C   0  0  0  0  0  0  0  0  0  0  0  0
  185.6710  178.2400  143.0170 C   0  0  0  0  0  0  0  0  0  0  0  0
  188.1140  177.8280  146.3440 C   0  0  0  0  0  0  0  0  0  0  0  0
  191.9000  176.9750  143.3640 C   0  0  0  0  0  3  0  0  0  0  0  0
  182.8980  178.6420  143.3010 C   0  0  0  0  0  2  0  0  0  0  0  0
  184.7370  178.3410  141.8410 C   0  0  0  0  0  2  0  0  0  0  0  0
  188.5320  176.4020  137.6950 C   0  0  0  0  0  0  0  0  0  0  0  0
  192.1290  176.6840  136.7640 O   0  0  0  0  0  1  0  0  0  0  0  0
  187.7510  175.5380  137.3350 O   0  0  0  0  0  0  0  0  0  0  0  0
  191.1620  175.9800  138.8080 C   0  0  0  0  0  3  0  0  0  0  0  0
  189.3970  177.2990  139.9450 C   0  0  1  0  0  3  0  0  0  0  0  0
  189.7420  176.6800  136.8370 C   0  0  0  0  0  2  0  0  0  0  0  0
  190.3900  176.1670  139.8860 C   0  0  0  0  0  3  0  0  0  0  0  0
  188.2260  177.1740  138.9550 C   0  0  1  0  0  3  0  0  0  0  0  0
  187.6110  178.7920  138.5400 Cl  0  0  0  0  0  0  0  0  0  0  0  0
  191.0450  176.8860  137.6150 C   0  0  2  0  0  3  0  0  0  0  0  0
  187.5120  178.0380  147.7080 C   0  0  0  0  0  2  0  0  0  0  0  0
  188.4900  178.0440  148.7040 O   0  0  0  0  0  1  0  0  0  0  0  0
  1  4  1  0  0  0  0
  2  5  1  0  0  0  0
  3  1  1  0  0  0  0
  3 18  2  0  0  0  0
  4  2  2  0  0  0  0
  4 10  1  0  0  0  0
  5 11  2  0  0  0  0
  5 17  1  0  0  0  0
  6 19  1  0  0  0  0
  7 14  1  6  0  0  0
  7 16  1  0  0  0  0
  7  2  1  0  0  0  0
  9  8  1  0  0  0  0
  9 11  1  0  0  0  0
 10 12  1  0  0  0  0
 12 17  2  0  0  0  0
 13 10  2  0  0  0  0
 15 14  1  0  0  0  0
 15  1  2  0  0  0  0
 16  9  2  0  0  0  0
 17 31  1  0  0  0  0
 18 13  1  0  0  0  0
 19  8  1  0  0  0  0
 20  6  1  0  0  0  0
 20 16  1  0  0  0  0
 21 28  1  0  0  0  0
 23 21  2  0  0  0  0
 24 27  2  0  0  0  0
 25 15  1  1  0  0  0
 26 30  1  0  0  0  0
 26 21  1  0  0  0  0
 27 25  1  0  0  0  0
 28 29  1  6  0  0  0
 28 25  1  0  0  0  0
 30 22  1  6  0  0  0
 30 24  1  0  0  0  0
 31 32  1  0  0  0  0
M  END
>  <MODEL>
6

>  <REMARK>
 VINA RESULT:      -9.4      3.006      6.372
  Name = 
  2 active torsions:
  status: ('A' for Active; 'I' for Inactive)
    1  A    between atoms: C_13  and  C_29
    2  A    between atoms: C_16  and  C_27
                            x       y       z     vdW  Elec       q    Type
                         _______ _______ _______ _____ _____    ______ ____

>  <TORSDO>
F 2

$$$$
=
 OpenBabel10232407493D

 32 37  0  0  1  0  0  0  0  0999 V2000
  185.9970  178.0570  144.4620 C   0  0  0  0  0  0  0  0  0  0  0  0
  188.2760  177.7250  143.7090 C   0  0  0  0  0  0  0  0  0  0  0  0
  185.1100  178.1740  145.5390 C   0  0  0  0  0  3  0  0  0  0  0  0
  187.3810  177.8550  144.7220 C   0  0  0  0  0  0  0  0  0  0  0  0
  189.6590  177.5200  143.9470 C   0  0  0  0  0  0  0  0  0  0  0  0
  189.1220  176.9990  138.9940 N   0  0  0  0  0  2  0  0  0  0  0  0
  187.8200  177.7920  142.3790 C   0  0  2  0  0  3  0  0  0  0  0  0
  191.0570  177.1840  140.4850 C   0  0  0  0  0  2  0  0  0  0  0  0
  190.0740  177.4310  141.5940 C   0  0  0  0  0  0  0  0  0  0  0  0
  187.8090  177.7830  146.0620 C   0  0  0  0  0  0  0  0  0  0  0  0
  190.5000  177.3810  142.8830 N   0  0  0  0  0  0  0  0  0  0  0  0
  189.2540  177.5830  146.4070 C   0  0  0  0  0  3  0  0  0  0  0  0
  186.9090  177.8940  147.0760 N   0  0  0  0  0  0  0  0  0  0  0  0
  186.4600  178.0170  142.1340 O   0  0  0  0  0  0  0  0  0  0  0  0
  185.5520  178.1390  143.1900 C   0  0  0  0  0  0  0  0  0  0  0  0
  188.7130  177.6280  141.3170 C   0  0  0  0  0  0  0  0  0  0  0  0
  190.1510  177.4440  145.2030 C   0  0  0  0  0  0  0  0  0  0  0  0
  185.5870  178.0870  146.8440 C   0  0  0  0  0  3  0  0  0  0  0  0
  190.4710  177.5440  139.1190 C   0  0  0  0  0  2  0  0  0  0  0  0
  188.2420  177.7460  139.8920 C   0  0  0  0  0  2  0  0  0  0  0  0
  182.6950  179.3200  140.9390 C   0  0  0  0  0  0  0  0  0  0  0  0
  179.9880  179.1670  143.4950 O   0  0  0  0  0  1  0  0  0  0  0  0
  182.8410  180.1750  140.0820 O   0  0  0  0  0  0  0  0  0  0  0  0
  182.2620  179.7760  143.7560 C   0  0  0  0  0  3  0  0  0  0  0  0
  184.1040  178.3730  142.8710 C   0  0  1  0  0  3  0  0  0  0  0  0
  181.3160  179.1040  141.5110 C   0  0  0  0  0  2  0  0  0  0  0  0
  183.5750  179.5330  143.6760 C   0  0  0  0  0  3  0  0  0  0  0  0
  183.8910  178.5000  141.3530 C   0  0  1  0  0  3  0  0  0  0  0  0
  183.7970  176.8800  140.6200 Cl  0  0  0  0  0  0  0  0  0  0  0  0
  181.2740  178.9080  143.0290 C   0  0  2  0  0  3  0  0  0  0  0  0
  191.6210  177.1900  145.4140 C   0  0  0  0  0  2  0  0  0  0  0  0
  191.8360  176.1100  146.2720 O   0  0  0  0  0  1  0  0  0  0  0  0
  1  4  1  0  0  0  0
  1  3  1  0  0  0  0
  2  5  1  0  0  0  0
  2  4  2  0  0  0  0
  3 18  2  0  0  0  0
  4 10  1  0  0  0  0
  5 17  1  0  0  0  0
  6 19  1  0  0  0  0
  6 20  1  0  0  0  0
  7 16  1  1  0  0  0
  7  2  1  0  0  0  0
  8  9  1  0  0  0  0
  9 11  1  0  0  0  0
 10 12  1  0  0  0  0
 10 13  2  0  0  0  0
 11  5  2  0  0  0  0
 14  7  1  0  0  0  0
 14 15  1  0  0  0  0
 15  1  2  0  0  0  0
 16  9  2  0  0  0  0
 17 31  1  0  0  0  0
 17 12  2  0  0  0  0
 18 13  1  0  0  0  0
 19  8  1  0  0  0  0
 20 16  1  0  0  0  0
 21 28  1  0  0  0  0
 21 26  1  0  0  0  0
 23 21  2  0  0  0  0
 25 15  1  6  0  0  0
 25 27  1  0  0  0  0
 26 30  1  0  0  0  0
 27 24  2  0  0  0  0
 28 29  1  1  0  0  0
 28 25  1  0  0  0  0
 30 22  1  1  0  0  0
 30 24  1  0  0  0  0
 31 32  1  0  0  0  0
M  END
>  <MODEL>
7

>  <REMARK>
 VINA RESULT:      -9.4      2.293      6.786
  Name = 
  2 active torsions:
  status: ('A' for Active; 'I' for Inactive)
    1  A    between atoms: C_13  and  C_29
    2  A    between atoms: C_16  and  C_27
                            x       y       z     vdW  Elec       q    Type
                         _______ _______ _______ _____ _____    ______ ____

>  <TORSDO>
F 2

$$$$
=
 OpenBabel10232407493D

 32 37  0  0  1  0  0  0  0  0999 V2000
  189.3170  177.6990  141.1630 C   0  0  0  0  0  0  0  0  0  0  0  0
  188.2220  177.8650  143.3180 C   0  0  0  0  0  0  0  0  0  0  0  0
  190.5080  177.5040  140.4500 C   0  0  0  0  0  3  0  0  0  0  0  0
  189.3490  177.6700  142.5850 C   0  0  0  0  0  0  0  0  0  0  0  0
  188.2330  177.8430  144.7360 C   0  0  0  0  0  0  0  0  0  0  0  0
  183.6040  179.3180  143.5130 N   0  0  0  0  0  2  0  0  0  0  0  0
  187.0040  178.0990  142.6520 C   0  0  2  0  0  3  0  0  0  0  0  0
  184.6680  178.6180  145.6050 C   0  0  0  0  0  2  0  0  0  0  0  0
  185.8860  178.3030  144.7820 C   0  0  0  0  0  0  0  0  0  0  0  0
  190.5830  177.4420  143.2260 C   0  0  0  0  0  0  0  0  0  0  0  0
  187.0680  178.0630  145.4100 N   0  0  0  0  0  0  0  0  0  0  0  0
  190.6850  177.3880  144.7200 C   0  0  0  0  0  3  0  0  0  0  0  0
  191.7130  177.2660  142.4910 N   0  0  0  0  0  0  0  0  0  0  0  0
  186.9800  178.1000  141.2530 O   0  0  0  0  0  0  0  0  0  0  0  0
  188.1520  177.9070  140.5150 C   0  0  0  0  0  0  0  0  0  0  0  0
  185.8350  178.3370  143.3810 C   0  0  0  0  0  0  0  0  0  0  0  0
  189.3730  177.6260  145.4270 C   0  0  0  0  0  0  0  0  0  0  0  0
  191.7000  177.2910  141.1350 C   0  0  0  0  0  3  0  0  0  0  0  0
  183.3940  178.5900  144.7600 C   0  0  0  0  0  2  0  0  0  0  0  0
  184.5200  178.5410  142.6790 C   0  0  0  0  0  2  0  0  0  0  0  0
  186.5100  177.0430  137.1720 C   0  0  0  0  0  0  0  0  0  0  0  0
  189.3570  178.0310  134.9800 O   0  0  0  0  0  1  0  0  0  0  0  0
  185.7780  176.0790  137.0260 O   0  0  0  0  0  0  0  0  0  0  0  0
  189.3960  177.0260  137.1240 C   0  0  0  0  0  3  0  0  0  0  0  0
  188.0710  177.9230  139.0170 C   0  0  1  0  0  3  0  0  0  0  0  0
  187.2240  177.5920  135.9610 C   0  0  0  0  0  2  0  0  0  0  0  0
  189.1030  176.9950  138.4300 C   0  0  0  0  0  3  0  0  0  0  0  0
  186.6300  177.6580  138.5440 C   0  0  1  0  0  3  0  0  0  0  0  0
  185.6840  179.1630  138.6180 Cl  0  0  0  0  0  0  0  0  0  0  0  0
  188.6880  177.9750  136.2000 C   0  0  2  0  0  3  0  0  0  0  0  0
  189.3490  177.6450  146.9320 C   0  0  0  0  0  2  0  0  0  0  0  0
  190.0100  176.5390  147.4690 O   0  0  0  0  0  1  0  0  0  0  0  0
  1  4  1  0  0  0  0
  2  5  1  0  0  0  0
  3 18  2  0  0  0  0
  3  1  1  0  0  0  0
  4 10  1  0  0  0  0
  4  2  2  0  0  0  0
  5 11  2  0  0  0  0
  5 17  1  0  0  0  0
  6 19  1  0  0  0  0
  7 14  1  6  0  0  0
  7  2  1  0  0  0  0
  7 16  1  0  0  0  0
  9 11  1  0  0  0  0
  9  8  1  0  0  0  0
 10 12  1  0  0  0  0
 12 17  2  0  0  0  0
 13 10  2  0  0  0  0
 15  1  2  0  0  0  0
 15 14  1  0  0  0  0
 16  9  2  0  0  0  0
 17 31  1  0  0  0  0
 18 13  1  0  0  0  0
 19  8  1  0  0  0  0
 20 16  1  0  0  0  0
 20  6  1  0  0  0  0
 21 28  1  0  0  0  0
 23 21  2  0  0  0  0
 24 27  2  0  0  0  0
 25 15  1  1  0  0  0
 26 30  1  0  0  0  0
 26 21  1  0  0  0  0
 27 25  1  0  0  0  0
 28 29  1  6  0  0  0
 28 25  1  0  0  0  0
 30 22  1  6  0  0  0
 30 24  1  0  0  0  0
 31 32  1  0  0  0  0
M  END
>  <MODEL>
8

>  <REMARK>
 VINA RESULT:      -9.2      2.953      7.377
  Name = 
  2 active torsions:
  status: ('A' for Active; 'I' for Inactive)
    1  A    between atoms: C_13  and  C_29
    2  A    between atoms: C_16  and  C_27
                            x       y       z     vdW  Elec       q    Type
                         _______ _______ _______ _____ _____    ______ ____

>  <TORSDO>
F 2

$$$$
=
 OpenBabel10232407493D

 32 37  0  0  1  0  0  0  0  0999 V2000
  186.2560  178.2020  141.3890 C   0  0  0  0  0  0  0  0  0  0  0  0
  187.0830  178.0190  143.6590 C   0  0  0  0  0  0  0  0  0  0  0  0
  185.1790  178.4880  140.5390 C   0  0  0  0  0  3  0  0  0  0  0  0
  186.0720  178.2960  142.7960 C   0  0  0  0  0  0  0  0  0  0  0  0
  186.9190  178.1020  145.0650 C   0  0  0  0  0  0  0  0  0  0  0  0
  191.4690  176.1070  144.4240 N   0  0  0  0  0  2  0  0  0  0  0  0
  188.3350  177.6310  143.1440 C   0  0  2  0  0  3  0  0  0  0  0  0
  190.2630  177.0030  146.3580 C   0  0  0  0  0  2  0  0  0  0  0  0
  189.1830  177.4060  145.3930 C   0  0  0  0  0  0  0  0  0  0  0  0
  184.8070  178.6780  143.2850 C   0  0  0  0  0  0  0  0  0  0  0  0
  187.9730  177.7940  145.8740 N   0  0  0  0  0  0  0  0  0  0  0  0
  184.5470  178.8070  144.7550 C   0  0  0  0  0  3  0  0  0  0  0  0
  183.7890  178.9370  142.4210 N   0  0  0  0  0  0  0  0  0  0  0  0
  188.5130  177.5670  141.7570 O   0  0  0  0  0  0  0  0  0  0  0  0
  187.4560  177.8470  140.8850 C   0  0  0  0  0  0  0  0  0  0  0  0
  189.3840  177.3060  144.0080 C   0  0  0  0  0  0  0  0  0  0  0  0
  185.7400  178.4660  145.6140 C   0  0  0  0  0  0  0  0  0  0  0  0
  183.9490  178.8520  141.0770 C   0  0  0  0  0  3  0  0  0  0  0  0
  191.6180  176.8630  145.6640 C   0  0  0  0  0  2  0  0  0  0  0  0
  190.7400  176.9370  143.4670 C   0  0  0  0  0  2  0  0  0  0  0  0
  188.9640  179.0660  137.5890 C   0  0  0  0  0  0  0  0  0  0  0  0
  187.0130  176.8390  135.3270 O   0  0  0  0  0  1  0  0  0  0  0  0
  189.2570  180.2330  137.3890 O   0  0  0  0  0  0  0  0  0  0  0  0
  186.3400  177.8910  137.3390 C   0  0  0  0  0  3  0  0  0  0  0  0
  187.7000  177.7580  139.4060 C   0  0  1  0  0  3  0  0  0  0  0  0
  188.6680  178.1860  136.4000 C   0  0  0  0  0  2  0  0  0  0  0  0
  186.4520  178.1340  138.6500 C   0  0  0  0  0  3  0  0  0  0  0  0
  188.9530  178.5570  139.0090 C   0  0  1  0  0  3  0  0  0  0  0  0
  190.4120  177.5840  139.3150 Cl  0  0  0  0  0  0  0  0  0  0  0  0
  187.4660  177.2530  136.5770 C   0  0  2  0  0  3  0  0  0  0  0  0
  185.5960  178.5100  147.1120 C   0  0  0  0  0  2  0  0  0  0  0  0
  185.7910  179.8000  147.6080 O   0  0  0  0  0  1  0  0  0  0  0  0
  1  4  1  0  0  0  0
  2  5  1  0  0  0  0
  3 18  2  0  0  0  0
  3  1  1  0  0  0  0
  4 10  1  0  0  0  0
  4  2  2  0  0  0  0
  5 17  1  0  0  0  0
  5 11  2  0  0  0  0
  6 19  1  0  0  0  0
  7 14  1  1  0  0  0
  7  2  1  0  0  0  0
  7 16  1  0  0  0  0
  9 11  1  0  0  0  0
  9  8  1  0  0  0  0
 10 12  1  0  0  0  0
 12 17  2  0  0  0  0
 13 10  2  0  0  0  0
 15  1  2  0  0  0  0
 15 14  1  0  0  0  0
 16  9  2  0  0  0  0
 17 31  1  0  0  0  0
 18 13  1  0  0  0  0
 19  8  1  0  0  0  0
 20 16  1  0  0  0  0
 20  6  1  0  0  0  0
 21 28  1  0  0  0  0
 23 21  2  0  0  0  0
 24 27  2  0  0  0  0
 25 15  1  1  0  0  0
 26 30  1  0  0  0  0
 26 21  1  0  0  0  0
 27 25  1  0  0  0  0
 28 29  1  6  0  0  0
 28 25  1  0  0  0  0
 30 22  1  6  0  0  0
 30 24  1  0  0  0  0
 31 32  1  0  0  0  0
M  END
>  <MODEL>
9

>  <REMARK>
 VINA RESULT:      -9.1      2.795      6.610
  Name = 
  2 active torsions:
  status: ('A' for Active; 'I' for Inactive)
    1  A    between atoms: C_13  and  C_29
    2  A    between atoms: C_16  and  C_27
                            x       y       z     vdW  Elec       q    Type
                         _______ _______ _______ _____ _____    ______ ____

>  <TORSDO>
F 2

$$$$
