=
 OpenBabel10222421313D

 34 35  0  0  1  0  0  0  0  0999 V2000
  187.7610  178.3270  139.5170 C   0  0  0  0  0  0  0  0  0  0  0  0
  187.1300  178.4440  140.7520 C   0  0  0  0  0  3  0  0  0  0  0  0
  187.0980  178.7580  138.3740 O   0  0  0  0  0  1  0  0  0  0  0  0
  189.0520  177.7840  139.4310 C   0  0  0  0  0  0  0  0  0  0  0  0
  187.7780  178.0280  141.9100 C   0  0  0  0  0  3  0  0  0  0  0  0
  189.7120  177.3350  140.6000 C   0  0  0  0  0  0  0  0  0  0  0  0
  189.0650  177.4750  141.8580 C   0  0  0  0  0  0  0  0  0  0  0  0
  190.2700  175.6980  143.1780 C   0  0  0  0  0  1  0  0  0  0  0  0
  189.7590  177.1310  143.1530 C   0  0  2  0  0  3  0  0  0  0  0  0
  187.5650  176.9590  144.3360 C   0  0  0  0  0  3  0  0  0  0  0  0
  189.6520  177.0460  145.6780 C   0  0  0  0  0  3  0  0  0  0  0  0
  188.9640  177.4810  144.4200 C   0  0  1  0  0  3  0  0  0  0  0  0
  186.8190  178.0440  146.4600 C   0  0  0  0  0  0  0  0  0  0  0  0
  187.9390  178.0440  147.1970 C   0  0  0  0  0  3  0  0  0  0  0  0
  189.2010  177.3390  146.8960 C   0  0  0  0  0  3  0  0  0  0  0  0
  186.6220  177.2500  145.2290 C   0  0  0  0  0  3  0  0  0  0  0  0
  185.6450  178.7870  146.9930 C   0  0  0  0  0  2  0  0  0  0  0  0
  184.7070  178.9760  145.9790 O   0  0  0  0  0  1  0  0  0  0  0  0
  192.2110  177.5140  140.5210 C   0  0  0  0  0  1  0  0  0  0  0  0
  190.9960  176.7820  140.4560 O   0  0  0  0  0  0  0  0  0  0  0  0
  189.6970  177.6750  138.0770 C   0  0  2  0  0  3  0  0  0  0  0  0
  189.3770  178.7840  137.2910 O   0  0  0  0  0  1  0  0  0  0  0  0
  189.2930  176.3810  137.3790 C   0  0  0  0  0  2  0  0  0  0  0  0
  188.6170  175.3630  134.6830 C   0  0  0  0  0  1  0  0  0  0  0  0
  190.3450  175.9450  136.4690 N   0  0  0  0  0  0  0  0  0  0  0  0
  190.0290  175.4460  135.1570 C   0  0  0  0  0  0  0  0  0  0  0  0
  190.9480  175.0620  134.3870 O   0  0  0  0  0  0  0  0  0  0  0  0
  191.7150  175.9300  136.9620 C   0  0  0  0  0  2  0  0  0  0  0  0
  191.9810  174.6490  137.7320 C   0  0  0  0  0  2  0  0  0  0  0  0
  193.3230  174.0840  137.3230 C   0  0  0  0  0  2  0  0  0  0  0  0
  194.4250  175.0050  137.8040 C   0  0  0  0  0  2  0  0  0  0  0  0
  195.2910  174.2900  138.7790 C   0  0  0  0  0  0  0  0  0  0  0  0
  196.1560  175.0050  139.5980 O   0  0  0  0  0  1  0  0  0  0  0  0
  195.2260  173.0370  138.8760 O   0  0  0  0  0  0  0  0  0  0  0  0
  1  2  1  0  0  0  0
  2  5  2  0  0  0  0
  3  1  1  0  0  0  0
  4  1  2  0  0  0  0
  4  6  1  0  0  0  0
  6  7  2  0  0  0  0
  7  5  1  0  0  0  0
  7  9  1  0  0  0  0
  9  8  1  6  0  0  0
 10 12  1  0  0  0  0
 10 16  2  0  0  0  0
 11 15  2  0  0  0  0
 12  9  1  6  0  0  0
 12 11  1  0  0  0  0
 13 17  1  0  0  0  0
 13 14  2  0  0  0  0
 15 14  1  0  0  0  0
 16 13  1  0  0  0  0
 18 17  1  0  0  0  0
 20 19  1  0  0  0  0
 20  6  1  0  0  0  0
 21 22  1  6  0  0  0
 21  4  1  0  0  0  0
 23 21  1  0  0  0  0
 24 26  1  0  0  0  0
 25 28  1  0  0  0  0
 25 23  1  0  0  0  0
 26 25  1  0  0  0  0
 27 26  2  0  0  0  0
 28 29  1  0  0  0  0
 30 29  1  0  0  0  0
 30 31  1  0  0  0  0
 31 32  1  0  0  0  0
 32 34  2  0  0  0  0
 32 33  1  0  0  0  0
M  END
>  <MODEL>
1

>  <REMARK>
 VINA RESULT:      -8.1      0.000      0.000
  Name = 
  12 active torsions:
  status: ('A' for Active; 'I' for Inactive)
    1  A    between atoms: C_2  and  C_5
    2  A    between atoms: C_2  and  C_10
    3  A    between atoms: C_6  and  C_7
    4  A    between atoms: C_6  and  N_19
    5  A    between atoms: C_7  and  C_21
    6  A    between atoms: C_9  and  C_17
    7  A    between atoms: C_10  and  C_27
    8  A    between atoms: C_15  and  C_32
    9  A    between atoms: N_19  and  C_23
   10  A    between atoms: C_23  and  C_27
   11  A    between atoms: O_25  and  C_30
   12  A    between atoms: C_31  and  C_32
                            x       y       z     vdW  Elec       q    Type
                         _______ _______ _______ _____ _____    ______ ____

>  <TORSDO>
F 12

$$$$
=
 OpenBabel10222421313D

 34 35  0  0  1  0  0  0  0  0999 V2000
  187.1930  178.3970  139.5180 C   0  0  0  0  0  0  0  0  0  0  0  0
  186.6820  178.5840  140.7990 C   0  0  0  0  0  3  0  0  0  0  0  0
  186.4530  178.8330  138.4250 O   0  0  0  0  0  1  0  0  0  0  0  0
  188.4390  177.7790  139.3370 C   0  0  0  0  0  0  0  0  0  0  0  0
  187.4080  178.1650  141.9090 C   0  0  0  0  0  3  0  0  0  0  0  0
  189.1760  177.3270  140.4570 C   0  0  0  0  0  0  0  0  0  0  0  0
  188.6540  177.5390  141.7620 C   0  0  0  0  0  0  0  0  0  0  0  0
  189.9450  175.7560  142.9900 C   0  0  0  0  0  1  0  0  0  0  0  0
  189.4420  177.1920  143.0020 C   0  0  2  0  0  3  0  0  0  0  0  0
  187.3690  176.9710  144.3780 C   0  0  0  0  0  3  0  0  0  0  0  0
  189.5610  177.1790  145.5270 C   0  0  0  0  0  3  0  0  0  0  0  0
  188.7480  177.5490  144.3240 C   0  0  1  0  0  3  0  0  0  0  0  0
  186.7690  178.0890  146.5310 C   0  0  0  0  0  0  0  0  0  0  0  0
  187.9480  178.1550  147.1650 C   0  0  0  0  0  3  0  0  0  0  0  0
  189.2070  177.4890  146.7730 C   0  0  0  0  0  3  0  0  0  0  0  0
  186.4970  177.2520  145.3440 C   0  0  0  0  0  3  0  0  0  0  0  0
  185.6160  178.8010  147.1470 C   0  0  0  0  0  2  0  0  0  0  0  0
  184.4720  178.6000  146.3770 O   0  0  0  0  0  1  0  0  0  0  0  0
  191.6680  177.3570  140.1780 C   0  0  0  0  0  1  0  0  0  0  0  0
  190.4100  176.6980  140.2180 O   0  0  0  0  0  0  0  0  0  0  0  0
  188.9530  177.5960  137.9350 C   0  0  2  0  0  3  0  0  0  0  0  0
  189.3050  178.8270  137.3780 O   0  0  0  0  0  1  0  0  0  0  0  0
  187.9270  176.8790  137.0640 C   0  0  0  0  0  2  0  0  0  0  0  0
  185.6560  174.9820  136.9990 C   0  0  0  0  0  1  0  0  0  0  0  0
  188.1650  175.4410  137.0770 N   0  0  0  0  0  0  0  0  0  0  0  0
  187.0700  174.5090  137.0480 C   0  0  0  0  0  0  0  0  0  0  0  0
  187.2920  173.2690  137.0710 O   0  0  0  0  0  0  0  0  0  0  0  0
  189.5370  174.9760  137.2260 C   0  0  0  0  0  2  0  0  0  0  0  0
  190.1690  174.7620  135.8620 C   0  0  0  0  0  2  0  0  0  0  0  0
  191.6740  174.8320  135.9870 C   0  0  0  0  0  2  0  0  0  0  0  0
  192.0630  176.1190  136.6860 C   0  0  0  0  0  2  0  0  0  0  0  0
  193.4940  176.0620  137.0900 C   0  0  0  0  0  0  0  0  0  0  0  0
  194.4370  176.8280  136.4190 O   0  0  0  0  0  0  0  0  0  0  0  0
  193.8460  175.3340  138.0540 O   0  0  0  0  0  1  0  0  0  0  0  0
  1  2  1  0  0  0  0
  2  5  2  0  0  0  0
  3  1  1  0  0  0  0
  4  1  2  0  0  0  0
  4  6  1  0  0  0  0
  6  7  2  0  0  0  0
  7  5  1  0  0  0  0
  7  9  1  0  0  0  0
  9  8  1  1  0  0  0
 10 16  2  0  0  0  0
 11 15  2  0  0  0  0
 12  9  1  6  0  0  0
 12 10  1  0  0  0  0
 12 11  1  0  0  0  0
 13 17  1  0  0  0  0
 13 14  2  0  0  0  0
 15 14  1  0  0  0  0
 16 13  1  0  0  0  0
 18 17  1  0  0  0  0
 19 20  1  0  0  0  0
 20  6  1  0  0  0  0
 21 22  1  6  0  0  0
 21  4  1  0  0  0  0
 23 25  1  0  0  0  0
 23 21  1  0  0  0  0
 24 26  1  0  0  0  0
 25 28  1  0  0  0  0
 26 27  2  0  0  0  0
 26 25  1  0  0  0  0
 29 30  1  0  0  0  0
 29 28  1  0  0  0  0
 30 31  1  0  0  0  0
 31 32  1  0  0  0  0
 32 34  1  0  0  0  0
 33 32  2  0  0  0  0
M  END
>  <MODEL>
2

>  <REMARK>
 VINA RESULT:      -7.9      1.633      1.897
  Name = 
  12 active torsions:
  status: ('A' for Active; 'I' for Inactive)
    1  A    between atoms: C_2  and  C_5
    2  A    between atoms: C_2  and  C_10
    3  A    between atoms: C_6  and  C_7
    4  A    between atoms: C_6  and  N_19
    5  A    between atoms: C_7  and  C_21
    6  A    between atoms: C_9  and  C_17
    7  A    between atoms: C_10  and  C_27
    8  A    between atoms: C_15  and  C_32
    9  A    between atoms: N_19  and  C_23
   10  A    between atoms: C_23  and  C_27
   11  A    between atoms: O_25  and  C_30
   12  A    between atoms: C_31  and  C_32
                            x       y       z     vdW  Elec       q    Type
                         _______ _______ _______ _____ _____    ______ ____

>  <TORSDO>
F 12

$$$$
=
 OpenBabel10222421313D

 34 35  0  0  1  0  0  0  0  0999 V2000
  186.9180  178.1790  142.1550 C   0  0  0  0  0  0  0  0  0  0  0  0
  186.4850  178.7160  140.9460 C   0  0  0  0  0  3  0  0  0  0  0  0
  186.1140  178.3140  143.2820 O   0  0  0  0  0  1  0  0  0  0  0  0
  188.1490  177.5100  142.2320 C   0  0  0  0  0  0  0  0  0  0  0  0
  187.2680  178.5850  139.8040 C   0  0  0  0  0  3  0  0  0  0  0  0
  188.9650  177.3920  141.0820 C   0  0  0  0  0  0  0  0  0  0  0  0
  188.5050  177.9280  139.8480 C   0  0  0  0  0  0  0  0  0  0  0  0
  188.9280  178.7830  137.5150 C   0  0  0  0  0  1  0  0  0  0  0  0
  189.2680  177.7310  138.5600 C   0  0  2  0  0  3  0  0  0  0  0  0
  188.1810  176.2120  136.9010 C   0  0  0  0  0  3  0  0  0  0  0  0
  190.5420  175.7960  137.5470 C   0  0  0  0  0  3  0  0  0  0  0  0
  189.2040  176.3070  137.9880 C   0  0  1  0  0  3  0  0  0  0  0  0
  188.4080  173.7380  136.6280 C   0  0  0  0  0  0  0  0  0  0  0  0
  189.6970  173.5280  136.9330 C   0  0  0  0  0  3  0  0  0  0  0  0
  190.7450  174.5520  137.1190 C   0  0  0  0  0  3  0  0  0  0  0  0
  187.8170  175.0620  136.3390 C   0  0  0  0  0  3  0  0  0  0  0  0
  187.5440  172.5430  136.4340 C   0  0  0  0  0  2  0  0  0  0  0  0
  186.4670  172.5900  137.3180 O   0  0  0  0  0  1  0  0  0  0  0  0
  191.4650  177.2980  140.9270 C   0  0  0  0  0  1  0  0  0  0  0  0
  190.1960  176.7280  141.2180 O   0  0  0  0  0  0  0  0  0  0  0  0
  188.5790  176.9470  143.5580 C   0  0  2  0  0  3  0  0  0  0  0  0
  187.5600  176.1710  144.1150 O   0  0  0  0  0  1  0  0  0  0  0  0
  189.0000  178.0560  144.5150 C   0  0  0  0  0  2  0  0  0  0  0  0
  191.9410  177.9620  144.1930 C   0  0  0  0  0  1  0  0  0  0  0  0
  189.8430  177.5200  145.5770 N   0  0  0  0  0  0  0  0  0  0  0  0
  191.2730  177.4660  145.4310 C   0  0  0  0  0  0  0  0  0  0  0  0
  191.9860  176.9880  146.3530 O   0  0  0  0  0  0  0  0  0  0  0  0
  189.1900  176.9430  146.7440 C   0  0  0  0  0  2  0  0  0  0  0  0
  189.1110  177.9690  147.8600 C   0  0  0  0  0  2  0  0  0  0  0  0
  187.6710  178.1330  148.2930 C   0  0  0  0  0  2  0  0  0  0  0  0
  186.7550  177.8230  147.1270 C   0  0  0  0  0  2  0  0  0  0  0  0
  185.6600  178.8290  147.0640 C   0  0  0  0  0  0  0  0  0  0  0  0
  185.8520  180.1010  147.5870 O   0  0  0  0  0  1  0  0  0  0  0  0
  184.5660  178.5320  146.5180 O   0  0  0  0  0  0  0  0  0  0  0  0
  1  4  1  0  0  0  0
  1  3  1  0  0  0  0
  2  1  2  0  0  0  0
  4 21  1  0  0  0  0
  5  7  2  0  0  0  0
  5  2  1  0  0  0  0
  6 20  1  0  0  0  0
  6  4  2  0  0  0  0
  7  6  1  0  0  0  0
  9  8  1  6  0  0  0
  9  7  1  0  0  0  0
 10 12  1  0  0  0  0
 11 12  1  0  0  0  0
 12  9  1  6  0  0  0
 13 14  2  0  0  0  0
 14 15  1  0  0  0  0
 15 11  2  0  0  0  0
 16 13  1  0  0  0  0
 16 10  2  0  0  0  0
 17 13  1  0  0  0  0
 17 18  1  0  0  0  0
 19 20  1  0  0  0  0
 21 22  1  1  0  0  0
 21 23  1  0  0  0  0
 23 25  1  0  0  0  0
 24 26  1  0  0  0  0
 25 28  1  0  0  0  0
 26 25  1  0  0  0  0
 26 27  2  0  0  0  0
 28 29  1  0  0  0  0
 29 30  1  0  0  0  0
 31 30  1  0  0  0  0
 32 31  1  0  0  0  0
 32 33  1  0  0  0  0
 34 32  2  0  0  0  0
M  END
>  <MODEL>
3

>  <REMARK>
 VINA RESULT:      -7.9      3.101      8.945
  Name = 
  12 active torsions:
  status: ('A' for Active; 'I' for Inactive)
    1  A    between atoms: C_2  and  C_5
    2  A    between atoms: C_2  and  C_10
    3  A    between atoms: C_6  and  C_7
    4  A    between atoms: C_6  and  N_19
    5  A    between atoms: C_7  and  C_21
    6  A    between atoms: C_9  and  C_17
    7  A    between atoms: C_10  and  C_27
    8  A    between atoms: C_15  and  C_32
    9  A    between atoms: N_19  and  C_23
   10  A    between atoms: C_23  and  C_27
   11  A    between atoms: O_25  and  C_30
   12  A    between atoms: C_31  and  C_32
                            x       y       z     vdW  Elec       q    Type
                         _______ _______ _______ _____ _____    ______ ____

>  <TORSDO>
F 12

$$$$
=
 OpenBabel10222421313D

 34 35  0  0  1  0  0  0  0  0999 V2000
  184.4950  178.6120  144.9140 C   0  0  0  0  0  0  0  0  0  0  0  0
  185.3060  178.0750  145.9090 C   0  0  0  0  0  3  0  0  0  0  0  0
  183.2470  179.1180  145.2590 O   0  0  0  0  0  1  0  0  0  0  0  0
  184.9360  178.6440  143.5830 C   0  0  0  0  0  0  0  0  0  0  0  0
  186.5630  177.5720  145.5910 C   0  0  0  0  0  3  0  0  0  0  0  0
  186.2020  178.1130  143.2430 C   0  0  0  0  0  0  0  0  0  0  0  0
  187.0300  177.5830  144.2690 C   0  0  0  0  0  0  0  0  0  0  0  0
  188.4780  175.8630  143.1280 C   0  0  0  0  0  1  0  0  0  0  0  0
  188.4380  177.1130  143.9950 C   0  0  2  0  0  3  0  0  0  0  0  0
  190.7730  176.9400  144.8670 C   0  0  0  0  0  3  0  0  0  0  0  0
  189.0390  178.0260  146.2750 C   0  0  0  0  0  3  0  0  0  0  0  0
  189.3250  176.9790  145.2410 C   0  0  1  0  0  3  0  0  0  0  0  0
  191.5670  176.4750  147.1910 C   0  0  0  0  0  0  0  0  0  0  0  0
  190.6520  177.1040  147.9430 C   0  0  0  0  0  3  0  0  0  0  0  0
  189.6100  178.0410  147.4780 C   0  0  0  0  0  3  0  0  0  0  0  0
  191.7450  176.6790  145.7380 C   0  0  0  0  0  3  0  0  0  0  0  0
  192.5600  175.6160  147.8910 C   0  0  0  0  0  2  0  0  0  0  0  0
  193.2290  176.3610  148.8600 O   0  0  0  0  0  1  0  0  0  0  0  0
  187.6160  178.9770  141.3610 C   0  0  0  0  0  1  0  0  0  0  0  0
  186.5880  178.1530  141.8910 O   0  0  0  0  0  0  0  0  0  0  0  0
  184.0270  179.2320  142.5390 C   0  0  2  0  0  3  0  0  0  0  0  0
  182.9140  179.8260  143.1370 O   0  0  0  0  0  1  0  0  0  0  0  0
  183.6000  178.1770  141.5250 C   0  0  0  0  0  2  0  0  0  0  0  0
  180.7730  178.3970  140.6750 C   0  0  0  0  0  1  0  0  0  0  0  0
  183.2570  178.8020  140.2540 N   0  0  0  0  0  0  0  0  0  0  0  0
  181.8880  178.9130  139.8280 C   0  0  0  0  0  0  0  0  0  0  0  0
  181.6090  179.4450  138.7210 O   0  0  0  0  0  0  0  0  0  0  0  0
  184.3460  179.2170  139.3800 C   0  0  0  0  0  2  0  0  0  0  0  0
  185.0290  178.0010  138.7810 C   0  0  0  0  0  2  0  0  0  0  0  0
  186.0580  178.4490  137.7670 C   0  0  0  0  0  2  0  0  0  0  0  0
  187.2280  177.4870  137.7780 C   0  0  0  0  0  2  0  0  0  0  0  0
  188.5050  178.2450  137.8710 C   0  0  0  0  0  0  0  0  0  0  0  0
  189.6580  177.6130  138.3200 O   0  0  0  0  0  1  0  0  0  0  0  0
  188.5450  179.4540  137.5250 O   0  0  0  0  0  0  0  0  0  0  0  0
  1  3  1  0  0  0  0
  1  2  1  0  0  0  0
  4  1  2  0  0  0  0
  5  2  2  0  0  0  0
  6  4  1  0  0  0  0
  6  7  2  0  0  0  0
  7  5  1  0  0  0  0
  9  8  1  1  0  0  0
  9  7  1  0  0  0  0
 10 12  1  0  0  0  0
 10 16  2  0  0  0  0
 11 15  2  0  0  0  0
 12  9  1  6  0  0  0
 12 11  1  0  0  0  0
 13 17  1  0  0  0  0
 13 14  2  0  0  0  0
 15 14  1  0  0  0  0
 16 13  1  0  0  0  0
 17 18  1  0  0  0  0
 19 20  1  0  0  0  0
 20  6  1  0  0  0  0
 21 22  1  1  0  0  0
 21  4  1  0  0  0  0
 23 21  1  0  0  0  0
 25 23  1  0  0  0  0
 26 25  1  0  0  0  0
 26 24  1  0  0  0  0
 27 26  2  0  0  0  0
 28 25  1  0  0  0  0
 29 28  1  0  0  0  0
 30 31  1  0  0  0  0
 30 29  1  0  0  0  0
 31 32  1  0  0  0  0
 32 33  1  0  0  0  0
 34 32  2  0  0  0  0
M  END
>  <MODEL>
4

>  <REMARK>
 VINA RESULT:      -7.5      3.830      6.727
  Name = 
  12 active torsions:
  status: ('A' for Active; 'I' for Inactive)
    1  A    between atoms: C_2  and  C_5
    2  A    between atoms: C_2  and  C_10
    3  A    between atoms: C_6  and  C_7
    4  A    between atoms: C_6  and  N_19
    5  A    between atoms: C_7  and  C_21
    6  A    between atoms: C_9  and  C_17
    7  A    between atoms: C_10  and  C_27
    8  A    between atoms: C_15  and  C_32
    9  A    between atoms: N_19  and  C_23
   10  A    between atoms: C_23  and  C_27
   11  A    between atoms: O_25  and  C_30
   12  A    between atoms: C_31  and  C_32
                            x       y       z     vdW  Elec       q    Type
                         _______ _______ _______ _____ _____    ______ ____

>  <TORSDO>
F 12

$$$$
=
 OpenBabel10222421313D

 34 35  0  0  1  0  0  0  0  0999 V2000
  188.2210  178.1870  139.8830 C   0  0  0  0  0  0  0  0  0  0  0  0
  187.3990  178.1210  138.7620 C   0  0  0  0  0  3  0  0  0  0  0  0
  187.8830  179.0490  140.9210 O   0  0  0  0  0  1  0  0  0  0  0  0
  189.3740  177.3920  139.9630 C   0  0  0  0  0  0  0  0  0  0  0  0
  187.7120  177.2590  137.7160 C   0  0  0  0  0  3  0  0  0  0  0  0
  189.7160  176.5300  138.8950 C   0  0  0  0  0  0  0  0  0  0  0  0
  188.8600  176.4560  137.7620 C   0  0  0  0  0  0  0  0  0  0  0  0
  189.5600  176.1440  135.3610 C   0  0  0  0  0  1  0  0  0  0  0  0
  189.0990  175.4700  136.6450 C   0  0  2  0  0  3  0  0  0  0  0  0
  187.3380  174.7020  135.0480 C   0  0  0  0  0  3  0  0  0  0  0  0
  188.3410  173.0580  136.6150 C   0  0  0  0  0  3  0  0  0  0  0  0
  187.9460  174.4870  136.3980 C   0  0  1  0  0  3  0  0  0  0  0  0
  185.4860  173.0610  135.3980 C   0  0  0  0  0  0  0  0  0  0  0  0
  186.0500  172.1520  136.2060 C   0  0  0  0  0  3  0  0  0  0  0  0
  187.4790  172.0440  136.5620 C   0  0  0  0  0  3  0  0  0  0  0  0
  186.2290  174.0890  134.6390 C   0  0  0  0  0  3  0  0  0  0  0  0
  184.0260  172.9400  135.1390 C   0  0  0  0  0  2  0  0  0  0  0  0
  183.7550  171.7150  134.5310 O   0  0  0  0  0  1  0  0  0  0  0  0
  192.0200  175.8690  138.1600 C   0  0  0  0  0  1  0  0  0  0  0  0
  190.8910  175.7680  139.0170 O   0  0  0  0  0  0  0  0  0  0  0  0
  190.2360  177.4960  141.1910 C   0  0  2  0  0  3  0  0  0  0  0  0
  191.5860  177.5560  140.8390 O   0  0  0  0  0  1  0  0  0  0  0  0
  189.9750  176.3350  142.1440 C   0  0  0  0  0  2  0  0  0  0  0  0
  191.9720  175.4210  144.1290 C   0  0  0  0  0  1  0  0  0  0  0  0
  189.9190  176.8100  143.5210 N   0  0  0  0  0  0  0  0  0  0  0  0
  190.8830  176.3720  144.4960 C   0  0  0  0  0  0  0  0  0  0  0  0
  190.8140  176.7820  145.6840 O   0  0  0  0  0  0  0  0  0  0  0  0
  188.8010  177.6590  143.9080 C   0  0  0  0  0  2  0  0  0  0  0  0
  187.5420  176.8250  144.0670 C   0  0  0  0  0  2  0  0  0  0  0  0
  186.3970  177.7170  144.4940 C   0  0  0  0  0  2  0  0  0  0  0  0
  186.2880  177.7080  146.0050 C   0  0  0  0  0  2  0  0  0  0  0  0
  185.3650  178.7880  146.4510 C   0  0  0  0  0  0  0  0  0  0  0  0
  184.0920  178.8850  145.9040 O   0  0  0  0  0  0  0  0  0  0  0  0
  185.7320  179.6010  147.3380 O   0  0  0  0  0  1  0  0  0  0  0  0
  1  4  1  0  0  0  0
  1  3  1  0  0  0  0
  2  1  2  0  0  0  0
  4 21  1  0  0  0  0
  5  7  2  0  0  0  0
  5  2  1  0  0  0  0
  6 20  1  0  0  0  0
  6  4  2  0  0  0  0
  7  6  1  0  0  0  0
  9  8  1  6  0  0  0
  9  7  1  0  0  0  0
 10 12  1  0  0  0  0
 12 11  1  0  0  0  0
 12  9  1  6  0  0  0
 13 14  2  0  0  0  0
 14 15  1  0  0  0  0
 15 11  2  0  0  0  0
 16 10  2  0  0  0  0
 16 13  1  0  0  0  0
 17 13  1  0  0  0  0
 18 17  1  0  0  0  0
 19 20  1  0  0  0  0
 21 22  1  6  0  0  0
 21 23  1  0  0  0  0
 23 25  1  0  0  0  0
 24 26  1  0  0  0  0
 25 28  1  0  0  0  0
 25 26  1  0  0  0  0
 26 27  2  0  0  0  0
 28 29  1  0  0  0  0
 29 30  1  0  0  0  0
 30 31  1  0  0  0  0
 31 32  1  0  0  0  0
 32 34  1  0  0  0  0
 33 32  2  0  0  0  0
M  END
>  <MODEL>
5

>  <REMARK>
 VINA RESULT:      -7.3      2.862      8.993
  Name = 
  12 active torsions:
  status: ('A' for Active; 'I' for Inactive)
    1  A    between atoms: C_2  and  C_5
    2  A    between atoms: C_2  and  C_10
    3  A    between atoms: C_6  and  C_7
    4  A    between atoms: C_6  and  N_19
    5  A    between atoms: C_7  and  C_21
    6  A    between atoms: C_9  and  C_17
    7  A    between atoms: C_10  and  C_27
    8  A    between atoms: C_15  and  C_32
    9  A    between atoms: N_19  and  C_23
   10  A    between atoms: C_23  and  C_27
   11  A    between atoms: O_25  and  C_30
   12  A    between atoms: C_31  and  C_32
                            x       y       z     vdW  Elec       q    Type
                         _______ _______ _______ _____ _____    ______ ____

>  <TORSDO>
F 12

$$$$
=
 OpenBabel10222421313D

 34 35  0  0  1  0  0  0  0  0999 V2000
  184.3560  178.8640  144.7130 C   0  0  0  0  0  0  0  0  0  0  0  0
  184.3900  178.7940  146.1030 C   0  0  0  0  0  3  0  0  0  0  0  0
  183.2190  179.3610  144.0880 O   0  0  0  0  0  1  0  0  0  0  0  0
  185.4590  178.4390  143.9560 C   0  0  0  0  0  0  0  0  0  0  0  0
  185.5210  178.3080  146.7510 C   0  0  0  0  0  3  0  0  0  0  0  0
  186.6060  177.9210  144.6040 C   0  0  0  0  0  0  0  0  0  0  0  0
  186.6370  177.8700  146.0240 C   0  0  0  0  0  0  0  0  0  0  0  0
  188.1350  178.3100  148.0040 C   0  0  0  0  0  1  0  0  0  0  0  0
  187.8720  177.4440  146.7800 C   0  0  2  0  0  3  0  0  0  0  0  0
  189.5980  178.5920  145.3870 C   0  0  0  0  0  3  0  0  0  0  0  0
  190.2220  176.5250  146.6130 C   0  0  0  0  0  3  0  0  0  0  0  0
  189.1280  177.2740  145.9130 C   0  0  1  0  0  3  0  0  0  0  0  0
  191.3880  177.6060  143.9480 C   0  0  0  0  0  0  0  0  0  0  0  0
  191.7520  176.5170  144.6400 C   0  0  0  0  0  3  0  0  0  0  0  0
  191.3590  176.1680  146.0200 C   0  0  0  0  0  3  0  0  0  0  0  0
  190.5740  178.7150  144.4900 C   0  0  0  0  0  3  0  0  0  0  0  0
  191.9570  177.7760  142.5830 C   0  0  0  0  0  2  0  0  0  0  0  0
  191.0460  177.3180  141.6330 O   0  0  0  0  0  1  0  0  0  0  0  0
  187.8520  176.1670  143.3160 C   0  0  0  0  0  1  0  0  0  0  0  0
  187.6750  177.4910  143.7990 O   0  0  0  0  0  0  0  0  0  0  0  0
  185.3800  178.5300  142.4580 C   0  0  2  0  0  3  0  0  0  0  0  0
  185.6210  179.8390  142.0330 O   0  0  0  0  0  1  0  0  0  0  0  0
  184.0320  178.0340  141.9480 C   0  0  0  0  0  2  0  0  0  0  0  0
  181.1960  178.5630  141.2850 C   0  0  0  0  0  1  0  0  0  0  0  0
  183.6770  178.7120  140.7070 N   0  0  0  0  0  0  0  0  0  0  0  0
  182.3030  178.9730  140.3720 C   0  0  0  0  0  0  0  0  0  0  0  0
  182.0120  179.5480  139.2910 O   0  0  0  0  0  0  0  0  0  0  0  0
  184.7450  179.0240  139.7670 C   0  0  0  0  0  2  0  0  0  0  0  0
  184.9070  177.8950  138.7650 C   0  0  0  0  0  2  0  0  0  0  0  0
  185.9520  178.2770  137.7400 C   0  0  0  0  0  2  0  0  0  0  0  0
  187.2060  177.4580  137.9690 C   0  0  0  0  0  2  0  0  0  0  0  0
  188.1590  178.2210  138.8190 C   0  0  0  0  0  0  0  0  0  0  0  0
  188.9740  179.1930  138.2520 O   0  0  0  0  0  0  0  0  0  0  0  0
  188.2140  177.9990  140.0560 O   0  0  0  0  0  1  0  0  0  0  0  0
  1  2  1  0  0  0  0
  2  5  2  0  0  0  0
  3  1  1  0  0  0  0
  4  6  1  0  0  0  0
  4  1  2  0  0  0  0
  6  7  2  0  0  0  0
  7  5  1  0  0  0  0
  7  9  1  0  0  0  0
  9  8  1  1  0  0  0
 10 12  1  0  0  0  0
 12 11  1  0  0  0  0
 12  9  1  1  0  0  0
 13 16  1  0  0  0  0
 13 14  2  0  0  0  0
 14 15  1  0  0  0  0
 15 11  2  0  0  0  0
 16 10  2  0  0  0  0
 17 13  1  0  0  0  0
 18 17  1  0  0  0  0
 19 20  1  0  0  0  0
 20  6  1  0  0  0  0
 21 22  1  1  0  0  0
 21  4  1  0  0  0  0
 23 21  1  0  0  0  0
 25 23  1  0  0  0  0
 26 25  1  0  0  0  0
 26 24  1  0  0  0  0
 27 26  2  0  0  0  0
 28 25  1  0  0  0  0
 29 28  1  0  0  0  0
 30 31  1  0  0  0  0
 30 29  1  0  0  0  0
 31 32  1  0  0  0  0
 32 34  1  0  0  0  0
 33 32  2  0  0  0  0
M  END
>  <MODEL>
6

>  <REMARK>
 VINA RESULT:      -7.3      3.660      6.747
  Name = 
  12 active torsions:
  status: ('A' for Active; 'I' for Inactive)
    1  A    between atoms: C_2  and  C_5
    2  A    between atoms: C_2  and  C_10
    3  A    between atoms: C_6  and  C_7
    4  A    between atoms: C_6  and  N_19
    5  A    between atoms: C_7  and  C_21
    6  A    between atoms: C_9  and  C_17
    7  A    between atoms: C_10  and  C_27
    8  A    between atoms: C_15  and  C_32
    9  A    between atoms: N_19  and  C_23
   10  A    between atoms: C_23  and  C_27
   11  A    between atoms: O_25  and  C_30
   12  A    between atoms: C_31  and  C_32
                            x       y       z     vdW  Elec       q    Type
                         _______ _______ _______ _____ _____    ______ ____

>  <TORSDO>
F 12

$$$$
=
 OpenBabel10222421313D

 34 35  0  0  1  0  0  0  0  0999 V2000
  185.5400  178.5780  139.1330 C   0  0  0  0  0  0  0  0  0  0  0  0
  184.3160  178.2890  138.5360 C   0  0  0  0  0  3  0  0  0  0  0  0
  185.5650  179.3710  140.2750 O   0  0  0  0  0  1  0  0  0  0  0  0
  186.7290  178.0720  138.5880 C   0  0  0  0  0  0  0  0  0  0  0  0
  184.2640  177.4910  137.3990 C   0  0  0  0  0  3  0  0  0  0  0  0
  186.6910  177.2780  137.4180 C   0  0  0  0  0  0  0  0  0  0  0  0
  185.4350  176.9740  136.8260 C   0  0  0  0  0  0  0  0  0  0  0  0
  184.6180  176.6790  134.4600 C   0  0  0  0  0  1  0  0  0  0  0  0
  185.3130  176.0350  135.6510 C   0  0  2  0  0  3  0  0  0  0  0  0
  184.6510  173.7930  134.7690 C   0  0  0  0  0  3  0  0  0  0  0  0
  185.4360  173.9790  137.1170 C   0  0  0  0  0  3  0  0  0  0  0  0
  184.7230  174.6580  135.9880 C   0  0  1  0  0  3  0  0  0  0  0  0
  183.4340  171.9350  135.9140 C   0  0  0  0  0  0  0  0  0  0  0  0
  183.8990  172.0110  137.1690 C   0  0  0  0  0  3  0  0  0  0  0  0
  185.0320  172.8270  137.6500 C   0  0  0  0  0  3  0  0  0  0  0  0
  184.0440  172.6090  134.7490 C   0  0  0  0  0  3  0  0  0  0  0  0
  182.3090  170.9970  135.6530 C   0  0  0  0  0  2  0  0  0  0  0  0
  182.7930  169.6930  135.5600 O   0  0  0  0  0  1  0  0  0  0  0  0
  188.4920  177.2280  135.6740 C   0  0  0  0  0  1  0  0  0  0  0  0
  187.9130  176.8110  136.9020 O   0  0  0  0  0  0  0  0  0  0  0  0
  188.0300  178.4090  139.2640 C   0  0  2  0  0  3  0  0  0  0  0  0
  188.8270  179.1940  138.4270 O   0  0  0  0  0  1  0  0  0  0  0  0
  188.7700  177.1470  139.6910 C   0  0  0  0  0  2  0  0  0  0  0  0
  191.6520  176.7580  139.1430 C   0  0  0  0  0  1  0  0  0  0  0  0
  189.7640  177.4610  140.7090 N   0  0  0  0  0  0  0  0  0  0  0  0
  191.1680  177.2740  140.4560 C   0  0  0  0  0  0  0  0  0  0  0  0
  192.0140  177.5390  141.3500 O   0  0  0  0  0  0  0  0  0  0  0  0
  189.2920  177.8690  142.0250 C   0  0  0  0  0  2  0  0  0  0  0  0
  188.7320  176.6730  142.7740 C   0  0  0  0  0  2  0  0  0  0  0  0
  188.9770  176.8470  144.2570 C   0  0  0  0  0  2  0  0  0  0  0  0
  190.2270  177.6770  144.4660 C   0  0  0  0  0  2  0  0  0  0  0  0
  191.3260  176.8150  144.9800 C   0  0  0  0  0  0  0  0  0  0  0  0
  191.8500  177.0360  146.2470 O   0  0  0  0  0  1  0  0  0  0  0  0
  191.7670  175.8720  144.2730 O   0  0  0  0  0  0  0  0  0  0  0  0
  1  3  1  0  0  0  0
  2  1  2  0  0  0  0
  4  1  1  0  0  0  0
  4 21  1  0  0  0  0
  5  2  1  0  0  0  0
  6  4  2  0  0  0  0
  7  5  2  0  0  0  0
  7  6  1  0  0  0  0
  9  8  1  6  0  0  0
  9  7  1  0  0  0  0
 10 12  1  0  0  0  0
 11 15  2  0  0  0  0
 12  9  1  6  0  0  0
 12 11  1  0  0  0  0
 13 14  2  0  0  0  0
 14 15  1  0  0  0  0
 16 10  2  0  0  0  0
 16 13  1  0  0  0  0
 17 13  1  0  0  0  0
 18 17  1  0  0  0  0
 19 20  1  0  0  0  0
 20  6  1  0  0  0  0
 21 22  1  6  0  0  0
 21 23  1  0  0  0  0
 23 25  1  0  0  0  0
 24 26  1  0  0  0  0
 25 28  1  0  0  0  0
 26 25  1  0  0  0  0
 26 27  2  0  0  0  0
 28 29  1  0  0  0  0
 29 30  1  0  0  0  0
 30 31  1  0  0  0  0
 31 32  1  0  0  0  0
 32 33  1  0  0  0  0
 34 32  2  0  0  0  0
M  END
>  <MODEL>
7

>  <REMARK>
 VINA RESULT:      -7.2      3.980      8.038
  Name = 
  12 active torsions:
  status: ('A' for Active; 'I' for Inactive)
    1  A    between atoms: C_2  and  C_5
    2  A    between atoms: C_2  and  C_10
    3  A    between atoms: C_6  and  C_7
    4  A    between atoms: C_6  and  N_19
    5  A    between atoms: C_7  and  C_21
    6  A    between atoms: C_9  and  C_17
    7  A    between atoms: C_10  and  C_27
    8  A    between atoms: C_15  and  C_32
    9  A    between atoms: N_19  and  C_23
   10  A    between atoms: C_23  and  C_27
   11  A    between atoms: O_25  and  C_30
   12  A    between atoms: C_31  and  C_32
                            x       y       z     vdW  Elec       q    Type
                         _______ _______ _______ _____ _____    ______ ____

>  <TORSDO>
F 12

$$$$
=
 OpenBabel10222421313D

 34 35  0  0  1  0  0  0  0  0999 V2000
  191.3780  177.4900  142.2030 C   0  0  0  0  0  0  0  0  0  0  0  0
  192.1660  177.2970  141.0720 C   0  0  0  0  0  3  0  0  0  0  0  0
  191.9840  177.5170  143.4540 O   0  0  0  0  0  1  0  0  0  0  0  0
  189.9910  177.6590  142.0790 C   0  0  0  0  0  0  0  0  0  0  0  0
  191.5830  177.2770  139.8100 C   0  0  0  0  0  3  0  0  0  0  0  0
  189.3830  177.6160  140.8010 C   0  0  0  0  0  0  0  0  0  0  0  0
  190.1990  177.4360  139.6510 C   0  0  0  0  0  0  0  0  0  0  0  0
  188.9840  178.8450  137.9500 C   0  0  0  0  0  1  0  0  0  0  0  0
  189.6330  177.5020  138.2540 C   0  0  2  0  0  3  0  0  0  0  0  0
  187.4910  176.8010  137.1760 C   0  0  0  0  0  3  0  0  0  0  0  0
  189.4410  175.2670  137.0860 C   0  0  0  0  0  3  0  0  0  0  0  0
  188.7250  176.3230  137.8720 C   0  0  1  0  0  3  0  0  0  0  0  0
  186.4230  174.5430  137.0890 C   0  0  0  0  0  0  0  0  0  0  0  0
  187.4800  173.7240  136.9930 C   0  0  0  0  0  3  0  0  0  0  0  0
  188.8830  174.1090  136.7400 C   0  0  0  0  0  3  0  0  0  0  0  0
  186.4690  176.0050  136.8720 C   0  0  0  0  0  3  0  0  0  0  0  0
  185.0870  173.9220  137.2930 C   0  0  0  0  0  2  0  0  0  0  0  0
  185.2110  172.7880  138.0950 O   0  0  0  0  0  1  0  0  0  0  0  0
  187.2800  178.9490  141.0950 C   0  0  0  0  0  1  0  0  0  0  0  0
  187.9880  177.7710  140.7340 O   0  0  0  0  0  0  0  0  0  0  0  0
  189.1770  177.8630  143.3260 C   0  0  2  0  0  3  0  0  0  0  0  0
  189.6250  178.9860  144.0250 O   0  0  0  0  0  1  0  0  0  0  0  0
  189.2100  176.6240  144.2130 C   0  0  0  0  0  2  0  0  0  0  0  0
  190.9080  176.6930  146.6360 C   0  0  0  0  0  1  0  0  0  0  0  0
  188.6260  176.9150  145.5160 N   0  0  0  0  0  0  0  0  0  0  0  0
  189.4400  176.9490  146.7020 C   0  0  0  0  0  0  0  0  0  0  0  0
  188.9190  177.1900  147.8220 O   0  0  0  0  0  0  0  0  0  0  0  0
  187.1800  177.0660  145.6000 C   0  0  0  0  0  2  0  0  0  0  0  0
  186.8290  178.4110  146.2110 C   0  0  0  0  0  2  0  0  0  0  0  0
  185.5470  178.9250  145.5960 C   0  0  0  0  0  2  0  0  0  0  0  0
  185.4170  178.3940  144.1830 C   0  0  0  0  0  2  0  0  0  0  0  0
  184.0300  178.6070  143.6890 C   0  0  0  0  0  0  0  0  0  0  0  0
  183.7480  178.4890  142.3340 O   0  0  0  0  0  0  0  0  0  0  0  0
  183.1080  178.8740  144.5010 O   0  0  0  0  0  1  0  0  0  0  0  0
  1  3  1  0  0  0  0
  2  1  2  0  0  0  0
  4  1  1  0  0  0  0
  4 21  1  0  0  0  0
  5  2  1  0  0  0  0
  6  4  2  0  0  0  0
  7  5  2  0  0  0  0
  7  6  1  0  0  0  0
  9  8  1  1  0  0  0
  9  7  1  0  0  0  0
 10 12  1  0  0  0  0
 11 12  1  0  0  0  0
 12  9  1  6  0  0  0
 13 17  1  0  0  0  0
 14 13  2  0  0  0  0
 15 14  1  0  0  0  0
 15 11  2  0  0  0  0
 16 13  1  0  0  0  0
 16 10  2  0  0  0  0
 17 18  1  0  0  0  0
 20  6  1  0  0  0  0
 20 19  1  0  0  0  0
 21 22  1  1  0  0  0
 21 23  1  0  0  0  0
 23 25  1  0  0  0  0
 24 26  1  0  0  0  0
 25 28  1  0  0  0  0
 25 26  1  0  0  0  0
 26 27  2  0  0  0  0
 28 29  1  0  0  0  0
 30 29  1  0  0  0  0
 31 30  1  0  0  0  0
 32 31  1  0  0  0  0
 32 34  1  0  0  0  0
 33 32  2  0  0  0  0
M  END
>  <MODEL>
8

>  <REMARK>
 VINA RESULT:      -7.2      3.285      9.015
  Name = 
  12 active torsions:
  status: ('A' for Active; 'I' for Inactive)
    1  A    between atoms: C_2  and  C_5
    2  A    between atoms: C_2  and  C_10
    3  A    between atoms: C_6  and  C_7
    4  A    between atoms: C_6  and  N_19
    5  A    between atoms: C_7  and  C_21
    6  A    between atoms: C_9  and  C_17
    7  A    between atoms: C_10  and  C_27
    8  A    between atoms: C_15  and  C_32
    9  A    between atoms: N_19  and  C_23
   10  A    between atoms: C_23  and  C_27
   11  A    between atoms: O_25  and  C_30
   12  A    between atoms: C_31  and  C_32
                            x       y       z     vdW  Elec       q    Type
                         _______ _______ _______ _____ _____    ______ ____

>  <TORSDO>
F 12

$$$$
=
 OpenBabel10222421313D

 34 35  0  0  1  0  0  0  0  0999 V2000
  185.9570  178.5640  140.7680 C   0  0  0  0  0  0  0  0  0  0  0  0
  187.1510  178.5780  141.4830 C   0  0  0  0  0  3  0  0  0  0  0  0
  185.9950  178.7100  139.3860 O   0  0  0  0  0  1  0  0  0  0  0  0
  184.7340  178.4030  141.4360 C   0  0  0  0  0  0  0  0  0  0  0  0
  187.1400  178.4250  142.8650 C   0  0  0  0  0  3  0  0  0  0  0  0
  184.7080  178.2710  142.8450 C   0  0  0  0  0  0  0  0  0  0  0  0
  185.9340  178.2680  143.5640 C   0  0  0  0  0  0  0  0  0  0  0  0
  185.4180  179.1640  145.8630 C   0  0  0  0  0  1  0  0  0  0  0  0
  185.9860  178.0090  145.0500 C   0  0  2  0  0  3  0  0  0  0  0  0
  188.4600  178.3310  144.9350 C   0  0  0  0  0  3  0  0  0  0  0  0
  187.4440  177.5770  147.0710 C   0  0  0  0  0  3  0  0  0  0  0  0
  187.3550  177.5530  145.5750 C   0  0  1  0  0  3  0  0  0  0  0  0
  190.2860  176.9800  145.9770 C   0  0  0  0  0  0  0  0  0  0  0  0
  189.7470  176.6160  147.1500 C   0  0  0  0  0  3  0  0  0  0  0  0
  188.4960  177.1230  147.7480 C   0  0  0  0  0  3  0  0  0  0  0  0
  189.7490  178.0380  145.0960 C   0  0  0  0  0  3  0  0  0  0  0  0
  191.5920  176.3720  145.6020 C   0  0  0  0  0  2  0  0  0  0  0  0
  192.3570  176.1540  146.7470 O   0  0  0  0  0  1  0  0  0  0  0  0
  182.6150  179.2070  143.8580 C   0  0  0  0  0  1  0  0  0  0  0  0
  183.4550  178.1310  143.4670 O   0  0  0  0  0  0  0  0  0  0  0  0
  183.4680  178.3960  140.6250 C   0  0  2  0  0  3  0  0  0  0  0  0
  183.0680  177.0850  140.3530 O   0  0  0  0  0  1  0  0  0  0  0  0
  183.6380  179.1900  139.3350 C   0  0  0  0  0  2  0  0  0  0  0  0
  183.9690  177.4080  136.9950 C   0  0  0  0  0  1  0  0  0  0  0  0
  182.5200  178.9390  138.4330 N   0  0  0  0  0  0  0  0  0  0  0  0
  182.6690  178.0770  137.2910 C   0  0  0  0  0  0  0  0  0  0  0  0
  181.6970  177.8800  136.5150 O   0  0  0  0  0  0  0  0  0  0  0  0
  181.2800  179.6680  138.6610 C   0  0  0  0  0  2  0  0  0  0  0  0
  181.1070  180.7490  137.6090 C   0  0  0  0  0  2  0  0  0  0  0  0
  181.5290  182.0830  138.1830 C   0  0  0  0  0  2  0  0  0  0  0  0
  180.6170  183.1710  137.6520 C   0  0  0  0  0  2  0  0  0  0  0  0
  181.4300  184.2650  137.0560 C   0  0  0  0  0  0  0  0  0  0  0  0
  181.1480  184.7240  135.7760 O   0  0  0  0  0  0  0  0  0  0  0  0
  182.3620  184.7890  137.7200 O   0  0  0  0  0  1  0  0  0  0  0  0
  1  4  2  0  0  0  0
  1  2  1  0  0  0  0
  2  5  2  0  0  0  0
  3  1  1  0  0  0  0
  4  6  1  0  0  0  0
  5  7  1  0  0  0  0
  6 20  1  0  0  0  0
  6  7  2  0  0  0  0
  7  9  1  0  0  0  0
  9  8  1  1  0  0  0
 10 16  2  0  0  0  0
 10 12  1  0  0  0  0
 11 15  2  0  0  0  0
 12  9  1  1  0  0  0
 12 11  1  0  0  0  0
 13 14  2  0  0  0  0
 14 15  1  0  0  0  0
 16 13  1  0  0  0  0
 17 13  1  0  0  0  0
 17 18  1  0  0  0  0
 20 19  1  0  0  0  0
 21 22  1  6  0  0  0
 21  4  1  0  0  0  0
 23 21  1  0  0  0  0
 24 26  1  0  0  0  0
 25 28  1  0  0  0  0
 25 23  1  0  0  0  0
 26 25  1  0  0  0  0
 27 26  2  0  0  0  0
 29 30  1  0  0  0  0
 29 28  1  0  0  0  0
 31 30  1  0  0  0  0
 32 31  1  0  0  0  0
 32 34  1  0  0  0  0
 33 32  2  0  0  0  0
M  END
>  <MODEL>
9

>  <REMARK>
 VINA RESULT:      -7.2      4.996      8.665
  Name = 
  12 active torsions:
  status: ('A' for Active; 'I' for Inactive)
    1  A    between atoms: C_2  and  C_5
    2  A    between atoms: C_2  and  C_10
    3  A    between atoms: C_6  and  C_7
    4  A    between atoms: C_6  and  N_19
    5  A    between atoms: C_7  and  C_21
    6  A    between atoms: C_9  and  C_17
    7  A    between atoms: C_10  and  C_27
    8  A    between atoms: C_15  and  C_32
    9  A    between atoms: N_19  and  C_23
   10  A    between atoms: C_23  and  C_27
   11  A    between atoms: O_25  and  C_30
   12  A    between atoms: C_31  and  C_32
                            x       y       z     vdW  Elec       q    Type
                         _______ _______ _______ _____ _____    ______ ____

>  <TORSDO>
F 12

$$$$
