=
 OpenBabel10232412353D

 37 38  0  0  1  0  0  0  0  0999 V2000
  189.9540  177.8030  141.8900 C   0  0  0  0  0  2  0  0  0  0  0  0
  190.6260  175.7100  142.9940 C   0  0  0  0  0  1  0  0  0  0  0  0
  188.3150  176.4940  143.2280 C   0  0  0  0  0  1  0  0  0  0  0  0
  189.7640  176.9510  143.1470 C   0  0  0  0  0  0  0  0  0  0  0  0
  190.9290  179.0180  144.1670 C   0  0  0  0  0  1  0  0  0  0  0  0
  190.1350  177.7410  144.4250 C   0  0  1  0  0  3  0  0  0  0  0  0
  188.8860  177.5350  146.6720 C   0  0  0  0  0  0  0  0  0  0  0  0
  188.9980  177.9850  145.3170 N   0  0  0  0  0  2  0  0  0  0  0  0
  189.7780  176.8140  147.1900 O   0  0  0  0  0  0  0  0  0  0  0  0
  187.6720  177.8800  147.4680 C   0  0  0  0  0  2  0  0  0  0  0  0
  186.4040  177.7350  146.6310 C   0  0  0  0  0  2  0  0  0  0  0  0
  185.6000  179.0270  146.6030 C   0  0  0  0  0  2  0  0  0  0  0  0
  182.6470  178.8010  144.4540 O   0  0  0  0  0  0  0  0  0  0  0  0
  183.8400  179.0160  144.7910 C   0  0  0  0  0  0  0  0  0  0  0  0
  184.2460  178.7700  146.1380 N   0  0  0  0  0  2  0  0  0  0  0  0
  184.8070  179.5440  143.7790 C   0  0  0  0  0  2  0  0  0  0  0  0
  185.3580  179.5260  141.4720 O   0  0  0  0  0  0  0  0  0  0  0  0
  184.4780  179.0100  142.3960 C   0  0  0  0  0  3  0  0  0  0  0  0
  185.5470  178.2790  141.9300 O   0  0  0  0  0  0  0  0  0  0  0  0
  191.2900  177.1900  140.8060 S   0  0  0  0  0  0  0  0  0  0  0  0
  190.1140  176.7120  139.4910 C   0  0  2  0  0  3  0  0  0  0  0  0
  192.0080  174.9320  136.6220 C   0  0  0  0  0  0  0  0  0  0  0  0
  192.3340  176.5780  138.2860 C   0  0  0  0  0  2  0  0  0  0  0  0
  190.3950  174.9400  137.3790 S   0  0  0  0  0  0  0  0  0  0  0  0
  192.2660  174.0990  135.4120 C   0  0  0  0  0  1  0  0  0  0  0  0
  192.8840  175.7770  137.1620 C   0  0  0  0  0  0  0  0  0  0  0  0
  190.8160  176.5440  138.1410 C   0  0  1  0  0  3  0  0  0  0  0  0
  194.6040  176.9170  135.9590 O   0  0  0  0  0  0  0  0  0  0  0  0
  194.2850  175.9660  136.7240 C   0  0  0  0  0  0  0  0  0  0  0  0
  195.2590  175.0650  137.1620 O   0  0  0  0  0  0  0  0  0  0  0  0
  195.1890  172.9750  138.3330 C   0  0  0  0  0  1  0  0  0  0  0  0
  195.2160  174.4840  138.4560 C   0  0  0  0  0  2  0  0  0  0  0  0
  188.9880  177.7390  139.4010 C   0  0  0  0  0  2  0  0  0  0  0  0
  188.8110  178.1660  138.0830 O   0  0  0  0  0  0  0  0  0  0  0  0
  186.7990  176.4830  137.1700 O   0  0  0  0  0  0  0  0  0  0  0  0
  186.1300  178.8790  137.9840 O   0  0  0  0  0  0  0  0  0  0  0  0
  187.1890  177.8310  137.7340 P   0  0  0  0  0  0  0  0  0  0  0  0
  1  4  1  0  0  0  0
  2  4  1  0  0  0  0
  4  3  1  0  0  0  0
  4  6  1  0  0  0  0
  6  5  1  6  0  0  0
  6  8  1  0  0  0  0
  7  9  2  0  0  0  0
  7 10  1  0  0  0  0
  8  7  1  0  0  0  0
 11 10  1  0  0  0  0
 12 11  1  0  0  0  0
 13 14  2  0  0  0  0
 14 15  1  0  0  0  0
 15 12  1  0  0  0  0
 16 14  1  0  0  0  0
 17 19  1  0  0  0  0
 17 18  1  0  0  0  0
 18 16  1  0  0  0  0
 19 18  1  0  0  0  0
 20  1  1  0  0  0  0
 21 33  1  6  0  0  0
 21 20  1  0  0  0  0
 22 26  2  0  0  0  0
 22 24  1  0  0  0  0
 24 27  1  0  0  0  0
 25 22  1  0  0  0  0
 26 23  1  0  0  0  0
 27 23  1  0  0  0  0
 27 21  1  1  0  0  0
 28 29  2  0  0  0  0
 29 26  1  0  0  0  0
 29 30  1  0  0  0  0
 30 32  1  0  0  0  0
 31 32  1  0  0  0  0
 34 33  1  0  0  0  0
 35 37  2  0  0  0  0
 37 36  2  0  0  0  0
 37 34  1  0  0  0  0
M  END
>  <MODEL>
1

>  <REMARK>
 VINA RESULT:      -7.2      0.000      0.000
  Name = 
  18 active torsions:
  status: ('A' for Active; 'I' for Inactive)
    1  A    between atoms: C_1  and  C_28
    2  A    between atoms: S_4  and  C_13
    3  A    between atoms: S_4  and  C_34
    4  A    between atoms: C_6  and  C_10
    5  A    between atoms: C_6  and  C_22
    6  A    between atoms: N_7  and  C_32
    7  A    between atoms: C_9  and  C_21
    8  A    between atoms: C_9  and  N_31
    9  A    between atoms: O_11  and  C_36
   10  A    between atoms: O_11  and  C_37
   11  A    between atoms: C_13  and  C_30
   12  A    between atoms: C_21  and  C_28
   13  A    between atoms: C_24  and  C_36
   14  A    between atoms: C_25  and  C_34
   15  A    between atoms: P_26  and  O_33
   16  A    between atoms: C_30  and  C_32
   17  A    between atoms: O_33  and  C_35
   18  A    between atoms: C_34  and  C_35
                            x       y       z     vdW  Elec       q    Type
                         _______ _______ _______ _____ _____    ______ ____

>  <TORSDO>
F 18

$$$$
=
 OpenBabel10232412353D

 37 38  0  0  1  0  0  0  0  0999 V2000
  190.1880  177.2770  141.7290 C   0  0  0  0  0  2  0  0  0  0  0  0
  190.5120  175.3620  143.2400 C   0  0  0  0  0  1  0  0  0  0  0  0
  188.3110  176.4370  143.1300 C   0  0  0  0  0  1  0  0  0  0  0  0
  189.8090  176.7000  143.0960 C   0  0  0  0  0  0  0  0  0  0  0  0
  190.8890  178.9450  143.7800 C   0  0  0  0  0  1  0  0  0  0  0  0
  190.1940  177.6670  144.2410 C   0  0  1  0  0  3  0  0  0  0  0  0
  188.9750  177.4660  146.5050 C   0  0  0  0  0  0  0  0  0  0  0  0
  189.0930  177.9550  145.1640 N   0  0  0  0  0  2  0  0  0  0  0  0
  189.8250  176.6680  146.9800 O   0  0  0  0  0  0  0  0  0  0  0  0
  187.8020  177.8630  147.3370 C   0  0  0  0  0  2  0  0  0  0  0  0
  186.4960  177.6920  146.5660 C   0  0  0  0  0  2  0  0  0  0  0  0
  185.7180  178.9980  146.4840 C   0  0  0  0  0  2  0  0  0  0  0  0
  182.6370  178.7970  144.5180 O   0  0  0  0  0  0  0  0  0  0  0  0
  183.8480  179.0130  144.7840 C   0  0  0  0  0  0  0  0  0  0  0  0
  184.3380  178.7400  146.0980 N   0  0  0  0  0  2  0  0  0  0  0  0
  184.7470  179.5710  143.7270 C   0  0  0  0  0  2  0  0  0  0  0  0
  185.2580  179.4810  141.4130 O   0  0  0  0  0  0  0  0  0  0  0  0
  184.4170  178.9670  142.3730 C   0  0  0  0  0  3  0  0  0  0  0  0
  185.5070  178.2630  141.9160 O   0  0  0  0  0  0  0  0  0  0  0  0
  188.7420  177.8440  140.7680 S   0  0  0  0  0  0  0  0  0  0  0  0
  189.6520  177.7410  139.1860 C   0  0  2  0  0  3  0  0  0  0  0  0
  186.3760  177.0200  137.2540 C   0  0  0  0  0  0  0  0  0  0  0  0
  188.5820  176.2070  137.4840 C   0  0  0  0  0  2  0  0  0  0  0  0
  187.0160  178.1750  138.4510 S   0  0  0  0  0  0  0  0  0  0  0  0
  185.0040  177.1990  136.6980 C   0  0  0  0  0  1  0  0  0  0  0  0
  187.2400  176.0880  136.8580 C   0  0  0  0  0  0  0  0  0  0  0  0
  188.6990  177.6390  137.9930 C   0  0  1  0  0  3  0  0  0  0  0  0
  187.4500  175.0560  134.7140 O   0  0  0  0  0  0  0  0  0  0  0  0
  186.9630  175.0150  135.8770 C   0  0  0  0  0  0  0  0  0  0  0  0
  186.1400  173.9500  136.2510 O   0  0  0  0  0  0  0  0  0  0  0  0
  187.7320  172.3420  137.0420 C   0  0  0  0  0  1  0  0  0  0  0  0
  186.4590  173.1050  137.3460 C   0  0  0  0  0  2  0  0  0  0  0  0
  190.6210  176.5610  139.2180 C   0  0  0  0  0  2  0  0  0  0  0  0
  191.8030  176.8710  138.5400 O   0  0  0  0  0  0  0  0  0  0  0  0
  191.3250  174.2340  137.8120 O   0  0  0  0  0  0  0  0  0  0  0  0
  193.5570  175.3490  137.0200 O   0  0  0  0  0  0  0  0  0  0  0  0
  192.2440  175.4340  137.7620 P   0  0  0  0  0  0  0  0  0  0  0  0
  1  4  1  0  0  0  0
  4  3  1  0  0  0  0
  4  2  1  0  0  0  0
  4  6  1  0  0  0  0
  6  5  1  6  0  0  0
  6  8  1  0  0  0  0
  7  9  2  0  0  0  0
  7 10  1  0  0  0  0
  8  7  1  0  0  0  0
 11 10  1  0  0  0  0
 12 11  1  0  0  0  0
 13 14  2  0  0  0  0
 14 15  1  0  0  0  0
 15 12  1  0  0  0  0
 16 14  1  0  0  0  0
 17 19  1  0  0  0  0
 17 18  1  0  0  0  0
 18 16  1  0  0  0  0
 19 18  1  0  0  0  0
 20  1  1  0  0  0  0
 21 33  1  1  0  0  0
 21 20  1  0  0  0  0
 22 24  1  0  0  0  0
 23 27  1  0  0  0  0
 25 22  1  0  0  0  0
 26 22  2  0  0  0  0
 26 23  1  0  0  0  0
 27 24  1  0  0  0  0
 27 21  1  1  0  0  0
 28 29  2  0  0  0  0
 29 30  1  0  0  0  0
 29 26  1  0  0  0  0
 30 32  1  0  0  0  0
 31 32  1  0  0  0  0
 34 33  1  0  0  0  0
 36 37  2  0  0  0  0
 37 35  2  0  0  0  0
 37 34  1  0  0  0  0
M  END
>  <MODEL>
2

>  <REMARK>
 VINA RESULT:      -6.9      2.566      4.225
  Name = 
  18 active torsions:
  status: ('A' for Active; 'I' for Inactive)
    1  A    between atoms: C_1  and  C_28
    2  A    between atoms: S_4  and  C_13
    3  A    between atoms: S_4  and  C_34
    4  A    between atoms: C_6  and  C_10
    5  A    between atoms: C_6  and  C_22
    6  A    between atoms: N_7  and  C_32
    7  A    between atoms: C_9  and  C_21
    8  A    between atoms: C_9  and  N_31
    9  A    between atoms: O_11  and  C_36
   10  A    between atoms: O_11  and  C_37
   11  A    between atoms: C_13  and  C_30
   12  A    between atoms: C_21  and  C_28
   13  A    between atoms: C_24  and  C_36
   14  A    between atoms: C_25  and  C_34
   15  A    between atoms: P_26  and  O_33
   16  A    between atoms: C_30  and  C_32
   17  A    between atoms: O_33  and  C_35
   18  A    between atoms: C_34  and  C_35
                            x       y       z     vdW  Elec       q    Type
                         _______ _______ _______ _____ _____    ______ ____

>  <TORSDO>
F 18

$$$$
=
 OpenBabel10232412353D

 37 38  0  0  1  0  0  0  0  0999 V2000
  190.3800  176.3630  141.5800 C   0  0  0  0  0  2  0  0  0  0  0  0
  188.5480  176.1410  143.2060 C   0  0  0  0  0  1  0  0  0  0  0  0
  188.8610  178.2770  142.0450 C   0  0  0  0  0  1  0  0  0  0  0  0
  189.5950  177.0990  142.6680 C   0  0  0  0  0  0  0  0  0  0  0  0
  190.9160  179.0750  143.6780 C   0  0  0  0  0  1  0  0  0  0  0  0
  190.5300  177.6040  143.7930 C   0  0  1  0  0  3  0  0  0  0  0  0
  190.8860  176.8790  146.2430 C   0  0  0  0  0  0  0  0  0  0  0  0
  190.0600  177.2730  145.1420 N   0  0  0  0  0  2  0  0  0  0  0  0
  192.1270  176.7240  146.0970 O   0  0  0  0  0  0  0  0  0  0  0  0
  190.2640  176.5930  147.5690 C   0  0  0  0  0  2  0  0  0  0  0  0
  189.2880  177.6940  147.9700 C   0  0  0  0  0  2  0  0  0  0  0  0
  187.8460  177.2110  147.9190 C   0  0  0  0  0  2  0  0  0  0  0  0
  185.3740  179.6800  146.8290 O   0  0  0  0  0  0  0  0  0  0  0  0
  186.1230  178.6700  146.7840 C   0  0  0  0  0  0  0  0  0  0  0  0
  186.9330  178.3450  147.9150 N   0  0  0  0  0  2  0  0  0  0  0  0
  186.1670  177.8400  145.5410 C   0  0  0  0  0  2  0  0  0  0  0  0
  185.4830  177.8160  143.2700 O   0  0  0  0  0  0  0  0  0  0  0  0
  185.7050  178.6500  144.3420 C   0  0  0  0  0  3  0  0  0  0  0  0
  184.4370  178.2490  143.9890 O   0  0  0  0  0  0  0  0  0  0  0  0
  191.0370  177.4800  140.2930 S   0  0  0  0  0  0  0  0  0  0  0  0
  190.1610  176.5880  138.9580 C   0  0  2  0  0  3  0  0  0  0  0  0
  192.5020  174.2380  136.9640 C   0  0  0  0  0  0  0  0  0  0  0  0
  192.5720  176.1700  138.3230 C   0  0  0  0  0  2  0  0  0  0  0  0
  190.7690  174.4310  137.3290 S   0  0  0  0  0  0  0  0  0  0  0  0
  192.9560  173.1770  136.0190 C   0  0  0  0  0  1  0  0  0  0  0  0
  193.2960  175.1510  137.5180 C   0  0  0  0  0  0  0  0  0  0  0  0
  191.1220  176.1430  137.8540 C   0  0  1  0  0  3  0  0  0  0  0  0
  195.5300  174.8720  138.3190 O   0  0  0  0  0  0  0  0  0  0  0  0
  194.7680  175.2190  137.3740 C   0  0  0  0  0  0  0  0  0  0  0  0
  195.3110  175.6860  136.1750 O   0  0  0  0  0  0  0  0  0  0  0  0
  195.6510  177.7160  134.9470 C   0  0  0  0  0  1  0  0  0  0  0  0
  194.6530  176.6650  135.3850 C   0  0  0  0  0  2  0  0  0  0  0  0
  189.0420  177.4620  138.3960 C   0  0  0  0  0  2  0  0  0  0  0  0
  187.8940  176.7030  138.1540 O   0  0  0  0  0  0  0  0  0  0  0  0
  186.5200  177.7400  135.9740 O   0  0  0  0  0  0  0  0  0  0  0  0
  186.0940  178.8090  138.3250 O   0  0  0  0  0  0  0  0  0  0  0  0
  186.7960  177.7890  137.4610 P   0  0  0  0  0  0  0  0  0  0  0  0
  1  4  1  0  0  0  0
  3  4  1  0  0  0  0
  4  2  1  0  0  0  0
  4  6  1  0  0  0  0
  6  5  1  1  0  0  0
  6  8  1  0  0  0  0
  7 10  1  0  0  0  0
  8  7  1  0  0  0  0
  9  7  2  0  0  0  0
 10 11  1  0  0  0  0
 12 11  1  0  0  0  0
 14 13  2  0  0  0  0
 14 15  1  0  0  0  0
 15 12  1  0  0  0  0
 16 14  1  0  0  0  0
 17 19  1  0  0  0  0
 17 18  1  0  0  0  0
 18 16  1  0  0  0  0
 19 18  1  0  0  0  0
 20  1  1  0  0  0  0
 21 33  1  6  0  0  0
 21 20  1  0  0  0  0
 22 24  1  0  0  0  0
 22 26  2  0  0  0  0
 24 27  1  0  0  0  0
 25 22  1  0  0  0  0
 26 23  1  0  0  0  0
 27 23  1  0  0  0  0
 27 21  1  1  0  0  0
 29 26  1  0  0  0  0
 29 28  2  0  0  0  0
 30 29  1  0  0  0  0
 31 32  1  0  0  0  0
 32 30  1  0  0  0  0
 34 33  1  0  0  0  0
 35 37  2  0  0  0  0
 37 34  1  0  0  0  0
 37 36  2  0  0  0  0
M  END
>  <MODEL>
3

>  <REMARK>
 VINA RESULT:      -6.6      1.508      2.250
  Name = 
  18 active torsions:
  status: ('A' for Active; 'I' for Inactive)
    1  A    between atoms: C_1  and  C_28
    2  A    between atoms: S_4  and  C_13
    3  A    between atoms: S_4  and  C_34
    4  A    between atoms: C_6  and  C_10
    5  A    between atoms: C_6  and  C_22
    6  A    between atoms: N_7  and  C_32
    7  A    between atoms: C_9  and  C_21
    8  A    between atoms: C_9  and  N_31
    9  A    between atoms: O_11  and  C_36
   10  A    between atoms: O_11  and  C_37
   11  A    between atoms: C_13  and  C_30
   12  A    between atoms: C_21  and  C_28
   13  A    between atoms: C_24  and  C_36
   14  A    between atoms: C_25  and  C_34
   15  A    between atoms: P_26  and  O_33
   16  A    between atoms: C_30  and  C_32
   17  A    between atoms: O_33  and  C_35
   18  A    between atoms: C_34  and  C_35
                            x       y       z     vdW  Elec       q    Type
                         _______ _______ _______ _____ _____    ______ ____

>  <TORSDO>
F 18

$$$$
=
 OpenBabel10232412353D

 37 38  0  0  1  0  0  0  0  0999 V2000
  187.9240  177.5820  139.6180 C   0  0  0  0  0  2  0  0  0  0  0  0
  190.3770  177.5620  139.4410 C   0  0  0  0  0  1  0  0  0  0  0  0
  189.0830  179.0130  137.9460 C   0  0  0  0  0  1  0  0  0  0  0  0
  189.0940  177.6560  138.6350 C   0  0  0  0  0  0  0  0  0  0  0  0
  190.0360  175.4170  137.7560 C   0  0  0  0  0  1  0  0  0  0  0  0
  189.0100  176.5320  137.5740 C   0  0  1  0  0  3  0  0  0  0  0  0
  186.8740  176.0960  136.1960 C   0  0  0  0  0  0  0  0  0  0  0  0
  187.6590  175.9960  137.3900 N   0  0  0  0  0  2  0  0  0  0  0  0
  187.2950  176.7380  135.1980 O   0  0  0  0  0  0  0  0  0  0  0  0
  185.5160  175.4800  136.1500 C   0  0  0  0  0  2  0  0  0  0  0  0
  184.7080  175.8300  137.3960 C   0  0  0  0  0  2  0  0  0  0  0  0
  184.0050  177.1720  137.2500 C   0  0  0  0  0  2  0  0  0  0  0  0
  184.7300  179.9380  139.5350 O   0  0  0  0  0  0  0  0  0  0  0  0
  184.0670  179.0480  138.9420 C   0  0  0  0  0  0  0  0  0  0  0  0
  184.7180  178.1990  137.9960 N   0  0  0  0  0  2  0  0  0  0  0  0
  182.6050  178.9080  139.2250 C   0  0  0  0  0  2  0  0  0  0  0  0
  181.7890  178.9440  141.4520 O   0  0  0  0  0  0  0  0  0  0  0  0
  182.3820  178.1320  140.5120 C   0  0  0  0  0  3  0  0  0  0  0  0
  181.0320  178.0700  140.7720 O   0  0  0  0  0  0  0  0  0  0  0  0
  188.1320  178.6830  141.0610 S   0  0  0  0  0  0  0  0  0  0  0  0
  188.1810  177.2780  142.2290 C   0  0  2  0  0  3  0  0  0  0  0  0
  185.1780  178.6790  144.2280 C   0  0  0  0  0  0  0  0  0  0  0  0
  187.3150  177.7290  144.5620 C   0  0  0  0  0  2  0  0  0  0  0  0
  185.6670  178.4010  142.5380 S   0  0  0  0  0  0  0  0  0  0  0  0
  183.8100  179.1860  144.5400 C   0  0  0  0  0  1  0  0  0  0  0  0
  186.0780  178.3160  145.1390 C   0  0  0  0  0  0  0  0  0  0  0  0
  186.9600  177.2690  143.1510 C   0  0  1  0  0  3  0  0  0  0  0  0
  184.7890  178.3290  147.1500 O   0  0  0  0  0  0  0  0  0  0  0  0
  185.9220  178.4390  146.6060 C   0  0  0  0  0  0  0  0  0  0  0  0
  187.0510  178.6920  147.3880 O   0  0  0  0  0  0  0  0  0  0  0  0
  189.1030  177.5340  147.8290 C   0  0  0  0  0  1  0  0  0  0  0  0
  187.6420  177.6870  148.1980 C   0  0  0  0  0  2  0  0  0  0  0  0
  189.4790  177.3140  143.0330 C   0  0  0  0  0  2  0  0  0  0  0  0
  190.2510  176.1780  142.7790 O   0  0  0  0  0  0  0  0  0  0  0  0
  191.6420  177.3980  144.8510 O   0  0  0  0  0  0  0  0  0  0  0  0
  192.2250  174.9140  144.2670 O   0  0  0  0  0  0  0  0  0  0  0  0
  191.4130  176.1620  144.0100 P   0  0  0  0  0  0  0  0  0  0  0  0
  1 20  1  0  0  0  0
  3  4  1  0  0  0  0
  4  2  1  0  0  0  0
  4  1  1  0  0  0  0
  6  5  1  1  0  0  0
  6  4  1  0  0  0  0
  7  8  1  0  0  0  0
  8  6  1  0  0  0  0
  9  7  2  0  0  0  0
 10  7  1  0  0  0  0
 10 11  1  0  0  0  0
 12 11  1  0  0  0  0
 12 15  1  0  0  0  0
 14 16  1  0  0  0  0
 14 13  2  0  0  0  0
 15 14  1  0  0  0  0
 16 18  1  0  0  0  0
 18 19  1  0  0  0  0
 18 17  1  0  0  0  0
 19 17  1  0  0  0  0
 20 21  1  0  0  0  0
 21 33  1  1  0  0  0
 22 25  1  0  0  0  0
 22 26  2  0  0  0  0
 23 26  1  0  0  0  0
 24 27  1  0  0  0  0
 24 22  1  0  0  0  0
 26 29  1  0  0  0  0
 27 21  1  6  0  0  0
 27 23  1  0  0  0  0
 29 28  2  0  0  0  0
 29 30  1  0  0  0  0
 30 32  1  0  0  0  0
 31 32  1  0  0  0  0
 34 33  1  0  0  0  0
 34 37  1  0  0  0  0
 37 36  2  0  0  0  0
 37 35  2  0  0  0  0
M  END
>  <MODEL>
4

>  <REMARK>
 VINA RESULT:      -6.3      3.849      8.733
  Name = 
  18 active torsions:
  status: ('A' for Active; 'I' for Inactive)
    1  A    between atoms: C_1  and  C_28
    2  A    between atoms: S_4  and  C_13
    3  A    between atoms: S_4  and  C_34
    4  A    between atoms: C_6  and  C_10
    5  A    between atoms: C_6  and  C_22
    6  A    between atoms: N_7  and  C_32
    7  A    between atoms: C_9  and  C_21
    8  A    between atoms: C_9  and  N_31
    9  A    between atoms: O_11  and  C_36
   10  A    between atoms: O_11  and  C_37
   11  A    between atoms: C_13  and  C_30
   12  A    between atoms: C_21  and  C_28
   13  A    between atoms: C_24  and  C_36
   14  A    between atoms: C_25  and  C_34
   15  A    between atoms: P_26  and  O_33
   16  A    between atoms: C_30  and  C_32
   17  A    between atoms: O_33  and  C_35
   18  A    between atoms: C_34  and  C_35
                            x       y       z     vdW  Elec       q    Type
                         _______ _______ _______ _____ _____    ______ ____

>  <TORSDO>
F 18

$$$$
=
 OpenBabel10232412353D

 37 38  0  0  1  0  0  0  0  0999 V2000
  184.1420  178.0460  141.5770 C   0  0  0  0  0  2  0  0  0  0  0  0
  184.1010  179.4540  139.5600 C   0  0  0  0  0  1  0  0  0  0  0  0
  181.9790  178.7500  140.5670 C   0  0  0  0  0  1  0  0  0  0  0  0
  183.4020  178.3040  140.2620 C   0  0  0  0  0  0  0  0  0  0  0  0
  182.1340  176.1640  139.5650 C   0  0  0  0  0  1  0  0  0  0  0  0
  183.3720  177.0360  139.3750 C   0  0  1  0  0  3  0  0  0  0  0  0
  184.2660  176.4050  137.0400 C   0  0  0  0  0  0  0  0  0  0  0  0
  183.6310  177.3020  137.9580 N   0  0  0  0  0  2  0  0  0  0  0  0
  184.7200  175.2960  137.4280 O   0  0  0  0  0  0  0  0  0  0  0  0
  184.4440  176.8080  135.6140 C   0  0  0  0  0  2  0  0  0  0  0  0
  185.5920  176.0440  134.9630 C   0  0  0  0  0  2  0  0  0  0  0  0
  186.9290  176.7320  135.1970 C   0  0  0  0  0  2  0  0  0  0  0  0
  189.3190  175.1860  137.4980 O   0  0  0  0  0  0  0  0  0  0  0  0
  188.4790  176.0150  137.0590 C   0  0  0  0  0  0  0  0  0  0  0  0
  187.8820  175.7990  135.7800 N   0  0  0  0  0  2  0  0  0  0  0  0
  188.1360  177.2190  137.8770 C   0  0  0  0  0  2  0  0  0  0  0  0
  188.6230  179.4570  137.2620 O   0  0  0  0  0  0  0  0  0  0  0  0
  189.1980  178.2930  137.7170 C   0  0  0  0  0  3  0  0  0  0  0  0
  188.9130  179.3380  138.5660 O   0  0  0  0  0  0  0  0  0  0  0  0
  185.5720  179.1560  141.8210 S   0  0  0  0  0  0  0  0  0  0  0  0
  186.6520  177.7800  142.3490 C   0  0  2  0  0  3  0  0  0  0  0  0
  186.4630  178.4400  146.1590 C   0  0  0  0  0  0  0  0  0  0  0  0
  187.8270  177.3720  144.5520 C   0  0  0  0  0  2  0  0  0  0  0  0
  185.5350  178.7850  144.6780 S   0  0  0  0  0  0  0  0  0  0  0  0
  185.9240  178.8360  147.4920 C   0  0  0  0  0  1  0  0  0  0  0  0
  187.5820  177.7430  145.9700 C   0  0  0  0  0  0  0  0  0  0  0  0
  186.4820  177.4700  143.8390 C   0  0  1  0  0  3  0  0  0  0  0  0
  188.1340  176.6830  148.0390 O   0  0  0  0  0  0  0  0  0  0  0  0
  188.5290  177.3260  147.0270 C   0  0  0  0  0  0  0  0  0  0  0  0
  189.8790  177.6640  146.8990 O   0  0  0  0  0  0  0  0  0  0  0  0
  191.6960  176.4380  145.9290 C   0  0  0  0  0  1  0  0  0  0  0  0
  190.9150  176.7390  147.1920 C   0  0  0  0  0  2  0  0  0  0  0  0
  188.1070  178.1030  142.0170 C   0  0  0  0  0  2  0  0  0  0  0  0
  188.6920  177.0620  141.2900 O   0  0  0  0  0  0  0  0  0  0  0  0
  190.9480  177.8460  142.7080 O   0  0  0  0  0  0  0  0  0  0  0  0
  191.2570  177.0650  140.2280 O   0  0  0  0  0  0  0  0  0  0  0  0
  190.3580  177.3330  141.4130 P   0  0  0  0  0  0  0  0  0  0  0  0
  1 20  1  0  0  0  0
  2  4  1  0  0  0  0
  4  3  1  0  0  0  0
  4  1  1  0  0  0  0
  6  5  1  6  0  0  0
  6  4  1  0  0  0  0
  7  9  2  0  0  0  0
  7  8  1  0  0  0  0
  8  6  1  0  0  0  0
 10  7  1  0  0  0  0
 11 12  1  0  0  0  0
 11 10  1  0  0  0  0
 12 15  1  0  0  0  0
 14 13  2  0  0  0  0
 14 16  1  0  0  0  0
 15 14  1  0  0  0  0
 17 18  1  0  0  0  0
 17 19  1  0  0  0  0
 18 16  1  0  0  0  0
 18 19  1  0  0  0  0
 20 21  1  0  0  0  0
 21 33  1  1  0  0  0
 22 25  1  0  0  0  0
 23 26  1  0  0  0  0
 24 22  1  0  0  0  0
 26 22  2  0  0  0  0
 26 29  1  0  0  0  0
 27 21  1  6  0  0  0
 27 23  1  0  0  0  0
 27 24  1  0  0  0  0
 29 28  2  0  0  0  0
 30 29  1  0  0  0  0
 30 32  1  0  0  0  0
 31 32  1  0  0  0  0
 34 37  1  0  0  0  0
 34 33  1  0  0  0  0
 36 37  2  0  0  0  0
 37 35  2  0  0  0  0
M  END
>  <MODEL>
5

>  <REMARK>
 VINA RESULT:      -6.2      4.365      9.142
  Name = 
  18 active torsions:
  status: ('A' for Active; 'I' for Inactive)
    1  A    between atoms: C_1  and  C_28
    2  A    between atoms: S_4  and  C_13
    3  A    between atoms: S_4  and  C_34
    4  A    between atoms: C_6  and  C_10
    5  A    between atoms: C_6  and  C_22
    6  A    between atoms: N_7  and  C_32
    7  A    between atoms: C_9  and  C_21
    8  A    between atoms: C_9  and  N_31
    9  A    between atoms: O_11  and  C_36
   10  A    between atoms: O_11  and  C_37
   11  A    between atoms: C_13  and  C_30
   12  A    between atoms: C_21  and  C_28
   13  A    between atoms: C_24  and  C_36
   14  A    between atoms: C_25  and  C_34
   15  A    between atoms: P_26  and  O_33
   16  A    between atoms: C_30  and  C_32
   17  A    between atoms: O_33  and  C_35
   18  A    between atoms: C_34  and  C_35
                            x       y       z     vdW  Elec       q    Type
                         _______ _______ _______ _____ _____    ______ ____

>  <TORSDO>
F 18

$$$$
=
 OpenBabel10232412353D

 37 38  0  0  1  0  0  0  0  0999 V2000
  187.9890  176.6330  138.0110 C   0  0  0  0  0  2  0  0  0  0  0  0
  188.5090  176.6480  135.6060 C   0  0  0  0  0  1  0  0  0  0  0  0
  187.3310  178.5630  136.5850 C   0  0  0  0  0  1  0  0  0  0  0  0
  187.4650  177.0480  136.6340 C   0  0  0  0  0  0  0  0  0  0  0  0
  186.1150  174.8670  136.3300 C   0  0  0  0  0  1  0  0  0  0  0  0
  186.0960  176.3930  136.3320 C   0  0  1  0  0  3  0  0  0  0  0  0
  183.6970  177.2770  136.6740 C   0  0  0  0  0  0  0  0  0  0  0  0
  184.9990  176.9170  137.1510 N   0  0  0  0  0  2  0  0  0  0  0  0
  183.4180  177.2200  135.4480 O   0  0  0  0  0  0  0  0  0  0  0  0
  182.6710  177.7790  137.6350 C   0  0  0  0  0  2  0  0  0  0  0  0
  182.8530  177.1540  139.0140 C   0  0  0  0  0  2  0  0  0  0  0  0
  182.7910  178.2010  140.1170 C   0  0  0  0  0  2  0  0  0  0  0  0
  185.9010  179.6880  141.3480 O   0  0  0  0  0  0  0  0  0  0  0  0
  184.8470  179.0000  141.3500 C   0  0  0  0  0  0  0  0  0  0  0  0
  184.0380  178.9490  140.1740 N   0  0  0  0  0  2  0  0  0  0  0  0
  184.4510  178.2640  142.5900 C   0  0  0  0  0  2  0  0  0  0  0  0
  183.8910  178.7380  144.8450 O   0  0  0  0  0  0  0  0  0  0  0  0
  183.7320  179.1900  143.5550 C   0  0  0  0  0  3  0  0  0  0  0  0
  184.6520  179.7530  144.4090 O   0  0  0  0  0  0  0  0  0  0  0  0
  188.2770  178.0530  139.1230 S   0  0  0  0  0  0  0  0  0  0  0  0
  189.4390  177.1040  140.1670 C   0  0  2  0  0  3  0  0  0  0  0  0
  190.1190  177.1950  143.9760 C   0  0  0  0  0  0  0  0  0  0  0  0
  188.3310  177.2750  142.4330 C   0  0  0  0  0  2  0  0  0  0  0  0
  191.0190  177.0790  142.4430 S   0  0  0  0  0  0  0  0  0  0  0  0
  190.8520  177.2930  145.2720 C   0  0  0  0  0  1  0  0  0  0  0  0
  188.7970  177.2780  143.8450 C   0  0  0  0  0  0  0  0  0  0  0  0
  189.5280  177.6820  141.5810 C   0  0  1  0  0  3  0  0  0  0  0  0
  186.6420  176.9580  144.8240 O   0  0  0  0  0  0  0  0  0  0  0  0
  187.8230  177.3830  144.9540 C   0  0  0  0  0  0  0  0  0  0  0  0
  188.2240  177.9740  146.1550 O   0  0  0  0  0  0  0  0  0  0  0  0
  188.5490  178.1390  148.5240 C   0  0  0  0  0  1  0  0  0  0  0  0
  187.7130  177.5470  147.4080 C   0  0  0  0  0  2  0  0  0  0  0  0
  190.8140  177.0560  139.5040 C   0  0  0  0  0  2  0  0  0  0  0  0
  191.0700  175.7850  138.9840 O   0  0  0  0  0  0  0  0  0  0  0  0
  193.5000  176.7740  138.0730 O   0  0  0  0  0  0  0  0  0  0  0  0
  191.9520  175.5360  136.3630 O   0  0  0  0  0  0  0  0  0  0  0  0
  192.2140  176.0400  137.7630 P   0  0  0  0  0  0  0  0  0  0  0  0
  1 20  1  0  0  0  0
  2  4  1  0  0  0  0
  3  4  1  0  0  0  0
  4  1  1  0  0  0  0
  6  5  1  1  0  0  0
  6  4  1  0  0  0  0
  6  8  1  0  0  0  0
  7  8  1  0  0  0  0
  7 10  1  0  0  0  0
  9  7  2  0  0  0  0
 10 11  1  0  0  0  0
 11 12  1  0  0  0  0
 12 15  1  0  0  0  0
 13 14  2  0  0  0  0
 14 16  1  0  0  0  0
 15 14  1  0  0  0  0
 16 18  1  0  0  0  0
 18 19  1  0  0  0  0
 18 17  1  0  0  0  0
 19 17  1  0  0  0  0
 20 21  1  0  0  0  0
 21 33  1  6  0  0  0
 22 25  1  0  0  0  0
 23 26  1  0  0  0  0
 24 22  1  0  0  0  0
 26 22  2  0  0  0  0
 26 29  1  0  0  0  0
 27 21  1  6  0  0  0
 27 23  1  0  0  0  0
 27 24  1  0  0  0  0
 28 29  2  0  0  0  0
 29 30  1  0  0  0  0
 30 32  1  0  0  0  0
 32 31  1  0  0  0  0
 34 33  1  0  0  0  0
 36 37  2  0  0  0  0
 37 35  2  0  0  0  0
 37 34  1  0  0  0  0
M  END
>  <MODEL>
6

>  <REMARK>
 VINA RESULT:      -6.2      3.353      7.836
  Name = 
  18 active torsions:
  status: ('A' for Active; 'I' for Inactive)
    1  A    between atoms: C_1  and  C_28
    2  A    between atoms: S_4  and  C_13
    3  A    between atoms: S_4  and  C_34
    4  A    between atoms: C_6  and  C_10
    5  A    between atoms: C_6  and  C_22
    6  A    between atoms: N_7  and  C_32
    7  A    between atoms: C_9  and  C_21
    8  A    between atoms: C_9  and  N_31
    9  A    between atoms: O_11  and  C_36
   10  A    between atoms: O_11  and  C_37
   11  A    between atoms: C_13  and  C_30
   12  A    between atoms: C_21  and  C_28
   13  A    between atoms: C_24  and  C_36
   14  A    between atoms: C_25  and  C_34
   15  A    between atoms: P_26  and  O_33
   16  A    between atoms: C_30  and  C_32
   17  A    between atoms: O_33  and  C_35
   18  A    between atoms: C_34  and  C_35
                            x       y       z     vdW  Elec       q    Type
                         _______ _______ _______ _____ _____    ______ ____

>  <TORSDO>
F 18

$$$$
=
 OpenBabel10232412353D

 37 38  0  0  1  0  0  0  0  0999 V2000
  188.4170  177.7230  138.0790 C   0  0  0  0  0  2  0  0  0  0  0  0
  186.8130  176.3890  136.7760 C   0  0  0  0  0  1  0  0  0  0  0  0
  187.2960  178.6890  136.0790 C   0  0  0  0  0  1  0  0  0  0  0  0
  187.1070  177.7870  137.2900 C   0  0  0  0  0  0  0  0  0  0  0  0
  184.5970  177.6700  137.8880 C   0  0  0  0  0  1  0  0  0  0  0  0
  185.9490  178.3230  138.1640 C   0  0  1  0  0  3  0  0  0  0  0  0
  185.4220  178.8990  140.6230 C   0  0  0  0  0  0  0  0  0  0  0  0
  186.2540  178.3430  139.5980 N   0  0  0  0  0  2  0  0  0  0  0  0
  184.3490  179.4900  140.3350 O   0  0  0  0  0  0  0  0  0  0  0  0
  185.8570  178.8260  142.0480 C   0  0  0  0  0  2  0  0  0  0  0  0
  184.8340  179.4790  142.9720 C   0  0  0  0  0  2  0  0  0  0  0  0
  184.4240  178.5470  144.1030 C   0  0  0  0  0  2  0  0  0  0  0  0
  185.6430  179.3540  147.4580 O   0  0  0  0  0  0  0  0  0  0  0  0
  185.5570  178.7620  146.3510 C   0  0  0  0  0  0  0  0  0  0  0  0
  184.6000  179.2060  145.3890 N   0  0  0  0  0  2  0  0  0  0  0  0
  186.4460  177.5920  146.0710 C   0  0  0  0  0  2  0  0  0  0  0  0
  188.6200  177.0700  146.8640 O   0  0  0  0  0  0  0  0  0  0  0  0
  187.9070  178.0020  146.1440 C   0  0  0  0  0  3  0  0  0  0  0  0
  188.6750  177.0440  145.5240 O   0  0  0  0  0  0  0  0  0  0  0  0
  189.3070  176.1430  137.8600 S   0  0  0  0  0  0  0  0  0  0  0  0
  190.9330  176.9240  138.1540 C   0  0  2  0  0  3  0  0  0  0  0  0
  193.1030  173.9260  137.0200 C   0  0  0  0  0  0  0  0  0  0  0  0
  193.2170  175.8600  138.3720 C   0  0  0  0  0  2  0  0  0  0  0  0
  191.4640  174.5810  136.7740 S   0  0  0  0  0  0  0  0  0  0  0  0
  193.5530  172.7250  136.2580 C   0  0  0  0  0  1  0  0  0  0  0  0
  193.8750  174.6400  137.8360 C   0  0  0  0  0  0  0  0  0  0  0  0
  192.0570  176.1760  137.4340 C   0  0  1  0  0  3  0  0  0  0  0  0
  195.5260  173.5170  139.1480 O   0  0  0  0  0  0  0  0  0  0  0  0
  195.2710  174.3180  138.2070 C   0  0  0  0  0  0  0  0  0  0  0  0
  196.3150  174.9260  137.5060 O   0  0  0  0  0  0  0  0  0  0  0  0
  198.3090  174.0440  136.5090 C   0  0  0  0  0  1  0  0  0  0  0  0
  197.6750  174.6100  137.7620 C   0  0  0  0  0  2  0  0  0  0  0  0
  191.2040  177.0120  139.6550 C   0  0  0  0  0  2  0  0  0  0  0  0
  190.2410  176.3000  140.3740 O   0  0  0  0  0  0  0  0  0  0  0  0
  189.2870  178.0100  142.3440 O   0  0  0  0  0  0  0  0  0  0  0  0
  191.3460  176.4970  142.9130 O   0  0  0  0  0  0  0  0  0  0  0  0
  190.2930  176.9580  141.9330 P   0  0  0  0  0  0  0  0  0  0  0  0
  2  4  1  0  0  0  0
  3  4  1  0  0  0  0
  4  1  1  0  0  0  0
  4  6  1  0  0  0  0
  6  5  1  1  0  0  0
  6  8  1  0  0  0  0
  7 10  1  0  0  0  0
  8  7  1  0  0  0  0
  9  7  2  0  0  0  0
 10 11  1  0  0  0  0
 11 12  1  0  0  0  0
 12 15  1  0  0  0  0
 14 13  2  0  0  0  0
 15 14  1  0  0  0  0
 16 18  1  0  0  0  0
 16 14  1  0  0  0  0
 18 17  1  0  0  0  0
 19 18  1  0  0  0  0
 19 17  1  0  0  0  0
 20  1  1  0  0  0  0
 20 21  1  0  0  0  0
 21 33  1  1  0  0  0
 22 26  2  0  0  0  0
 24 22  1  0  0  0  0
 24 27  1  0  0  0  0
 25 22  1  0  0  0  0
 26 29  1  0  0  0  0
 26 23  1  0  0  0  0
 27 21  1  1  0  0  0
 27 23  1  0  0  0  0
 29 28  2  0  0  0  0
 30 32  1  0  0  0  0
 30 29  1  0  0  0  0
 31 32  1  0  0  0  0
 33 34  1  0  0  0  0
 34 37  1  0  0  0  0
 37 35  2  0  0  0  0
 37 36  2  0  0  0  0
M  END
>  <MODEL>
7

>  <REMARK>
 VINA RESULT:      -6.1      2.686      4.915
  Name = 
  18 active torsions:
  status: ('A' for Active; 'I' for Inactive)
    1  A    between atoms: C_1  and  C_28
    2  A    between atoms: S_4  and  C_13
    3  A    between atoms: S_4  and  C_34
    4  A    between atoms: C_6  and  C_10
    5  A    between atoms: C_6  and  C_22
    6  A    between atoms: N_7  and  C_32
    7  A    between atoms: C_9  and  C_21
    8  A    between atoms: C_9  and  N_31
    9  A    between atoms: O_11  and  C_36
   10  A    between atoms: O_11  and  C_37
   11  A    between atoms: C_13  and  C_30
   12  A    between atoms: C_21  and  C_28
   13  A    between atoms: C_24  and  C_36
   14  A    between atoms: C_25  and  C_34
   15  A    between atoms: P_26  and  O_33
   16  A    between atoms: C_30  and  C_32
   17  A    between atoms: O_33  and  C_35
   18  A    between atoms: C_34  and  C_35
                            x       y       z     vdW  Elec       q    Type
                         _______ _______ _______ _____ _____    ______ ____

>  <TORSDO>
F 18

$$$$
=
 OpenBabel10232412353D

 37 38  0  0  1  0  0  0  0  0999 V2000
  189.1890  176.6690  144.9150 C   0  0  0  0  0  2  0  0  0  0  0  0
  190.9050  175.4370  143.6540 C   0  0  0  0  0  1  0  0  0  0  0  0
  191.6070  177.0430  145.3680 C   0  0  0  0  0  1  0  0  0  0  0  0
  190.5770  176.7810  144.2790 C   0  0  0  0  0  0  0  0  0  0  0  0
  191.2030  179.2310  143.7530 C   0  0  0  0  0  1  0  0  0  0  0  0
  190.6260  177.9180  143.2310 C   0  0  1  0  0  3  0  0  0  0  0  0
  190.5540  177.2960  140.7290 C   0  0  0  0  0  0  0  0  0  0  0  0
  191.2450  177.5240  141.9630 N   0  0  0  0  0  2  0  0  0  0  0  0
  189.2980  177.3660  140.6690 O   0  0  0  0  0  0  0  0  0  0  0  0
  191.3240  176.9180  139.5080 C   0  0  0  0  0  2  0  0  0  0  0  0
  190.4230  176.2590  138.4680 C   0  0  0  0  0  2  0  0  0  0  0  0
  191.2160  175.3710  137.5210 C   0  0  0  0  0  2  0  0  0  0  0  0
  194.6080  176.3520  136.5580 O   0  0  0  0  0  0  0  0  0  0  0  0
  193.6820  175.6540  137.0460 C   0  0  0  0  0  0  0  0  0  0  0  0
  192.3320  176.1110  136.9500 N   0  0  0  0  0  2  0  0  0  0  0  0
  194.0130  174.3680  137.7340 C   0  0  0  0  0  2  0  0  0  0  0  0
  195.7550  174.9390  139.2390 O   0  0  0  0  0  0  0  0  0  0  0  0
  195.4970  174.2980  138.0490 C   0  0  0  0  0  3  0  0  0  0  0  0
  195.6760  173.6000  139.2210 O   0  0  0  0  0  0  0  0  0  0  0  0
  187.8390  176.6560  143.6850 S   0  0  0  0  0  0  0  0  0  0  0  0
  186.6970  177.5350  144.8100 C   0  0  2  0  0  3  0  0  0  0  0  0
  183.4730  178.7860  143.0710 C   0  0  0  0  0  0  0  0  0  0  0  0
  185.6820  178.1170  142.5680 C   0  0  0  0  0  2  0  0  0  0  0  0
  184.0730  178.4210  144.7090 S   0  0  0  0  0  0  0  0  0  0  0  0
  182.1120  179.3670  142.8830 C   0  0  0  0  0  1  0  0  0  0  0  0
  184.3550  178.5890  142.0940 C   0  0  0  0  0  0  0  0  0  0  0  0
  185.7720  178.4840  144.0450 C   0  0  1  0  0  3  0  0  0  0  0  0
  184.8520  179.5880  139.9820 O   0  0  0  0  0  0  0  0  0  0  0  0
  184.1130  178.8160  140.6520 C   0  0  0  0  0  0  0  0  0  0  0  0
  183.0380  178.1690  140.0360 O   0  0  0  0  0  0  0  0  0  0  0  0
  181.5680  176.3470  139.5210 C   0  0  0  0  0  1  0  0  0  0  0  0
  182.9600  176.7540  139.9590 C   0  0  0  0  0  2  0  0  0  0  0  0
  187.4920  178.2820  145.8790 C   0  0  0  0  0  2  0  0  0  0  0  0
  186.8250  178.2480  147.1060 O   0  0  0  0  0  0  0  0  0  0  0  0
  189.1460  178.5830  148.5940 O   0  0  0  0  0  0  0  0  0  0  0  0
  187.8550  176.3170  148.8130 O   0  0  0  0  0  0  0  0  0  0  0  0
  187.9820  177.6960  148.2110 P   0  0  0  0  0  0  0  0  0  0  0  0
  2  4  1  0  0  0  0
  4  1  1  0  0  0  0
  4  3  1  0  0  0  0
  6  5  1  1  0  0  0
  6  4  1  0  0  0  0
  7  8  1  0  0  0  0
  8  6  1  0  0  0  0
  9  7  2  0  0  0  0
 10  7  1  0  0  0  0
 11 10  1  0  0  0  0
 12 11  1  0  0  0  0
 13 14  2  0  0  0  0
 14 16  1  0  0  0  0
 15 14  1  0  0  0  0
 15 12  1  0  0  0  0
 16 18  1  0  0  0  0
 18 19  1  0  0  0  0
 18 17  1  0  0  0  0
 19 17  1  0  0  0  0
 20 21  1  0  0  0  0
 20  1  1  0  0  0  0
 21 33  1  1  0  0  0
 22 24  1  0  0  0  0
 23 27  1  0  0  0  0
 25 22  1  0  0  0  0
 26 23  1  0  0  0  0
 26 22  2  0  0  0  0
 27 24  1  0  0  0  0
 27 21  1  1  0  0  0
 28 29  2  0  0  0  0
 29 26  1  0  0  0  0
 30 29  1  0  0  0  0
 31 32  1  0  0  0  0
 32 30  1  0  0  0  0
 33 34  1  0  0  0  0
 34 37  1  0  0  0  0
 37 35  2  0  0  0  0
 37 36  2  0  0  0  0
M  END
>  <MODEL>
8

>  <REMARK>
 VINA RESULT:      -6.0      3.412      9.761
  Name = 
  18 active torsions:
  status: ('A' for Active; 'I' for Inactive)
    1  A    between atoms: C_1  and  C_28
    2  A    between atoms: S_4  and  C_13
    3  A    between atoms: S_4  and  C_34
    4  A    between atoms: C_6  and  C_10
    5  A    between atoms: C_6  and  C_22
    6  A    between atoms: N_7  and  C_32
    7  A    between atoms: C_9  and  C_21
    8  A    between atoms: C_9  and  N_31
    9  A    between atoms: O_11  and  C_36
   10  A    between atoms: O_11  and  C_37
   11  A    between atoms: C_13  and  C_30
   12  A    between atoms: C_21  and  C_28
   13  A    between atoms: C_24  and  C_36
   14  A    between atoms: C_25  and  C_34
   15  A    between atoms: P_26  and  O_33
   16  A    between atoms: C_30  and  C_32
   17  A    between atoms: O_33  and  C_35
   18  A    between atoms: C_34  and  C_35
                            x       y       z     vdW  Elec       q    Type
                         _______ _______ _______ _____ _____    ______ ____

>  <TORSDO>
F 18

$$$$
=
 OpenBabel10232412353D

 37 38  0  0  1  0  0  0  0  0999 V2000
  189.4650  178.3890  141.8250 C   0  0  0  0  0  2  0  0  0  0  0  0
  190.1090  176.0490  142.2240 C   0  0  0  0  0  1  0  0  0  0  0  0
  191.6870  177.8360  142.7980 C   0  0  0  0  0  1  0  0  0  0  0  0
  190.6360  177.4040  141.7860 C   0  0  0  0  0  0  0  0  0  0  0  0
  192.7850  177.4940  140.3550 C   0  0  0  0  0  1  0  0  0  0  0  0
  191.2670  177.3350  140.3750 C   0  0  1  0  0  3  0  0  0  0  0  0
  190.3710  176.1980  138.2400 C   0  0  0  0  0  0  0  0  0  0  0  0
  190.8370  176.1710  139.5940 N   0  0  0  0  0  2  0  0  0  0  0  0
  190.2370  177.2880  137.6230 O   0  0  0  0  0  0  0  0  0  0  0  0
  189.9860  174.9240  137.5650 C   0  0  0  0  0  2  0  0  0  0  0  0
  190.4650  174.8990  136.1170 C   0  0  0  0  0  2  0  0  0  0  0  0
  191.8460  174.2710  135.9940 C   0  0  0  0  0  2  0  0  0  0  0  0
  194.6970  176.5470  136.2790 O   0  0  0  0  0  0  0  0  0  0  0  0
  193.8840  175.6380  136.5920 C   0  0  0  0  0  0  0  0  0  0  0  0
  192.8390  175.2880  135.6840 N   0  0  0  0  0  2  0  0  0  0  0  0
  194.0170  174.9550  137.9150 C   0  0  0  0  0  2  0  0  0  0  0  0
  195.8230  174.2650  139.2890 O   0  0  0  0  0  0  0  0  0  0  0  0
  195.3380  174.2110  138.0020 C   0  0  0  0  0  3  0  0  0  0  0  0
  195.2030  173.1520  138.8700 O   0  0  0  0  0  0  0  0  0  0  0  0
  187.9250  177.6960  141.1290 S   0  0  0  0  0  0  0  0  0  0  0  0
  186.8750  178.7400  142.2010 C   0  0  2  0  0  3  0  0  0  0  0  0
  185.7320  178.3500  145.8790 C   0  0  0  0  0  0  0  0  0  0  0  0
  187.6670  178.1720  144.5350 C   0  0  0  0  0  2  0  0  0  0  0  0
  185.0480  178.7560  144.2850 S   0  0  0  0  0  0  0  0  0  0  0  0
  184.8400  178.2250  147.0680 C   0  0  0  0  0  1  0  0  0  0  0  0
  187.0370  178.0890  145.8790 C   0  0  0  0  0  0  0  0  0  0  0  0
  186.5390  178.0360  143.5180 C   0  0  1  0  0  3  0  0  0  0  0  0
  187.8740  178.4700  148.0830 O   0  0  0  0  0  0  0  0  0  0  0  0
  187.8460  177.7270  147.0640 C   0  0  0  0  0  0  0  0  0  0  0  0
  188.5960  176.5490  147.0380 O   0  0  0  0  0  0  0  0  0  0  0  0
  190.7860  176.9020  146.1300 C   0  0  0  0  0  1  0  0  0  0  0  0
  189.9790  176.5330  147.3570 C   0  0  0  0  0  2  0  0  0  0  0  0
  185.6070  179.1450  141.4540 C   0  0  0  0  0  2  0  0  0  0  0  0
  185.1150  178.0770  140.6990 O   0  0  0  0  0  0  0  0  0  0  0  0
  184.3050  180.2820  139.2180 O   0  0  0  0  0  0  0  0  0  0  0  0
  183.2190  177.9640  138.6750 O   0  0  0  0  0  0  0  0  0  0  0  0
  184.1800  178.7990  139.4870 P   0  0  0  0  0  0  0  0  0  0  0  0
  4  1  1  0  0  0  0
  4  2  1  0  0  0  0
  4  3  1  0  0  0  0
  6  5  1  1  0  0  0
  6  4  1  0  0  0  0
  7  8  1  0  0  0  0
  8  6  1  0  0  0  0
  9  7  2  0  0  0  0
 10  7  1  0  0  0  0
 11 10  1  0  0  0  0
 12 11  1  0  0  0  0
 13 14  2  0  0  0  0
 14 16  1  0  0  0  0
 15 12  1  0  0  0  0
 15 14  1  0  0  0  0
 16 18  1  0  0  0  0
 18 19  1  0  0  0  0
 18 17  1  0  0  0  0
 19 17  1  0  0  0  0
 20  1  1  0  0  0  0
 20 21  1  0  0  0  0
 21 33  1  6  0  0  0
 22 25  1  0  0  0  0
 23 26  1  0  0  0  0
 24 22  1  0  0  0  0
 26 22  2  0  0  0  0
 26 29  1  0  0  0  0
 27 21  1  6  0  0  0
 27 24  1  0  0  0  0
 27 23  1  0  0  0  0
 29 28  2  0  0  0  0
 30 29  1  0  0  0  0
 30 32  1  0  0  0  0
 31 32  1  0  0  0  0
 34 33  1  0  0  0  0
 35 37  2  0  0  0  0
 36 37  2  0  0  0  0
 37 34  1  0  0  0  0
M  END
>  <MODEL>
9

>  <REMARK>
 VINA RESULT:      -5.9      2.973      9.483
  Name = 
  18 active torsions:
  status: ('A' for Active; 'I' for Inactive)
    1  A    between atoms: C_1  and  C_28
    2  A    between atoms: S_4  and  C_13
    3  A    between atoms: S_4  and  C_34
    4  A    between atoms: C_6  and  C_10
    5  A    between atoms: C_6  and  C_22
    6  A    between atoms: N_7  and  C_32
    7  A    between atoms: C_9  and  C_21
    8  A    between atoms: C_9  and  N_31
    9  A    between atoms: O_11  and  C_36
   10  A    between atoms: O_11  and  C_37
   11  A    between atoms: C_13  and  C_30
   12  A    between atoms: C_21  and  C_28
   13  A    between atoms: C_24  and  C_36
   14  A    between atoms: C_25  and  C_34
   15  A    between atoms: P_26  and  O_33
   16  A    between atoms: C_30  and  C_32
   17  A    between atoms: O_33  and  C_35
   18  A    between atoms: C_34  and  C_35
                            x       y       z     vdW  Elec       q    Type
                         _______ _______ _______ _____ _____    ______ ____

>  <TORSDO>
F 18

$$$$
