=
 OpenBabel10232408033D

 46 52  0  0  1  0  0  0  0  0999 V2000
  187.2590  173.7450  135.8570 C   0  0  2  0  0  3  0  0  0  0  0  0
  189.4940  173.3060  136.7930 C   0  0  0  0  0  3  0  0  0  0  0  0
  188.2600  172.8580  136.5390 C   0  0  0  0  0  3  0  0  0  0  0  0
  185.0010  173.8960  136.5290 N   0  0  0  0  0  0  0  0  0  0  0  0
  189.1940  175.7590  137.2410 C   0  0  0  0  0  0  0  0  0  0  0  0
  189.8990  174.7030  136.4070 C   0  0  1  0  0  3  0  0  0  0  0  0
  186.9340  174.9040  136.7820 C   0  0  0  0  0  0  0  0  0  0  0  0
  185.6930  174.9270  137.1630 N   0  0  0  0  0  0  0  0  0  0  0  0
  185.9010  173.1220  135.8030 C   0  0  0  0  0  0  0  0  0  0  0  0
  185.4840  171.9030  135.4980 C   0  0  0  0  0  0  0  0  0  0  0  0
  187.8940  175.8060  137.3480 N   0  0  0  0  0  0  0  0  0  0  0  0
  183.8710  173.1650  137.0570 C   0  0  0  0  0  2  0  0  0  0  0  0
  183.8410  171.5710  136.1400 S   0  0  0  0  0  0  0  0  0  0  0  0
  195.9200  174.8360  136.9360 C   0  0  0  0  0  2  0  0  0  0  0  0
  193.3240  175.5820  136.0450 C   0  0  0  0  0  0  0  0  0  0  0  0
  192.0200  175.8320  135.8440 N   0  0  0  0  0  0  0  0  0  0  0  0
  192.1940  173.9640  137.0120 C   0  0  0  0  0  3  0  0  0  0  0  0
  194.7880  173.8140  137.1200 C   0  0  2  0  0  3  0  0  0  0  0  0
  193.4680  174.4450  136.7990 C   0  0  0  0  0  0  0  0  0  0  0  0
  191.3520  174.8450  136.4320 N   0  0  0  0  0  0  0  0  0  0  0  0
  194.7940  173.3480  138.4340 O   0  0  0  0  0  1  0  0  0  0  0  0
  194.4690  176.4420  135.6120 C   0  0  0  0  0  2  0  0  0  0  0  0
  195.7670  175.6200  135.6180 C   0  0  1  0  0  3  0  0  0  0  0  0
  196.3320  177.6060  134.8240 C   0  0  0  0  0  1  0  0  0  0  0  0
  196.8600  176.4710  135.4430 O   0  0  0  0  0  0  0  0  0  0  0  0
  190.0100  176.7970  137.9620 C   0  0  1  0  0  3  0  0  0  0  0  0
  189.4780  178.2030  137.7300 C   0  0  0  0  0  1  0  0  0  0  0  0
  190.1870  176.4770  139.4480 C   0  0  0  0  0  2  0  0  0  0  0  0
  190.0580  177.7180  140.3240 C   0  0  0  0  0  2  0  0  0  0  0  0
  189.0250  177.5060  141.4220 C   0  0  1  0  0  3  0  0  0  0  0  0
  191.0180  177.0050  142.8990 C   0  0  0  0  0  3  0  0  0  0  0  0
  188.6160  177.6150  146.3970 C   0  0  0  0  0  1  0  0  0  0  0  0
  191.5910  176.8750  144.1680 C   0  0  0  0  0  3  0  0  0  0  0  0
  189.4620  177.3930  145.1910 C   0  0  0  0  0  0  0  0  0  0  0  0
  191.4030  176.9290  146.5660 O   0  0  0  0  0  1  0  0  0  0  0  0
  190.8150  177.0620  145.3160 C   0  0  0  0  0  0  0  0  0  0  0  0
  188.8910  177.5240  143.9210 C   0  0  0  0  0  3  0  0  0  0  0  0
  189.6580  177.3180  142.7720 C   0  0  0  0  0  0  0  0  0  0  0  0
  187.3950  178.7650  140.2190 O   0  0  0  0  0  0  0  0  0  0  0  0
  188.0610  178.6780  141.4540 C   0  0  1  0  0  3  0  0  0  0  0  0
  186.6770  178.1960  141.2840 C   0  0  1  0  0  3  0  0  0  0  0  0
  184.7440  179.5080  140.8620 O   0  0  0  0  0  1  0  0  0  0  0  0
  185.7050  179.2160  141.8300 C   0  0  0  0  0  2  0  0  0  0  0  0
  186.2700  170.8880  134.8670 N   0  0  0  0  0  2  0  0  0  0  0  0
  185.7680  168.3810  135.0390 N   0  0  0  0  0  0  0  0  0  0  0  0
  185.9930  169.5150  134.9600 C   0  0  0  0  0  0  0  0  0  0  0  0
  1  3  1  1  0  0  0
  1  7  1  0  0  0  0
  3  2  2  0  0  0  0
  4 12  1  0  0  0  0
  4  8  1  0  0  0  0
  5 11  2  0  0  0  0
  5 26  1  0  0  0  0
  6 20  1  1  0  0  0
  6  2  1  0  0  0  0
  6  5  1  0  0  0  0
  7  8  2  0  0  0  0
  7 11  1  0  0  0  0
  9  1  1  0  0  0  0
  9  4  1  0  0  0  0
 10  9  2  0  0  0  0
 10 13  1  0  0  0  0
 13 12  1  0  0  0  0
 14 18  1  0  0  0  0
 15 19  1  0  0  0  0
 16 15  2  0  0  0  0
 16 20  1  0  0  0  0
 18 21  1  1  0  0  0
 19 17  2  0  0  0  0
 19 18  1  0  0  0  0
 20 17  1  0  0  0  0
 22 23  1  0  0  0  0
 22 15  1  0  0  0  0
 23 25  1  1  0  0  0
 23 14  1  0  0  0  0
 24 25  1  0  0  0  0
 26 27  1  1  0  0  0
 26 28  1  0  0  0  0
 28 29  1  0  0  0  0
 30 29  1  6  0  0  0
 30 38  1  0  0  0  0
 31 33  1  0  0  0  0
 33 36  2  0  0  0  0
 34 36  1  0  0  0  0
 34 32  1  0  0  0  0
 36 35  1  0  0  0  0
 37 34  2  0  0  0  0
 38 31  2  0  0  0  0
 38 37  1  0  0  0  0
 39 41  1  0  0  0  0
 39 40  1  0  0  0  0
 40 30  1  6  0  0  0
 41 40  1  0  0  0  0
 41 43  1  1  0  0  0
 42 43  1  0  0  0  0
 44 46  1  0  0  0  0
 44 10  1  0  0  0  0
 46 45  3  0  0  0  0
M  END
>  <MODEL>
1

>  <REMARK>
 VINA RESULT:      -7.9      0.000      0.000
  Name = 
  11 active torsions:
  status: ('A' for Active; 'I' for Inactive)
    1  A    between atoms: C_3  and  C_17
    2  A    between atoms: C_3  and  C_42
    3  A    between atoms: C_3  and  C_44
    4  A    between atoms: C_8  and  C_16
    5  A    between atoms: C_8  and  C_28
    6  A    between atoms: C_12  and  C_19
    7  A    between atoms: C_18  and  N_27
    8  A    between atoms: C_28  and  C_44
    9  A    between atoms: C_34  and  N_45
   10  A    between atoms: C_36  and  O_43
   11  A    between atoms: N_45  and  C_46
                            x       y       z     vdW  Elec       q    Type
                         _______ _______ _______ _____ _____    ______ ____

>  <TORSDO>
F 11

$$$$
=
 OpenBabel10232408033D

 46 52  0  0  1  0  0  0  0  0999 V2000
  187.8700  177.3970  137.2910 C   0  0  2  0  0  3  0  0  0  0  0  0
  189.3870  175.4630  137.4350 C   0  0  0  0  0  3  0  0  0  0  0  0
  188.1420  175.9220  137.2640 C   0  0  0  0  0  3  0  0  0  0  0  0
  186.0190  178.3460  138.4060 N   0  0  0  0  0  0  0  0  0  0  0  0
  190.4490  177.1000  139.0150 C   0  0  0  0  0  0  0  0  0  0  0  0
  190.5310  176.4130  137.6630 C   0  0  1  0  0  3  0  0  0  0  0  0
  188.1510  177.9130  138.6910 C   0  0  0  0  0  0  0  0  0  0  0  0
  187.0990  178.3880  139.2860 N   0  0  0  0  0  0  0  0  0  0  0  0
  186.4070  177.7000  137.2370 C   0  0  0  0  0  0  0  0  0  0  0  0
  185.4180  177.2230  136.4970 C   0  0  0  0  0  0  0  0  0  0  0  0
  189.3890  177.7570  139.3980 N   0  0  0  0  0  0  0  0  0  0  0  0
  184.6280  178.1660  138.7570 C   0  0  0  0  0  2  0  0  0  0  0  0
  183.8120  177.5310  137.2370 S   0  0  0  0  0  0  0  0  0  0  0  0
  195.9090  174.0140  136.2940 C   0  0  0  0  0  2  0  0  0  0  0  0
  193.4390  174.3690  137.6590 C   0  0  0  0  0  0  0  0  0  0  0  0
  192.1940  174.6390  138.0840 N   0  0  0  0  0  0  0  0  0  0  0  0
  192.7770  176.1900  136.6220 C   0  0  0  0  0  3  0  0  0  0  0  0
  195.1890  175.3600  136.1160 C   0  0  2  0  0  3  0  0  0  0  0  0
  193.8210  175.2940  136.7210 C   0  0  0  0  0  0  0  0  0  0  0  0
  191.8100  175.7420  137.4510 N   0  0  0  0  0  0  0  0  0  0  0  0
  195.1030  175.6630  134.7580 O   0  0  0  0  0  1  0  0  0  0  0  0
  194.2750  173.1920  138.0520 C   0  0  0  0  0  2  0  0  0  0  0  0
  195.7500  173.4720  137.7270 C   0  0  1  0  0  3  0  0  0  0  0  0
  195.5630  171.2680  137.7180 C   0  0  0  0  0  1  0  0  0  0  0  0
  196.4920  172.2980  137.8750 O   0  0  0  0  0  0  0  0  0  0  0  0
  191.6280  177.0370  139.9490 C   0  0  1  0  0  3  0  0  0  0  0  0
  192.8640  177.6920  139.3500 C   0  0  0  0  0  1  0  0  0  0  0  0
  191.3020  177.5720  141.3440 C   0  0  0  0  0  2  0  0  0  0  0  0
  190.4390  176.6030  142.1460 C   0  0  0  0  0  2  0  0  0  0  0  0
  190.1430  177.1550  143.5330 C   0  0  1  0  0  3  0  0  0  0  0  0
  187.8240  177.5880  142.6170 C   0  0  0  0  0  3  0  0  0  0  0  0
  186.3130  178.0890  146.5970 C   0  0  0  0  0  1  0  0  0  0  0  0
  186.4680  177.8620  142.8170 C   0  0  0  0  0  3  0  0  0  0  0  0
  186.8240  177.9250  145.2070 C   0  0  0  0  0  0  0  0  0  0  0  0
  184.6170  178.3100  144.2860 O   0  0  0  0  0  1  0  0  0  0  0  0
  185.9650  178.0380  144.1090 C   0  0  0  0  0  0  0  0  0  0  0  0
  188.1810  177.6480  145.0060 C   0  0  0  0  0  3  0  0  0  0  0  0
  188.6900  177.4930  143.7150 C   0  0  0  0  0  0  0  0  0  0  0  0
  191.9120  175.7700  144.3330 O   0  0  0  0  0  0  0  0  0  0  0  0
  190.5860  176.1580  144.5880 C   0  0  1  0  0  3  0  0  0  0  0  0
  191.7170  176.7100  145.3590 C   0  0  1  0  0  3  0  0  0  0  0  0
  191.9140  176.9670  147.7110 O   0  0  0  0  0  1  0  0  0  0  0  0
  191.8180  176.0140  146.6960 C   0  0  0  0  0  2  0  0  0  0  0  0
  185.5700  176.4210  135.3220 N   0  0  0  0  0  2  0  0  0  0  0  0
  184.5070  174.1080  135.0290 N   0  0  0  0  0  0  0  0  0  0  0  0
  184.9890  175.1530  135.1610 C   0  0  0  0  0  0  0  0  0  0  0  0
  1  3  1  1  0  0  0
  1  7  1  0  0  0  0
  3  2  2  0  0  0  0
  4 12  1  0  0  0  0
  4  8  1  0  0  0  0
  5 11  2  0  0  0  0
  5 26  1  0  0  0  0
  6  2  1  1  0  0  0
  6  5  1  0  0  0  0
  7  8  2  0  0  0  0
  7 11  1  0  0  0  0
  9  1  1  0  0  0  0
  9  4  1  0  0  0  0
 10  9  2  0  0  0  0
 10 13  1  0  0  0  0
 13 12  1  0  0  0  0
 14 23  1  0  0  0  0
 15 22  1  0  0  0  0
 15 16  2  0  0  0  0
 17 19  2  0  0  0  0
 17 20  1  0  0  0  0
 18 21  1  6  0  0  0
 18 14  1  0  0  0  0
 18 19  1  0  0  0  0
 19 15  1  0  0  0  0
 20  6  1  0  0  0  0
 20 16  1  0  0  0  0
 23 25  1  6  0  0  0
 23 22  1  0  0  0  0
 24 25  1  0  0  0  0
 26 27  1  6  0  0  0
 26 28  1  0  0  0  0
 28 29  1  0  0  0  0
 30 29  1  6  0  0  0
 30 38  1  0  0  0  0
 31 33  2  0  0  0  0
 31 38  1  0  0  0  0
 33 36  1  0  0  0  0
 34 32  1  0  0  0  0
 36 35  1  0  0  0  0
 36 34  2  0  0  0  0
 37 34  1  0  0  0  0
 38 37  2  0  0  0  0
 39 40  1  0  0  0  0
 39 41  1  0  0  0  0
 40 30  1  6  0  0  0
 40 41  1  0  0  0  0
 41 43  1  1  0  0  0
 43 42  1  0  0  0  0
 44 10  1  0  0  0  0
 45 46  3  0  0  0  0
 46 44  1  0  0  0  0
M  END
>  <MODEL>
2

>  <REMARK>
 VINA RESULT:      -7.7      2.475      4.492
  Name = 
  11 active torsions:
  status: ('A' for Active; 'I' for Inactive)
    1  A    between atoms: C_3  and  C_17
    2  A    between atoms: C_3  and  C_42
    3  A    between atoms: C_3  and  C_44
    4  A    between atoms: C_8  and  C_16
    5  A    between atoms: C_8  and  C_28
    6  A    between atoms: C_12  and  C_19
    7  A    between atoms: C_18  and  N_27
    8  A    between atoms: C_28  and  C_44
    9  A    between atoms: C_34  and  N_45
   10  A    between atoms: C_36  and  O_43
   11  A    between atoms: N_45  and  C_46
                            x       y       z     vdW  Elec       q    Type
                         _______ _______ _______ _____ _____    ______ ____

>  <TORSDO>
F 11

$$$$
=
 OpenBabel10232408033D

 46 52  0  0  1  0  0  0  0  0999 V2000
  185.7820  175.1180  136.2720 C   0  0  2  0  0  3  0  0  0  0  0  0
  187.9180  174.2440  137.1300 C   0  0  0  0  0  3  0  0  0  0  0  0
  186.6110  174.0500  136.9230 C   0  0  0  0  0  3  0  0  0  0  0  0
  183.6250  175.7140  137.0230 N   0  0  0  0  0  0  0  0  0  0  0  0
  188.1260  176.7070  137.5740 C   0  0  0  0  0  0  0  0  0  0  0  0
  188.5770  175.5330  136.7220 C   0  0  1  0  0  3  0  0  0  0  0  0
  185.7270  176.3180  137.2010 C   0  0  0  0  0  0  0  0  0  0  0  0
  184.5300  176.5870  137.6260 N   0  0  0  0  0  0  0  0  0  0  0  0
  184.3270  174.7780  136.2700 C   0  0  0  0  0  0  0  0  0  0  0  0
  183.6650  173.6660  135.9860 C   0  0  0  0  0  0  0  0  0  0  0  0
  186.8670  177.0100  137.7280 N   0  0  0  0  0  0  0  0  0  0  0  0
  182.3920  175.2200  137.5950 C   0  0  0  0  0  2  0  0  0  0  0  0
  182.0140  173.6660  136.6890 S   0  0  0  0  0  0  0  0  0  0  0  0
  194.5860  175.2770  136.0950 C   0  0  0  0  0  2  0  0  0  0  0  0
  192.0120  174.7390  137.1810 C   0  0  0  0  0  0  0  0  0  0  0  0
  190.7130  174.5400  137.4590 N   0  0  0  0  0  0  0  0  0  0  0  0
  190.8570  176.1240  135.9250 C   0  0  0  0  0  3  0  0  0  0  0  0
  193.4470  176.2410  135.7280 C   0  0  2  0  0  3  0  0  0  0  0  0
  192.1370  175.6940  136.2040 C   0  0  0  0  0  0  0  0  0  0  0  0
  190.0300  175.3850  136.6940 N   0  0  0  0  0  0  0  0  0  0  0  0
  193.4220  176.4240  134.3470 O   0  0  0  0  0  1  0  0  0  0  0  0
  193.1690  173.9850  137.7570 C   0  0  0  0  0  2  0  0  0  0  0  0
  194.4640  174.7850  137.5500 C   0  0  1  0  0  3  0  0  0  0  0  0
  196.5930  174.4480  137.0530 C   0  0  0  0  0  1  0  0  0  0  0  0
  195.5630  173.9850  137.8730 O   0  0  0  0  0  0  0  0  0  0  0  0
  189.1580  177.5620  138.2610 C   0  0  1  0  0  3  0  0  0  0  0  0
  188.9940  179.0350  137.9210 C   0  0  0  0  0  1  0  0  0  0  0  0
  189.2180  177.3130  139.7690 C   0  0  0  0  0  2  0  0  0  0  0  0
  188.6290  178.4690  140.5680 C   0  0  0  0  0  2  0  0  0  0  0  0
  187.5130  177.9880  141.4850 C   0  0  1  0  0  3  0  0  0  0  0  0
  187.0550  177.6200  143.9460 C   0  0  0  0  0  3  0  0  0  0  0  0
  191.2620  177.6550  144.7660 C   0  0  0  0  0  1  0  0  0  0  0  0
  187.5100  177.4370  145.2550 C   0  0  0  0  0  3  0  0  0  0  0  0
  189.7960  177.6470  144.4980 C   0  0  0  0  0  0  0  0  0  0  0  0
  189.3100  177.2710  146.8420 O   0  0  0  0  0  1  0  0  0  0  0  0
  188.8790  177.4560  145.5360 C   0  0  0  0  0  0  0  0  0  0  0  0
  189.3390  177.8300  143.1890 C   0  0  0  0  0  3  0  0  0  0  0  0
  187.9710  177.8310  142.9080 C   0  0  0  0  0  0  0  0  0  0  0  0
  185.9710  179.1320  140.0700 O   0  0  0  0  0  0  0  0  0  0  0  0
  186.3400  178.9480  141.4140 C   0  0  1  0  0  3  0  0  0  0  0  0
  185.1670  178.2670  140.8320 C   0  0  1  0  0  3  0  0  0  0  0  0
  182.7930  178.2490  140.8160 O   0  0  0  0  0  1  0  0  0  0  0  0
  183.9010  178.9880  141.2310 C   0  0  0  0  0  2  0  0  0  0  0  0
  184.2110  172.5160  135.3340 N   0  0  0  0  0  2  0  0  0  0  0  0
  183.7180  170.1040  136.0450 N   0  0  0  0  0  0  0  0  0  0  0  0
  183.9400  171.1950  135.7230 C   0  0  0  0  0  0  0  0  0  0  0  0
  1  3  1  1  0  0  0
  1  7  1  0  0  0  0
  3  2  2  0  0  0  0
  4 12  1  0  0  0  0
  4  8  1  0  0  0  0
  5 11  2  0  0  0  0
  5 26  1  0  0  0  0
  6 20  1  1  0  0  0
  6  2  1  0  0  0  0
  6  5  1  0  0  0  0
  7  8  2  0  0  0  0
  7 11  1  0  0  0  0
  9  1  1  0  0  0  0
  9  4  1  0  0  0  0
 10  9  2  0  0  0  0
 10 13  1  0  0  0  0
 13 12  1  0  0  0  0
 14 23  1  0  0  0  0
 15 16  2  0  0  0  0
 15 22  1  0  0  0  0
 17 19  2  0  0  0  0
 17 20  1  0  0  0  0
 18 21  1  6  0  0  0
 18 14  1  0  0  0  0
 18 19  1  0  0  0  0
 19 15  1  0  0  0  0
 20 16  1  0  0  0  0
 23 22  1  0  0  0  0
 23 25  1  6  0  0  0
 24 25  1  0  0  0  0
 26 27  1  1  0  0  0
 26 28  1  0  0  0  0
 28 29  1  0  0  0  0
 30 29  1  6  0  0  0
 30 38  1  0  0  0  0
 31 33  1  0  0  0  0
 33 36  2  0  0  0  0
 34 32  1  0  0  0  0
 34 36  1  0  0  0  0
 36 35  1  0  0  0  0
 37 34  2  0  0  0  0
 38 37  1  0  0  0  0
 38 31  2  0  0  0  0
 39 41  1  0  0  0  0
 39 40  1  0  0  0  0
 40 30  1  6  0  0  0
 41 43  1  1  0  0  0
 41 40  1  0  0  0  0
 42 43  1  0  0  0  0
 44 46  1  0  0  0  0
 44 10  1  0  0  0  0
 46 45  3  0  0  0  0
M  END
>  <MODEL>
3

>  <REMARK>
 VINA RESULT:      -7.6      1.646      2.456
  Name = 
  11 active torsions:
  status: ('A' for Active; 'I' for Inactive)
    1  A    between atoms: C_3  and  C_17
    2  A    between atoms: C_3  and  C_42
    3  A    between atoms: C_3  and  C_44
    4  A    between atoms: C_8  and  C_16
    5  A    between atoms: C_8  and  C_28
    6  A    between atoms: C_12  and  C_19
    7  A    between atoms: C_18  and  N_27
    8  A    between atoms: C_28  and  C_44
    9  A    between atoms: C_34  and  N_45
   10  A    between atoms: C_36  and  O_43
   11  A    between atoms: N_45  and  C_46
                            x       y       z     vdW  Elec       q    Type
                         _______ _______ _______ _____ _____    ______ ____

>  <TORSDO>
F 11

$$$$
=
 OpenBabel10232408033D

 46 52  0  0  1  0  0  0  0  0999 V2000
  185.4100  175.5500  136.4340 C   0  0  2  0  0  3  0  0  0  0  0  0
  187.6580  174.8020  137.1030 C   0  0  0  0  0  3  0  0  0  0  0  0
  186.3490  174.5400  137.0240 C   0  0  0  0  0  3  0  0  0  0  0  0
  183.3040  176.0570  137.3730 N   0  0  0  0  0  0  0  0  0  0  0  0
  187.7810  177.2820  137.4790 C   0  0  0  0  0  0  0  0  0  0  0  0
  188.2100  176.1120  136.6100 C   0  0  1  0  0  3  0  0  0  0  0  0
  185.3800  176.7670  137.3410 C   0  0  0  0  0  0  0  0  0  0  0  0
  184.2150  176.9870  137.8710 N   0  0  0  0  0  0  0  0  0  0  0  0
  183.9800  175.1390  136.5750 C   0  0  0  0  0  0  0  0  0  0  0  0
  183.3520  173.9900  136.3760 C   0  0  0  0  0  0  0  0  0  0  0  0
  186.5270  177.5270  137.7450 N   0  0  0  0  0  0  0  0  0  0  0  0
  182.1560  175.5180  138.0680 C   0  0  0  0  0  2  0  0  0  0  0  0
  181.7750  173.9260  137.2310 S   0  0  0  0  0  0  0  0  0  0  0  0
  194.2520  175.9090  136.5540 C   0  0  0  0  0  2  0  0  0  0  0  0
  191.5920  175.8580  135.5470 C   0  0  0  0  0  0  0  0  0  0  0  0
  190.2820  175.9740  135.2770 N   0  0  0  0  0  0  0  0  0  0  0  0
  190.5370  175.9610  137.4720 C   0  0  0  0  0  3  0  0  0  0  0  0
  193.1190  175.6650  137.5620 C   0  0  2  0  0  3  0  0  0  0  0  0
  191.7910  175.8820  136.9040 C   0  0  0  0  0  0  0  0  0  0  0  0
  189.6590  176.0340  136.4490 N   0  0  0  0  0  0  0  0  0  0  0  0
  193.2690  176.5290  138.6450 O   0  0  0  0  0  1  0  0  0  0  0  0
  192.7030  175.8060  134.5470 C   0  0  0  0  0  2  0  0  0  0  0  0
  193.9660  175.2260  135.2030 C   0  0  1  0  0  3  0  0  0  0  0  0
  196.1750  175.1280  135.1380 C   0  0  0  0  0  1  0  0  0  0  0  0
  195.0560  175.3930  134.3470 O   0  0  0  0  0  0  0  0  0  0  0  0
  188.8270  178.2020  138.0490 C   0  0  1  0  0  3  0  0  0  0  0  0
  189.0110  179.4500  137.2000 C   0  0  0  0  0  1  0  0  0  0  0  0
  188.5820  178.5280  139.5230 C   0  0  0  0  0  2  0  0  0  0  0  0
  188.5520  177.2770  140.3930 C   0  0  0  0  0  2  0  0  0  0  0  0
  188.8620  177.6130  141.8450 C   0  0  1  0  0  3  0  0  0  0  0  0
  186.4710  178.4230  142.0120 C   0  0  0  0  0  3  0  0  0  0  0  0
  186.4580  177.6110  146.2210 C   0  0  0  0  0  1  0  0  0  0  0  0
  185.3180  178.6690  142.7650 C   0  0  0  0  0  3  0  0  0  0  0  0
  186.4490  177.9050  144.7600 C   0  0  0  0  0  0  0  0  0  0  0  0
  184.1520  178.6680  144.8680 O   0  0  0  0  0  1  0  0  0  0  0  0
  185.3060  178.4180  144.1390 C   0  0  0  0  0  0  0  0  0  0  0  0
  187.6010  177.6580  144.0060 C   0  0  0  0  0  3  0  0  0  0  0  0
  187.6240  177.9280  142.6360 C   0  0  0  0  0  0  0  0  0  0  0  0
  190.7160  176.1210  141.6820 O   0  0  0  0  0  0  0  0  0  0  0  0
  189.6180  176.4640  142.4890 C   0  0  1  0  0  3  0  0  0  0  0  0
  190.9900  176.8900  142.8250 C   0  0  1  0  0  3  0  0  0  0  0  0
  191.7380  176.7320  145.0730 O   0  0  0  0  0  1  0  0  0  0  0  0
  191.5580  175.9950  143.9020 C   0  0  0  0  0  2  0  0  0  0  0  0
  183.8920  172.8530  135.6970 N   0  0  0  0  0  2  0  0  0  0  0  0
  183.4020  170.4290  136.3660 N   0  0  0  0  0  0  0  0  0  0  0  0
  183.6250  171.5240  136.0630 C   0  0  0  0  0  0  0  0  0  0  0  0
  1  9  1  0  0  0  0
  1  3  1  1  0  0  0
  1  7  1  0  0  0  0
  3  2  2  0  0  0  0
  4  8  1  0  0  0  0
  4 12  1  0  0  0  0
  5 11  2  0  0  0  0
  5 26  1  0  0  0  0
  6 20  1  1  0  0  0
  6  2  1  0  0  0  0
  6  5  1  0  0  0  0
  7 11  1  0  0  0  0
  7  8  2  0  0  0  0
  9  4  1  0  0  0  0
 10  9  2  0  0  0  0
 10 13  1  0  0  0  0
 13 12  1  0  0  0  0
 14 18  1  0  0  0  0
 15 19  1  0  0  0  0
 16 15  2  0  0  0  0
 16 20  1  0  0  0  0
 18 21  1  1  0  0  0
 19 17  2  0  0  0  0
 19 18  1  0  0  0  0
 20 17  1  0  0  0  0
 22 23  1  0  0  0  0
 22 15  1  0  0  0  0
 23 25  1  6  0  0  0
 23 14  1  0  0  0  0
 25 24  1  0  0  0  0
 26 27  1  6  0  0  0
 26 28  1  0  0  0  0
 28 29  1  0  0  0  0
 30 29  1  6  0  0  0
 30 38  1  0  0  0  0
 31 38  2  0  0  0  0
 31 33  1  0  0  0  0
 33 36  2  0  0  0  0
 34 32  1  0  0  0  0
 36 34  1  0  0  0  0
 36 35  1  0  0  0  0
 37 34  2  0  0  0  0
 38 37  1  0  0  0  0
 39 40  1  0  0  0  0
 39 41  1  0  0  0  0
 40 30  1  6  0  0  0
 40 41  1  0  0  0  0
 41 43  1  1  0  0  0
 43 42  1  0  0  0  0
 44 46  1  0  0  0  0
 44 10  1  0  0  0  0
 46 45  3  0  0  0  0
M  END
>  <MODEL>
4

>  <REMARK>
 VINA RESULT:      -7.5      2.098      3.495
  Name = 
  11 active torsions:
  status: ('A' for Active; 'I' for Inactive)
    1  A    between atoms: C_3  and  C_17
    2  A    between atoms: C_3  and  C_42
    3  A    between atoms: C_3  and  C_44
    4  A    between atoms: C_8  and  C_16
    5  A    between atoms: C_8  and  C_28
    6  A    between atoms: C_12  and  C_19
    7  A    between atoms: C_18  and  N_27
    8  A    between atoms: C_28  and  C_44
    9  A    between atoms: C_34  and  N_45
   10  A    between atoms: C_36  and  O_43
   11  A    between atoms: N_45  and  C_46
                            x       y       z     vdW  Elec       q    Type
                         _______ _______ _______ _____ _____    ______ ____

>  <TORSDO>
F 11

$$$$
=
 OpenBabel10232408033D

 46 52  0  0  1  0  0  0  0  0999 V2000
  187.0610  178.0130  138.4320 C   0  0  2  0  0  3  0  0  0  0  0  0
  188.4390  176.0050  138.0710 C   0  0  0  0  0  3  0  0  0  0  0  0
  187.2270  176.5690  138.0600 C   0  0  0  0  0  3  0  0  0  0  0  0
  185.3110  178.7970  139.8080 N   0  0  0  0  0  0  0  0  0  0  0  0
  189.6550  177.1650  139.9380 C   0  0  0  0  0  0  0  0  0  0  0  0
  189.6540  176.8030  138.4630 C   0  0  1  0  0  3  0  0  0  0  0  0
  187.4130  178.1750  139.9000 C   0  0  0  0  0  0  0  0  0  0  0  0
  186.4130  178.5670  140.6300 N   0  0  0  0  0  0  0  0  0  0  0  0
  185.6230  178.4130  138.5070 C   0  0  0  0  0  0  0  0  0  0  0  0
  184.5840  178.1820  137.7190 C   0  0  0  0  0  0  0  0  0  0  0  0
  188.6540  177.7830  140.5020 N   0  0  0  0  0  0  0  0  0  0  0  0
  183.9190  178.6300  140.1650 C   0  0  0  0  0  2  0  0  0  0  0  0
  183.0230  178.4140  138.5750 S   0  0  0  0  0  0  0  0  0  0  0  0
  194.9360  174.5300  136.5960 C   0  0  0  0  0  2  0  0  0  0  0  0
  192.2800  174.5630  137.6140 C   0  0  0  0  0  0  0  0  0  0  0  0
  191.0070  174.7990  137.9680 N   0  0  0  0  0  0  0  0  0  0  0  0
  192.0370  176.7430  137.7570 C   0  0  0  0  0  3  0  0  0  0  0  0
  194.4070  175.8620  137.1490 C   0  0  2  0  0  3  0  0  0  0  0  0
  192.9420  175.7520  137.4390 C   0  0  0  0  0  0  0  0  0  0  0  0
  190.8760  176.1180  138.0520 N   0  0  0  0  0  0  0  0  0  0  0  0
  194.6410  176.8740  136.2200 O   0  0  0  0  0  1  0  0  0  0  0  0
  192.8940  173.2250  137.3450 C   0  0  0  0  0  2  0  0  0  0  0  0
  194.4240  173.3320  137.4180 C   0  0  1  0  0  3  0  0  0  0  0  0
  196.1940  172.0250  137.6520 C   0  0  0  0  0  1  0  0  0  0  0  0
  194.9980  172.1510  136.9430 O   0  0  0  0  0  0  0  0  0  0  0  0
  190.8490  176.8150  140.7840 C   0  0  1  0  0  3  0  0  0  0  0  0
  191.6890  178.0390  141.1180 C   0  0  0  0  0  1  0  0  0  0  0  0
  190.4720  176.0080  142.0280 C   0  0  0  0  0  2  0  0  0  0  0  0
  189.2160  176.5450  142.7040 C   0  0  0  0  0  2  0  0  0  0  0  0
  189.5420  177.1520  144.0610 C   0  0  1  0  0  3  0  0  0  0  0  0
  188.3420  177.6620  146.2300 C   0  0  0  0  0  3  0  0  0  0  0  0
  184.7110  178.4120  144.0790 C   0  0  0  0  0  1  0  0  0  0  0  0
  187.1880  178.0400  146.9230 C   0  0  0  0  0  3  0  0  0  0  0  0
  185.9640  178.1480  144.8410 C   0  0  0  0  0  0  0  0  0  0  0  0
  184.8620  178.6510  146.9390 O   0  0  0  0  0  1  0  0  0  0  0  0
  185.9960  178.2770  146.2330 C   0  0  0  0  0  0  0  0  0  0  0  0
  187.1190  177.7720  144.1490 C   0  0  0  0  0  3  0  0  0  0  0  0
  188.3070  177.5140  144.8370 C   0  0  0  0  0  0  0  0  0  0  0  0
  191.7200  176.2310  144.3770 O   0  0  0  0  0  0  0  0  0  0  0  0
  190.4010  176.1890  144.8610 C   0  0  1  0  0  3  0  0  0  0  0  0
  191.4630  176.9300  145.5680 C   0  0  1  0  0  3  0  0  0  0  0  0
  191.9840  176.9150  147.8840 O   0  0  0  0  0  1  0  0  0  0  0  0
  191.9660  176.1190  146.7390 C   0  0  0  0  0  2  0  0  0  0  0  0
  184.6490  177.6630  136.3880 N   0  0  0  0  0  2  0  0  0  0  0  0
  184.2900  175.1960  135.7970 N   0  0  0  0  0  0  0  0  0  0  0  0
  184.4510  176.3110  136.0660 C   0  0  0  0  0  0  0  0  0  0  0  0
  1  3  1  1  0  0  0
  1  9  1  0  0  0  0
  1  7  1  0  0  0  0
  2  6  1  0  0  0  0
  3  2  2  0  0  0  0
  4 12  1  0  0  0  0
  4  8  1  0  0  0  0
  5 11  2  0  0  0  0
  5 26  1  0  0  0  0
  6 20  1  1  0  0  0
  6  5  1  0  0  0  0
  7 11  1  0  0  0  0
  7  8  2  0  0  0  0
  9  4  1  0  0  0  0
 10  9  2  0  0  0  0
 10 13  1  0  0  0  0
 13 12  1  0  0  0  0
 14 18  1  0  0  0  0
 14 23  1  0  0  0  0
 15 16  2  0  0  0  0
 16 20  1  0  0  0  0
 17 20  1  0  0  0  0
 18 21  1  6  0  0  0
 18 19  1  0  0  0  0
 19 15  1  0  0  0  0
 19 17  2  0  0  0  0
 22 23  1  0  0  0  0
 22 15  1  0  0  0  0
 23 25  1  6  0  0  0
 25 24  1  0  0  0  0
 26 27  1  1  0  0  0
 26 28  1  0  0  0  0
 28 29  1  0  0  0  0
 30 29  1  6  0  0  0
 30 38  1  0  0  0  0
 31 33  1  0  0  0  0
 32 34  1  0  0  0  0
 34 36  1  0  0  0  0
 36 33  2  0  0  0  0
 36 35  1  0  0  0  0
 37 38  1  0  0  0  0
 37 34  2  0  0  0  0
 38 31  2  0  0  0  0
 39 40  1  0  0  0  0
 39 41  1  0  0  0  0
 40 30  1  6  0  0  0
 40 41  1  0  0  0  0
 41 43  1  1  0  0  0
 43 42  1  0  0  0  0
 44 10  1  0  0  0  0
 45 46  3  0  0  0  0
 46 44  1  0  0  0  0
M  END
>  <MODEL>
5

>  <REMARK>
 VINA RESULT:      -7.5      3.069      4.950
  Name = 
  11 active torsions:
  status: ('A' for Active; 'I' for Inactive)
    1  A    between atoms: C_3  and  C_17
    2  A    between atoms: C_3  and  C_42
    3  A    between atoms: C_3  and  C_44
    4  A    between atoms: C_8  and  C_16
    5  A    between atoms: C_8  and  C_28
    6  A    between atoms: C_12  and  C_19
    7  A    between atoms: C_18  and  N_27
    8  A    between atoms: C_28  and  C_44
    9  A    between atoms: C_34  and  N_45
   10  A    between atoms: C_36  and  O_43
   11  A    between atoms: N_45  and  C_46
                            x       y       z     vdW  Elec       q    Type
                         _______ _______ _______ _____ _____    ______ ____

>  <TORSDO>
F 11

$$$$
=
 OpenBabel10232408033D

 46 52  0  0  1  0  0  0  0  0999 V2000
  188.5350  178.4710  142.3590 C   0  0  2  0  0  3  0  0  0  0  0  0
  186.2130  177.7860  141.9080 C   0  0  0  0  0  3  0  0  0  0  0  0
  187.3090  177.6600  142.6630 C   0  0  0  0  0  3  0  0  0  0  0  0
  190.7190  177.5770  142.4140 N   0  0  0  0  0  0  0  0  0  0  0  0
  187.0890  178.2750  139.6050 C   0  0  0  0  0  0  0  0  0  0  0  0
  186.1900  178.7350  140.7400 C   0  0  1  0  0  3  0  0  0  0  0  0
  189.0870  178.0250  141.0180 C   0  0  0  0  0  0  0  0  0  0  0  0
  190.2720  177.5000  141.0960 N   0  0  0  0  0  0  0  0  0  0  0  0
  189.6960  178.0780  143.2140 C   0  0  0  0  0  0  0  0  0  0  0  0
  189.8130  177.8250  144.5090 C   0  0  0  0  0  0  0  0  0  0  0  0
  188.3510  177.9990  139.7870 N   0  0  0  0  0  0  0  0  0  0  0  0
  191.6010  176.6460  143.0810 C   0  0  0  0  0  2  0  0  0  0  0  0
  191.2840  176.8660  144.8790 S   0  0  0  0  0  0  0  0  0  0  0  0
  180.3590  179.2400  139.2250 C   0  0  0  0  0  2  0  0  0  0  0  0
  183.1290  179.8780  139.3430 C   0  0  0  0  0  0  0  0  0  0  0  0
  184.4670  179.9310  139.4400 N   0  0  0  0  0  0  0  0  0  0  0  0
  183.7390  178.3200  140.7670 C   0  0  0  0  0  3  0  0  0  0  0  0
  181.1880  178.5910  140.3440 C   0  0  2  0  0  3  0  0  0  0  0  0
  182.6450  178.8630  140.1290 C   0  0  0  0  0  0  0  0  0  0  0  0
  184.8190  178.9860  140.3050 N   0  0  0  0  0  0  0  0  0  0  0  0
  180.9500  177.2180  140.3600 O   0  0  0  0  0  1  0  0  0  0  0  0
  182.2700  180.7170  138.4490 C   0  0  0  0  0  2  0  0  0  0  0  0
  180.8170  180.6840  138.9450 C   0  0  1  0  0  3  0  0  0  0  0  0
  180.8540  181.8360  137.0570 C   0  0  0  0  0  1  0  0  0  0  0  0
  179.9830  181.2690  137.9890 O   0  0  0  0  0  0  0  0  0  0  0  0
  186.5180  178.1380  138.2190 C   0  0  1  0  0  3  0  0  0  0  0  0
  187.4280  178.7510  137.1660 C   0  0  0  0  0  1  0  0  0  0  0  0
  186.1240  176.6980  137.8850 C   0  0  0  0  0  2  0  0  0  0  0  0
  186.9730  176.1140  136.7620 C   0  0  0  0  0  2  0  0  0  0  0  0
  187.6200  174.8050  137.1900 C   0  0  1  0  0  3  0  0  0  0  0  0
  187.5580  172.7450  135.7220 C   0  0  0  0  0  3  0  0  0  0  0  0
  183.5680  171.8930  137.0340 C   0  0  0  0  0  1  0  0  0  0  0  0
  186.8940  171.6140  135.2380 C   0  0  0  0  0  3  0  0  0  0  0  0
  184.9520  172.1790  136.5630 C   0  0  0  0  0  0  0  0  0  0  0  0
  184.9460  170.2040  135.1600 O   0  0  0  0  0  1  0  0  0  0  0  0
  185.5890  171.3310  135.6510 C   0  0  0  0  0  0  0  0  0  0  0  0
  185.6190  173.3100  137.0470 C   0  0  0  0  0  3  0  0  0  0  0  0
  186.9150  173.6060  136.6200 C   0  0  0  0  0  0  0  0  0  0  0  0
  189.4860  176.1080  136.4750 O   0  0  0  0  0  0  0  0  0  0  0  0
  189.0820  174.7970  136.7820 C   0  0  1  0  0  3  0  0  0  0  0  0
  189.8730  175.6060  137.7290 C   0  0  1  0  0  3  0  0  0  0  0  0
  192.1350  176.3270  137.7380 O   0  0  0  0  0  1  0  0  0  0  0  0
  191.3260  175.1930  137.6720 C   0  0  0  0  0  2  0  0  0  0  0  0
  188.8350  178.1290  145.5080 N   0  0  0  0  0  2  0  0  0  0  0  0
  188.6400  176.8850  147.7400 N   0  0  0  0  0  0  0  0  0  0  0  0
  188.7300  177.4480  146.7310 C   0  0  0  0  0  0  0  0  0  0  0  0
  1  3  1  1  0  0  0
  1  9  1  0  0  0  0
  2  3  2  0  0  0  0
  4 12  1  0  0  0  0
  4  9  1  0  0  0  0
  5 11  2  0  0  0  0
  5  6  1  0  0  0  0
  6 20  1  6  0  0  0
  6  2  1  0  0  0  0
  7  8  2  0  0  0  0
  7  1  1  0  0  0  0
  8  4  1  0  0  0  0
  9 10  2  0  0  0  0
 10 13  1  0  0  0  0
 10 44  1  0  0  0  0
 11  7  1  0  0  0  0
 12 13  1  0  0  0  0
 14 18  1  0  0  0  0
 15 16  2  0  0  0  0
 15 19  1  0  0  0  0
 16 20  1  0  0  0  0
 18 21  1  6  0  0  0
 19 18  1  0  0  0  0
 19 17  2  0  0  0  0
 20 17  1  0  0  0  0
 22 23  1  0  0  0  0
 22 15  1  0  0  0  0
 23 25  1  6  0  0  0
 23 14  1  0  0  0  0
 24 25  1  0  0  0  0
 26 27  1  6  0  0  0
 26  5  1  0  0  0  0
 28 26  1  0  0  0  0
 29 28  1  0  0  0  0
 30 29  1  6  0  0  0
 31 38  1  0  0  0  0
 33 36  1  0  0  0  0
 33 31  2  0  0  0  0
 34 32  1  0  0  0  0
 34 37  1  0  0  0  0
 35 36  1  0  0  0  0
 36 34  2  0  0  0  0
 38 37  2  0  0  0  0
 38 30  1  0  0  0  0
 39 40  1  0  0  0  0
 39 41  1  0  0  0  0
 40 30  1  1  0  0  0
 40 41  1  0  0  0  0
 41 43  1  6  0  0  0
 43 42  1  0  0  0  0
 44 46  1  0  0  0  0
 46 45  3  0  0  0  0
M  END
>  <MODEL>
6

>  <REMARK>
 VINA RESULT:      -7.4      4.473     10.528
  Name = 
  11 active torsions:
  status: ('A' for Active; 'I' for Inactive)
    1  A    between atoms: C_3  and  C_17
    2  A    between atoms: C_3  and  C_42
    3  A    between atoms: C_3  and  C_44
    4  A    between atoms: C_8  and  C_16
    5  A    between atoms: C_8  and  C_28
    6  A    between atoms: C_12  and  C_19
    7  A    between atoms: C_18  and  N_27
    8  A    between atoms: C_28  and  C_44
    9  A    between atoms: C_34  and  N_45
   10  A    between atoms: C_36  and  O_43
   11  A    between atoms: N_45  and  C_46
                            x       y       z     vdW  Elec       q    Type
                         _______ _______ _______ _____ _____    ______ ____

>  <TORSDO>
F 11

$$$$
=
 OpenBabel10232408033D

 46 52  0  0  1  0  0  0  0  0999 V2000
  188.7250  178.1750  143.8320 C   0  0  2  0  0  3  0  0  0  0  0  0
  186.7000  177.2930  142.7440 C   0  0  0  0  0  3  0  0  0  0  0  0
  187.6060  177.1820  143.7220 C   0  0  0  0  0  3  0  0  0  0  0  0
  190.9540  177.5580  144.3060 N   0  0  0  0  0  0  0  0  0  0  0  0
  187.9820  178.2470  140.8060 C   0  0  0  0  0  0  0  0  0  0  0  0
  186.7920  178.4060  141.7360 C   0  0  1  0  0  3  0  0  0  0  0  0
  189.6270  178.0200  142.6210 C   0  0  0  0  0  0  0  0  0  0  0  0
  190.8320  177.6380  142.9200 N   0  0  0  0  0  0  0  0  0  0  0  0
  189.7130  177.7950  144.8880 C   0  0  0  0  0  0  0  0  0  0  0  0
  189.5750  177.3550  146.1300 C   0  0  0  0  0  0  0  0  0  0  0  0
  189.1990  178.1020  141.2540 N   0  0  0  0  0  0  0  0  0  0  0  0
  191.7990  176.6460  145.0450 C   0  0  0  0  0  2  0  0  0  0  0  0
  191.0570  176.5350  146.7230 S   0  0  0  0  0  0  0  0  0  0  0  0
  181.4340  178.4380  138.9330 C   0  0  0  0  0  2  0  0  0  0  0  0
  183.9890  179.3670  139.7720 C   0  0  0  0  0  0  0  0  0  0  0  0
  185.2500  179.5580  140.1900 N   0  0  0  0  0  0  0  0  0  0  0  0
  184.4800  177.7150  141.1360 C   0  0  0  0  0  3  0  0  0  0  0  0
  182.0760  177.7470  140.1470 C   0  0  2  0  0  3  0  0  0  0  0  0
  183.4900  178.2090  140.3130 C   0  0  0  0  0  0  0  0  0  0  0  0
  185.5310  178.5540  141.0140 N   0  0  0  0  0  0  0  0  0  0  0  0
  182.0370  176.3650  139.9660 O   0  0  0  0  0  1  0  0  0  0  0  0
  183.2420  180.2120  138.7890 C   0  0  0  0  0  2  0  0  0  0  0  0
  181.7340  179.9490  138.9190 C   0  0  1  0  0  3  0  0  0  0  0  0
  180.9030  179.5410  136.9090 C   0  0  0  0  0  1  0  0  0  0  0  0
  181.0610  180.5550  137.8550 O   0  0  0  0  0  0  0  0  0  0  0  0
  187.7650  178.2650  139.3170 C   0  0  1  0  0  3  0  0  0  0  0  0
  188.9830  178.7880  138.5700 C   0  0  0  0  0  1  0  0  0  0  0  0
  187.2820  176.9180  138.7770 C   0  0  0  0  0  2  0  0  0  0  0  0
  186.4520  177.0690  137.5080 C   0  0  0  0  0  2  0  0  0  0  0  0
  186.7650  175.9600  136.5140 C   0  0  1  0  0  3  0  0  0  0  0  0
  188.7450  176.9150  135.2610 C   0  0  0  0  0  3  0  0  0  0  0  0
  191.2990  173.9130  136.9450 C   0  0  0  0  0  1  0  0  0  0  0  0
  190.1060  176.9000  134.9400 C   0  0  0  0  0  3  0  0  0  0  0  0
  190.4230  174.9580  136.3460 C   0  0  0  0  0  0  0  0  0  0  0  0
  192.2940  175.9220  135.1460 O   0  0  0  0  0  1  0  0  0  0  0  0
  190.9470  175.9200  135.4750 C   0  0  0  0  0  0  0  0  0  0  0  0
  189.0610  174.9760  136.6660 C   0  0  0  0  0  3  0  0  0  0  0  0
  188.2150  175.9420  136.1170 C   0  0  0  0  0  0  0  0  0  0  0  0
  184.9810  174.6140  137.3480 O   0  0  0  0  0  0  0  0  0  0  0  0
  186.3650  174.6180  137.0980 C   0  0  1  0  0  3  0  0  0  0  0  0
  185.4150  173.9390  136.1950 C   0  0  1  0  0  3  0  0  0  0  0  0
  184.1710  172.0580  136.9380 O   0  0  0  0  0  1  0  0  0  0  0  0
  185.4220  172.4520  136.4630 C   0  0  0  0  0  2  0  0  0  0  0  0
  188.3630  177.3730  146.8890 N   0  0  0  0  0  2  0  0  0  0  0  0
  188.2320  178.0560  149.3550 N   0  0  0  0  0  0  0  0  0  0  0  0
  188.2930  177.7470  148.2400 C   0  0  0  0  0  0  0  0  0  0  0  0
  1  3  1  6  0  0  0
  1  9  1  0  0  0  0
  2  3  2  0  0  0  0
  4  9  1  0  0  0  0
  4 12  1  0  0  0  0
  5 11  2  0  0  0  0
  5  6  1  0  0  0  0
  6 20  1  6  0  0  0
  6  2  1  0  0  0  0
  7  8  2  0  0  0  0
  7  1  1  0  0  0  0
  8  4  1  0  0  0  0
  9 10  2  0  0  0  0
 10 13  1  0  0  0  0
 10 44  1  0  0  0  0
 11  7  1  0  0  0  0
 12 13  1  0  0  0  0
 14 18  1  0  0  0  0
 15 16  2  0  0  0  0
 15 19  1  0  0  0  0
 16 20  1  0  0  0  0
 18 21  1  6  0  0  0
 18 19  1  0  0  0  0
 19 17  2  0  0  0  0
 20 17  1  0  0  0  0
 22 23  1  0  0  0  0
 22 15  1  0  0  0  0
 23 25  1  6  0  0  0
 23 14  1  0  0  0  0
 24 25  1  0  0  0  0
 26 27  1  6  0  0  0
 26  5  1  0  0  0  0
 28 26  1  0  0  0  0
 29 28  1  0  0  0  0
 30 29  1  1  0  0  0
 31 38  1  0  0  0  0
 33 31  2  0  0  0  0
 33 36  1  0  0  0  0
 34 37  1  0  0  0  0
 34 32  1  0  0  0  0
 35 36  1  0  0  0  0
 36 34  2  0  0  0  0
 38 30  1  0  0  0  0
 38 37  2  0  0  0  0
 40 30  1  6  0  0  0
 40 39  1  0  0  0  0
 41 43  1  1  0  0  0
 41 40  1  0  0  0  0
 41 39  1  0  0  0  0
 43 42  1  0  0  0  0
 44 46  1  0  0  0  0
 46 45  3  0  0  0  0
M  END
>  <MODEL>
7

>  <REMARK>
 VINA RESULT:      -7.3      4.662     10.286
  Name = 
  11 active torsions:
  status: ('A' for Active; 'I' for Inactive)
    1  A    between atoms: C_3  and  C_17
    2  A    between atoms: C_3  and  C_42
    3  A    between atoms: C_3  and  C_44
    4  A    between atoms: C_8  and  C_16
    5  A    between atoms: C_8  and  C_28
    6  A    between atoms: C_12  and  C_19
    7  A    between atoms: C_18  and  N_27
    8  A    between atoms: C_28  and  C_44
    9  A    between atoms: C_34  and  N_45
   10  A    between atoms: C_36  and  O_43
   11  A    between atoms: N_45  and  C_46
                            x       y       z     vdW  Elec       q    Type
                         _______ _______ _______ _____ _____    ______ ____

>  <TORSDO>
F 11

$$$$
=
 OpenBabel10232408033D

 46 52  0  0  1  0  0  0  0  0999 V2000
  184.4750  177.2790  136.9640 C   0  0  2  0  0  3  0  0  0  0  0  0
  186.2750  175.6450  137.3530 C   0  0  0  0  0  3  0  0  0  0  0  0
  184.9630  175.8990  137.2940 C   0  0  0  0  0  3  0  0  0  0  0  0
  182.6810  178.3160  138.0960 N   0  0  0  0  0  0  0  0  0  0  0  0
  187.2910  177.7790  138.2010 C   0  0  0  0  0  0  0  0  0  0  0  0
  187.2800  176.7340  137.0980 C   0  0  1  0  0  3  0  0  0  0  0  0
  184.8730  178.2130  138.0930 C   0  0  0  0  0  0  0  0  0  0  0  0
  183.8590  178.7290  138.7180 N   0  0  0  0  0  0  0  0  0  0  0  0
  182.9910  177.3970  137.0980 C   0  0  0  0  0  0  0  0  0  0  0  0
  181.9900  176.6210  136.7120 C   0  0  0  0  0  0  0  0  0  0  0  0
  186.2100  178.4040  138.5760 N   0  0  0  0  0  0  0  0  0  0  0  0
  181.4000  178.1030  138.7320 C   0  0  0  0  0  2  0  0  0  0  0  0
  180.4800  176.9640  137.6200 S   0  0  0  0  0  0  0  0  0  0  0  0
  192.8380  174.8500  135.6410 C   0  0  0  0  0  2  0  0  0  0  0  0
  190.2950  174.8600  136.9170 C   0  0  0  0  0  0  0  0  0  0  0  0
  189.0210  174.9980  137.3160 N   0  0  0  0  0  0  0  0  0  0  0  0
  189.5780  176.7910  136.1510 C   0  0  0  0  0  3  0  0  0  0  0  0
  192.0520  176.1710  135.6430 C   0  0  2  0  0  3  0  0  0  0  0  0
  190.6650  175.9420  136.1590 C   0  0  0  0  0  0  0  0  0  0  0  0
  188.6030  176.1690  136.8470 N   0  0  0  0  0  0  0  0  0  0  0  0
  192.0070  176.6840  134.3480 O   0  0  0  0  0  1  0  0  0  0  0  0
  191.1780  173.6770  137.1600 C   0  0  0  0  0  2  0  0  0  0  0  0
  192.6480  174.0760  136.9590 C   0  0  1  0  0  3  0  0  0  0  0  0
  193.4830  172.5260  135.6200 C   0  0  0  0  0  1  0  0  0  0  0  0
  193.4470  172.9310  136.9560 O   0  0  0  0  0  0  0  0  0  0  0  0
  188.5890  178.1190  138.8830 C   0  0  1  0  0  3  0  0  0  0  0  0
  189.3590  179.1990  138.1370 C   0  0  0  0  0  1  0  0  0  0  0  0
  188.4040  178.4510  140.3650 C   0  0  0  0  0  2  0  0  0  0  0  0
  188.2290  177.2000  141.2190 C   0  0  0  0  0  2  0  0  0  0  0  0
  188.7590  177.4230  142.6290 C   0  0  1  0  0  3  0  0  0  0  0  0
  186.3670  178.0530  143.1610 C   0  0  0  0  0  3  0  0  0  0  0  0
  187.2540  178.0030  147.3540 C   0  0  0  0  0  1  0  0  0  0  0  0
  185.3590  178.3350  144.0880 C   0  0  0  0  0  3  0  0  0  0  0  0
  186.9320  178.0310  145.9000 C   0  0  0  0  0  0  0  0  0  0  0  0
  184.6260  178.6130  146.3620 O   0  0  0  0  0  1  0  0  0  0  0  0
  185.6390  178.3310  145.4580 C   0  0  0  0  0  0  0  0  0  0  0  0
  187.9380  177.7490  144.9700 C   0  0  0  0  0  3  0  0  0  0  0  0
  187.6670  177.7720  143.6000 C   0  0  0  0  0  0  0  0  0  0  0  0
  190.4950  175.8560  142.1580 O   0  0  0  0  0  0  0  0  0  0  0  0
  189.5040  176.1870  143.0990 C   0  0  1  0  0  3  0  0  0  0  0  0
  190.9260  176.5110  143.3240 C   0  0  1  0  0  3  0  0  0  0  0  0
  191.9810  176.1470  145.4190 O   0  0  0  0  0  1  0  0  0  0  0  0
  191.5430  175.5010  144.2630 C   0  0  0  0  0  2  0  0  0  0  0  0
  182.0900  175.5280  135.7950 N   0  0  0  0  0  2  0  0  0  0  0  0
  181.4690  173.1120  136.3790 N   0  0  0  0  0  0  0  0  0  0  0  0
  181.7480  174.2040  136.1150 C   0  0  0  0  0  0  0  0  0  0  0  0
  1  9  1  0  0  0  0
  1  3  1  1  0  0  0
  1  7  1  0  0  0  0
  3  2  2  0  0  0  0
  4  8  1  0  0  0  0
  4 12  1  0  0  0  0
  5 11  2  0  0  0  0
  5 26  1  0  0  0  0
  6 20  1  1  0  0  0
  6  2  1  0  0  0  0
  6  5  1  0  0  0  0
  7 11  1  0  0  0  0
  7  8  2  0  0  0  0
  9  4  1  0  0  0  0
 10  9  2  0  0  0  0
 10 13  1  0  0  0  0
 13 12  1  0  0  0  0
 14 18  1  0  0  0  0
 14 23  1  0  0  0  0
 15 22  1  0  0  0  0
 15 16  2  0  0  0  0
 17 19  2  0  0  0  0
 17 20  1  0  0  0  0
 18 21  1  6  0  0  0
 18 19  1  0  0  0  0
 19 15  1  0  0  0  0
 20 16  1  0  0  0  0
 23 25  1  6  0  0  0
 23 22  1  0  0  0  0
 24 25  1  0  0  0  0
 26 27  1  6  0  0  0
 26 28  1  0  0  0  0
 28 29  1  0  0  0  0
 30 29  1  6  0  0  0
 30 38  1  0  0  0  0
 31 38  2  0  0  0  0
 31 33  1  0  0  0  0
 33 36  2  0  0  0  0
 34 32  1  0  0  0  0
 36 34  1  0  0  0  0
 36 35  1  0  0  0  0
 37 34  2  0  0  0  0
 38 37  1  0  0  0  0
 39 40  1  0  0  0  0
 39 41  1  0  0  0  0
 40 30  1  6  0  0  0
 40 41  1  0  0  0  0
 41 43  1  1  0  0  0
 43 42  1  0  0  0  0
 44 46  1  0  0  0  0
 44 10  1  0  0  0  0
 46 45  3  0  0  0  0
M  END
>  <MODEL>
8

>  <REMARK>
 VINA RESULT:      -7.3      3.043      4.680
  Name = 
  11 active torsions:
  status: ('A' for Active; 'I' for Inactive)
    1  A    between atoms: C_3  and  C_17
    2  A    between atoms: C_3  and  C_42
    3  A    between atoms: C_3  and  C_44
    4  A    between atoms: C_8  and  C_16
    5  A    between atoms: C_8  and  C_28
    6  A    between atoms: C_12  and  C_19
    7  A    between atoms: C_18  and  N_27
    8  A    between atoms: C_28  and  C_44
    9  A    between atoms: C_34  and  N_45
   10  A    between atoms: C_36  and  O_43
   11  A    between atoms: N_45  and  C_46
                            x       y       z     vdW  Elec       q    Type
                         _______ _______ _______ _____ _____    ______ ____

>  <TORSDO>
F 11

$$$$
=
 OpenBabel10232408033D

 46 52  0  0  1  0  0  0  0  0999 V2000
  183.8610  178.2860  137.7450 C   0  0  2  0  0  3  0  0  0  0  0  0
  185.2960  176.2850  137.7340 C   0  0  0  0  0  3  0  0  0  0  0  0
  184.0710  176.8050  137.8680 C   0  0  0  0  0  3  0  0  0  0  0  0
  182.4600  179.5150  139.1940 N   0  0  0  0  0  0  0  0  0  0  0  0
  186.8310  178.0450  138.6580 C   0  0  0  0  0  0  0  0  0  0  0  0
  186.4820  177.1710  137.4660 C   0  0  1  0  0  3  0  0  0  0  0  0
  184.5660  178.9700  138.9030 C   0  0  0  0  0  0  0  0  0  0  0  0
  183.7560  179.5990  139.7000 N   0  0  0  0  0  0  0  0  0  0  0  0
  182.4600  178.6850  138.0770 C   0  0  0  0  0  0  0  0  0  0  0  0
  181.2800  178.1830  137.7440 C   0  0  0  0  0  0  0  0  0  0  0  0
  185.9540  178.8240  139.2290 N   0  0  0  0  0  0  0  0  0  0  0  0
  181.2350  179.4880  139.9620 C   0  0  0  0  0  2  0  0  0  0  0  0
  179.9820  178.7080  138.8660 S   0  0  0  0  0  0  0  0  0  0  0  0
  190.8900  173.4140  135.7340 C   0  0  0  0  0  2  0  0  0  0  0  0
  189.5210  175.8700  136.1590 C   0  0  0  0  0  0  0  0  0  0  0  0
  188.7570  176.9040  136.5470 N   0  0  0  0  0  0  0  0  0  0  0  0
  187.6280  175.0380  136.9050 C   0  0  0  0  0  3  0  0  0  0  0  0
  189.3770  173.3450  135.9890 C   0  0  2  0  0  3  0  0  0  0  0  0
  188.8630  174.6910  136.4000 C   0  0  0  0  0  0  0  0  0  0  0  0
  187.6180  176.3850  136.9930 N   0  0  0  0  0  0  0  0  0  0  0  0
  189.1170  172.4040  136.9830 O   0  0  0  0  0  1  0  0  0  0  0  0
  190.9180  175.9490  135.6300 C   0  0  0  0  0  2  0  0  0  0  0  0
  191.2670  174.6480  134.8920 C   0  0  1  0  0  3  0  0  0  0  0  0
  193.0310  175.9630  134.6600 C   0  0  0  0  0  1  0  0  0  0  0  0
  192.6340  174.6260  134.6050 O   0  0  0  0  0  0  0  0  0  0  0  0
  188.2350  178.0270  139.2020 C   0  0  1  0  0  3  0  0  0  0  0  0
  189.1920  178.8280  138.3330 C   0  0  0  0  0  1  0  0  0  0  0  0
  188.3000  178.4360  140.6750 C   0  0  0  0  0  2  0  0  0  0  0  0
  188.2840  177.2310  141.6090 C   0  0  0  0  0  2  0  0  0  0  0  0
  188.7620  177.6140  143.0020 C   0  0  1  0  0  3  0  0  0  0  0  0
  187.8210  177.7850  145.3450 C   0  0  0  0  0  3  0  0  0  0  0  0
  183.9450  178.6930  143.7540 C   0  0  0  0  0  1  0  0  0  0  0  0
  186.7510  178.0260  146.2130 C   0  0  0  0  0  3  0  0  0  0  0  0
  185.2850  178.3720  144.3220 C   0  0  0  0  0  0  0  0  0  0  0  0
  184.4330  178.5490  146.5840 O   0  0  0  0  0  1  0  0  0  0  0  0
  185.4810  178.3130  145.7060 C   0  0  0  0  0  0  0  0  0  0  0  0
  186.3560  178.1320  143.4560 C   0  0  0  0  0  3  0  0  0  0  0  0
  187.6220  177.8250  143.9590 C   0  0  0  0  0  0  0  0  0  0  0  0
  190.9050  176.5860  142.8080 O   0  0  0  0  0  0  0  0  0  0  0  0
  189.7020  176.5480  143.5340 C   0  0  1  0  0  3  0  0  0  0  0  0
  190.9190  177.1780  144.0820 C   0  0  1  0  0  3  0  0  0  0  0  0
  191.9590  176.9470  146.2030 O   0  0  0  0  0  1  0  0  0  0  0  0
  191.5900  176.2410  145.0590 C   0  0  0  0  0  2  0  0  0  0  0  0
  181.0480  177.2160  136.7150 N   0  0  0  0  0  2  0  0  0  0  0  0
  180.0640  174.8890  137.1450 N   0  0  0  0  0  0  0  0  0  0  0  0
  180.5080  175.9410  136.9490 C   0  0  0  0  0  0  0  0  0  0  0  0
  1  3  1  1  0  0  0
  1  9  1  0  0  0  0
  1  7  1  0  0  0  0
  2  3  2  0  0  0  0
  4  8  1  0  0  0  0
  4 12  1  0  0  0  0
  5 26  1  0  0  0  0
  5 11  2  0  0  0  0
  6 20  1  1  0  0  0
  6  2  1  0  0  0  0
  6  5  1  0  0  0  0
  7 11  1  0  0  0  0
  7  8  2  0  0  0  0
  9  4  1  0  0  0  0
 10  9  2  0  0  0  0
 10 13  1  0  0  0  0
 13 12  1  0  0  0  0
 14 18  1  0  0  0  0
 15 19  1  0  0  0  0
 15 16  2  0  0  0  0
 16 20  1  0  0  0  0
 17 20  1  0  0  0  0
 18 19  1  0  0  0  0
 18 21  1  1  0  0  0
 19 17  2  0  0  0  0
 22 15  1  0  0  0  0
 23 25  1  1  0  0  0
 23 22  1  0  0  0  0
 23 14  1  0  0  0  0
 25 24  1  0  0  0  0
 26 27  1  6  0  0  0
 26 28  1  0  0  0  0
 28 29  1  0  0  0  0
 30 29  1  6  0  0  0
 30 38  1  0  0  0  0
 31 33  1  0  0  0  0
 32 34  1  0  0  0  0
 34 36  1  0  0  0  0
 36 33  2  0  0  0  0
 36 35  1  0  0  0  0
 37 38  1  0  0  0  0
 37 34  2  0  0  0  0
 38 31  2  0  0  0  0
 39 40  1  0  0  0  0
 39 41  1  0  0  0  0
 40 30  1  6  0  0  0
 40 41  1  0  0  0  0
 41 43  1  1  0  0  0
 43 42  1  0  0  0  0
 44 46  1  0  0  0  0
 44 10  1  0  0  0  0
 46 45  3  0  0  0  0
M  END
>  <MODEL>
9

>  <REMARK>
 VINA RESULT:      -7.2      3.431      5.481
  Name = 
  11 active torsions:
  status: ('A' for Active; 'I' for Inactive)
    1  A    between atoms: C_3  and  C_17
    2  A    between atoms: C_3  and  C_42
    3  A    between atoms: C_3  and  C_44
    4  A    between atoms: C_8  and  C_16
    5  A    between atoms: C_8  and  C_28
    6  A    between atoms: C_12  and  C_19
    7  A    between atoms: C_18  and  N_27
    8  A    between atoms: C_28  and  C_44
    9  A    between atoms: C_34  and  N_45
   10  A    between atoms: C_36  and  O_43
   11  A    between atoms: N_45  and  C_46
                            x       y       z     vdW  Elec       q    Type
                         _______ _______ _______ _____ _____    ______ ____

>  <TORSDO>
F 11

$$$$
