=
 OpenBabel10222422103D

 29 29  0  0  1  0  0  0  0  0999 V2000
  191.7060  177.8380  143.2190 C   0  0  0  0  0  3  0  0  0  0  0  0
  190.9490  177.2850  140.9640 C   0  0  0  0  0  3  0  0  0  0  0  0
  190.0870  178.7570  144.6720 O   0  0  0  0  0  0  0  0  0  0  0  0
  189.1910  177.8800  142.6290 C   0  0  1  0  0  3  0  0  0  0  0  0
  191.9930  177.3940  141.9960 C   0  0  0  0  0  3  0  0  0  0  0  0
  190.3250  178.2020  143.5670 C   0  0  0  0  0  0  0  0  0  0  0  0
  189.6630  177.5430  141.2300 C   0  0  0  0  0  0  0  0  0  0  0  0
  188.6670  177.4560  140.1190 C   0  0  0  0  0  2  0  0  0  0  0  0
  189.1600  177.4310  137.2150 N   0  0  0  0  0  2  0  0  0  0  0  0
  188.8330  179.7430  137.2610 O   0  0  0  0  0  0  0  0  0  0  0  0
  188.6930  178.6680  139.3130 N   0  0  0  0  0  2  0  0  0  0  0  0
  188.8890  178.6580  137.8990 C   0  0  0  0  0  0  0  0  0  0  0  0
  189.4040  177.3680  135.7800 C   0  0  0  0  0  2  0  0  0  0  0  0
  190.2940  176.1830  135.4430 C   0  0  0  0  0  2  0  0  0  0  0  0
  190.0020  175.1120  136.2880 O   0  0  0  0  0  1  0  0  0  0  0  0
  188.2250  176.4980  143.3130 S   0  0  0  0  0  0  0  0  0  0  0  0
  187.0550  177.6270  144.1240 C   0  0  0  0  0  2  0  0  0  0  0  0
  186.7260  177.1200  145.5170 C   0  0  0  0  0  2  0  0  0  0  0  0
  186.9710  178.2080  146.5520 C   0  0  1  0  0  3  0  0  0  0  0  0
  185.7760  179.9970  147.5510 O   0  0  0  0  0  0  0  0  0  0  0  0
  185.7010  178.9420  146.8700 C   0  0  0  0  0  0  0  0  0  0  0  0
  183.7940  179.0180  145.2810 C   0  0  0  0  0  1  0  0  0  0  0  0
  184.4410  178.5070  146.4390 O   0  0  0  0  0  0  0  0  0  0  0  0
  187.6220  177.6340  147.8060 C   0  0  0  0  0  2  0  0  0  0  0  0
  189.1240  177.8720  147.7970 C   0  0  0  0  0  2  0  0  0  0  0  0
  189.9280  176.5180  147.3640 C   0  0  0  0  0  2  0  0  0  0  0  0
  190.3680  176.5660  146.7880 O   0  0  0  0  0  0  0  0  0  0  0  0
  191.4490  176.7090  147.4180 C   0  0  0  0  0  2  0  0  0  0  0  0
  192.3020  175.6390  147.6580 O   0  0  0  0  0  1  0  0  0  0  0  0
  1  6  1  0  0  0  0
  2  7  2  0  0  0  0
  2  5  1  0  0  0  0
  4 16  1  1  0  0  0
  4  6  1  0  0  0  0
  5  1  2  0  0  0  0
  6  3  2  0  0  0  0
  7  4  1  0  0  0  0
  8  7  1  0  0  0  0
  9 12  1  0  0  0  0
 10 12  2  0  0  0  0
 11  8  1  0  0  0  0
 12 11  1  0  0  0  0
 13  9  1  0  0  0  0
 14 13  1  0  0  0  0
 14 15  1  0  0  0  0
 16 17  1  0  0  0  0
 17 18  1  0  0  0  0
 19 18  1  6  0  0  0
 19 21  1  0  0  0  0
 19 24  1  0  0  0  0
 21 20  2  0  0  0  0
 22 23  1  0  0  0  0
 23 21  1  0  0  0  0
 25 24  1  0  0  0  0
 26 25  1  0  0  0  0
 27 26  1  0  0  0  0
 27 28  1  0  0  0  0
 28 29  1  0  0  0  0
M  END
>  <MODEL>
1

>  <REMARK>
 VINA RESULT:      -7.4      0.000      0.000
  Name = 
  14 active torsions:
  status: ('A' for Active; 'I' for Inactive)
    1  A    between atoms: C_2  and  C_13
    2  A    between atoms: C_2  and  C_17
    3  A    between atoms: C_6  and  C_11
    4  A    between atoms: C_7  and  N_24
    5  A    between atoms: C_7  and  C_26
    6  A    between atoms: N_9  and  C_11
    7  A    between atoms: C_10  and  C_19
    8  A    between atoms: C_10  and  C_25
    9  A    between atoms: C_10  and  C_29
   10  A    between atoms: C_15  and  S_28
   11  A    between atoms: C_17  and  C_25
   12  A    between atoms: C_18  and  S_28
   13  A    between atoms: C_18  and  C_29
   14  A    between atoms: C_19  and  O_23
                            x       y       z     vdW  Elec       q    Type
                         _______ _______ _______ _____ _____    ______ ____

>  <TORSDO>
F 14

$$$$
=
 OpenBabel10222422103D

 29 29  0  0  1  0  0  0  0  0999 V2000
  190.5540  176.9610  147.2660 C   0  0  0  0  0  3  0  0  0  0  0  0
  188.2560  177.4600  146.6050 C   0  0  0  0  0  3  0  0  0  0  0  0
  191.9880  176.1790  145.5620 O   0  0  0  0  0  0  0  0  0  0  0  0
  189.8870  177.0170  144.7710 C   0  0  1  0  0  3  0  0  0  0  0  0
  189.3250  177.3410  147.6110 C   0  0  0  0  0  3  0  0  0  0  0  0
  190.8710  176.6770  145.8590 C   0  0  0  0  0  0  0  0  0  0  0  0
  188.4920  177.2750  145.3010 C   0  0  0  0  0  0  0  0  0  0  0  0
  187.3470  177.3670  144.3430 C   0  0  0  0  0  2  0  0  0  0  0  0
  184.9660  178.1620  142.8010 N   0  0  0  0  0  2  0  0  0  0  0  0
  184.1650  179.1320  144.7690 O   0  0  0  0  0  0  0  0  0  0  0  0
  186.2630  178.1540  144.9150 N   0  0  0  0  0  2  0  0  0  0  0  0
  185.0880  178.5050  144.1850 C   0  0  0  0  0  0  0  0  0  0  0  0
  183.8060  178.5270  142.0000 C   0  0  0  0  0  2  0  0  0  0  0  0
  184.1710  178.5760  140.5260 C   0  0  0  0  0  2  0  0  0  0  0  0
  185.0020  179.6690  140.2770 O   0  0  0  0  0  1  0  0  0  0  0  0
  190.4870  178.4700  143.8550 S   0  0  0  0  0  0  0  0  0  0  0  0
  191.0000  177.4510  142.4400 C   0  0  0  0  0  2  0  0  0  0  0  0
  189.7910  176.7590  141.8350 C   0  0  0  0  0  2  0  0  0  0  0  0
  189.6560  177.1130  140.3610 C   0  0  1  0  0  3  0  0  0  0  0  0
  188.0110  178.6210  141.1660 O   0  0  0  0  0  0  0  0  0  0  0  0
  188.5870  178.1450  140.1530 C   0  0  0  0  0  0  0  0  0  0  0  0
  187.2170  177.9690  138.0890 C   0  0  0  0  0  1  0  0  0  0  0  0
  188.2070  178.6050  138.8850 O   0  0  0  0  0  0  0  0  0  0  0  0
  190.9940  177.5570  139.7810 C   0  0  0  0  0  2  0  0  0  0  0  0
  191.5190  176.5390  138.7820 C   0  0  0  0  0  2  0  0  0  0  0  0
  190.6700  176.5960  137.3880 C   0  0  0  0  0  2  0  0  0  0  0  0
  190.4820  176.3900  136.7160 O   0  0  0  0  0  0  0  0  0  0  0  0
  190.1050  175.2230  137.0020 C   0  0  0  0  0  2  0  0  0  0  0  0
  188.7640  174.9160  137.1940 O   0  0  0  0  0  1  0  0  0  0  0  0
  1  5  2  0  0  0  0
  2  5  1  0  0  0  0
  3  6  2  0  0  0  0
  4 16  1  1  0  0  0
  4  7  1  0  0  0  0
  4  6  1  0  0  0  0
  6  1  1  0  0  0  0
  7  2  2  0  0  0  0
  8 11  1  0  0  0  0
  8  7  1  0  0  0  0
  9 12  1  0  0  0  0
 12 10  2  0  0  0  0
 12 11  1  0  0  0  0
 13  9  1  0  0  0  0
 14 13  1  0  0  0  0
 15 14  1  0  0  0  0
 17 16  1  0  0  0  0
 18 17  1  0  0  0  0
 19 24  1  1  0  0  0
 19 18  1  0  0  0  0
 21 19  1  0  0  0  0
 21 20  2  0  0  0  0
 22 23  1  0  0  0  0
 23 21  1  0  0  0  0
 25 24  1  0  0  0  0
 26 25  1  0  0  0  0
 27 28  1  0  0  0  0
 27 26  1  0  0  0  0
 28 29  1  0  0  0  0
M  END
>  <MODEL>
2

>  <REMARK>
 VINA RESULT:      -7.2      2.621      7.231
  Name = 
  14 active torsions:
  status: ('A' for Active; 'I' for Inactive)
    1  A    between atoms: C_2  and  C_13
    2  A    between atoms: C_2  and  C_17
    3  A    between atoms: C_6  and  C_11
    4  A    between atoms: C_7  and  N_24
    5  A    between atoms: C_7  and  C_26
    6  A    between atoms: N_9  and  C_11
    7  A    between atoms: C_10  and  C_19
    8  A    between atoms: C_10  and  C_25
    9  A    between atoms: C_10  and  C_29
   10  A    between atoms: C_15  and  S_28
   11  A    between atoms: C_17  and  C_25
   12  A    between atoms: C_18  and  S_28
   13  A    between atoms: C_18  and  C_29
   14  A    between atoms: C_19  and  O_23
                            x       y       z     vdW  Elec       q    Type
                         _______ _______ _______ _____ _____    ______ ____

>  <TORSDO>
F 14

$$$$
=
 OpenBabel10222422103D

 29 28  0  0  1  0  0  0  0  0999 V2000
  190.3510  177.1340  147.2620 C   0  0  0  0  0  3  0  0  0  0  0  0
  188.0480  177.5020  146.5340 C   0  0  0  0  0  3  0  0  0  0  0  0
  191.8550  176.3470  145.6220 O   0  0  0  0  0  0  0  0  0  0  0  0
  189.7370  177.0570  144.7540 C   0  0  1  0  0  3  0  0  0  0  0  0
  189.0990  177.4730  147.5650 C   0  0  0  0  0  3  0  0  0  0  0  0
  190.7110  176.8070  145.8750 C   0  0  0  0  0  0  0  0  0  0  0  0
  188.3200  177.2750  145.2440 C   0  0  0  0  0  0  0  0  0  0  0  0
  187.1950  177.2750  144.2600 C   0  0  0  0  0  2  0  0  0  0  0  0
  184.9090  178.0510  142.5700 N   0  0  0  0  0  2  0  0  0  0  0  0
  184.0010  179.0590  144.4710 O   0  0  0  0  0  0  0  0  0  0  0  0
  186.0830  178.0760  144.7550 N   0  0  0  0  0  2  0  0  0  0  0  0
  184.9530  178.4180  143.9520 C   0  0  0  0  0  0  0  0  0  0  0  0
  183.7980  178.4060  141.6980 C   0  0  0  0  0  2  0  0  0  0  0  0
  184.3110  179.0400  140.4150 C   0  0  0  0  0  2  0  0  0  0  0  0
  185.6500  179.4020  140.5650 O   0  0  0  0  0  1  0  0  0  0  0  0
  190.2930  178.4960  143.7890 S   0  0  0  0  0  0  0  0  0  0  0  0
  190.4990  177.4950  142.2860 C   0  0  0  0  0  2  0  0  0  0  0  0
  189.2600  177.6080  141.4150 C   0  0  0  0  0  2  0  0  0  0  0  0
  189.5530  177.1160  140.0050 C   0  0  1  0  0  3  0  0  0  0  0  0
  188.9390  179.1250  138.9040 O   0  0  0  0  0  0  0  0  0  0  0  0
  188.7540  177.8830  138.9930 C   0  0  0  0  0  0  0  0  0  0  0  0
  186.6860  177.9590  137.6210 C   0  0  0  0  0  1  0  0  0  0  0  0
  187.8180  177.2790  138.1420 O   0  0  0  0  0  0  0  0  0  0  0  0
  191.0470  177.1710  139.7070 C   0  0  0  0  0  2  0  0  0  0  0  0
  191.4060  176.2500  138.5520 C   0  0  0  0  0  1  0  0  0  0  0  0
  192.8890  176.5990  137.9650 C   0  0  0  0  0  1  0  0  0  0  0  0
  192.7550  175.9540  138.2730 O   0  0  0  0  0  0  0  0  0  0  0  0
  193.7640  175.3450  137.8280 C   0  0  0  0  0  2  0  0  0  0  0  0
  194.9130  175.1820  138.5920 O   0  0  0  0  0  1  0  0  0  0  0  0
  1  5  2  0  0  0  0
  2  5  1  0  0  0  0
  3  6  2  0  0  0  0
  4 16  1  1  0  0  0
  4  7  1  0  0  0  0
  4  6  1  0  0  0  0
  6  1  1  0  0  0  0
  7  2  2  0  0  0  0
  8 11  1  0  0  0  0
  8  7  1  0  0  0  0
  9 12  1  0  0  0  0
 12 10  2  0  0  0  0
 12 11  1  0  0  0  0
 13  9  1  0  0  0  0
 14 15  1  0  0  0  0
 14 13  1  0  0  0  0
 17 16  1  0  0  0  0
 18 17  1  0  0  0  0
 19 24  1  6  0  0  0
 19 18  1  0  0  0  0
 20 21  2  0  0  0  0
 21 19  1  0  0  0  0
 22 23  1  0  0  0  0
 23 21  1  0  0  0  0
 25 24  1  0  0  0  0
 26 27  1  0  0  0  0
 28 27  1  0  0  0  0
 28 29  1  0  0  0  0
M  END
>  <MODEL>
3

>  <REMARK>
 VINA RESULT:      -7.2      2.948      7.197
  Name = 
  14 active torsions:
  status: ('A' for Active; 'I' for Inactive)
    1  A    between atoms: C_2  and  C_13
    2  A    between atoms: C_2  and  C_17
    3  A    between atoms: C_6  and  C_11
    4  A    between atoms: C_7  and  N_24
    5  A    between atoms: C_7  and  C_26
    6  A    between atoms: N_9  and  C_11
    7  A    between atoms: C_10  and  C_19
    8  A    between atoms: C_10  and  C_25
    9  A    between atoms: C_10  and  C_29
   10  A    between atoms: C_15  and  S_28
   11  A    between atoms: C_17  and  C_25
   12  A    between atoms: C_18  and  S_28
   13  A    between atoms: C_18  and  C_29
   14  A    between atoms: C_19  and  O_23
                            x       y       z     vdW  Elec       q    Type
                         _______ _______ _______ _____ _____    ______ ____

>  <TORSDO>
F 14

$$$$
=
 OpenBabel10222422103D

 29 29  0  0  1  0  0  0  0  0999 V2000
  190.3890  176.7310  147.3520 C   0  0  0  0  0  3  0  0  0  0  0  0
  191.6290  176.9970  145.2650 C   0  0  0  0  0  3  0  0  0  0  0  0
  188.3990  177.9850  147.5570 O   0  0  0  0  0  0  0  0  0  0  0  0
  189.3420  177.9900  145.3540 C   0  0  1  0  0  3  0  0  0  0  0  0
  191.4610  176.4410  146.6180 C   0  0  0  0  0  3  0  0  0  0  0  0
  189.3340  177.5980  146.8080 C   0  0  0  0  0  0  0  0  0  0  0  0
  190.6800  177.7430  144.6870 C   0  0  0  0  0  0  0  0  0  0  0  0
  190.9400  178.3130  143.3290 C   0  0  0  0  0  2  0  0  0  0  0  0
  189.3130  177.9240  140.9050 N   0  0  0  0  0  2  0  0  0  0  0  0
  190.7630  176.1780  140.3570 O   0  0  0  0  0  0  0  0  0  0  0  0
  191.1970  177.2490  142.3690 N   0  0  0  0  0  2  0  0  0  0  0  0
  190.4390  177.0830  141.1710 C   0  0  0  0  0  0  0  0  0  0  0  0
  188.4830  177.7740  139.7170 C   0  0  0  0  0  2  0  0  0  0  0  0
  189.0570  178.5780  138.5620 C   0  0  0  0  0  2  0  0  0  0  0  0
  188.0340  178.9720  137.7000 O   0  0  0  0  0  1  0  0  0  0  0  0
  188.0310  177.0780  144.4820 S   0  0  0  0  0  0  0  0  0  0  0  0
  186.8270  178.4120  144.7550 C   0  0  0  0  0  2  0  0  0  0  0  0
  185.4200  177.8410  144.7910 C   0  0  0  0  0  2  0  0  0  0  0  0
  184.5680  178.4540  143.6890 C   0  0  1  0  0  3  0  0  0  0  0  0
  183.1950  179.2000  145.4740 O   0  0  0  0  0  0  0  0  0  0  0  0
  183.2700  178.9680  144.2390 C   0  0  0  0  0  0  0  0  0  0  0  0
  180.8390  178.7540  143.7790 C   0  0  0  0  0  1  0  0  0  0  0  0
  182.1430  179.2040  143.4410 O   0  0  0  0  0  0  0  0  0  0  0  0
  185.3360  179.5390  142.9440 C   0  0  0  0  0  2  0  0  0  0  0  0
  185.7370  179.0670  141.5550 C   0  0  0  0  0  2  0  0  0  0  0  0
  184.4670  179.1220  140.5300 C   0  0  0  0  0  2  0  0  0  0  0  0
  184.7270  179.5630  140.0130 O   0  0  0  0  0  0  0  0  0  0  0  0
  184.8570  178.6970  139.1080 C   0  0  0  0  0  2  0  0  0  0  0  0
  183.8960  178.5260  138.1190 O   0  0  0  0  0  1  0  0  0  0  0  0
  2  5  1  0  0  0  0
  4 16  1  6  0  0  0
  4  6  1  0  0  0  0
  5  1  2  0  0  0  0
  6  1  1  0  0  0  0
  6  3  2  0  0  0  0
  7  2  2  0  0  0  0
  7  4  1  0  0  0  0
  8  7  1  0  0  0  0
  9 12  1  0  0  0  0
 10 12  2  0  0  0  0
 11  8  1  0  0  0  0
 12 11  1  0  0  0  0
 13  9  1  0  0  0  0
 14 13  1  0  0  0  0
 15 14  1  0  0  0  0
 16 17  1  0  0  0  0
 17 18  1  0  0  0  0
 19 24  1  1  0  0  0
 19 21  1  0  0  0  0
 19 18  1  0  0  0  0
 21 20  2  0  0  0  0
 23 22  1  0  0  0  0
 23 21  1  0  0  0  0
 25 24  1  0  0  0  0
 26 25  1  0  0  0  0
 27 26  1  0  0  0  0
 28 27  1  0  0  0  0
 29 28  1  0  0  0  0
M  END
>  <MODEL>
4

>  <REMARK>
 VINA RESULT:      -7.2      2.676      5.446
  Name = 
  14 active torsions:
  status: ('A' for Active; 'I' for Inactive)
    1  A    between atoms: C_2  and  C_13
    2  A    between atoms: C_2  and  C_17
    3  A    between atoms: C_6  and  C_11
    4  A    between atoms: C_7  and  N_24
    5  A    between atoms: C_7  and  C_26
    6  A    between atoms: N_9  and  C_11
    7  A    between atoms: C_10  and  C_19
    8  A    between atoms: C_10  and  C_25
    9  A    between atoms: C_10  and  C_29
   10  A    between atoms: C_15  and  S_28
   11  A    between atoms: C_17  and  C_25
   12  A    between atoms: C_18  and  S_28
   13  A    between atoms: C_18  and  C_29
   14  A    between atoms: C_19  and  O_23
                            x       y       z     vdW  Elec       q    Type
                         _______ _______ _______ _____ _____    ______ ____

>  <TORSDO>
F 14

$$$$
=
 OpenBabel10222422103D

 29 28  0  0  1  0  0  0  0  0999 V2000
  191.6620  176.3260  146.4050 C   0  0  0  0  0  3  0  0  0  0  0  0
  189.4460  177.2880  146.7650 C   0  0  0  0  0  3  0  0  0  0  0  0
  192.1680  175.6570  144.1990 O   0  0  0  0  0  0  0  0  0  0  0  0
  190.1550  176.9420  144.3990 C   0  0  1  0  0  3  0  0  0  0  0  0
  190.7570  176.8220  147.2470 C   0  0  0  0  0  3  0  0  0  0  0  0
  191.3720  176.2600  144.9660 C   0  0  0  0  0  0  0  0  0  0  0  0
  189.1410  177.3120  145.4620 C   0  0  0  0  0  0  0  0  0  0  0  0
  187.7730  177.7540  145.0510 C   0  0  0  0  0  2  0  0  0  0  0  0
  185.0320  178.8180  144.8680 N   0  0  0  0  0  2  0  0  0  0  0  0
  184.9150  178.5820  147.1890 O   0  0  0  0  0  0  0  0  0  0  0  0
  186.9390  177.9900  146.2210 N   0  0  0  0  0  2  0  0  0  0  0  0
  185.5950  178.4650  146.1350 C   0  0  0  0  0  0  0  0  0  0  0  0
  183.6800  179.3420  144.7270 C   0  0  0  0  0  2  0  0  0  0  0  0
  183.0020  178.7420  143.5060 C   0  0  0  0  0  2  0  0  0  0  0  0
  181.7550  179.3370  143.3140 O   0  0  0  0  0  1  0  0  0  0  0  0
  190.6730  178.4270  143.4850 S   0  0  0  0  0  0  0  0  0  0  0  0
  191.0940  177.4550  142.0080 C   0  0  0  0  0  2  0  0  0  0  0  0
  189.8250  176.9480  141.3440 C   0  0  0  0  0  2  0  0  0  0  0  0
  189.5780  177.6830  140.0360 C   0  0  1  0  0  3  0  0  0  0  0  0
  188.6920  176.6330  138.1020 O   0  0  0  0  0  0  0  0  0  0  0  0
  189.6850  176.7490  138.8660 C   0  0  0  0  0  0  0  0  0  0  0  0
  190.8910  174.9870  137.5980 C   0  0  0  0  0  1  0  0  0  0  0  0
  190.8400  176.0070  138.5860 O   0  0  0  0  0  0  0  0  0  0  0  0
  188.2360  178.4070  140.0610 C   0  0  0  0  0  2  0  0  0  0  0  0
  187.4760  178.1010  141.3420 C   0  0  0  0  0  1  0  0  0  0  0  0
  186.2750  179.1820  141.5800 C   0  0  0  0  0  1  0  0  0  0  0  0
  186.2620  178.7110  141.0260 O   0  0  0  0  0  0  0  0  0  0  0  0
  185.0750  178.9210  140.6590 C   0  0  0  0  0  2  0  0  0  0  0  0
  184.7780  179.7770  139.6050 O   0  0  0  0  0  1  0  0  0  0  0  0
  1  5  2  0  0  0  0
  2  5  1  0  0  0  0
  3  6  2  0  0  0  0
  4 16  1  1  0  0  0
  4  6  1  0  0  0  0
  4  7  1  0  0  0  0
  6  1  1  0  0  0  0
  7  2  2  0  0  0  0
  8  7  1  0  0  0  0
  8 11  1  0  0  0  0
  9 12  1  0  0  0  0
 12 11  1  0  0  0  0
 12 10  2  0  0  0  0
 13  9  1  0  0  0  0
 14 13  1  0  0  0  0
 15 14  1  0  0  0  0
 17 16  1  0  0  0  0
 18 17  1  0  0  0  0
 19 24  1  1  0  0  0
 19 18  1  0  0  0  0
 20 21  2  0  0  0  0
 21 19  1  0  0  0  0
 22 23  1  0  0  0  0
 23 21  1  0  0  0  0
 24 25  1  0  0  0  0
 27 26  1  0  0  0  0
 28 27  1  0  0  0  0
 29 28  1  0  0  0  0
M  END
>  <MODEL>
5

>  <REMARK>
 VINA RESULT:      -7.0      2.968      7.935
  Name = 
  14 active torsions:
  status: ('A' for Active; 'I' for Inactive)
    1  A    between atoms: C_2  and  C_13
    2  A    between atoms: C_2  and  C_17
    3  A    between atoms: C_6  and  C_11
    4  A    between atoms: C_7  and  N_24
    5  A    between atoms: C_7  and  C_26
    6  A    between atoms: N_9  and  C_11
    7  A    between atoms: C_10  and  C_19
    8  A    between atoms: C_10  and  C_25
    9  A    between atoms: C_10  and  C_29
   10  A    between atoms: C_15  and  S_28
   11  A    between atoms: C_17  and  C_25
   12  A    between atoms: C_18  and  S_28
   13  A    between atoms: C_18  and  C_29
   14  A    between atoms: C_19  and  O_23
                            x       y       z     vdW  Elec       q    Type
                         _______ _______ _______ _____ _____    ______ ____

>  <TORSDO>
F 14

$$$$
=
 OpenBabel10222422103D

 29 29  0  0  1  0  0  0  0  0999 V2000
  191.1270  176.8280  138.8690 C   0  0  0  0  0  3  0  0  0  0  0  0
  188.7540  177.2620  139.2530 C   0  0  0  0  0  3  0  0  0  0  0  0
  192.5990  177.4390  140.6100 O   0  0  0  0  0  0  0  0  0  0  0  0
  190.2800  177.5240  141.2080 C   0  0  1  0  0  3  0  0  0  0  0  0
  189.8750  176.8070  138.4140 C   0  0  0  0  0  3  0  0  0  0  0  0
  191.4070  177.2830  140.2380 C   0  0  0  0  0  0  0  0  0  0  0  0
  188.9310  177.6310  140.5270 C   0  0  0  0  0  0  0  0  0  0  0  0
  187.7530  178.1260  141.3030 C   0  0  0  0  0  2  0  0  0  0  0  0
  184.8900  178.3810  141.9480 N   0  0  0  0  0  2  0  0  0  0  0  0
  184.6750  179.5950  139.9650 O   0  0  0  0  0  0  0  0  0  0  0  0
  186.8020  178.7890  140.4210 N   0  0  0  0  0  2  0  0  0  0  0  0
  185.4220  178.9530  140.7500 C   0  0  0  0  0  0  0  0  0  0  0  0
  183.4840  178.4870  142.3130 C   0  0  0  0  0  2  0  0  0  0  0  0
  183.3390  178.7640  143.8000 C   0  0  0  0  0  2  0  0  0  0  0  0
  183.8610  180.0220  144.1030 O   0  0  0  0  0  1  0  0  0  0  0  0
  190.2540  176.1840  142.4390 S   0  0  0  0  0  0  0  0  0  0  0  0
  190.7900  177.3020  143.7680 C   0  0  0  0  0  2  0  0  0  0  0  0
  189.6950  178.3110  144.0690 C   0  0  0  0  0  2  0  0  0  0  0  0
  188.9690  177.9430  145.3540 C   0  0  1  0  0  3  0  0  0  0  0  0
  187.1440  176.7560  144.4130 O   0  0  0  0  0  0  0  0  0  0  0  0
  187.5030  177.7440  145.1050 C   0  0  0  0  0  0  0  0  0  0  0  0
  185.8380  178.3730  146.8360 C   0  0  0  0  0  1  0  0  0  0  0  0
  186.5190  178.6030  145.6110 O   0  0  0  0  0  0  0  0  0  0  0  0
  189.6030  176.7210  146.0090 C   0  0  0  0  0  2  0  0  0  0  0  0
  189.8750  176.9720  147.4840 C   0  0  0  0  0  2  0  0  0  0  0  0
  191.4790  177.0620  147.7750 C   0  0  0  0  0  2  0  0  0  0  0  0
  192.1470  176.9200  148.0280 O   0  0  0  0  0  0  0  0  0  0  0  0
  192.1300  175.6740  147.8480 C   0  0  0  0  0  2  0  0  0  0  0  0
  192.7090  175.0900  146.7290 O   0  0  0  0  0  1  0  0  0  0  0  0
  1  6  1  0  0  0  0
  2  7  2  0  0  0  0
  4 16  1  1  0  0  0
  5  1  2  0  0  0  0
  5  2  1  0  0  0  0
  6  3  2  0  0  0  0
  6  4  1  0  0  0  0
  7  4  1  0  0  0  0
  7  8  1  0  0  0  0
  9 13  1  0  0  0  0
 10 12  2  0  0  0  0
 11 12  1  0  0  0  0
 11  8  1  0  0  0  0
 12  9  1  0  0  0  0
 13 14  1  0  0  0  0
 14 15  1  0  0  0  0
 16 17  1  0  0  0  0
 17 18  1  0  0  0  0
 19 18  1  6  0  0  0
 19 24  1  0  0  0  0
 20 21  2  0  0  0  0
 21 19  1  0  0  0  0
 21 23  1  0  0  0  0
 23 22  1  0  0  0  0
 24 25  1  0  0  0  0
 25 26  1  0  0  0  0
 26 27  1  0  0  0  0
 28 27  1  0  0  0  0
 29 28  1  0  0  0  0
M  END
>  <MODEL>
6

>  <REMARK>
 VINA RESULT:      -7.0      2.356      4.577
  Name = 
  14 active torsions:
  status: ('A' for Active; 'I' for Inactive)
    1  A    between atoms: C_2  and  C_13
    2  A    between atoms: C_2  and  C_17
    3  A    between atoms: C_6  and  C_11
    4  A    between atoms: C_7  and  N_24
    5  A    between atoms: C_7  and  C_26
    6  A    between atoms: N_9  and  C_11
    7  A    between atoms: C_10  and  C_19
    8  A    between atoms: C_10  and  C_25
    9  A    between atoms: C_10  and  C_29
   10  A    between atoms: C_15  and  S_28
   11  A    between atoms: C_17  and  C_25
   12  A    between atoms: C_18  and  S_28
   13  A    between atoms: C_18  and  C_29
   14  A    between atoms: C_19  and  O_23
                            x       y       z     vdW  Elec       q    Type
                         _______ _______ _______ _____ _____    ______ ____

>  <TORSDO>
F 14

$$$$
=
 OpenBabel10222422103D

 29 29  0  0  1  0  0  0  0  0999 V2000
  191.9800  177.2870  141.6220 C   0  0  0  0  0  3  0  0  0  0  0  0
  190.0880  177.5880  140.1060 C   0  0  0  0  0  3  0  0  0  0  0  0
  191.5710  177.7170  143.9070 O   0  0  0  0  0  0  0  0  0  0  0  0
  189.5960  177.6460  142.5510 C   0  0  1  0  0  3  0  0  0  0  0  0
  191.5030  177.2840  140.3780 C   0  0  0  0  0  3  0  0  0  0  0  0
  191.0870  177.5710  142.7540 C   0  0  0  0  0  0  0  0  0  0  0  0
  189.2090  177.7940  141.0940 C   0  0  0  0  0  0  0  0  0  0  0  0
  187.7990  178.1440  140.7400 C   0  0  0  0  0  2  0  0  0  0  0  0
  185.1970  178.3130  139.3690 N   0  0  0  0  0  2  0  0  0  0  0  0
  186.3910  178.7860  137.4190 O   0  0  0  0  0  0  0  0  0  0  0  0
  187.6750  178.3860  139.3100 N   0  0  0  0  0  2  0  0  0  0  0  0
  186.4160  178.5120  138.6480 C   0  0  0  0  0  0  0  0  0  0  0  0
  183.8870  178.3930  138.7360 C   0  0  0  0  0  2  0  0  0  0  0  0
  183.0240  179.4340  139.4300 C   0  0  0  0  0  2  0  0  0  0  0  0
  183.2210  180.6840  138.8430 O   0  0  0  0  0  1  0  0  0  0  0  0
  188.8220  176.1570  143.2550 S   0  0  0  0  0  0  0  0  0  0  0  0
  187.4680  177.1240  143.9860 C   0  0  0  0  0  2  0  0  0  0  0  0
  188.0100  178.0280  145.0800 C   0  0  0  0  0  2  0  0  0  0  0  0
  187.7380  177.4270  146.4520 C   0  0  1  0  0  3  0  0  0  0  0  0
  189.0630  177.8300  148.3780 O   0  0  0  0  0  0  0  0  0  0  0  0
  189.0080  177.2940  147.2400 C   0  0  0  0  0  0  0  0  0  0  0  0
  191.4000  176.6480  147.4010 C   0  0  0  0  0  1  0  0  0  0  0  0
  190.1290  176.5970  146.7700 O   0  0  0  0  0  0  0  0  0  0  0  0
  186.6860  178.2340  147.2040 C   0  0  0  0  0  2  0  0  0  0  0  0
  185.9750  179.2030  146.2730 C   0  0  0  0  0  2  0  0  0  0  0  0
  184.4660  178.6820  145.9280 C   0  0  0  0  0  2  0  0  0  0  0  0
  183.8020  178.9630  145.8360 O   0  0  0  0  0  0  0  0  0  0  0  0
  183.9300  179.2920  144.6260 C   0  0  0  0  0  2  0  0  0  0  0  0
  183.4530  178.4900  143.5980 O   0  0  0  0  0  1  0  0  0  0  0  0
  1  6  1  0  0  0  0
  2  5  1  0  0  0  0
  2  7  2  0  0  0  0
  4  6  1  0  0  0  0
  4 16  1  6  0  0  0
  5  1  2  0  0  0  0
  6  3  2  0  0  0  0
  7  4  1  0  0  0  0
  8  7  1  0  0  0  0
 10 12  2  0  0  0  0
 11  8  1  0  0  0  0
 12 11  1  0  0  0  0
 12  9  1  0  0  0  0
 13  9  1  0  0  0  0
 13 14  1  0  0  0  0
 15 14  1  0  0  0  0
 16 17  1  0  0  0  0
 17 18  1  0  0  0  0
 19 18  1  6  0  0  0
 19 24  1  0  0  0  0
 19 21  1  0  0  0  0
 21 20  2  0  0  0  0
 23 21  1  0  0  0  0
 23 22  1  0  0  0  0
 25 24  1  0  0  0  0
 26 25  1  0  0  0  0
 27 26  1  0  0  0  0
 28 27  1  0  0  0  0
 29 28  1  0  0  0  0
M  END
>  <MODEL>
7

>  <REMARK>
 VINA RESULT:      -7.0      2.310      4.802
  Name = 
  14 active torsions:
  status: ('A' for Active; 'I' for Inactive)
    1  A    between atoms: C_2  and  C_13
    2  A    between atoms: C_2  and  C_17
    3  A    between atoms: C_6  and  C_11
    4  A    between atoms: C_7  and  N_24
    5  A    between atoms: C_7  and  C_26
    6  A    between atoms: N_9  and  C_11
    7  A    between atoms: C_10  and  C_19
    8  A    between atoms: C_10  and  C_25
    9  A    between atoms: C_10  and  C_29
   10  A    between atoms: C_15  and  S_28
   11  A    between atoms: C_17  and  C_25
   12  A    between atoms: C_18  and  S_28
   13  A    between atoms: C_18  and  C_29
   14  A    between atoms: C_19  and  O_23
                            x       y       z     vdW  Elec       q    Type
                         _______ _______ _______ _____ _____    ______ ____

>  <TORSDO>
F 14

$$$$
=
 OpenBabel10222422103D

 29 29  0  0  1  0  0  0  0  0999 V2000
  191.6030  176.3710  146.2470 C   0  0  0  0  0  3  0  0  0  0  0  0
  189.3890  177.3540  146.5570 C   0  0  0  0  0  3  0  0  0  0  0  0
  192.0530  175.4520  144.1200 O   0  0  0  0  0  0  0  0  0  0  0  0
  190.0340  176.7380  144.2280 C   0  0  1  0  0  3  0  0  0  0  0  0
  190.7180  176.9570  147.0510 C   0  0  0  0  0  3  0  0  0  0  0  0
  191.2740  176.1350  144.8340 C   0  0  0  0  0  0  0  0  0  0  0  0
  189.0470  177.2230  145.2700 C   0  0  0  0  0  0  0  0  0  0  0  0
  187.6640  177.6050  144.8500 C   0  0  0  0  0  2  0  0  0  0  0  0
  184.9010  178.6000  144.6180 N   0  0  0  0  0  2  0  0  0  0  0  0
  184.8950  178.7700  146.9470 O   0  0  0  0  0  0  0  0  0  0  0  0
  186.8810  178.0350  146.0000 N   0  0  0  0  0  2  0  0  0  0  0  0
  185.5270  178.4770  145.8980 C   0  0  0  0  0  0  0  0  0  0  0  0
  183.5350  179.0800  144.4540 C   0  0  0  0  0  2  0  0  0  0  0  0
  183.0590  178.8540  143.0290 C   0  0  0  0  0  2  0  0  0  0  0  0
  184.0970  178.3310  142.2570 O   0  0  0  0  0  1  0  0  0  0  0  0
  190.5110  178.1090  143.1310 S   0  0  0  0  0  0  0  0  0  0  0  0
  190.5240  177.0270  141.6710 C   0  0  0  0  0  2  0  0  0  0  0  0
  189.4780  177.4920  140.6730 C   0  0  0  0  0  2  0  0  0  0  0  0
  190.1240  177.8090  139.3320 C   0  0  1  0  0  3  0  0  0  0  0  0
  190.4620  175.5330  138.7580 O   0  0  0  0  0  0  0  0  0  0  0  0
  190.9860  176.6720  138.8700 C   0  0  0  0  0  0  0  0  0  0  0  0
  193.0880  175.8490  137.8350 C   0  0  0  0  0  1  0  0  0  0  0  0
  192.3430  176.8220  138.5530 O   0  0  0  0  0  0  0  0  0  0  0  0
  189.0720  178.1810  138.2930 C   0  0  0  0  0  2  0  0  0  0  0  0
  187.7470  177.4980  138.5900 C   0  0  0  0  0  2  0  0  0  0  0  0
  186.5190  178.2390  137.8090 C   0  0  0  0  0  2  0  0  0  0  0  0
  185.8290  178.2930  137.5850 O   0  0  0  0  0  0  0  0  0  0  0  0
  185.3000  178.4450  138.7180 C   0  0  0  0  0  2  0  0  0  0  0  0
  184.9710  179.7030  139.2070 O   0  0  0  0  0  1  0  0  0  0  0  0
  1  5  2  0  0  0  0
  2  5  1  0  0  0  0
  3  6  2  0  0  0  0
  4 16  1  6  0  0  0
  4  6  1  0  0  0  0
  4  7  1  0  0  0  0
  6  1  1  0  0  0  0
  7  2  2  0  0  0  0
  8  7  1  0  0  0  0
  8 11  1  0  0  0  0
  9 12  1  0  0  0  0
 12 11  1  0  0  0  0
 12 10  2  0  0  0  0
 13  9  1  0  0  0  0
 14 13  1  0  0  0  0
 15 14  1  0  0  0  0
 17 16  1  0  0  0  0
 18 17  1  0  0  0  0
 19 24  1  6  0  0  0
 19 18  1  0  0  0  0
 20 21  2  0  0  0  0
 21 19  1  0  0  0  0
 22 23  1  0  0  0  0
 23 21  1  0  0  0  0
 24 25  1  0  0  0  0
 26 25  1  0  0  0  0
 27 26  1  0  0  0  0
 27 28  1  0  0  0  0
 28 29  1  0  0  0  0
M  END
>  <MODEL>
8

>  <REMARK>
 VINA RESULT:      -6.9      2.934      8.357
  Name = 
  14 active torsions:
  status: ('A' for Active; 'I' for Inactive)
    1  A    between atoms: C_2  and  C_13
    2  A    between atoms: C_2  and  C_17
    3  A    between atoms: C_6  and  C_11
    4  A    between atoms: C_7  and  N_24
    5  A    between atoms: C_7  and  C_26
    6  A    between atoms: N_9  and  C_11
    7  A    between atoms: C_10  and  C_19
    8  A    between atoms: C_10  and  C_25
    9  A    between atoms: C_10  and  C_29
   10  A    between atoms: C_15  and  S_28
   11  A    between atoms: C_17  and  C_25
   12  A    between atoms: C_18  and  S_28
   13  A    between atoms: C_18  and  C_29
   14  A    between atoms: C_19  and  O_23
                            x       y       z     vdW  Elec       q    Type
                         _______ _______ _______ _____ _____    ______ ____

>  <TORSDO>
F 14

$$$$
=
 OpenBabel10222422103D

 29 28  0  0  1  0  0  0  0  0999 V2000
  192.2730  176.4660  138.4530 C   0  0  0  0  0  3  0  0  0  0  0  0
  189.9430  177.1120  138.1030 C   0  0  0  0  0  3  0  0  0  0  0  0
  193.3170  177.3180  140.3910 O   0  0  0  0  0  0  0  0  0  0  0  0
  190.9460  177.6610  140.3190 C   0  0  1  0  0  3  0  0  0  0  0  0
  191.1820  176.4330  137.6890 C   0  0  0  0  0  3  0  0  0  0  0  0
  192.2470  177.1650  139.7450 C   0  0  0  0  0  0  0  0  0  0  0  0
  189.8330  177.7140  139.2930 C   0  0  0  0  0  0  0  0  0  0  0  0
  188.5600  178.4230  139.6260 C   0  0  0  0  0  2  0  0  0  0  0  0
  185.6840  178.8600  140.0960 N   0  0  0  0  0  2  0  0  0  0  0  0
  185.3460  178.2060  137.8800 O   0  0  0  0  0  0  0  0  0  0  0  0
  187.5450  178.1530  138.6170 N   0  0  0  0  0  2  0  0  0  0  0  0
  186.1550  178.4040  138.8250 C   0  0  0  0  0  0  0  0  0  0  0  0
  184.2740  179.0970  140.3740 C   0  0  0  0  0  2  0  0  0  0  0  0
  183.7590  178.1000  141.3990 C   0  0  0  0  0  2  0  0  0  0  0  0
  184.6280  178.0470  142.4890 O   0  0  0  0  0  1  0  0  0  0  0  0
  190.4630  176.5950  141.7130 S   0  0  0  0  0  0  0  0  0  0  0  0
  190.5390  177.9790  142.8880 C   0  0  0  0  0  2  0  0  0  0  0  0
  191.1260  177.5070  144.2070 C   0  0  0  0  0  2  0  0  0  0  0  0
  190.0200  177.0780  145.1600 C   0  0  1  0  0  3  0  0  0  0  0  0
  189.7460  176.7840  147.4970 O   0  0  0  0  0  0  0  0  0  0  0  0
  190.5610  176.8480  146.5400 C   0  0  0  0  0  0  0  0  0  0  0  0
  192.4370  175.7810  147.7670 C   0  0  0  0  0  1  0  0  0  0  0  0
  191.9280  176.6970  146.8090 O   0  0  0  0  0  0  0  0  0  0  0  0
  188.8770  178.0870  145.1600 C   0  0  0  0  0  2  0  0  0  0  0  0
  187.5590  177.4160  144.8060 C   0  0  0  0  0  1  0  0  0  0  0  0
  186.5580  177.3800  146.0960 C   0  0  0  0  0  1  0  0  0  0  0  0
  186.5520  177.9290  145.6190 O   0  0  0  0  0  0  0  0  0  0  0  0
  185.5280  178.5170  146.0580 C   0  0  0  0  0  2  0  0  0  0  0  0
  185.6230  179.6030  146.9180 O   0  0  0  0  0  1  0  0  0  0  0  0
  1  6  1  0  0  0  0
  2  7  2  0  0  0  0
  4 16  1  1  0  0  0
  5  2  1  0  0  0  0
  5  1  2  0  0  0  0
  6  4  1  0  0  0  0
  6  3  2  0  0  0  0
  7  8  1  0  0  0  0
  7  4  1  0  0  0  0
  9 13  1  0  0  0  0
 10 12  2  0  0  0  0
 11 12  1  0  0  0  0
 11  8  1  0  0  0  0
 12  9  1  0  0  0  0
 13 14  1  0  0  0  0
 14 15  1  0  0  0  0
 16 17  1  0  0  0  0
 17 18  1  0  0  0  0
 19 18  1  6  0  0  0
 19 24  1  0  0  0  0
 19 21  1  0  0  0  0
 21 23  1  0  0  0  0
 21 20  2  0  0  0  0
 23 22  1  0  0  0  0
 25 24  1  0  0  0  0
 27 28  1  0  0  0  0
 27 26  1  0  0  0  0
 28 29  1  0  0  0  0
M  END
>  <MODEL>
9

>  <REMARK>
 VINA RESULT:      -6.9      2.472      5.210
  Name = 
  14 active torsions:
  status: ('A' for Active; 'I' for Inactive)
    1  A    between atoms: C_2  and  C_13
    2  A    between atoms: C_2  and  C_17
    3  A    between atoms: C_6  and  C_11
    4  A    between atoms: C_7  and  N_24
    5  A    between atoms: C_7  and  C_26
    6  A    between atoms: N_9  and  C_11
    7  A    between atoms: C_10  and  C_19
    8  A    between atoms: C_10  and  C_25
    9  A    between atoms: C_10  and  C_29
   10  A    between atoms: C_15  and  S_28
   11  A    between atoms: C_17  and  C_25
   12  A    between atoms: C_18  and  S_28
   13  A    between atoms: C_18  and  C_29
   14  A    between atoms: C_19  and  O_23
                            x       y       z     vdW  Elec       q    Type
                         _______ _______ _______ _____ _____    ______ ____

>  <TORSDO>
F 14

$$$$
