=
 OpenBabel10232410133D

 66 72  0  0  1  0  0  0  0  0999 V2000
  190.3690  178.0650  141.9660 N   0  0  0  0  0  0  0  0  0  0  0  0
  187.6370  177.5140  142.5650 N   0  0  0  0  0  0  0  0  0  0  0  0
  187.9900  178.0520  141.2930 C   0  0  0  0  0  0  0  0  0  0  0  0
  188.5290  177.1290  143.4280 C   0  0  0  0  0  0  0  0  0  0  0  0
  189.4170  177.9930  140.8430 C   0  0  2  0  0  3  0  0  0  0  0  0
  190.7130  175.9310  143.1600 C   0  0  0  0  0  1  0  0  0  0  0  0
  190.0110  177.2770  143.1640 C   0  0  1  0  0  3  0  0  0  0  0  0
  187.0690  178.6020  140.5000 C   0  0  0  0  0  3  0  0  0  0  0  0
  189.6930  176.8280  139.8680 C   0  0  2  0  0  3  0  0  0  0  0  0
  190.8210  175.9020  140.3150 C   0  0  0  0  0  1  0  0  0  0  0  0
  189.8330  177.2880  138.4100 C   0  0  2  0  0  3  0  0  0  0  0  0
  188.7980  178.3530  138.0800 C   0  0  0  0  0  1  0  0  0  0  0  0
  189.7110  176.1580  137.4920 N   0  0  0  0  0  2  0  0  0  0  0  0
  189.5500  177.2610  135.3430 C   0  0  0  0  0  1  0  0  0  0  0  0
  190.4400  176.4470  136.2620 C   0  0  2  0  0  3  0  0  0  0  0  0
  190.9420  174.8950  135.4360 S   0  0  0  0  0  0  0  0  0  0  0  0
  193.2670  176.2810  136.4710 C   0  0  1  0  0  3  0  0  0  0  0  0
  197.7200  170.7380  136.9570 C   0  0  0  0  0  0  0  0  0  0  0  0
  192.9410  172.5670  136.7080 C   0  0  0  0  0  2  0  0  0  0  0  0
  199.5330  172.3170  137.2200 O   0  0  0  0  0  1  0  0  0  0  0  0
  193.6130  173.7530  136.0450 C   0  0  1  0  0  3  0  0  0  0  0  0
  193.7730  171.0720  136.1090 S   0  0  0  0  0  0  0  0  0  0  0  0
  194.7630  174.3520  138.2250 C   0  0  0  0  0  1  0  0  0  0  0  0
  192.7180  174.9980  135.8780 C   0  0  1  0  0  0  0  0  0  0  0  0
  192.7350  176.9640  134.3460 O   0  0  0  0  0  1  0  0  0  0  0  0
  198.5750  169.6990  137.1090 F   0  0  0  0  0  0  0  0  0  0  0  0
  196.3660  170.4880  136.7270 C   0  0  0  0  0  3  0  0  0  0  0  0
  195.9210  172.8860  136.6370 C   0  0  0  0  0  0  0  0  0  0  0  0
  197.2900  173.1140  136.8720 C   0  0  0  0  0  3  0  0  0  0  0  0
  194.6320  176.5270  135.8360 C   0  0  1  0  0  3  0  0  0  0  0  0
  195.4610  171.5410  136.5600 C   0  0  0  0  0  0  0  0  0  0  0  0
  194.9720  174.0700  136.7330 C   0  0  1  0  0  0  0  0  0  0  0  0
  195.6030  175.3430  136.0850 C   0  0  0  0  0  2  0  0  0  0  0  0
  193.4840  175.9890  135.0090 C   0  0  1  0  0  0  0  0  0  0  0  0
  198.1850  172.0550  137.0100 C   0  0  0  0  0  0  0  0  0  0  0  0
  191.1520  179.5350  143.6050 O   0  0  0  0  0  1  0  0  0  0  0  0
  190.5050  179.4620  142.3680 C   0  0  0  0  0  2  0  0  0  0  0  0
  188.1340  176.5540  144.6380 O   0  0  0  0  0  0  0  0  0  0  0  0
  188.7590  176.8800  145.8750 C   0  0  0  0  0  2  0  0  0  0  0  0
  187.7060  177.2100  146.9220 C   0  0  0  0  0  2  0  0  0  0  0  0
  186.2090  178.8590  147.7250 C   0  0  0  0  0  2  0  0  0  0  0  0
  185.5310  178.0720  146.7010 C   0  0  2  0  0  3  0  0  0  0  0  0
  186.9560  178.4010  146.5400 N   0  0  0  0  0  0  0  0  0  0  0  0
  184.7130  178.9840  145.7990 C   0  0  2  0  0  3  0  0  0  0  0  0
  183.3530  178.8690  146.1080 O   0  0  0  0  0  1  0  0  0  0  0  0
  185.6280  179.7350  143.7190 O   0  0  0  0  0  1  0  0  0  0  0  0
  183.6760  178.3730  143.5720 C   0  0  0  0  0  1  0  0  0  0  0  0
  184.9650  178.6670  144.3240 C   0  0  2  0  0  3  0  0  0  0  0  0
  185.6280  178.7150  140.8880 C   0  0  0  0  0  2  0  0  0  0  0  0
  185.2990  179.1060  138.5610 O   0  0  0  0  0  0  0  0  0  0  0  0
  184.7850  179.0650  139.7100 C   0  0  0  0  0  0  0  0  0  0  0  0
  183.4310  179.3400  139.9010 O   0  0  0  0  0  0  0  0  0  0  0  0
  182.5320  179.5110  138.8100 C   0  0  1  0  0  3  0  0  0  0  0  0
  181.2730  178.6620  139.0070 C   0  0  1  0  0  3  0  0  0  0  0  0
  180.1510  179.4830  139.1490 O   0  0  0  0  0  1  0  0  0  0  0  0
  181.0530  177.6590  137.8700 C   0  0  0  0  0  2  0  0  0  0  0  0
  182.3200  177.3720  137.0630 C   0  0  2  0  0  3  0  0  0  0  0  0
  182.1930  177.8520  135.7560 O   0  0  0  0  0  1  0  0  0  0  0  0
  181.6230  175.1620  136.2700 N   0  0  0  0  0  1  0  0  0  0  0  0
  182.6200  175.8800  137.0490 C   0  0  0  0  0  2  0  0  0  0  0  0
  182.1940  180.9910  138.6190 C   0  0  0  0  0  2  0  0  0  0  0  0
  181.3900  181.2010  137.4190 N   0  0  0  0  0  2  0  0  0  0  0  0
  180.7230  182.4290  137.5610 N   0  0  0  0  0  2  0  0  0  0  0  0
  180.5680  184.0800  135.4600 S   0  0  0  0  0  0  0  0  0  0  0  0
  182.1350  184.4470  137.5600 N   0  0  0  0  0  1  0  0  0  0  0  0
  181.1690  183.6250  136.9150 C   0  0  0  0  0  0  0  0  0  0  0  0
  1 37  1  0  0  0  0
  1  7  1  0  0  0  0
  2  4  2  0  0  0  0
  3  2  1  0  0  0  0
  4 38  1  0  0  0  0
  5  9  1  1  0  0  0
  5  3  1  0  0  0  0
  5  1  1  0  0  0  0
  7  6  1  6  0  0  0
  7  4  1  0  0  0  0
  8 49  1  0  0  0  0
  8  3  2  0  0  0  0
  9 10  1  1  0  0  0
 11 12  1  6  0  0  0
 11  9  1  0  0  0  0
 13 11  1  0  0  0  0
 15 14  1  6  0  0  0
 15 13  1  0  0  0  0
 16 24  1  0  0  0  0
 16 15  1  0  0  0  0
 18 35  1  0  0  0  0
 18 26  1  0  0  0  0
 21 19  1  0  0  0  0
 21 32  1  0  0  0  0
 22 31  1  0  0  0  0
 22 19  1  0  0  0  0
 24 21  1  0  0  0  0
 24 17  1  0  0  0  0
 25 34  1  0  0  0  0
 27 18  2  0  0  0  0
 28 32  1  0  0  0  0
 28 29  1  0  0  0  0
 29 35  2  0  0  0  0
 30 33  1  0  0  0  0
 30 17  1  0  0  0  0
 31 28  2  0  0  0  0
 31 27  1  0  0  0  0
 32 23  1  0  0  0  0
 33 32  1  0  0  0  0
 34 30  1  0  0  0  0
 34 24  1  0  0  0  0
 34 17  1  0  0  0  0
 35 20  1  0  0  0  0
 37 36  1  0  0  0  0
 38 39  1  0  0  0  0
 39 40  1  0  0  0  0
 42 41  1  0  0  0  0
 43 42  1  0  0  0  0
 43 40  1  0  0  0  0
 43 41  1  0  0  0  0
 44 45  1  0  0  0  0
 44 42  1  0  0  0  0
 46 48  1  0  0  0  0
 47 48  1  0  0  0  0
 48 44  1  0  0  0  0
 50 51  2  0  0  0  0
 51 52  1  0  0  0  0
 51 49  1  0  0  0  0
 53 54  1  0  0  0  0
 53 52  1  0  0  0  0
 54 55  1  0  0  0  0
 56 54  1  0  0  0  0
 57 56  1  0  0  0  0
 58 57  1  0  0  0  0
 59 60  1  0  0  0  0
 60 57  1  0  0  0  0
 61 53  1  0  0  0  0
 62 63  1  0  0  0  0
 62 61  1  0  0  0  0
 64 66  2  0  0  0  0
 66 65  1  0  0  0  0
 66 63  1  0  0  0  0
M  END
>  <MODEL>
1

>  <REMARK>
 VINA RESULT:      -4.8      0.000      0.000
  Name = 
  25 active torsions:
  status: ('A' for Active; 'I' for Inactive)
    1  A    between atoms: C_1  and  C_5
    2  A    between atoms: C_1  and  C_20
    3  A    between atoms: C_2  and  C_35
    4  A    between atoms: C_2  and  C_64
    5  A    between atoms: N_3  and  C_60
    6  A    between atoms: C_5  and  C_53
    7  A    between atoms: C_5  and  O_58
    8  A    between atoms: S_9  and  C_23
    9  A    between atoms: S_9  and  C_28
   10  A    between atoms: C_10  and  O_32
   11  A    between atoms: C_10  and  C_54
   12  A    between atoms: C_13  and  C_20
   13  A    between atoms: C_13  and  C_48
   14  A    between atoms: C_19  and  N_40
   15  A    between atoms: C_19  and  C_43
   16  A    between atoms: C_23  and  N_40
   17  A    between atoms: C_27  and  C_49
   18  A    between atoms: C_27  and  C_51
   19  A    between atoms: C_31  and  O_32
   20  A    between atoms: C_35  and  O_58
   21  A    between atoms: C_37  and  C_43
   22  A    between atoms: N_41  and  C_53
   23  A    between atoms: N_41  and  N_59
   24  A    between atoms: C_47  and  N_59
   25  A    between atoms: C_54  and  N_62
                            x       y       z     vdW  Elec       q    Type
                         _______ _______ _______ _____ _____    ______ ____

>  <TORSDO>
F 25

$$$$
=
 OpenBabel10232410133D

 66 72  0  0  1  0  0  0  0  0999 V2000
  188.8140  177.0370  137.9500 N   0  0  0  0  0  0  0  0  0  0  0  0
  188.2780  175.7270  135.4750 N   0  0  0  0  0  0  0  0  0  0  0  0
  187.3320  175.6490  136.5390 C   0  0  0  0  0  0  0  0  0  0  0  0
  189.3260  176.4930  135.5330 C   0  0  0  0  0  0  0  0  0  0  0  0
  187.4280  176.6180  137.6770 C   0  0  2  0  0  3  0  0  0  0  0  0
  189.6690  178.8000  136.4460 C   0  0  0  0  0  1  0  0  0  0  0  0
  189.6470  177.3150  136.7600 C   0  0  1  0  0  3  0  0  0  0  0  0
  186.3660  174.7290  136.5330 C   0  0  0  0  0  3  0  0  0  0  0  0
  186.4360  177.7940  137.5500 C   0  0  2  0  0  3  0  0  0  0  0  0
  187.0780  179.0950  137.0740 C   0  0  0  0  0  1  0  0  0  0  0  0
  185.5590  177.9760  138.7980 C   0  0  2  0  0  3  0  0  0  0  0  0
  184.5020  179.0440  138.5610 C   0  0  0  0  0  1  0  0  0  0  0  0
  186.3730  178.3150  139.9630 N   0  0  0  0  0  2  0  0  0  0  0  0
  186.4870  179.6400  141.9840 C   0  0  0  0  0  1  0  0  0  0  0  0
  185.5730  179.0840  140.9100 C   0  0  2  0  0  3  0  0  0  0  0  0
  184.2870  178.0280  141.6660 S   0  0  0  0  0  0  0  0  0  0  0  0
  183.8370  178.3230  144.5140 C   0  0  1  0  0  3  0  0  0  0  0  0
  190.5190  177.3390  146.7870 C   0  0  0  0  0  0  0  0  0  0  0  0
  186.9330  176.7110  143.1830 C   0  0  0  0  0  2  0  0  0  0  0  0
  189.8380  178.2230  148.9320 O   0  0  0  0  0  1  0  0  0  0  0  0
  186.3030  177.9210  143.8420 C   0  0  1  0  0  3  0  0  0  0  0  0
  188.7260  176.9760  143.1730 S   0  0  0  0  0  0  0  0  0  0  0  0
  185.8210  176.5630  145.9300 C   0  0  0  0  0  1  0  0  0  0  0  0
  184.8580  178.2260  143.3970 C   0  0  1  0  0  0  0  0  0  0  0  0
  183.4370  180.2730  143.3740 O   0  0  0  0  0  1  0  0  0  0  0  0
  191.7680  177.1060  147.2570 F   0  0  0  0  0  0  0  0  0  0  0  0
  190.2140  177.0330  145.4600 C   0  0  0  0  0  3  0  0  0  0  0  0
  187.9250  177.8130  145.7880 C   0  0  0  0  0  0  0  0  0  0  0  0
  188.2550  178.1120  147.1230 C   0  0  0  0  0  3  0  0  0  0  0  0
  184.3250  179.3940  145.4830 C   0  0  1  0  0  3  0  0  0  0  0  0
  188.9350  177.2670  144.9460 C   0  0  0  0  0  0  0  0  0  0  0  0
  186.4590  177.8470  145.3890 C   0  0  1  0  0  0  0  0  0  0  0  0
  185.7310  179.0620  146.0470 C   0  0  0  0  0  2  0  0  0  0  0  0
  184.4810  179.5790  143.9890 C   0  0  1  0  0  0  0  0  0  0  0  0
  189.5420  177.8980  147.6150 C   0  0  0  0  0  0  0  0  0  0  0  0
  190.2640  176.5690  139.7210 O   0  0  0  0  0  1  0  0  0  0  0  0
  189.4700  175.9890  138.7270 C   0  0  0  0  0  2  0  0  0  0  0  0
  190.1930  176.5800  134.4410 O   0  0  0  0  0  0  0  0  0  0  0  0
  191.5340  176.1040  134.4950 C   0  0  0  0  0  2  0  0  0  0  0  0
  191.6670  175.0360  135.5690 C   0  0  0  0  0  2  0  0  0  0  0  0
  193.1760  173.8290  136.9370 C   0  0  0  0  0  2  0  0  0  0  0  0
  193.6070  175.2210  136.8830 C   0  0  2  0  0  3  0  0  0  0  0  0
  193.0500  174.5860  135.6790 N   0  0  0  0  0  0  0  0  0  0  0  0
  195.1200  175.2950  136.7440 C   0  0  2  0  0  3  0  0  0  0  0  0
  195.4630  176.1040  135.6560 O   0  0  0  0  0  1  0  0  0  0  0  0
  196.8700  173.7950  137.3870 O   0  0  0  0  0  1  0  0  0  0  0  0
  196.0720  173.5730  135.1510 C   0  0  0  0  0  1  0  0  0  0  0  0
  195.7260  173.8980  136.5970 C   0  0  2  0  0  3  0  0  0  0  0  0
  186.2170  173.7160  135.4420 C   0  0  0  0  0  2  0  0  0  0  0  0
  184.0600  174.5910  134.9350 O   0  0  0  0  0  0  0  0  0  0  0  0
  184.7900  173.5700  135.0410 C   0  0  0  0  0  0  0  0  0  0  0  0
  184.2820  172.2960  134.7840 O   0  0  0  0  0  0  0  0  0  0  0  0
  184.5460  171.1890  135.6400 C   0  0  1  0  0  3  0  0  0  0  0  0
  183.5920  171.1910  136.8370 C   0  0  1  0  0  3  0  0  0  0  0  0
  183.9330  172.2110  137.7290 O   0  0  0  0  0  1  0  0  0  0  0  0
  182.1230  171.3210  136.4230 C   0  0  0  0  0  2  0  0  0  0  0  0
  181.4880  172.6440  136.8560 C   0  0  2  0  0  3  0  0  0  0  0  0
  180.6150  172.4450  137.9300 O   0  0  0  0  0  1  0  0  0  0  0  0
  180.2460  174.6020  136.0680 N   0  0  0  0  0  1  0  0  0  0  0  0
  180.7510  173.2910  135.6920 C   0  0  0  0  0  2  0  0  0  0  0  0
  184.4740  169.8760  134.8590 C   0  0  0  0  0  2  0  0  0  0  0  0
  185.7860  169.4870  134.3530 N   0  0  0  0  0  2  0  0  0  0  0  0
  186.7460  169.8990  135.2930 N   0  0  0  0  0  2  0  0  0  0  0  0
  188.9940  171.2910  134.8770 S   0  0  0  0  0  0  0  0  0  0  0  0
  188.8270  168.6510  134.8710 N   0  0  0  0  0  1  0  0  0  0  0  0
  188.1480  169.8940  135.0120 C   0  0  0  0  0  0  0  0  0  0  0  0
  1 37  1  0  0  0  0
  2  4  2  0  0  0  0
  2  3  1  0  0  0  0
  3  5  1  0  0  0  0
  4  7  1  0  0  0  0
  5  9  1  6  0  0  0
  5  1  1  0  0  0  0
  7  6  1  6  0  0  0
  7  1  1  0  0  0  0
  8  3  2  0  0  0  0
  9 10  1  1  0  0  0
  9 11  1  0  0  0  0
 11 12  1  6  0  0  0
 11 13  1  0  0  0  0
 13 15  1  0  0  0  0
 15 16  1  0  0  0  0
 15 14  1  1  0  0  0
 16 24  1  0  0  0  0
 17 30  1  0  0  0  0
 18 26  1  0  0  0  0
 18 35  1  0  0  0  0
 19 21  1  0  0  0  0
 21 32  1  0  0  0  0
 22 19  1  0  0  0  0
 22 31  1  0  0  0  0
 24 21  1  0  0  0  0
 24 34  1  0  0  0  0
 24 17  1  0  0  0  0
 25 34  1  0  0  0  0
 27 18  2  0  0  0  0
 28 29  1  0  0  0  0
 29 35  2  0  0  0  0
 30 33  1  0  0  0  0
 31 27  1  0  0  0  0
 31 28  2  0  0  0  0
 32 28  1  0  0  0  0
 32 23  1  0  0  0  0
 32 33  1  0  0  0  0
 34 17  1  0  0  0  0
 34 30  1  0  0  0  0
 35 20  1  0  0  0  0
 37 36  1  0  0  0  0
 38 39  1  0  0  0  0
 38  4  1  0  0  0  0
 39 40  1  0  0  0  0
 40 43  1  0  0  0  0
 42 41  1  0  0  0  0
 43 42  1  0  0  0  0
 43 41  1  0  0  0  0
 44 42  1  0  0  0  0
 45 44  1  0  0  0  0
 47 48  1  0  0  0  0
 48 44  1  0  0  0  0
 48 46  1  0  0  0  0
 49  8  1  0  0  0  0
 50 51  2  0  0  0  0
 51 49  1  0  0  0  0
 52 51  1  0  0  0  0
 52 53  1  0  0  0  0
 53 54  1  0  0  0  0
 54 55  1  0  0  0  0
 56 54  1  0  0  0  0
 56 57  1  0  0  0  0
 57 58  1  0  0  0  0
 60 59  1  0  0  0  0
 60 57  1  0  0  0  0
 61 53  1  0  0  0  0
 62 61  1  0  0  0  0
 62 63  1  0  0  0  0
 64 66  2  0  0  0  0
 65 66  1  0  0  0  0
 66 63  1  0  0  0  0
M  END
>  <MODEL>
2

>  <REMARK>
 VINA RESULT:      -4.4      4.075     10.888
  Name = 
  25 active torsions:
  status: ('A' for Active; 'I' for Inactive)
    1  A    between atoms: C_1  and  C_5
    2  A    between atoms: C_1  and  C_20
    3  A    between atoms: C_2  and  C_35
    4  A    between atoms: C_2  and  C_64
    5  A    between atoms: N_3  and  C_60
    6  A    between atoms: C_5  and  C_53
    7  A    between atoms: C_5  and  O_58
    8  A    between atoms: S_9  and  C_23
    9  A    between atoms: S_9  and  C_28
   10  A    between atoms: C_10  and  O_32
   11  A    between atoms: C_10  and  C_54
   12  A    between atoms: C_13  and  C_20
   13  A    between atoms: C_13  and  C_48
   14  A    between atoms: C_19  and  N_40
   15  A    between atoms: C_19  and  C_43
   16  A    between atoms: C_23  and  N_40
   17  A    between atoms: C_27  and  C_49
   18  A    between atoms: C_27  and  C_51
   19  A    between atoms: C_31  and  O_32
   20  A    between atoms: C_35  and  O_58
   21  A    between atoms: C_37  and  C_43
   22  A    between atoms: N_41  and  C_53
   23  A    between atoms: N_41  and  N_59
   24  A    between atoms: C_47  and  N_59
   25  A    between atoms: C_54  and  N_62
                            x       y       z     vdW  Elec       q    Type
                         _______ _______ _______ _____ _____    ______ ____

>  <TORSDO>
F 25

$$$$
=
 OpenBabel10232410133D

 66 72  0  0  1  0  0  0  0  0999 V2000
  188.5270  178.4510  137.7810 N   0  0  0  0  0  0  0  0  0  0  0  0
  189.5680  176.4260  136.0650 N   0  0  0  0  0  0  0  0  0  0  0  0
  190.3680  176.9340  137.1320 C   0  0  0  0  0  0  0  0  0  0  0  0
  188.3180  176.7510  135.9190 C   0  0  0  0  0  0  0  0  0  0  0  0
  189.7110  177.7030  138.2360 C   0  0  2  0  0  3  0  0  0  0  0  0
  186.4720  177.0970  137.5760 C   0  0  0  0  0  1  0  0  0  0  0  0
  187.6370  177.7360  136.8420 C   0  0  1  0  0  3  0  0  0  0  0  0
  191.6850  176.7300  137.1600 C   0  0  0  0  0  3  0  0  0  0  0  0
  189.4610  176.8490  139.4980 C   0  0  2  0  0  3  0  0  0  0  0  0
  188.0110  176.3980  139.6590 C   0  0  0  0  0  1  0  0  0  0  0  0
  190.0420  177.4770  140.7720 C   0  0  2  0  0  3  0  0  0  0  0  0
  191.5600  177.3780  140.7760 C   0  0  0  0  0  1  0  0  0  0  0  0
  189.4880  176.8430  141.9660 N   0  0  0  0  0  2  0  0  0  0  0  0
  189.6030  179.1490  142.6890 C   0  0  0  0  0  1  0  0  0  0  0  0
  188.8320  177.8480  142.7940 C   0  0  2  0  0  3  0  0  0  0  0  0
  188.7630  177.2990  144.5360 S   0  0  0  0  0  0  0  0  0  0  0  0
  186.8490  178.7740  146.1350 C   0  0  1  0  0  3  0  0  0  0  0  0
  181.4580  178.9800  141.4770 C   0  0  0  0  0  0  0  0  0  0  0  0
  186.4630  178.4510  142.4330 C   0  0  0  0  0  2  0  0  0  0  0  0
  180.0170  179.6650  143.2940 O   0  0  0  0  0  1  0  0  0  0  0  0
  185.9820  178.0410  143.8100 C   0  0  1  0  0  3  0  0  0  0  0  0
  185.3080  177.7460  141.2260 S   0  0  0  0  0  0  0  0  0  0  0  0
  185.1590  180.3990  144.2520 C   0  0  0  0  0  1  0  0  0  0  0  0
  187.0850  177.9500  144.8850 C   0  0  1  0  0  0  0  0  0  0  0  0
  187.3220  176.7200  147.0390 O   0  0  0  0  0  1  0  0  0  0  0  0
  180.4330  179.0810  140.5980 F   0  0  0  0  0  0  0  0  0  0  0  0
  182.7130  178.5660  141.0270 C   0  0  0  0  0  3  0  0  0  0  0  0
  183.6080  178.7630  143.2900 C   0  0  0  0  0  0  0  0  0  0  0  0
  182.3350  179.1800  143.7200 C   0  0  0  0  0  3  0  0  0  0  0  0
  185.5090  178.3390  146.7190 C   0  0  1  0  0  3  0  0  0  0  0  0
  183.7890  178.4460  141.9130 C   0  0  0  0  0  0  0  0  0  0  0  0
  184.7740  178.9160  144.2530 C   0  0  1  0  0  0  0  0  0  0  0  0
  184.3510  178.5280  145.7050 C   0  0  0  0  0  2  0  0  0  0  0  0
  186.4560  177.3200  146.1220 C   0  0  1  0  0  0  0  0  0  0  0  0
  181.2650  179.2690  142.8310 C   0  0  0  0  0  0  0  0  0  0  0  0
  187.8730  180.3810  136.6360 O   0  0  0  0  0  1  0  0  0  0  0  0
  188.9770  179.6790  137.1300 C   0  0  0  0  0  2  0  0  0  0  0  0
  187.5600  176.1830  134.8930 O   0  0  0  0  0  0  0  0  0  0  0  0
  187.3530  174.7790  134.7880 C   0  0  0  0  0  2  0  0  0  0  0  0
  185.8900  174.4860  134.4940 C   0  0  0  0  0  2  0  0  0  0  0  0
  183.9530  173.4620  135.3920 C   0  0  0  0  0  2  0  0  0  0  0  0
  183.8470  174.9050  135.5770 C   0  0  2  0  0  3  0  0  0  0  0  0
  185.1530  174.2470  135.7300 N   0  0  0  0  0  0  0  0  0  0  0  0
  183.2890  175.2140  136.9580 C   0  0  2  0  0  3  0  0  0  0  0  0
  183.9560  174.4570  137.9260 O   0  0  0  0  0  1  0  0  0  0  0  0
  181.1240  175.8360  136.1480 O   0  0  0  0  0  1  0  0  0  0  0  0
  181.2230  175.1090  138.4170 C   0  0  0  0  0  1  0  0  0  0  0  0
  181.7810  174.9580  137.0100 C   0  0  2  0  0  3  0  0  0  0  0  0
  192.4140  175.9880  136.0840 C   0  0  0  0  0  2  0  0  0  0  0  0
  193.1780  174.6320  137.8880 O   0  0  0  0  0  0  0  0  0  0  0  0
  193.2610  174.9070  136.6610 C   0  0  0  0  0  0  0  0  0  0  0  0
  194.1380  174.2110  135.8280 O   0  0  0  0  0  0  0  0  0  0  0  0
  195.4600  173.8740  136.2340 C   0  0  1  0  0  3  0  0  0  0  0  0
  195.8200  172.4560  135.7820 C   0  0  1  0  0  3  0  0  0  0  0  0
  197.0010  172.0350  136.3990 O   0  0  0  0  0  1  0  0  0  0  0  0
  194.6970  171.4480  136.0460 C   0  0  0  0  0  2  0  0  0  0  0  0
  195.1230  169.9960  135.8200 C   0  0  2  0  0  3  0  0  0  0  0  0
  195.9780  169.5680  136.8400 O   0  0  0  0  0  1  0  0  0  0  0  0
  196.7070  168.7050  134.4700 N   0  0  0  0  0  1  0  0  0  0  0  0
  195.8010  169.8420  134.4660 C   0  0  0  0  0  2  0  0  0  0  0  0
  196.4620  174.9060  135.7130 C   0  0  0  0  0  2  0  0  0  0  0  0
  197.1220  175.6050  136.8110 N   0  0  0  0  0  2  0  0  0  0  0  0
  198.2000  174.8100  137.2370 N   0  0  0  0  0  2  0  0  0  0  0  0
  200.2300  174.2430  138.8880 S   0  0  0  0  0  0  0  0  0  0  0  0
  198.1410  175.7400  139.5170 N   0  0  0  0  0  1  0  0  0  0  0  0
  198.7950  174.9510  138.5300 C   0  0  0  0  0  0  0  0  0  0  0  0
  1  5  1  0  0  0  0
  2  3  1  0  0  0  0
  3  8  2  0  0  0  0
  3  5  1  0  0  0  0
  4  2  2  0  0  0  0
  4  7  1  0  0  0  0
  5  9  1  1  0  0  0
  7  6  1  1  0  0  0
  7  1  1  0  0  0  0
  9 10  1  1  0  0  0
  9 11  1  0  0  0  0
 11 12  1  6  0  0  0
 11 13  1  0  0  0  0
 13 15  1  0  0  0  0
 15 14  1  1  0  0  0
 15 16  1  0  0  0  0
 16 24  1  0  0  0  0
 17 30  1  0  0  0  0
 18 35  1  0  0  0  0
 19 21  1  0  0  0  0
 21 32  1  0  0  0  0
 21 24  1  0  0  0  0
 22 31  1  0  0  0  0
 22 19  1  0  0  0  0
 23 32  1  0  0  0  0
 24 34  1  0  0  0  0
 24 17  1  0  0  0  0
 26 18  1  0  0  0  0
 27 18  2  0  0  0  0
 27 31  1  0  0  0  0
 28 29  1  0  0  0  0
 28 32  1  0  0  0  0
 31 28  2  0  0  0  0
 32 33  1  0  0  0  0
 33 30  1  0  0  0  0
 34 17  1  0  0  0  0
 34 30  1  0  0  0  0
 34 25  1  0  0  0  0
 35 20  1  0  0  0  0
 35 29  2  0  0  0  0
 36 37  1  0  0  0  0
 37  1  1  0  0  0  0
 38  4  1  0  0  0  0
 39 38  1  0  0  0  0
 40 39  1  0  0  0  0
 40 43  1  0  0  0  0
 41 42  1  0  0  0  0
 41 43  1  0  0  0  0
 42 43  1  0  0  0  0
 42 44  1  0  0  0  0
 44 48  1  0  0  0  0
 44 45  1  0  0  0  0
 46 48  1  0  0  0  0
 48 47  1  0  0  0  0
 49 51  1  0  0  0  0
 49  8  1  0  0  0  0
 51 50  2  0  0  0  0
 52 53  1  0  0  0  0
 52 51  1  0  0  0  0
 54 56  1  0  0  0  0
 54 53  1  0  0  0  0
 54 55  1  0  0  0  0
 57 56  1  0  0  0  0
 57 58  1  0  0  0  0
 60 59  1  0  0  0  0
 60 57  1  0  0  0  0
 61 53  1  0  0  0  0
 61 62  1  0  0  0  0
 62 63  1  0  0  0  0
 63 66  1  0  0  0  0
 66 64  2  0  0  0  0
 66 65  1  0  0  0  0
M  END
>  <MODEL>
3

>  <REMARK>
 VINA RESULT:      -4.3      4.412     12.824
  Name = 
  25 active torsions:
  status: ('A' for Active; 'I' for Inactive)
    1  A    between atoms: C_1  and  C_5
    2  A    between atoms: C_1  and  C_20
    3  A    between atoms: C_2  and  C_35
    4  A    between atoms: C_2  and  C_64
    5  A    between atoms: N_3  and  C_60
    6  A    between atoms: C_5  and  C_53
    7  A    between atoms: C_5  and  O_58
    8  A    between atoms: S_9  and  C_23
    9  A    between atoms: S_9  and  C_28
   10  A    between atoms: C_10  and  O_32
   11  A    between atoms: C_10  and  C_54
   12  A    between atoms: C_13  and  C_20
   13  A    between atoms: C_13  and  C_48
   14  A    between atoms: C_19  and  N_40
   15  A    between atoms: C_19  and  C_43
   16  A    between atoms: C_23  and  N_40
   17  A    between atoms: C_27  and  C_49
   18  A    between atoms: C_27  and  C_51
   19  A    between atoms: C_31  and  O_32
   20  A    between atoms: C_35  and  O_58
   21  A    between atoms: C_37  and  C_43
   22  A    between atoms: N_41  and  C_53
   23  A    between atoms: N_41  and  N_59
   24  A    between atoms: C_47  and  N_59
   25  A    between atoms: C_54  and  N_62
                            x       y       z     vdW  Elec       q    Type
                         _______ _______ _______ _____ _____    ______ ____

>  <TORSDO>
F 25

$$$$
=
 OpenBabel10232410133D

 66 72  0  0  1  0  0  0  0  0999 V2000
  190.9550  177.8990  142.2830 N   0  0  0  0  0  0  0  0  0  0  0  0
  188.1700  177.4900  142.7380 N   0  0  0  0  0  0  0  0  0  0  0  0
  188.6150  178.0230  141.4920 C   0  0  0  0  0  0  0  0  0  0  0  0
  188.9960  177.0480  143.6390 C   0  0  0  0  0  0  0  0  0  0  0  0
  190.0580  177.8910  141.1130 C   0  0  2  0  0  3  0  0  0  0  0  0
  191.1220  175.7350  143.4630 C   0  0  0  0  0  1  0  0  0  0  0  0
  190.4950  177.1170  143.4500 C   0  0  1  0  0  3  0  0  0  0  0  0
  187.7660  178.6320  140.6630 C   0  0  0  0  0  3  0  0  0  0  0  0
  190.3190  176.7240  140.1370 C   0  0  2  0  0  3  0  0  0  0  0  0
  191.4450  175.7920  140.5760 C   0  0  0  0  0  1  0  0  0  0  0  0
  190.4510  177.1820  138.6770 C   0  0  2  0  0  3  0  0  0  0  0  0
  189.7700  178.5270  138.4720 C   0  0  0  0  0  1  0  0  0  0  0  0
  189.8950  176.1860  137.7650 N   0  0  0  0  0  2  0  0  0  0  0  0
  189.2260  177.1520  135.6490 C   0  0  0  0  0  1  0  0  0  0  0  0
  190.3450  176.4630  136.4060 C   0  0  2  0  0  3  0  0  0  0  0  0
  190.8140  174.9130  135.5580 S   0  0  0  0  0  0  0  0  0  0  0  0
  193.1830  176.3180  136.4570 C   0  0  1  0  0  3  0  0  0  0  0  0
  197.6610  170.7860  136.8310 C   0  0  0  0  0  0  0  0  0  0  0  0
  192.8740  172.6090  136.7760 C   0  0  0  0  0  2  0  0  0  0  0  0
  199.4820  172.3700  136.9800 O   0  0  0  0  0  1  0  0  0  0  0  0
  193.5120  173.7820  136.0610 C   0  0  1  0  0  3  0  0  0  0  0  0
  193.6780  171.1030  136.1640 S   0  0  0  0  0  0  0  0  0  0  0  0
  194.7630  174.4210  138.1720 C   0  0  0  0  0  1  0  0  0  0  0  0
  192.6090  175.0240  135.9140 C   0  0  1  0  0  0  0  0  0  0  0  0
  192.5510  176.9620  134.3480 O   0  0  0  0  0  1  0  0  0  0  0  0
  198.5240  169.7510  136.9610 F   0  0  0  0  0  0  0  0  0  0  0  0
  196.2990  170.5310  136.6700 C   0  0  0  0  0  3  0  0  0  0  0  0
  195.8460  172.9280  136.5590 C   0  0  0  0  0  0  0  0  0  0  0  0
  197.2240  173.1600  136.7240 C   0  0  0  0  0  3  0  0  0  0  0  0
  194.5160  176.5520  135.7540 C   0  0  1  0  0  3  0  0  0  0  0  0
  195.3850  171.5810  136.5270 C   0  0  0  0  0  0  0  0  0  0  0  0
  194.9020  174.1120  136.6780 C   0  0  1  0  0  0  0  0  0  0  0  0
  195.4990  175.3740  135.9780 C   0  0  0  0  0  2  0  0  0  0  0  0
  193.3310  175.9990  134.9920 C   0  0  1  0  0  0  0  0  0  0  0  0
  198.1270  172.1040  136.8380 C   0  0  0  0  0  0  0  0  0  0  0  0
  191.0480  179.3610  144.1030 O   0  0  0  0  0  1  0  0  0  0  0  0
  191.1450  179.2820  142.7100 C   0  0  0  0  0  2  0  0  0  0  0  0
  188.5100  176.4810  144.8190 O   0  0  0  0  0  0  0  0  0  0  0  0
  188.6980  177.0940  146.0900 C   0  0  0  0  0  2  0  0  0  0  0  0
  187.3570  177.2860  146.7820 C   0  0  0  0  0  2  0  0  0  0  0  0
  185.2740  178.4110  146.7710 C   0  0  0  0  0  2  0  0  0  0  0  0
  185.4950  177.8260  145.4540 C   0  0  2  0  0  3  0  0  0  0  0  0
  186.6280  178.4030  146.1920 N   0  0  0  0  0  0  0  0  0  0  0  0
  185.0660  178.8030  144.3700 C   0  0  2  0  0  3  0  0  0  0  0  0
  185.1660  180.1160  144.8410 O   0  0  0  0  0  1  0  0  0  0  0  0
  183.4190  179.1240  142.6640 O   0  0  0  0  0  1  0  0  0  0  0  0
  182.5950  178.9540  144.8940 C   0  0  0  0  0  1  0  0  0  0  0  0
  183.6450  178.5020  143.8910 C   0  0  2  0  0  3  0  0  0  0  0  0
  186.3160  178.8180  140.9800 C   0  0  0  0  0  2  0  0  0  0  0  0
  186.0190  178.7210  138.6180 O   0  0  0  0  0  0  0  0  0  0  0  0
  185.4800  178.6750  139.7560 C   0  0  0  0  0  0  0  0  0  0  0  0
  184.1040  178.4890  139.8890 O   0  0  0  0  0  0  0  0  0  0  0  0
  183.3400  177.7660  138.9290 C   0  0  1  0  0  3  0  0  0  0  0  0
  182.3220  176.8560  139.6200 C   0  0  1  0  0  3  0  0  0  0  0  0
  181.0210  177.2450  139.2910 O   0  0  0  0  0  1  0  0  0  0  0  0
  182.5310  175.3740  139.2860 C   0  0  0  0  0  2  0  0  0  0  0  0
  182.1000  175.0100  137.8640 C   0  0  2  0  0  3  0  0  0  0  0  0
  180.7510  174.6470  137.8330 O   0  0  0  0  0  1  0  0  0  0  0  0
  184.3550  174.0680  137.6900 N   0  0  0  0  0  1  0  0  0  0  0  0
  182.9610  173.8790  137.3180 C   0  0  0  0  0  2  0  0  0  0  0  0
  182.6680  178.7250  137.9450 C   0  0  0  0  0  2  0  0  0  0  0  0
  181.9740  177.9980  136.8860 N   0  0  0  0  0  2  0  0  0  0  0  0
  182.6740  178.2170  135.6880 N   0  0  0  0  0  2  0  0  0  0  0  0
  184.9860  177.0940  134.9380 S   0  0  0  0  0  0  0  0  0  0  0  0
  182.5850  176.1520  134.3490 N   0  0  0  0  0  1  0  0  0  0  0  0
  183.3490  177.1670  134.9900 C   0  0  0  0  0  0  0  0  0  0  0  0
  1 37  1  0  0  0  0
  1  7  1  0  0  0  0
  2  4  2  0  0  0  0
  3  2  1  0  0  0  0
  4 38  1  0  0  0  0
  5  9  1  1  0  0  0
  5  3  1  0  0  0  0
  5  1  1  0  0  0  0
  7  6  1  6  0  0  0
  7  4  1  0  0  0  0
  8 49  1  0  0  0  0
  8  3  2  0  0  0  0
  9 10  1  1  0  0  0
 11 12  1  1  0  0  0
 11  9  1  0  0  0  0
 13 11  1  0  0  0  0
 15 14  1  6  0  0  0
 15 13  1  0  0  0  0
 16 24  1  0  0  0  0
 16 15  1  0  0  0  0
 18 35  1  0  0  0  0
 18 26  1  0  0  0  0
 21 32  1  0  0  0  0
 21 19  1  0  0  0  0
 22 31  1  0  0  0  0
 22 19  1  0  0  0  0
 24 21  1  0  0  0  0
 24 17  1  0  0  0  0
 25 34  1  0  0  0  0
 27 18  2  0  0  0  0
 28 32  1  0  0  0  0
 28 29  1  0  0  0  0
 29 35  2  0  0  0  0
 30 33  1  0  0  0  0
 30 17  1  0  0  0  0
 31 28  2  0  0  0  0
 31 27  1  0  0  0  0
 32 23  1  0  0  0  0
 33 32  1  0  0  0  0
 34 30  1  0  0  0  0
 34 24  1  0  0  0  0
 34 17  1  0  0  0  0
 35 20  1  0  0  0  0
 37 36  1  0  0  0  0
 38 39  1  0  0  0  0
 39 40  1  0  0  0  0
 42 43  1  0  0  0  0
 42 41  1  0  0  0  0
 43 41  1  0  0  0  0
 43 40  1  0  0  0  0
 44 45  1  0  0  0  0
 44 42  1  0  0  0  0
 46 48  1  0  0  0  0
 48 44  1  0  0  0  0
 48 47  1  0  0  0  0
 50 51  2  0  0  0  0
 51 52  1  0  0  0  0
 51 49  1  0  0  0  0
 53 54  1  0  0  0  0
 53 52  1  0  0  0  0
 55 54  1  0  0  0  0
 56 54  1  0  0  0  0
 57 56  1  0  0  0  0
 58 57  1  0  0  0  0
 60 59  1  0  0  0  0
 60 57  1  0  0  0  0
 61 53  1  0  0  0  0
 62 61  1  0  0  0  0
 63 62  1  0  0  0  0
 64 66  2  0  0  0  0
 65 66  1  0  0  0  0
 66 63  1  0  0  0  0
M  END
>  <MODEL>
4

>  <REMARK>
 VINA RESULT:      -4.2      1.897      2.256
  Name = 
  25 active torsions:
  status: ('A' for Active; 'I' for Inactive)
    1  A    between atoms: C_1  and  C_5
    2  A    between atoms: C_1  and  C_20
    3  A    between atoms: C_2  and  C_35
    4  A    between atoms: C_2  and  C_64
    5  A    between atoms: N_3  and  C_60
    6  A    between atoms: C_5  and  C_53
    7  A    between atoms: C_5  and  O_58
    8  A    between atoms: S_9  and  C_23
    9  A    between atoms: S_9  and  C_28
   10  A    between atoms: C_10  and  O_32
   11  A    between atoms: C_10  and  C_54
   12  A    between atoms: C_13  and  C_20
   13  A    between atoms: C_13  and  C_48
   14  A    between atoms: C_19  and  N_40
   15  A    between atoms: C_19  and  C_43
   16  A    between atoms: C_23  and  N_40
   17  A    between atoms: C_27  and  C_49
   18  A    between atoms: C_27  and  C_51
   19  A    between atoms: C_31  and  O_32
   20  A    between atoms: C_35  and  O_58
   21  A    between atoms: C_37  and  C_43
   22  A    between atoms: N_41  and  C_53
   23  A    between atoms: N_41  and  N_59
   24  A    between atoms: C_47  and  N_59
   25  A    between atoms: C_54  and  N_62
                            x       y       z     vdW  Elec       q    Type
                         _______ _______ _______ _____ _____    ______ ____

>  <TORSDO>
F 25

$$$$
=
 OpenBabel10232410133D

 66 72  0  0  1  0  0  0  0  0999 V2000
  188.9650  178.5450  138.8280 N   0  0  0  0  0  0  0  0  0  0  0  0
  189.3510  176.3150  137.0940 N   0  0  0  0  0  0  0  0  0  0  0  0
  190.4060  176.7340  137.9580 C   0  0  0  0  0  0  0  0  0  0  0  0
  188.1570  176.8240  137.1580 C   0  0  0  0  0  0  0  0  0  0  0  0
  190.0930  177.6390  139.1090 C   0  0  2  0  0  3  0  0  0  0  0  0
  186.7340  177.5200  139.0990 C   0  0  0  0  0  1  0  0  0  0  0  0
  187.8160  177.9400  138.1210 C   0  0  1  0  0  3  0  0  0  0  0  0
  191.6600  176.3280  137.7570 C   0  0  0  0  0  3  0  0  0  0  0  0
  189.9680  176.8860  140.4510 C   0  0  2  0  0  3  0  0  0  0  0  0
  188.5530  176.3990  140.7550 C   0  0  0  0  0  1  0  0  0  0  0  0
  190.6110  177.6390  141.6230 C   0  0  2  0  0  3  0  0  0  0  0  0
  192.1290  177.6180  141.5080 C   0  0  0  0  0  1  0  0  0  0  0  0
  190.1900  177.0730  142.9020 N   0  0  0  0  0  2  0  0  0  0  0  0
  190.4490  179.3820  143.5760 C   0  0  0  0  0  1  0  0  0  0  0  0
  189.6200  178.1230  143.7380 C   0  0  2  0  0  3  0  0  0  0  0  0
  189.6010  177.6070  145.4920 S   0  0  0  0  0  0  0  0  0  0  0  0
  187.4100  178.5900  147.1130 C   0  0  1  0  0  3  0  0  0  0  0  0
  182.3240  178.7130  142.1220 C   0  0  0  0  0  0  0  0  0  0  0  0
  187.2890  178.7200  143.3820 C   0  0  0  0  0  2  0  0  0  0  0  0
  180.6980  178.9520  143.8950 O   0  0  0  0  0  1  0  0  0  0  0  0
  186.7910  178.0690  144.6550 C   0  0  1  0  0  3  0  0  0  0  0  0
  186.3170  178.0390  142.0120 S   0  0  0  0  0  0  0  0  0  0  0  0
  185.6220  180.2170  145.3260 C   0  0  0  0  0  1  0  0  0  0  0  0
  187.8310  177.9790  145.7910 C   0  0  1  0  0  0  0  0  0  0  0  0
  188.1120  176.5120  147.7860 O   0  0  0  0  0  1  0  0  0  0  0  0
  181.3480  178.7970  141.1880 F   0  0  0  0  0  0  0  0  0  0  0  0
  183.6480  178.5310  141.7210 C   0  0  0  0  0  3  0  0  0  0  0  0
  184.3740  178.5370  144.0510 C   0  0  0  0  0  0  0  0  0  0  0  0
  183.0320  178.7220  144.4320 C   0  0  0  0  0  3  0  0  0  0  0  0
  186.1130  177.9070  147.5350 C   0  0  1  0  0  3  0  0  0  0  0  0
  184.6770  178.4350  142.6630 C   0  0  0  0  0  0  0  0  0  0  0  0
  185.4490  178.7100  145.1120 C   0  0  1  0  0  0  0  0  0  0  0  0
  185.0000  178.0780  146.4670 C   0  0  0  0  0  2  0  0  0  0  0  0
  187.2260  177.1110  146.8880 C   0  0  1  0  0  0  0  0  0  0  0  0
  182.0130  178.7890  143.4820 C   0  0  0  0  0  0  0  0  0  0  0  0
  188.5320  179.9530  137.0150 O   0  0  0  0  0  1  0  0  0  0  0  0
  189.4550  179.6600  138.0240 C   0  0  0  0  0  2  0  0  0  0  0  0
  187.1420  176.3410  136.3310 O   0  0  0  0  0  0  0  0  0  0  0  0
  186.4670  177.1700  135.3910 C   0  0  0  0  0  2  0  0  0  0  0  0
  185.3190  176.4060  134.7480 C   0  0  0  0  0  2  0  0  0  0  0  0
  183.0550  176.4440  135.4390 C   0  0  0  0  0  2  0  0  0  0  0  0
  183.8650  177.1020  136.4580 C   0  0  2  0  0  3  0  0  0  0  0  0
  184.3930  175.9180  135.7630 N   0  0  0  0  0  0  0  0  0  0  0  0
  183.3970  176.6900  137.8440 C   0  0  2  0  0  3  0  0  0  0  0  0
  183.2760  175.2980  137.9160 O   0  0  0  0  0  1  0  0  0  0  0  0
  181.0210  176.7210  137.5580 O   0  0  0  0  0  1  0  0  0  0  0  0
  182.0690  178.8450  137.8280 C   0  0  0  0  0  1  0  0  0  0  0  0
  182.0740  177.3710  138.2010 C   0  0  2  0  0  3  0  0  0  0  0  0
  192.0530  175.4390  136.6190 C   0  0  0  0  0  2  0  0  0  0  0  0
  190.9980  173.3190  136.8860 O   0  0  0  0  0  0  0  0  0  0  0  0
  192.0430  174.0080  137.0330 C   0  0  0  0  0  0  0  0  0  0  0  0
  193.1990  173.4490  137.5780 O   0  0  0  0  0  0  0  0  0  0  0  0
  194.4720  173.5870  136.9560 C   0  0  1  0  0  3  0  0  0  0  0  0
  195.4260  174.3900  137.8440 C   0  0  1  0  0  3  0  0  0  0  0  0
  195.7390  173.6670  138.9980 O   0  0  0  0  0  1  0  0  0  0  0  0
  196.7090  174.8020  137.1150 C   0  0  0  0  0  2  0  0  0  0  0  0
  197.9650  174.1320  137.6770 C   0  0  2  0  0  3  0  0  0  0  0  0
  198.9150  175.0910  138.0400 O   0  0  0  0  0  1  0  0  0  0  0  0
  199.7380  172.5120  137.1980 N   0  0  0  0  0  1  0  0  0  0  0  0
  198.5550  173.1650  136.6600 C   0  0  0  0  0  2  0  0  0  0  0  0
  195.0480  172.2150  136.6010 C   0  0  0  0  0  2  0  0  0  0  0  0
  195.0660  171.3300  137.7610 N   0  0  0  0  0  2  0  0  0  0  0  0
  195.6650  170.1220  137.3680 N   0  0  0  0  0  2  0  0  0  0  0  0
  195.4680  168.8650  135.0130 S   0  0  0  0  0  0  0  0  0  0  0  0
  193.9020  168.4240  137.0990 N   0  0  0  0  0  1  0  0  0  0  0  0
  194.9920  169.1590  136.5530 C   0  0  0  0  0  0  0  0  0  0  0  0
  1  5  1  0  0  0  0
  2  4  2  0  0  0  0
  2  3  1  0  0  0  0
  3  5  1  0  0  0  0
  4  7  1  0  0  0  0
  5  9  1  1  0  0  0
  7  1  1  0  0  0  0
  7  6  1  1  0  0  0
  8  3  2  0  0  0  0
  9 10  1  1  0  0  0
  9 11  1  0  0  0  0
 11 12  1  6  0  0  0
 11 13  1  0  0  0  0
 13 15  1  0  0  0  0
 15 14  1  1  0  0  0
 15 16  1  0  0  0  0
 16 24  1  0  0  0  0
 17 30  1  0  0  0  0
 18 35  1  0  0  0  0
 19 21  1  0  0  0  0
 21 32  1  0  0  0  0
 21 24  1  0  0  0  0
 22 31  1  0  0  0  0
 22 19  1  0  0  0  0
 24 34  1  0  0  0  0
 24 17  1  0  0  0  0
 26 18  1  0  0  0  0
 27 18  2  0  0  0  0
 27 31  1  0  0  0  0
 28 29  1  0  0  0  0
 28 32  1  0  0  0  0
 31 28  2  0  0  0  0
 32 23  1  0  0  0  0
 32 33  1  0  0  0  0
 33 30  1  0  0  0  0
 34 17  1  0  0  0  0
 34 30  1  0  0  0  0
 34 25  1  0  0  0  0
 35 20  1  0  0  0  0
 35 29  2  0  0  0  0
 36 37  1  0  0  0  0
 37  1  1  0  0  0  0
 38  4  1  0  0  0  0
 39 38  1  0  0  0  0
 40 39  1  0  0  0  0
 40 43  1  0  0  0  0
 41 43  1  0  0  0  0
 41 42  1  0  0  0  0
 42 44  1  0  0  0  0
 43 42  1  0  0  0  0
 44 45  1  0  0  0  0
 44 48  1  0  0  0  0
 46 48  1  0  0  0  0
 47 48  1  0  0  0  0
 49 51  1  0  0  0  0
 49  8  1  0  0  0  0
 50 51  2  0  0  0  0
 51 52  1  0  0  0  0
 53 52  1  0  0  0  0
 53 54  1  0  0  0  0
 54 55  1  0  0  0  0
 56 57  1  0  0  0  0
 56 54  1  0  0  0  0
 57 58  1  0  0  0  0
 60 59  1  0  0  0  0
 60 57  1  0  0  0  0
 61 53  1  0  0  0  0
 61 62  1  0  0  0  0
 63 62  1  0  0  0  0
 64 66  2  0  0  0  0
 66 65  1  0  0  0  0
 66 63  1  0  0  0  0
M  END
>  <MODEL>
5

>  <REMARK>
 VINA RESULT:      -3.9      4.221     12.649
  Name = 
  25 active torsions:
  status: ('A' for Active; 'I' for Inactive)
    1  A    between atoms: C_1  and  C_5
    2  A    between atoms: C_1  and  C_20
    3  A    between atoms: C_2  and  C_35
    4  A    between atoms: C_2  and  C_64
    5  A    between atoms: N_3  and  C_60
    6  A    between atoms: C_5  and  C_53
    7  A    between atoms: C_5  and  O_58
    8  A    between atoms: S_9  and  C_23
    9  A    between atoms: S_9  and  C_28
   10  A    between atoms: C_10  and  O_32
   11  A    between atoms: C_10  and  C_54
   12  A    between atoms: C_13  and  C_20
   13  A    between atoms: C_13  and  C_48
   14  A    between atoms: C_19  and  N_40
   15  A    between atoms: C_19  and  C_43
   16  A    between atoms: C_23  and  N_40
   17  A    between atoms: C_27  and  C_49
   18  A    between atoms: C_27  and  C_51
   19  A    between atoms: C_31  and  O_32
   20  A    between atoms: C_35  and  O_58
   21  A    between atoms: C_37  and  C_43
   22  A    between atoms: N_41  and  C_53
   23  A    between atoms: N_41  and  N_59
   24  A    between atoms: C_47  and  N_59
   25  A    between atoms: C_54  and  N_62
                            x       y       z     vdW  Elec       q    Type
                         _______ _______ _______ _____ _____    ______ ____

>  <TORSDO>
F 25

$$$$
=
 OpenBabel10232410133D

 66 72  0  0  1  0  0  0  0  0999 V2000
  188.9480  177.7730  137.3510 N   0  0  0  0  0  0  0  0  0  0  0  0
  190.2440  175.7630  135.7990 N   0  0  0  0  0  0  0  0  0  0  0  0
  190.9410  176.3900  136.8740 C   0  0  0  0  0  0  0  0  0  0  0  0
  188.9800  175.9710  135.5750 C   0  0  0  0  0  0  0  0  0  0  0  0
  190.1650  177.1530  137.9030 C   0  0  2  0  0  3  0  0  0  0  0  0
  187.0270  176.2380  137.1210 C   0  0  0  0  0  1  0  0  0  0  0  0
  188.1710  176.9380  136.4110 C   0  0  1  0  0  3  0  0  0  0  0  0
  192.2680  176.3020  136.9760 C   0  0  0  0  0  3  0  0  0  0  0  0
  189.9210  176.3440  139.1940 C   0  0  2  0  0  3  0  0  0  0  0  0
  188.6350  175.5200  139.1730 C   0  0  0  0  0  1  0  0  0  0  0  0
  190.0750  177.1860  140.4680 C   0  0  2  0  0  3  0  0  0  0  0  0
  191.5450  177.3750  140.8130 C   0  0  0  0  0  1  0  0  0  0  0  0
  189.3650  176.5750  141.5890 N   0  0  0  0  0  2  0  0  0  0  0  0
  189.1200  178.9660  141.8670 C   0  0  0  0  0  1  0  0  0  0  0  0
  188.6440  177.6030  142.3310 C   0  0  2  0  0  3  0  0  0  0  0  0
  188.9310  177.4170  144.1260 S   0  0  0  0  0  0  0  0  0  0  0  0
  187.1340  178.8080  145.9250 C   0  0  1  0  0  3  0  0  0  0  0  0
  181.2740  178.7660  141.8690 C   0  0  0  0  0  0  0  0  0  0  0  0
  186.3710  178.4620  142.2840 C   0  0  0  0  0  2  0  0  0  0  0  0
  180.0060  179.3900  143.8300 O   0  0  0  0  0  1  0  0  0  0  0  0
  186.0580  178.0330  143.7030 C   0  0  1  0  0  3  0  0  0  0  0  0
  185.1270  177.7040  141.2050 S   0  0  0  0  0  0  0  0  0  0  0  0
  185.1830  180.3530  144.2380 C   0  0  0  0  0  1  0  0  0  0  0  0
  187.2720  177.9930  144.6540 C   0  0  1  0  0  0  0  0  0  0  0  0
  187.7910  176.7780  146.7670 O   0  0  0  0  0  1  0  0  0  0  0  0
  180.1580  178.8200  141.1040 F   0  0  0  0  0  0  0  0  0  0  0  0
  182.4910  178.4080  141.2860 C   0  0  0  0  0  3  0  0  0  0  0  0
  183.6120  178.6480  143.4410 C   0  0  0  0  0  0  0  0  0  0  0  0
  182.3750  179.0090  144.0060 C   0  0  0  0  0  3  0  0  0  0  0  0
  185.8850  178.3150  146.6470 C   0  0  1  0  0  3  0  0  0  0  0  0
  183.6590  178.3370  142.0520 C   0  0  0  0  0  0  0  0  0  0  0  0
  184.8660  178.8540  144.2750 C   0  0  1  0  0  0  0  0  0  0  0  0
  184.6180  178.4500  145.7630 C   0  0  0  0  0  2  0  0  0  0  0  0
  186.8070  177.3380  145.9500 C   0  0  1  0  0  0  0  0  0  0  0  0
  181.2130  179.0490  143.2360 C   0  0  0  0  0  0  0  0  0  0  0  0
  188.3480  179.9780  136.8630 O   0  0  0  0  0  1  0  0  0  0  0  0
  189.3270  179.0020  136.6590 C   0  0  0  0  0  2  0  0  0  0  0  0
  188.3270  175.2910  134.5460 O   0  0  0  0  0  0  0  0  0  0  0  0
  187.7480  174.0040  134.7330 C   0  0  0  0  0  2  0  0  0  0  0  0
  186.2650  174.0440  134.3960 C   0  0  0  0  0  2  0  0  0  0  0  0
  184.1080  173.2040  134.8920 C   0  0  0  0  0  2  0  0  0  0  0  0
  184.4480  174.2280  135.8730 C   0  0  2  0  0  3  0  0  0  0  0  0
  185.4910  173.3110  135.3900 N   0  0  0  0  0  0  0  0  0  0  0  0
  184.0100  173.7870  137.2620 C   0  0  2  0  0  3  0  0  0  0  0  0
  184.5860  172.5520  137.5760 O   0  0  0  0  0  1  0  0  0  0  0  0
  182.0340  174.6170  138.3260 O   0  0  0  0  0  1  0  0  0  0  0  0
  181.9960  172.3170  137.6970 C   0  0  0  0  0  1  0  0  0  0  0  0
  182.4850  173.7180  137.3600 C   0  0  2  0  0  3  0  0  0  0  0  0
  193.1110  175.5730  135.9780 C   0  0  0  0  0  2  0  0  0  0  0  0
  192.9650  173.4540  137.0580 O   0  0  0  0  0  0  0  0  0  0  0  0
  193.7110  174.3490  136.5790 C   0  0  0  0  0  0  0  0  0  0  0  0
  195.0990  174.2120  136.6000 O   0  0  0  0  0  0  0  0  0  0  0  0
  195.8400  173.8360  135.4430 C   0  0  1  0  0  3  0  0  0  0  0  0
  197.2500  174.4300  135.4870 C   0  0  1  0  0  3  0  0  0  0  0  0
  197.2120  175.7940  135.1840 O   0  0  0  0  0  1  0  0  0  0  0  0
  197.9450  174.2070  136.8340 C   0  0  0  0  0  2  0  0  0  0  0  0
  199.0980  173.2050  136.7600 C   0  0  2  0  0  3  0  0  0  0  0  0
  200.2170  173.6860  137.4460 O   0  0  0  0  0  1  0  0  0  0  0  0
  199.1570  171.5240  134.9790 N   0  0  0  0  0  1  0  0  0  0  0  0
  199.4570  172.9090  135.3110 C   0  0  0  0  0  2  0  0  0  0  0  0
  195.8710  172.3140  135.2950 C   0  0  0  0  0  2  0  0  0  0  0  0
  195.2570  171.6570  136.4450 N   0  0  0  0  0  2  0  0  0  0  0  0
  194.4250  170.6350  135.9580 N   0  0  0  0  0  2  0  0  0  0  0  0
  194.9830  169.0920  138.0740 S   0  0  0  0  0  0  0  0  0  0  0  0
  193.1480  168.5490  136.2470 N   0  0  0  0  0  1  0  0  0  0  0  0
  194.1610  169.4400  136.6990 C   0  0  0  0  0  0  0  0  0  0  0  0
  1  5  1  0  0  0  0
  2  3  1  0  0  0  0
  3  8  2  0  0  0  0
  3  5  1  0  0  0  0
  4  2  2  0  0  0  0
  4  7  1  0  0  0  0
  5  9  1  1  0  0  0
  7  6  1  1  0  0  0
  7  1  1  0  0  0  0
  9 10  1  6  0  0  0
  9 11  1  0  0  0  0
 11 12  1  1  0  0  0
 11 13  1  0  0  0  0
 13 15  1  0  0  0  0
 15 14  1  6  0  0  0
 15 16  1  0  0  0  0
 16 24  1  0  0  0  0
 17 34  1  0  0  0  0
 17 30  1  0  0  0  0
 18 35  1  0  0  0  0
 19 21  1  0  0  0  0
 21 32  1  0  0  0  0
 21 24  1  0  0  0  0
 22 31  1  0  0  0  0
 22 19  1  0  0  0  0
 23 32  1  0  0  0  0
 24 17  1  0  0  0  0
 24 34  1  0  0  0  0
 26 18  1  0  0  0  0
 27 18  2  0  0  0  0
 27 31  1  0  0  0  0
 28 29  1  0  0  0  0
 28 32  1  0  0  0  0
 31 28  2  0  0  0  0
 32 33  1  0  0  0  0
 33 30  1  0  0  0  0
 34 30  1  0  0  0  0
 34 25  1  0  0  0  0
 35 20  1  0  0  0  0
 35 29  2  0  0  0  0
 37 36  1  0  0  0  0
 37  1  1  0  0  0  0
 38 39  1  0  0  0  0
 38  4  1  0  0  0  0
 40 39  1  0  0  0  0
 40 43  1  0  0  0  0
 41 43  1  0  0  0  0
 41 42  1  0  0  0  0
 42 44  1  0  0  0  0
 43 42  1  0  0  0  0
 44 48  1  0  0  0  0
 44 45  1  0  0  0  0
 48 47  1  0  0  0  0
 48 46  1  0  0  0  0
 49 51  1  0  0  0  0
 49  8  1  0  0  0  0
 51 52  1  0  0  0  0
 51 50  2  0  0  0  0
 53 54  1  0  0  0  0
 53 52  1  0  0  0  0
 54 56  1  0  0  0  0
 55 54  1  0  0  0  0
 57 56  1  0  0  0  0
 57 58  1  0  0  0  0
 59 60  1  0  0  0  0
 60 57  1  0  0  0  0
 61 53  1  0  0  0  0
 61 62  1  0  0  0  0
 63 62  1  0  0  0  0
 63 66  1  0  0  0  0
 65 66  1  0  0  0  0
 66 64  2  0  0  0  0
M  END
>  <MODEL>
6

>  <REMARK>
 VINA RESULT:      -3.3      4.414     13.093
  Name = 
  25 active torsions:
  status: ('A' for Active; 'I' for Inactive)
    1  A    between atoms: C_1  and  C_5
    2  A    between atoms: C_1  and  C_20
    3  A    between atoms: C_2  and  C_35
    4  A    between atoms: C_2  and  C_64
    5  A    between atoms: N_3  and  C_60
    6  A    between atoms: C_5  and  C_53
    7  A    between atoms: C_5  and  O_58
    8  A    between atoms: S_9  and  C_23
    9  A    between atoms: S_9  and  C_28
   10  A    between atoms: C_10  and  O_32
   11  A    between atoms: C_10  and  C_54
   12  A    between atoms: C_13  and  C_20
   13  A    between atoms: C_13  and  C_48
   14  A    between atoms: C_19  and  N_40
   15  A    between atoms: C_19  and  C_43
   16  A    between atoms: C_23  and  N_40
   17  A    between atoms: C_27  and  C_49
   18  A    between atoms: C_27  and  C_51
   19  A    between atoms: C_31  and  O_32
   20  A    between atoms: C_35  and  O_58
   21  A    between atoms: C_37  and  C_43
   22  A    between atoms: N_41  and  C_53
   23  A    between atoms: N_41  and  N_59
   24  A    between atoms: C_47  and  N_59
   25  A    between atoms: C_54  and  N_62
                            x       y       z     vdW  Elec       q    Type
                         _______ _______ _______ _____ _____    ______ ____

>  <TORSDO>
F 25

$$$$
=
 OpenBabel10232410133D

 66 72  0  0  1  0  0  0  0  0999 V2000
  188.7620  177.6360  137.2590 N   0  0  0  0  0  0  0  0  0  0  0  0
  189.6060  175.4870  135.5870 N   0  0  0  0  0  0  0  0  0  0  0  0
  190.5520  176.1490  136.4240 C   0  0  0  0  0  0  0  0  0  0  0  0
  188.3310  175.7310  135.6520 C   0  0  0  0  0  0  0  0  0  0  0  0
  190.0600  177.0030  137.5520 C   0  0  2  0  0  3  0  0  0  0  0  0
  186.8040  176.1670  137.5890 C   0  0  0  0  0  1  0  0  0  0  0  0
  187.7650  176.7770  136.5850 C   0  0  1  0  0  3  0  0  0  0  0  0
  191.8630  176.0150  136.2190 C   0  0  0  0  0  3  0  0  0  0  0  0
  190.1070  176.2840  138.9170 C   0  0  2  0  0  3  0  0  0  0  0  0
  188.7590  176.2250  139.6310 C   0  0  0  0  0  1  0  0  0  0  0  0
  191.2460  176.7830  139.8180 C   0  0  2  0  0  3  0  0  0  0  0  0
  192.5680  176.7830  139.0640 C   0  0  0  0  0  1  0  0  0  0  0  0
  191.3500  175.9680  141.0270 N   0  0  0  0  0  2  0  0  0  0  0  0
  192.2390  178.0710  141.8310 C   0  0  0  0  0  1  0  0  0  0  0  0
  191.4360  176.8370  142.1950 C   0  0  2  0  0  3  0  0  0  0  0  0
  192.2300  175.9610  143.5880 S   0  0  0  0  0  0  0  0  0  0  0  0
  191.5980  177.0240  146.2080 C   0  0  1  0  0  3  0  0  0  0  0  0
  184.7010  178.4820  145.1630 C   0  0  0  0  0  0  0  0  0  0  0  0
  189.3830  177.6420  143.2640 C   0  0  0  0  0  2  0  0  0  0  0  0
  184.4670  178.7170  147.5580 O   0  0  0  0  0  1  0  0  0  0  0  0
  189.5960  176.9090  144.5730 C   0  0  1  0  0  3  0  0  0  0  0  0
  187.6940  177.2810  142.7130 S   0  0  0  0  0  0  0  0  0  0  0  0
  189.4500  179.0970  145.8490 C   0  0  0  0  0  1  0  0  0  0  0  0
  191.0610  176.5330  144.8780 C   0  0  1  0  0  0  0  0  0  0  0  0
  192.1560  174.8000  146.2950 O   0  0  0  0  0  1  0  0  0  0  0  0
  183.4010  178.8180  144.9830 F   0  0  0  0  0  0  0  0  0  0  0  0
  185.4910  178.1710  144.0560 C   0  0  0  0  0  3  0  0  0  0  0  0
  187.4090  177.7810  145.5150 C   0  0  0  0  0  0  0  0  0  0  0  0
  186.5930  178.1000  146.6160 C   0  0  0  0  0  3  0  0  0  0  0  0
  190.6780  176.4800  147.2970 C   0  0  1  0  0  3  0  0  0  0  0  0
  186.8350  177.8150  144.2120 C   0  0  0  0  0  0  0  0  0  0  0  0
  188.9070  177.6680  145.7450 C   0  0  1  0  0  0  0  0  0  0  0  0
  189.2110  176.9370  147.0910 C   0  0  0  0  0  2  0  0  0  0  0  0
  191.0460  175.6260  146.1030 C   0  0  1  0  0  0  0  0  0  0  0  0
  185.2480  178.4280  146.4470 C   0  0  0  0  0  0  0  0  0  0  0  0
  188.9400  179.9650  137.1930 O   0  0  0  0  0  1  0  0  0  0  0  0
  188.9970  178.8050  136.4150 C   0  0  0  0  0  2  0  0  0  0  0  0
  187.4380  175.0150  134.8520 O   0  0  0  0  0  0  0  0  0  0  0  0
  186.5420  174.0480  135.3900 C   0  0  0  0  0  2  0  0  0  0  0  0
  185.1040  174.5130  135.2150 C   0  0  0  0  0  2  0  0  0  0  0  0
  185.0110  172.9380  136.9800 C   0  0  0  0  0  2  0  0  0  0  0  0
  184.5510  172.2940  135.7550 C   0  0  2  0  0  3  0  0  0  0  0  0
  184.1970  173.6980  136.0150 N   0  0  0  0  0  0  0  0  0  0  0  0
  183.3410  171.4210  136.0470 C   0  0  2  0  0  3  0  0  0  0  0  0
  183.4560  170.2000  135.3740 O   0  0  0  0  0  1  0  0  0  0  0  0
  181.3440  172.4940  136.8150 O   0  0  0  0  0  1  0  0  0  0  0  0
  181.1570  171.2740  134.7750 C   0  0  0  0  0  1  0  0  0  0  0  0
  182.0430  172.1350  135.6630 C   0  0  2  0  0  3  0  0  0  0  0  0
  192.4290  175.1950  135.1030 C   0  0  0  0  0  2  0  0  0  0  0  0
  192.2150  172.9180  135.7740 O   0  0  0  0  0  0  0  0  0  0  0  0
  192.9790  173.9080  135.6140 C   0  0  0  0  0  0  0  0  0  0  0  0
  194.3400  173.8170  135.9050 O   0  0  0  0  0  0  0  0  0  0  0  0
  194.8230  173.7140  137.2400 C   0  0  1  0  0  3  0  0  0  0  0  0
  195.5110  172.3650  137.4650 C   0  0  1  0  0  3  0  0  0  0  0  0
  195.0860  171.7970  138.6690 O   0  0  0  0  0  1  0  0  0  0  0  0
  195.2840  171.3850  136.3090 C   0  0  0  0  0  2  0  0  0  0  0  0
  196.1570  170.1320  136.3990 C   0  0  2  0  0  3  0  0  0  0  0  0
  197.5040  170.4540  136.2140 O   0  0  0  0  0  1  0  0  0  0  0  0
  196.8040  168.7840  134.4600 N   0  0  0  0  0  1  0  0  0  0  0  0
  195.7160  169.0980  135.3720 C   0  0  0  0  0  2  0  0  0  0  0  0
  195.7510  174.8850  137.5690 C   0  0  0  0  0  2  0  0  0  0  0  0
  197.1400  174.4490  137.6730 N   0  0  0  0  0  2  0  0  0  0  0  0
  197.9250  175.3390  136.9220 N   0  0  0  0  0  2  0  0  0  0  0  0
  197.7140  174.5770  134.3640 S   0  0  0  0  0  0  0  0  0  0  0  0
  199.9960  174.9200  135.6570 N   0  0  0  0  0  1  0  0  0  0  0  0
  198.5750  174.9540  135.7070 C   0  0  0  0  0  0  0  0  0  0  0  0
  1  5  1  0  0  0  0
  2  4  2  0  0  0  0
  2  3  1  0  0  0  0
  3  5  1  0  0  0  0
  4  7  1  0  0  0  0
  5  9  1  1  0  0  0
  7  1  1  0  0  0  0
  7  6  1  1  0  0  0
  8  3  2  0  0  0  0
  9 10  1  1  0  0  0
  9 11  1  0  0  0  0
 11 12  1  6  0  0  0
 11 13  1  0  0  0  0
 13 15  1  0  0  0  0
 15 14  1  6  0  0  0
 15 16  1  0  0  0  0
 16 24  1  0  0  0  0
 17 30  1  0  0  0  0
 18 35  1  0  0  0  0
 19 21  1  0  0  0  0
 21 24  1  0  0  0  0
 21 32  1  0  0  0  0
 22 19  1  0  0  0  0
 22 31  1  0  0  0  0
 24 34  1  0  0  0  0
 24 17  1  0  0  0  0
 26 18  1  0  0  0  0
 27 31  1  0  0  0  0
 27 18  2  0  0  0  0
 28 32  1  0  0  0  0
 28 29  1  0  0  0  0
 31 28  2  0  0  0  0
 32 23  1  0  0  0  0
 32 33  1  0  0  0  0
 33 30  1  0  0  0  0
 34 17  1  0  0  0  0
 34 25  1  0  0  0  0
 34 30  1  0  0  0  0
 35 29  2  0  0  0  0
 35 20  1  0  0  0  0
 37 36  1  0  0  0  0
 37  1  1  0  0  0  0
 38 39  1  0  0  0  0
 38  4  1  0  0  0  0
 40 39  1  0  0  0  0
 40 43  1  0  0  0  0
 42 43  1  0  0  0  0
 42 44  1  0  0  0  0
 42 41  1  0  0  0  0
 43 41  1  0  0  0  0
 45 44  1  0  0  0  0
 47 48  1  0  0  0  0
 48 44  1  0  0  0  0
 48 46  1  0  0  0  0
 49 51  1  0  0  0  0
 49  8  1  0  0  0  0
 51 50  2  0  0  0  0
 51 52  1  0  0  0  0
 52 53  1  0  0  0  0
 53 54  1  0  0  0  0
 53 61  1  0  0  0  0
 54 55  1  0  0  0  0
 56 57  1  0  0  0  0
 56 54  1  0  0  0  0
 58 57  1  0  0  0  0
 59 60  1  0  0  0  0
 60 57  1  0  0  0  0
 61 62  1  0  0  0  0
 63 62  1  0  0  0  0
 64 66  2  0  0  0  0
 65 66  1  0  0  0  0
 66 63  1  0  0  0  0
M  END
>  <MODEL>
7

>  <REMARK>
 VINA RESULT:      -3.1      4.850     12.381
  Name = 
  25 active torsions:
  status: ('A' for Active; 'I' for Inactive)
    1  A    between atoms: C_1  and  C_5
    2  A    between atoms: C_1  and  C_20
    3  A    between atoms: C_2  and  C_35
    4  A    between atoms: C_2  and  C_64
    5  A    between atoms: N_3  and  C_60
    6  A    between atoms: C_5  and  C_53
    7  A    between atoms: C_5  and  O_58
    8  A    between atoms: S_9  and  C_23
    9  A    between atoms: S_9  and  C_28
   10  A    between atoms: C_10  and  O_32
   11  A    between atoms: C_10  and  C_54
   12  A    between atoms: C_13  and  C_20
   13  A    between atoms: C_13  and  C_48
   14  A    between atoms: C_19  and  N_40
   15  A    between atoms: C_19  and  C_43
   16  A    between atoms: C_23  and  N_40
   17  A    between atoms: C_27  and  C_49
   18  A    between atoms: C_27  and  C_51
   19  A    between atoms: C_31  and  O_32
   20  A    between atoms: C_35  and  O_58
   21  A    between atoms: C_37  and  C_43
   22  A    between atoms: N_41  and  C_53
   23  A    between atoms: N_41  and  N_59
   24  A    between atoms: C_47  and  N_59
   25  A    between atoms: C_54  and  N_62
                            x       y       z     vdW  Elec       q    Type
                         _______ _______ _______ _____ _____    ______ ____

>  <TORSDO>
F 25

$$$$
=
 OpenBabel10232410133D

 66 72  0  0  1  0  0  0  0  0999 V2000
  191.3900  174.9790  137.8990 N   0  0  0  0  0  0  0  0  0  0  0  0
  190.8960  176.2970  135.4190 N   0  0  0  0  0  0  0  0  0  0  0  0
  190.1130  176.6240  136.5660 C   0  0  0  0  0  0  0  0  0  0  0  0
  191.9300  175.5120  135.4850 C   0  0  0  0  0  0  0  0  0  0  0  0
  190.6010  176.2230  137.9240 C   0  0  2  0  0  3  0  0  0  0  0  0
  193.7410  175.2670  137.1980 C   0  0  0  0  0  1  0  0  0  0  0  0
  192.3440  174.8460  136.7780 C   0  0  1  0  0  3  0  0  0  0  0  0
  188.9600  177.2830  136.4460 C   0  0  0  0  0  3  0  0  0  0  0  0
  191.2880  177.3800  138.6820 C   0  0  2  0  0  3  0  0  0  0  0  0
  192.7780  177.1570  138.9290 C   0  0  0  0  0  1  0  0  0  0  0  0
  190.5250  177.8050  139.9450 C   0  0  2  0  0  3  0  0  0  0  0  0
  191.3220  177.4640  141.1950 C   0  0  0  0  0  1  0  0  0  0  0  0
  189.2070  177.1760  139.9950 N   0  0  0  0  0  2  0  0  0  0  0  0
  188.5360  179.1240  141.2660 C   0  0  0  0  0  1  0  0  0  0  0  0
  188.1790  178.2050  140.1140 C   0  0  2  0  0  3  0  0  0  0  0  0
  186.5430  177.4440  140.4030 S   0  0  0  0  0  0  0  0  0  0  0  0
  185.1040  178.0630  142.8410 C   0  0  1  0  0  3  0  0  0  0  0  0
  190.4470  177.2850  147.4930 C   0  0  0  0  0  0  0  0  0  0  0  0
  188.3890  176.2840  142.9100 C   0  0  0  0  0  2  0  0  0  0  0  0
  189.0780  178.4130  149.1360 O   0  0  0  0  0  1  0  0  0  0  0  0
  187.6230  177.5670  143.1650 C   0  0  1  0  0  3  0  0  0  0  0  0
  190.0740  176.5310  143.5300 S   0  0  0  0  0  0  0  0  0  0  0  0
  186.3490  176.4590  145.0580 C   0  0  0  0  0  1  0  0  0  0  0  0
  186.4550  177.8320  142.1930 C   0  0  1  0  0  0  0  0  0  0  0  0
  185.2420  179.8760  141.4410 O   0  0  0  0  0  1  0  0  0  0  0  0
  191.4270  177.0970  148.4080 F   0  0  0  0  0  0  0  0  0  0  0  0
  190.6310  176.8330  146.1850 C   0  0  0  0  0  3  0  0  0  0  0  0
  188.4200  177.6660  145.5700 C   0  0  0  0  0  0  0  0  0  0  0  0
  188.2570  178.1110  146.8950 C   0  0  0  0  0  3  0  0  0  0  0  0
  185.2590  179.2340  143.8070 C   0  0  1  0  0  3  0  0  0  0  0  0
  189.6390  177.0190  145.2170 C   0  0  0  0  0  0  0  0  0  0  0  0
  187.2030  177.6680  144.6600 C   0  0  1  0  0  0  0  0  0  0  0  0
  186.3460  178.9550  144.8780 C   0  0  0  0  0  2  0  0  0  0  0  0
  185.9570  179.2470  142.4630 C   0  0  1  0  0  0  0  0  0  0  0  0
  189.2650  177.9430  147.8430 C   0  0  0  0  0  0  0  0  0  0  0  0
  190.7990  173.0230  136.7660 O   0  0  0  0  0  1  0  0  0  0  0  0
  190.4680  173.8480  137.8450 C   0  0  0  0  0  2  0  0  0  0  0  0
  192.6990  175.2670  134.3460 O   0  0  0  0  0  0  0  0  0  0  0  0
  193.9050  174.5120  134.3910 C   0  0  0  0  0  2  0  0  0  0  0  0
  193.6240  173.1070  134.9020 C   0  0  0  0  0  2  0  0  0  0  0  0
  194.9460  171.1610  134.6360 C   0  0  0  0  0  2  0  0  0  0  0  0
  194.4670  171.2160  136.0120 C   0  0  2  0  0  3  0  0  0  0  0  0
  194.8580  172.4580  135.3300 N   0  0  0  0  0  0  0  0  0  0  0  0
  195.5780  170.8110  136.9690 C   0  0  2  0  0  3  0  0  0  0  0  0
  196.8090  171.2770  136.4990 O   0  0  0  0  0  1  0  0  0  0  0  0
  195.0360  168.9650  138.3920 O   0  0  0  0  0  1  0  0  0  0  0  0
  197.0210  168.7350  137.0910 C   0  0  0  0  0  1  0  0  0  0  0  0
  195.6070  169.2930  137.1630 C   0  0  2  0  0  3  0  0  0  0  0  0
  188.3990  177.7000  135.1230 C   0  0  0  0  0  2  0  0  0  0  0  0
  186.2910  178.5750  134.4380 O   0  0  0  0  0  0  0  0  0  0  0  0
  186.9110  177.7560  135.1680 C   0  0  0  0  0  0  0  0  0  0  0  0
  186.2230  176.8940  136.0230 O   0  0  0  0  0  0  0  0  0  0  0  0
  185.4710  175.7880  135.5370 C   0  0  1  0  0  3  0  0  0  0  0  0
  185.9210  174.4890  136.2110 C   0  0  1  0  0  3  0  0  0  0  0  0
  186.7560  174.7680  137.2960 O   0  0  0  0  0  1  0  0  0  0  0  0
  184.7440  173.6170  136.6610 C   0  0  0  0  0  2  0  0  0  0  0  0
  184.7090  172.2490  135.9780 C   0  0  2  0  0  3  0  0  0  0  0  0
  185.4750  172.2610  134.8090 O   0  0  0  0  0  1  0  0  0  0  0  0
  183.2100  170.4470  135.2680 N   0  0  0  0  0  1  0  0  0  0  0  0
  183.2750  171.8450  135.6630 C   0  0  0  0  0  2  0  0  0  0  0  0
  183.9720  176.0330  135.7230 C   0  0  0  0  0  2  0  0  0  0  0  0
  183.7250  177.1180  136.6670 N   0  0  0  0  0  2  0  0  0  0  0  0
  182.9510  176.6010  137.7200 N   0  0  0  0  0  2  0  0  0  0  0  0
  180.8140  177.9800  136.8860 S   0  0  0  0  0  0  0  0  0  0  0  0
  180.8420  176.3420  138.9630 N   0  0  0  0  0  1  0  0  0  0  0  0
  181.5740  176.9390  137.8990 C   0  0  0  0  0  0  0  0  0  0  0  0
  1  5  1  0  0  0  0
  2  4  2  0  0  0  0
  2  3  1  0  0  0  0
  3  5  1  0  0  0  0
  4  7  1  0  0  0  0
  5  9  1  6  0  0  0
  7  6  1  1  0  0  0
  7  1  1  0  0  0  0
  8  3  2  0  0  0  0
  9 10  1  1  0  0  0
  9 11  1  0  0  0  0
 11 13  1  0  0  0  0
 11 12  1  1  0  0  0
 13 15  1  0  0  0  0
 15 16  1  0  0  0  0
 15 14  1  1  0  0  0
 16 24  1  0  0  0  0
 17 30  1  0  0  0  0
 18 35  1  0  0  0  0
 18 26  1  0  0  0  0
 19 21  1  0  0  0  0
 19 22  1  0  0  0  0
 21 32  1  0  0  0  0
 22 31  1  0  0  0  0
 24 34  1  0  0  0  0
 24 17  1  0  0  0  0
 24 21  1  0  0  0  0
 25 34  1  0  0  0  0
 27 18  2  0  0  0  0
 28 29  1  0  0  0  0
 29 35  2  0  0  0  0
 30 33  1  0  0  0  0
 31 28  2  0  0  0  0
 31 27  1  0  0  0  0
 32 33  1  0  0  0  0
 32 23  1  0  0  0  0
 32 28  1  0  0  0  0
 34 17  1  0  0  0  0
 34 30  1  0  0  0  0
 35 20  1  0  0  0  0
 36 37  1  0  0  0  0
 37  1  1  0  0  0  0
 38 39  1  0  0  0  0
 38  4  1  0  0  0  0
 39 40  1  0  0  0  0
 40 43  1  0  0  0  0
 41 43  1  0  0  0  0
 41 42  1  0  0  0  0
 42 44  1  0  0  0  0
 43 42  1  0  0  0  0
 44 48  1  0  0  0  0
 45 44  1  0  0  0  0
 47 48  1  0  0  0  0
 48 46  1  0  0  0  0
 49 51  1  0  0  0  0
 49  8  1  0  0  0  0
 50 51  2  0  0  0  0
 51 52  1  0  0  0  0
 53 61  1  0  0  0  0
 53 52  1  0  0  0  0
 53 54  1  0  0  0  0
 54 56  1  0  0  0  0
 54 55  1  0  0  0  0
 57 56  1  0  0  0  0
 58 57  1  0  0  0  0
 59 60  1  0  0  0  0
 60 57  1  0  0  0  0
 61 62  1  0  0  0  0
 62 63  1  0  0  0  0
 63 66  1  0  0  0  0
 64 66  2  0  0  0  0
 66 65  1  0  0  0  0
M  END
>  <MODEL>
8

>  <REMARK>
 VINA RESULT:      -3.1      3.855     10.204
  Name = 
  25 active torsions:
  status: ('A' for Active; 'I' for Inactive)
    1  A    between atoms: C_1  and  C_5
    2  A    between atoms: C_1  and  C_20
    3  A    between atoms: C_2  and  C_35
    4  A    between atoms: C_2  and  C_64
    5  A    between atoms: N_3  and  C_60
    6  A    between atoms: C_5  and  C_53
    7  A    between atoms: C_5  and  O_58
    8  A    between atoms: S_9  and  C_23
    9  A    between atoms: S_9  and  C_28
   10  A    between atoms: C_10  and  O_32
   11  A    between atoms: C_10  and  C_54
   12  A    between atoms: C_13  and  C_20
   13  A    between atoms: C_13  and  C_48
   14  A    between atoms: C_19  and  N_40
   15  A    between atoms: C_19  and  C_43
   16  A    between atoms: C_23  and  N_40
   17  A    between atoms: C_27  and  C_49
   18  A    between atoms: C_27  and  C_51
   19  A    between atoms: C_31  and  O_32
   20  A    between atoms: C_35  and  O_58
   21  A    between atoms: C_37  and  C_43
   22  A    between atoms: N_41  and  C_53
   23  A    between atoms: N_41  and  N_59
   24  A    between atoms: C_47  and  N_59
   25  A    between atoms: C_54  and  N_62
                            x       y       z     vdW  Elec       q    Type
                         _______ _______ _______ _____ _____    ______ ____

>  <TORSDO>
F 25

$$$$
=
 OpenBabel10232410133D

 66 72  0  0  1  0  0  0  0  0999 V2000
  188.9010  178.5460  138.8700 N   0  0  0  0  0  0  0  0  0  0  0  0
  189.0330  176.3140  137.1010 N   0  0  0  0  0  0  0  0  0  0  0  0
  190.1800  176.6860  137.8620 C   0  0  0  0  0  0  0  0  0  0  0  0
  187.8720  176.8700  137.2790 C   0  0  0  0  0  0  0  0  0  0  0  0
  190.0140  177.5960  139.0400 C   0  0  2  0  0  3  0  0  0  0  0  0
  186.6670  177.6080  139.3480 C   0  0  0  0  0  1  0  0  0  0  0  0
  187.6680  177.9910  138.2730 C   0  0  1  0  0  3  0  0  0  0  0  0
  191.3930  176.2330  137.5420 C   0  0  0  0  0  3  0  0  0  0  0  0
  189.9870  176.8390  140.3850 C   0  0  2  0  0  3  0  0  0  0  0  0
  188.5850  176.4390  140.8390 C   0  0  0  0  0  1  0  0  0  0  0  0
  190.7990  177.5400  141.4830 C   0  0  2  0  0  3  0  0  0  0  0  0
  192.2910  177.3860  141.2300 C   0  0  0  0  0  1  0  0  0  0  0  0
  190.4510  177.0180  142.8030 N   0  0  0  0  0  2  0  0  0  0  0  0
  190.8080  179.3440  143.3690 C   0  0  0  0  0  1  0  0  0  0  0  0
  189.9760  178.1070  143.6490 C   0  0  2  0  0  3  0  0  0  0  0  0
  190.1070  177.6500  145.4140 S   0  0  0  0  0  0  0  0  0  0  0  0
  187.9790  178.4800  147.1980 C   0  0  1  0  0  3  0  0  0  0  0  0
  182.6160  178.6400  142.5080 C   0  0  0  0  0  0  0  0  0  0  0  0
  187.6420  178.7720  143.4890 C   0  0  0  0  0  2  0  0  0  0  0  0
  181.0860  178.7410  144.3770 O   0  0  0  0  0  1  0  0  0  0  0  0
  187.2390  178.0470  144.7570 C   0  0  1  0  0  3  0  0  0  0  0  0
  186.6170  178.1170  142.1450 S   0  0  0  0  0  0  0  0  0  0  0  0
  186.0390  180.1190  145.5910 C   0  0  0  0  0  1  0  0  0  0  0  0
  188.3450  177.9440  145.8280 C   0  0  1  0  0  0  0  0  0  0  0  0
  188.7880  176.4010  147.7340 O   0  0  0  0  0  1  0  0  0  0  0  0
  181.5860  178.7300  141.6330 F   0  0  0  0  0  0  0  0  0  0  0  0
  183.9210  178.5250  142.0250 C   0  0  0  0  0  3  0  0  0  0  0  0
  184.7770  178.4540  144.3100 C   0  0  0  0  0  0  0  0  0  0  0  0
  183.4530  178.5720  144.7730 C   0  0  0  0  0  3  0  0  0  0  0  0
  186.7320  177.7330  147.6590 C   0  0  1  0  0  3  0  0  0  0  0  0
  185.0040  178.4240  142.9040 C   0  0  0  0  0  0  0  0  0  0  0  0
  185.9040  178.6180  145.3160 C   0  0  1  0  0  0  0  0  0  0  0  0
  185.5550  177.9110  146.6640 C   0  0  0  0  0  2  0  0  0  0  0  0
  187.8330  177.0070  146.9160 C   0  0  1  0  0  0  0  0  0  0  0  0
  182.3810  178.6450  143.8850 C   0  0  0  0  0  0  0  0  0  0  0  0
  188.3780  179.9450  137.0730 O   0  0  0  0  0  1  0  0  0  0  0  0
  189.3570  179.6470  138.0250 C   0  0  0  0  0  2  0  0  0  0  0  0
  186.7640  176.4320  136.5500 O   0  0  0  0  0  0  0  0  0  0  0  0
  186.3010  175.0870  136.6040 C   0  0  0  0  0  2  0  0  0  0  0  0
  184.9840  175.0170  137.3620 C   0  0  0  0  0  2  0  0  0  0  0  0
  182.6800  174.4950  137.2090 C   0  0  0  0  0  2  0  0  0  0  0  0
  183.4090  173.2880  137.5830 C   0  0  2  0  0  3  0  0  0  0  0  0
  184.0050  174.2280  136.6230 N   0  0  0  0  0  0  0  0  0  0  0  0
  182.8610  172.0900  136.8230 C   0  0  2  0  0  3  0  0  0  0  0  0
  183.8380  171.0930  136.7310 O   0  0  0  0  0  1  0  0  0  0  0  0
  181.0620  172.9800  135.5190 O   0  0  0  0  0  1  0  0  0  0  0  0
  182.4270  171.3490  134.4420 C   0  0  0  0  0  1  0  0  0  0  0  0
  182.3690  172.5010  135.4330 C   0  0  2  0  0  3  0  0  0  0  0  0
  191.6400  175.3360  136.3690 C   0  0  0  0  0  2  0  0  0  0  0  0
  190.8800  173.0970  136.6620 O   0  0  0  0  0  0  0  0  0  0  0  0
  191.8200  173.9240  136.8070 C   0  0  0  0  0  0  0  0  0  0  0  0
  193.0350  173.5350  137.3710 O   0  0  0  0  0  0  0  0  0  0  0  0
  194.2870  173.8950  136.7950 C   0  0  1  0  0  3  0  0  0  0  0  0
  194.7540  175.2550  137.3190 C   0  0  1  0  0  3  0  0  0  0  0  0
  195.8950  175.1050  138.1110 O   0  0  0  0  0  1  0  0  0  0  0  0
  195.0190  176.2640  136.1960 C   0  0  0  0  0  2  0  0  0  0  0  0
  196.4000  176.1080  135.5590 C   0  0  2  0  0  3  0  0  0  0  0  0
  197.3420  175.7090  136.5110 O   0  0  0  0  0  1  0  0  0  0  0  0
  195.7840  178.4110  134.9960 N   0  0  0  0  0  1  0  0  0  0  0  0
  196.8350  177.4100  134.9010 C   0  0  0  0  0  2  0  0  0  0  0  0
  195.3280  172.8030  137.0450 C   0  0  0  0  0  2  0  0  0  0  0  0
  194.6980  171.4970  137.2120 N   0  0  0  0  0  2  0  0  0  0  0  0
  194.9940  170.7310  136.0720 N   0  0  0  0  0  2  0  0  0  0  0  0
  192.7790  170.4760  134.5900 S   0  0  0  0  0  0  0  0  0  0  0  0
  194.1840  168.4600  135.5720 N   0  0  0  0  0  1  0  0  0  0  0  0
  194.0330  169.8700  135.4550 C   0  0  0  0  0  0  0  0  0  0  0  0
  1  5  1  0  0  0  0
  2  4  2  0  0  0  0
  2  3  1  0  0  0  0
  3  5  1  0  0  0  0
  4  7  1  0  0  0  0
  5  9  1  1  0  0  0
  7  1  1  0  0  0  0
  7  6  1  1  0  0  0
  8  3  2  0  0  0  0
  9 10  1  1  0  0  0
  9 11  1  0  0  0  0
 11 12  1  6  0  0  0
 11 13  1  0  0  0  0
 13 15  1  0  0  0  0
 15 14  1  1  0  0  0
 15 16  1  0  0  0  0
 16 24  1  0  0  0  0
 17 30  1  0  0  0  0
 18 35  1  0  0  0  0
 19 21  1  0  0  0  0
 21 32  1  0  0  0  0
 21 24  1  0  0  0  0
 22 31  1  0  0  0  0
 22 19  1  0  0  0  0
 24 34  1  0  0  0  0
 24 17  1  0  0  0  0
 26 18  1  0  0  0  0
 27 18  2  0  0  0  0
 27 31  1  0  0  0  0
 28 29  1  0  0  0  0
 28 32  1  0  0  0  0
 31 28  2  0  0  0  0
 32 23  1  0  0  0  0
 32 33  1  0  0  0  0
 33 30  1  0  0  0  0
 34 17  1  0  0  0  0
 34 30  1  0  0  0  0
 34 25  1  0  0  0  0
 35 20  1  0  0  0  0
 35 29  2  0  0  0  0
 36 37  1  0  0  0  0
 37  1  1  0  0  0  0
 38 39  1  0  0  0  0
 38  4  1  0  0  0  0
 39 40  1  0  0  0  0
 41 42  1  0  0  0  0
 43 41  1  0  0  0  0
 43 40  1  0  0  0  0
 43 42  1  0  0  0  0
 44 42  1  0  0  0  0
 45 44  1  0  0  0  0
 47 48  1  0  0  0  0
 48 46  1  0  0  0  0
 48 44  1  0  0  0  0
 49 51  1  0  0  0  0
 49  8  1  0  0  0  0
 50 51  2  0  0  0  0
 51 52  1  0  0  0  0
 53 61  1  0  0  0  0
 53 54  1  0  0  0  0
 53 52  1  0  0  0  0
 54 55  1  0  0  0  0
 56 54  1  0  0  0  0
 57 56  1  0  0  0  0
 57 58  1  0  0  0  0
 60 59  1  0  0  0  0
 60 57  1  0  0  0  0
 61 62  1  0  0  0  0
 63 62  1  0  0  0  0
 64 66  2  0  0  0  0
 66 65  1  0  0  0  0
 66 63  1  0  0  0  0
M  END
>  <MODEL>
9

>  <REMARK>
 VINA RESULT:      -2.9      4.306     12.381
  Name = 
  25 active torsions:
  status: ('A' for Active; 'I' for Inactive)
    1  A    between atoms: C_1  and  C_5
    2  A    between atoms: C_1  and  C_20
    3  A    between atoms: C_2  and  C_35
    4  A    between atoms: C_2  and  C_64
    5  A    between atoms: N_3  and  C_60
    6  A    between atoms: C_5  and  C_53
    7  A    between atoms: C_5  and  O_58
    8  A    between atoms: S_9  and  C_23
    9  A    between atoms: S_9  and  C_28
   10  A    between atoms: C_10  and  O_32
   11  A    between atoms: C_10  and  C_54
   12  A    between atoms: C_13  and  C_20
   13  A    between atoms: C_13  and  C_48
   14  A    between atoms: C_19  and  N_40
   15  A    between atoms: C_19  and  C_43
   16  A    between atoms: C_23  and  N_40
   17  A    between atoms: C_27  and  C_49
   18  A    between atoms: C_27  and  C_51
   19  A    between atoms: C_31  and  O_32
   20  A    between atoms: C_35  and  O_58
   21  A    between atoms: C_37  and  C_43
   22  A    between atoms: N_41  and  C_53
   23  A    between atoms: N_41  and  N_59
   24  A    between atoms: C_47  and  N_59
   25  A    between atoms: C_54  and  N_62
                            x       y       z     vdW  Elec       q    Type
                         _______ _______ _______ _____ _____    ______ ____

>  <TORSDO>
F 25

$$$$
