=
 OpenBabel10222422103D

 29 32  0  0  1  0  0  0  0  0999 V2000
  183.0320  178.9820  139.8710 C   0  0  1  0  0  3  0  0  0  0  0  0
  181.8760  177.8390  137.9320 C   0  0  0  0  0  3  0  0  0  0  0  0
  181.4450  176.7060  137.3150 N   0  0  0  0  0  0  0  0  0  0  0  0
  182.2930  175.3540  139.0890 C   0  0  0  0  0  3  0  0  0  0  0  0
  182.5370  177.7590  139.1630 C   0  0  0  0  0  0  0  0  0  0  0  0
  181.6370  175.4770  137.8650 C   0  0  0  0  0  3  0  0  0  0  0  0
  182.7430  176.5040  139.7370 C   0  0  0  0  0  3  0  0  0  0  0  0
  182.8590  178.8690  141.3570 C   0  0  0  0  0  0  0  0  0  0  0  0
  183.4410  178.7140  143.5940 C   0  0  0  0  0  0  0  0  0  0  0  0
  183.8930  178.7550  142.2640 C   0  0  0  0  0  3  0  0  0  0  0  0
  182.0590  178.8050  143.7490 C   0  0  0  0  0  3  0  0  0  0  0  0
  181.4080  178.9390  142.2040 S   0  0  0  0  0  0  0  0  0  0  0  0
  188.3350  177.3720  145.4750 C   0  0  0  0  0  3  0  0  0  0  0  0
  186.5080  177.6010  143.8140 C   0  0  0  0  0  3  0  0  0  0  0  0
  186.1210  178.2990  146.1110 C   0  0  0  0  0  0  0  0  0  0  0  0
  184.3560  178.6210  144.7410 C   0  0  0  0  0  0  0  0  0  0  0  0
  187.4940  177.9490  146.6020 C   0  0  0  0  0  2  0  0  0  0  0  0
  185.7120  178.0970  144.7530 C   0  0  0  0  0  0  0  0  0  0  0  0
  185.1710  178.8540  146.7890 N   0  0  0  0  0  0  0  0  0  0  0  0
  187.8850  177.2160  144.2110 C   0  0  0  0  0  3  0  0  0  0  0  0
  184.0720  179.0480  145.9340 N   0  0  0  0  0  0  0  0  0  0  0  0
  184.4390  179.3090  139.4790 C   0  0  0  0  0  3  0  0  0  0  0  0
  185.2090  178.4080  138.8760 C   0  0  0  0  0  3  0  0  0  0  0  0
  186.5540  178.7000  138.4890 N   0  0  0  0  0  2  0  0  0  0  0  0
  187.8760  178.3400  140.5080 C   0  0  0  0  0  1  0  0  0  0  0  0
  187.7180  178.0140  139.0330 C   0  0  2  0  0  3  0  0  0  0  0  0
  188.9560  179.5130  137.6590 O   0  0  0  0  0  0  0  0  0  0  0  0
  190.0700  177.6070  138.2850 O   0  0  0  0  0  1  0  0  0  0  0  0
  188.9430  178.4220  138.2890 C   0  0  0  0  0  0  0  0  0  0  0  0
  1 22  1  1  0  0  0
  1  8  1  0  0  0  0
  2  5  1  0  0  0  0
  3  6  1  0  0  0  0
  3  2  2  0  0  0  0
  4  7  1  0  0  0  0
  5  7  2  0  0  0  0
  5  1  1  0  0  0  0
  6  4  2  0  0  0  0
  8 12  1  0  0  0  0
  8 10  2  0  0  0  0
  9 11  2  0  0  0  0
  9 16  1  0  0  0  0
 10  9  1  0  0  0  0
 12 11  1  0  0  0  0
 13 17  1  0  0  0  0
 14 20  1  0  0  0  0
 14 18  2  0  0  0  0
 15 17  1  0  0  0  0
 15 19  2  0  0  0  0
 16 18  1  0  0  0  0
 16 21  2  0  0  0  0
 18 15  1  0  0  0  0
 20 13  2  0  0  0  0
 21 19  1  0  0  0  0
 23 22  2  0  0  0  0
 24 23  1  0  0  0  0
 24 26  1  0  0  0  0
 26 25  1  1  0  0  0
 27 29  2  0  0  0  0
 28 29  1  0  0  0  0
 29 26  1  0  0  0  0
M  END
>  <MODEL>
1

>  <REMARK>
 VINA RESULT:      -8.5      0.000      0.000
  Name = 
  7 active torsions:
  status: ('A' for Active; 'I' for Inactive)
    1  A    between atoms: C_2  and  C_11
    2  A    between atoms: C_4  and  C_11
    3  A    between atoms: C_10  and  C_13
    4  A    between atoms: C_11  and  C_15
    5  A    between atoms: C_16  and  N_26
    6  A    between atoms: CA_18  and  C_25
    7  A    between atoms: CA_18  and  N_26
                            x       y       z     vdW  Elec       q    Type
                         _______ _______ _______ _____ _____    ______ ____

>  <TORSDO>
F 7

$$$$
=
 OpenBabel10222422103D

 29 32  0  0  1  0  0  0  0  0999 V2000
  184.4080  179.0710  142.7530 C   0  0  1  0  0  3  0  0  0  0  0  0
  182.4890  178.3060  141.2920 C   0  0  0  0  0  3  0  0  0  0  0  0
  181.1620  178.0660  141.1140 N   0  0  0  0  0  0  0  0  0  0  0  0
  180.6810  178.7810  143.3390 C   0  0  0  0  0  3  0  0  0  0  0  0
  182.9550  178.7990  142.5160 C   0  0  0  0  0  0  0  0  0  0  0  0
  180.2580  178.2930  142.1040 C   0  0  0  0  0  3  0  0  0  0  0  0
  182.0380  179.0330  143.5410 C   0  0  0  0  0  3  0  0  0  0  0  0
  184.8120  178.7370  144.1590 C   0  0  0  0  0  0  0  0  0  0  0  0
  186.1850  178.1620  145.9330 C   0  0  0  0  0  0  0  0  0  0  0  0
  186.0850  178.3720  144.5470 C   0  0  0  0  0  3  0  0  0  0  0  0
  185.0060  178.3700  146.6470 C   0  0  0  0  0  3  0  0  0  0  0  0
  183.8370  178.8190  145.5260 S   0  0  0  0  0  0  0  0  0  0  0  0
  191.3570  176.6460  145.4340 C   0  0  0  0  0  3  0  0  0  0  0  0
  189.0670  177.2410  144.6910 C   0  0  0  0  0  3  0  0  0  0  0  0
  189.5700  177.1900  147.0700 C   0  0  0  0  0  0  0  0  0  0  0  0
  187.4470  177.7900  146.5900 C   0  0  0  0  0  0  0  0  0  0  0  0
  191.0090  176.8010  146.9060 C   0  0  0  0  0  2  0  0  0  0  0  0
  188.6890  177.3780  145.9560 C   0  0  0  0  0  0  0  0  0  0  0  0
  188.9570  177.4510  148.1770 N   0  0  0  0  0  0  0  0  0  0  0  0
  190.4740  176.8470  144.4320 C   0  0  0  0  0  3  0  0  0  0  0  0
  187.6350  177.8200  147.8750 N   0  0  0  0  0  0  0  0  0  0  0  0
  185.2650  178.3910  141.7320 C   0  0  0  0  0  3  0  0  0  0  0  0
  186.0760  179.0900  140.9420 C   0  0  0  0  0  3  0  0  0  0  0  0
  186.9070  178.4590  139.9630 N   0  0  0  0  0  2  0  0  0  0  0  0
  188.7820  178.5900  141.5190 C   0  0  0  0  0  1  0  0  0  0  0  0
  188.2500  177.9690  140.2390 C   0  0  2  0  0  3  0  0  0  0  0  0
  188.9260  179.3150  138.3960 O   0  0  0  0  0  0  0  0  0  0  0  0
  190.2490  177.4880  138.8150 O   0  0  0  0  0  1  0  0  0  0  0  0
  189.1550  178.2970  139.1030 C   0  0  0  0  0  0  0  0  0  0  0  0
  1 22  1  6  0  0  0
  1  8  1  0  0  0  0
  2  5  1  0  0  0  0
  3  2  2  0  0  0  0
  3  6  1  0  0  0  0
  4  7  1  0  0  0  0
  5  1  1  0  0  0  0
  5  7  2  0  0  0  0
  6  4  2  0  0  0  0
  8 10  2  0  0  0  0
  8 12  1  0  0  0  0
  9 16  1  0  0  0  0
  9 11  2  0  0  0  0
 10  9  1  0  0  0  0
 12 11  1  0  0  0  0
 13 17  1  0  0  0  0
 14 18  2  0  0  0  0
 15 19  2  0  0  0  0
 16 21  2  0  0  0  0
 17 15  1  0  0  0  0
 18 16  1  0  0  0  0
 18 15  1  0  0  0  0
 20 14  1  0  0  0  0
 20 13  2  0  0  0  0
 21 19  1  0  0  0  0
 23 22  2  0  0  0  0
 24 26  1  0  0  0  0
 24 23  1  0  0  0  0
 26 25  1  1  0  0  0
 27 29  2  0  0  0  0
 28 29  1  0  0  0  0
 29 26  1  0  0  0  0
M  END
>  <MODEL>
2

>  <REMARK>
 VINA RESULT:      -8.3      2.213      3.394
  Name = 
  7 active torsions:
  status: ('A' for Active; 'I' for Inactive)
    1  A    between atoms: C_2  and  C_11
    2  A    between atoms: C_4  and  C_11
    3  A    between atoms: C_10  and  C_13
    4  A    between atoms: C_11  and  C_15
    5  A    between atoms: C_16  and  N_26
    6  A    between atoms: CA_18  and  C_25
    7  A    between atoms: CA_18  and  N_26
                            x       y       z     vdW  Elec       q    Type
                         _______ _______ _______ _____ _____    ______ ____

>  <TORSDO>
F 7

$$$$
=
 OpenBabel10222422103D

 29 32  0  0  1  0  0  0  0  0999 V2000
  190.7390  177.5750  141.3190 C   0  0  1  0  0  3  0  0  0  0  0  0
  192.8030  177.3680  139.8680 C   0  0  0  0  0  3  0  0  0  0  0  0
  193.4310  176.8650  138.7720 N   0  0  0  0  0  0  0  0  0  0  0  0
  191.4580  175.6950  138.1150 C   0  0  0  0  0  3  0  0  0  0  0  0
  191.4650  177.0450  140.1200 C   0  0  0  0  0  0  0  0  0  0  0  0
  192.7900  176.0430  137.8980 C   0  0  0  0  0  3  0  0  0  0  0  0
  190.7970  176.2010  139.2330 C   0  0  0  0  0  3  0  0  0  0  0  0
  189.3020  177.8700  141.0090 C   0  0  0  0  0  0  0  0  0  0  0  0
  187.0570  178.3070  141.3810 C   0  0  0  0  0  0  0  0  0  0  0  0
  188.2980  177.9770  141.9510 C   0  0  0  0  0  3  0  0  0  0  0  0
  187.0700  178.4730  139.9970 C   0  0  0  0  0  3  0  0  0  0  0  0
  188.6520  178.2040  139.4950 S   0  0  0  0  0  0  0  0  0  0  0  0
  184.7380  178.3720  146.2710 C   0  0  0  0  0  3  0  0  0  0  0  0
  186.5420  178.0500  144.6000 C   0  0  0  0  0  3  0  0  0  0  0  0
  184.3260  178.7080  143.8450 C   0  0  0  0  0  0  0  0  0  0  0  0
  185.8410  178.5010  142.1850 C   0  0  0  0  0  0  0  0  0  0  0  0
  183.7140  178.7500  145.2130 C   0  0  0  0  0  3  0  0  0  0  0  0
  185.6970  178.3540  143.6240 C   0  0  1  0  0  3  0  0  0  0  0  0
  183.7550  179.0180  142.7290 N   0  0  0  0  0  0  0  0  0  0  0  0
  186.0210  178.0570  145.9900 C   0  0  0  0  0  3  0  0  0  0  0  0
  184.7000  178.8840  141.6960 N   0  0  0  0  0  0  0  0  0  0  0  0
  190.8990  176.6690  142.4990 C   0  0  0  0  0  3  0  0  0  0  0  0
  191.4960  177.0910  143.6110 C   0  0  0  0  0  3  0  0  0  0  0  0
  191.6540  176.2430  144.7520 N   0  0  0  0  0  2  0  0  0  0  0  0
  192.1820  175.6650  147.0630 C   0  0  0  0  0  1  0  0  0  0  0  0
  191.6320  176.7260  146.1260 C   0  0  2  0  0  3  0  0  0  0  0  0
  189.6150  176.3400  147.3300 O   0  0  0  0  0  1  0  0  0  0  0  0
  189.6210  178.2070  145.9970 O   0  0  0  0  0  0  0  0  0  0  0  0
  190.2380  177.0760  146.5190 C   0  0  0  0  0  0  0  0  0  0  0  0
  1 22  1  1  0  0  0
  2  5  1  0  0  0  0
  3  2  2  0  0  0  0
  4  7  1  0  0  0  0
  5  1  1  0  0  0  0
  6  4  2  0  0  0  0
  6  3  1  0  0  0  0
  7  5  2  0  0  0  0
  8  1  1  0  0  0  0
  8 10  2  0  0  0  0
  9 10  1  0  0  0  0
  9 16  1  0  0  0  0
 11  9  2  0  0  0  0
 12 11  1  0  0  0  0
 12  8  1  0  0  0  0
 14 20  2  0  0  0  0
 15 17  1  0  0  0  0
 16 18  1  0  0  0  0
 17 13  2  0  0  0  0
 18 15  1  0  0  0  0
 18 14  1  1  0  0  0
 19 15  2  0  0  0  0
 20 13  1  0  0  0  0
 21 16  2  0  0  0  0
 21 19  1  0  0  0  0
 22 23  2  0  0  0  0
 23 24  1  0  0  0  0
 24 26  1  0  0  0  0
 26 29  1  0  0  0  0
 26 25  1  1  0  0  0
 28 29  2  0  0  0  0
 29 27  1  0  0  0  0
M  END
>  <MODEL>
3

>  <REMARK>
 VINA RESULT:      -8.2      4.128      7.260
  Name = 
  7 active torsions:
  status: ('A' for Active; 'I' for Inactive)
    1  A    between atoms: C_2  and  C_11
    2  A    between atoms: C_4  and  C_11
    3  A    between atoms: C_10  and  C_13
    4  A    between atoms: C_11  and  C_15
    5  A    between atoms: C_16  and  N_26
    6  A    between atoms: CA_18  and  C_25
    7  A    between atoms: CA_18  and  N_26
                            x       y       z     vdW  Elec       q    Type
                         _______ _______ _______ _____ _____    ______ ____

>  <TORSDO>
F 7

$$$$
=
 OpenBabel10222422103D

 29 32  0  0  1  0  0  0  0  0999 V2000
  190.3470  177.2880  139.3590 C   0  0  1  0  0  3  0  0  0  0  0  0
  189.1020  178.9260  137.8850 C   0  0  0  0  0  3  0  0  0  0  0  0
  188.1590  179.1840  136.9400 N   0  0  0  0  0  0  0  0  0  0  0  0
  187.5860  176.8720  136.8040 C   0  0  0  0  0  3  0  0  0  0  0  0
  189.3150  177.6140  138.3230 C   0  0  0  0  0  0  0  0  0  0  0  0
  187.4040  178.1930  136.3970 C   0  0  0  0  0  3  0  0  0  0  0  0
  188.5480  176.5870  137.7720 C   0  0  0  0  0  3  0  0  0  0  0  0
  189.7420  177.1850  140.7280 C   0  0  0  0  0  0  0  0  0  0  0  0
  188.1710  177.3920  142.4170 C   0  0  0  0  0  0  0  0  0  0  0  0
  188.5000  177.6710  141.0800 C   0  0  0  0  0  3  0  0  0  0  0  0
  189.1370  176.6800  143.1250 C   0  0  0  0  0  3  0  0  0  0  0  0
  190.4070  176.4010  142.0590 S   0  0  0  0  0  0  0  0  0  0  0  0
  185.3230  178.4540  146.8960 C   0  0  0  0  0  3  0  0  0  0  0  0
  187.2780  177.7480  145.5430 C   0  0  0  0  0  3  0  0  0  0  0  0
  185.2120  178.3640  144.4170 C   0  0  0  0  0  0  0  0  0  0  0  0
  186.8880  177.7870  143.0180 C   0  0  0  0  0  0  0  0  0  0  0  0
  184.4530  178.6820  145.6700 C   0  0  0  0  0  3  0  0  0  0  0  0
  186.5720  177.9100  144.4320 C   0  0  1  0  0  3  0  0  0  0  0  0
  184.7950  178.4930  143.2010 N   0  0  0  0  0  0  0  0  0  0  0  0
  186.6040  178.0310  146.8350 C   0  0  0  0  0  3  0  0  0  0  0  0
  185.8390  178.1290  142.3330 N   0  0  0  0  0  0  0  0  0  0  0  0
  191.1310  176.0700  138.9830 C   0  0  0  0  0  3  0  0  0  0  0  0
  192.1650  176.1510  138.1500 C   0  0  0  0  0  3  0  0  0  0  0  0
  192.9310  175.0000  137.7820 N   0  0  0  0  0  2  0  0  0  0  0  0
  194.6960  174.2300  136.2830 C   0  0  0  0  0  1  0  0  0  0  0  0
  194.3650  175.0320  137.5300 C   0  0  2  0  0  3  0  0  0  0  0  0
  195.6110  175.2590  139.5460 O   0  0  0  0  0  1  0  0  0  0  0  0
  195.2290  173.1020  138.8650 O   0  0  0  0  0  0  0  0  0  0  0  0
  195.1010  174.4770  138.7000 C   0  0  0  0  0  0  0  0  0  0  0  0
  1 22  1  6  0  0  0
  1  8  1  0  0  0  0
  2  5  1  0  0  0  0
  3  2  2  0  0  0  0
  4  7  1  0  0  0  0
  5  1  1  0  0  0  0
  6  4  2  0  0  0  0
  6  3  1  0  0  0  0
  7  5  2  0  0  0  0
  8 10  2  0  0  0  0
  8 12  1  0  0  0  0
  9 16  1  0  0  0  0
  9 11  2  0  0  0  0
 10  9  1  0  0  0  0
 12 11  1  0  0  0  0
 14 20  2  0  0  0  0
 15 18  1  0  0  0  0
 15 17  1  0  0  0  0
 16 18  1  0  0  0  0
 17 13  2  0  0  0  0
 18 14  1  6  0  0  0
 19 15  2  0  0  0  0
 20 13  1  0  0  0  0
 21 16  2  0  0  0  0
 21 19  1  0  0  0  0
 23 22  2  0  0  0  0
 24 23  1  0  0  0  0
 26 25  1  6  0  0  0
 26 24  1  0  0  0  0
 26 29  1  0  0  0  0
 29 28  2  0  0  0  0
 29 27  1  0  0  0  0
M  END
>  <MODEL>
4

>  <REMARK>
 VINA RESULT:      -8.2      4.298      6.199
  Name = 
  7 active torsions:
  status: ('A' for Active; 'I' for Inactive)
    1  A    between atoms: C_2  and  C_11
    2  A    between atoms: C_4  and  C_11
    3  A    between atoms: C_10  and  C_13
    4  A    between atoms: C_11  and  C_15
    5  A    between atoms: C_16  and  N_26
    6  A    between atoms: CA_18  and  C_25
    7  A    between atoms: CA_18  and  N_26
                            x       y       z     vdW  Elec       q    Type
                         _______ _______ _______ _____ _____    ______ ____

>  <TORSDO>
F 7

$$$$
=
 OpenBabel10222422103D

 29 32  0  0  1  0  0  0  0  0999 V2000
  190.5780  177.2190  138.9590 C   0  0  1  0  0  3  0  0  0  0  0  0
  189.0020  178.8530  137.8420 C   0  0  0  0  0  3  0  0  0  0  0  0
  187.8560  179.1090  137.1560 N   0  0  0  0  0  0  0  0  0  0  0  0
  187.2810  176.7930  137.1510 C   0  0  0  0  0  3  0  0  0  0  0  0
  189.3230  177.5410  138.2080 C   0  0  0  0  0  0  0  0  0  0  0  0
  186.9970  178.1140  136.8070 C   0  0  0  0  0  3  0  0  0  0  0  0
  188.4520  176.5110  137.8540 C   0  0  0  0  0  3  0  0  0  0  0  0
  190.3870  177.3600  140.4400 C   0  0  0  0  0  0  0  0  0  0  0  0
  189.2830  177.5480  142.4680 C   0  0  0  0  0  0  0  0  0  0  0  0
  189.1650  177.4790  141.0700 C   0  0  0  0  0  3  0  0  0  0  0  0
  190.5880  177.4740  142.9520 C   0  0  0  0  0  3  0  0  0  0  0  0
  191.5910  177.3190  141.6130 S   0  0  0  0  0  0  0  0  0  0  0  0
  187.3750  177.9040  147.5210 C   0  0  0  0  0  3  0  0  0  0  0  0
  189.0720  177.6510  145.7300 C   0  0  0  0  0  3  0  0  0  0  0  0
  186.7240  177.8380  145.1250 C   0  0  0  0  0  0  0  0  0  0  0  0
  188.1180  177.6530  143.3590 C   0  0  0  0  0  0  0  0  0  0  0  0
  186.2220  177.9670  146.5320 C   0  0  0  0  0  3  0  0  0  0  0  0
  188.1140  177.6810  144.8130 C   0  0  1  0  0  3  0  0  0  0  0  0
  186.0240  177.8990  144.0420 N   0  0  0  0  0  0  0  0  0  0  0  0
  188.6670  177.7620  147.1530 C   0  0  0  0  0  3  0  0  0  0  0  0
  186.8940  177.7790  142.9440 N   0  0  0  0  0  0  0  0  0  0  0  0
  191.1150  175.8760  138.5740 C   0  0  0  0  0  2  0  0  0  0  0  0
  192.3090  175.7540  138.0010 C   0  0  0  0  0  3  0  0  0  0  0  0
  192.8430  174.4800  137.6290 N   0  0  0  0  0  0  0  0  0  0  0  0
  194.3760  173.0410  136.3910 C   0  0  0  0  0  1  0  0  0  0  0  0
  194.2420  174.2600  137.2870 C   0  0  2  0  0  3  0  0  0  0  0  0
  195.3510  172.9040  138.9000 O   0  0  0  0  0  0  0  0  0  0  0  0
  195.4580  175.1640  139.2770 O   0  0  0  0  0  1  0  0  0  0  0  0
  195.0450  174.0680  138.5270 C   0  0  0  0  0  0  0  0  0  0  0  0
  1 22  1  1  0  0  0
  1  8  1  0  0  0  0
  2  5  1  0  0  0  0
  3  2  2  0  0  0  0
  4  7  1  0  0  0  0
  5  1  1  0  0  0  0
  6  4  2  0  0  0  0
  6  3  1  0  0  0  0
  7  5  2  0  0  0  0
  8 10  2  0  0  0  0
  8 12  1  0  0  0  0
  9 11  2  0  0  0  0
  9 16  1  0  0  0  0
 10  9  1  0  0  0  0
 12 11  1  0  0  0  0
 14 20  2  0  0  0  0
 15 17  1  0  0  0  0
 16 18  1  0  0  0  0
 17 13  2  0  0  0  0
 18 15  1  0  0  0  0
 18 14  1  6  0  0  0
 19 15  2  0  0  0  0
 20 13  1  0  0  0  0
 21 16  2  0  0  0  0
 21 19  1  0  0  0  0
 23 22  1  0  0  0  0
 24 23  2  0  0  0  0
 26 25  1  6  0  0  0
 26 24  1  0  0  0  0
 26 29  1  0  0  0  0
 29 27  2  0  0  0  0
 29 28  1  0  0  0  0
M  END
>  <MODEL>
5

>  <REMARK>
 VINA RESULT:      -8.1      4.444      6.425
  Name = 
  7 active torsions:
  status: ('A' for Active; 'I' for Inactive)
    1  A    between atoms: C_2  and  C_11
    2  A    between atoms: C_4  and  C_11
    3  A    between atoms: C_10  and  C_13
    4  A    between atoms: C_11  and  C_15
    5  A    between atoms: C_16  and  N_26
    6  A    between atoms: CA_18  and  C_25
    7  A    between atoms: CA_18  and  N_26
                            x       y       z     vdW  Elec       q    Type
                         _______ _______ _______ _____ _____    ______ ____

>  <TORSDO>
F 7

$$$$
=
 OpenBabel10222422103D

 29 32  0  0  1  0  0  0  0  0999 V2000
  183.9250  179.2400  139.6510 C   0  0  1  0  0  3  0  0  0  0  0  0
  182.0210  178.6960  138.0750 C   0  0  0  0  0  3  0  0  0  0  0  0
  180.9370  179.0870  137.3530 N   0  0  0  0  0  0  0  0  0  0  0  0
  181.1890  181.3410  138.0950 C   0  0  0  0  0  3  0  0  0  0  0  0
  182.7300  179.6310  138.8380 C   0  0  0  0  0  0  0  0  0  0  0  0
  180.5120  180.3790  137.3470 C   0  0  0  0  0  3  0  0  0  0  0  0
  182.3020  180.9600  138.8430 C   0  0  0  0  0  3  0  0  0  0  0  0
  183.5570  178.9680  141.0800 C   0  0  0  0  0  0  0  0  0  0  0  0
  183.8270  178.6730  143.3610 C   0  0  0  0  0  0  0  0  0  0  0  0
  184.4560  178.8910  142.1240 C   0  0  0  0  0  3  0  0  0  0  0  0
  182.4370  178.5870  143.3080 C   0  0  0  0  0  3  0  0  0  0  0  0
  182.0030  178.7890  141.6960 S   0  0  0  0  0  0  0  0  0  0  0  0
  188.4450  177.4260  145.8960 C   0  0  0  0  0  3  0  0  0  0  0  0
  186.8650  177.6420  143.9960 C   0  0  0  0  0  3  0  0  0  0  0  0
  186.1350  178.2780  146.2270 C   0  0  0  0  0  0  0  0  0  0  0  0
  184.5730  178.5800  144.6250 C   0  0  0  0  0  0  0  0  0  0  0  0
  187.4340  177.9550  146.9020 C   0  0  0  0  0  2  0  0  0  0  0  0
  185.9290  178.0940  144.8210 C   0  0  0  0  0  0  0  0  0  0  0  0
  185.0820  178.7900  146.7730 N   0  0  0  0  0  0  0  0  0  0  0  0
  188.1830  177.2870  144.5780 C   0  0  0  0  0  3  0  0  0  0  0  0
  184.1100  178.9730  145.7730 N   0  0  0  0  0  0  0  0  0  0  0  0
  184.6640  178.1010  139.0210 C   0  0  0  0  0  3  0  0  0  0  0  0
  185.6940  178.3190  138.2080 C   0  0  0  0  0  3  0  0  0  0  0  0
  186.4170  177.2450  137.5990 N   0  0  0  0  0  2  0  0  0  0  0  0
  188.3740  175.8220  137.2860 C   0  0  0  0  0  1  0  0  0  0  0  0
  187.8630  177.2460  137.4190 C   0  0  2  0  0  3  0  0  0  0  0  0
  188.6550  177.2900  139.6640 O   0  0  0  0  0  1  0  0  0  0  0  0
  188.9820  179.2210  138.4690 O   0  0  0  0  0  0  0  0  0  0  0  0
  188.5190  177.9140  138.5780 C   0  0  0  0  0  0  0  0  0  0  0  0
  1 22  1  6  0  0  0
  1  8  1  0  0  0  0
  2  5  1  0  0  0  0
  3  2  2  0  0  0  0
  4  7  1  0  0  0  0
  5  7  2  0  0  0  0
  5  1  1  0  0  0  0
  6  3  1  0  0  0  0
  6  4  2  0  0  0  0
  8 12  1  0  0  0  0
  8 10  2  0  0  0  0
  9 16  1  0  0  0  0
 10  9  1  0  0  0  0
 11  9  2  0  0  0  0
 12 11  1  0  0  0  0
 13 17  1  0  0  0  0
 14 20  1  0  0  0  0
 14 18  2  0  0  0  0
 15 19  2  0  0  0  0
 15 17  1  0  0  0  0
 16 18  1  0  0  0  0
 16 21  2  0  0  0  0
 18 15  1  0  0  0  0
 20 13  2  0  0  0  0
 21 19  1  0  0  0  0
 23 22  2  0  0  0  0
 24 23  1  0  0  0  0
 26 25  1  1  0  0  0
 26 24  1  0  0  0  0
 26 29  1  0  0  0  0
 28 29  2  0  0  0  0
 29 27  1  0  0  0  0
M  END
>  <MODEL>
6

>  <REMARK>
 VINA RESULT:      -8.0      1.420      2.178
  Name = 
  7 active torsions:
  status: ('A' for Active; 'I' for Inactive)
    1  A    between atoms: C_2  and  C_11
    2  A    between atoms: C_4  and  C_11
    3  A    between atoms: C_10  and  C_13
    4  A    between atoms: C_11  and  C_15
    5  A    between atoms: C_16  and  N_26
    6  A    between atoms: CA_18  and  C_25
    7  A    between atoms: CA_18  and  N_26
                            x       y       z     vdW  Elec       q    Type
                         _______ _______ _______ _____ _____    ______ ____

>  <TORSDO>
F 7

$$$$
=
 OpenBabel10222422103D

 29 32  0  0  1  0  0  0  0  0999 V2000
  187.7580  177.0450  144.6080 C   0  0  1  0  0  3  0  0  0  0  0  0
  187.1400  177.9590  146.8850 C   0  0  0  0  0  3  0  0  0  0  0  0
  187.4880  178.3090  148.1520 N   0  0  0  0  0  0  0  0  0  0  0  0
  189.7530  177.6670  147.7630 C   0  0  0  0  0  3  0  0  0  0  0  0
  188.1030  177.4470  146.0090 C   0  0  0  0  0  0  0  0  0  0  0  0
  188.7640  178.1760  148.6040 C   0  0  0  0  0  3  0  0  0  0  0  0
  189.4150  177.3020  146.4600 C   0  0  0  0  0  3  0  0  0  0  0  0
  186.5560  177.7850  144.1010 C   0  0  0  0  0  0  0  0  0  0  0  0
  185.0530  178.6830  142.5840 C   0  0  0  0  0  0  0  0  0  0  0  0
  186.2680  178.0030  142.7690 C   0  0  0  0  0  3  0  0  0  0  0  0
  184.3690  178.9950  143.7580 C   0  0  0  0  0  3  0  0  0  0  0  0
  185.3010  178.4110  145.0290 S   0  0  0  0  0  0  0  0  0  0  0  0
  180.7740  178.9300  139.2780 C   0  0  0  0  0  3  0  0  0  0  0  0
  182.0340  178.4240  141.3530 C   0  0  0  0  0  3  0  0  0  0  0  0
  183.2130  179.3650  139.4460 C   0  0  0  0  0  0  0  0  0  0  0  0
  184.5190  179.0090  141.2530 C   0  0  0  0  0  0  0  0  0  0  0  0
  182.0080  179.4530  138.5590 C   0  0  0  0  0  3  0  0  0  0  0  0
  183.1530  178.8500  140.7820 C   0  0  1  0  0  3  0  0  0  0  0  0
  184.4100  179.7660  139.1730 N   0  0  0  0  0  0  0  0  0  0  0  0
  180.7890  178.4650  140.5460 C   0  0  0  0  0  3  0  0  0  0  0  0
  185.2220  179.5390  140.2980 N   0  0  0  0  0  0  0  0  0  0  0  0
  188.9390  177.1740  143.6970 C   0  0  0  0  0  3  0  0  0  0  0  0
  189.2210  176.2300  142.8040 C   0  0  0  0  0  3  0  0  0  0  0  0
  190.3410  176.3350  141.9200 N   0  0  0  0  0  2  0  0  0  0  0  0
  188.9830  177.6090  140.3430 C   0  0  0  0  0  1  0  0  0  0  0  0
  190.3900  177.2450  140.7840 C   0  0  2  0  0  3  0  0  0  0  0  0
  190.5340  175.7870  138.9070 O   0  0  0  0  0  0  0  0  0  0  0  0
  192.4620  176.9180  139.4220 O   0  0  0  0  0  1  0  0  0  0  0  0
  191.1260  176.6100  139.6550 C   0  0  0  0  0  0  0  0  0  0  0  0
  1 22  1  6  0  0  0
  1  5  1  0  0  0  0
  2  3  1  0  0  0  0
  3  6  2  0  0  0  0
  4  6  1  0  0  0  0
  5  7  1  0  0  0  0
  5  2  2  0  0  0  0
  7  4  2  0  0  0  0
  8  1  1  0  0  0  0
  8 12  1  0  0  0  0
  9 10  1  0  0  0  0
  9 11  2  0  0  0  0
 10  8  2  0  0  0  0
 11 12  1  0  0  0  0
 13 20  1  0  0  0  0
 15 18  1  0  0  0  0
 16  9  1  0  0  0  0
 17 13  2  0  0  0  0
 17 15  1  0  0  0  0
 18 16  1  0  0  0  0
 18 14  1  1  0  0  0
 19 15  2  0  0  0  0
 19 21  1  0  0  0  0
 20 14  2  0  0  0  0
 21 16  2  0  0  0  0
 23 22  2  0  0  0  0
 24 23  1  0  0  0  0
 26 25  1  6  0  0  0
 26 24  1  0  0  0  0
 27 29  2  0  0  0  0
 28 29  1  0  0  0  0
 29 26  1  0  0  0  0
M  END
>  <MODEL>
7

>  <REMARK>
 VINA RESULT:      -8.0      2.416      7.143
  Name = 
  7 active torsions:
  status: ('A' for Active; 'I' for Inactive)
    1  A    between atoms: C_2  and  C_11
    2  A    between atoms: C_4  and  C_11
    3  A    between atoms: C_10  and  C_13
    4  A    between atoms: C_11  and  C_15
    5  A    between atoms: C_16  and  N_26
    6  A    between atoms: CA_18  and  C_25
    7  A    between atoms: CA_18  and  N_26
                            x       y       z     vdW  Elec       q    Type
                         _______ _______ _______ _____ _____    ______ ____

>  <TORSDO>
F 7

$$$$
=
 OpenBabel10222422103D

 29 32  0  0  1  0  0  0  0  0999 V2000
  188.5020  177.0450  144.1750 C   0  0  1  0  0  3  0  0  0  0  0  0
  190.8570  177.0870  145.0980 C   0  0  0  0  0  3  0  0  0  0  0  0
  191.7120  177.0650  146.1550 N   0  0  0  0  0  0  0  0  0  0  0  0
  189.8930  176.9080  147.6910 C   0  0  0  0  0  3  0  0  0  0  0  0
  189.4760  177.0180  145.3120 C   0  0  0  0  0  0  0  0  0  0  0  0
  191.2620  176.9760  147.4350 C   0  0  0  0  0  3  0  0  0  0  0  0
  189.0000  176.9300  146.6200 C   0  0  0  0  0  3  0  0  0  0  0  0
  187.2120  177.7030  144.5670 C   0  0  0  0  0  0  0  0  0  0  0  0
  185.0240  178.4440  144.3930 C   0  0  0  0  0  0  0  0  0  0  0  0
  186.1080  177.8250  143.7480 C   0  0  0  0  0  3  0  0  0  0  0  0
  185.2550  178.8030  145.7190 C   0  0  0  0  0  3  0  0  0  0  0  0
  186.8300  178.3370  146.0770 S   0  0  0  0  0  0  0  0  0  0  0  0
  182.2200  178.8460  139.7800 C   0  0  0  0  0  3  0  0  0  0  0  0
  184.2190  178.5950  141.2260 C   0  0  0  0  0  3  0  0  0  0  0  0
  182.0380  178.9110  142.2560 C   0  0  0  0  0  0  0  0  0  0  0  0
  183.7280  178.6630  143.7330 C   0  0  0  0  0  0  0  0  0  0  0  0
  181.2790  178.9870  140.9660 C   0  0  0  0  0  2  0  0  0  0  0  0
  183.4590  178.7280  142.3060 C   0  0  0  0  0  0  0  0  0  0  0  0
  181.5470  178.9440  143.4500 N   0  0  0  0  0  0  0  0  0  0  0  0
  183.5530  178.6670  139.9020 C   0  0  0  0  0  3  0  0  0  0  0  0
  182.6020  178.7940  144.3680 N   0  0  0  0  0  0  0  0  0  0  0  0
  189.1080  177.6550  142.9500 C   0  0  0  0  0  3  0  0  0  0  0  0
  189.3020  176.9320  141.8500 C   0  0  0  0  0  3  0  0  0  0  0  0
  189.8760  177.4960  140.6670 N   0  0  0  0  0  2  0  0  0  0  0  0
  190.5160  177.0620  138.3520 C   0  0  0  0  0  1  0  0  0  0  0  0
  189.3650  177.2500  139.3250 C   0  0  2  0  0  3  0  0  0  0  0  0
  188.9970  179.2800  138.1370 O   0  0  0  0  0  0  0  0  0  0  0  0
  187.1890  178.4840  139.3050 O   0  0  0  0  0  1  0  0  0  0  0  0
  188.5130  178.3920  138.8880 C   0  0  0  0  0  0  0  0  0  0  0  0
  1 22  1  6  0  0  0
  1  8  1  0  0  0  0
  1  5  1  0  0  0  0
  2  5  2  0  0  0  0
  2  3  1  0  0  0  0
  3  6  2  0  0  0  0
  5  7  1  0  0  0  0
  6  4  1  0  0  0  0
  7  4  2  0  0  0  0
  8 12  1  0  0  0  0
  9 11  2  0  0  0  0
 10  9  1  0  0  0  0
 10  8  2  0  0  0  0
 11 12  1  0  0  0  0
 13 20  2  0  0  0  0
 13 17  1  0  0  0  0
 14 18  2  0  0  0  0
 15 18  1  0  0  0  0
 15 19  2  0  0  0  0
 16 21  2  0  0  0  0
 16  9  1  0  0  0  0
 17 15  1  0  0  0  0
 18 16  1  0  0  0  0
 19 21  1  0  0  0  0
 20 14  1  0  0  0  0
 23 22  2  0  0  0  0
 24 23  1  0  0  0  0
 26 25  1  6  0  0  0
 26 24  1  0  0  0  0
 27 29  2  0  0  0  0
 29 28  1  0  0  0  0
 29 26  1  0  0  0  0
M  END
>  <MODEL>
8

>  <REMARK>
 VINA RESULT:      -8.0      2.555      6.802
  Name = 
  7 active torsions:
  status: ('A' for Active; 'I' for Inactive)
    1  A    between atoms: C_2  and  C_11
    2  A    between atoms: C_4  and  C_11
    3  A    between atoms: C_10  and  C_13
    4  A    between atoms: C_11  and  C_15
    5  A    between atoms: C_16  and  N_26
    6  A    between atoms: CA_18  and  C_25
    7  A    between atoms: CA_18  and  N_26
                            x       y       z     vdW  Elec       q    Type
                         _______ _______ _______ _____ _____    ______ ____

>  <TORSDO>
F 7

$$$$
=
 OpenBabel10222422103D

 29 32  0  0  1  0  0  0  0  0999 V2000
  190.5430  176.7820  141.1990 C   0  0  1  0  0  3  0  0  0  0  0  0
  191.1760  175.9320  143.4970 C   0  0  0  0  0  3  0  0  0  0  0  0
  191.5740  176.1680  144.7760 N   0  0  0  0  0  0  0  0  0  0  0  0
  191.5990  178.5230  144.3880 C   0  0  0  0  0  3  0  0  0  0  0  0
  190.9760  177.0010  142.6160 C   0  0  0  0  0  0  0  0  0  0  0  0
  191.7860  177.4310  145.2350 C   0  0  0  0  0  3  0  0  0  0  0  0
  191.1930  178.3010  143.0730 C   0  0  0  0  0  3  0  0  0  0  0  0
  189.1820  177.3570  140.9410 C   0  0  0  0  0  0  0  0  0  0  0  0
  187.0400  178.1200  141.3830 C   0  0  0  0  0  0  0  0  0  0  0  0
  188.1980  177.5120  141.8970 C   0  0  0  0  0  3  0  0  0  0  0  0
  187.1020  178.4580  140.0330 C   0  0  0  0  0  3  0  0  0  0  0  0
  188.6210  177.9890  139.4880 S   0  0  0  0  0  0  0  0  0  0  0  0
  184.8600  178.4120  146.3290 C   0  0  0  0  0  3  0  0  0  0  0  0
  186.5900  177.9360  144.6180 C   0  0  0  0  0  3  0  0  0  0  0  0
  184.4120  178.7540  143.9110 C   0  0  0  0  0  0  0  0  0  0  0  0
  185.8640  178.4160  142.2150 C   0  0  0  0  0  0  0  0  0  0  0  0
  183.8400  178.8570  145.2930 C   0  0  0  0  0  3  0  0  0  0  0  0
  185.7450  178.2940  143.6590 C   0  0  1  0  0  3  0  0  0  0  0  0
  183.8380  179.0960  142.8050 N   0  0  0  0  0  0  0  0  0  0  0  0
  186.1070  177.9960  146.0190 C   0  0  0  0  0  3  0  0  0  0  0  0
  184.7430  178.8800  141.7510 N   0  0  0  0  0  0  0  0  0  0  0  0
  191.5710  177.2810  140.2310 C   0  0  0  0  0  2  0  0  0  0  0  0
  192.0640  176.4860  139.2850 C   0  0  0  0  0  3  0  0  0  0  0  0
  193.0420  176.9440  138.3480 N   0  0  0  0  0  0  0  0  0  0  0  0
  192.2960  175.7710  136.3430 C   0  0  0  0  0  1  0  0  0  0  0  0
  193.4860  176.1650  137.1990 C   0  0  2  0  0  3  0  0  0  0  0  0
  193.9010  173.8210  137.1790 O   0  0  0  0  0  0  0  0  0  0  0  0
  195.2110  175.0380  138.6170 O   0  0  0  0  0  1  0  0  0  0  0  0
  194.2060  174.9450  137.6600 C   0  0  0  0  0  0  0  0  0  0  0  0
  1 22  1  6  0  0  0
  1  5  1  0  0  0  0
  2  3  1  0  0  0  0
  3  6  2  0  0  0  0
  4  6  1  0  0  0  0
  5  7  1  0  0  0  0
  5  2  2  0  0  0  0
  7  4  2  0  0  0  0
  8  1  1  0  0  0  0
  8 10  2  0  0  0  0
  9 10  1  0  0  0  0
  9 16  1  0  0  0  0
 11  9  2  0  0  0  0
 12 11  1  0  0  0  0
 12  8  1  0  0  0  0
 14 20  2  0  0  0  0
 15 17  1  0  0  0  0
 16 18  1  0  0  0  0
 17 13  2  0  0  0  0
 18 15  1  0  0  0  0
 18 14  1  1  0  0  0
 19 15  2  0  0  0  0
 20 13  1  0  0  0  0
 21 16  2  0  0  0  0
 21 19  1  0  0  0  0
 23 22  1  0  0  0  0
 24 23  2  0  0  0  0
 26 25  1  1  0  0  0
 26 29  1  0  0  0  0
 26 24  1  0  0  0  0
 27 29  2  0  0  0  0
 29 28  1  0  0  0  0
M  END
>  <MODEL>
9

>  <REMARK>
 VINA RESULT:      -7.9      3.942      7.035
  Name = 
  7 active torsions:
  status: ('A' for Active; 'I' for Inactive)
    1  A    between atoms: C_2  and  C_11
    2  A    between atoms: C_4  and  C_11
    3  A    between atoms: C_10  and  C_13
    4  A    between atoms: C_11  and  C_15
    5  A    between atoms: C_16  and  N_26
    6  A    between atoms: CA_18  and  C_25
    7  A    between atoms: CA_18  and  N_26
                            x       y       z     vdW  Elec       q    Type
                         _______ _______ _______ _____ _____    ______ ____

>  <TORSDO>
F 7

$$$$
