=
 OpenBabel10222421433D

 47 52  0  0  1  0  0  0  0  0999 V2000
  187.0960  177.6500  136.3090 C   0  0  0  0  0  2  0  0  0  0  0  0
  191.2120  176.7730  138.7790 C   0  0  0  0  0  0  0  0  0  0  0  0
  190.1500  177.4780  139.5880 C   0  0  1  0  0  3  0  0  0  0  0  0
  191.8470  175.3490  136.9170 C   0  0  0  0  0  3  0  0  0  0  0  0
  188.8380  177.6570  138.8090 C   0  0  2  0  0  3  0  0  0  0  0  0
  189.5170  175.8710  137.2770 O   0  0  0  0  0  0  0  0  0  0  0  0
  192.5580  176.8850  139.1470 C   0  0  0  0  0  3  0  0  0  0  0  0
  193.1930  175.4720  137.2780 C   0  0  0  0  0  0  0  0  0  0  0  0
  187.1400  176.4930  137.3180 C   0  0  2  0  0  3  0  0  0  0  0  0
  188.4420  178.3410  136.1430 C   0  0  0  0  0  2  0  0  0  0  0  0
  190.8550  175.9900  137.6630 C   0  0  0  0  0  0  0  0  0  0  0  0
  188.4500  176.3470  138.1010 C   0  0  2  0  0  3  0  0  0  0  0  0
  188.9630  179.1270  137.7080 S   0  0  0  0  0  0  0  0  0  0  0  0
  193.5450  176.2320  138.4040 C   0  0  0  0  0  3  0  0  0  0  0  0
  193.6460  172.1390  136.2200 C   0  0  0  0  0  2  0  0  0  0  0  0
  195.5470  175.3750  136.6020 N   0  0  0  0  0  0  0  0  0  0  0  0
  194.2250  174.7350  136.4860 C   0  0  1  0  0  3  0  0  0  0  0  0
  197.0560  173.4190  136.4430 N   0  0  0  0  0  0  0  0  0  0  0  0
  196.7480  174.8350  136.5770 C   0  0  0  0  0  3  0  0  0  0  0  0
  194.8880  172.7560  135.6280 C   0  0  1  0  0  3  0  0  0  0  0  0
  194.3160  173.2990  136.9230 C   0  0  2  0  0  3  0  0  0  0  0  0
  196.2650  172.4460  136.0650 C   0  0  0  0  0  0  0  0  0  0  0  0
  197.3680  170.5030  137.1150 C   0  0  0  0  0  1  0  0  0  0  0  0
  196.7190  171.1260  136.0120 O   0  0  0  0  0  0  0  0  0  0  0  0
  188.8730  177.0570  141.6550 C   0  0  0  0  0  0  0  0  0  0  0  0
  187.8140  177.3020  142.3840 C   0  0  0  0  0  3  0  0  0  0  0  0
  189.9280  176.8170  140.9180 C   0  0  0  0  0  3  0  0  0  0  0  0
  189.0700  177.4770  145.9540 C   0  0  0  0  0  3  0  0  0  0  0  0
  186.6530  177.6310  145.9420 C   0  0  0  0  0  3  0  0  0  0  0  0
  186.6540  177.5290  144.5480 C   0  0  0  0  0  3  0  0  0  0  0  0
  187.8630  177.6080  146.6530 C   0  0  0  0  0  0  0  0  0  0  0  0
  187.8580  177.4030  143.8490 C   0  0  0  0  0  0  0  0  0  0  0  0
  189.0690  177.3750  144.5590 C   0  0  0  0  0  3  0  0  0  0  0  0
  187.8980  177.7110  148.0450 O   0  0  0  0  0  0  0  0  0  0  0  0
  188.9770  178.3200  148.7410 C   0  0  0  0  0  1  0  0  0  0  0  0
  186.6610  175.1770  136.7110 C   0  0  0  0  0  2  0  0  0  0  0  0
  185.3080  175.3040  136.1800 N   0  0  0  0  0  2  0  0  0  0  0  0
  184.4230  175.5190  137.3120 C   0  0  0  0  0  2  0  0  0  0  0  0
  183.3830  176.5670  136.9600 C   0  0  0  0  0  2  0  0  0  0  0  0
  182.9540  177.2980  138.1960 C   0  0  0  0  0  0  0  0  0  0  0  0
  182.5950  176.6560  139.1710 O   0  0  0  0  0  0  0  0  0  0  0  0
  182.9310  178.8040  138.2650 C   0  0  1  0  0  3  0  0  0  0  0  0
  181.6480  179.2690  137.9600 O   0  0  0  0  0  0  0  0  0  0  0  0
  181.5730  180.5370  138.5390 C   0  0  0  0  0  1  0  0  0  0  0  0
  183.3600  179.3370  139.6330 C   0  0  0  0  0  2  0  0  0  0  0  0
  184.6630  179.8310  139.5650 O   0  0  0  0  0  0  0  0  0  0  0  0
  185.4640  178.7460  139.9190 C   0  0  0  0  0  1  0  0  0  0  0  0
  1  9  1  0  0  0  0
  2  7  1  0  0  0  0
  2  3  1  0  0  0  0
  3 27  1  1  0  0  0
  4  8  2  0  0  0  0
  4 11  1  0  0  0  0
  5 13  1  6  0  0  0
  5  3  1  0  0  0  0
  6 11  1  0  0  0  0
  8 14  1  0  0  0  0
  9 36  1  6  0  0  0
  9 12  1  0  0  0  0
 10  1  1  0  0  0  0
 10 13  1  0  0  0  0
 11  2  2  0  0  0  0
 12  6  1  6  0  0  0
 12  5  1  0  0  0  0
 14  7  2  0  0  0  0
 17 16  1  0  0  0  0
 17 21  1  0  0  0  0
 17  8  1  1  0  0  0
 18 19  1  0  0  0  0
 19 16  2  0  0  0  0
 20 22  1  0  0  0  0
 20 15  1  1  0  0  0
 20 21  1  0  0  0  0
 21 15  1  6  0  0  0
 22 18  2  0  0  0  0
 24 22  1  0  0  0  0
 24 23  1  0  0  0  0
 25 26  2  0  0  0  0
 26 32  1  0  0  0  0
 27 25  2  0  0  0  0
 28 31  1  0  0  0  0
 29 31  2  0  0  0  0
 30 29  1  0  0  0  0
 31 34  1  0  0  0  0
 32 30  2  0  0  0  0
 32 33  1  0  0  0  0
 33 28  2  0  0  0  0
 34 35  1  0  0  0  0
 37 36  1  0  0  0  0
 37 38  1  0  0  0  0
 39 38  1  0  0  0  0
 39 40  1  0  0  0  0
 40 42  1  0  0  0  0
 40 41  2  0  0  0  0
 42 45  1  1  0  0  0
 43 42  1  0  0  0  0
 43 44  1  0  0  0  0
 46 45  1  0  0  0  0
 46 47  1  0  0  0  0
M  END
>  <MODEL>
1

>  <REMARK>
 VINA RESULT:      -7.5      0.000      0.000
  Name = 
  14 active torsions:
  status: ('A' for Active; 'I' for Inactive)
    1  A    between atoms: C_6  and  C_17
    2  A    between atoms: C_6  and  O_19
    3  A    between atoms: O_8  and  C_24
    4  A    between atoms: C_11  and  N_23
    5  A    between atoms: C_11  and  C_41
    6  A    between atoms: C_12  and  C_27
    7  A    between atoms: C_13  and  C_44
    8  A    between atoms: O_14  and  C_17
    9  A    between atoms: C_17  and  C_30
   10  A    between atoms: C_22  and  N_23
   11  A    between atoms: C_22  and  C_34
   12  A    between atoms: C_25  and  C_43
   13  A    between atoms: C_30  and  C_41
   14  A    between atoms: O_35  and  C_46
                            x       y       z     vdW  Elec       q    Type
                         _______ _______ _______ _____ _____    ______ ____

>  <TORSDO>
F 14

$$$$
=
 OpenBabel10222421433D

 47 52  0  0  1  0  0  0  0  0999 V2000
  187.0210  177.1330  135.7540 C   0  0  0  0  0  2  0  0  0  0  0  0
  190.8480  176.9440  138.7750 C   0  0  0  0  0  0  0  0  0  0  0  0
  189.6160  177.5670  139.3850 C   0  0  1  0  0  3  0  0  0  0  0  0
  191.8790  175.4810  137.1320 C   0  0  0  0  0  3  0  0  0  0  0  0
  188.4060  177.5280  138.4380 C   0  0  2  0  0  3  0  0  0  0  0  0
  189.4780  175.7370  137.1590 O   0  0  0  0  0  0  0  0  0  0  0  0
  192.1120  177.2450  139.2950 C   0  0  0  0  0  3  0  0  0  0  0  0
  193.1430  175.7940  137.6440 C   0  0  0  0  0  0  0  0  0  0  0  0
  187.0620  176.0640  136.8560 C   0  0  2  0  0  3  0  0  0  0  0  0
  188.2900  177.9710  135.6960 C   0  0  0  0  0  2  0  0  0  0  0  0
  190.7320  176.0470  137.6940 C   0  0  0  0  0  0  0  0  0  0  0  0
  188.2660  176.1350  137.8020 C   0  0  2  0  0  3  0  0  0  0  0  0
  188.5080  178.9220  137.2410 S   0  0  0  0  0  0  0  0  0  0  0  0
  193.2560  176.6680  138.7360 C   0  0  0  0  0  3  0  0  0  0  0  0
  195.3800  173.2610  138.6490 C   0  0  0  0  0  2  0  0  0  0  0  0
  195.0490  176.0410  136.1210 N   0  0  0  0  0  0  0  0  0  0  0  0
  194.3480  175.1360  137.0490 C   0  0  1  0  0  3  0  0  0  0  0  0
  197.4000  175.3250  136.4180 N   0  0  0  0  0  0  0  0  0  0  0  0
  196.3320  176.1260  135.8380 C   0  0  0  0  0  3  0  0  0  0  0  0
  195.9760  173.5960  137.3050 C   0  0  1  0  0  3  0  0  0  0  0  0
  195.2950  174.6760  138.1220 C   0  0  2  0  0  3  0  0  0  0  0  0
  197.3030  174.2170  137.1100 C   0  0  0  0  0  0  0  0  0  0  0  0
  198.8930  172.3290  137.1180 C   0  0  0  0  0  1  0  0  0  0  0  0
  198.4380  173.5810  137.6180 O   0  0  0  0  0  0  0  0  0  0  0  0
  189.4180  177.6560  141.8410 C   0  0  0  0  0  0  0  0  0  0  0  0
  189.5420  178.3430  142.9490 C   0  0  0  0  0  3  0  0  0  0  0  0
  189.2960  176.9770  140.7290 C   0  0  0  0  0  3  0  0  0  0  0  0
  191.6820  176.5050  145.4760 C   0  0  0  0  0  3  0  0  0  0  0  0
  189.7130  177.3840  146.5770 C   0  0  0  0  0  3  0  0  0  0  0  0
  189.2750  177.9220  145.3640 C   0  0  0  0  0  3  0  0  0  0  0  0
  190.9220  176.6730  146.6400 C   0  0  0  0  0  0  0  0  0  0  0  0
  190.0360  177.7580  144.2020 C   0  0  0  0  0  0  0  0  0  0  0  0
  191.2430  177.0440  144.2630 C   0  0  0  0  0  3  0  0  0  0  0  0
  191.3890  176.1250  147.8370 O   0  0  0  0  0  0  0  0  0  0  0  0
  192.7450  175.7450  148.0260 C   0  0  0  0  0  1  0  0  0  0  0  0
  186.8180  174.6590  136.3080 C   0  0  0  0  0  2  0  0  0  0  0  0
  185.8860  174.6860  135.1860 N   0  0  0  0  0  2  0  0  0  0  0  0
  184.6270  174.1400  135.6640 C   0  0  0  0  0  2  0  0  0  0  0  0
  183.6270  175.2620  135.8770 C   0  0  0  0  0  2  0  0  0  0  0  0
  183.3600  175.4400  137.3400 C   0  0  0  0  0  0  0  0  0  0  0  0
  183.7610  174.5930  138.1240 O   0  0  0  0  0  0  0  0  0  0  0  0
  182.5920  176.6220  137.8740 C   0  0  1  0  0  3  0  0  0  0  0  0
  181.3410  176.2000  138.3370 O   0  0  0  0  0  0  0  0  0  0  0  0
  181.2840  176.6190  139.6670 C   0  0  0  0  0  1  0  0  0  0  0  0
  183.3350  177.3520  138.9930 C   0  0  0  0  0  2  0  0  0  0  0  0
  184.0840  178.4020  138.4630 O   0  0  0  0  0  0  0  0  0  0  0  0
  184.4690  179.1510  139.5750 C   0  0  0  0  0  1  0  0  0  0  0  0
  1  9  1  0  0  0  0
  2  7  1  0  0  0  0
  2  3  1  0  0  0  0
  3 27  1  1  0  0  0
  4  8  2  0  0  0  0
  4 11  1  0  0  0  0
  5 13  1  6  0  0  0
  5  3  1  0  0  0  0
  6 11  1  0  0  0  0
  8 14  1  0  0  0  0
  9 36  1  6  0  0  0
  9 12  1  0  0  0  0
 10  1  1  0  0  0  0
 10 13  1  0  0  0  0
 11  2  2  0  0  0  0
 12  6  1  6  0  0  0
 12  5  1  0  0  0  0
 14  7  2  0  0  0  0
 16 17  1  0  0  0  0
 17  8  1  1  0  0  0
 17 21  1  0  0  0  0
 18 22  2  0  0  0  0
 19 16  2  0  0  0  0
 19 18  1  0  0  0  0
 20 21  1  0  0  0  0
 20 15  1  1  0  0  0
 21 15  1  1  0  0  0
 22 20  1  0  0  0  0
 22 24  1  0  0  0  0
 23 24  1  0  0  0  0
 25 26  2  0  0  0  0
 26 32  1  0  0  0  0
 27 25  2  0  0  0  0
 28 31  1  0  0  0  0
 29 31  2  0  0  0  0
 30 29  1  0  0  0  0
 31 34  1  0  0  0  0
 32 33  1  0  0  0  0
 32 30  2  0  0  0  0
 33 28  2  0  0  0  0
 34 35  1  0  0  0  0
 37 38  1  0  0  0  0
 37 36  1  0  0  0  0
 38 39  1  0  0  0  0
 39 40  1  0  0  0  0
 40 42  1  0  0  0  0
 40 41  2  0  0  0  0
 42 43  1  0  0  0  0
 42 45  1  1  0  0  0
 43 44  1  0  0  0  0
 46 45  1  0  0  0  0
 46 47  1  0  0  0  0
M  END
>  <MODEL>
2

>  <REMARK>
 VINA RESULT:      -7.2      1.677      2.072
  Name = 
  14 active torsions:
  status: ('A' for Active; 'I' for Inactive)
    1  A    between atoms: C_6  and  C_17
    2  A    between atoms: C_6  and  O_19
    3  A    between atoms: O_8  and  C_24
    4  A    between atoms: C_11  and  N_23
    5  A    between atoms: C_11  and  C_41
    6  A    between atoms: C_12  and  C_27
    7  A    between atoms: C_13  and  C_44
    8  A    between atoms: O_14  and  C_17
    9  A    between atoms: C_17  and  C_30
   10  A    between atoms: C_22  and  N_23
   11  A    between atoms: C_22  and  C_34
   12  A    between atoms: C_25  and  C_43
   13  A    between atoms: C_30  and  C_41
   14  A    between atoms: O_35  and  C_46
                            x       y       z     vdW  Elec       q    Type
                         _______ _______ _______ _____ _____    ______ ____

>  <TORSDO>
F 14

$$$$
=
 OpenBabel10222421433D

 47 52  0  0  1  0  0  0  0  0999 V2000
  187.2950  177.2320  136.1870 C   0  0  0  0  0  2  0  0  0  0  0  0
  191.2970  176.7770  138.9430 C   0  0  0  0  0  0  0  0  0  0  0  0
  190.1440  177.4550  139.6430 C   0  0  1  0  0  3  0  0  0  0  0  0
  192.1340  175.2920  137.2130 C   0  0  0  0  0  3  0  0  0  0  0  0
  188.8740  177.5000  138.7780 C   0  0  2  0  0  3  0  0  0  0  0  0
  189.7580  175.6780  137.4030 O   0  0  0  0  0  0  0  0  0  0  0  0
  192.6070  177.0000  139.3810 C   0  0  0  0  0  3  0  0  0  0  0  0
  193.4450  175.5260  137.6430 C   0  0  0  0  0  0  0  0  0  0  0  0
  187.3490  176.1420  137.2660 C   0  0  2  0  0  3  0  0  0  0  0  0
  188.6030  178.0010  136.0570 C   0  0  0  0  0  2  0  0  0  0  0  0
  191.0600  175.9090  137.8580 C   0  0  0  0  0  0  0  0  0  0  0  0
  188.6150  176.1290  138.1320 C   0  0  2  0  0  3  0  0  0  0  0  0
  188.9750  178.9090  137.5980 S   0  0  0  0  0  0  0  0  0  0  0  0
  193.6780  176.3720  138.7380 C   0  0  0  0  0  3  0  0  0  0  0  0
  195.4940  172.7560  138.3910 C   0  0  0  0  0  2  0  0  0  0  0  0
  195.3110  175.7210  136.0660 N   0  0  0  0  0  0  0  0  0  0  0  0
  194.5690  174.8150  136.9600 C   0  0  1  0  0  3  0  0  0  0  0  0
  197.6030  174.7980  136.2220 N   0  0  0  0  0  0  0  0  0  0  0  0
  196.5870  175.7210  135.7390 C   0  0  0  0  0  3  0  0  0  0  0  0
  196.0700  173.1330  137.0490 C   0  0  1  0  0  3  0  0  0  0  0  0
  195.5100  174.2060  137.9620 C   0  0  2  0  0  3  0  0  0  0  0  0
  197.4370  173.6560  136.8440 C   0  0  0  0  0  0  0  0  0  0  0  0
  199.8730  173.3030  137.0190 C   0  0  0  0  0  1  0  0  0  0  0  0
  198.5320  172.8970  137.2640 O   0  0  0  0  0  0  0  0  0  0  0  0
  188.7850  177.0990  141.6690 C   0  0  0  0  0  0  0  0  0  0  0  0
  187.6840  177.3430  142.3340 C   0  0  0  0  0  3  0  0  0  0  0  0
  189.8810  176.8590  140.9960 C   0  0  0  0  0  3  0  0  0  0  0  0
  188.7520  177.6510  145.9550 C   0  0  0  0  0  3  0  0  0  0  0  0
  186.3530  177.9380  145.7960 C   0  0  0  0  0  3  0  0  0  0  0  0
  186.4230  177.7570  144.4120 C   0  0  0  0  0  3  0  0  0  0  0  0
  187.5190  177.8880  146.5760 C   0  0  0  0  0  0  0  0  0  0  0  0
  187.6540  177.5240  143.7920 C   0  0  0  0  0  0  0  0  0  0  0  0
  188.8210  177.4700  144.5710 C   0  0  0  0  0  3  0  0  0  0  0  0
  187.4840  178.0670  147.9610 O   0  0  0  0  0  0  0  0  0  0  0  0
  188.6620  178.1540  148.7510 C   0  0  0  0  0  1  0  0  0  0  0  0
  186.9920  174.7630  136.7150 C   0  0  0  0  0  2  0  0  0  0  0  0
  186.6280  174.8390  135.3050 N   0  0  0  0  0  2  0  0  0  0  0  0
  185.4520  174.0040  135.1220 C   0  0  0  0  0  2  0  0  0  0  0  0
  185.7110  172.6180  135.6840 C   0  0  0  0  0  2  0  0  0  0  0  0
  184.5160  172.1450  136.4530 C   0  0  0  0  0  0  0  0  0  0  0  0
  184.4850  172.3120  137.6630 O   0  0  0  0  0  0  0  0  0  0  0  0
  183.3580  171.4510  135.7820 C   0  0  1  0  0  3  0  0  0  0  0  0
  183.2370  170.1500  136.2820 O   0  0  0  0  0  0  0  0  0  0  0  0
  184.0880  169.3750  135.4920 C   0  0  0  0  0  1  0  0  0  0  0  0
  182.0360  172.1980  135.9650 C   0  0  0  0  0  2  0  0  0  0  0  0
  181.3170  171.6430  137.0230 O   0  0  0  0  0  0  0  0  0  0  0  0
  180.5750  172.7070  137.5350 C   0  0  0  0  0  1  0  0  0  0  0  0
  1  9  1  0  0  0  0
  2  7  1  0  0  0  0
  2  3  1  0  0  0  0
  3 27  1  1  0  0  0
  4  8  2  0  0  0  0
  4 11  1  0  0  0  0
  5 13  1  6  0  0  0
  5  3  1  0  0  0  0
  6 11  1  0  0  0  0
  8 14  1  0  0  0  0
  9 36  1  6  0  0  0
  9 12  1  0  0  0  0
 10  1  1  0  0  0  0
 10 13  1  0  0  0  0
 11  2  2  0  0  0  0
 12  6  1  6  0  0  0
 12  5  1  0  0  0  0
 14  7  2  0  0  0  0
 16 17  1  0  0  0  0
 17  8  1  1  0  0  0
 17 21  1  0  0  0  0
 18 22  2  0  0  0  0
 19 16  2  0  0  0  0
 19 18  1  0  0  0  0
 20 21  1  0  0  0  0
 20 15  1  1  0  0  0
 21 15  1  1  0  0  0
 22 20  1  0  0  0  0
 22 24  1  0  0  0  0
 23 24  1  0  0  0  0
 25 26  2  0  0  0  0
 26 32  1  0  0  0  0
 27 25  2  0  0  0  0
 28 31  1  0  0  0  0
 29 31  2  0  0  0  0
 30 29  1  0  0  0  0
 31 34  1  0  0  0  0
 32 30  2  0  0  0  0
 32 33  1  0  0  0  0
 33 28  2  0  0  0  0
 34 35  1  0  0  0  0
 37 36  1  0  0  0  0
 38 37  1  0  0  0  0
 38 39  1  0  0  0  0
 39 40  1  0  0  0  0
 40 41  2  0  0  0  0
 42 45  1  1  0  0  0
 42 43  1  0  0  0  0
 42 40  1  0  0  0  0
 44 43  1  0  0  0  0
 45 46  1  0  0  0  0
 46 47  1  0  0  0  0
M  END
>  <MODEL>
3

>  <REMARK>
 VINA RESULT:      -7.2      2.658      3.704
  Name = 
  14 active torsions:
  status: ('A' for Active; 'I' for Inactive)
    1  A    between atoms: C_6  and  C_17
    2  A    between atoms: C_6  and  O_19
    3  A    between atoms: O_8  and  C_24
    4  A    between atoms: C_11  and  N_23
    5  A    between atoms: C_11  and  C_41
    6  A    between atoms: C_12  and  C_27
    7  A    between atoms: C_13  and  C_44
    8  A    between atoms: O_14  and  C_17
    9  A    between atoms: C_17  and  C_30
   10  A    between atoms: C_22  and  N_23
   11  A    between atoms: C_22  and  C_34
   12  A    between atoms: C_25  and  C_43
   13  A    between atoms: C_30  and  C_41
   14  A    between atoms: O_35  and  C_46
                            x       y       z     vdW  Elec       q    Type
                         _______ _______ _______ _____ _____    ______ ____

>  <TORSDO>
F 14

$$$$
=
 OpenBabel10222421433D

 47 52  0  0  1  0  0  0  0  0999 V2000
  188.6640  178.7590  137.2110 C   0  0  0  0  0  2  0  0  0  0  0  0
  188.3380  173.9800  136.2770 C   0  0  0  0  0  0  0  0  0  0  0  0
  189.7340  174.5390  136.1350 C   0  0  1  0  0  3  0  0  0  0  0  0
  186.1030  174.1030  137.2200 C   0  0  0  0  0  3  0  0  0  0  0  0
  189.8160  176.0230  136.5230 C   0  0  2  0  0  3  0  0  0  0  0  0
  187.7270  175.7990  137.7820 O   0  0  0  0  0  0  0  0  0  0  0  0
  187.9840  172.8080  135.6000 C   0  0  0  0  0  3  0  0  0  0  0  0
  185.7460  172.9390  136.5310 C   0  0  0  0  0  0  0  0  0  0  0  0
  189.1430  177.7490  138.2640 C   0  0  2  0  0  3  0  0  0  0  0  0
  188.0350  178.0920  135.9950 C   0  0  0  0  0  2  0  0  0  0  0  0
  187.3930  174.6250  137.1010 C   0  0  0  0  0  0  0  0  0  0  0  0
  189.0730  176.2750  137.8470 C   0  0  2  0  0  3  0  0  0  0  0  0
  189.2630  177.0670  135.1120 S   0  0  0  0  0  0  0  0  0  0  0  0
  186.6950  172.2840  135.7310 C   0  0  0  0  0  3  0  0  0  0  0  0
  183.9900  170.1240  135.3370 C   0  0  0  0  0  2  0  0  0  0  0  0
  183.3990  173.4450  137.0250 N   0  0  0  0  0  0  0  0  0  0  0  0
  184.3710  172.3810  136.7160 C   0  0  1  0  0  3  0  0  0  0  0  0
  181.3440  172.5570  135.9680 N   0  0  0  0  0  0  0  0  0  0  0  0
  182.1200  173.5290  136.7250 C   0  0  0  0  0  3  0  0  0  0  0  0
  182.9120  170.7420  136.1920 C   0  0  1  0  0  3  0  0  0  0  0  0
  183.9260  171.6270  135.4940 C   0  0  2  0  0  3  0  0  0  0  0  0
  181.6580  171.3210  135.6670 C   0  0  0  0  0  0  0  0  0  0  0  0
  180.3120  169.2730  135.3780 C   0  0  0  0  0  1  0  0  0  0  0  0
  180.8010  170.5230  134.9060 O   0  0  0  0  0  0  0  0  0  0  0  0
  191.8950  174.1940  137.2690 C   0  0  0  0  0  0  0  0  0  0  0  0
  193.0400  174.6870  137.6670 C   0  0  0  0  0  3  0  0  0  0  0  0
  190.7470  173.7090  136.8700 C   0  0  0  0  0  3  0  0  0  0  0  0
  196.5710  173.5100  138.3710 C   0  0  0  0  0  3  0  0  0  0  0  0
  195.5740  172.0970  136.6760 C   0  0  0  0  0  3  0  0  0  0  0  0
  194.3970  172.8460  136.7440 C   0  0  0  0  0  3  0  0  0  0  0  0
  196.6690  172.4230  137.4920 C   0  0  0  0  0  0  0  0  0  0  0  0
  194.2970  173.9280  137.6240 C   0  0  0  0  0  0  0  0  0  0  0  0
  195.3920  174.2590  138.4390 C   0  0  0  0  0  3  0  0  0  0  0  0
  197.8580  171.6930  137.4510 O   0  0  0  0  0  0  0  0  0  0  0  0
  198.2160  170.8750  136.3450 C   0  0  0  0  0  1  0  0  0  0  0  0
  188.5270  178.0080  139.6370 C   0  0  0  0  0  2  0  0  0  0  0  0
  189.1520  177.1770  140.6600 N   0  0  0  0  0  2  0  0  0  0  0  0
  189.3200  178.0070  141.8410 C   0  0  0  0  0  2  0  0  0  0  0  0
  190.5550  177.5700  142.6060 C   0  0  0  0  0  2  0  0  0  0  0  0
  190.6380  178.3060  143.9090 C   0  0  0  0  0  0  0  0  0  0  0  0
  190.9380  179.4900  143.9030 O   0  0  0  0  0  0  0  0  0  0  0  0
  190.3840  177.6240  145.2290 C   0  0  1  0  0  3  0  0  0  0  0  0
  189.2080  176.8700  145.1490 O   0  0  0  0  0  0  0  0  0  0  0  0
  188.2450  177.6230  145.8220 C   0  0  0  0  0  1  0  0  0  0  0  0
  191.5430  176.7250  145.6610 C   0  0  0  0  0  2  0  0  0  0  0  0
  191.8470  176.9520  147.0030 O   0  0  0  0  0  0  0  0  0  0  0  0
  192.2980  175.7170  147.4710 C   0  0  0  0  0  1  0  0  0  0  0  0
  1  9  1  0  0  0  0
  2 11  1  0  0  0  0
  3  2  1  0  0  0  0
  3  5  1  0  0  0  0
  3 27  1  1  0  0  0
  5 13  1  6  0  0  0
  5 12  1  0  0  0  0
  7 14  1  0  0  0  0
  7  2  2  0  0  0  0
  8  4  1  0  0  0  0
  9 36  1  1  0  0  0
 10  1  1  0  0  0  0
 11  4  2  0  0  0  0
 11  6  1  0  0  0  0
 12  6  1  6  0  0  0
 12  9  1  0  0  0  0
 13 10  1  0  0  0  0
 14  8  2  0  0  0  0
 17  8  1  6  0  0  0
 17 16  1  0  0  0  0
 18 19  1  0  0  0  0
 19 16  2  0  0  0  0
 20 15  1  6  0  0  0
 21 15  1  1  0  0  0
 21 20  1  0  0  0  0
 21 17  1  0  0  0  0
 22 18  2  0  0  0  0
 22 20  1  0  0  0  0
 24 23  1  0  0  0  0
 24 22  1  0  0  0  0
 25 26  2  0  0  0  0
 27 25  2  0  0  0  0
 28 33  1  0  0  0  0
 29 30  2  0  0  0  0
 29 31  1  0  0  0  0
 30 32  1  0  0  0  0
 31 28  2  0  0  0  0
 32 26  1  0  0  0  0
 32 33  2  0  0  0  0
 34 31  1  0  0  0  0
 35 34  1  0  0  0  0
 36 37  1  0  0  0  0
 37 38  1  0  0  0  0
 38 39  1  0  0  0  0
 39 40  1  0  0  0  0
 40 42  1  0  0  0  0
 41 40  2  0  0  0  0
 42 45  1  6  0  0  0
 43 42  1  0  0  0  0
 43 44  1  0  0  0  0
 45 46  1  0  0  0  0
 46 47  1  0  0  0  0
M  END
>  <MODEL>
4

>  <REMARK>
 VINA RESULT:      -6.8      3.349      9.999
  Name = 
  14 active torsions:
  status: ('A' for Active; 'I' for Inactive)
    1  A    between atoms: C_6  and  C_17
    2  A    between atoms: C_6  and  O_19
    3  A    between atoms: O_8  and  C_24
    4  A    between atoms: C_11  and  N_23
    5  A    between atoms: C_11  and  C_41
    6  A    between atoms: C_12  and  C_27
    7  A    between atoms: C_13  and  C_44
    8  A    between atoms: O_14  and  C_17
    9  A    between atoms: C_17  and  C_30
   10  A    between atoms: C_22  and  N_23
   11  A    between atoms: C_22  and  C_34
   12  A    between atoms: C_25  and  C_43
   13  A    between atoms: C_30  and  C_41
   14  A    between atoms: O_35  and  C_46
                            x       y       z     vdW  Elec       q    Type
                         _______ _______ _______ _____ _____    ______ ____

>  <TORSDO>
F 14

$$$$
=
 OpenBabel10222421433D

 47 52  0  0  1  0  0  0  0  0999 V2000
  191.0660  175.4950  134.5400 C   0  0  0  0  0  2  0  0  0  0  0  0
  187.6810  177.1300  137.6520 C   0  0  0  0  0  0  0  0  0  0  0  0
  187.1480  176.8170  136.2740 C   0  0  1  0  0  3  0  0  0  0  0  0
  189.3450  176.8090  139.3920 C   0  0  0  0  0  3  0  0  0  0  0  0
  188.2200  176.2210  135.3490 C   0  0  2  0  0  3  0  0  0  0  0  0
  189.5540  175.6070  137.3080 O   0  0  0  0  0  0  0  0  0  0  0  0
  186.9980  178.0320  138.4760 C   0  0  0  0  0  3  0  0  0  0  0  0
  188.6690  177.7210  140.2100 C   0  0  0  0  0  0  0  0  0  0  0  0
  190.0840  174.5020  135.1790 C   0  0  2  0  0  3  0  0  0  0  0  0
  190.8980  176.9140  135.0650 C   0  0  0  0  0  2  0  0  0  0  0  0
  188.8560  176.5070  138.1190 C   0  0  0  0  0  0  0  0  0  0  0  0
  189.0100  175.1210  136.0800 C   0  0  2  0  0  3  0  0  0  0  0  0
  189.2480  177.5710  134.6360 S   0  0  0  0  0  0  0  0  0  0  0  0
  187.4860  178.3220  139.7530 C   0  0  0  0  0  3  0  0  0  0  0  0
  191.7820  177.3670  141.8280 C   0  0  0  0  0  2  0  0  0  0  0  0
  188.1250  177.8880  142.5940 N   0  0  0  0  0  0  0  0  0  0  0  0
  189.1930  177.9880  141.5850 C   0  0  1  0  0  3  0  0  0  0  0  0
  189.3780  177.0390  144.5540 N   0  0  0  0  0  0  0  0  0  0  0  0
  188.1890  177.4980  143.8510 C   0  0  0  0  0  3  0  0  0  0  0  0
  190.9700  177.9170  142.9740 C   0  0  1  0  0  3  0  0  0  0  0  0
  190.3080  177.0390  141.9290 C   0  0  2  0  0  3  0  0  0  0  0  0
  190.6320  177.1610  144.1980 C   0  0  0  0  0  0  0  0  0  0  0  0
  191.5820  176.6020  146.4060 C   0  0  0  0  0  1  0  0  0  0  0  0
  191.6610  176.6390  144.9860 O   0  0  0  0  0  0  0  0  0  0  0  0
  185.9230  174.7530  136.8370 C   0  0  0  0  0  0  0  0  0  0  0  0
  185.9380  173.5470  137.3450 C   0  0  0  0  0  3  0  0  0  0  0  0
  185.9160  175.9610  136.3320 C   0  0  0  0  0  3  0  0  0  0  0  0
  183.1750  171.0470  136.6670 C   0  0  0  0  0  3  0  0  0  0  0  0
  185.0460  170.5970  135.1970 C   0  0  0  0  0  3  0  0  0  0  0  0
  185.7470  171.6650  135.7630 C   0  0  0  0  0  3  0  0  0  0  0  0
  183.7530  170.2830  135.6450 C   0  0  0  0  0  0  0  0  0  0  0  0
  185.1690  172.4310  136.7800 C   0  0  0  0  0  0  0  0  0  0  0  0
  183.8770  172.1150  137.2320 C   0  0  0  0  0  3  0  0  0  0  0  0
  183.0250  169.2240  135.0980 O   0  0  0  0  0  0  0  0  0  0  0  0
  181.6570  169.3450  134.7320 C   0  0  0  0  0  1  0  0  0  0  0  0
  190.7990  173.3210  135.8310 C   0  0  0  0  0  2  0  0  0  0  0  0
  191.2400  172.3550  134.8310 N   0  0  0  0  0  2  0  0  0  0  0  0
  192.6930  172.3790  134.8260 C   0  0  0  0  0  2  0  0  0  0  0  0
  193.2100  172.6050  136.2350 C   0  0  0  0  0  2  0  0  0  0  0  0
  194.4720  173.4120  136.1950 C   0  0  0  0  0  0  0  0  0  0  0  0
  195.3870  173.0460  135.4720 O   0  0  0  0  0  0  0  0  0  0  0  0
  194.6560  174.6500  137.0350 C   0  0  1  0  0  3  0  0  0  0  0  0
  195.9060  174.6120  137.6610 O   0  0  0  0  0  0  0  0  0  0  0  0
  195.7030  173.8900  138.8380 C   0  0  0  0  0  1  0  0  0  0  0  0
  194.5260  175.9390  136.2220 C   0  0  0  0  0  2  0  0  0  0  0  0
  193.8600  176.9090  136.9700 O   0  0  0  0  0  0  0  0  0  0  0  0
  193.0770  176.1810  137.8660 C   0  0  0  0  0  1  0  0  0  0  0  0
  1 10  1  0  0  0  0
  1  9  1  0  0  0  0
  2 11  2  0  0  0  0
  2  7  1  0  0  0  0
  3 27  1  1  0  0  0
  3  2  1  0  0  0  0
  4  8  2  0  0  0  0
  5 13  1  1  0  0  0
  5 12  1  0  0  0  0
  5  3  1  0  0  0  0
  6 11  1  0  0  0  0
  7 14  2  0  0  0  0
  9 36  1  1  0  0  0
  9 12  1  0  0  0  0
 11  4  1  0  0  0  0
 12  6  1  1  0  0  0
 13 10  1  0  0  0  0
 14  8  1  0  0  0  0
 16 19  2  0  0  0  0
 17  8  1  6  0  0  0
 17 21  1  0  0  0  0
 17 16  1  0  0  0  0
 19 18  1  0  0  0  0
 20 15  1  6  0  0  0
 20 22  1  0  0  0  0
 21 15  1  6  0  0  0
 21 20  1  0  0  0  0
 22 18  2  0  0  0  0
 22 24  1  0  0  0  0
 24 23  1  0  0  0  0
 25 26  2  0  0  0  0
 27 25  2  0  0  0  0
 28 33  1  0  0  0  0
 29 31  1  0  0  0  0
 29 30  2  0  0  0  0
 30 32  1  0  0  0  0
 31 28  2  0  0  0  0
 32 33  2  0  0  0  0
 32 26  1  0  0  0  0
 34 31  1  0  0  0  0
 35 34  1  0  0  0  0
 37 36  1  0  0  0  0
 38 37  1  0  0  0  0
 38 39  1  0  0  0  0
 40 39  1  0  0  0  0
 40 42  1  0  0  0  0
 41 40  2  0  0  0  0
 42 45  1  6  0  0  0
 42 43  1  0  0  0  0
 43 44  1  0  0  0  0
 45 46  1  0  0  0  0
 46 47  1  0  0  0  0
M  END
>  <MODEL>
5

>  <REMARK>
 VINA RESULT:      -6.6      3.520      9.661
  Name = 
  14 active torsions:
  status: ('A' for Active; 'I' for Inactive)
    1  A    between atoms: C_6  and  C_17
    2  A    between atoms: C_6  and  O_19
    3  A    between atoms: O_8  and  C_24
    4  A    between atoms: C_11  and  N_23
    5  A    between atoms: C_11  and  C_41
    6  A    between atoms: C_12  and  C_27
    7  A    between atoms: C_13  and  C_44
    8  A    between atoms: O_14  and  C_17
    9  A    between atoms: C_17  and  C_30
   10  A    between atoms: C_22  and  N_23
   11  A    between atoms: C_22  and  C_34
   12  A    between atoms: C_25  and  C_43
   13  A    between atoms: C_30  and  C_41
   14  A    between atoms: O_35  and  C_46
                            x       y       z     vdW  Elec       q    Type
                         _______ _______ _______ _____ _____    ______ ____

>  <TORSDO>
F 14

$$$$
=
 OpenBabel10222421433D

 47 52  0  0  1  0  0  0  0  0999 V2000
  180.3270  179.6030  140.9470 C   0  0  0  0  0  2  0  0  0  0  0  0
  183.3250  177.1320  137.9950 C   0  0  0  0  0  0  0  0  0  0  0  0
  183.8250  178.5070  138.3640 C   0  0  1  0  0  3  0  0  0  0  0  0
  181.9480  175.1890  138.4740 C   0  0  0  0  0  3  0  0  0  0  0  0
  182.9020  179.2200  139.3650 C   0  0  2  0  0  3  0  0  0  0  0  0
  181.9390  177.0610  140.0000 O   0  0  0  0  0  0  0  0  0  0  0  0
  183.7820  176.5150  136.8250 C   0  0  0  0  0  3  0  0  0  0  0  0
  182.3960  174.5780  137.2980 C   0  0  0  0  0  0  0  0  0  0  0  0
  181.5920  178.9550  141.5260 C   0  0  2  0  0  3  0  0  0  0  0  0
  180.1240  179.2910  139.4700 C   0  0  0  0  0  2  0  0  0  0  0  0
  182.4100  176.4580  138.8300 C   0  0  0  0  0  0  0  0  0  0  0  0
  182.5090  178.2690  140.5070 C   0  0  2  0  0  3  0  0  0  0  0  0
  181.4870  179.9850  138.4700 S   0  0  0  0  0  0  0  0  0  0  0  0
  183.3250  175.2390  136.4800 C   0  0  0  0  0  3  0  0  0  0  0  0
  183.9300  171.4940  136.5460 C   0  0  0  0  0  2  0  0  0  0  0  0
  180.5890  173.2320  136.3330 N   0  0  0  0  0  0  0  0  0  0  0  0
  181.9170  173.2000  136.9700 C   0  0  1  0  0  3  0  0  0  0  0  0
  180.7230  171.2770  134.8190 N   0  0  0  0  0  0  0  0  0  0  0  0
  180.0690  172.4240  135.4320 C   0  0  0  0  0  3  0  0  0  0  0  0
  182.4840  171.0790  136.4510 C   0  0  1  0  0  3  0  0  0  0  0  0
  182.8930  172.4890  136.0750 C   0  0  2  0  0  3  0  0  0  0  0  0
  181.8140  170.6620  135.2020 C   0  0  0  0  0  0  0  0  0  0  0  0
  182.6950  168.3580  135.1060 C   0  0  0  0  0  1  0  0  0  0  0  0
  182.3230  169.5800  134.4790 O   0  0  0  0  0  0  0  0  0  0  0  0
  186.2600  178.3440  138.0180 C   0  0  0  0  0  0  0  0  0  0  0  0
  187.2660  178.2130  137.1890 C   0  0  0  0  0  3  0  0  0  0  0  0
  185.2500  178.4770  138.8380 C   0  0  0  0  0  3  0  0  0  0  0  0
  190.3790  176.8890  138.8940 C   0  0  0  0  0  3  0  0  0  0  0  0
  189.9340  175.5850  136.9030 C   0  0  0  0  0  3  0  0  0  0  0  0
  188.8090  176.3690  136.6400 C   0  0  0  0  0  3  0  0  0  0  0  0
  190.7260  175.8390  138.0340 C   0  0  0  0  0  0  0  0  0  0  0  0
  188.4590  177.4150  137.5000 C   0  0  0  0  0  0  0  0  0  0  0  0
  189.2520  177.6740  138.6300 C   0  0  0  0  0  3  0  0  0  0  0  0
  191.8550  175.0720  138.3270 O   0  0  0  0  0  0  0  0  0  0  0  0
  192.5180  174.2830  137.3490 C   0  0  0  0  0  1  0  0  0  0  0  0
  181.2890  178.0780  142.7390 C   0  0  0  0  0  2  0  0  0  0  0  0
  181.5330  178.7970  143.9830 N   0  0  0  0  0  2  0  0  0  0  0  0
  182.8350  179.4320  143.8620 C   0  0  0  0  0  2  0  0  0  0  0  0
  183.7870  178.8570  144.8930 C   0  0  0  0  0  2  0  0  0  0  0  0
  185.0430  178.3860  144.2250 C   0  0  0  0  0  0  0  0  0  0  0  0
  185.0450  178.2210  143.0150 O   0  0  0  0  0  0  0  0  0  0  0  0
  186.2990  178.0900  145.0040 C   0  0  1  0  0  3  0  0  0  0  0  0
  185.9630  177.6650  146.2940 O   0  0  0  0  0  0  0  0  0  0  0  0
  187.0470  178.0340  147.0930 C   0  0  0  0  0  1  0  0  0  0  0  0
  187.1780  177.0360  144.3270 C   0  0  0  0  0  2  0  0  0  0  0  0
  188.2280  177.6540  143.6500 O   0  0  0  0  0  0  0  0  0  0  0  0
  188.6510  176.7020  142.7220 C   0  0  0  0  0  1  0  0  0  0  0  0
  1  9  1  0  0  0  0
  2  3  1  0  0  0  0
  2 11  1  0  0  0  0
  3 27  1  1  0  0  0
  3  5  1  0  0  0  0
  4 11  2  0  0  0  0
  5 13  1  6  0  0  0
  5 12  1  0  0  0  0
  7  2  2  0  0  0  0
  8  4  1  0  0  0  0
  9 36  1  1  0  0  0
 10  1  1  0  0  0  0
 11  6  1  0  0  0  0
 12  6  1  6  0  0  0
 12  9  1  0  0  0  0
 13 10  1  0  0  0  0
 14  7  1  0  0  0  0
 14  8  2  0  0  0  0
 16 17  1  0  0  0  0
 17  8  1  6  0  0  0
 18 22  2  0  0  0  0
 18 19  1  0  0  0  0
 19 16  2  0  0  0  0
 20 15  1  6  0  0  0
 21 20  1  0  0  0  0
 21 15  1  1  0  0  0
 21 17  1  0  0  0  0
 22 20  1  0  0  0  0
 24 23  1  0  0  0  0
 24 22  1  0  0  0  0
 25 27  2  0  0  0  0
 26 32  1  0  0  0  0
 26 25  2  0  0  0  0
 29 31  1  0  0  0  0
 30 29  2  0  0  0  0
 30 32  1  0  0  0  0
 31 34  1  0  0  0  0
 31 28  2  0  0  0  0
 32 33  2  0  0  0  0
 33 28  1  0  0  0  0
 35 34  1  0  0  0  0
 36 37  1  0  0  0  0
 38 37  1  0  0  0  0
 38 39  1  0  0  0  0
 40 39  1  0  0  0  0
 40 42  1  0  0  0  0
 41 40  2  0  0  0  0
 42 45  1  6  0  0  0
 42 43  1  0  0  0  0
 43 44  1  0  0  0  0
 46 45  1  0  0  0  0
 47 46  1  0  0  0  0
M  END
>  <MODEL>
6

>  <REMARK>
 VINA RESULT:      -6.5      4.213      9.697
  Name = 
  14 active torsions:
  status: ('A' for Active; 'I' for Inactive)
    1  A    between atoms: C_6  and  C_17
    2  A    between atoms: C_6  and  O_19
    3  A    between atoms: O_8  and  C_24
    4  A    between atoms: C_11  and  N_23
    5  A    between atoms: C_11  and  C_41
    6  A    between atoms: C_12  and  C_27
    7  A    between atoms: C_13  and  C_44
    8  A    between atoms: O_14  and  C_17
    9  A    between atoms: C_17  and  C_30
   10  A    between atoms: C_22  and  N_23
   11  A    between atoms: C_22  and  C_34
   12  A    between atoms: C_25  and  C_43
   13  A    between atoms: C_30  and  C_41
   14  A    between atoms: O_35  and  C_46
                            x       y       z     vdW  Elec       q    Type
                         _______ _______ _______ _____ _____    ______ ____

>  <TORSDO>
F 14

$$$$
=
 OpenBabel10222421433D

 47 52  0  0  1  0  0  0  0  0999 V2000
  191.3510  175.1530  134.5320 C   0  0  0  0  0  2  0  0  0  0  0  0
  188.6110  176.8100  138.2140 C   0  0  0  0  0  0  0  0  0  0  0  0
  187.8530  176.6240  136.9220 C   0  0  1  0  0  3  0  0  0  0  0  0
  190.4880  176.2660  139.6550 C   0  0  0  0  0  3  0  0  0  0  0  0
  188.7240  176.0170  135.8110 C   0  0  2  0  0  3  0  0  0  0  0  0
  190.2880  175.1890  137.5030 O   0  0  0  0  0  0  0  0  0  0  0  0
  188.1320  177.7010  139.1810 C   0  0  0  0  0  3  0  0  0  0  0  0
  190.0160  177.1670  140.6160 C   0  0  0  0  0  0  0  0  0  0  0  0
  190.4030  174.1900  135.2610 C   0  0  2  0  0  3  0  0  0  0  0  0
  191.3730  176.5440  135.1520 C   0  0  0  0  0  2  0  0  0  0  0  0
  189.7910  176.0800  138.4590 C   0  0  0  0  0  0  0  0  0  0  0  0
  189.5280  174.8210  136.3500 C   0  0  2  0  0  3  0  0  0  0  0  0
  189.7330  177.3370  135.0190 S   0  0  0  0  0  0  0  0  0  0  0  0
  188.8280  177.8750  140.3810 C   0  0  0  0  0  3  0  0  0  0  0  0
  190.7350  175.0600  143.3500 C   0  0  0  0  0  2  0  0  0  0  0  0
  190.7570  178.7040  142.3760 N   0  0  0  0  0  0  0  0  0  0  0  0
  190.7610  177.3080  141.9050 C   0  0  1  0  0  3  0  0  0  0  0  0
  190.7620  178.3940  144.8320 N   0  0  0  0  0  0  0  0  0  0  0  0
  190.7660  179.1770  143.6040 C   0  0  0  0  0  3  0  0  0  0  0  0
  191.4290  176.3140  143.8170 C   0  0  1  0  0  3  0  0  0  0  0  0
  190.1800  176.4130  142.9640 C   0  0  2  0  0  3  0  0  0  0  0  0
  191.0090  177.1170  144.9840 C   0  0  0  0  0  0  0  0  0  0  0  0
  192.0300  175.7880  146.7960 C   0  0  0  0  0  1  0  0  0  0  0  0
  190.9390  176.5130  146.2420 O   0  0  0  0  0  0  0  0  0  0  0  0
  186.5530  174.5440  137.1670 C   0  0  0  0  0  0  0  0  0  0  0  0
  186.5350  173.2350  137.2090 C   0  0  0  0  0  3  0  0  0  0  0  0
  186.5810  175.8510  137.1240 C   0  0  0  0  0  3  0  0  0  0  0  0
  184.5450  171.0610  134.8300 C   0  0  0  0  0  3  0  0  0  0  0  0
  183.2230  171.5090  136.8080 C   0  0  0  0  0  3  0  0  0  0  0  0
  184.2690  172.2700  137.3350 C   0  0  0  0  0  3  0  0  0  0  0  0
  183.3560  170.8970  135.5520 C   0  0  0  0  0  0  0  0  0  0  0  0
  185.4580  172.4310  136.6180 C   0  0  0  0  0  0  0  0  0  0  0  0
  185.5910  171.8230  135.3580 C   0  0  0  0  0  3  0  0  0  0  0  0
  182.3300  170.1280  134.9980 O   0  0  0  0  0  0  0  0  0  0  0  0
  182.2040  168.7330  135.2410 C   0  0  0  0  0  1  0  0  0  0  0  0
  191.1140  172.9230  135.7310 C   0  0  0  0  0  2  0  0  0  0  0  0
  192.5450  172.9900  135.4560 N   0  0  0  0  0  2  0  0  0  0  0  0
  193.2170  173.1820  136.7310 C   0  0  0  0  0  2  0  0  0  0  0  0
  194.2730  174.2640  136.5990 C   0  0  0  0  0  2  0  0  0  0  0  0
  194.7730  174.6600  137.9550 C   0  0  0  0  0  0  0  0  0  0  0  0
  194.2890  175.6390  138.5030 O   0  0  0  0  0  0  0  0  0  0  0  0
  195.8700  173.8990  138.6550 C   0  0  1  0  0  3  0  0  0  0  0  0
  195.6760  172.5250  138.4770 O   0  0  0  0  0  0  0  0  0  0  0  0
  196.7720  172.0960  137.7270 C   0  0  0  0  0  1  0  0  0  0  0  0
  197.2640  174.2890  138.1630 C   0  0  0  0  0  2  0  0  0  0  0  0
  197.7320  175.3900  138.8810 O   0  0  0  0  0  0  0  0  0  0  0  0
  199.0290  175.0360  139.2540 C   0  0  0  0  0  1  0  0  0  0  0  0
  1 10  1  0  0  0  0
  1  9  1  0  0  0  0
  2 11  2  0  0  0  0
  2  7  1  0  0  0  0
  3 27  1  1  0  0  0
  3  2  1  0  0  0  0
  4  8  2  0  0  0  0
  5 13  1  1  0  0  0
  5 12  1  0  0  0  0
  5  3  1  0  0  0  0
  6 11  1  0  0  0  0
  7 14  2  0  0  0  0
  9 36  1  1  0  0  0
  9 12  1  0  0  0  0
 11  4  1  0  0  0  0
 12  6  1  1  0  0  0
 13 10  1  0  0  0  0
 14  8  1  0  0  0  0
 16 19  2  0  0  0  0
 17  8  1  6  0  0  0
 17 16  1  0  0  0  0
 17 21  1  0  0  0  0
 18 22  2  0  0  0  0
 19 18  1  0  0  0  0
 20 15  1  1  0  0  0
 20 22  1  0  0  0  0
 21 15  1  6  0  0  0
 21 20  1  0  0  0  0
 22 24  1  0  0  0  0
 24 23  1  0  0  0  0
 25 26  2  0  0  0  0
 27 25  2  0  0  0  0
 28 33  2  0  0  0  0
 28 31  1  0  0  0  0
 29 30  1  0  0  0  0
 31 29  2  0  0  0  0
 32 26  1  0  0  0  0
 32 30  2  0  0  0  0
 33 32  1  0  0  0  0
 34 35  1  0  0  0  0
 34 31  1  0  0  0  0
 37 36  1  0  0  0  0
 37 38  1  0  0  0  0
 39 38  1  0  0  0  0
 39 40  1  0  0  0  0
 40 41  2  0  0  0  0
 40 42  1  0  0  0  0
 42 45  1  6  0  0  0
 43 42  1  0  0  0  0
 44 43  1  0  0  0  0
 45 46  1  0  0  0  0
 46 47  1  0  0  0  0
M  END
>  <MODEL>
7

>  <REMARK>
 VINA RESULT:      -6.2      3.623      9.922
  Name = 
  14 active torsions:
  status: ('A' for Active; 'I' for Inactive)
    1  A    between atoms: C_6  and  C_17
    2  A    between atoms: C_6  and  O_19
    3  A    between atoms: O_8  and  C_24
    4  A    between atoms: C_11  and  N_23
    5  A    between atoms: C_11  and  C_41
    6  A    between atoms: C_12  and  C_27
    7  A    between atoms: C_13  and  C_44
    8  A    between atoms: O_14  and  C_17
    9  A    between atoms: C_17  and  C_30
   10  A    between atoms: C_22  and  N_23
   11  A    between atoms: C_22  and  C_34
   12  A    between atoms: C_25  and  C_43
   13  A    between atoms: C_30  and  C_41
   14  A    between atoms: O_35  and  C_46
                            x       y       z     vdW  Elec       q    Type
                         _______ _______ _______ _____ _____    ______ ____

>  <TORSDO>
F 14

$$$$
=
 OpenBabel10222421433D

 47 52  0  0  1  0  0  0  0  0999 V2000
  187.3130  174.7180  135.1650 C   0  0  0  0  0  2  0  0  0  0  0  0
  190.2900  176.0750  138.7860 C   0  0  0  0  0  0  0  0  0  0  0  0
  190.9930  175.3910  137.6380 C   0  0  1  0  0  3  0  0  0  0  0  0
  188.4090  177.3460  139.6510 C   0  0  0  0  0  3  0  0  0  0  0  0
  190.0410  175.0600  136.4780 C   0  0  2  0  0  3  0  0  0  0  0  0
  188.4540  176.7240  137.3180 O   0  0  0  0  0  0  0  0  0  0  0  0
  190.8740  176.0800  140.0580 C   0  0  0  0  0  3  0  0  0  0  0  0
  188.9870  177.3390  140.9250 C   0  0  0  0  0  0  0  0  0  0  0  0
  188.1880  175.9680  134.9950 C   0  0  2  0  0  3  0  0  0  0  0  0
  187.4340  174.0950  136.5490 C   0  0  0  0  0  2  0  0  0  0  0  0
  189.0540  176.7230  138.5800 C   0  0  0  0  0  0  0  0  0  0  0  0
  189.1460  176.2680  136.1540 C   0  0  2  0  0  3  0  0  0  0  0  0
  189.1360  173.4990  136.8430 S   0  0  0  0  0  0  0  0  0  0  0  0
  190.2280  176.7150  141.1230 C   0  0  0  0  0  3  0  0  0  0  0  0
  188.7350  176.9170  144.4160 C   0  0  0  0  0  2  0  0  0  0  0  0
  187.0810  178.7430  141.5600 N   0  0  0  0  0  0  0  0  0  0  0  0
  188.2920  178.0550  142.0390 C   0  0  1  0  0  3  0  0  0  0  0  0
  185.6110  178.5910  143.5470 N   0  0  0  0  0  0  0  0  0  0  0  0
  185.9470  178.9840  142.1860 C   0  0  0  0  0  3  0  0  0  0  0  0
  187.8700  178.1410  144.2540 C   0  0  1  0  0  3  0  0  0  0  0  0
  187.9330  177.1050  143.1480 C   0  0  2  0  0  3  0  0  0  0  0  0
  186.4120  178.1730  144.4950 C   0  0  0  0  0  0  0  0  0  0  0  0
  185.5360  178.7790  146.7210 C   0  0  0  0  0  1  0  0  0  0  0  0
  185.9170  177.8120  145.7500 O   0  0  0  0  0  0  0  0  0  0  0  0
  192.8780  175.8310  136.1120 C   0  0  0  0  0  0  0  0  0  0  0  0
  193.5570  175.4900  135.0450 C   0  0  0  0  0  3  0  0  0  0  0  0
  192.1940  176.1660  137.1750 C   0  0  0  0  0  3  0  0  0  0  0  0
  197.0640  176.8660  134.6600 C   0  0  0  0  0  3  0  0  0  0  0  0
  197.1740  174.4790  135.0510 C   0  0  0  0  0  3  0  0  0  0  0  0
  195.7800  174.4260  135.1200 C   0  0  0  0  0  3  0  0  0  0  0  0
  197.8260  175.7020  134.8230 C   0  0  0  0  0  0  0  0  0  0  0  0
  195.0200  175.5880  134.9620 C   0  0  0  0  0  0  0  0  0  0  0  0
  195.6690  176.8120  134.7290 C   0  0  0  0  0  3  0  0  0  0  0  0
  199.2170  175.7900  134.7510 O   0  0  0  0  0  0  0  0  0  0  0  0
  200.0720  174.7180  135.1280 C   0  0  0  0  0  1  0  0  0  0  0  0
  187.3770  177.1880  134.5640 C   0  0  0  0  0  2  0  0  0  0  0  0
  185.9460  176.9420  134.6970 N   0  0  0  0  0  2  0  0  0  0  0  0
  185.4540  177.8290  135.7380 C   0  0  0  0  0  2  0  0  0  0  0  0
  185.2860  177.0580  137.0340 C   0  0  0  0  0  2  0  0  0  0  0  0
  184.7290  177.9560  138.0970 C   0  0  0  0  0  0  0  0  0  0  0  0
  185.4190  178.8720  138.5200 O   0  0  0  0  0  0  0  0  0  0  0  0
  183.3520  177.7530  138.6730 C   0  0  1  0  0  3  0  0  0  0  0  0
  183.4260  177.7230  140.0700 O   0  0  0  0  0  0  0  0  0  0  0  0
  182.2640  178.3570  140.5110 C   0  0  0  0  0  1  0  0  0  0  0  0
  182.3630  178.8340  138.2340 C   0  0  0  0  0  2  0  0  0  0  0  0
  181.8270  178.5120  136.9880 O   0  0  0  0  0  0  0  0  0  0  0  0
  181.1040  179.6460  136.6170 C   0  0  0  0  0  1  0  0  0  0  0  0
  1 10  1  0  0  0  0
  2  7  1  0  0  0  0
  3 27  1  6  0  0  0
  3  2  1  0  0  0  0
  4  8  2  0  0  0  0
  5 13  1  1  0  0  0
  5  3  1  0  0  0  0
  6 11  1  0  0  0  0
  7 14  2  0  0  0  0
  8 14  1  0  0  0  0
  9 36  1  1  0  0  0
  9  1  1  0  0  0  0
  9 12  1  0  0  0  0
 10 13  1  0  0  0  0
 11  2  2  0  0  0  0
 11  4  1  0  0  0  0
 12  5  1  0  0  0  0
 12  6  1  1  0  0  0
 16 17  1  0  0  0  0
 16 19  2  0  0  0  0
 17  8  1  6  0  0  0
 17 21  1  0  0  0  0
 18 22  2  0  0  0  0
 19 18  1  0  0  0  0
 20 15  1  1  0  0  0
 20 22  1  0  0  0  0
 21 20  1  0  0  0  0
 21 15  1  1  0  0  0
 22 24  1  0  0  0  0
 24 23  1  0  0  0  0
 25 27  2  0  0  0  0
 26 25  2  0  0  0  0
 28 33  2  0  0  0  0
 28 31  1  0  0  0  0
 29 30  1  0  0  0  0
 31 29  2  0  0  0  0
 32 26  1  0  0  0  0
 32 30  2  0  0  0  0
 33 32  1  0  0  0  0
 34 31  1  0  0  0  0
 34 35  1  0  0  0  0
 36 37  1  0  0  0  0
 37 38  1  0  0  0  0
 38 39  1  0  0  0  0
 39 40  1  0  0  0  0
 40 41  2  0  0  0  0
 40 42  1  0  0  0  0
 42 45  1  1  0  0  0
 42 43  1  0  0  0  0
 43 44  1  0  0  0  0
 46 45  1  0  0  0  0
 47 46  1  0  0  0  0
M  END
>  <MODEL>
8

>  <REMARK>
 VINA RESULT:      -6.2      3.106      9.101
  Name = 
  14 active torsions:
  status: ('A' for Active; 'I' for Inactive)
    1  A    between atoms: C_6  and  C_17
    2  A    between atoms: C_6  and  O_19
    3  A    between atoms: O_8  and  C_24
    4  A    between atoms: C_11  and  N_23
    5  A    between atoms: C_11  and  C_41
    6  A    between atoms: C_12  and  C_27
    7  A    between atoms: C_13  and  C_44
    8  A    between atoms: O_14  and  C_17
    9  A    between atoms: C_17  and  C_30
   10  A    between atoms: C_22  and  N_23
   11  A    between atoms: C_22  and  C_34
   12  A    between atoms: C_25  and  C_43
   13  A    between atoms: C_30  and  C_41
   14  A    between atoms: O_35  and  C_46
                            x       y       z     vdW  Elec       q    Type
                         _______ _______ _______ _____ _____    ______ ____

>  <TORSDO>
F 14

$$$$
=
 OpenBabel10222421433D

 47 52  0  0  1  0  0  0  0  0999 V2000
  187.3570  177.1540  135.4620 C   0  0  0  0  0  2  0  0  0  0  0  0
  191.2370  176.5720  138.3630 C   0  0  0  0  0  0  0  0  0  0  0  0
  190.0660  177.2480  139.0340 C   0  0  1  0  0  3  0  0  0  0  0  0
  192.1250  175.1200  136.6290 C   0  0  0  0  0  3  0  0  0  0  0  0
  188.8330  177.3330  138.1210 C   0  0  2  0  0  3  0  0  0  0  0  0
  189.7480  175.5340  136.7340 O   0  0  0  0  0  0  0  0  0  0  0  0
  192.5320  176.7640  138.8590 C   0  0  0  0  0  3  0  0  0  0  0  0
  193.4200  175.3240  137.1170 C   0  0  0  0  0  0  0  0  0  0  0  0
  187.3530  176.0360  136.5140 C   0  0  2  0  0  3  0  0  0  0  0  0
  188.6780  177.9080  135.4050 C   0  0  0  0  0  2  0  0  0  0  0  0
  191.0330  175.7350  137.2470 C   0  0  0  0  0  0  0  0  0  0  0  0
  188.5820  175.9830  137.4280 C   0  0  2  0  0  3  0  0  0  0  0  0
  189.0000  178.7710  136.9830 S   0  0  0  0  0  0  0  0  0  0  0  0
  193.6190  176.1380  138.2430 C   0  0  0  0  0  3  0  0  0  0  0  0
  194.0190  172.0440  135.9720 C   0  0  0  0  0  2  0  0  0  0  0  0
  195.8510  175.2310  136.8170 N   0  0  0  0  0  0  0  0  0  0  0  0
  194.5610  174.6150  136.4610 C   0  0  1  0  0  3  0  0  0  0  0  0
  197.3570  173.2660  136.7970 N   0  0  0  0  0  0  0  0  0  0  0  0
  197.0380  174.6780  136.9540 C   0  0  0  0  0  3  0  0  0  0  0  0
  195.3420  172.6740  135.6170 C   0  0  1  0  0  3  0  0  0  0  0  0
  194.5740  173.1570  136.8310 C   0  0  2  0  0  3  0  0  0  0  0  0
  196.6310  172.3230  136.2490 C   0  0  0  0  0  0  0  0  0  0  0  0
  197.4970  170.3000  137.3650 C   0  0  0  0  0  1  0  0  0  0  0  0
  197.0820  171.0020  136.2000 O   0  0  0  0  0  0  0  0  0  0  0  0
  189.0380  177.2360  141.2740 C   0  0  0  0  0  0  0  0  0  0  0  0
  188.3320  177.8590  142.1840 C   0  0  0  0  0  3  0  0  0  0  0  0
  189.7420  176.6200  140.3590 C   0  0  0  0  0  3  0  0  0  0  0  0
  190.1590  177.7280  145.4990 C   0  0  0  0  0  3  0  0  0  0  0  0
  187.7770  177.5290  145.8840 C   0  0  0  0  0  3  0  0  0  0  0  0
  187.5470  177.6180  144.5090 C   0  0  0  0  0  3  0  0  0  0  0  0
  189.0860  177.5860  146.3880 C   0  0  0  0  0  0  0  0  0  0  0  0
  188.6170  177.7640  143.6220 C   0  0  0  0  0  0  0  0  0  0  0  0
  189.9280  177.8180  144.1230 C   0  0  0  0  0  3  0  0  0  0  0  0
  189.3500  177.5020  147.7570 O   0  0  0  0  0  0  0  0  0  0  0  0
  188.7950  178.4100  148.7000 C   0  0  0  0  0  1  0  0  0  0  0  0
  187.0000  174.6780  135.9120 C   0  0  0  0  0  2  0  0  0  0  0  0
  186.5500  174.8140  134.5320 N   0  0  0  0  0  2  0  0  0  0  0  0
  185.1210  174.5490  134.5190 C   0  0  0  0  0  2  0  0  0  0  0  0
  184.8750  173.0530  134.4560 C   0  0  0  0  0  2  0  0  0  0  0  0
  183.5290  172.7300  135.0310 C   0  0  0  0  0  0  0  0  0  0  0  0
  182.5330  172.9120  134.3470 O   0  0  0  0  0  0  0  0  0  0  0  0
  183.3650  172.2080  136.4350 C   0  0  1  0  0  3  0  0  0  0  0  0
  182.2180  172.7630  137.0120 O   0  0  0  0  0  0  0  0  0  0  0  0
  182.5340  174.1040  137.2360 C   0  0  0  0  0  1  0  0  0  0  0  0
  183.2830  170.6820  136.4910 C   0  0  0  0  0  2  0  0  0  0  0  0
  183.5510  170.1430  135.2330 O   0  0  0  0  0  0  0  0  0  0  0  0
  183.5150  168.7630  135.4300 C   0  0  0  0  0  1  0  0  0  0  0  0
  1  9  1  0  0  0  0
  2  7  1  0  0  0  0
  2  3  1  0  0  0  0
  3 27  1  1  0  0  0
  4  8  2  0  0  0  0
  4 11  1  0  0  0  0
  5 13  1  6  0  0  0
  5  3  1  0  0  0  0
  6 11  1  0  0  0  0
  8 14  1  0  0  0  0
  9 36  1  6  0  0  0
  9 12  1  0  0  0  0
 10  1  1  0  0  0  0
 10 13  1  0  0  0  0
 11  2  2  0  0  0  0
 12  6  1  6  0  0  0
 12  5  1  0  0  0  0
 14  7  2  0  0  0  0
 16 19  2  0  0  0  0
 17 16  1  0  0  0  0
 17 21  1  0  0  0  0
 17  8  1  1  0  0  0
 18 19  1  0  0  0  0
 20 15  1  1  0  0  0
 20 22  1  0  0  0  0
 20 21  1  0  0  0  0
 21 15  1  6  0  0  0
 22 18  2  0  0  0  0
 24 22  1  0  0  0  0
 24 23  1  0  0  0  0
 25 26  2  0  0  0  0
 26 32  1  0  0  0  0
 27 25  2  0  0  0  0
 28 31  1  0  0  0  0
 29 31  2  0  0  0  0
 30 29  1  0  0  0  0
 31 34  1  0  0  0  0
 32 33  1  0  0  0  0
 32 30  2  0  0  0  0
 33 28  2  0  0  0  0
 34 35  1  0  0  0  0
 37 36  1  0  0  0  0
 38 37  1  0  0  0  0
 39 38  1  0  0  0  0
 39 40  1  0  0  0  0
 40 42  1  0  0  0  0
 41 40  2  0  0  0  0
 42 45  1  6  0  0  0
 42 43  1  0  0  0  0
 43 44  1  0  0  0  0
 46 47  1  0  0  0  0
 46 45  1  0  0  0  0
M  END
>  <MODEL>
9

>  <REMARK>
 VINA RESULT:      -6.2      2.424      3.512
  Name = 
  14 active torsions:
  status: ('A' for Active; 'I' for Inactive)
    1  A    between atoms: C_6  and  C_17
    2  A    between atoms: C_6  and  O_19
    3  A    between atoms: O_8  and  C_24
    4  A    between atoms: C_11  and  N_23
    5  A    between atoms: C_11  and  C_41
    6  A    between atoms: C_12  and  C_27
    7  A    between atoms: C_13  and  C_44
    8  A    between atoms: O_14  and  C_17
    9  A    between atoms: C_17  and  C_30
   10  A    between atoms: C_22  and  N_23
   11  A    between atoms: C_22  and  C_34
   12  A    between atoms: C_25  and  C_43
   13  A    between atoms: C_30  and  C_41
   14  A    between atoms: O_35  and  C_46
                            x       y       z     vdW  Elec       q    Type
                         _______ _______ _______ _____ _____    ______ ____

>  <TORSDO>
F 14

$$$$
