=
 OpenBabel10232410213D

 29 32  0  0  1  0  0  0  0  0999 V2000
  185.5580  178.2810  144.5010 C   0  0  0  0  0  0  0  0  0  0  0  0
  190.0590  177.0190  145.8170 C   0  0  0  0  0  0  0  0  0  0  0  0
  189.2120  176.6640  142.2720 C   0  0  0  0  0  3  0  0  0  0  0  0
  190.9440  177.2310  143.8520 C   0  0  0  0  0  0  0  0  0  0  0  0
  191.1710  177.3640  145.2450 N   0  0  0  0  0  0  0  0  0  0  0  0
  191.4330  177.3330  141.5060 C   0  0  0  0  0  0  0  0  0  0  0  0
  186.3620  178.6030  146.7340 N   0  0  0  0  0  0  0  0  0  0  0  0
  188.9580  176.6020  144.8710 C   0  0  1  0  0  3  0  0  0  0  0  0
  187.7360  177.4420  145.1460 C   0  0  0  0  0  0  0  0  0  0  0  0
  190.1160  176.9140  141.2270 C   0  0  0  0  0  3  0  0  0  0  0  0
  189.7660  177.3850  147.1660 N   0  0  0  0  0  0  0  0  0  0  0  0
  185.3910  178.7850  145.7990 C   0  0  0  0  0  3  0  0  0  0  0  0
  191.8600  177.4940  142.8350 C   0  0  0  0  0  3  0  0  0  0  0  0
  192.3760  177.5980  140.3890 C   0  0  0  0  0  1  0  0  0  0  0  0
  188.2960  178.1720  148.9020 C   0  0  0  0  0  1  0  0  0  0  0  0
  186.7310  177.5970  144.1850 C   0  0  0  0  0  3  0  0  0  0  0  0
  187.5180  177.9440  146.4490 C   0  0  0  0  0  0  0  0  0  0  0  0
  188.5690  177.7850  147.4900 C   0  0  0  0  0  0  0  0  0  0  0  0
  189.6520  176.8590  143.5800 C   0  0  0  0  0  0  0  0  0  0  0  0
  183.2230  179.0120  144.0590 C   0  0  0  0  0  1  0  0  0  0  0  0
  184.5030  178.4660  143.4520 C   0  0  1  0  0  3  0  0  0  0  0  0
  184.9860  179.3850  142.3360 C   0  0  0  0  0  2  0  0  0  0  0  0
  185.0520  178.6350  141.0170 C   0  0  0  0  0  2  0  0  0  0  0  0
  186.4850  178.5930  140.5180 C   0  0  0  0  0  2  0  0  0  0  0  0
  186.5140  178.3730  139.0140 C   0  0  0  0  0  2  0  0  0  0  0  0
  188.8310  179.5630  137.8240 O   0  0  0  0  0  0  0  0  0  0  0  0
  187.7280  177.6660  138.6280 N   0  0  0  0  0  2  0  0  0  0  0  0
  189.9820  177.5580  137.6360 N   0  0  0  0  0  1  0  0  0  0  0  0
  188.8450  178.3190  138.0220 C   0  0  0  0  0  0  0  0  0  0  0  0
  1 12  1  0  0  0  0
  2 11  1  0  0  0  0
  3 19  1  0  0  0  0
  4  5  1  0  0  0  0
  5  2  2  0  0  0  0
  6 13  2  0  0  0  0
  8 19  1  6  0  0  0
  8  9  1  0  0  0  0
  8  2  1  0  0  0  0
  9 17  2  0  0  0  0
 10  6  1  0  0  0  0
 10  3  2  0  0  0  0
 11 18  2  0  0  0  0
 12  7  2  0  0  0  0
 13  4  1  0  0  0  0
 14  6  1  0  0  0  0
 16  1  2  0  0  0  0
 16  9  1  0  0  0  0
 17  7  1  0  0  0  0
 17 18  1  0  0  0  0
 18 15  1  0  0  0  0
 19  4  2  0  0  0  0
 21 20  1  1  0  0  0
 21  1  1  0  0  0  0
 22 21  1  0  0  0  0
 23 22  1  0  0  0  0
 24 23  1  0  0  0  0
 25 24  1  0  0  0  0
 26 29  2  0  0  0  0
 27 25  1  0  0  0  0
 28 29  1  0  0  0  0
 29 27  1  0  0  0  0
M  END
>  <MODEL>
1

>  <REMARK>
 VINA RESULT:      -9.4      0.000      0.000
  Name = 
  6 active torsions:
  status: ('A' for Active; 'I' for Inactive)
    1  A    between atoms: C_1  and  C_27
    2  A    between atoms: C_17  and  C_19
    3  A    between atoms: C_17  and  C_29
    4  A    between atoms: C_19  and  C_27
    5  A    between atoms: N_21  and  C_26
    6  A    between atoms: C_26  and  C_29
                            x       y       z     vdW  Elec       q    Type
                         _______ _______ _______ _____ _____    ______ ____

>  <TORSDO>
F 6

$$$$
=
 OpenBabel10232410213D

 29 32  0  0  1  0  0  0  0  0999 V2000
  187.3870  177.9910  146.5000 C   0  0  0  0  0  0  0  0  0  0  0  0
  191.0560  176.2600  143.8320 C   0  0  0  0  0  0  0  0  0  0  0  0
  188.0190  177.2340  142.0320 C   0  0  0  0  0  3  0  0  0  0  0  0
  190.4300  177.1580  141.9630 C   0  0  0  0  0  0  0  0  0  0  0  0
  191.5470  176.7700  142.7440 N   0  0  0  0  0  0  0  0  0  0  0  0
  189.2440  178.0980  140.1020 C   0  0  0  0  0  0  0  0  0  0  0  0
  189.5150  177.4650  147.4640 N   0  0  0  0  0  0  0  0  0  0  0  0
  189.5480  176.2350  143.9000 C   0  0  1  0  0  3  0  0  0  0  0  0
  189.1060  176.9380  145.1580 C   0  0  0  0  0  0  0  0  0  0  0  0
  188.0260  177.8320  140.7610 C   0  0  0  0  0  3  0  0  0  0  0  0
  191.8460  176.1150  145.0130 N   0  0  0  0  0  0  0  0  0  0  0  0
  188.2670  177.9910  147.5900 C   0  0  0  0  0  3  0  0  0  0  0  0
  190.4670  177.7570  140.7060 C   0  0  0  0  0  3  0  0  0  0  0  0
  189.2340  178.7350  138.7600 C   0  0  0  0  0  1  0  0  0  0  0  0
  192.1840  176.2410  147.3930 C   0  0  0  0  0  1  0  0  0  0  0  0
  187.8100  177.4490  145.2860 C   0  0  0  0  0  3  0  0  0  0  0  0
  189.9540  176.9350  146.2890 C   0  0  0  0  0  0  0  0  0  0  0  0
  191.3340  176.3900  146.1800 C   0  0  0  0  0  0  0  0  0  0  0  0
  189.2470  176.9330  142.6200 C   0  0  0  0  0  0  0  0  0  0  0  0
  185.9680  179.6970  147.6230 C   0  0  0  0  0  1  0  0  0  0  0  0
  186.0050  178.5640  146.6130 C   0  0  1  0  0  3  0  0  0  0  0  0
  185.4940  179.0500  145.2620 C   0  0  0  0  0  2  0  0  0  0  0  0
  183.9880  178.8770  145.1660 C   0  0  0  0  0  2  0  0  0  0  0  0
  183.5620  178.8610  143.7100 C   0  0  0  0  0  2  0  0  0  0  0  0
  184.7160  178.4150  142.8270 C   0  0  0  0  0  2  0  0  0  0  0  0
  183.6830  177.9280  140.2010 O   0  0  0  0  0  0  0  0  0  0  0  0
  184.8540  179.3060  141.6830 N   0  0  0  0  0  2  0  0  0  0  0  0
  184.5320  179.8950  139.3110 N   0  0  0  0  0  1  0  0  0  0  0  0
  184.3270  178.9940  140.3920 C   0  0  0  0  0  0  0  0  0  0  0  0
  1 21  1  0  0  0  0
  1 12  1  0  0  0  0
  2  8  1  0  0  0  0
  2 11  1  0  0  0  0
  3 19  1  0  0  0  0
  4 19  2  0  0  0  0
  4  5  1  0  0  0  0
  5  2  2  0  0  0  0
  6 13  2  0  0  0  0
  6 10  1  0  0  0  0
  7 12  2  0  0  0  0
  8 19  1  6  0  0  0
  8  9  1  0  0  0  0
  9 16  1  0  0  0  0
  9 17  2  0  0  0  0
 10  3  2  0  0  0  0
 11 18  2  0  0  0  0
 13  4  1  0  0  0  0
 14  6  1  0  0  0  0
 16  1  2  0  0  0  0
 17  7  1  0  0  0  0
 18 17  1  0  0  0  0
 18 15  1  0  0  0  0
 21 20  1  1  0  0  0
 22 21  1  0  0  0  0
 23 22  1  0  0  0  0
 24 23  1  0  0  0  0
 25 24  1  0  0  0  0
 26 29  2  0  0  0  0
 27 25  1  0  0  0  0
 28 29  1  0  0  0  0
 29 27  1  0  0  0  0
M  END
>  <MODEL>
2

>  <REMARK>
 VINA RESULT:      -9.4      2.058      3.503
  Name = 
  6 active torsions:
  status: ('A' for Active; 'I' for Inactive)
    1  A    between atoms: C_1  and  C_27
    2  A    between atoms: C_17  and  C_19
    3  A    between atoms: C_17  and  C_29
    4  A    between atoms: C_19  and  C_27
    5  A    between atoms: N_21  and  C_26
    6  A    between atoms: C_26  and  C_29
                            x       y       z     vdW  Elec       q    Type
                         _______ _______ _______ _____ _____    ______ ____

>  <TORSDO>
F 6

$$$$
=
 OpenBabel10232410213D

 29 32  0  0  1  0  0  0  0  0999 V2000
  188.9770  177.3540  141.0790 C   0  0  0  0  0  0  0  0  0  0  0  0
  185.0240  178.4850  143.6640 C   0  0  0  0  0  0  0  0  0  0  0  0
  187.7810  176.8910  145.4720 C   0  0  0  0  0  3  0  0  0  0  0  0
  186.0090  178.5240  145.5920 C   0  0  0  0  0  0  0  0  0  0  0  0
  184.9800  179.1000  144.8060 N   0  0  0  0  0  0  0  0  0  0  0  0
  187.4220  178.2010  147.5030 C   0  0  0  0  0  0  0  0  0  0  0  0
  187.1400  178.5580  140.1230 N   0  0  0  0  0  0  0  0  0  0  0  0
  186.0830  177.4140  143.5570 C   0  0  1  0  0  3  0  0  0  0  0  0
  186.9510  177.7060  142.3590 C   0  0  0  0  0  0  0  0  0  0  0  0
  188.1340  177.2120  146.7920 C   0  0  0  0  0  3  0  0  0  0  0  0
  184.4170  179.0360  142.4930 N   0  0  0  0  0  0  0  0  0  0  0  0
  188.4020  178.0640  140.0160 C   0  0  0  0  0  3  0  0  0  0  0  0
  186.3420  178.8680  146.9000 C   0  0  0  0  0  3  0  0  0  0  0  0
  187.8120  178.5320  148.8980 C   0  0  0  0  0  1  0  0  0  0  0  0
  184.3800  179.5610  140.1450 C   0  0  0  0  0  1  0  0  0  0  0  0
  188.2370  177.1670  142.2470 C   0  0  0  0  0  3  0  0  0  0  0  0
  186.4000  178.3930  141.2530 C   0  0  0  0  0  0  0  0  0  0  0  0
  185.0300  178.9680  141.3460 C   0  0  0  0  0  0  0  0  0  0  0  0
  186.7240  177.5890  144.8880 C   0  0  0  0  0  0  0  0  0  0  0  0
  191.2240  177.6340  140.0530 C   0  0  0  0  0  1  0  0  0  0  0  0
  190.3660  176.7980  140.9860 C   0  0  1  0  0  3  0  0  0  0  0  0
  191.0210  176.7100  142.3600 C   0  0  0  0  0  2  0  0  0  0  0  0
  191.6390  178.0440  142.7440 C   0  0  0  0  0  2  0  0  0  0  0  0
  191.5340  178.2480  144.2440 C   0  0  0  0  0  2  0  0  0  0  0  0
  191.2870  176.9200  144.9410 C   0  0  0  0  0  2  0  0  0  0  0  0
  192.5170  174.7680  146.3750 O   0  0  0  0  0  0  0  0  0  0  0  0
  191.7540  176.9770  146.3200 N   0  0  0  0  0  2  0  0  0  0  0  0
  192.7450  175.9750  148.3430 N   0  0  0  0  0  1  0  0  0  0  0  0
  192.3460  175.8580  146.9830 C   0  0  0  0  0  0  0  0  0  0  0  0
  1 16  1  0  0  0  0
  2  5  2  0  0  0  0
  3 10  1  0  0  0  0
  4 13  2  0  0  0  0
  5  4  1  0  0  0  0
  6 14  1  0  0  0  0
  7 17  2  0  0  0  0
  8  9  1  6  0  0  0
  8  2  1  0  0  0  0
  8 19  1  0  0  0  0
 10  6  2  0  0  0  0
 11  2  1  0  0  0  0
 12  7  1  0  0  0  0
 12  1  2  0  0  0  0
 13  6  1  0  0  0  0
 15 18  1  0  0  0  0
 16  9  2  0  0  0  0
 17 18  1  0  0  0  0
 17  9  1  0  0  0  0
 18 11  2  0  0  0  0
 19  3  2  0  0  0  0
 19  4  1  0  0  0  0
 21 20  1  6  0  0  0
 21  1  1  0  0  0  0
 21 22  1  0  0  0  0
 22 23  1  0  0  0  0
 23 24  1  0  0  0  0
 24 25  1  0  0  0  0
 25 27  1  0  0  0  0
 26 29  2  0  0  0  0
 27 29  1  0  0  0  0
 29 28  1  0  0  0  0
M  END
>  <MODEL>
3

>  <REMARK>
 VINA RESULT:      -8.9      2.555      7.058
  Name = 
  6 active torsions:
  status: ('A' for Active; 'I' for Inactive)
    1  A    between atoms: C_1  and  C_27
    2  A    between atoms: C_17  and  C_19
    3  A    between atoms: C_17  and  C_29
    4  A    between atoms: C_19  and  C_27
    5  A    between atoms: N_21  and  C_26
    6  A    between atoms: C_26  and  C_29
                            x       y       z     vdW  Elec       q    Type
                         _______ _______ _______ _____ _____    ______ ____

>  <TORSDO>
F 6

$$$$
=
 OpenBabel10232410213D

 29 32  0  0  1  0  0  0  0  0999 V2000
  185.5090  178.2910  144.6710 C   0  0  0  0  0  0  0  0  0  0  0  0
  190.0500  177.0440  145.8610 C   0  0  0  0  0  0  0  0  0  0  0  0
  189.0980  176.6620  142.3450 C   0  0  0  0  0  3  0  0  0  0  0  0
  190.8760  177.2430  143.8690 C   0  0  0  0  0  0  0  0  0  0  0  0
  191.1440  177.3860  145.2530 N   0  0  0  0  0  0  0  0  0  0  0  0
  191.2940  177.3280  141.5090 C   0  0  0  0  0  0  0  0  0  0  0  0
  186.3800  178.6310  146.8760 N   0  0  0  0  0  0  0  0  0  0  0  0
  188.9220  176.6190  144.9510 C   0  0  1  0  0  3  0  0  0  0  0  0
  187.7070  177.4600  145.2570 C   0  0  0  0  0  0  0  0  0  0  0  0
  189.9700  176.9060  141.2720 C   0  0  0  0  0  3  0  0  0  0  0  0
  189.7970  177.4200  147.2160 N   0  0  0  0  0  0  0  0  0  0  0  0
  185.3810  178.8040  145.9690 C   0  0  0  0  0  3  0  0  0  0  0  0
  191.7600  177.5000  142.8230 C   0  0  0  0  0  3  0  0  0  0  0  0
  192.2030  177.5860  140.3620 C   0  0  0  0  0  1  0  0  0  0  0  0
  188.3780  178.2180  148.9890 C   0  0  0  0  0  1  0  0  0  0  0  0
  186.6740  177.6050  144.3250 C   0  0  0  0  0  3  0  0  0  0  0  0
  187.5270  177.9710  146.5620 C   0  0  0  0  0  0  0  0  0  0  0  0
  188.6100  177.8210  147.5730 C   0  0  0  0  0  0  0  0  0  0  0  0
  189.5770  176.8680  143.6380 C   0  0  0  0  0  0  0  0  0  0  0  0
  183.1330  178.9240  144.3080 C   0  0  0  0  0  1  0  0  0  0  0  0
  184.4230  178.4660  143.6520 C   0  0  1  0  0  3  0  0  0  0  0  0
  184.8370  179.4520  142.5660 C   0  0  0  0  0  2  0  0  0  0  0  0
  185.0250  178.7370  141.2390 C   0  0  0  0  0  2  0  0  0  0  0  0
  183.7680  177.9630  140.8870 C   0  0  0  0  0  2  0  0  0  0  0  0
  183.3610  178.2410  139.4490 C   0  0  0  0  0  2  0  0  0  0  0  0
  181.0530  179.5470  138.3680 O   0  0  0  0  0  0  0  0  0  0  0  0
  183.2220  179.6750  139.2300 N   0  0  0  0  0  2  0  0  0  0  0  0
  181.9950  181.6660  138.4500 N   0  0  0  0  0  1  0  0  0  0  0  0
  182.0460  180.2620  138.6700 C   0  0  0  0  0  0  0  0  0  0  0  0
  1 12  1  0  0  0  0
  2 11  1  0  0  0  0
  3 19  1  0  0  0  0
  4  5  1  0  0  0  0
  5  2  2  0  0  0  0
  6 13  2  0  0  0  0
  8 19  1  6  0  0  0
  8  9  1  0  0  0  0
  8  2  1  0  0  0  0
  9 17  2  0  0  0  0
 10  6  1  0  0  0  0
 10  3  2  0  0  0  0
 11 18  2  0  0  0  0
 12  7  2  0  0  0  0
 13  4  1  0  0  0  0
 14  6  1  0  0  0  0
 16  1  2  0  0  0  0
 16  9  1  0  0  0  0
 17  7  1  0  0  0  0
 17 18  1  0  0  0  0
 18 15  1  0  0  0  0
 19  4  2  0  0  0  0
 21 20  1  1  0  0  0
 21  1  1  0  0  0  0
 22 21  1  0  0  0  0
 23 22  1  0  0  0  0
 24 23  1  0  0  0  0
 25 24  1  0  0  0  0
 26 29  2  0  0  0  0
 27 25  1  0  0  0  0
 28 29  1  0  0  0  0
 29 27  1  0  0  0  0
M  END
>  <MODEL>
4

>  <REMARK>
 VINA RESULT:      -8.8      2.368      2.852
  Name = 
  6 active torsions:
  status: ('A' for Active; 'I' for Inactive)
    1  A    between atoms: C_1  and  C_27
    2  A    between atoms: C_17  and  C_19
    3  A    between atoms: C_17  and  C_29
    4  A    between atoms: C_19  and  C_27
    5  A    between atoms: N_21  and  C_26
    6  A    between atoms: C_26  and  C_29
                            x       y       z     vdW  Elec       q    Type
                         _______ _______ _______ _____ _____    ______ ____

>  <TORSDO>
F 6

$$$$
=
 OpenBabel10232410213D

 29 32  0  0  1  0  0  0  0  0999 V2000
  185.3230  178.6650  144.6550 C   0  0  0  0  0  0  0  0  0  0  0  0
  189.7360  176.9120  145.6720 C   0  0  0  0  0  0  0  0  0  0  0  0
  188.6940  176.8340  142.1620 C   0  0  0  0  0  3  0  0  0  0  0  0
  190.5450  177.1470  143.6760 C   0  0  0  0  0  0  0  0  0  0  0  0
  190.8490  177.1810  145.0610 N   0  0  0  0  0  0  0  0  0  0  0  0
  190.9320  177.3310  141.3170 C   0  0  0  0  0  0  0  0  0  0  0  0
  186.2580  178.7870  146.8570 N   0  0  0  0  0  0  0  0  0  0  0  0
  188.5570  176.6550  144.7640 C   0  0  1  0  0  3  0  0  0  0  0  0
  187.4370  177.5900  145.1440 C   0  0  0  0  0  0  0  0  0  0  0  0
  189.5690  177.0550  141.0860 C   0  0  0  0  0  3  0  0  0  0  0  0
  189.5430  177.2300  147.0510 N   0  0  0  0  0  0  0  0  0  0  0  0
  185.2670  179.1110  145.9830 C   0  0  0  0  0  3  0  0  0  0  0  0
  191.4340  177.3780  142.6290 C   0  0  0  0  0  3  0  0  0  0  0  0
  191.8440  177.5660  140.1670 C   0  0  0  0  0  1  0  0  0  0  0  0
  188.2390  178.0560  148.8980 C   0  0  0  0  0  1  0  0  0  0  0  0
  186.4080  177.8910  144.2440 C   0  0  0  0  0  3  0  0  0  0  0  0
  187.3290  178.0380  146.4800 C   0  0  0  0  0  0  0  0  0  0  0  0
  188.4080  177.7230  147.4560 C   0  0  0  0  0  0  0  0  0  0  0  0
  189.2120  176.9150  143.4540 C   0  0  0  0  0  0  0  0  0  0  0  0
  184.4200  178.2290  142.3800 C   0  0  0  0  0  1  0  0  0  0  0  0
  184.2430  179.0060  143.6720 C   0  0  1  0  0  3  0  0  0  0  0  0
  182.8590  178.7450  144.2550 C   0  0  0  0  0  2  0  0  0  0  0  0
  181.7810  179.3180  143.3510 C   0  0  0  0  0  2  0  0  0  0  0  0
  180.5580  178.4200  143.3740 C   0  0  0  0  0  2  0  0  0  0  0  0
  180.0020  178.2500  141.9690 C   0  0  0  0  0  2  0  0  0  0  0  0
  180.5650  180.1670  139.9170 O   0  0  0  0  0  0  0  0  0  0  0  0
  181.0880  178.1640  141.0010 N   0  0  0  0  0  2  0  0  0  0  0  0
  182.3610  178.9800  139.0540 N   0  0  0  0  0  1  0  0  0  0  0  0
  181.3040  179.1490  139.9900 C   0  0  0  0  0  0  0  0  0  0  0  0
  1 12  1  0  0  0  0
  2 11  1  0  0  0  0
  3 19  1  0  0  0  0
  4  5  1  0  0  0  0
  5  2  2  0  0  0  0
  6 13  2  0  0  0  0
  8 19  1  6  0  0  0
  8  9  1  0  0  0  0
  8  2  1  0  0  0  0
  9 17  2  0  0  0  0
 10  6  1  0  0  0  0
 10  3  2  0  0  0  0
 11 18  2  0  0  0  0
 12  7  2  0  0  0  0
 13  4  1  0  0  0  0
 14  6  1  0  0  0  0
 16  1  2  0  0  0  0
 16  9  1  0  0  0  0
 17  7  1  0  0  0  0
 17 18  1  0  0  0  0
 18 15  1  0  0  0  0
 19  4  2  0  0  0  0
 21 20  1  6  0  0  0
 21 22  1  0  0  0  0
 21  1  1  0  0  0  0
 23 24  1  0  0  0  0
 23 22  1  0  0  0  0
 25 24  1  0  0  0  0
 26 29  2  0  0  0  0
 27 25  1  0  0  0  0
 28 29  1  0  0  0  0
 29 27  1  0  0  0  0
M  END
>  <MODEL>
5

>  <REMARK>
 VINA RESULT:      -8.7      2.643      3.595
  Name = 
  6 active torsions:
  status: ('A' for Active; 'I' for Inactive)
    1  A    between atoms: C_1  and  C_27
    2  A    between atoms: C_17  and  C_19
    3  A    between atoms: C_17  and  C_29
    4  A    between atoms: C_19  and  C_27
    5  A    between atoms: N_21  and  C_26
    6  A    between atoms: C_26  and  C_29
                            x       y       z     vdW  Elec       q    Type
                         _______ _______ _______ _____ _____    ______ ____

>  <TORSDO>
F 6

$$$$
=
 OpenBabel10232410213D

 29 32  0  0  1  0  0  0  0  0999 V2000
  187.0780  178.5070  141.6150 C   0  0  0  0  0  0  0  0  0  0  0  0
  184.9370  178.2600  145.9670 C   0  0  0  0  0  0  0  0  0  0  0  0
  188.4490  177.2350  145.7910 C   0  0  0  0  0  3  0  0  0  0  0  0
  186.7640  178.3270  147.1290 C   0  0  0  0  0  0  0  0  0  0  0  0
  185.3980  178.7040  147.0960 N   0  0  0  0  0  0  0  0  0  0  0  0
  188.9970  178.1590  147.9850 C   0  0  0  0  0  0  0  0  0  0  0  0
  184.8450  179.2960  141.9750 N   0  0  0  0  0  0  0  0  0  0  0  0
  185.9410  177.5220  145.1160 C   0  0  1  0  0  3  0  0  0  0  0  0
  185.9940  178.1670  143.7540 C   0  0  0  0  0  0  0  0  0  0  0  0
  189.3820  177.4800  146.8110 C   0  0  0  0  0  3  0  0  0  0  0  0
  183.7280  178.7690  145.4000 N   0  0  0  0  0  0  0  0  0  0  0  0
  185.9260  179.1630  141.1600 C   0  0  0  0  0  3  0  0  0  0  0  0
  187.6700  178.5900  148.1540 C   0  0  0  0  0  3  0  0  0  0  0  0
  189.9990  178.4140  149.0530 C   0  0  0  0  0  1  0  0  0  0  0  0
  182.3840  179.5390  143.5580 C   0  0  0  0  0  1  0  0  0  0  0  0
  187.1000  177.9980  142.9130 C   0  0  0  0  0  3  0  0  0  0  0  0
  184.8440  178.8130  143.2470 C   0  0  0  0  0  0  0  0  0  0  0  0
  183.6520  178.9980  144.1200 C   0  0  0  0  0  0  0  0  0  0  0  0
  187.1460  177.6990  145.9710 C   0  0  0  0  0  0  0  0  0  0  0  0
  189.2000  177.2590  141.2670 C   0  0  0  0  0  1  0  0  0  0  0  0
  188.2820  178.3460  140.7360 C   0  0  1  0  0  3  0  0  0  0  0  0
  187.8820  178.0360  139.2980 C   0  0  0  0  0  2  0  0  0  0  0  0
  188.9720  178.4730  138.3340 C   0  0  0  0  0  2  0  0  0  0  0  0
  188.6970  177.9060  136.9530 C   0  0  0  0  0  2  0  0  0  0  0  0
  189.9450  177.2390  136.3990 C   0  0  0  0  0  2  0  0  0  0  0  0
  190.7760  175.4450  138.4710 O   0  0  0  0  0  0  0  0  0  0  0  0
  189.7830  175.7910  136.3830 N   0  0  0  0  0  2  0  0  0  0  0  0
  190.0780  173.5410  137.3450 N   0  0  0  0  0  1  0  0  0  0  0  0
  190.2360  174.9500  137.4460 C   0  0  0  0  0  0  0  0  0  0  0  0
  1 16  1  0  0  0  0
  2  5  2  0  0  0  0
  3 19  2  0  0  0  0
  3 10  1  0  0  0  0
  4 13  2  0  0  0  0
  5  4  1  0  0  0  0
  6 13  1  0  0  0  0
  6 14  1  0  0  0  0
  7 17  2  0  0  0  0
  8  9  1  6  0  0  0
  8  2  1  0  0  0  0
  8 19  1  0  0  0  0
 10  6  2  0  0  0  0
 11  2  1  0  0  0  0
 12  1  2  0  0  0  0
 12  7  1  0  0  0  0
 15 18  1  0  0  0  0
 16  9  2  0  0  0  0
 17  9  1  0  0  0  0
 17 18  1  0  0  0  0
 18 11  2  0  0  0  0
 19  4  1  0  0  0  0
 21 20  1  1  0  0  0
 21  1  1  0  0  0  0
 22 21  1  0  0  0  0
 23 22  1  0  0  0  0
 24 23  1  0  0  0  0
 25 24  1  0  0  0  0
 27 25  1  0  0  0  0
 27 29  1  0  0  0  0
 28 29  1  0  0  0  0
 29 26  2  0  0  0  0
M  END
>  <MODEL>
6

>  <REMARK>
 VINA RESULT:      -8.6      2.327      5.187
  Name = 
  6 active torsions:
  status: ('A' for Active; 'I' for Inactive)
    1  A    between atoms: C_1  and  C_27
    2  A    between atoms: C_17  and  C_19
    3  A    between atoms: C_17  and  C_29
    4  A    between atoms: C_19  and  C_27
    5  A    between atoms: N_21  and  C_26
    6  A    between atoms: C_26  and  C_29
                            x       y       z     vdW  Elec       q    Type
                         _______ _______ _______ _____ _____    ______ ____

>  <TORSDO>
F 6

$$$$
=
 OpenBabel10232410213D

 29 32  0  0  1  0  0  0  0  0999 V2000
  187.8860  177.2050  142.9370 C   0  0  0  0  0  0  0  0  0  0  0  0
  183.7060  179.1990  144.3990 C   0  0  0  0  0  0  0  0  0  0  0  0
  184.1830  178.8180  140.7880 C   0  0  0  0  0  3  0  0  0  0  0  0
  182.5900  178.7460  142.5990 C   0  0  0  0  0  0  0  0  0  0  0  0
  182.5090  178.8910  144.0060 N   0  0  0  0  0  0  0  0  0  0  0  0
  181.8350  178.2880  140.3690 C   0  0  0  0  0  0  0  0  0  0  0  0
  187.3090  177.3800  145.2550 N   0  0  0  0  0  0  0  0  0  0  0  0
  184.7300  179.3090  143.2950 C   0  0  1  0  0  3  0  0  0  0  0  0
  185.8870  178.3940  143.6100 C   0  0  0  0  0  0  0  0  0  0  0  0
  183.1480  178.4940  139.8970 C   0  0  0  0  0  3  0  0  0  0  0  0
  184.1110  179.0460  145.7610 N   0  0  0  0  0  0  0  0  0  0  0  0
  188.1460  176.9230  144.2860 C   0  0  0  0  0  3  0  0  0  0  0  0
  181.5450  178.4170  141.7380 C   0  0  0  0  0  3  0  0  0  0  0  0
  180.7510  177.9420  139.4130 C   0  0  0  0  0  1  0  0  0  0  0  0
  185.6810  178.4120  147.4710 C   0  0  0  0  0  1  0  0  0  0  0  0
  186.7580  177.9550  142.6060 C   0  0  0  0  0  3  0  0  0  0  0  0
  186.1990  178.1090  144.9580 C   0  0  0  0  0  0  0  0  0  0  0  0
  185.2910  178.5720  146.0430 C   0  0  0  0  0  0  0  0  0  0  0  0
  183.8740  178.9100  142.1440 C   0  0  0  0  0  0  0  0  0  0  0  0
  188.9250  177.7480  140.7450 C   0  0  0  0  0  1  0  0  0  0  0  0
  188.7940  176.7140  141.8490 C   0  0  1  0  0  3  0  0  0  0  0  0
  190.1710  176.3550  142.3960 C   0  0  0  0  0  2  0  0  0  0  0  0
  191.1240  177.5300  142.2580 C   0  0  0  0  0  2  0  0  0  0  0  0
  191.6050  177.9680  143.6290 C   0  0  0  0  0  2  0  0  0  0  0  0
  191.6090  176.7890  144.5880 C   0  0  0  0  0  2  0  0  0  0  0  0
  192.2510  175.1810  146.8690 O   0  0  0  0  0  0  0  0  0  0  0  0
  191.6690  177.2570  145.9670 N   0  0  0  0  0  2  0  0  0  0  0  0
  191.9840  176.9140  148.3870 N   0  0  0  0  0  1  0  0  0  0  0  0
  191.9810  176.3960  147.0630 C   0  0  0  0  0  0  0  0  0  0  0  0
  1 12  1  0  0  0  0
  2 11  1  0  0  0  0
  3 19  1  0  0  0  0
  4  5  1  0  0  0  0
  5  2  2  0  0  0  0
  6 13  2  0  0  0  0
  8 19  1  6  0  0  0
  8  9  1  0  0  0  0
  8  2  1  0  0  0  0
  9 17  2  0  0  0  0
 10  6  1  0  0  0  0
 10  3  2  0  0  0  0
 11 18  2  0  0  0  0
 12  7  2  0  0  0  0
 13  4  1  0  0  0  0
 14  6  1  0  0  0  0
 16  1  2  0  0  0  0
 16  9  1  0  0  0  0
 17  7  1  0  0  0  0
 17 18  1  0  0  0  0
 18 15  1  0  0  0  0
 19  4  2  0  0  0  0
 21 20  1  6  0  0  0
 21 22  1  0  0  0  0
 21  1  1  0  0  0  0
 23 22  1  0  0  0  0
 23 24  1  0  0  0  0
 24 25  1  0  0  0  0
 25 27  1  0  0  0  0
 26 29  2  0  0  0  0
 27 29  1  0  0  0  0
 29 28  1  0  0  0  0
M  END
>  <MODEL>
7

>  <REMARK>
 VINA RESULT:      -8.5      3.208      7.019
  Name = 
  6 active torsions:
  status: ('A' for Active; 'I' for Inactive)
    1  A    between atoms: C_1  and  C_27
    2  A    between atoms: C_17  and  C_19
    3  A    between atoms: C_17  and  C_29
    4  A    between atoms: C_19  and  C_27
    5  A    between atoms: N_21  and  C_26
    6  A    between atoms: C_26  and  C_29
                            x       y       z     vdW  Elec       q    Type
                         _______ _______ _______ _____ _____    ______ ____

>  <TORSDO>
F 6

$$$$
=
 OpenBabel10232410213D

 29 32  0  0  1  0  0  0  0  0999 V2000
  187.0110  178.0860  141.6440 C   0  0  0  0  0  0  0  0  0  0  0  0
  184.7580  178.3920  145.9350 C   0  0  0  0  0  0  0  0  0  0  0  0
  188.1780  177.0840  145.9530 C   0  0  0  0  0  3  0  0  0  0  0  0
  186.5560  178.4170  147.1410 C   0  0  0  0  0  0  0  0  0  0  0  0
  185.2260  178.8960  147.0350 N   0  0  0  0  0  0  0  0  0  0  0  0
  188.7490  178.1510  148.0760 C   0  0  0  0  0  0  0  0  0  0  0  0
  184.8420  179.0760  141.8670 N   0  0  0  0  0  0  0  0  0  0  0  0
  185.7180  177.5050  145.1810 C   0  0  1  0  0  3  0  0  0  0  0  0
  185.8540  178.0220  143.7700 C   0  0  0  0  0  0  0  0  0  0  0  0
  189.1050  177.3430  146.9760 C   0  0  0  0  0  3  0  0  0  0  0  0
  183.6070  178.9410  145.2900 N   0  0  0  0  0  0  0  0  0  0  0  0
  185.9270  178.7880  141.1000 C   0  0  0  0  0  3  0  0  0  0  0  0
  187.4570  178.6970  148.1660 C   0  0  0  0  0  3  0  0  0  0  0  0
  189.7420  178.4200  149.1470 C   0  0  0  0  0  1  0  0  0  0  0  0
  182.3720  179.6490  143.3490 C   0  0  0  0  0  1  0  0  0  0  0  0
  186.9620  177.6930  142.9810 C   0  0  0  0  0  3  0  0  0  0  0  0
  184.7720  178.7080  143.1760 C   0  0  0  0  0  0  0  0  0  0  0  0
  183.5790  179.0620  143.9930 C   0  0  0  0  0  0  0  0  0  0  0  0
  186.9130  177.6620  146.0540 C   0  0  0  0  0  0  0  0  0  0  0  0
  188.2140  178.5290  139.5140 C   0  0  0  0  0  1  0  0  0  0  0  0
  188.2190  177.7540  140.8190 C   0  0  1  0  0  3  0  0  0  0  0  0
  189.5070  178.0300  141.5860 C   0  0  0  0  0  2  0  0  0  0  0  0
  190.4500  176.8430  141.4900 C   0  0  0  0  0  2  0  0  0  0  0  0
  190.3930  176.0330  142.7720 C   0  0  0  0  0  2  0  0  0  0  0  0
  191.2440  176.6870  143.8480 C   0  0  0  0  0  2  0  0  0  0  0  0
  191.9780  177.2960  146.5480 O   0  0  0  0  0  0  0  0  0  0  0  0
  191.6090  175.7130  144.8690 N   0  0  0  0  0  2  0  0  0  0  0  0
  192.3630  175.0840  147.1300 N   0  0  0  0  0  1  0  0  0  0  0  0
  191.9820  176.0870  146.1970 C   0  0  0  0  0  0  0  0  0  0  0  0
  1 16  1  0  0  0  0
  2  5  2  0  0  0  0
  3 19  2  0  0  0  0
  3 10  1  0  0  0  0
  4 13  2  0  0  0  0
  5  4  1  0  0  0  0
  6 13  1  0  0  0  0
  6 14  1  0  0  0  0
  7 17  2  0  0  0  0
  8  9  1  6  0  0  0
  8  2  1  0  0  0  0
  8 19  1  0  0  0  0
 10  6  2  0  0  0  0
 11  2  1  0  0  0  0
 12  1  2  0  0  0  0
 12  7  1  0  0  0  0
 15 18  1  0  0  0  0
 16  9  2  0  0  0  0
 17  9  1  0  0  0  0
 17 18  1  0  0  0  0
 18 11  2  0  0  0  0
 19  4  1  0  0  0  0
 21 20  1  6  0  0  0
 21 22  1  0  0  0  0
 21  1  1  0  0  0  0
 23 22  1  0  0  0  0
 23 24  1  0  0  0  0
 24 25  1  0  0  0  0
 25 27  1  0  0  0  0
 27 29  1  0  0  0  0
 29 26  2  0  0  0  0
 29 28  1  0  0  0  0
M  END
>  <MODEL>
8

>  <REMARK>
 VINA RESULT:      -8.4      2.668      6.237
  Name = 
  6 active torsions:
  status: ('A' for Active; 'I' for Inactive)
    1  A    between atoms: C_1  and  C_27
    2  A    between atoms: C_17  and  C_19
    3  A    between atoms: C_17  and  C_29
    4  A    between atoms: C_19  and  C_27
    5  A    between atoms: N_21  and  C_26
    6  A    between atoms: C_26  and  C_29
                            x       y       z     vdW  Elec       q    Type
                         _______ _______ _______ _____ _____    ______ ____

>  <TORSDO>
F 6

$$$$
=
 OpenBabel10232410213D

 29 32  0  0  1  0  0  0  0  0999 V2000
  187.1060  177.7810  145.8380 C   0  0  0  0  0  0  0  0  0  0  0  0
  191.0510  176.4060  143.3620 C   0  0  0  0  0  0  0  0  0  0  0  0
  188.0510  177.1630  141.4040 C   0  0  0  0  0  3  0  0  0  0  0  0
  190.4590  177.2860  141.4740 C   0  0  0  0  0  0  0  0  0  0  0  0
  191.5590  176.9760  142.3130 N   0  0  0  0  0  0  0  0  0  0  0  0
  189.3070  178.1610  139.5610 C   0  0  0  0  0  0  0  0  0  0  0  0
  189.2140  177.4120  146.9160 N   0  0  0  0  0  0  0  0  0  0  0  0
  189.5490  176.2570  143.3430 C   0  0  1  0  0  3  0  0  0  0  0  0
  188.9800  176.8980  144.5840 C   0  0  0  0  0  0  0  0  0  0  0  0
  188.0800  177.7840  140.1450 C   0  0  0  0  0  3  0  0  0  0  0  0
  191.7820  176.3040  144.5850 N   0  0  0  0  0  0  0  0  0  0  0  0
  187.9210  177.8320  146.9780 C   0  0  0  0  0  3  0  0  0  0  0  0
  190.5170  177.9100  140.2290 C   0  0  0  0  0  3  0  0  0  0  0  0
  189.3200  178.8210  138.2300 C   0  0  0  0  0  1  0  0  0  0  0  0
  191.9740  176.4110  146.9820 C   0  0  0  0  0  1  0  0  0  0  0  0
  187.6410  177.2980  144.6440 C   0  0  0  0  0  3  0  0  0  0  0  0
  189.7600  176.9420  145.7620 C   0  0  0  0  0  0  0  0  0  0  0  0
  191.1850  176.5140  145.7240 C   0  0  0  0  0  0  0  0  0  0  0  0
  189.2640  176.9520  142.0580 C   0  0  0  0  0  0  0  0  0  0  0  0
  185.3800  178.9680  147.1760 C   0  0  0  0  0  1  0  0  0  0  0  0
  185.6780  178.2360  145.8800 C   0  0  1  0  0  3  0  0  0  0  0  0
  185.3450  179.1260  144.6880 C   0  0  0  0  0  2  0  0  0  0  0  0
  184.2610  178.4910  143.8340 C   0  0  0  0  0  2  0  0  0  0  0  0
  184.7780  178.2680  142.4240 C   0  0  0  0  0  2  0  0  0  0  0  0
  183.6270  178.2840  141.4320 C   0  0  0  0  0  2  0  0  0  0  0  0
  180.9030  177.6230  140.8410 O   0  0  0  0  0  0  0  0  0  0  0  0
  182.4530  178.9110  142.0260 N   0  0  0  0  0  2  0  0  0  0  0  0
  180.0200  179.2270  142.2660 N   0  0  0  0  0  1  0  0  0  0  0  0
  181.1180  178.5440  141.6730 C   0  0  0  0  0  0  0  0  0  0  0  0
  1 21  1  0  0  0  0
  1 12  1  0  0  0  0
  2 11  1  0  0  0  0
  3 19  1  0  0  0  0
  4 19  2  0  0  0  0
  4  5  1  0  0  0  0
  5  2  2  0  0  0  0
  6 10  1  0  0  0  0
  6 13  2  0  0  0  0
  7 12  2  0  0  0  0
  8 19  1  6  0  0  0
  8  2  1  0  0  0  0
  8  9  1  0  0  0  0
  9 16  1  0  0  0  0
  9 17  2  0  0  0  0
 10  3  2  0  0  0  0
 11 18  2  0  0  0  0
 13  4  1  0  0  0  0
 14  6  1  0  0  0  0
 16  1  2  0  0  0  0
 17  7  1  0  0  0  0
 18 17  1  0  0  0  0
 18 15  1  0  0  0  0
 21 20  1  1  0  0  0
 22 21  1  0  0  0  0
 23 22  1  0  0  0  0
 24 23  1  0  0  0  0
 25 27  1  0  0  0  0
 25 24  1  0  0  0  0
 26 29  2  0  0  0  0
 29 27  1  0  0  0  0
 29 28  1  0  0  0  0
M  END
>  <MODEL>
9

>  <REMARK>
 VINA RESULT:      -8.4      2.776      4.216
  Name = 
  6 active torsions:
  status: ('A' for Active; 'I' for Inactive)
    1  A    between atoms: C_1  and  C_27
    2  A    between atoms: C_17  and  C_19
    3  A    between atoms: C_17  and  C_29
    4  A    between atoms: C_19  and  C_27
    5  A    between atoms: N_21  and  C_26
    6  A    between atoms: C_26  and  C_29
                            x       y       z     vdW  Elec       q    Type
                         _______ _______ _______ _____ _____    ______ ____

>  <TORSDO>
F 6

$$$$
