=
 OpenBabel10232409443D

 25 28  0  0  1  0  0  0  0  0999 V2000
  189.5000  176.9570  144.9570 C   0  0  0  0  0  0  0  0  0  0  0  0
  191.5810  177.5410  143.7530 C   0  0  0  0  0  3  0  0  0  0  0  0
  187.3010  176.5650  144.1370 O   0  0  0  0  0  0  0  0  0  0  0  0
  189.1910  175.9350  142.7040 C   0  0  0  0  0  3  0  0  0  0  0  0
  191.2960  177.2850  142.4770 C   0  0  0  0  0  0  0  0  0  0  0  0
  187.7350  178.3860  148.5650 C   0  0  0  0  0  3  0  0  0  0  0  0
  188.6930  176.5170  143.9680 C   0  0  0  0  0  0  0  0  0  0  0  0
  186.6520  177.4440  145.0620 C   0  0  1  0  0  3  0  0  0  0  0  0
  190.3120  176.2690  142.0540 C   0  0  0  0  0  3  0  0  0  0  0  0
  186.9200  178.1260  147.4620 C   0  0  0  0  0  3  0  0  0  0  0  0
  187.5010  177.6650  146.2770 C   0  0  0  0  0  0  0  0  0  0  0  0
  188.8890  177.4770  146.2030 C   0  0  0  0  0  0  0  0  0  0  0  0
  189.6670  177.7550  147.3360 C   0  0  0  0  0  3  0  0  0  0  0  0
  190.9860  176.7770  144.8880 C   0  0  0  0  0  2  0  0  0  0  0  0
  189.0800  178.1980  148.4800 N   0  0  0  0  0  0  0  0  0  0  0  0
  191.9790  177.9860  141.4930 O   0  0  0  0  0  1  0  0  0  0  0  0
  186.3660  178.7830  144.3890 C   0  0  0  0  0  2  0  0  0  0  0  0
  184.0890  179.9320  144.0820 C   0  0  0  0  0  2  0  0  0  0  0  0
  185.0010  178.7860  143.7150 C   0  0  0  0  0  0  0  0  0  0  0  0
  183.8420  178.5380  144.6500 C   0  0  0  0  0  2  0  0  0  0  0  0
  184.8200  178.2290  142.3130 C   0  0  0  0  0  2  0  0  0  0  0  0
  185.0660  179.2700  141.3280 N   0  0  0  0  0  2  0  0  0  0  0  0
  184.8610  178.7600  138.9690 C   0  0  0  0  0  1  0  0  0  0  0  0
  183.1930  177.9150  140.5850 C   0  0  0  0  0  1  0  0  0  0  0  0
  184.1140  179.0720  140.2490 C   0  0  0  0  0  3  0  0  0  0  0  0
  1 12  1  0  0  0  0
  2 14  1  0  0  0  0
  3  8  1  0  0  0  0
  4  7  1  0  0  0  0
  5  2  2  0  0  0  0
  7  3  1  0  0  0  0
  7  1  2  0  0  0  0
  8 17  1  6  0  0  0
  8 11  1  0  0  0  0
  9  5  1  0  0  0  0
  9  4  2  0  0  0  0
 10  6  2  0  0  0  0
 11 10  1  0  0  0  0
 12 11  2  0  0  0  0
 12 13  1  0  0  0  0
 13 15  2  0  0  0  0
 14  1  1  0  0  0  0
 15  6  1  0  0  0  0
 16  5  1  0  0  0  0
 18 20  1  0  0  0  0
 19 18  1  0  0  0  0
 19 17  1  0  0  0  0
 19 20  1  0  0  0  0
 21 19  1  0  0  0  0
 22 21  1  0  0  0  0
 23 25  1  0  0  0  0
 25 24  1  0  0  0  0
 25 22  1  0  0  0  0
M  END
>  <MODEL>
1

>  <REMARK>
 VINA RESULT:      -8.5      0.000      0.000
  Name = 
  5 active torsions:
  status: ('A' for Active; 'I' for Inactive)
    1  A    between atoms: C_10  and  C_19
    2  A    between atoms: N_12  and  C_14
    3  A    between atoms: N_12  and  C_15
    4  A    between atoms: C_13  and  C_15
    5  A    between atoms: C_13  and  C_19
                            x       y       z     vdW  Elec       q    Type
                         _______ _______ _______ _____ _____    ______ ____

>  <TORSDO>
F 5

$$$$
=
 OpenBabel10232409443D

 25 28  0  0  1  0  0  0  0  0999 V2000
  186.0030  178.1110  143.6800 C   0  0  0  0  0  0  0  0  0  0  0  0
  185.0600  179.5300  145.4740 C   0  0  0  0  0  3  0  0  0  0  0  0
  187.9400  176.7290  143.6650 O   0  0  0  0  0  0  0  0  0  0  0  0
  186.7210  176.9720  145.7800 C   0  0  0  0  0  3  0  0  0  0  0  0
  185.6950  179.1230  146.5730 C   0  0  0  0  0  0  0  0  0  0  0  0
  186.5890  178.7200  139.5020 C   0  0  0  0  0  3  0  0  0  0  0  0
  186.8640  177.3140  144.3480 C   0  0  0  0  0  0  0  0  0  0  0  0
  188.4700  177.2510  142.4420 C   0  0  1  0  0  3  0  0  0  0  0  0
  186.2210  177.7550  146.7440 C   0  0  0  0  0  3  0  0  0  0  0  0
  187.5800  178.0740  140.2440 C   0  0  0  0  0  3  0  0  0  0  0  0
  187.3900  177.8830  141.6160 C   0  0  0  0  0  0  0  0  0  0  0  0
  186.2180  178.3440  142.2330 C   0  0  0  0  0  0  0  0  0  0  0  0
  185.2530  178.9900  141.4470 C   0  0  0  0  0  3  0  0  0  0  0  0
  184.7540  178.6250  144.3290 C   0  0  0  0  0  2  0  0  0  0  0  0
  185.4570  179.1620  140.1140 N   0  0  0  0  0  0  0  0  0  0  0  0
  185.8410  180.0190  147.6220 O   0  0  0  0  0  1  0  0  0  0  0  0
  189.5490  178.2860  142.7460 C   0  0  0  0  0  2  0  0  0  0  0  0
  191.9030  177.4130  142.2020 C   0  0  0  0  0  2  0  0  0  0  0  0
  190.8290  177.6250  143.2410 C   0  0  0  0  0  0  0  0  0  0  0  0
  191.0670  176.2380  142.6960 C   0  0  0  0  0  2  0  0  0  0  0  0
  191.3250  177.8470  144.6600 C   0  0  0  0  0  2  0  0  0  0  0  0
  191.6210  176.5700  145.2890 N   0  0  0  0  0  2  0  0  0  0  0  0
  190.1050  176.8200  147.1620 C   0  0  0  0  0  1  0  0  0  0  0  0
  192.2570  175.6380  147.4390 C   0  0  0  0  0  1  0  0  0  0  0  0
  191.5550  176.7760  146.7260 C   0  0  0  0  0  3  0  0  0  0  0  0
  1 14  1  0  0  0  0
  1  7  2  0  0  0  0
  2  5  2  0  0  0  0
  3  7  1  0  0  0  0
  4  9  2  0  0  0  0
  5  9  1  0  0  0  0
  5 16  1  0  0  0  0
  6 15  2  0  0  0  0
  6 10  1  0  0  0  0
  7  4  1  0  0  0  0
  8 17  1  1  0  0  0
  8  3  1  0  0  0  0
 10 11  2  0  0  0  0
 11 12  1  0  0  0  0
 11  8  1  0  0  0  0
 12  1  1  0  0  0  0
 13 12  2  0  0  0  0
 14  2  1  0  0  0  0
 15 13  1  0  0  0  0
 17 19  1  0  0  0  0
 18 20  1  0  0  0  0
 18 19  1  0  0  0  0
 19 21  1  0  0  0  0
 20 19  1  0  0  0  0
 21 22  1  0  0  0  0
 22 25  1  0  0  0  0
 25 23  1  0  0  0  0
 25 24  1  0  0  0  0
M  END
>  <MODEL>
2

>  <REMARK>
 VINA RESULT:      -8.2      2.054      7.105
  Name = 
  5 active torsions:
  status: ('A' for Active; 'I' for Inactive)
    1  A    between atoms: C_10  and  C_19
    2  A    between atoms: N_12  and  C_14
    3  A    between atoms: N_12  and  C_15
    4  A    between atoms: C_13  and  C_15
    5  A    between atoms: C_13  and  C_19
                            x       y       z     vdW  Elec       q    Type
                         _______ _______ _______ _____ _____    ______ ____

>  <TORSDO>
F 5

$$$$
=
 OpenBabel10232409443D

 25 28  0  0  1  0  0  0  0  0999 V2000
  189.4130  176.9830  144.9680 C   0  0  0  0  0  0  0  0  0  0  0  0
  191.5050  177.5190  143.7600 C   0  0  0  0  0  3  0  0  0  0  0  0
  187.1950  176.6920  144.1570 O   0  0  0  0  0  0  0  0  0  0  0  0
  189.0480  176.0280  142.6930 C   0  0  0  0  0  3  0  0  0  0  0  0
  191.2000  177.3060  142.4800 C   0  0  0  0  0  0  0  0  0  0  0  0
  187.7310  178.3870  148.6250 C   0  0  0  0  0  3  0  0  0  0  0  0
  188.5830  176.5980  143.9760 C   0  0  0  0  0  0  0  0  0  0  0  0
  186.5860  177.5720  145.1090 C   0  0  1  0  0  3  0  0  0  0  0  0
  190.1760  176.3370  142.0420 C   0  0  0  0  0  3  0  0  0  0  0  0
  186.8980  178.1840  147.5220 C   0  0  0  0  0  3  0  0  0  0  0  0
  187.4520  177.7320  146.3220 C   0  0  0  0  0  0  0  0  0  0  0  0
  188.8320  177.4940  146.2310 C   0  0  0  0  0  0  0  0  0  0  0  0
  189.6280  177.7160  147.3630 C   0  0  0  0  0  3  0  0  0  0  0  0
  190.8910  176.7510  144.8810 C   0  0  0  0  0  2  0  0  0  0  0  0
  189.0660  178.1520  148.5230 N   0  0  0  0  0  0  0  0  0  0  0  0
  191.9010  178.0050  141.5080 O   0  0  0  0  0  1  0  0  0  0  0  0
  186.3450  178.9370  144.4710 C   0  0  0  0  0  2  0  0  0  0  0  0
  184.9620  177.9050  142.5670 C   0  0  0  0  0  2  0  0  0  0  0  0
  185.0600  178.9480  143.6540 C   0  0  0  0  0  0  0  0  0  0  0  0
  185.2380  179.3620  142.2130 C   0  0  0  0  0  2  0  0  0  0  0  0
  183.7390  179.3680  144.2790 C   0  0  0  0  0  2  0  0  0  0  0  0
  182.7040  178.4000  143.9530 N   0  0  0  0  0  2  0  0  0  0  0  0
  181.5170  178.9080  141.9040 C   0  0  0  0  0  1  0  0  0  0  0  0
  180.2930  178.6700  144.0370 C   0  0  0  0  0  1  0  0  0  0  0  0
  181.5850  179.1410  143.3990 C   0  0  0  0  0  3  0  0  0  0  0  0
  1 12  1  0  0  0  0
  2 14  1  0  0  0  0
  3  8  1  0  0  0  0
  4  7  1  0  0  0  0
  5  2  2  0  0  0  0
  7  3  1  0  0  0  0
  7  1  2  0  0  0  0
  8 17  1  6  0  0  0
  8 11  1  0  0  0  0
  9  5  1  0  0  0  0
  9  4  2  0  0  0  0
 10  6  2  0  0  0  0
 11 10  1  0  0  0  0
 12 11  2  0  0  0  0
 12 13  1  0  0  0  0
 13 15  2  0  0  0  0
 14  1  1  0  0  0  0
 15  6  1  0  0  0  0
 16  5  1  0  0  0  0
 18 19  1  0  0  0  0
 19 21  1  0  0  0  0
 19 17  1  0  0  0  0
 20 18  1  0  0  0  0
 20 19  1  0  0  0  0
 22 21  1  0  0  0  0
 23 25  1  0  0  0  0
 25 22  1  0  0  0  0
 25 24  1  0  0  0  0
M  END
>  <MODEL>
3

>  <REMARK>
 VINA RESULT:      -7.9      1.283      1.924
  Name = 
  5 active torsions:
  status: ('A' for Active; 'I' for Inactive)
    1  A    between atoms: C_10  and  C_19
    2  A    between atoms: N_12  and  C_14
    3  A    between atoms: N_12  and  C_15
    4  A    between atoms: C_13  and  C_15
    5  A    between atoms: C_13  and  C_19
                            x       y       z     vdW  Elec       q    Type
                         _______ _______ _______ _____ _____    ______ ____

>  <TORSDO>
F 5

$$$$
=
 OpenBabel10232409443D

 25 28  0  0  1  0  0  0  0  0999 V2000
  184.2180  178.6290  141.8710 C   0  0  0  0  0  0  0  0  0  0  0  0
  182.6260  177.4350  140.4010 C   0  0  0  0  0  3  0  0  0  0  0  0
  186.5740  178.9100  141.6890 O   0  0  0  0  0  0  0  0  0  0  0  0
  185.2710  178.7710  139.6150 C   0  0  0  0  0  3  0  0  0  0  0  0
  183.3180  177.2270  139.2810 C   0  0  0  0  0  0  0  0  0  0  0  0
  184.6750  178.8220  146.1050 C   0  0  0  0  0  3  0  0  0  0  0  0
  185.3140  178.7510  141.0930 C   0  0  0  0  0  0  0  0  0  0  0  0
  186.8630  178.5050  143.0320 C   0  0  1  0  0  3  0  0  0  0  0  0
  184.4130  178.1090  138.8300 C   0  0  0  0  0  3  0  0  0  0  0  0
  185.8110  178.7360  145.2980 C   0  0  0  0  0  3  0  0  0  0  0  0
  185.6600  178.6640  143.9110 C   0  0  0  0  0  0  0  0  0  0  0  0
  184.3760  178.6720  143.3440 C   0  0  0  0  0  0  0  0  0  0  0  0
  183.2650  178.7550  144.1950 C   0  0  0  0  0  3  0  0  0  0  0  0
  182.8410  178.6190  141.2810 C   0  0  0  0  0  2  0  0  0  0  0  0
  183.4370  178.8280  145.5420 N   0  0  0  0  0  0  0  0  0  0  0  0
  182.9730  176.1470  138.4810 O   0  0  0  0  0  1  0  0  0  0  0  0
  187.3160  177.0480  143.0470 C   0  0  0  0  0  2  0  0  0  0  0  0
  189.8300  177.3040  142.5870 C   0  0  0  0  0  2  0  0  0  0  0  0
  188.7430  176.9150  143.5600 C   0  0  0  0  0  0  0  0  0  0  0  0
  189.5530  175.8350  142.8840 C   0  0  0  0  0  2  0  0  0  0  0  0
  189.0700  177.1330  145.0280 C   0  0  0  0  0  2  0  0  0  0  0  0
  190.5000  176.9880  145.2470 N   0  0  0  0  0  2  0  0  0  0  0  0
  189.4210  176.7850  147.4050 C   0  0  0  0  0  1  0  0  0  0  0  0
  191.7500  176.0220  147.0910 C   0  0  0  0  0  1  0  0  0  0  0  0
  190.7230  177.0580  146.6810 C   0  0  0  0  0  3  0  0  0  0  0  0
  1 12  1  0  0  0  0
  2 14  1  0  0  0  0
  3  8  1  0  0  0  0
  4  7  1  0  0  0  0
  5  2  2  0  0  0  0
  7  3  1  0  0  0  0
  7  1  2  0  0  0  0
  8 17  1  6  0  0  0
  8 11  1  0  0  0  0
  9  5  1  0  0  0  0
  9  4  2  0  0  0  0
 10  6  2  0  0  0  0
 11 10  1  0  0  0  0
 12 11  2  0  0  0  0
 12 13  1  0  0  0  0
 13 15  2  0  0  0  0
 14  1  1  0  0  0  0
 15  6  1  0  0  0  0
 16  5  1  0  0  0  0
 17 19  1  0  0  0  0
 18 20  1  0  0  0  0
 18 19  1  0  0  0  0
 19 21  1  0  0  0  0
 20 19  1  0  0  0  0
 21 22  1  0  0  0  0
 22 25  1  0  0  0  0
 25 24  1  0  0  0  0
 25 23  1  0  0  0  0
M  END
>  <MODEL>
4

>  <REMARK>
 VINA RESULT:      -7.8      2.258      6.780
  Name = 
  5 active torsions:
  status: ('A' for Active; 'I' for Inactive)
    1  A    between atoms: C_10  and  C_19
    2  A    between atoms: N_12  and  C_14
    3  A    between atoms: N_12  and  C_15
    4  A    between atoms: C_13  and  C_15
    5  A    between atoms: C_13  and  C_19
                            x       y       z     vdW  Elec       q    Type
                         _______ _______ _______ _____ _____    ______ ____

>  <TORSDO>
F 5

$$$$
=
 OpenBabel10232409443D

 25 28  0  0  1  0  0  0  0  0999 V2000
  187.9210  177.5640  144.7380 C   0  0  0  0  0  0  0  0  0  0  0  0
  190.1750  178.4060  145.3160 C   0  0  0  0  0  3  0  0  0  0  0  0
  187.0270  176.8580  142.6500 O   0  0  0  0  0  0  0  0  0  0  0  0
  189.4130  176.4660  143.0680 C   0  0  0  0  0  3  0  0  0  0  0  0
  190.9170  178.0890  144.2550 C   0  0  0  0  0  0  0  0  0  0  0  0
  183.9910  178.8040  145.8300 C   0  0  0  0  0  3  0  0  0  0  0  0
  188.1120  176.9990  143.5280 C   0  0  0  0  0  0  0  0  0  0  0  0
  185.8410  177.6560  142.7330 C   0  0  1  0  0  3  0  0  0  0  0  0
  190.6260  176.9400  143.3770 C   0  0  0  0  0  3  0  0  0  0  0  0
  184.2440  178.4140  144.5140 C   0  0  0  0  0  3  0  0  0  0  0  0
  185.5350  178.0160  144.1550 C   0  0  0  0  0  0  0  0  0  0  0  0
  186.5610  178.0180  145.1120 C   0  0  0  0  0  0  0  0  0  0  0  0
  186.2600  178.4220  146.4200 C   0  0  0  0  0  3  0  0  0  0  0  0
  189.0110  177.5900  145.7670 C   0  0  0  0  0  2  0  0  0  0  0  0
  184.9960  178.8020  146.7470 N   0  0  0  0  0  0  0  0  0  0  0  0
  192.0390  178.8590  143.9800 O   0  0  0  0  0  1  0  0  0  0  0  0
  186.0180  178.9310  141.9120 C   0  0  0  0  0  2  0  0  0  0  0  0
  184.3460  179.5560  140.0650 C   0  0  0  0  0  2  0  0  0  0  0  0
  185.5450  178.7380  140.4780 C   0  0  0  0  0  0  0  0  0  0  0  0
  184.2000  178.0650  140.3480 C   0  0  0  0  0  2  0  0  0  0  0  0
  186.5300  178.4140  139.3660 C   0  0  0  0  0  2  0  0  0  0  0  0
  187.8910  178.6490  139.8220 N   0  0  0  0  0  2  0  0  0  0  0  0
  189.0180  178.7780  137.6830 C   0  0  0  0  0  1  0  0  0  0  0  0
  190.0980  177.6610  139.6050 C   0  0  0  0  0  1  0  0  0  0  0  0
  188.7740  177.9350  138.9170 C   0  0  0  0  0  3  0  0  0  0  0  0
  1 12  1  0  0  0  0
  1 14  1  0  0  0  0
  2 14  1  0  0  0  0
  3  8  1  0  0  0  0
  3  7  1  0  0  0  0
  4  9  2  0  0  0  0
  4  7  1  0  0  0  0
  5  2  2  0  0  0  0
  6 15  1  0  0  0  0
  7  1  2  0  0  0  0
  8 17  1  6  0  0  0
  8 11  1  0  0  0  0
  9  5  1  0  0  0  0
 10  6  2  0  0  0  0
 11 10  1  0  0  0  0
 11 12  2  0  0  0  0
 12 13  1  0  0  0  0
 13 15  2  0  0  0  0
 16  5  1  0  0  0  0
 18 20  1  0  0  0  0
 18 19  1  0  0  0  0
 19 17  1  0  0  0  0
 20 19  1  0  0  0  0
 21 22  1  0  0  0  0
 21 19  1  0  0  0  0
 23 25  1  0  0  0  0
 25 24  1  0  0  0  0
 25 22  1  0  0  0  0
M  END
>  <MODEL>
5

>  <REMARK>
 VINA RESULT:      -7.6      2.050      3.401
  Name = 
  5 active torsions:
  status: ('A' for Active; 'I' for Inactive)
    1  A    between atoms: C_10  and  C_19
    2  A    between atoms: N_12  and  C_14
    3  A    between atoms: N_12  and  C_15
    4  A    between atoms: C_13  and  C_15
    5  A    between atoms: C_13  and  C_19
                            x       y       z     vdW  Elec       q    Type
                         _______ _______ _______ _____ _____    ______ ____

>  <TORSDO>
F 5

$$$$
=
 OpenBabel10232409443D

 25 28  0  0  1  0  0  0  0  0999 V2000
  188.6390  177.8600  139.4460 C   0  0  0  0  0  0  0  0  0  0  0  0
  189.4380  176.1340  137.8620 C   0  0  0  0  0  3  0  0  0  0  0  0
  189.3800  178.4000  141.6410 O   0  0  0  0  0  0  0  0  0  0  0  0
  191.0450  177.5750  140.0380 C   0  0  0  0  0  3  0  0  0  0  0  0
  190.6080  175.7490  138.3710 C   0  0  0  0  0  0  0  0  0  0  0  0
  184.7480  179.1610  140.6010 C   0  0  0  0  0  3  0  0  0  0  0  0
  189.6420  177.9300  140.3460 C   0  0  0  0  0  0  0  0  0  0  0  0
  188.0760  178.3850  142.2320 C   0  0  1  0  0  3  0  0  0  0  0  0
  191.4640  176.6290  139.1890 C   0  0  0  0  0  3  0  0  0  0  0  0
  185.7420  179.0300  141.5730 C   0  0  0  0  0  3  0  0  0  0  0  0
  187.0140  178.5950  141.1940 C   0  0  0  0  0  0  0  0  0  0  0  0
  187.2800  178.2880  139.8510 C   0  0  0  0  0  0  0  0  0  0  0  0
  186.2490  178.4310  138.9120 C   0  0  0  0  0  3  0  0  0  0  0  0
  188.9020  177.5180  138.0100 C   0  0  0  0  0  2  0  0  0  0  0  0
  185.0190  178.8600  139.3030 N   0  0  0  0  0  0  0  0  0  0  0  0
  191.0610  174.4670  138.0910 O   0  0  0  0  0  1  0  0  0  0  0  0
  187.8420  177.0520  142.9370 C   0  0  0  0  0  2  0  0  0  0  0  0
  186.5660  176.9710  145.1650 C   0  0  0  0  0  2  0  0  0  0  0  0
  187.8740  177.2120  144.4510 C   0  0  0  0  0  0  0  0  0  0  0  0
  187.0880  178.3900  144.9720 C   0  0  0  0  0  2  0  0  0  0  0  0
  189.1250  176.8780  145.2460 C   0  0  0  0  0  2  0  0  0  0  0  0
  190.1400  177.8960  145.0280 N   0  0  0  0  0  2  0  0  0  0  0  0
  191.6580  176.4180  146.2020 C   0  0  0  0  0  1  0  0  0  0  0  0
  191.4080  176.2680  143.7480 C   0  0  0  0  0  1  0  0  0  0  0  0
  191.4180  177.2120  144.9350 C   0  0  0  0  0  3  0  0  0  0  0  0
  1 12  1  0  0  0  0
  1  7  2  0  0  0  0
  2 14  1  0  0  0  0
  2  5  2  0  0  0  0
  3  8  1  0  0  0  0
  4  7  1  0  0  0  0
  5  9  1  0  0  0  0
  6 10  1  0  0  0  0
  7  3  1  0  0  0  0
  8 17  1  6  0  0  0
  9  4  2  0  0  0  0
 11 10  2  0  0  0  0
 11  8  1  0  0  0  0
 12 11  1  0  0  0  0
 13 15  1  0  0  0  0
 13 12  2  0  0  0  0
 14  1  1  0  0  0  0
 15  6  2  0  0  0  0
 16  5  1  0  0  0  0
 17 19  1  0  0  0  0
 19 20  1  0  0  0  0
 19 18  1  0  0  0  0
 19 21  1  0  0  0  0
 20 18  1  0  0  0  0
 22 21  1  0  0  0  0
 24 25  1  0  0  0  0
 25 22  1  0  0  0  0
 25 23  1  0  0  0  0
M  END
>  <MODEL>
6

>  <REMARK>
 VINA RESULT:      -7.5      2.593      6.251
  Name = 
  5 active torsions:
  status: ('A' for Active; 'I' for Inactive)
    1  A    between atoms: C_10  and  C_19
    2  A    between atoms: N_12  and  C_14
    3  A    between atoms: N_12  and  C_15
    4  A    between atoms: C_13  and  C_15
    5  A    between atoms: C_13  and  C_19
                            x       y       z     vdW  Elec       q    Type
                         _______ _______ _______ _____ _____    ______ ____

>  <TORSDO>
F 5

$$$$
=
 OpenBabel10232409443D

 25 28  0  0  1  0  0  0  0  0999 V2000
  188.7150  177.3970  138.9060 C   0  0  0  0  0  0  0  0  0  0  0  0
  188.9710  175.4950  137.3450 C   0  0  0  0  0  3  0  0  0  0  0  0
  189.9990  178.0130  140.8120 O   0  0  0  0  0  0  0  0  0  0  0  0
  191.1610  176.9170  138.9500 C   0  0  0  0  0  3  0  0  0  0  0  0
  190.1940  175.0320  137.6020 C   0  0  0  0  0  0  0  0  0  0  0  0
  185.3290  179.1570  140.8080 C   0  0  0  0  0  3  0  0  0  0  0  0
  189.9060  177.4300  139.5400 C   0  0  0  0  0  0  0  0  0  0  0  0
  188.8760  178.1690  141.6880 C   0  0  1  0  0  3  0  0  0  0  0  0
  191.2880  175.8770  138.1170 C   0  0  0  0  0  3  0  0  0  0  0  0
  186.5120  178.9950  141.5310 C   0  0  0  0  0  3  0  0  0  0  0  0
  187.6190  178.4110  140.9090 C   0  0  0  0  0  0  0  0  0  0  0  0
  187.5310  177.9860  139.5750 C   0  0  0  0  0  0  0  0  0  0  0  0
  186.3200  178.1660  138.8910 C   0  0  0  0  0  3  0  0  0  0  0  0
  188.5990  176.9330  137.4860 C   0  0  0  0  0  2  0  0  0  0  0  0
  185.2580  178.7410  139.5150 N   0  0  0  0  0  0  0  0  0  0  0  0
  190.4620  173.6950  137.3430 O   0  0  0  0  0  1  0  0  0  0  0  0
  188.7120  176.9180  142.5460 C   0  0  0  0  0  2  0  0  0  0  0  0
  190.0270  178.3420  144.2320 C   0  0  0  0  0  2  0  0  0  0  0  0
  189.0820  177.1890  143.9980 C   0  0  0  0  0  0  0  0  0  0  0  0
  190.5250  176.9050  144.3390 C   0  0  0  0  0  2  0  0  0  0  0  0
  188.0950  176.9130  145.1210 C   0  0  0  0  0  2  0  0  0  0  0  0
  186.7680  177.3670  144.7400 N   0  0  0  0  0  2  0  0  0  0  0  0
  187.1360  178.0420  147.0360 C   0  0  0  0  0  1  0  0  0  0  0  0
  185.3610  179.1060  145.6850 C   0  0  0  0  0  1  0  0  0  0  0  0
  186.1040  177.8110  145.9530 C   0  0  0  0  0  3  0  0  0  0  0  0
  1  7  2  0  0  0  0
  1 12  1  0  0  0  0
  2 14  1  0  0  0  0
  2  5  2  0  0  0  0
  3  8  1  0  0  0  0
  4  7  1  0  0  0  0
  5  9  1  0  0  0  0
  6 10  1  0  0  0  0
  7  3  1  0  0  0  0
  8 17  1  6  0  0  0
  9  4  2  0  0  0  0
 11 10  2  0  0  0  0
 11  8  1  0  0  0  0
 12 11  1  0  0  0  0
 13 15  1  0  0  0  0
 13 12  2  0  0  0  0
 14  1  1  0  0  0  0
 15  6  2  0  0  0  0
 16  5  1  0  0  0  0
 17 19  1  0  0  0  0
 18 20  1  0  0  0  0
 19 18  1  0  0  0  0
 19 20  1  0  0  0  0
 19 21  1  0  0  0  0
 22 21  1  0  0  0  0
 22 25  1  0  0  0  0
 24 25  1  0  0  0  0
 25 23  1  0  0  0  0
M  END
>  <MODEL>
7

>  <REMARK>
 VINA RESULT:      -7.4      2.978      6.213
  Name = 
  5 active torsions:
  status: ('A' for Active; 'I' for Inactive)
    1  A    between atoms: C_10  and  C_19
    2  A    between atoms: N_12  and  C_14
    3  A    between atoms: N_12  and  C_15
    4  A    between atoms: C_13  and  C_15
    5  A    between atoms: C_13  and  C_19
                            x       y       z     vdW  Elec       q    Type
                         _______ _______ _______ _____ _____    ______ ____

>  <TORSDO>
F 5

$$$$
=
 OpenBabel10232409443D

 25 28  0  0  1  0  0  0  0  0999 V2000
  190.5760  177.5220  142.1780 C   0  0  0  0  0  0  0  0  0  0  0  0
  191.9030  176.0950  143.7040 C   0  0  0  0  0  3  0  0  0  0  0  0
  188.7700  179.0020  142.6320 O   0  0  0  0  0  0  0  0  0  0  0  0
  190.5000  178.7420  144.3520 C   0  0  0  0  0  3  0  0  0  0  0  0
  191.6050  176.5590  144.9170 C   0  0  0  0  0  0  0  0  0  0  0  0
  188.8650  176.8520  138.3320 C   0  0  0  0  0  3  0  0  0  0  0  0
  189.9630  178.3770  143.0230 C   0  0  0  0  0  0  0  0  0  0  0  0
  187.9080  178.4800  141.6130 C   0  0  1  0  0  3  0  0  0  0  0  0
  191.2050  177.9560  145.1740 C   0  0  0  0  0  3  0  0  0  0  0  0
  188.1390  177.5640  139.2890 C   0  0  0  0  0  3  0  0  0  0  0  0
  188.6980  177.7760  140.5520 C   0  0  0  0  0  0  0  0  0  0  0  0
  189.9710  177.2680  140.8500 C   0  0  0  0  0  0  0  0  0  0  0  0
  190.6600  176.5560  139.8580 C   0  0  0  0  0  3  0  0  0  0  0  0
  191.9300  176.9580  142.4870 C   0  0  0  0  0  2  0  0  0  0  0  0
  190.0980  176.3660  138.6340 N   0  0  0  0  0  0  0  0  0  0  0  0
  191.7060  175.6950  145.9980 O   0  0  0  0  0  1  0  0  0  0  0  0
  186.9060  177.5100  142.2310 C   0  0  0  0  0  2  0  0  0  0  0  0
  184.4190  178.1380  142.0770 C   0  0  0  0  0  2  0  0  0  0  0  0
  185.7190  178.2480  142.8370 C   0  0  0  0  0  0  0  0  0  0  0  0
  185.2350  179.4250  142.0260 C   0  0  0  0  0  2  0  0  0  0  0  0
  185.5850  178.4120  144.3420 C   0  0  0  0  0  2  0  0  0  0  0  0
  186.7640  177.8800  145.0070 N   0  0  0  0  0  2  0  0  0  0  0  0
  187.5210  178.0160  147.3040 C   0  0  0  0  0  1  0  0  0  0  0  0
  185.1440  178.3920  146.7420 C   0  0  0  0  0  1  0  0  0  0  0  0
  186.3900  177.6060  146.3840 C   0  0  0  0  0  3  0  0  0  0  0  0
  1 14  1  0  0  0  0
  1  7  2  0  0  0  0
  2  5  2  0  0  0  0
  3  7  1  0  0  0  0
  4  9  2  0  0  0  0
  5  9  1  0  0  0  0
  5 16  1  0  0  0  0
  6 15  2  0  0  0  0
  6 10  1  0  0  0  0
  7  4  1  0  0  0  0
  8 17  1  1  0  0  0
  8  3  1  0  0  0  0
 10 11  2  0  0  0  0
 11 12  1  0  0  0  0
 11  8  1  0  0  0  0
 12  1  1  0  0  0  0
 13 12  2  0  0  0  0
 14  2  1  0  0  0  0
 15 13  1  0  0  0  0
 17 19  1  0  0  0  0
 18 19  1  0  0  0  0
 19 21  1  0  0  0  0
 20 18  1  0  0  0  0
 20 19  1  0  0  0  0
 21 22  1  0  0  0  0
 22 25  1  0  0  0  0
 25 24  1  0  0  0  0
 25 23  1  0  0  0  0
M  END
>  <MODEL>
8

>  <REMARK>
 VINA RESULT:      -7.2      2.613      5.366
  Name = 
  5 active torsions:
  status: ('A' for Active; 'I' for Inactive)
    1  A    between atoms: C_10  and  C_19
    2  A    between atoms: N_12  and  C_14
    3  A    between atoms: N_12  and  C_15
    4  A    between atoms: C_13  and  C_15
    5  A    between atoms: C_13  and  C_19
                            x       y       z     vdW  Elec       q    Type
                         _______ _______ _______ _____ _____    ______ ____

>  <TORSDO>
F 5

$$$$
=
 OpenBabel10232409443D

 25 28  0  0  1  0  0  0  0  0999 V2000
  183.9740  178.6800  141.9840 C   0  0  0  0  0  0  0  0  0  0  0  0
  182.2820  177.4610  140.6520 C   0  0  0  0  0  3  0  0  0  0  0  0
  186.2920  179.0330  141.5840 O   0  0  0  0  0  0  0  0  0  0  0  0
  184.8010  178.8870  139.6410 C   0  0  0  0  0  3  0  0  0  0  0  0
  182.8690  177.2910  139.4670 C   0  0  0  0  0  0  0  0  0  0  0  0
  184.8280  178.8250  146.1580 C   0  0  0  0  0  3  0  0  0  0  0  0
  184.9860  178.8460  141.1070 C   0  0  0  0  0  0  0  0  0  0  0  0
  186.7200  178.6180  142.8860 C   0  0  1  0  0  3  0  0  0  0  0  0
  183.8900  178.2110  138.9300 C   0  0  0  0  0  3  0  0  0  0  0  0
  185.8830  178.7840  145.2460 C   0  0  0  0  0  3  0  0  0  0  0  0
  185.6020  178.7280  143.8780 C   0  0  0  0  0  0  0  0  0  0  0  0
  184.2700  178.7060  143.4360 C   0  0  0  0  0  0  0  0  0  0  0  0
  183.2440  178.7440  144.3900 C   0  0  0  0  0  3  0  0  0  0  0  0
  182.5470  178.6390  141.5290 C   0  0  0  0  0  2  0  0  0  0  0  0
  183.5420  178.8020  145.7160 N   0  0  0  0  0  0  0  0  0  0  0  0
  182.4790  176.2130  138.6850 O   0  0  0  0  0  1  0  0  0  0  0  0
  187.2130  177.1750  142.8320 C   0  0  0  0  0  2  0  0  0  0  0  0
  189.3430  175.7780  143.1690 C   0  0  0  0  0  2  0  0  0  0  0  0
  188.7330  177.1080  142.7950 C   0  0  0  0  0  0  0  0  0  0  0  0
  189.3860  176.9470  144.1470 C   0  0  0  0  0  2  0  0  0  0  0  0
  189.5280  177.9350  141.7980 C   0  0  0  0  0  2  0  0  0  0  0  0
  190.3490  177.0650  140.9710 N   0  0  0  0  0  2  0  0  0  0  0  0
  190.2720  176.3560  138.6570 C   0  0  0  0  0  1  0  0  0  0  0  0
  188.9140  178.2710  139.4290 C   0  0  0  0  0  1  0  0  0  0  0  0
  190.2290  177.5380  139.6030 C   0  0  0  0  0  3  0  0  0  0  0  0
  1 12  1  0  0  0  0
  2 14  1  0  0  0  0
  3  8  1  0  0  0  0
  4  7  1  0  0  0  0
  5  2  2  0  0  0  0
  7  3  1  0  0  0  0
  7  1  2  0  0  0  0
  8 17  1  6  0  0  0
  8 11  1  0  0  0  0
  9  5  1  0  0  0  0
  9  4  2  0  0  0  0
 10  6  2  0  0  0  0
 11 10  1  0  0  0  0
 12 11  2  0  0  0  0
 12 13  1  0  0  0  0
 13 15  2  0  0  0  0
 14  1  1  0  0  0  0
 15  6  1  0  0  0  0
 16  5  1  0  0  0  0
 18 20  1  0  0  0  0
 19 17  1  0  0  0  0
 19 18  1  0  0  0  0
 19 20  1  0  0  0  0
 21 19  1  0  0  0  0
 22 21  1  0  0  0  0
 23 25  1  0  0  0  0
 24 25  1  0  0  0  0
 25 22  1  0  0  0  0
M  END
>  <MODEL>
9

>  <REMARK>
 VINA RESULT:      -7.2      2.687      6.209
  Name = 
  5 active torsions:
  status: ('A' for Active; 'I' for Inactive)
    1  A    between atoms: C_10  and  C_19
    2  A    between atoms: N_12  and  C_14
    3  A    between atoms: N_12  and  C_15
    4  A    between atoms: C_13  and  C_15
    5  A    between atoms: C_13  and  C_19
                            x       y       z     vdW  Elec       q    Type
                         _______ _______ _______ _____ _____    ______ ____

>  <TORSDO>
F 5

$$$$
