=
 OpenBabel10222422063D

 31 36  0  0  1  0  0  0  0  0999 V2000
  186.9970  178.6260  139.8170 C   0  0  0  0  0  3  0  0  0  0  0  0
  186.6960  178.9130  145.8880 C   0  0  2  0  0  3  0  0  0  0  0  0
  191.2930  177.0760  145.3380 C   0  0  0  0  0  2  0  0  0  0  0  0
  187.1470  177.2870  143.9620 C   0  0  1  0  0  3  0  0  0  0  0  0
  186.0760  179.0770  140.8150 O   0  0  0  0  0  0  0  0  0  0  0  0
  190.8120  176.1920  144.1930 C   0  0  0  0  0  2  0  0  0  0  0  0
  189.3950  177.7790  139.5290 C   0  0  0  0  0  2  0  0  0  0  0  0
  184.8640  178.3360  144.2400 C   0  0  0  0  0  0  0  0  0  0  0  0
  190.4840  177.1230  139.9370 C   0  0  0  0  0  0  0  0  0  0  0  0
  185.7060  179.3870  146.8430 N   0  0  0  0  0  1  0  0  0  0  0  0
  189.5740  176.7820  143.5810 C   0  0  2  0  0  3  0  0  0  0  0  0
  190.1680  177.3050  146.3400 C   0  0  0  0  0  2  0  0  0  0  0  0
  186.1000  177.8550  144.9530 C   0  0  2  0  0  3  0  0  0  0  0  0
  187.1180  177.8920  142.5820 C   0  0  0  0  0  0  0  0  0  0  0  0
  183.6930  178.3360  144.8610 C   0  0  0  0  0  2  0  0  0  0  0  0
  187.8690  178.3050  146.6440 C   0  0  2  0  0  3  0  0  0  0  0  0
  188.2380  178.0150  140.4080 C   0  0  0  0  0  0  0  0  0  0  0  0
  184.9350  178.7830  142.9200 O   0  0  0  0  0  0  0  0  0  0  0  0
  188.2680  177.6330  141.6950 C   0  0  0  0  0  0  0  0  0  0  0  0
  189.4710  176.9680  142.2510 C   0  0  0  0  0  0  0  0  0  0  0  0
  188.9890  178.0030  145.6540 C   0  0  2  0  0  3  0  0  0  0  0  0
  188.5360  177.2520  144.4690 N   0  0  1  0  0  0  0  0  0  0  0  0
  186.0600  178.5720  142.1210 C   0  0  0  0  0  0  0  0  0  0  0  0
  190.5660  176.5130  141.3180 C   0  0  0  0  0  3  0  0  0  0  0  0
  187.8590  177.3610  148.6530 C   0  0  0  0  0  1  0  0  0  0  0  0
  187.4750  177.1450  147.3290 O   0  0  0  0  0  0  0  0  0  0  0  0
  191.5580  176.9520  139.0090 N   0  0  0  0  0  2  0  0  0  0  0  0
  193.1720  175.4790  137.1700 C   0  0  0  0  0  1  0  0  0  0  0  0
  190.7440  176.4150  136.5450 O   0  0  0  0  0  0  0  0  0  0  0  0
  190.8600  174.5480  138.1420 O   0  0  0  0  0  0  0  0  0  0  0  0
  191.5110  175.8260  137.6950 S   0  0  0  0  0  0  0  0  0  0  0  0
  1 17  2  0  0  0  0
  1  5  1  0  0  0  0
  2 16  1  0  0  0  0
  2 10  1  1  0  0  0
  3 12  1  0  0  0  0
  4 14  1  6  0  0  0
  4 22  1  0  0  0  0
  4 13  1  0  0  0  0
  5 23  1  0  0  0  0
  6  3  1  0  0  0  0
  7  9  1  0  0  0  0
  7 17  1  0  0  0  0
  8 15  2  0  0  0  0
  9 24  2  0  0  0  0
 11  6  1  1  0  0  0
 11 22  1  0  0  0  0
 13  8  1  6  0  0  0
 13  2  1  0  0  0  0
 16 26  1  6  0  0  0
 17 19  1  0  0  0  0
 18  8  1  0  0  0  0
 19 20  2  0  0  0  0
 19 14  1  0  0  0  0
 20 11  1  0  0  0  0
 21 12  1  1  0  0  0
 21 16  1  0  0  0  0
 22 21  1  0  0  0  0
 23 14  2  0  0  0  0
 23 18  1  0  0  0  0
 24 20  1  0  0  0  0
 26 25  1  0  0  0  0
 27  9  1  0  0  0  0
 28 31  1  0  0  0  0
 29 31  2  0  0  0  0
 31 30  2  0  0  0  0
 31 27  1  0  0  0  0
M  END
>  <MODEL>
1

>  <REMARK>
 VINA RESULT:      -9.4      0.000      0.000
  Name = 
  3 active torsions:
  status: ('A' for Active; 'I' for Inactive)
    1  A    between atoms: N_1  and  C_13
    2  A    between atoms: N_1  and  S_24
    3  A    between atoms: C_20  and  O_30
                            x       y       z     vdW  Elec       q    Type
                         _______ _______ _______ _____ _____    ______ ____

>  <TORSDO>
F 3

$$$$
=
 OpenBabel10222422063D

 31 36  0  0  1  0  0  0  0  0999 V2000
  184.9000  178.6650  147.0320 C   0  0  0  0  0  3  0  0  0  0  0  0
  190.4320  178.1300  144.5520 C   0  0  2  0  0  3  0  0  0  0  0  0
  187.7080  178.8270  140.4410 C   0  0  0  0  0  2  0  0  0  0  0  0
  188.0710  177.1410  144.4600 C   0  0  1  0  0  3  0  0  0  0  0  0
  186.2520  178.5030  147.4730 O   0  0  0  0  0  0  0  0  0  0  0  0
  186.6030  177.9480  141.0130 C   0  0  0  0  0  2  0  0  0  0  0  0
  183.5130  179.1250  144.9310 C   0  0  0  0  0  3  0  0  0  0  0  0
  189.4710  176.9120  146.5520 C   0  0  0  0  0  0  0  0  0  0  0  0
  183.2720  179.0420  143.6200 C   0  0  0  0  0  0  0  0  0  0  0  0
  191.7780  177.9590  145.0780 N   0  0  0  0  0  1  0  0  0  0  0  0
  186.6980  177.9210  142.5120 C   0  0  2  0  0  3  0  0  0  0  0  0
  189.0680  178.3740  140.9570 C   0  0  0  0  0  2  0  0  0  0  0  0
  189.5000  177.0200  145.0500 C   0  0  2  0  0  3  0  0  0  0  0  0
  187.0570  177.7960  145.3610 C   0  0  0  0  0  0  0  0  0  0  0  0
  190.4420  176.2780  147.1930 C   0  0  0  0  0  2  0  0  0  0  0  0
  190.4810  178.0930  143.0310 C   0  0  2  0  0  3  0  0  0  0  0  0
  184.7780  178.6750  145.5320 C   0  0  0  0  0  0  0  0  0  0  0  0
  188.4250  177.4730  147.2840 O   0  0  0  0  0  0  0  0  0  0  0  0
  185.7800  178.2230  144.7600 C   0  0  1  0  0  3  0  0  0  0  0  0
  185.6250  178.1730  143.2860 C   0  0  0  0  0  0  0  0  0  0  0  0
  189.1100  178.4790  142.4850 C   0  0  2  0  0  3  0  0  0  0  0  0
  188.0010  177.7320  143.1050 N   0  0  1  0  0  0  0  0  0  0  0  0
  187.2480  177.9200  146.6810 C   0  0  0  0  0  0  0  0  0  0  0  0
  184.2660  178.4080  142.6740 C   0  0  0  0  0  3  0  0  0  0  0  0
  191.9810  177.0530  141.7670 C   0  0  0  0  0  1  0  0  0  0  0  0
  190.8660  176.8230  142.5740 O   0  0  0  0  0  0  0  0  0  0  0  0
  182.0140  179.5140  143.1320 N   0  0  0  0  0  2  0  0  0  0  0  0
  180.2440  179.9580  140.9340 C   0  0  0  0  0  1  0  0  0  0  0  0
  180.1500  177.7560  142.4520 O   0  0  0  0  0  0  0  0  0  0  0  0
  182.0800  178.0130  140.9500 O   0  0  0  0  0  0  0  0  0  0  0  0
  181.1300  178.7320  141.8650 S   0  0  0  0  0  0  0  0  0  0  0  0
  1  5  1  0  0  0  0
  2 13  1  0  0  0  0
  2 10  1  1  0  0  0
  3 12  1  0  0  0  0
  3  6  1  0  0  0  0
  4 13  1  0  0  0  0
  4 14  1  1  0  0  0
  7 17  1  0  0  0  0
  8 15  2  0  0  0  0
  8 18  1  0  0  0  0
  9  7  2  0  0  0  0
 11  6  1  6  0  0  0
 11 22  1  0  0  0  0
 11 20  1  0  0  0  0
 13  8  1  1  0  0  0
 14 23  2  0  0  0  0
 16 26  1  1  0  0  0
 16  2  1  0  0  0  0
 17  1  2  0  0  0  0
 19 20  1  6  0  0  0
 19 14  1  0  0  0  0
 19 17  1  0  0  0  0
 21 12  1  6  0  0  0
 21 16  1  0  0  0  0
 21 22  1  0  0  0  0
 22  4  1  0  0  0  0
 23 18  1  0  0  0  0
 23  5  1  0  0  0  0
 24 20  2  0  0  0  0
 24  9  1  0  0  0  0
 25 26  1  0  0  0  0
 27  9  1  0  0  0  0
 28 31  1  0  0  0  0
 30 31  2  0  0  0  0
 31 29  2  0  0  0  0
 31 27  1  0  0  0  0
M  END
>  <MODEL>
2

>  <REMARK>
 VINA RESULT:      -8.9      3.322      6.983
  Name = 
  3 active torsions:
  status: ('A' for Active; 'I' for Inactive)
    1  A    between atoms: N_1  and  C_13
    2  A    between atoms: N_1  and  S_24
    3  A    between atoms: C_20  and  O_30
                            x       y       z     vdW  Elec       q    Type
                         _______ _______ _______ _____ _____    ______ ____

>  <TORSDO>
F 3

$$$$
=
 OpenBabel10222422063D

 31 36  0  0  1  0  0  0  0  0999 V2000
  187.0550  177.6480  137.3090 C   0  0  0  0  0  3  0  0  0  0  0  0
  189.4590  176.5130  142.7840 C   0  0  2  0  0  3  0  0  0  0  0  0
  184.9490  178.1350  144.1410 C   0  0  0  0  0  2  0  0  0  0  0  0
  188.3540  178.3690  141.4060 C   0  0  1  0  0  3  0  0  0  0  0  0
  188.2700  177.1140  137.8470 O   0  0  0  0  0  0  0  0  0  0  0  0
  184.9950  179.2000  143.0520 C   0  0  0  0  0  2  0  0  0  0  0  0
  184.7030  178.3840  137.9990 C   0  0  0  0  0  2  0  0  0  0  0  0
  190.5960  177.4280  140.7160 C   0  0  0  0  0  0  0  0  0  0  0  0
  183.8220  178.9090  138.8530 C   0  0  0  0  0  0  0  0  0  0  0  0
  190.7230  175.9670  143.2540 N   0  0  0  0  0  1  0  0  0  0  0  0
  185.9450  178.7790  141.9680 C   0  0  2  0  0  3  0  0  0  0  0  0
  186.3550  177.8320  144.6460 C   0  0  0  0  0  2  0  0  0  0  0  0
  189.6850  177.7270  141.8770 C   0  0  2  0  0  3  0  0  0  0  0  0
  187.9030  177.9700  140.0250 C   0  0  0  0  0  0  0  0  0  0  0  0
  191.9110  177.4080  140.8880 C   0  0  0  0  0  2  0  0  0  0  0  0
  188.6210  176.9360  143.9810 C   0  0  2  0  0  3  0  0  0  0  0  0
  186.0950  178.0940  138.3790 C   0  0  0  0  0  0  0  0  0  0  0  0
  190.0720  177.1710  139.4490 O   0  0  0  0  0  0  0  0  0  0  0  0
  186.5140  178.2850  139.6400 C   0  0  0  0  0  0  0  0  0  0  0  0
  185.5780  178.7910  140.6720 C   0  0  0  0  0  0  0  0  0  0  0  0
  187.2240  177.3100  143.4970 C   0  0  2  0  0  3  0  0  0  0  0  0
  187.2300  178.2490  142.3600 N   0  0  1  0  0  0  0  0  0  0  0  0
  188.7370  177.4270  139.1290 C   0  0  0  0  0  0  0  0  0  0  0  0
  184.2230  179.3090  140.2550 C   0  0  0  0  0  3  0  0  0  0  0  0
  189.5110  177.5120  145.9310 C   0  0  0  0  0  1  0  0  0  0  0  0
  189.2220  178.0080  144.6590 O   0  0  0  0  0  0  0  0  0  0  0  0
  182.4900  179.1470  138.3910 N   0  0  0  0  0  2  0  0  0  0  0  0
  180.5300  180.8000  139.6500 C   0  0  0  0  0  1  0  0  0  0  0  0
  181.0960  180.9500  137.0390 O   0  0  0  0  0  0  0  0  0  0  0  0
  182.7980  181.7690  138.6140 O   0  0  0  0  0  0  0  0  0  0  0  0
  181.7560  180.7150  138.3680 S   0  0  0  0  0  0  0  0  0  0  0  0
  1  5  1  0  0  0  0
  1 17  2  0  0  0  0
  2 10  1  1  0  0  0
  2 16  1  0  0  0  0
  3 12  1  0  0  0  0
  4 14  1  6  0  0  0
  4 13  1  0  0  0  0
  4 22  1  0  0  0  0
  5 23  1  0  0  0  0
  6  3  1  0  0  0  0
  7 17  1  0  0  0  0
  7  9  1  0  0  0  0
  8 15  2  0  0  0  0
  9 24  2  0  0  0  0
 11 22  1  0  0  0  0
 11  6  1  1  0  0  0
 13  8  1  6  0  0  0
 13  2  1  0  0  0  0
 16 26  1  6  0  0  0
 17 19  1  0  0  0  0
 18  8  1  0  0  0  0
 19 14  1  0  0  0  0
 19 20  2  0  0  0  0
 20 11  1  0  0  0  0
 21 16  1  0  0  0  0
 21 12  1  1  0  0  0
 22 21  1  0  0  0  0
 23 18  1  0  0  0  0
 23 14  2  0  0  0  0
 24 20  1  0  0  0  0
 26 25  1  0  0  0  0
 27  9  1  0  0  0  0
 29 31  2  0  0  0  0
 31 27  1  0  0  0  0
 31 30  2  0  0  0  0
 31 28  1  0  0  0  0
M  END
>  <MODEL>
3

>  <REMARK>
 VINA RESULT:      -8.7      3.584      6.445
  Name = 
  3 active torsions:
  status: ('A' for Active; 'I' for Inactive)
    1  A    between atoms: N_1  and  C_13
    2  A    between atoms: N_1  and  S_24
    3  A    between atoms: C_20  and  O_30
                            x       y       z     vdW  Elec       q    Type
                         _______ _______ _______ _____ _____    ______ ____

>  <TORSDO>
F 3

$$$$
=
 OpenBabel10222422063D

 31 36  0  0  1  0  0  0  0  0999 V2000
  185.0220  178.1520  144.2230 C   0  0  0  0  0  3  0  0  0  0  0  0
  185.1450  177.6400  138.1600 C   0  0  2  0  0  3  0  0  0  0  0  0
  189.9120  176.6450  139.2060 C   0  0  0  0  0  2  0  0  0  0  0  0
  186.2600  178.8760  140.1070 C   0  0  1  0  0  3  0  0  0  0  0  0
  184.0980  178.2190  143.1310 O   0  0  0  0  0  0  0  0  0  0  0  0
  189.9110  177.7270  140.2800 C   0  0  0  0  0  2  0  0  0  0  0  0
  187.4460  177.5400  144.7710 C   0  0  0  0  0  3  0  0  0  0  0  0
  183.8170  179.2570  139.5840 C   0  0  0  0  0  0  0  0  0  0  0  0
  188.7460  177.4490  144.4810 C   0  0  0  0  0  0  0  0  0  0  0  0
  184.1480  177.7290  137.1040 N   0  0  0  0  0  1  0  0  0  0  0  0
  188.5080  177.9720  140.7540 C   0  0  2  0  0  3  0  0  0  0  0  0
  188.9450  177.0080  138.0860 C   0  0  0  0  0  2  0  0  0  0  0  0
  185.1660  178.9150  139.0090 C   0  0  2  0  0  3  0  0  0  0  0  0
  185.7760  178.4910  141.4810 C   0  0  0  0  0  0  0  0  0  0  0  0
  182.9060  179.8630  138.8340 C   0  0  0  0  0  2  0  0  0  0  0  0
  186.5180  177.4370  137.5350 C   0  0  2  0  0  3  0  0  0  0  0  0
  186.4390  177.9250  143.7690 C   0  0  0  0  0  0  0  0  0  0  0  0
  183.5090  178.9430  140.9080 O   0  0  0  0  0  0  0  0  0  0  0  0
  186.7900  178.1310  142.4900 C   0  0  1  0  0  3  0  0  0  0  0  0
  188.2020  177.9720  142.0660 C   0  0  0  0  0  0  0  0  0  0  0  0
  187.5230  177.1360  138.6420 C   0  0  2  0  0  3  0  0  0  0  0  0
  187.4680  178.0960  139.7590 N   0  0  1  0  0  0  0  0  0  0  0  0
  184.4830  178.5500  141.8270 C   0  0  0  0  0  0  0  0  0  0  0  0
  189.2770  177.8070  143.1120 C   0  0  0  0  0  3  0  0  0  0  0  0
  187.0560  178.1070  135.4890 C   0  0  0  0  0  1  0  0  0  0  0  0
  186.9040  178.5660  136.7970 O   0  0  0  0  0  0  0  0  0  0  0  0
  189.6450  177.0600  145.5220 N   0  0  0  0  0  2  0  0  0  0  0  0
  192.0390  176.0800  146.7350 C   0  0  0  0  0  1  0  0  0  0  0  0
  192.0200  178.1140  144.9960 O   0  0  0  0  0  0  0  0  0  0  0  0
  191.5470  175.8670  144.1140 O   0  0  0  0  0  0  0  0  0  0  0  0
  191.3400  176.8030  145.2710 S   0  0  0  0  0  0  0  0  0  0  0  0
  2 10  1  6  0  0  0
  2 13  1  0  0  0  0
  3  6  1  0  0  0  0
  4 14  1  1  0  0  0
  5  1  1  0  0  0  0
  8 18  1  0  0  0  0
  9  7  2  0  0  0  0
  9 27  1  0  0  0  0
 11  6  1  6  0  0  0
 11 20  1  0  0  0  0
 12  3  1  0  0  0  0
 13  8  1  1  0  0  0
 13  4  1  0  0  0  0
 14 23  2  0  0  0  0
 15  8  2  0  0  0  0
 16 26  1  1  0  0  0
 16  2  1  0  0  0  0
 16 21  1  0  0  0  0
 17  1  2  0  0  0  0
 17  7  1  0  0  0  0
 18 23  1  0  0  0  0
 19 14  1  6  0  0  0
 19 17  1  0  0  0  0
 20 19  1  0  0  0  0
 20 24  2  0  0  0  0
 21 12  1  6  0  0  0
 21 22  1  0  0  0  0
 22  4  1  0  0  0  0
 22 11  1  0  0  0  0
 23  5  1  0  0  0  0
 24  9  1  0  0  0  0
 25 26  1  0  0  0  0
 29 31  2  0  0  0  0
 30 31  2  0  0  0  0
 31 27  1  0  0  0  0
 31 28  1  0  0  0  0
M  END
>  <MODEL>
4

>  <REMARK>
 VINA RESULT:      -8.5      3.145      6.498
  Name = 
  3 active torsions:
  status: ('A' for Active; 'I' for Inactive)
    1  A    between atoms: N_1  and  C_13
    2  A    between atoms: N_1  and  S_24
    3  A    between atoms: C_20  and  O_30
                            x       y       z     vdW  Elec       q    Type
                         _______ _______ _______ _____ _____    ______ ____

>  <TORSDO>
F 3

$$$$
=
 OpenBabel10222422063D

 31 36  0  0  1  0  0  0  0  0999 V2000
  184.8740  179.4330  143.7760 C   0  0  0  0  0  3  0  0  0  0  0  0
  189.7050  177.9750  147.1780 C   0  0  2  0  0  3  0  0  0  0  0  0
  191.4900  176.9240  142.6480 C   0  0  0  0  0  2  0  0  0  0  0  0
  188.1080  177.0170  145.4190 C   0  0  1  0  0  3  0  0  0  0  0  0
  185.2540  179.4730  145.1560 O   0  0  0  0  0  0  0  0  0  0  0  0
  190.1410  176.3450  142.2410 C   0  0  0  0  0  2  0  0  0  0  0  0
  185.8230  178.9910  141.4410 C   0  0  0  0  0  2  0  0  0  0  0  0
  187.2490  177.6670  147.7050 C   0  0  0  0  0  0  0  0  0  0  0  0
  186.6470  178.3810  140.5860 C   0  0  0  0  0  0  0  0  0  0  0  0
  190.0160  178.0420  148.5970 N   0  0  0  0  0  1  0  0  0  0  0  0
  189.0560  176.9300  143.0990 C   0  0  2  0  0  3  0  0  0  0  0  0
  191.7230  176.7290  144.1410 C   0  0  0  0  0  2  0  0  0  0  0  0
  188.4340  177.1570  146.9280 C   0  0  2  0  0  3  0  0  0  0  0  0
  187.0710  177.9750  144.8950 C   0  0  0  0  0  0  0  0  0  0  0  0
  187.1070  177.3550  148.9860 C   0  0  0  0  0  2  0  0  0  0  0  0
  190.8670  177.3230  146.4410 C   0  0  2  0  0  3  0  0  0  0  0  0
  185.9390  178.8320  142.9000 C   0  0  0  0  0  0  0  0  0  0  0  0
  186.2890  178.4700  147.0900 O   0  0  0  0  0  0  0  0  0  0  0  0
  186.9400  178.1120  143.4320 C   0  0  0  0  0  0  0  0  0  0  0  0
  187.9470  177.4670  142.5560 C   0  0  0  0  0  0  0  0  0  0  0  0
  190.6300  177.4450  144.9400 C   0  0  2  0  0  3  0  0  0  0  0  0
  189.2850  177.0070  144.5230 N   0  0  1  0  0  0  0  0  0  0  0  0
  186.2240  178.6260  145.7040 C   0  0  0  0  0  0  0  0  0  0  0  0
  187.7150  177.4240  141.0650 C   0  0  0  0  0  3  0  0  0  0  0  0
  192.2730  175.9050  147.4110 C   0  0  0  0  0  1  0  0  0  0  0  0
  191.0110  175.9800  146.8210 O   0  0  0  0  0  0  0  0  0  0  0  0
  186.4570  178.6050  139.1870 N   0  0  0  0  0  2  0  0  0  0  0  0
  188.0590  176.7800  137.6820 C   0  0  0  0  0  1  0  0  0  0  0  0
  188.9800  179.1320  138.5670 O   0  0  0  0  0  0  0  0  0  0  0  0
  187.3230  179.1770  136.7490 O   0  0  0  0  0  0  0  0  0  0  0  0
  187.7340  178.4930  138.0220 S   0  0  0  0  0  0  0  0  0  0  0  0
  1  5  1  0  0  0  0
  2 10  1  1  0  0  0
  3 12  1  0  0  0  0
  4 14  1  6  0  0  0
  4 13  1  0  0  0  0
  5 23  1  0  0  0  0
  6  3  1  0  0  0  0
  7 17  1  0  0  0  0
  8 15  2  0  0  0  0
  9 24  2  0  0  0  0
  9  7  1  0  0  0  0
 11  6  1  6  0  0  0
 11 22  1  0  0  0  0
 13  2  1  0  0  0  0
 13  8  1  1  0  0  0
 14 23  2  0  0  0  0
 16 26  1  1  0  0  0
 16  2  1  0  0  0  0
 17 19  1  0  0  0  0
 17  1  2  0  0  0  0
 18  8  1  0  0  0  0
 19 14  1  0  0  0  0
 20 11  1  0  0  0  0
 20 19  2  0  0  0  0
 21 12  1  6  0  0  0
 21 16  1  0  0  0  0
 22 21  1  0  0  0  0
 22  4  1  0  0  0  0
 23 18  1  0  0  0  0
 24 20  1  0  0  0  0
 26 25  1  0  0  0  0
 27  9  1  0  0  0  0
 28 31  1  0  0  0  0
 30 31  2  0  0  0  0
 31 29  2  0  0  0  0
 31 27  1  0  0  0  0
M  END
>  <MODEL>
5

>  <REMARK>
 VINA RESULT:      -8.3      2.514      3.756
  Name = 
  3 active torsions:
  status: ('A' for Active; 'I' for Inactive)
    1  A    between atoms: N_1  and  C_13
    2  A    between atoms: N_1  and  S_24
    3  A    between atoms: C_20  and  O_30
                            x       y       z     vdW  Elec       q    Type
                         _______ _______ _______ _____ _____    ______ ____

>  <TORSDO>
F 3

$$$$
=
 OpenBabel10222422063D

 31 36  0  0  1  0  0  0  0  0999 V2000
  190.5230  176.5740  139.2510 C   0  0  0  0  0  3  0  0  0  0  0  0
  188.4370  176.9390  144.9560 C   0  0  2  0  0  3  0  0  0  0  0  0
  184.3740  178.3740  142.4580 C   0  0  0  0  0  2  0  0  0  0  0  0
  188.7320  178.3200  142.8200 C   0  0  1  0  0  3  0  0  0  0  0  0
  190.9930  176.2960  140.5740 O   0  0  0  0  0  0  0  0  0  0  0  0
  185.2400  179.1660  141.4870 C   0  0  0  0  0  2  0  0  0  0  0  0
  188.4070  177.2120  137.9610 C   0  0  0  0  0  2  0  0  0  0  0  0
  190.7510  177.4730  144.0820 C   0  0  0  0  0  0  0  0  0  0  0  0
  187.2290  177.8270  137.8340 C   0  0  0  0  0  0  0  0  0  0  0  0
  188.9880  176.6390  146.2690 N   0  0  0  0  0  1  0  0  0  0  0  0
  186.6340  178.6080  141.4760 C   0  0  2  0  0  3  0  0  0  0  0  0
  185.0240  178.3310  143.8360 C   0  0  0  0  0  2  0  0  0  0  0  0
  189.3230  177.9340  144.2000 C   0  0  2  0  0  3  0  0  0  0  0  0
  189.3130  177.5790  141.6430 C   0  0  0  0  0  0  0  0  0  0  0  0
  191.5870  177.6210  145.1000 C   0  0  0  0  0  2  0  0  0  0  0  0
  187.0470  177.5360  145.1210 C   0  0  2  0  0  3  0  0  0  0  0  0
  189.1350  177.1530  139.2390 C   0  0  0  0  0  0  0  0  0  0  0  0
  191.2130  176.8870  142.9020 O   0  0  0  0  0  0  0  0  0  0  0  0
  188.5950  177.6620  140.3580 C   0  0  0  0  0  0  0  0  0  0  0  0
  187.2530  178.2930  140.3220 C   0  0  0  0  0  0  0  0  0  0  0  0
  186.3950  177.6530  143.7480 C   0  0  2  0  0  3  0  0  0  0  0  0
  187.2550  178.3080  142.7450 N   0  0  1  0  0  0  0  0  0  0  0  0
  190.4840  176.9340  141.7120 C   0  0  0  0  0  0  0  0  0  0  0  0
  186.5980  178.5680  138.9910 C   0  0  0  0  0  3  0  0  0  0  0  0
  186.3480  178.6410  146.9150 C   0  0  0  0  0  1  0  0  0  0  0  0
  187.1120  178.7860  145.7560 O   0  0  0  0  0  0  0  0  0  0  0  0
  186.5980  177.8230  136.5520 N   0  0  0  0  0  2  0  0  0  0  0  0
  185.5400  175.1740  136.7230 C   0  0  0  0  0  1  0  0  0  0  0  0
  185.0120  176.8190  134.6800 O   0  0  0  0  0  0  0  0  0  0  0  0
  184.0060  177.3620  136.8580 O   0  0  0  0  0  0  0  0  0  0  0  0
  185.2300  176.8320  136.1660 S   0  0  0  0  0  0  0  0  0  0  0  0
  1  5  1  0  0  0  0
  2 16  1  0  0  0  0
  2 10  1  1  0  0  0
  3 12  1  0  0  0  0
  4 14  1  6  0  0  0
  4 13  1  0  0  0  0
  5 23  1  0  0  0  0
  6  3  1  0  0  0  0
  7 17  1  0  0  0  0
  8 15  2  0  0  0  0
  9  7  1  0  0  0  0
  9 24  2  0  0  0  0
 11  6  1  1  0  0  0
 11 22  1  0  0  0  0
 13  8  1  6  0  0  0
 13  2  1  0  0  0  0
 14 23  2  0  0  0  0
 16 26  1  6  0  0  0
 17  1  2  0  0  0  0
 17 19  1  0  0  0  0
 18  8  1  0  0  0  0
 19 14  1  0  0  0  0
 20 19  2  0  0  0  0
 20 11  1  0  0  0  0
 21 12  1  1  0  0  0
 21 16  1  0  0  0  0
 22  4  1  0  0  0  0
 22 21  1  0  0  0  0
 23 18  1  0  0  0  0
 24 20  1  0  0  0  0
 26 25  1  0  0  0  0
 27  9  1  0  0  0  0
 29 31  2  0  0  0  0
 31 27  1  0  0  0  0
 31 28  1  0  0  0  0
 31 30  2  0  0  0  0
M  END
>  <MODEL>
6

>  <REMARK>
 VINA RESULT:      -8.2      2.769      4.865
  Name = 
  3 active torsions:
  status: ('A' for Active; 'I' for Inactive)
    1  A    between atoms: N_1  and  C_13
    2  A    between atoms: N_1  and  S_24
    3  A    between atoms: C_20  and  O_30
                            x       y       z     vdW  Elec       q    Type
                         _______ _______ _______ _____ _____    ______ ____

>  <TORSDO>
F 3

$$$$
=
 OpenBabel10222422063D

 31 36  0  0  1  0  0  0  0  0999 V2000
  185.3460  179.1630  141.1100 C   0  0  0  0  0  3  0  0  0  0  0  0
  188.0120  178.4920  146.5400 C   0  0  2  0  0  3  0  0  0  0  0  0
  191.6710  176.8680  143.5750 C   0  0  0  0  0  2  0  0  0  0  0  0
  187.3920  177.1970  144.4180 C   0  0  1  0  0  3  0  0  0  0  0  0
  185.0440  179.4320  142.4830 O   0  0  0  0  0  0  0  0  0  0  0  0
  190.6510  176.1640  142.6880 C   0  0  0  0  0  2  0  0  0  0  0  0
  187.2600  178.4270  139.5800 C   0  0  0  0  0  2  0  0  0  0  0  0
  185.5850  178.1370  145.9150 C   0  0  0  0  0  0  0  0  0  0  0  0
  188.3730  177.7390  139.3090 C   0  0  0  0  0  0  0  0  0  0  0  0
  187.6300  178.7880  147.9120 N   0  0  0  0  0  1  0  0  0  0  0  0
  189.3060  176.8130  142.8450 C   0  0  2  0  0  3  0  0  0  0  0  0
  191.1790  176.9120  145.0170 C   0  0  0  0  0  2  0  0  0  0  0  0
  186.9830  177.5800  145.8640 C   0  0  2  0  0  3  0  0  0  0  0  0
  186.7380  178.0090  143.3310 C   0  0  0  0  0  0  0  0  0  0  0  0
  184.8580  178.0140  147.0160 C   0  0  0  0  0  2  0  0  0  0  0  0
  189.3680  177.8000  146.5360 C   0  0  2  0  0  3  0  0  0  0  0  0
  186.6820  178.4950  140.9310 C   0  0  0  0  0  0  0  0  0  0  0  0
  185.0390  178.7870  144.8070 O   0  0  0  0  0  0  0  0  0  0  0  0
  187.3050  177.9180  141.9710 C   0  0  0  0  0  0  0  0  0  0  0  0
  188.5880  177.2020  141.7730 C   0  0  0  0  0  0  0  0  0  0  0  0
  189.8570  177.6820  145.0960 C   0  0  2  0  0  3  0  0  0  0  0  0
  188.8500  177.1150  144.1810 N   0  0  1  0  0  0  0  0  0  0  0  0
  185.6280  178.7290  143.5430 C   0  0  0  0  0  0  0  0  0  0  0  0
  189.0740  176.9240  140.3720 C   0  0  0  0  0  3  0  0  0  0  0  0
  190.4860  176.4000  147.8460 C   0  0  0  0  0  1  0  0  0  0  0  0
  189.2870  176.5390  147.1460 O   0  0  0  0  0  0  0  0  0  0  0  0
  188.8590  177.7400  137.9650 N   0  0  0  0  0  2  0  0  0  0  0  0
  186.9910  178.0370  135.8240 C   0  0  0  0  0  1  0  0  0  0  0  0
  187.2620  175.7650  137.2100 O   0  0  0  0  0  0  0  0  0  0  0  0
  189.0960  176.3920  135.6970 O   0  0  0  0  0  0  0  0  0  0  0  0
  188.0710  176.9070  136.6670 S   0  0  0  0  0  0  0  0  0  0  0  0
  1  5  1  0  0  0  0
  2 10  1  1  0  0  0
  3 12  1  0  0  0  0
  4 14  1  6  0  0  0
  4 13  1  0  0  0  0
  5 23  1  0  0  0  0
  6  3  1  0  0  0  0
  7 17  1  0  0  0  0
  8 15  2  0  0  0  0
  9  7  1  0  0  0  0
  9 24  2  0  0  0  0
 11  6  1  6  0  0  0
 11 22  1  0  0  0  0
 13  8  1  6  0  0  0
 13  2  1  0  0  0  0
 14 23  2  0  0  0  0
 16  2  1  0  0  0  0
 16 26  1  6  0  0  0
 17  1  2  0  0  0  0
 17 19  1  0  0  0  0
 18  8  1  0  0  0  0
 19 14  1  0  0  0  0
 20 19  2  0  0  0  0
 20 11  1  0  0  0  0
 21 12  1  1  0  0  0
 21 16  1  0  0  0  0
 22  4  1  0  0  0  0
 22 21  1  0  0  0  0
 23 18  1  0  0  0  0
 24 20  1  0  0  0  0
 26 25  1  0  0  0  0
 27  9  1  0  0  0  0
 28 31  1  0  0  0  0
 30 31  2  0  0  0  0
 31 29  2  0  0  0  0
 31 27  1  0  0  0  0
M  END
>  <MODEL>
7

>  <REMARK>
 VINA RESULT:      -8.1      1.889      2.362
  Name = 
  3 active torsions:
  status: ('A' for Active; 'I' for Inactive)
    1  A    between atoms: N_1  and  C_13
    2  A    between atoms: N_1  and  S_24
    3  A    between atoms: C_20  and  O_30
                            x       y       z     vdW  Elec       q    Type
                         _______ _______ _______ _____ _____    ______ ____

>  <TORSDO>
F 3

$$$$
=
 OpenBabel10222422063D

 31 36  0  0  1  0  0  0  0  0999 V2000
  184.1280  179.5280  144.6580 C   0  0  0  0  0  3  0  0  0  0  0  0
  189.6200  178.0370  146.8150 C   0  0  2  0  0  3  0  0  0  0  0  0
  190.4840  177.6640  141.9230 C   0  0  0  0  0  2  0  0  0  0  0  0
  187.7440  177.1800  145.2980 C   0  0  1  0  0  3  0  0  0  0  0  0
  184.7820  179.4330  145.9280 O   0  0  0  0  0  0  0  0  0  0  0  0
  189.1090  177.0400  141.7200 C   0  0  0  0  0  2  0  0  0  0  0  0
  184.5970  179.4370  142.1440 C   0  0  0  0  0  2  0  0  0  0  0  0
  187.3430  177.4890  147.7740 C   0  0  0  0  0  0  0  0  0  0  0  0
  185.2560  178.9950  141.0700 C   0  0  0  0  0  0  0  0  0  0  0  0
  190.2130  177.9580  148.1410 N   0  0  0  0  0  1  0  0  0  0  0  0
  188.1970  177.4380  142.8450 C   0  0  2  0  0  3  0  0  0  0  0  0
  191.0280  177.3110  143.3030 C   0  0  0  0  0  2  0  0  0  0  0  0
  188.3650  177.1630  146.7170 C   0  0  2  0  0  3  0  0  0  0  0  0
  186.5760  178.1140  145.1190 C   0  0  0  0  0  0  0  0  0  0  0  0
  187.4820  177.0180  149.0050 C   0  0  0  0  0  2  0  0  0  0  0  0
  190.6360  177.5650  145.7840 C   0  0  2  0  0  3  0  0  0  0  0  0
  185.0180  179.1160  143.5170 C   0  0  0  0  0  0  0  0  0  0  0  0
  186.2390  178.2870  147.4710 O   0  0  0  0  0  0  0  0  0  0  0  0
  186.1400  178.4140  143.7420 C   0  0  0  0  0  0  0  0  0  0  0  0
  186.9750  177.9520  142.6070 C   0  0  0  0  0  0  0  0  0  0  0  0
  190.0890  177.8460  144.3890 C   0  0  2  0  0  3  0  0  0  0  0  0
  188.7100  177.3620  144.1930 N   0  0  1  0  0  0  0  0  0  0  0  0
  185.8830  178.6010  146.1580 C   0  0  0  0  0  0  0  0  0  0  0  0
  186.4440  178.0690  141.1990 C   0  0  0  0  0  3  0  0  0  0  0  0
  192.1070  176.1640  146.6800 C   0  0  0  0  0  1  0  0  0  0  0  0
  190.9190  176.2010  145.9500 O   0  0  0  0  0  0  0  0  0  0  0  0
  184.7720  179.3690  139.7780 N   0  0  0  0  0  2  0  0  0  0  0  0
  182.3920  179.2300  138.2030 C   0  0  0  0  0  1  0  0  0  0  0  0
  183.3420  177.1450  139.5850 O   0  0  0  0  0  0  0  0  0  0  0  0
  184.6120  177.8610  137.6050 O   0  0  0  0  0  0  0  0  0  0  0  0
  183.8070  178.3280  138.7850 S   0  0  0  0  0  0  0  0  0  0  0  0
  1  5  1  0  0  0  0
  2 10  1  1  0  0  0
  3 12  1  0  0  0  0
  4 14  1  1  0  0  0
  4 13  1  0  0  0  0
  5 23  1  0  0  0  0
  6  3  1  0  0  0  0
  7 17  1  0  0  0  0
  8 15  2  0  0  0  0
  9 24  2  0  0  0  0
  9  7  1  0  0  0  0
 11  6  1  6  0  0  0
 11 22  1  0  0  0  0
 13  2  1  0  0  0  0
 13  8  1  1  0  0  0
 14 23  2  0  0  0  0
 16 26  1  6  0  0  0
 16  2  1  0  0  0  0
 17 19  1  0  0  0  0
 17  1  2  0  0  0  0
 18  8  1  0  0  0  0
 19 14  1  0  0  0  0
 20 11  1  0  0  0  0
 20 19  2  0  0  0  0
 21 12  1  6  0  0  0
 21 16  1  0  0  0  0
 22 21  1  0  0  0  0
 22  4  1  0  0  0  0
 23 18  1  0  0  0  0
 24 20  1  0  0  0  0
 26 25  1  0  0  0  0
 27  9  1  0  0  0  0
 28 31  1  0  0  0  0
 30 31  2  0  0  0  0
 31 29  2  0  0  0  0
 31 27  1  0  0  0  0
M  END
>  <MODEL>
8

>  <REMARK>
 VINA RESULT:      -8.1      3.155      5.005
  Name = 
  3 active torsions:
  status: ('A' for Active; 'I' for Inactive)
    1  A    between atoms: N_1  and  C_13
    2  A    between atoms: N_1  and  S_24
    3  A    between atoms: C_20  and  O_30
                            x       y       z     vdW  Elec       q    Type
                         _______ _______ _______ _____ _____    ______ ____

>  <TORSDO>
F 3

$$$$
=
 OpenBabel10222422063D

 31 36  0  0  1  0  0  0  0  0999 V2000
  192.0780  176.5470  141.8800 C   0  0  0  0  0  3  0  0  0  0  0  0
  187.8600  176.8790  146.2540 C   0  0  2  0  0  3  0  0  0  0  0  0
  185.1110  178.1690  142.3050 C   0  0  0  0  0  2  0  0  0  0  0  0
  188.9540  178.2570  144.3920 C   0  0  1  0  0  3  0  0  0  0  0  0
  191.9820  176.2930  143.2850 O   0  0  0  0  0  0  0  0  0  0  0  0
  186.2750  178.9830  141.7500 C   0  0  0  0  0  2  0  0  0  0  0  0
  190.6450  177.1090  139.8350 C   0  0  0  0  0  2  0  0  0  0  0  0
  190.3150  177.4820  146.3760 C   0  0  0  0  0  0  0  0  0  0  0  0
  189.6020  177.6850  139.2340 C   0  0  0  0  0  0  0  0  0  0  0  0
  187.8420  176.6050  147.6830 N   0  0  0  0  0  1  0  0  0  0  0  0
  187.5690  178.4690  142.3120 C   0  0  2  0  0  3  0  0  0  0  0  0
  185.1520  178.1550  143.8280 C   0  0  0  0  0  2  0  0  0  0  0  0
  188.9480  177.8980  145.9000 C   0  0  2  0  0  3  0  0  0  0  0  0
  189.9790  177.5280  143.5630 C   0  0  0  0  0  0  0  0  0  0  0  0
  190.6640  177.6630  147.6420 C   0  0  0  0  0  2  0  0  0  0  0  0
  186.5060  177.4330  145.8340 C   0  0  2  0  0  3  0  0  0  0  0  0
  190.7970  177.0810  141.2990 C   0  0  0  0  0  0  0  0  0  0  0  0
  191.2280  176.9040  145.4930 O   0  0  0  0  0  0  0  0  0  0  0  0
  189.8390  177.5800  142.0960 C   0  0  0  0  0  0  0  0  0  0  0  0
  188.6090  178.1670  141.5110 C   0  0  0  0  0  0  0  0  0  0  0  0
  186.4590  177.5200  144.3120 C   0  0  2  0  0  3  0  0  0  0  0  0
  187.6330  178.1960  143.7290 N   0  0  1  0  0  0  0  0  0  0  0  0
  191.0410  176.9200  144.1100 C   0  0  0  0  0  0  0  0  0  0  0  0
  188.5390  178.4130  140.0240 C   0  0  0  0  0  3  0  0  0  0  0  0
  185.0630  178.5530  147.0960 C   0  0  0  0  0  1  0  0  0  0  0  0
  186.2750  178.6880  146.4180 O   0  0  0  0  0  0  0  0  0  0  0  0
  189.5420  177.6530  137.8060 N   0  0  0  0  0  2  0  0  0  0  0  0
  188.3780  177.3590  135.2140 C   0  0  0  0  0  1  0  0  0  0  0  0
  187.5370  179.1800  136.9850 O   0  0  0  0  0  0  0  0  0  0  0  0
  187.0490  176.8190  137.4720 O   0  0  0  0  0  0  0  0  0  0  0  0
  188.0640  177.7750  136.9120 S   0  0  0  0  0  0  0  0  0  0  0  0
  1  5  1  0  0  0  0
  2 10  1  1  0  0  0
  3 12  1  0  0  0  0
  4 14  1  6  0  0  0
  4 13  1  0  0  0  0
  5 23  1  0  0  0  0
  6  3  1  0  0  0  0
  7 17  1  0  0  0  0
  8 15  2  0  0  0  0
  9  7  1  0  0  0  0
  9 24  2  0  0  0  0
 11  6  1  6  0  0  0
 11 22  1  0  0  0  0
 13  2  1  0  0  0  0
 13  8  1  6  0  0  0
 14 23  2  0  0  0  0
 16  2  1  0  0  0  0
 16 26  1  1  0  0  0
 17  1  2  0  0  0  0
 17 19  1  0  0  0  0
 18  8  1  0  0  0  0
 19 14  1  0  0  0  0
 20 19  2  0  0  0  0
 20 11  1  0  0  0  0
 21 12  1  1  0  0  0
 21 16  1  0  0  0  0
 22 21  1  0  0  0  0
 22  4  1  0  0  0  0
 23 18  1  0  0  0  0
 24 20  1  0  0  0  0
 26 25  1  0  0  0  0
 27  9  1  0  0  0  0
 28 31  1  0  0  0  0
 31 29  2  0  0  0  0
 31 30  2  0  0  0  0
 31 27  1  0  0  0  0
M  END
>  <MODEL>
9

>  <REMARK>
 VINA RESULT:      -7.9      2.274      4.284
  Name = 
  3 active torsions:
  status: ('A' for Active; 'I' for Inactive)
    1  A    between atoms: N_1  and  C_13
    2  A    between atoms: N_1  and  S_24
    3  A    between atoms: C_20  and  O_30
                            x       y       z     vdW  Elec       q    Type
                         _______ _______ _______ _____ _____    ______ ____

>  <TORSDO>
F 3

$$$$
