=
 OpenBabel10232411023D

 26 30  0  0  1  0  0  0  0  0999 V2000
  189.7130  177.3890  143.4420 C   0  0  1  0  0  0  0  0  0  0  0  0
  191.1340  177.8780  143.7250 C   0  0  1  0  0  3  0  0  0  0  0  0
  189.6670  176.5450  142.1840 C   0  0  2  0  0  3  0  0  0  0  0  0
  191.5320  177.6700  145.1080 N   0  0  0  0  0  1  0  0  0  0  0  0
  190.9120  176.5380  143.0530 C   0  0  2  0  0  3  0  0  0  0  0  0
  189.6840  176.6380  138.6040 C   0  0  2  0  0  3  0  0  0  0  0  0
  188.3920  177.3800  138.9650 C   0  0  1  0  0  3  0  0  0  0  0  0
  188.5540  177.8270  140.3740 C   0  0  0  0  0  0  0  0  0  0  0  0
  187.6340  178.5310  141.0370 C   0  0  0  0  0  2  0  0  0  0  0  0
  190.5600  176.6160  139.8590 C   0  0  2  0  0  3  0  0  0  0  0  0
  189.8650  177.4260  140.9540 C   0  0  2  0  0  3  0  0  0  0  0  0
  190.9310  177.5080  138.6920 C   0  0  0  0  0  2  0  0  0  0  0  0
  189.0090  179.3110  137.6170 N   0  0  0  0  0  2  0  0  0  0  0  0
  186.7670  178.6390  137.4520 N   0  0  0  0  0  2  0  0  0  0  0  0
  188.0800  178.4980  137.9990 C   0  0  0  0  0  0  0  0  0  0  0  0
  184.6410  178.4280  138.6210 C   0  0  0  0  0  1  0  0  0  0  0  0
  185.6720  177.7300  137.7570 C   0  0  0  0  0  2  0  0  0  0  0  0
  189.0010  176.6920  144.5960 C   0  0  0  0  0  2  0  0  0  0  0  0
  186.2820  178.4690  146.5680 C   0  0  0  0  0  3  0  0  0  0  0  0
  184.1440  179.1870  145.8390 O   0  0  0  0  0  0  0  0  0  0  0  0
  186.7960  177.4930  143.9140 C   0  0  0  0  0  3  0  0  0  0  0  0
  187.7120  177.3770  144.8840 C   0  0  0  0  0  0  0  0  0  0  0  0
  185.2370  178.6340  145.5470 C   0  0  0  0  0  0  0  0  0  0  0  0
  187.4420  177.8790  146.2540 C   0  0  0  0  0  3  0  0  0  0  0  0
  185.5010  178.1370  144.1860 C   0  0  0  0  0  0  0  0  0  0  0  0
  184.6230  178.2580  143.2460 N   0  0  0  0  0  2  0  0  0  0  0  0
  1  2  1  0  0  0  0
  1 18  1  1  0  0  0
  2  4  1  1  0  0  0
  3 11  1  6  0  0  0
  3  5  1  0  0  0  0
  3  1  1  0  0  0  0
  5  1  1  0  0  0  0
  5  2  1  0  0  0  0
  6 12  1  0  0  0  0
  6  7  1  0  0  0  0
  6 10  1  0  0  0  0
  7  8  1  0  0  0  0
  8 11  1  0  0  0  0
  8  9  2  0  0  0  0
 10 11  1  0  0  0  0
 12 10  1  0  0  0  0
 13 15  2  0  0  0  0
 14 17  1  0  0  0  0
 14 15  1  0  0  0  0
 15  7  1  0  0  0  0
 17 16  1  0  0  0  0
 18 22  1  0  0  0  0
 21 25  1  0  0  0  0
 21 22  2  0  0  0  0
 22 24  1  0  0  0  0
 23 20  2  0  0  0  0
 23 19  1  0  0  0  0
 24 19  2  0  0  0  0
 25 23  1  0  0  0  0
 26 25  2  0  0  0  0
M  END
>  <MODEL>
1

>  <REMARK>
 VINA RESULT:      -8.8      0.000      0.000
  Name = 
  5 active torsions:
  status: ('A' for Active; 'I' for Inactive)
    1  A    between atoms: C_3  and  C_26
    2  A    between atoms: C_4  and  C_6
    3  A    between atoms: C_4  and  C_16
    4  A    between atoms: C_11  and  C_12
    5  A    between atoms: N_13  and  C_25
                            x       y       z     vdW  Elec       q    Type
                         _______ _______ _______ _____ _____    ______ ____

>  <TORSDO>
F 5

$$$$
=
 OpenBabel10232411023D

 26 30  0  0  1  0  0  0  0  0999 V2000
  189.5260  177.4340  143.4550 C   0  0  1  0  0  0  0  0  0  0  0  0
  190.9530  177.8810  143.7760 C   0  0  1  0  0  3  0  0  0  0  0  0
  189.4900  176.5830  142.2010 C   0  0  2  0  0  3  0  0  0  0  0  0
  191.3040  177.6720  145.1710 N   0  0  0  0  0  1  0  0  0  0  0  0
  190.7090  176.5430  143.1070 C   0  0  2  0  0  3  0  0  0  0  0  0
  189.6410  176.6390  138.6240 C   0  0  2  0  0  3  0  0  0  0  0  0
  188.3530  177.4100  138.9300 C   0  0  1  0  0  3  0  0  0  0  0  0
  188.4720  177.8680  140.3400 C   0  0  0  0  0  0  0  0  0  0  0  0
  187.5420  178.5970  140.9610 C   0  0  0  0  0  2  0  0  0  0  0  0
  190.4700  176.6120  139.9110 C   0  0  2  0  0  3  0  0  0  0  0  0
  189.7510  177.4470  140.9720 C   0  0  2  0  0  3  0  0  0  0  0  0
  190.9030  177.4850  138.7510 C   0  0  0  0  0  2  0  0  0  0  0  0
  189.0380  179.3640  137.6490 N   0  0  0  0  0  2  0  0  0  0  0  0
  186.8380  178.6350  137.2790 N   0  0  0  0  0  2  0  0  0  0  0  0
  188.0990  178.5250  137.9430 C   0  0  0  0  0  0  0  0  0  0  0  0
  184.7380  178.2690  138.4580 C   0  0  0  0  0  1  0  0  0  0  0  0
  185.7450  177.6950  137.4810 C   0  0  0  0  0  2  0  0  0  0  0  0
  188.7600  176.7690  144.5920 C   0  0  0  0  0  2  0  0  0  0  0  0
  185.3030  178.1480  143.8190 C   0  0  0  0  0  3  0  0  0  0  0  0
  183.8720  179.4350  145.2040 O   0  0  0  0  0  0  0  0  0  0  0  0
  187.2120  178.0680  145.9670 C   0  0  0  0  0  3  0  0  0  0  0  0
  187.4580  177.4600  144.7980 C   0  0  0  0  0  0  0  0  0  0  0  0
  184.9690  178.8290  145.0800 C   0  0  0  0  0  0  0  0  0  0  0  0
  186.4710  177.5070  143.6910 C   0  0  0  0  0  3  0  0  0  0  0  0
  185.9460  178.7850  146.1810 C   0  0  0  0  0  0  0  0  0  0  0  0
  185.7070  179.3610  147.3120 N   0  0  0  0  0  2  0  0  0  0  0  0
  1  2  1  0  0  0  0
  1 18  1  1  0  0  0
  2  4  1  1  0  0  0
  3 11  1  6  0  0  0
  3  5  1  0  0  0  0
  3  1  1  0  0  0  0
  5  1  1  0  0  0  0
  5  2  1  0  0  0  0
  6 12  1  0  0  0  0
  6  7  1  0  0  0  0
  6 10  1  0  0  0  0
  7  8  1  0  0  0  0
  8  9  2  0  0  0  0
  8 11  1  0  0  0  0
 10 11  1  0  0  0  0
 12 10  1  0  0  0  0
 13 15  2  0  0  0  0
 14 17  1  0  0  0  0
 14 15  1  0  0  0  0
 15  7  1  0  0  0  0
 17 16  1  0  0  0  0
 18 22  1  0  0  0  0
 19 23  1  0  0  0  0
 21 25  1  0  0  0  0
 22 21  2  0  0  0  0
 23 20  2  0  0  0  0
 23 25  1  0  0  0  0
 24 19  2  0  0  0  0
 24 22  1  0  0  0  0
 25 26  2  0  0  0  0
M  END
>  <MODEL>
2

>  <REMARK>
 VINA RESULT:      -8.8      0.904      1.330
  Name = 
  5 active torsions:
  status: ('A' for Active; 'I' for Inactive)
    1  A    between atoms: C_3  and  C_26
    2  A    between atoms: C_4  and  C_6
    3  A    between atoms: C_4  and  C_16
    4  A    between atoms: C_11  and  C_12
    5  A    between atoms: N_13  and  C_25
                            x       y       z     vdW  Elec       q    Type
                         _______ _______ _______ _____ _____    ______ ____

>  <TORSDO>
F 5

$$$$
=
 OpenBabel10232411023D

 26 30  0  0  1  0  0  0  0  0999 V2000
  188.5320  177.6650  143.7690 C   0  0  1  0  0  0  0  0  0  0  0  0
  189.8240  178.1060  144.4590 C   0  0  1  0  0  3  0  0  0  0  0  0
  188.8220  176.7400  142.6050 C   0  0  2  0  0  3  0  0  0  0  0  0
  189.7590  177.9750  145.9060 N   0  0  0  0  0  1  0  0  0  0  0  0
  189.7330  176.7340  143.8200 C   0  0  2  0  0  3  0  0  0  0  0  0
  190.2830  176.5150  139.3430 C   0  0  2  0  0  3  0  0  0  0  0  0
  188.9150  177.1500  139.0680 C   0  0  1  0  0  3  0  0  0  0  0  0
  188.4660  177.7350  140.3600 C   0  0  0  0  0  0  0  0  0  0  0  0
  187.3170  178.3970  140.5120 C   0  0  0  0  0  2  0  0  0  0  0  0
  190.5750  176.6950  140.8340 C   0  0  2  0  0  3  0  0  0  0  0  0
  189.4500  177.5240  141.4560 C   0  0  2  0  0  3  0  0  0  0  0  0
  191.3350  177.5130  139.8110 C   0  0  0  0  0  2  0  0  0  0  0  0
  189.1260  179.3990  138.1630 N   0  0  0  0  0  2  0  0  0  0  0  0
  188.8630  177.6920  136.5740 N   0  0  0  0  0  2  0  0  0  0  0  0
  188.9560  178.1390  137.9290 C   0  0  0  0  0  0  0  0  0  0  0  0
  190.0890  175.7680  135.7210 C   0  0  0  0  0  1  0  0  0  0  0  0
  188.7480  176.2890  136.2020 C   0  0  0  0  0  2  0  0  0  0  0  0
  187.4530  177.0840  144.6750 C   0  0  0  0  0  2  0  0  0  0  0  0
  184.2170  178.9570  145.3550 C   0  0  0  0  0  3  0  0  0  0  0  0
  182.4950  179.5510  143.8370 O   0  0  0  0  0  0  0  0  0  0  0  0
  185.6520  177.7630  143.1690 C   0  0  0  0  0  3  0  0  0  0  0  0
  186.1520  177.7580  144.4120 C   0  0  0  0  0  0  0  0  0  0  0  0
  183.6160  179.0030  144.0130 C   0  0  0  0  0  0  0  0  0  0  0  0
  185.4070  178.3720  145.5380 C   0  0  0  0  0  3  0  0  0  0  0  0
  184.3520  178.3940  142.8930 C   0  0  0  0  0  0  0  0  0  0  0  0
  183.8770  178.4080  141.6920 N   0  0  0  0  0  2  0  0  0  0  0  0
  1  5  1  0  0  0  0
  1  2  1  0  0  0  0
  1 18  1  1  0  0  0
  2  4  1  1  0  0  0
  3 11  1  6  0  0  0
  3  1  1  0  0  0  0
  3  5  1  0  0  0  0
  5  2  1  0  0  0  0
  6 12  1  0  0  0  0
  6 10  1  0  0  0  0
  7  6  1  0  0  0  0
  7  8  1  0  0  0  0
  8  9  2  0  0  0  0
  8 11  1  0  0  0  0
 10 11  1  0  0  0  0
 12 10  1  0  0  0  0
 14 15  1  0  0  0  0
 15 13  2  0  0  0  0
 15  7  1  0  0  0  0
 16 17  1  0  0  0  0
 17 14  1  0  0  0  0
 19 24  2  0  0  0  0
 20 23  2  0  0  0  0
 21 22  2  0  0  0  0
 22 18  1  0  0  0  0
 22 24  1  0  0  0  0
 23 19  1  0  0  0  0
 25 21  1  0  0  0  0
 25 23  1  0  0  0  0
 26 25  2  0  0  0  0
M  END
>  <MODEL>
3

>  <REMARK>
 VINA RESULT:      -8.2      1.518      2.128
  Name = 
  5 active torsions:
  status: ('A' for Active; 'I' for Inactive)
    1  A    between atoms: C_3  and  C_26
    2  A    between atoms: C_4  and  C_6
    3  A    between atoms: C_4  and  C_16
    4  A    between atoms: C_11  and  C_12
    5  A    between atoms: N_13  and  C_25
                            x       y       z     vdW  Elec       q    Type
                         _______ _______ _______ _____ _____    ______ ____

>  <TORSDO>
F 5

$$$$
=
 OpenBabel10232411023D

 26 30  0  0  1  0  0  0  0  0999 V2000
  185.4730  178.4700  144.4160 C   0  0  1  0  0  0  0  0  0  0  0  0
  184.9160  179.1840  145.6480 C   0  0  1  0  0  3  0  0  0  0  0  0
  186.4330  177.3660  144.8110 C   0  0  2  0  0  3  0  0  0  0  0  0
  183.4720  179.3440  145.5970 N   0  0  0  0  0  1  0  0  0  0  0  0
  185.2620  177.7100  145.7160 C   0  0  2  0  0  3  0  0  0  0  0  0
  189.1960  176.8840  147.0380 C   0  0  2  0  0  3  0  0  0  0  0  0
  189.8240  176.6810  145.6550 C   0  0  1  0  0  3  0  0  0  0  0  0
  188.9100  177.3440  144.6860 C   0  0  0  0  0  0  0  0  0  0  0  0
  189.1380  177.3950  143.3720 C   0  0  0  0  0  2  0  0  0  0  0  0
  187.8700  177.6210  146.8300 C   0  0  2  0  0  3  0  0  0  0  0  0
  187.7300  177.9640  145.3460 C   0  0  2  0  0  3  0  0  0  0  0  0
  189.0540  178.3490  147.4340 C   0  0  0  0  0  2  0  0  0  0  0  0
  191.5650  178.1600  144.8130 N   0  0  0  0  0  2  0  0  0  0  0  0
  192.2570  176.6030  146.4270 N   0  0  0  0  0  2  0  0  0  0  0  0
  191.2490  177.1770  145.5900 C   0  0  0  0  0  0  0  0  0  0  0  0
  192.8820  175.7110  148.6050 C   0  0  0  0  0  1  0  0  0  0  0  0
  191.9880  175.5470  147.3920 C   0  0  0  0  0  2  0  0  0  0  0  0
  184.4440  177.9680  143.4100 C   0  0  0  0  0  2  0  0  0  0  0  0
  184.3150  178.5270  139.6530 C   0  0  0  0  0  3  0  0  0  0  0  0
  186.1070  178.8530  138.1350 O   0  0  0  0  0  0  0  0  0  0  0  0
  186.2320  178.3440  141.7860 C   0  0  0  0  0  3  0  0  0  0  0  0
  184.9180  178.2340  142.0240 C   0  0  0  0  0  0  0  0  0  0  0  0
  185.7420  178.6650  139.3260 C   0  0  0  0  0  0  0  0  0  0  0  0
  183.9320  178.3250  140.9190 C   0  0  0  0  0  3  0  0  0  0  0  0
  186.7240  178.5740  140.4190 C   0  0  0  0  0  0  0  0  0  0  0  0
  187.9910  178.6920  140.1940 N   0  0  0  0  0  2  0  0  0  0  0  0
  1 18  1  6  0  0  0
  1  3  1  0  0  0  0
  1  2  1  0  0  0  0
  1  5  1  0  0  0  0
  2  4  1  6  0  0  0
  2  5  1  0  0  0  0
  3 11  1  1  0  0  0
  3  5  1  0  0  0  0
  6 12  1  0  0  0  0
  7  6  1  0  0  0  0
  8 11  1  0  0  0  0
  8  7  1  0  0  0  0
  9  8  2  0  0  0  0
 10  6  1  0  0  0  0
 10 12  1  0  0  0  0
 11 10  1  0  0  0  0
 13 15  2  0  0  0  0
 14 17  1  0  0  0  0
 15  7  1  0  0  0  0
 15 14  1  0  0  0  0
 17 16  1  0  0  0  0
 19 24  2  0  0  0  0
 20 23  2  0  0  0  0
 21 22  2  0  0  0  0
 22 18  1  0  0  0  0
 23 19  1  0  0  0  0
 23 25  1  0  0  0  0
 24 22  1  0  0  0  0
 25 21  1  0  0  0  0
 26 25  2  0  0  0  0
M  END
>  <MODEL>
4

>  <REMARK>
 VINA RESULT:      -8.0      2.683      7.160
  Name = 
  5 active torsions:
  status: ('A' for Active; 'I' for Inactive)
    1  A    between atoms: C_3  and  C_26
    2  A    between atoms: C_4  and  C_6
    3  A    between atoms: C_4  and  C_16
    4  A    between atoms: C_11  and  C_12
    5  A    between atoms: N_13  and  C_25
                            x       y       z     vdW  Elec       q    Type
                         _______ _______ _______ _____ _____    ______ ____

>  <TORSDO>
F 5

$$$$
=
 OpenBabel10232411023D

 26 30  0  0  1  0  0  0  0  0999 V2000
  187.7750  177.5490  146.4970 C   0  0  1  0  0  0  0  0  0  0  0  0
  186.9930  177.4240  147.8040 C   0  0  1  0  0  3  0  0  0  0  0  0
  187.2100  178.6530  145.6250 C   0  0  2  0  0  3  0  0  0  0  0  0
  187.8580  177.3530  148.9700 N   0  0  0  0  0  1  0  0  0  0  0  0
  187.1460  178.7770  147.1380 C   0  0  2  0  0  3  0  0  0  0  0  0
  184.1470  179.8000  144.1680 C   0  0  2  0  0  3  0  0  0  0  0  0
  184.8800  179.1650  142.9820 C   0  0  1  0  0  3  0  0  0  0  0  0
  185.8880  178.2410  143.5670 C   0  0  0  0  0  0  0  0  0  0  0  0
  186.7120  177.4860  142.8360 C   0  0  0  0  0  2  0  0  0  0  0  0
  184.8030  179.2670  145.4440 C   0  0  2  0  0  3  0  0  0  0  0  0
  185.8600  178.2320  145.0550 C   0  0  2  0  0  3  0  0  0  0  0  0
  183.4210  178.7890  145.0470 C   0  0  0  0  0  2  0  0  0  0  0  0
  182.7960  178.0450  142.4090 N   0  0  0  0  0  2  0  0  0  0  0  0
  184.2640  178.4230  140.6170 N   0  0  0  0  0  2  0  0  0  0  0  0
  183.9360  178.5030  142.0060 C   0  0  0  0  0  0  0  0  0  0  0  0
  185.7230  178.4090  138.6670 C   0  0  0  0  0  1  0  0  0  0  0  0
  185.4860  178.9780  140.0520 C   0  0  0  0  0  2  0  0  0  0  0  0
  189.2880  177.6770  146.6300 C   0  0  0  0  0  2  0  0  0  0  0  0
  191.2340  178.8140  143.5710 C   0  0  0  0  0  3  0  0  0  0  0  0
  191.6260  177.6520  141.5410 O   0  0  0  0  0  0  0  0  0  0  0  0
  189.7660  176.5340  144.5240 C   0  0  0  0  0  3  0  0  0  0  0  0
  189.9230  177.6250  145.2850 C   0  0  0  0  0  0  0  0  0  0  0  0
  191.1060  177.6440  142.6880 C   0  0  0  0  0  0  0  0  0  0  0  0
  190.6780  178.8010  144.7880 C   0  0  0  0  0  3  0  0  0  0  0  0
  190.3570  176.4750  143.1780 C   0  0  0  0  0  0  0  0  0  0  0  0
  190.2150  175.4170  142.4500 N   0  0  0  0  0  2  0  0  0  0  0  0
  1 18  1  1  0  0  0
  1  5  1  0  0  0  0
  1  2  1  0  0  0  0
  2  4  1  1  0  0  0
  3 11  1  6  0  0  0
  3  1  1  0  0  0  0
  3  5  1  0  0  0  0
  5  2  1  0  0  0  0
  6 12  1  0  0  0  0
  6 10  1  0  0  0  0
  7  8  1  0  0  0  0
  7  6  1  0  0  0  0
  8 11  1  0  0  0  0
  9  8  2  0  0  0  0
 11 10  1  0  0  0  0
 12 10  1  0  0  0  0
 14 15  1  0  0  0  0
 15 13  2  0  0  0  0
 15  7  1  0  0  0  0
 16 17  1  0  0  0  0
 17 14  1  0  0  0  0
 19 24  2  0  0  0  0
 20 23  2  0  0  0  0
 21 22  2  0  0  0  0
 22 18  1  0  0  0  0
 23 25  1  0  0  0  0
 23 19  1  0  0  0  0
 24 22  1  0  0  0  0
 25 21  1  0  0  0  0
 26 25  2  0  0  0  0
M  END
>  <MODEL>
5

>  <REMARK>
 VINA RESULT:      -7.6      3.003      5.681
  Name = 
  5 active torsions:
  status: ('A' for Active; 'I' for Inactive)
    1  A    between atoms: C_3  and  C_26
    2  A    between atoms: C_4  and  C_6
    3  A    between atoms: C_4  and  C_16
    4  A    between atoms: C_11  and  C_12
    5  A    between atoms: N_13  and  C_25
                            x       y       z     vdW  Elec       q    Type
                         _______ _______ _______ _____ _____    ______ ____

>  <TORSDO>
F 5

$$$$
=
 OpenBabel10232411023D

 26 30  0  0  1  0  0  0  0  0999 V2000
  185.8590  178.4040  144.7610 C   0  0  1  0  0  0  0  0  0  0  0  0
  186.0930  178.7290  146.2370 C   0  0  1  0  0  3  0  0  0  0  0  0
  186.7950  177.3100  144.2880 C   0  0  2  0  0  3  0  0  0  0  0  0
  184.8560  178.7890  147.0000 N   0  0  0  0  0  1  0  0  0  0  0  0
  186.3090  177.3190  145.7270 C   0  0  2  0  0  3  0  0  0  0  0  0
  190.2680  176.4360  144.2490 C   0  0  2  0  0  3  0  0  0  0  0  0
  189.9910  176.8250  142.7930 C   0  0  1  0  0  3  0  0  0  0  0  0
  188.7610  177.6620  142.8170 C   0  0  0  0  0  0  0  0  0  0  0  0
  188.2180  178.2080  141.7270 C   0  0  0  0  0  2  0  0  0  0  0  0
  189.1330  177.0160  145.0970 C   0  0  2  0  0  3  0  0  0  0  0  0
  188.2210  177.8440  144.1920 C   0  0  2  0  0  3  0  0  0  0  0  0
  190.5170  177.6310  145.1620 C   0  0  0  0  0  2  0  0  0  0  0  0
  192.0110  178.1810  142.8460 N   0  0  0  0  0  2  0  0  0  0  0  0
  191.4200  177.3330  140.7390 N   0  0  0  0  0  2  0  0  0  0  0  0
  191.1750  177.4940  142.1390 C   0  0  0  0  0  0  0  0  0  0  0  0
  190.1010  177.3380  138.6920 C   0  0  0  0  0  1  0  0  0  0  0  0
  190.5830  176.5170  139.8710 C   0  0  0  0  0  2  0  0  0  0  0  0
  184.4190  178.1050  144.3600 C   0  0  0  0  0  2  0  0  0  0  0  0
  185.2320  179.1740  140.8050 C   0  0  0  0  0  3  0  0  0  0  0  0
  183.7610  179.4820  138.9720 O   0  0  0  0  0  0  0  0  0  0  0  0
  182.9750  178.4110  142.4130 C   0  0  0  0  0  3  0  0  0  0  0  0
  184.2140  178.4350  142.9240 C   0  0  0  0  0  0  0  0  0  0  0  0
  183.9000  179.1610  140.1820 C   0  0  0  0  0  0  0  0  0  0  0  0
  185.3750  178.8330  142.0920 C   0  0  0  0  0  3  0  0  0  0  0  0
  182.7440  178.7670  141.0050 C   0  0  0  0  0  0  0  0  0  0  0  0
  181.5510  178.7320  140.5110 N   0  0  0  0  0  2  0  0  0  0  0  0
  1 18  1  6  0  0  0
  1  5  1  0  0  0  0
  1  2  1  0  0  0  0
  2  4  1  1  0  0  0
  3 11  1  1  0  0  0
  3  1  1  0  0  0  0
  3  5  1  0  0  0  0
  5  2  1  0  0  0  0
  6 10  1  0  0  0  0
  6 12  1  0  0  0  0
  7  8  1  0  0  0  0
  7  6  1  0  0  0  0
  8 11  1  0  0  0  0
  9  8  2  0  0  0  0
 10 12  1  0  0  0  0
 11 10  1  0  0  0  0
 14 15  1  0  0  0  0
 15  7  1  0  0  0  0
 15 13  2  0  0  0  0
 16 17  1  0  0  0  0
 17 14  1  0  0  0  0
 19 24  2  0  0  0  0
 20 23  2  0  0  0  0
 21 22  2  0  0  0  0
 22 18  1  0  0  0  0
 23 19  1  0  0  0  0
 23 25  1  0  0  0  0
 24 22  1  0  0  0  0
 25 21  1  0  0  0  0
 26 25  2  0  0  0  0
M  END
>  <MODEL>
6

>  <REMARK>
 VINA RESULT:      -7.5      2.493      5.087
  Name = 
  5 active torsions:
  status: ('A' for Active; 'I' for Inactive)
    1  A    between atoms: C_3  and  C_26
    2  A    between atoms: C_4  and  C_6
    3  A    between atoms: C_4  and  C_16
    4  A    between atoms: C_11  and  C_12
    5  A    between atoms: N_13  and  C_25
                            x       y       z     vdW  Elec       q    Type
                         _______ _______ _______ _____ _____    ______ ____

>  <TORSDO>
F 5

$$$$
=
 OpenBabel10232411023D

 26 30  0  0  1  0  0  0  0  0999 V2000
  187.5860  178.0900  141.4500 C   0  0  1  0  0  0  0  0  0  0  0  0
  188.2780  177.3830  140.2850 C   0  0  1  0  0  3  0  0  0  0  0  0
  188.5990  178.7210  142.3850 C   0  0  2  0  0  3  0  0  0  0  0  0
  187.6920  177.7200  138.9970 N   0  0  0  0  0  1  0  0  0  0  0  0
  188.9020  178.6190  140.9000 C   0  0  2  0  0  3  0  0  0  0  0  0
  191.4370  177.9970  144.4450 C   0  0  2  0  0  3  0  0  0  0  0  0
  190.2700  177.9630  145.4370 C   0  0  1  0  0  3  0  0  0  0  0  0
  189.0440  177.7470  144.6230 C   0  0  0  0  0  0  0  0  0  0  0  0
  187.8200  177.6390  145.1450 C   0  0  0  0  0  2  0  0  0  0  0  0
  190.8430  177.8610  143.0410 C   0  0  2  0  0  3  0  0  0  0  0  0
  189.3350  177.6380  143.1670 C   0  0  2  0  0  3  0  0  0  0  0  0
  191.6050  176.7040  143.6550 C   0  0  0  0  0  2  0  0  0  0  0  0
  191.1460  175.8610  146.2960 N   0  0  0  0  0  2  0  0  0  0  0  0
  189.9620  177.1690  147.8440 N   0  0  0  0  0  2  0  0  0  0  0  0
  190.4690  176.9370  146.5270 C   0  0  0  0  0  0  0  0  0  0  0  0
  187.8840  178.0380  148.7700 C   0  0  0  0  0  1  0  0  0  0  0  0
  189.2560  178.3830  148.2260 C   0  0  0  0  0  2  0  0  0  0  0  0
  186.4920  179.0830  141.0770 C   0  0  0  0  0  2  0  0  0  0  0  0
  182.9100  178.4150  142.1580 C   0  0  0  0  0  3  0  0  0  0  0  0
  181.9730  178.4970  144.3340 O   0  0  0  0  0  0  0  0  0  0  0  0
  185.4580  179.1120  143.2910 C   0  0  0  0  0  3  0  0  0  0  0  0
  185.3180  178.9060  141.9750 C   0  0  0  0  0  0  0  0  0  0  0  0
  182.9970  178.6210  143.6120 C   0  0  0  0  0  0  0  0  0  0  0  0
  184.0000  178.5500  141.3930 C   0  0  0  0  0  3  0  0  0  0  0  0
  184.3030  178.9750  144.1930 C   0  0  0  0  0  0  0  0  0  0  0  0
  184.4430  179.1630  145.4630 N   0  0  0  0  0  2  0  0  0  0  0  0
  1 18  1  6  0  0  0
  1  3  1  0  0  0  0
  2  4  1  6  0  0  0
  2  5  1  0  0  0  0
  2  1  1  0  0  0  0
  3 11  1  1  0  0  0
  5  1  1  0  0  0  0
  5  3  1  0  0  0  0
  6  7  1  0  0  0  0
  7 15  1  0  0  0  0
  8  9  2  0  0  0  0
  8  7  1  0  0  0  0
 10 11  1  0  0  0  0
 10 12  1  0  0  0  0
 10  6  1  0  0  0  0
 11  8  1  0  0  0  0
 12  6  1  0  0  0  0
 13 15  2  0  0  0  0
 14 17  1  0  0  0  0
 15 14  1  0  0  0  0
 17 16  1  0  0  0  0
 18 22  1  0  0  0  0
 19 23  1  0  0  0  0
 21 25  1  0  0  0  0
 22 21  2  0  0  0  0
 23 25  1  0  0  0  0
 23 20  2  0  0  0  0
 24 22  1  0  0  0  0
 24 19  2  0  0  0  0
 25 26  2  0  0  0  0
M  END
>  <MODEL>
7

>  <REMARK>
 VINA RESULT:      -7.3      1.970      5.980
  Name = 
  5 active torsions:
  status: ('A' for Active; 'I' for Inactive)
    1  A    between atoms: C_3  and  C_26
    2  A    between atoms: C_4  and  C_6
    3  A    between atoms: C_4  and  C_16
    4  A    between atoms: C_11  and  C_12
    5  A    between atoms: N_13  and  C_25
                            x       y       z     vdW  Elec       q    Type
                         _______ _______ _______ _____ _____    ______ ____

>  <TORSDO>
F 5

$$$$
=
 OpenBabel10232411023D

 26 30  0  0  1  0  0  0  0  0999 V2000
  189.7020  177.2840  142.5660 C   0  0  1  0  0  0  0  0  0  0  0  0
  189.7760  178.0360  141.2370 C   0  0  1  0  0  3  0  0  0  0  0  0
  188.2830  176.8410  142.8650 C   0  0  2  0  0  3  0  0  0  0  0  0
  190.8590  177.5670  140.3880 N   0  0  0  0  0  1  0  0  0  0  0  0
  188.7610  176.9260  141.4260 C   0  0  2  0  0  3  0  0  0  0  0  0
  184.9790  178.2200  142.8040 C   0  0  2  0  0  3  0  0  0  0  0  0
  185.1910  177.8900  144.2860 C   0  0  1  0  0  3  0  0  0  0  0  0
  186.6630  177.7990  144.4810 C   0  0  0  0  0  0  0  0  0  0  0  0
  187.2380  177.5450  145.6590 C   0  0  0  0  0  2  0  0  0  0  0  0
  186.3600  178.2510  142.1450 C   0  0  2  0  0  3  0  0  0  0  0  0
  187.4230  178.0480  143.2260 C   0  0  2  0  0  3  0  0  0  0  0  0
  185.6040  179.5430  142.3800 C   0  0  0  0  0  2  0  0  0  0  0  0
  185.1990  179.5440  146.0720 N   0  0  0  0  0  2  0  0  0  0  0  0
  183.1110  179.1400  145.0800 N   0  0  0  0  0  2  0  0  0  0  0  0
  184.5120  178.8810  145.2010 C   0  0  0  0  0  0  0  0  0  0  0  0
  181.3760  179.5390  143.4190 C   0  0  0  0  0  1  0  0  0  0  0  0
  182.2640  178.5040  144.0800 C   0  0  0  0  0  2  0  0  0  0  0  0
  190.6840  176.1310  142.7400 C   0  0  0  0  0  2  0  0  0  0  0  0
  192.4570  174.8450  145.8460 C   0  0  0  0  0  3  0  0  0  0  0  0
  192.3510  175.6680  148.0670 O   0  0  0  0  0  0  0  0  0  0  0  0
  190.6570  176.9390  145.0460 C   0  0  0  0  0  3  0  0  0  0  0  0
  191.1310  176.0550  144.1570 C   0  0  0  0  0  0  0  0  0  0  0  0
  191.9790  175.7870  146.8690 C   0  0  0  0  0  0  0  0  0  0  0  0
  192.0570  174.9740  144.5750 C   0  0  0  0  0  3  0  0  0  0  0  0
  191.0590  176.8610  146.4590 C   0  0  0  0  0  0  0  0  0  0  0  0
  190.6090  177.7210  147.3120 N   0  0  0  0  0  2  0  0  0  0  0  0
  1 18  1  1  0  0  0
  1  3  1  0  0  0  0
  2  4  1  6  0  0  0
  2  5  1  0  0  0  0
  2  1  1  0  0  0  0
  3 11  1  6  0  0  0
  5  1  1  0  0  0  0
  5  3  1  0  0  0  0
  6  7  1  0  0  0  0
  7  8  1  0  0  0  0
  7 15  1  0  0  0  0
  8  9  2  0  0  0  0
 10 12  1  0  0  0  0
 10  6  1  0  0  0  0
 10 11  1  0  0  0  0
 11  8  1  0  0  0  0
 12  6  1  0  0  0  0
 14 15  1  0  0  0  0
 15 13  2  0  0  0  0
 16 17  1  0  0  0  0
 17 14  1  0  0  0  0
 18 22  1  0  0  0  0
 19 23  1  0  0  0  0
 21 25  1  0  0  0  0
 22 24  1  0  0  0  0
 22 21  2  0  0  0  0
 23 20  2  0  0  0  0
 24 19  2  0  0  0  0
 25 23  1  0  0  0  0
 25 26  2  0  0  0  0
M  END
>  <MODEL>
8

>  <REMARK>
 VINA RESULT:      -7.0      2.991      5.916
  Name = 
  5 active torsions:
  status: ('A' for Active; 'I' for Inactive)
    1  A    between atoms: C_3  and  C_26
    2  A    between atoms: C_4  and  C_6
    3  A    between atoms: C_4  and  C_16
    4  A    between atoms: C_11  and  C_12
    5  A    between atoms: N_13  and  C_25
                            x       y       z     vdW  Elec       q    Type
                         _______ _______ _______ _____ _____    ______ ____

>  <TORSDO>
F 5

$$$$
=
 OpenBabel10232411023D

 26 30  0  0  1  0  0  0  0  0999 V2000
  189.4090  177.2960  141.1200 C   0  0  1  0  0  0  0  0  0  0  0  0
  190.3290  176.1680  140.6520 C   0  0  1  0  0  3  0  0  0  0  0  0
  190.0220  178.0540  142.2810 C   0  0  2  0  0  3  0  0  0  0  0  0
  190.5020  176.1490  139.2090 N   0  0  0  0  0  1  0  0  0  0  0  0
  190.9200  177.4430  141.2190 C   0  0  2  0  0  3  0  0  0  0  0  0
  190.7820  177.9380  145.7790 C   0  0  2  0  0  3  0  0  0  0  0  0
  189.2510  177.9970  145.7570 C   0  0  1  0  0  3  0  0  0  0  0  0
  188.8400  177.5430  144.4010 C   0  0  0  0  0  0  0  0  0  0  0  0
  187.5680  177.4400  144.0110 C   0  0  0  0  0  2  0  0  0  0  0  0
  191.2380  177.5030  144.3840 C   0  0  2  0  0  3  0  0  0  0  0  0
  190.0020  177.1930  143.5400 C   0  0  2  0  0  3  0  0  0  0  0  0
  191.3410  176.5390  145.5490 C   0  0  0  0  0  2  0  0  0  0  0  0
  189.2310  176.1730  147.3680 N   0  0  0  0  0  2  0  0  0  0  0  0
  187.3890  177.6240  147.4640 N   0  0  0  0  0  2  0  0  0  0  0  0
  188.6270  177.2070  146.8830 C   0  0  0  0  0  0  0  0  0  0  0  0
  185.3060  178.4400  146.5000 C   0  0  0  0  0  1  0  0  0  0  0  0
  186.6710  178.8180  147.0420 C   0  0  0  0  0  2  0  0  0  0  0  0
  188.9170  178.2520  140.0400 C   0  0  0  0  0  2  0  0  0  0  0  0
  185.2740  178.4020  138.9680 C   0  0  0  0  0  3  0  0  0  0  0  0
  183.3650  178.9480  140.2620 O   0  0  0  0  0  0  0  0  0  0  0  0
  186.8960  178.7690  141.3130 C   0  0  0  0  0  3  0  0  0  0  0  0
  187.4420  178.4150  140.1410 C   0  0  0  0  0  0  0  0  0  0  0  0
  184.6130  178.7840  140.2250 C   0  0  0  0  0  0  0  0  0  0  0  0
  186.6010  178.2300  138.9320 C   0  0  0  0  0  3  0  0  0  0  0  0
  185.4430  178.9680  141.4270 C   0  0  0  0  0  0  0  0  0  0  0  0
  184.9180  179.2990  142.5600 N   0  0  0  0  0  2  0  0  0  0  0  0
  1 18  1  6  0  0  0
  1  5  1  0  0  0  0
  1  3  1  0  0  0  0
  2  4  1  6  0  0  0
  2  1  1  0  0  0  0
  2  5  1  0  0  0  0
  3 11  1  1  0  0  0
  5  3  1  0  0  0  0
  7  6  1  0  0  0  0
  7 15  1  0  0  0  0
  8  7  1  0  0  0  0
  9  8  2  0  0  0  0
 10 12  1  0  0  0  0
 10  6  1  0  0  0  0
 11 10  1  0  0  0  0
 11  8  1  0  0  0  0
 12  6  1  0  0  0  0
 15 13  2  0  0  0  0
 15 14  1  0  0  0  0
 16 17  1  0  0  0  0
 17 14  1  0  0  0  0
 18 22  1  0  0  0  0
 19 23  1  0  0  0  0
 21 25  1  0  0  0  0
 22 21  2  0  0  0  0
 23 20  2  0  0  0  0
 23 25  1  0  0  0  0
 24 19  2  0  0  0  0
 24 22  1  0  0  0  0
 25 26  2  0  0  0  0
M  END
>  <MODEL>
9

>  <REMARK>
 VINA RESULT:      -6.9      2.144      6.030
  Name = 
  5 active torsions:
  status: ('A' for Active; 'I' for Inactive)
    1  A    between atoms: C_3  and  C_26
    2  A    between atoms: C_4  and  C_6
    3  A    between atoms: C_4  and  C_16
    4  A    between atoms: C_11  and  C_12
    5  A    between atoms: N_13  and  C_25
                            x       y       z     vdW  Elec       q    Type
                         _______ _______ _______ _____ _____    ______ ____

>  <TORSDO>
F 5

$$$$
