=
 OpenBabel10232408013D

 46 51  0  0  1  0  0  0  0  0999 V2000
  187.7900  177.4560  138.4380 C   0  0  0  0  0  3  0  0  0  0  0  0
  187.0620  177.1060  137.2960 C   0  0  0  0  0  0  0  0  0  0  0  0
  188.9660  175.8560  136.4930 C   0  0  0  0  0  3  0  0  0  0  0  0
  189.7100  176.1840  137.6390 C   0  0  0  0  0  0  0  0  0  0  0  0
  187.6570  176.3090  136.3230 C   0  0  0  0  0  3  0  0  0  0  0  0
  189.1050  177.0120  138.6300 C   0  0  0  0  0  0  0  0  0  0  0  0
  190.5080  177.5540  143.0420 C   0  0  0  0  0  0  0  0  0  0  0  0
  187.3840  177.1920  146.3830 C   0  0  0  0  0  2  0  0  0  0  0  0
  191.3120  177.2610  141.8040 C   0  0  0  0  0  2  0  0  0  0  0  0
  189.7680  177.5130  139.8810 C   0  0  1  0  0  3  0  0  0  0  0  0
  189.6320  177.7340  145.9810 C   0  0  0  0  0  0  0  0  0  0  0  0
  189.0370  177.8500  142.9710 C   0  0  0  0  0  0  0  0  0  0  0  0
  188.1710  177.5450  147.6130 C   0  0  0  0  0  3  0  0  0  0  0  0
  191.2120  177.5980  144.1360 N   0  0  0  0  0  0  0  0  0  0  0  0
  190.8190  177.8260  145.4690 N   0  0  0  0  0  0  0  0  0  0  0  0
  189.1020  178.7000  140.5850 C   0  0  0  0  0  2  0  0  0  0  0  0
  189.4100  177.8380  147.3740 N   0  0  0  0  0  0  0  0  0  0  0  0
  188.1060  177.5020  144.0410 C   0  0  0  0  0  3  0  0  0  0  0  0
  188.4050  177.3770  145.3200 C   0  0  0  0  0  0  0  0  0  0  0  0
  188.4340  178.3200  141.8700 C   0  0  0  0  0  3  0  0  0  0  0  0
  190.5260  176.5110  140.7400 C   0  0  0  0  0  2  0  0  0  0  0  0
  191.0830  175.6320  137.7190 C   0  0  0  0  0  0  0  0  0  0  0  0
  192.2220  176.4380  137.4200 N   0  0  0  0  0  2  0  0  0  0  0  0
  191.2510  174.4480  138.1220 O   0  0  0  0  0  0  0  0  0  0  0  0
  193.5930  175.9830  137.6180 C   0  0  0  0  0  2  0  0  0  0  0  0
  194.5400  176.7420  135.4260 C   0  0  0  0  0  1  0  0  0  0  0  0
  194.2240  175.5310  136.2980 C   0  0  1  0  0  3  0  0  0  0  0  0
  195.0290  172.7250  138.2970 C   0  0  0  0  0  2  0  0  0  0  0  0
  195.1460  173.0430  134.7500 O   0  0  0  0  0  0  0  0  0  0  0  0
  195.1860  172.1170  136.9170 C   0  0  0  0  0  2  0  0  0  0  0  0
  195.2450  173.2430  135.9510 C   0  0  0  0  0  0  0  0  0  0  0  0
  195.7530  174.3980  138.3050 S   0  0  0  0  0  0  0  0  0  0  0  0
  195.4540  174.6190  136.5160 C   0  0  2  0  0  0  0  0  0  0  0  0
  197.5840  175.7150  136.8840 O   0  0  0  0  0  1  0  0  0  0  0  0
  196.6940  175.2770  135.8990 C   0  0  0  0  0  2  0  0  0  0  0  0
  185.7190  177.5570  137.1070 N   0  0  0  0  0  2  0  0  0  0  0  0
  185.0440  178.4330  138.0530 C   0  0  0  0  0  2  0  0  0  0  0  0
  183.5960  178.0110  138.2150 C   0  0  0  0  0  2  0  0  0  0  0  0
  183.0300  178.5650  139.5090 C   0  0  0  0  0  2  0  0  0  0  0  0
  184.0750  178.5880  140.5200 N   0  0  0  0  0  2  0  0  0  0  0  0
  184.5270  178.4850  144.3260 C   0  0  0  0  0  2  0  0  0  0  0  0
  184.9520  178.7040  142.8770 C   0  0  0  0  0  2  0  0  0  0  0  0
  183.7920  178.6520  141.9180 C   0  0  0  0  0  0  0  0  0  0  0  0
  182.1600  178.8180  143.7390 C   0  0  0  0  0  2  0  0  0  0  0  0
  183.2920  179.3170  144.6270 C   0  0  0  0  0  2  0  0  0  0  0  0
  182.5600  178.7760  142.3310 N   0  0  0  0  0  0  0  0  0  0  0  0
  1  6  1  0  0  0  0
  2  1  2  0  0  0  0
  3  4  1  0  0  0  0
  4 22  1  0  0  0  0
  4  6  2  0  0  0  0
  5  3  2  0  0  0  0
  5  2  1  0  0  0  0
  7 14  2  0  0  0  0
  8 13  1  0  0  0  0
  9  7  1  0  0  0  0
 10  6  1  1  0  0  0
 10 16  1  0  0  0  0
 10 21  1  0  0  0  0
 11 17  1  0  0  0  0
 12  7  1  0  0  0  0
 12 18  1  0  0  0  0
 14 15  1  0  0  0  0
 15 11  2  0  0  0  0
 16 20  1  0  0  0  0
 17 13  2  0  0  0  0
 18 19  2  0  0  0  0
 19 11  1  0  0  0  0
 19  8  1  0  0  0  0
 20 12  2  0  0  0  0
 21  9  1  0  0  0  0
 22 24  2  0  0  0  0
 23 25  1  0  0  0  0
 23 22  1  0  0  0  0
 27 26  1  1  0  0  0
 27 33  1  0  0  0  0
 27 25  1  0  0  0  0
 28 32  1  0  0  0  0
 29 31  2  0  0  0  0
 30 28  1  0  0  0  0
 31 33  1  0  0  0  0
 31 30  1  0  0  0  0
 33 35  1  6  0  0  0
 33 32  1  0  0  0  0
 35 34  1  0  0  0  0
 36  2  1  0  0  0  0
 36 37  1  0  0  0  0
 37 38  1  0  0  0  0
 38 39  1  0  0  0  0
 39 40  1  0  0  0  0
 40 43  1  0  0  0  0
 41 45  1  0  0  0  0
 42 41  1  0  0  0  0
 43 46  2  0  0  0  0
 43 42  1  0  0  0  0
 44 45  1  0  0  0  0
 46 44  1  0  0  0  0
M  END
>  <MODEL>
1

>  <REMARK>
 VINA RESULT:      -9.1      0.000      0.000
  Name = 
  11 active torsions:
  status: ('A' for Active; 'I' for Inactive)
    1  A    between atoms: N_1  and  C_36
    2  A    between atoms: C_3  and  C_40
    3  A    between atoms: C_7  and  N_18
    4  A    between atoms: C_7  and  C_37
    5  A    between atoms: C_9  and  C_44
    6  A    between atoms: N_13  and  C_30
    7  A    between atoms: C_14  and  N_18
    8  A    between atoms: C_16  and  C_30
    9  A    between atoms: C_16  and  C_46
   10  A    between atoms: C_36  and  C_37
   11  A    between atoms: C_38  and  C_46
                            x       y       z     vdW  Elec       q    Type
                         _______ _______ _______ _____ _____    ______ ____

>  <TORSDO>
F 11

$$$$
=
 OpenBabel10232408013D

 46 51  0  0  1  0  0  0  0  0999 V2000
  188.8580  177.7190  139.9660 C   0  0  0  0  0  3  0  0  0  0  0  0
  188.2240  177.8450  138.7260 C   0  0  0  0  0  0  0  0  0  0  0  0
  190.2690  177.1680  137.6360 C   0  0  0  0  0  3  0  0  0  0  0  0
  190.9210  177.0220  138.8720 C   0  0  0  0  0  0  0  0  0  0  0  0
  188.9360  177.5720  137.5620 C   0  0  0  0  0  3  0  0  0  0  0  0
  190.1960  177.3130  140.0630 C   0  0  0  0  0  0  0  0  0  0  0  0
  190.6930  176.7470  144.6630 C   0  0  0  0  0  0  0  0  0  0  0  0
  187.3170  178.1870  147.4160 C   0  0  0  0  0  2  0  0  0  0  0  0
  191.4200  176.0800  143.5250 C   0  0  0  0  0  2  0  0  0  0  0  0
  190.7470  177.2740  141.4600 C   0  0  1  0  0  3  0  0  0  0  0  0
  189.4900  177.3000  147.4350 C   0  0  0  0  0  0  0  0  0  0  0  0
  189.7170  177.8620  144.4250 C   0  0  0  0  0  0  0  0  0  0  0  0
  187.8840  177.9550  148.7870 C   0  0  0  0  0  3  0  0  0  0  0  0
  191.0460  176.3210  145.8420 N   0  0  0  0  0  0  0  0  0  0  0  0
  190.5880  176.6880  147.1230 N   0  0  0  0  0  0  0  0  0  0  0  0
  190.7560  178.5960  142.2340 C   0  0  0  0  0  2  0  0  0  0  0  0
  189.0820  177.4630  148.7800 N   0  0  0  0  0  0  0  0  0  0  0  0
  188.5560  178.0950  145.2800 C   0  0  0  0  0  3  0  0  0  0  0  0
  188.4520  177.7690  146.5550 C   0  0  0  0  0  0  0  0  0  0  0  0
  189.7410  178.6390  143.3330 C   0  0  0  0  0  3  0  0  0  0  0  0
  190.5890  175.9860  142.2550 C   0  0  0  0  0  2  0  0  0  0  0  0
  192.3320  176.5690  138.8270 C   0  0  0  0  0  0  0  0  0  0  0  0
  192.7180  175.4290  138.0600 N   0  0  0  0  0  2  0  0  0  0  0  0
  193.2170  177.2400  139.4260 O   0  0  0  0  0  0  0  0  0  0  0  0
  194.1070  175.0290  137.8730 C   0  0  0  0  0  2  0  0  0  0  0  0
  193.6750  173.5740  135.8800 C   0  0  0  0  0  1  0  0  0  0  0  0
  194.2050  173.6080  137.3100 C   0  0  1  0  0  3  0  0  0  0  0  0
  197.4440  174.4730  136.1770 C   0  0  0  0  0  2  0  0  0  0  0  0
  196.3130  173.9590  139.5170 O   0  0  0  0  0  0  0  0  0  0  0  0
  197.6620  174.5450  137.6760 C   0  0  0  0  0  2  0  0  0  0  0  0
  196.5120  173.8580  138.3160 C   0  0  0  0  0  0  0  0  0  0  0  0
  196.4330  173.0070  135.7850 S   0  0  0  0  0  0  0  0  0  0  0  0
  195.6320  173.0250  137.4280 C   0  0  2  0  0  0  0  0  0  0  0  0
  195.8110  170.6620  136.9190 O   0  0  0  0  0  1  0  0  0  0  0  0
  195.5540  171.5820  137.9400 C   0  0  0  0  0  2  0  0  0  0  0  0
  186.8570  178.2540  138.6310 N   0  0  0  0  0  2  0  0  0  0  0  0
  185.9270  177.6720  137.6750 C   0  0  0  0  0  2  0  0  0  0  0  0
  184.5030  177.8050  138.1830 C   0  0  0  0  0  2  0  0  0  0  0  0
  184.3080  179.1550  138.8450 C   0  0  0  0  0  2  0  0  0  0  0  0
  183.4970  178.9930  140.0410 N   0  0  0  0  0  2  0  0  0  0  0  0
  183.8240  178.8710  143.8590 C   0  0  0  0  0  2  0  0  0  0  0  0
  183.1300  178.6870  142.5130 C   0  0  0  0  0  2  0  0  0  0  0  0
  184.0630  178.8860  141.3480 C   0  0  0  0  0  0  0  0  0  0  0  0
  186.0400  178.7720  142.7920 C   0  0  0  0  0  2  0  0  0  0  0  0
  185.1520  178.1350  143.8530 C   0  0  0  0  0  2  0  0  0  0  0  0
  185.3590  178.8480  141.4970 N   0  0  0  0  0  0  0  0  0  0  0  0
  1  6  1  0  0  0  0
  2  1  2  0  0  0  0
  3  4  1  0  0  0  0
  4  6  2  0  0  0  0
  5  3  2  0  0  0  0
  5  2  1  0  0  0  0
  7 14  2  0  0  0  0
  8 13  1  0  0  0  0
  9  7  1  0  0  0  0
 10  6  1  6  0  0  0
 10 16  1  0  0  0  0
 10 21  1  0  0  0  0
 11 17  1  0  0  0  0
 12  7  1  0  0  0  0
 12 18  1  0  0  0  0
 14 15  1  0  0  0  0
 15 11  2  0  0  0  0
 16 20  1  0  0  0  0
 17 13  2  0  0  0  0
 18 19  2  0  0  0  0
 19  8  1  0  0  0  0
 19 11  1  0  0  0  0
 20 12  2  0  0  0  0
 21  9  1  0  0  0  0
 22  4  1  0  0  0  0
 22 24  2  0  0  0  0
 23 22  1  0  0  0  0
 25 23  1  0  0  0  0
 27 26  1  6  0  0  0
 27 33  1  0  0  0  0
 27 25  1  0  0  0  0
 28 30  1  0  0  0  0
 30 31  1  0  0  0  0
 31 29  2  0  0  0  0
 32 28  1  0  0  0  0
 32 33  1  0  0  0  0
 33 35  1  1  0  0  0
 33 31  1  0  0  0  0
 34 35  1  0  0  0  0
 36  2  1  0  0  0  0
 37 38  1  0  0  0  0
 37 36  1  0  0  0  0
 38 39  1  0  0  0  0
 39 40  1  0  0  0  0
 40 43  1  0  0  0  0
 42 41  1  0  0  0  0
 43 46  2  0  0  0  0
 43 42  1  0  0  0  0
 44 45  1  0  0  0  0
 45 41  1  0  0  0  0
 46 44  1  0  0  0  0
M  END
>  <MODEL>
2

>  <REMARK>
 VINA RESULT:      -8.7      1.700      2.418
  Name = 
  11 active torsions:
  status: ('A' for Active; 'I' for Inactive)
    1  A    between atoms: N_1  and  C_36
    2  A    between atoms: C_3  and  C_40
    3  A    between atoms: C_7  and  N_18
    4  A    between atoms: C_7  and  C_37
    5  A    between atoms: C_9  and  C_44
    6  A    between atoms: N_13  and  C_30
    7  A    between atoms: C_14  and  N_18
    8  A    between atoms: C_16  and  C_30
    9  A    between atoms: C_16  and  C_46
   10  A    between atoms: C_36  and  C_37
   11  A    between atoms: C_38  and  C_46
                            x       y       z     vdW  Elec       q    Type
                         _______ _______ _______ _____ _____    ______ ____

>  <TORSDO>
F 11

$$$$
=
 OpenBabel10232408013D

 46 51  0  0  1  0  0  0  0  0999 V2000
  187.0960  177.1490  137.2800 C   0  0  0  0  0  3  0  0  0  0  0  0
  186.1060  176.8310  136.3440 C   0  0  0  0  0  0  0  0  0  0  0  0
  187.8180  176.0430  134.8350 C   0  0  0  0  0  3  0  0  0  0  0  0
  188.8270  176.3420  135.7670 C   0  0  0  0  0  0  0  0  0  0  0  0
  186.4740  176.2810  135.1200 C   0  0  0  0  0  3  0  0  0  0  0  0
  188.4520  176.9170  137.0160 C   0  0  0  0  0  0  0  0  0  0  0  0
  190.7870  177.3030  141.0320 C   0  0  0  0  0  0  0  0  0  0  0  0
  188.4250  177.0710  144.9590 C   0  0  0  0  0  2  0  0  0  0  0  0
  191.2920  176.9830  139.6500 C   0  0  0  0  0  2  0  0  0  0  0  0
  189.3940  177.3580  138.1000 C   0  0  1  0  0  3  0  0  0  0  0  0
  190.5660  177.4850  144.0900 C   0  0  0  0  0  0  0  0  0  0  0  0
  189.3560  177.6860  141.2750 C   0  0  0  0  0  0  0  0  0  0  0  0
  189.4740  177.3560  145.9950 C   0  0  0  0  0  3  0  0  0  0  0  0
  191.7080  177.2870  141.9520 N   0  0  0  0  0  0  0  0  0  0  0  0
  191.6200  177.5160  143.3390 N   0  0  0  0  0  0  0  0  0  0  0  0
  188.9660  178.5700  138.9330 C   0  0  0  0  0  2  0  0  0  0  0  0
  190.6500  177.5800  145.5000 N   0  0  0  0  0  0  0  0  0  0  0  0
  188.6520  177.3760  142.5180 C   0  0  0  0  0  3  0  0  0  0  0  0
  189.2070  177.2130  143.7040 C   0  0  0  0  0  0  0  0  0  0  0  0
  188.5630  178.2090  140.3290 C   0  0  0  0  0  3  0  0  0  0  0  0
  190.2540  176.2980  138.7750 C   0  0  0  0  0  2  0  0  0  0  0  0
  190.2180  176.0290  135.3620 C   0  0  0  0  0  0  0  0  0  0  0  0
  190.9070  174.9010  135.9000 N   0  0  0  0  0  2  0  0  0  0  0  0
  190.7790  176.7330  134.4770 O   0  0  0  0  0  0  0  0  0  0  0  0
  192.2190  174.4720  135.4310 C   0  0  0  0  0  2  0  0  0  0  0  0
  193.0260  172.2050  136.1280 C   0  0  0  0  0  1  0  0  0  0  0  0
  192.9630  173.6810  136.5100 C   0  0  1  0  0  3  0  0  0  0  0  0
  195.7530  174.8100  134.6490 C   0  0  0  0  0  2  0  0  0  0  0  0
  193.8080  176.5850  137.0500 O   0  0  0  0  0  0  0  0  0  0  0  0
  195.3700  176.0960  135.3550 C   0  0  0  0  0  2  0  0  0  0  0  0
  194.4470  175.7290  136.4580 C   0  0  0  0  0  0  0  0  0  0  0  0
  195.6300  173.4190  135.8210 S   0  0  0  0  0  0  0  0  0  0  0  0
  194.3580  174.2730  136.8190 C   0  0  2  0  0  0  0  0  0  0  0  0
  195.4310  172.8940  138.4970 O   0  0  0  0  0  1  0  0  0  0  0  0
  194.6880  174.0610  138.3020 C   0  0  0  0  0  2  0  0  0  0  0  0
  184.7230  177.0650  136.6210 N   0  0  0  0  0  2  0  0  0  0  0  0
  184.1940  177.1370  137.9750 C   0  0  0  0  0  2  0  0  0  0  0  0
  183.9220  178.5810  138.3530 C   0  0  0  0  0  2  0  0  0  0  0  0
  183.3420  178.6550  139.7520 C   0  0  0  0  0  2  0  0  0  0  0  0
  184.4230  178.6280  140.7240 N   0  0  0  0  0  2  0  0  0  0  0  0
  185.0140  178.3840  144.5040 C   0  0  0  0  0  2  0  0  0  0  0  0
  185.3880  178.6490  143.0490 C   0  0  0  0  0  2  0  0  0  0  0  0
  184.1930  178.6460  142.1330 C   0  0  0  0  0  0  0  0  0  0  0  0
  182.6320  178.7680  144.0180 C   0  0  0  0  0  2  0  0  0  0  0  0
  183.8040  179.2200  144.8800 C   0  0  0  0  0  2  0  0  0  0  0  0
  182.9790  178.7720  142.5960 N   0  0  0  0  0  0  0  0  0  0  0  0
  2 36  1  0  0  0  0
  2  1  2  0  0  0  0
  3  5  2  0  0  0  0
  3  4  1  0  0  0  0
  4  6  2  0  0  0  0
  5  2  1  0  0  0  0
  6  1  1  0  0  0  0
  7 12  1  0  0  0  0
  7 14  2  0  0  0  0
  8 13  1  0  0  0  0
  9  7  1  0  0  0  0
 10  6  1  1  0  0  0
 10 21  1  0  0  0  0
 10 16  1  0  0  0  0
 11 17  1  0  0  0  0
 12 18  1  0  0  0  0
 14 15  1  0  0  0  0
 15 11  2  0  0  0  0
 16 20  1  0  0  0  0
 17 13  2  0  0  0  0
 18 19  2  0  0  0  0
 19 11  1  0  0  0  0
 19  8  1  0  0  0  0
 20 12  2  0  0  0  0
 21  9  1  0  0  0  0
 22  4  1  0  0  0  0
 22 23  1  0  0  0  0
 24 22  2  0  0  0  0
 25 23  1  0  0  0  0
 25 27  1  0  0  0  0
 27 26  1  6  0  0  0
 27 33  1  0  0  0  0
 28 30  1  0  0  0  0
 28 32  1  0  0  0  0
 30 31  1  0  0  0  0
 31 33  1  0  0  0  0
 31 29  2  0  0  0  0
 32 33  1  0  0  0  0
 33 35  1  1  0  0  0
 35 34  1  0  0  0  0
 36 37  1  0  0  0  0
 37 38  1  0  0  0  0
 38 39  1  0  0  0  0
 39 40  1  0  0  0  0
 40 43  1  0  0  0  0
 41 45  1  0  0  0  0
 42 41  1  0  0  0  0
 43 46  2  0  0  0  0
 43 42  1  0  0  0  0
 44 45  1  0  0  0  0
 46 44  1  0  0  0  0
M  END
>  <MODEL>
3

>  <REMARK>
 VINA RESULT:      -8.6      1.602      2.328
  Name = 
  11 active torsions:
  status: ('A' for Active; 'I' for Inactive)
    1  A    between atoms: N_1  and  C_36
    2  A    between atoms: C_3  and  C_40
    3  A    between atoms: C_7  and  N_18
    4  A    between atoms: C_7  and  C_37
    5  A    between atoms: C_9  and  C_44
    6  A    between atoms: N_13  and  C_30
    7  A    between atoms: C_14  and  N_18
    8  A    between atoms: C_16  and  C_30
    9  A    between atoms: C_16  and  C_46
   10  A    between atoms: C_36  and  C_37
   11  A    between atoms: C_38  and  C_46
                            x       y       z     vdW  Elec       q    Type
                         _______ _______ _______ _____ _____    ______ ____

>  <TORSDO>
F 11

$$$$
=
 OpenBabel10232408013D

 46 51  0  0  1  0  0  0  0  0999 V2000
  186.5590  177.3900  137.9250 C   0  0  0  0  0  3  0  0  0  0  0  0
  185.4210  177.1650  137.1450 C   0  0  0  0  0  0  0  0  0  0  0  0
  186.8370  176.4610  135.3210 C   0  0  0  0  0  3  0  0  0  0  0  0
  187.9930  176.6680  136.0920 C   0  0  0  0  0  0  0  0  0  0  0  0
  185.5650  176.7040  135.8400 C   0  0  0  0  0  3  0  0  0  0  0  0
  187.8460  177.1520  137.4240 C   0  0  0  0  0  0  0  0  0  0  0  0
  190.7620  177.2420  141.0590 C   0  0  0  0  0  0  0  0  0  0  0  0
  188.9850  177.0550  145.2850 C   0  0  0  0  0  2  0  0  0  0  0  0
  191.0350  176.9310  139.6120 C   0  0  0  0  0  2  0  0  0  0  0  0
  188.9660  177.4900  138.3660 C   0  0  1  0  0  3  0  0  0  0  0  0
  191.0030  177.3420  144.1200 C   0  0  0  0  0  0  0  0  0  0  0  0
  189.4150  177.7190  141.5190 C   0  0  0  0  0  0  0  0  0  0  0  0
  190.1930  177.2310  146.1620 C   0  0  0  0  0  3  0  0  0  0  0  0
  191.8040  177.1310  141.8330 N   0  0  0  0  0  0  0  0  0  0  0  0
  191.9360  177.3210  143.2220 N   0  0  0  0  0  0  0  0  0  0  0  0
  188.7560  178.7020  139.2790 C   0  0  0  0  0  2  0  0  0  0  0  0
  191.2980  177.3850  145.5030 N   0  0  0  0  0  0  0  0  0  0  0  0
  188.8780  177.4200  142.8440 C   0  0  0  0  0  3  0  0  0  0  0  0
  189.5850  177.1800  143.9320 C   0  0  0  0  0  0  0  0  0  0  0  0
  188.5350  178.3270  140.7110 C   0  0  0  0  0  3  0  0  0  0  0  0
  189.8330  176.3500  138.8850 C   0  0  0  0  0  2  0  0  0  0  0  0
  189.2890  176.3580  135.4410 C   0  0  0  0  0  0  0  0  0  0  0  0
  189.8030  175.0270  135.4150 N   0  0  0  0  0  2  0  0  0  0  0  0
  189.9160  177.2760  134.8430 O   0  0  0  0  0  0  0  0  0  0  0  0
  190.9980  174.6500  134.6710 C   0  0  0  0  0  2  0  0  0  0  0  0
  191.7610  172.2690  134.8250 C   0  0  0  0  0  1  0  0  0  0  0  0
  191.8520  173.6530  135.4580 C   0  0  1  0  0  3  0  0  0  0  0  0
  193.4980  176.4410  136.8870 C   0  0  0  0  0  2  0  0  0  0  0  0
  193.9210  172.9810  137.6270 O   0  0  0  0  0  0  0  0  0  0  0  0
  194.0700  175.3300  137.7450 C   0  0  0  0  0  2  0  0  0  0  0  0
  193.7740  174.0500  137.0550 C   0  0  0  0  0  0  0  0  0  0  0  0
  193.4460  175.8920  135.1480 S   0  0  0  0  0  0  0  0  0  0  0  0
  193.3120  174.1330  135.6270 C   0  0  2  0  0  0  0  0  0  0  0  0
  195.4540  173.9560  134.5090 O   0  0  0  0  0  1  0  0  0  0  0  0
  194.2290  173.3150  134.7110 C   0  0  0  0  0  2  0  0  0  0  0  0
  184.1090  177.4040  137.6620 N   0  0  0  0  0  2  0  0  0  0  0  0
  183.2680  176.3410  138.1920 C   0  0  0  0  0  2  0  0  0  0  0  0
  182.6230  176.7850  139.4920 C   0  0  0  0  0  2  0  0  0  0  0  0
  183.2540  178.0760  139.9750 C   0  0  0  0  0  2  0  0  0  0  0  0
  182.6770  178.4430  141.2590 N   0  0  0  0  0  2  0  0  0  0  0  0
  183.7180  179.2990  144.8480 C   0  0  0  0  0  2  0  0  0  0  0  0
  182.7520  178.9220  143.7290 C   0  0  0  0  0  2  0  0  0  0  0  0
  183.4580  178.5680  142.4470 C   0  0  0  0  0  0  0  0  0  0  0  0
  185.6240  178.3920  143.5810 C   0  0  0  0  0  2  0  0  0  0  0  0
  184.8590  178.2980  144.8950 C   0  0  0  0  0  2  0  0  0  0  0  0
  184.7280  178.2690  142.4290 N   0  0  0  0  0  0  0  0  0  0  0  0
  2 36  1  0  0  0  0
  2  1  2  0  0  0  0
  3  5  2  0  0  0  0
  3  4  1  0  0  0  0
  4  6  2  0  0  0  0
  5  2  1  0  0  0  0
  6  1  1  0  0  0  0
  7 12  1  0  0  0  0
  7 14  2  0  0  0  0
  8 13  1  0  0  0  0
  9  7  1  0  0  0  0
 10  6  1  1  0  0  0
 10 21  1  0  0  0  0
 10 16  1  0  0  0  0
 11 17  1  0  0  0  0
 12 18  1  0  0  0  0
 14 15  1  0  0  0  0
 15 11  2  0  0  0  0
 16 20  1  0  0  0  0
 17 13  2  0  0  0  0
 18 19  2  0  0  0  0
 19 11  1  0  0  0  0
 19  8  1  0  0  0  0
 20 12  2  0  0  0  0
 21  9  1  0  0  0  0
 22  4  1  0  0  0  0
 23 22  1  0  0  0  0
 24 22  2  0  0  0  0
 25 23  1  0  0  0  0
 25 27  1  0  0  0  0
 27 26  1  6  0  0  0
 27 33  1  0  0  0  0
 28 30  1  0  0  0  0
 31 29  2  0  0  0  0
 31 30  1  0  0  0  0
 32 33  1  0  0  0  0
 32 28  1  0  0  0  0
 33 35  1  6  0  0  0
 33 31  1  0  0  0  0
 34 35  1  0  0  0  0
 36 37  1  0  0  0  0
 37 38  1  0  0  0  0
 38 39  1  0  0  0  0
 39 40  1  0  0  0  0
 40 43  1  0  0  0  0
 41 45  1  0  0  0  0
 42 41  1  0  0  0  0
 43 42  1  0  0  0  0
 44 45  1  0  0  0  0
 46 43  2  0  0  0  0
 46 44  1  0  0  0  0
M  END
>  <MODEL>
4

>  <REMARK>
 VINA RESULT:      -8.3      1.822      2.640
  Name = 
  11 active torsions:
  status: ('A' for Active; 'I' for Inactive)
    1  A    between atoms: N_1  and  C_36
    2  A    between atoms: C_3  and  C_40
    3  A    between atoms: C_7  and  N_18
    4  A    between atoms: C_7  and  C_37
    5  A    between atoms: C_9  and  C_44
    6  A    between atoms: N_13  and  C_30
    7  A    between atoms: C_14  and  N_18
    8  A    between atoms: C_16  and  C_30
    9  A    between atoms: C_16  and  C_46
   10  A    between atoms: C_36  and  C_37
   11  A    between atoms: C_38  and  C_46
                            x       y       z     vdW  Elec       q    Type
                         _______ _______ _______ _____ _____    ______ ____

>  <TORSDO>
F 11

$$$$
=
 OpenBabel10232408013D

 46 51  0  0  1  0  0  0  0  0999 V2000
  186.3450  177.6490  138.0550 C   0  0  0  0  0  3  0  0  0  0  0  0
  185.1350  177.5820  137.3580 C   0  0  0  0  0  0  0  0  0  0  0  0
  186.3520  177.0560  135.3410 C   0  0  0  0  0  3  0  0  0  0  0  0
  187.5780  177.1050  136.0250 C   0  0  0  0  0  0  0  0  0  0  0  0
  185.1440  177.2890  135.9980 C   0  0  0  0  0  3  0  0  0  0  0  0
  187.5700  177.4180  137.4150 C   0  0  0  0  0  0  0  0  0  0  0  0
  190.6560  177.0730  140.8920 C   0  0  0  0  0  0  0  0  0  0  0  0
  189.1110  177.2760  145.2080 C   0  0  0  0  0  2  0  0  0  0  0  0
  190.7910  176.6930  139.4420 C   0  0  0  0  0  2  0  0  0  0  0  0
  188.7820  177.5750  138.2890 C   0  0  1  0  0  3  0  0  0  0  0  0
  191.0800  177.1890  143.9320 C   0  0  0  0  0  0  0  0  0  0  0  0
  189.4380  177.7840  141.4070 C   0  0  0  0  0  0  0  0  0  0  0  0
  190.3780  177.2580  146.0150 C   0  0  0  0  0  3  0  0  0  0  0  0
  191.7050  176.7990  141.6140 N   0  0  0  0  0  0  0  0  0  0  0  0
  191.9450  176.9910  142.9890 N   0  0  0  0  0  0  0  0  0  0  0  0
  188.8330  178.8230  139.1760 C   0  0  0  0  0  2  0  0  0  0  0  0
  191.4550  177.2070  145.2970 N   0  0  0  0  0  0  0  0  0  0  0  0
  188.9330  177.6070  142.7660 C   0  0  0  0  0  3  0  0  0  0  0  0
  189.6480  177.2700  143.8220 C   0  0  0  0  0  0  0  0  0  0  0  0
  188.6310  178.5180  140.6280 C   0  0  0  0  0  3  0  0  0  0  0  0
  189.4680  176.3140  138.7940 C   0  0  0  0  0  2  0  0  0  0  0  0
  188.7950  176.8220  135.2270 C   0  0  0  0  0  0  0  0  0  0  0  0
  189.4600  175.5630  135.3170 N   0  0  0  0  0  2  0  0  0  0  0  0
  189.2110  177.6850  134.4060 O   0  0  0  0  0  0  0  0  0  0  0  0
  190.5730  175.1870  134.4540 C   0  0  0  0  0  2  0  0  0  0  0  0
  191.7330  176.4440  136.2850 C   0  0  0  0  0  1  0  0  0  0  0  0
  191.9190  175.4660  135.1290 C   0  0  1  0  0  3  0  0  0  0  0  0
  194.9220  174.6230  136.8000 C   0  0  0  0  0  2  0  0  0  0  0  0
  191.5750  173.7500  137.6540 O   0  0  0  0  0  0  0  0  0  0  0  0
  193.9110  174.0360  137.7650 C   0  0  0  0  0  2  0  0  0  0  0  0
  192.6120  173.9720  137.0490 C   0  0  0  0  0  0  0  0  0  0  0  0
  194.4060  174.2560  135.0900 S   0  0  0  0  0  0  0  0  0  0  0  0
  192.6420  174.1690  135.5600 C   0  0  2  0  0  0  0  0  0  0  0  0
  192.6070  171.7680  135.2350 O   0  0  0  0  0  1  0  0  0  0  0  0
  192.0120  172.9690  134.8420 C   0  0  0  0  0  2  0  0  0  0  0  0
  183.8870  177.8140  138.0170 N   0  0  0  0  0  2  0  0  0  0  0  0
  183.6800  178.9210  138.9400 C   0  0  0  0  0  2  0  0  0  0  0  0
  182.2620  178.8920  139.4810 C   0  0  0  0  0  2  0  0  0  0  0  0
  182.2740  178.5710  140.9620 C   0  0  0  0  0  2  0  0  0  0  0  0
  183.6430  178.3380  141.3940 N   0  0  0  0  0  2  0  0  0  0  0  0
  185.7480  178.0780  144.5880 C   0  0  0  0  0  2  0  0  0  0  0  0
  185.5010  178.2140  143.0890 C   0  0  0  0  0  2  0  0  0  0  0  0
  184.0500  178.4440  142.7590 C   0  0  0  0  0  0  0  0  0  0  0  0
  183.5040  178.9550  145.0930 C   0  0  0  0  0  2  0  0  0  0  0  0
  184.9930  179.1660  145.3300 C   0  0  0  0  0  2  0  0  0  0  0  0
  183.1990  178.8430  143.6650 N   0  0  0  0  0  0  0  0  0  0  0  0
  2 36  1  0  0  0  0
  2  1  2  0  0  0  0
  3  5  2  0  0  0  0
  3  4  1  0  0  0  0
  4  6  2  0  0  0  0
  5  2  1  0  0  0  0
  6  1  1  0  0  0  0
  7 12  1  0  0  0  0
  7 14  2  0  0  0  0
  8 13  1  0  0  0  0
  9  7  1  0  0  0  0
 10  6  1  1  0  0  0
 10 21  1  0  0  0  0
 10 16  1  0  0  0  0
 11 17  1  0  0  0  0
 12 18  1  0  0  0  0
 14 15  1  0  0  0  0
 15 11  2  0  0  0  0
 16 20  1  0  0  0  0
 17 13  2  0  0  0  0
 18 19  2  0  0  0  0
 19 11  1  0  0  0  0
 19  8  1  0  0  0  0
 20 12  2  0  0  0  0
 21  9  1  0  0  0  0
 22 23  1  0  0  0  0
 22  4  1  0  0  0  0
 24 22  2  0  0  0  0
 25 27  1  0  0  0  0
 25 23  1  0  0  0  0
 27 33  1  0  0  0  0
 27 26  1  1  0  0  0
 28 30  1  0  0  0  0
 31 29  2  0  0  0  0
 31 30  1  0  0  0  0
 32 33  1  0  0  0  0
 32 28  1  0  0  0  0
 33 35  1  6  0  0  0
 33 31  1  0  0  0  0
 35 34  1  0  0  0  0
 36 37  1  0  0  0  0
 37 38  1  0  0  0  0
 38 39  1  0  0  0  0
 39 40  1  0  0  0  0
 40 43  1  0  0  0  0
 41 45  1  0  0  0  0
 42 41  1  0  0  0  0
 43 42  1  0  0  0  0
 43 46  2  0  0  0  0
 44 45  1  0  0  0  0
 46 44  1  0  0  0  0
M  END
>  <MODEL>
5

>  <REMARK>
 VINA RESULT:      -8.0      1.887      2.803
  Name = 
  11 active torsions:
  status: ('A' for Active; 'I' for Inactive)
    1  A    between atoms: N_1  and  C_36
    2  A    between atoms: C_3  and  C_40
    3  A    between atoms: C_7  and  N_18
    4  A    between atoms: C_7  and  C_37
    5  A    between atoms: C_9  and  C_44
    6  A    between atoms: N_13  and  C_30
    7  A    between atoms: C_14  and  N_18
    8  A    between atoms: C_16  and  C_30
    9  A    between atoms: C_16  and  C_46
   10  A    between atoms: C_36  and  C_37
   11  A    between atoms: C_38  and  C_46
                            x       y       z     vdW  Elec       q    Type
                         _______ _______ _______ _____ _____    ______ ____

>  <TORSDO>
F 11

$$$$
=
 OpenBabel10232408013D

 46 51  0  0  1  0  0  0  0  0999 V2000
  190.7410  176.7620  140.6830 C   0  0  0  0  0  3  0  0  0  0  0  0
  190.3730  177.2220  141.9510 C   0  0  0  0  0  0  0  0  0  0  0  0
  188.4860  178.3600  140.9650 C   0  0  0  0  0  3  0  0  0  0  0  0
  188.8300  177.8980  139.6840 C   0  0  0  0  0  0  0  0  0  0  0  0
  189.2450  178.0250  142.0870 C   0  0  0  0  0  3  0  0  0  0  0  0
  189.9920  177.0860  139.5430 C   0  0  0  0  0  0  0  0  0  0  0  0
  191.8650  174.3600  136.2580 C   0  0  0  0  0  0  0  0  0  0  0  0
  195.4960  171.7840  137.3690 C   0  0  0  0  0  2  0  0  0  0  0  0
  190.5090  175.0130  136.3110 C   0  0  0  0  0  2  0  0  0  0  0  0
  190.5450  176.5570  138.2500 C   0  0  1  0  0  3  0  0  0  0  0  0
  194.1510  172.4310  135.5570 C   0  0  0  0  0  0  0  0  0  0  0  0
  192.9100  174.6340  137.3000 C   0  0  0  0  0  0  0  0  0  0  0  0
  195.8770  171.1640  136.0560 C   0  0  0  0  0  3  0  0  0  0  0  0
  192.0550  173.6160  135.2060 N   0  0  0  0  0  0  0  0  0  0  0  0
  193.1700  172.8450  134.8200 N   0  0  0  0  0  0  0  0  0  0  0  0
  191.9990  176.9140  137.9260 C   0  0  0  0  0  2  0  0  0  0  0  0
  195.1240  171.5290  135.0670 N   0  0  0  0  0  0  0  0  0  0  0  0
  193.9030  173.6430  137.7060 C   0  0  0  0  0  3  0  0  0  0  0  0
  194.3610  172.6530  136.9640 C   0  0  0  0  0  0  0  0  0  0  0  0
  192.9300  175.7470  138.0460 C   0  0  0  0  0  3  0  0  0  0  0  0
  190.0040  175.2330  137.7280 C   0  0  0  0  0  2  0  0  0  0  0  0
  187.9390  178.3030  138.5710 C   0  0  0  0  0  0  0  0  0  0  0  0
  186.6110  177.7900  138.4640 N   0  0  0  0  0  2  0  0  0  0  0  0
  188.3380  179.1660  137.7410 O   0  0  0  0  0  0  0  0  0  0  0  0
  185.6530  178.2610  137.4720 C   0  0  0  0  0  2  0  0  0  0  0  0
  184.5030  176.0820  137.9230 C   0  0  0  0  0  1  0  0  0  0  0  0
  184.2990  177.5650  137.6330 C   0  0  1  0  0  3  0  0  0  0  0  0
  184.1070  177.7020  141.1640 C   0  0  0  0  0  2  0  0  0  0  0  0
  184.4790  180.3830  138.8450 O   0  0  0  0  0  0  0  0  0  0  0  0
  184.3780  179.1630  140.8590 C   0  0  0  0  0  2  0  0  0  0  0  0
  184.1260  179.3580  139.4090 C   0  0  0  0  0  0  0  0  0  0  0  0
  182.8990  177.0510  139.9620 S   0  0  0  0  0  0  0  0  0  0  0  0
  183.4020  178.2580  138.6860 C   0  0  2  0  0  0  0  0  0  0  0  0
  181.0280  178.7120  138.8530 O   0  0  0  0  0  1  0  0  0  0  0  0
  182.1370  178.7950  138.0070 C   0  0  0  0  0  2  0  0  0  0  0  0
  191.1370  176.8850  143.1120 N   0  0  0  0  0  2  0  0  0  0  0  0
  191.1390  177.7040  144.3150 C   0  0  0  0  0  2  0  0  0  0  0  0
  191.1100  176.8190  145.5480 C   0  0  0  0  0  2  0  0  0  0  0  0
  189.7910  176.9810  146.2770 C   0  0  0  0  0  2  0  0  0  0  0  0
  188.7100  177.0510  145.3070 N   0  0  0  0  0  2  0  0  0  0  0  0
  185.2320  178.5940  144.8400 C   0  0  0  0  0  2  0  0  0  0  0  0
  186.3960  177.6620  144.5230 C   0  0  0  0  0  2  0  0  0  0  0  0
  187.4580  177.6760  145.5910 C   0  0  0  0  0  0  0  0  0  0  0  0
  185.9820  178.8280  147.1720 C   0  0  0  0  0  2  0  0  0  0  0  0
  184.8130  178.4140  146.2880 C   0  0  0  0  0  2  0  0  0  0  0  0
  187.2170  178.1420  146.7860 N   0  0  0  0  0  0  0  0  0  0  0  0
  1  2  1  0  0  0  0
  2  5  2  0  0  0  0
  2 36  1  0  0  0  0
  3  5  1  0  0  0  0
  4  3  2  0  0  0  0
  6  4  1  0  0  0  0
  6  1  2  0  0  0  0
  7  9  1  0  0  0  0
  7 12  1  0  0  0  0
  9 21  1  0  0  0  0
 10  6  1  1  0  0  0
 11 19  1  0  0  0  0
 12 18  1  0  0  0  0
 12 20  2  0  0  0  0
 13  8  1  0  0  0  0
 14  7  2  0  0  0  0
 15 14  1  0  0  0  0
 15 11  2  0  0  0  0
 16 20  1  0  0  0  0
 16 10  1  0  0  0  0
 17 11  1  0  0  0  0
 17 13  2  0  0  0  0
 19  8  1  0  0  0  0
 19 18  2  0  0  0  0
 21 10  1  0  0  0  0
 22  4  1  0  0  0  0
 23 22  1  0  0  0  0
 24 22  2  0  0  0  0
 25 27  1  0  0  0  0
 25 23  1  0  0  0  0
 27 26  1  1  0  0  0
 27 33  1  0  0  0  0
 29 31  2  0  0  0  0
 30 28  1  0  0  0  0
 31 30  1  0  0  0  0
 32 28  1  0  0  0  0
 33 35  1  6  0  0  0
 33 31  1  0  0  0  0
 33 32  1  0  0  0  0
 35 34  1  0  0  0  0
 36 37  1  0  0  0  0
 37 38  1  0  0  0  0
 38 39  1  0  0  0  0
 40 43  1  0  0  0  0
 40 39  1  0  0  0  0
 41 45  1  0  0  0  0
 42 41  1  0  0  0  0
 42 43  1  0  0  0  0
 43 46  2  0  0  0  0
 45 44  1  0  0  0  0
 46 44  1  0  0  0  0
M  END
>  <MODEL>
6

>  <REMARK>
 VINA RESULT:      -8.0      3.499      9.335
  Name = 
  11 active torsions:
  status: ('A' for Active; 'I' for Inactive)
    1  A    between atoms: N_1  and  C_36
    2  A    between atoms: C_3  and  C_40
    3  A    between atoms: C_7  and  N_18
    4  A    between atoms: C_7  and  C_37
    5  A    between atoms: C_9  and  C_44
    6  A    between atoms: N_13  and  C_30
    7  A    between atoms: C_14  and  N_18
    8  A    between atoms: C_16  and  C_30
    9  A    between atoms: C_16  and  C_46
   10  A    between atoms: C_36  and  C_37
   11  A    between atoms: C_38  and  C_46
                            x       y       z     vdW  Elec       q    Type
                         _______ _______ _______ _____ _____    ______ ____

>  <TORSDO>
F 11

$$$$
=
 OpenBabel10232408013D

 46 51  0  0  1  0  0  0  0  0999 V2000
  189.9390  175.7020  137.0780 C   0  0  0  0  0  3  0  0  0  0  0  0
  189.5700  175.0020  135.9250 C   0  0  0  0  0  0  0  0  0  0  0  0
  187.5450  176.3110  135.8050 C   0  0  0  0  0  3  0  0  0  0  0  0
  187.9040  177.0370  136.9540 C   0  0  0  0  0  0  0  0  0  0  0  0
  188.3680  175.3080  135.2940 C   0  0  0  0  0  3  0  0  0  0  0  0
  189.1280  176.7150  137.6080 C   0  0  0  0  0  0  0  0  0  0  0  0
  190.0940  177.6130  142.0790 C   0  0  0  0  0  0  0  0  0  0  0  0
  186.7280  177.1810  145.1670 C   0  0  0  0  0  2  0  0  0  0  0  0
  191.0240  177.3190  140.9320 C   0  0  0  0  0  2  0  0  0  0  0  0
  189.6390  177.3370  138.8770 C   0  0  1  0  0  3  0  0  0  0  0  0
  188.9550  177.8820  144.9190 C   0  0  0  0  0  0  0  0  0  0  0  0
  188.6170  177.7830  141.8680 C   0  0  0  0  0  0  0  0  0  0  0  0
  187.3750  177.6640  146.4340 C   0  0  0  0  0  3  0  0  0  0  0  0
  190.6950  177.7740  143.2230 N   0  0  0  0  0  0  0  0  0  0  0  0
  190.1700  178.0430  144.5020 N   0  0  0  0  0  0  0  0  0  0  0  0
  188.8240  178.5020  139.4480 C   0  0  0  0  0  2  0  0  0  0  0  0
  188.6040  178.0440  146.2800 N   0  0  0  0  0  0  0  0  0  0  0  0
  187.6260  177.4190  142.8780 C   0  0  0  0  0  3  0  0  0  0  0  0
  187.8200  177.3900  144.1820 C   0  0  0  0  0  0  0  0  0  0  0  0
  188.0790  178.1400  140.6940 C   0  0  0  0  0  3  0  0  0  0  0  0
  190.3940  176.4490  139.8560 C   0  0  0  0  0  2  0  0  0  0  0  0
  186.9600  178.0920  137.3940 C   0  0  0  0  0  0  0  0  0  0  0  0
  185.7950  177.7700  138.1530 N   0  0  0  0  0  2  0  0  0  0  0  0
  187.2250  179.3010  137.1500 O   0  0  0  0  0  0  0  0  0  0  0  0
  184.9140  178.7800  138.7250 C   0  0  0  0  0  2  0  0  0  0  0  0
  184.4450  179.0320  141.1730 C   0  0  0  0  0  1  0  0  0  0  0  0
  184.1320  178.2240  139.9180 C   0  0  1  0  0  3  0  0  0  0  0  0
  182.0430  178.1400  137.0630 C   0  0  0  0  0  2  0  0  0  0  0  0
  182.3010  175.7660  139.7080 O   0  0  0  0  0  0  0  0  0  0  0  0
  181.7190  176.7870  137.6650 C   0  0  0  0  0  2  0  0  0  0  0  0
  182.2260  176.7990  139.0610 C   0  0  0  0  0  0  0  0  0  0  0  0
  182.1370  179.3840  138.3930 S   0  0  0  0  0  0  0  0  0  0  0  0
  182.6140  178.1320  139.6360 C   0  0  2  0  0  0  0  0  0  0  0  0
  180.5280  178.8290  140.6540 O   0  0  0  0  0  1  0  0  0  0  0  0
  181.8350  178.4140  140.9260 C   0  0  0  0  0  2  0  0  0  0  0  0
  190.4030  173.9730  135.3840 N   0  0  0  0  0  2  0  0  0  0  0  0
  189.9480  173.0580  134.3480 C   0  0  0  0  0  2  0  0  0  0  0  0
  189.7620  171.6670  134.9260 C   0  0  0  0  0  2  0  0  0  0  0  0
  188.2870  171.3200  134.9890 C   0  0  0  0  0  2  0  0  0  0  0  0
  187.7250  171.8300  136.2300 N   0  0  0  0  0  2  0  0  0  0  0  0
  184.5630  173.5220  137.5840 C   0  0  0  0  0  2  0  0  0  0  0  0
  186.0120  173.0470  137.6160 C   0  0  0  0  0  2  0  0  0  0  0  0
  186.4840  172.5330  136.2820 C   0  0  0  0  0  0  0  0  0  0  0  0
  184.5540  173.5030  135.1230 C   0  0  0  0  0  2  0  0  0  0  0  0
  184.3330  174.3770  136.3500 C   0  0  0  0  0  2  0  0  0  0  0  0
  185.8460  172.8150  135.1780 N   0  0  0  0  0  0  0  0  0  0  0  0
  1  6  1  0  0  0  0
  2  1  2  0  0  0  0
  3  4  1  0  0  0  0
  4 22  1  0  0  0  0
  4  6  2  0  0  0  0
  5  3  2  0  0  0  0
  5  2  1  0  0  0  0
  7 14  2  0  0  0  0
  8 13  1  0  0  0  0
  9  7  1  0  0  0  0
 10  6  1  1  0  0  0
 10 16  1  0  0  0  0
 10 21  1  0  0  0  0
 11 17  1  0  0  0  0
 12  7  1  0  0  0  0
 12 18  1  0  0  0  0
 14 15  1  0  0  0  0
 15 11  2  0  0  0  0
 16 20  1  0  0  0  0
 17 13  2  0  0  0  0
 18 19  2  0  0  0  0
 19 11  1  0  0  0  0
 19  8  1  0  0  0  0
 20 12  2  0  0  0  0
 21  9  1  0  0  0  0
 22 23  1  0  0  0  0
 23 25  1  0  0  0  0
 24 22  2  0  0  0  0
 25 27  1  0  0  0  0
 27 26  1  1  0  0  0
 28 30  1  0  0  0  0
 28 32  1  0  0  0  0
 30 31  1  0  0  0  0
 31 33  1  0  0  0  0
 31 29  2  0  0  0  0
 32 33  1  0  0  0  0
 33 27  1  0  0  0  0
 33 35  1  1  0  0  0
 34 35  1  0  0  0  0
 36  2  1  0  0  0  0
 37 38  1  0  0  0  0
 37 36  1  0  0  0  0
 38 39  1  0  0  0  0
 39 40  1  0  0  0  0
 40 43  1  0  0  0  0
 41 42  1  0  0  0  0
 43 42  1  0  0  0  0
 44 46  1  0  0  0  0
 44 45  1  0  0  0  0
 45 41  1  0  0  0  0
 46 43  2  0  0  0  0
M  END
>  <MODEL>
7

>  <REMARK>
 VINA RESULT:      -7.8      4.246      8.271
  Name = 
  11 active torsions:
  status: ('A' for Active; 'I' for Inactive)
    1  A    between atoms: N_1  and  C_36
    2  A    between atoms: C_3  and  C_40
    3  A    between atoms: C_7  and  N_18
    4  A    between atoms: C_7  and  C_37
    5  A    between atoms: C_9  and  C_44
    6  A    between atoms: N_13  and  C_30
    7  A    between atoms: C_14  and  N_18
    8  A    between atoms: C_16  and  C_30
    9  A    between atoms: C_16  and  C_46
   10  A    between atoms: C_36  and  C_37
   11  A    between atoms: C_38  and  C_46
                            x       y       z     vdW  Elec       q    Type
                         _______ _______ _______ _____ _____    ______ ____

>  <TORSDO>
F 11

$$$$
=
 OpenBabel10232408013D

 46 51  0  0  1  0  0  0  0  0999 V2000
  188.9450  176.4820  137.8410 C   0  0  0  0  0  3  0  0  0  0  0  0
  188.6190  175.8770  136.6230 C   0  0  0  0  0  0  0  0  0  0  0  0
  190.9610  175.4240  136.2480 C   0  0  0  0  0  3  0  0  0  0  0  0
  191.3080  176.0140  137.4750 C   0  0  0  0  0  0  0  0  0  0  0  0
  189.6330  175.3530  135.8270 C   0  0  0  0  0  3  0  0  0  0  0  0
  190.2720  176.5630  138.2840 C   0  0  0  0  0  0  0  0  0  0  0  0
  190.2310  177.7440  142.7930 C   0  0  0  0  0  0  0  0  0  0  0  0
  186.3510  177.1510  145.1690 C   0  0  0  0  0  2  0  0  0  0  0  0
  191.3960  177.4840  141.8750 C   0  0  0  0  0  2  0  0  0  0  0  0
  190.4620  177.2850  139.5880 C   0  0  1  0  0  3  0  0  0  0  0  0
  188.5190  178.0370  145.3260 C   0  0  0  0  0  0  0  0  0  0  0  0
  188.8200  177.7710  142.2820 C   0  0  0  0  0  0  0  0  0  0  0  0
  186.6860  177.7470  146.5060 C   0  0  0  0  0  3  0  0  0  0  0  0
  190.5720  178.0100  144.0210 N   0  0  0  0  0  0  0  0  0  0  0  0
  189.7770  178.2880  145.1520 N   0  0  0  0  0  0  0  0  0  0  0  0
  189.4590  178.3970  139.9120 C   0  0  0  0  0  2  0  0  0  0  0  0
  187.8860  178.2280  146.5780 N   0  0  0  0  0  0  0  0  0  0  0  0
  187.6750  177.3660  143.0940 C   0  0  0  0  0  3  0  0  0  0  0  0
  187.6010  177.4120  144.4110 C   0  0  0  0  0  0  0  0  0  0  0  0
  188.5050  178.0260  141.0040 C   0  0  0  0  0  3  0  0  0  0  0  0
  191.0690  176.5130  140.7510 C   0  0  0  0  0  2  0  0  0  0  0  0
  192.7480  176.0160  137.8260 C   0  0  0  0  0  0  0  0  0  0  0  0
  193.5130  174.8110  137.8100 N   0  0  0  0  0  2  0  0  0  0  0  0
  193.3230  177.1100  138.0800 O   0  0  0  0  0  0  0  0  0  0  0  0
  194.9570  174.7820  138.0110 C   0  0  0  0  0  2  0  0  0  0  0  0
  194.4580  172.5430  137.0030 C   0  0  0  0  0  1  0  0  0  0  0  0
  195.5530  173.4440  137.5660 C   0  0  1  0  0  3  0  0  0  0  0  0
  196.1730  175.2240  134.5720 C   0  0  0  0  0  2  0  0  0  0  0  0
  197.9330  175.3840  137.6670 O   0  0  0  0  0  0  0  0  0  0  0  0
  197.2040  175.8690  135.4790 C   0  0  0  0  0  2  0  0  0  0  0  0
  197.3390  174.9960  136.6720 C   0  0  0  0  0  0  0  0  0  0  0  0
  196.1540  173.4250  134.8660 S   0  0  0  0  0  0  0  0  0  0  0  0
  196.7370  173.6230  136.5870 C   0  0  2  0  0  0  0  0  0  0  0  0
  198.9390  172.7450  136.0840 O   0  0  0  0  0  1  0  0  0  0  0  0
  197.7950  172.5480  136.8630 C   0  0  0  0  0  2  0  0  0  0  0  0
  187.2630  175.7920  136.1770 N   0  0  0  0  0  2  0  0  0  0  0  0
  186.2720  176.8150  136.4770 C   0  0  0  0  0  2  0  0  0  0  0  0
  184.8870  176.1980  136.5400 C   0  0  0  0  0  2  0  0  0  0  0  0
  183.8360  177.2830  136.6640 C   0  0  0  0  0  2  0  0  0  0  0  0
  183.0920  177.0950  137.8990 N   0  0  0  0  0  2  0  0  0  0  0  0
  182.9550  178.3780  141.5090 C   0  0  0  0  0  2  0  0  0  0  0  0
  182.6380  177.4360  140.3520 C   0  0  0  0  0  2  0  0  0  0  0  0
  183.4610  177.7280  139.1240 C   0  0  0  0  0  0  0  0  0  0  0  0
  184.9990  179.1610  140.3840 C   0  0  0  0  0  2  0  0  0  0  0  0
  184.4600  178.5190  141.6550 C   0  0  0  0  0  2  0  0  0  0  0  0
  184.5490  178.4450  139.1880 N   0  0  0  0  0  0  0  0  0  0  0  0
  1  6  1  0  0  0  0
  2  1  2  0  0  0  0
  3  4  1  0  0  0  0
  4 22  1  0  0  0  0
  4  6  2  0  0  0  0
  5  3  2  0  0  0  0
  5  2  1  0  0  0  0
  7 14  2  0  0  0  0
  8 13  1  0  0  0  0
  9  7  1  0  0  0  0
 10  6  1  6  0  0  0
 10 16  1  0  0  0  0
 10 21  1  0  0  0  0
 11 17  1  0  0  0  0
 12  7  1  0  0  0  0
 12 18  1  0  0  0  0
 13 17  2  0  0  0  0
 14 15  1  0  0  0  0
 15 11  2  0  0  0  0
 16 20  1  0  0  0  0
 18 19  2  0  0  0  0
 19  8  1  0  0  0  0
 19 11  1  0  0  0  0
 20 12  2  0  0  0  0
 21  9  1  0  0  0  0
 22 24  2  0  0  0  0
 23 22  1  0  0  0  0
 23 25  1  0  0  0  0
 27 26  1  6  0  0  0
 27 25  1  0  0  0  0
 28 32  1  0  0  0  0
 28 30  1  0  0  0  0
 30 31  1  0  0  0  0
 31 29  2  0  0  0  0
 32 33  1  0  0  0  0
 33 31  1  0  0  0  0
 33 35  1  1  0  0  0
 33 27  1  0  0  0  0
 34 35  1  0  0  0  0
 36 37  1  0  0  0  0
 36  2  1  0  0  0  0
 37 38  1  0  0  0  0
 38 39  1  0  0  0  0
 39 40  1  0  0  0  0
 40 43  1  0  0  0  0
 41 45  1  0  0  0  0
 42 41  1  0  0  0  0
 43 46  2  0  0  0  0
 43 42  1  0  0  0  0
 44 45  1  0  0  0  0
 46 44  1  0  0  0  0
M  END
>  <MODEL>
8

>  <REMARK>
 VINA RESULT:      -7.8      1.740      2.617
  Name = 
  11 active torsions:
  status: ('A' for Active; 'I' for Inactive)
    1  A    between atoms: N_1  and  C_36
    2  A    between atoms: C_3  and  C_40
    3  A    between atoms: C_7  and  N_18
    4  A    between atoms: C_7  and  C_37
    5  A    between atoms: C_9  and  C_44
    6  A    between atoms: N_13  and  C_30
    7  A    between atoms: C_14  and  N_18
    8  A    between atoms: C_16  and  C_30
    9  A    between atoms: C_16  and  C_46
   10  A    between atoms: C_36  and  C_37
   11  A    between atoms: C_38  and  C_46
                            x       y       z     vdW  Elec       q    Type
                         _______ _______ _______ _____ _____    ______ ____

>  <TORSDO>
F 11

$$$$
=
 OpenBabel10232408013D

 46 51  0  0  1  0  0  0  0  0999 V2000
  190.3040  176.9720  140.3090 C   0  0  0  0  0  3  0  0  0  0  0  0
  189.8050  177.5970  141.4560 C   0  0  0  0  0  0  0  0  0  0  0  0
  187.9300  178.4080  140.1700 C   0  0  0  0  0  3  0  0  0  0  0  0
  188.4060  177.7750  139.0100 C   0  0  0  0  0  0  0  0  0  0  0  0
  188.6180  178.3190  141.3800 C   0  0  0  0  0  3  0  0  0  0  0  0
  189.6280  177.0470  139.0840 C   0  0  0  0  0  0  0  0  0  0  0  0
  192.0990  174.0780  136.4730 C   0  0  0  0  0  0  0  0  0  0  0  0
  196.1070  172.5550  138.1050 C   0  0  0  0  0  2  0  0  0  0  0  0
  190.6430  174.4550  136.3890 C   0  0  0  0  0  2  0  0  0  0  0  0
  190.3170  176.3640  137.9360 C   0  0  1  0  0  3  0  0  0  0  0  0
  194.7310  172.5190  136.2040 C   0  0  0  0  0  0  0  0  0  0  0  0
  193.0350  174.7700  137.4220 C   0  0  0  0  0  0  0  0  0  0  0  0
  196.6470  171.7470  136.9590 C   0  0  0  0  0  3  0  0  0  0  0  0
  192.4640  173.1730  135.6120 N   0  0  0  0  0  0  0  0  0  0  0  0
  193.7170  172.5650  135.3990 N   0  0  0  0  0  0  0  0  0  0  0  0
  191.6890  176.9130  137.5320 C   0  0  0  0  0  2  0  0  0  0  0  0
  195.8740  171.7350  135.9190 N   0  0  0  0  0  0  0  0  0  0  0  0
  194.1820  174.1010  138.0310 C   0  0  0  0  0  3  0  0  0  0  0  0
  194.8450  173.0790  137.5240 C   0  0  0  0  0  0  0  0  0  0  0  0
  192.8180  176.0020  137.9020 C   0  0  0  0  0  3  0  0  0  0  0  0
  190.0550  174.8800  137.7260 C   0  0  0  0  0  2  0  0  0  0  0  0
  187.5810  177.9240  137.7870 C   0  0  0  0  0  0  0  0  0  0  0  0
  186.6800  176.8960  137.3750 N   0  0  0  0  0  2  0  0  0  0  0  0
  187.6280  179.0040  137.1360 O   0  0  0  0  0  0  0  0  0  0  0  0
  185.7500  177.0520  136.2640 C   0  0  0  0  0  2  0  0  0  0  0  0
  185.7500  174.5740  136.6350 C   0  0  0  0  0  1  0  0  0  0  0  0
  185.0380  175.7340  135.9460 C   0  0  1  0  0  3  0  0  0  0  0  0
  182.9870  177.2730  138.3840 C   0  0  0  0  0  2  0  0  0  0  0  0
  182.8240  177.5510  134.8360 O   0  0  0  0  0  0  0  0  0  0  0  0
  182.4370  177.9240  137.1300 C   0  0  0  0  0  2  0  0  0  0  0  0
  182.9280  177.1280  135.9770 C   0  0  0  0  0  0  0  0  0  0  0  0
  183.2770  175.5020  138.0670 S   0  0  0  0  0  0  0  0  0  0  0  0
  183.5280  175.7850  136.2780 C   0  0  2  0  0  0  0  0  0  0  0  0
  182.2720  173.7150  136.3750 O   0  0  0  0  0  1  0  0  0  0  0  0
  182.7980  174.6780  135.5090 C   0  0  0  0  0  2  0  0  0  0  0  0
  190.4960  177.5140  142.7060 N   0  0  0  0  0  2  0  0  0  0  0  0
  190.3260  178.4990  143.7640 C   0  0  0  0  0  2  0  0  0  0  0  0
  190.4010  177.8250  145.1210 C   0  0  0  0  0  2  0  0  0  0  0  0
  189.2080  176.9090  145.3170 C   0  0  0  0  0  2  0  0  0  0  0  0
  188.1810  177.6100  146.0720 N   0  0  0  0  0  2  0  0  0  0  0  0
  184.5480  178.7930  145.7550 C   0  0  0  0  0  2  0  0  0  0  0  0
  185.9420  178.7220  146.3700 C   0  0  0  0  0  2  0  0  0  0  0  0
  186.9190  177.9680  145.5070 C   0  0  0  0  0  0  0  0  0  0  0  0
  185.4110  178.0400  143.5770 C   0  0  0  0  0  2  0  0  0  0  0  0
  184.6570  179.1570  144.2850 C   0  0  0  0  0  2  0  0  0  0  0  0
  186.6800  177.7420  144.2440 N   0  0  0  0  0  0  0  0  0  0  0  0
  1  2  1  0  0  0  0
  2 36  1  0  0  0  0
  3  5  1  0  0  0  0
  4  6  1  0  0  0  0
  4  3  2  0  0  0  0
  5  2  2  0  0  0  0
  6  1  2  0  0  0  0
  7 12  1  0  0  0  0
  9  7  1  0  0  0  0
  9 21  1  0  0  0  0
 10  6  1  1  0  0  0
 11 19  1  0  0  0  0
 12 20  2  0  0  0  0
 12 18  1  0  0  0  0
 13  8  1  0  0  0  0
 14  7  2  0  0  0  0
 15 14  1  0  0  0  0
 15 11  2  0  0  0  0
 16 20  1  0  0  0  0
 16 10  1  0  0  0  0
 17 11  1  0  0  0  0
 17 13  2  0  0  0  0
 19 18  2  0  0  0  0
 19  8  1  0  0  0  0
 21 10  1  0  0  0  0
 22  4  1  0  0  0  0
 23 22  1  0  0  0  0
 24 22  2  0  0  0  0
 25 23  1  0  0  0  0
 27 25  1  0  0  0  0
 27 33  1  0  0  0  0
 27 26  1  1  0  0  0
 29 31  2  0  0  0  0
 30 28  1  0  0  0  0
 31 33  1  0  0  0  0
 31 30  1  0  0  0  0
 32 28  1  0  0  0  0
 33 35  1  6  0  0  0
 33 32  1  0  0  0  0
 35 34  1  0  0  0  0
 36 37  1  0  0  0  0
 37 38  1  0  0  0  0
 38 39  1  0  0  0  0
 39 40  1  0  0  0  0
 41 42  1  0  0  0  0
 43 40  1  0  0  0  0
 43 42  1  0  0  0  0
 44 46  1  0  0  0  0
 44 45  1  0  0  0  0
 45 41  1  0  0  0  0
 46 43  2  0  0  0  0
M  END
>  <MODEL>
9

>  <REMARK>
 VINA RESULT:      -7.7      3.495      8.917
  Name = 
  11 active torsions:
  status: ('A' for Active; 'I' for Inactive)
    1  A    between atoms: N_1  and  C_36
    2  A    between atoms: C_3  and  C_40
    3  A    between atoms: C_7  and  N_18
    4  A    between atoms: C_7  and  C_37
    5  A    between atoms: C_9  and  C_44
    6  A    between atoms: N_13  and  C_30
    7  A    between atoms: C_14  and  N_18
    8  A    between atoms: C_16  and  C_30
    9  A    between atoms: C_16  and  C_46
   10  A    between atoms: C_36  and  C_37
   11  A    between atoms: C_38  and  C_46
                            x       y       z     vdW  Elec       q    Type
                         _______ _______ _______ _____ _____    ______ ____

>  <TORSDO>
F 11

$$$$
