=
 OpenBabel10232410253D

 33 36  0  0  1  0  0  0  0  0999 V2000
  186.4730  178.8300  141.2470 C   0  0  0  0  0  0  0  0  0  0  0  0
  188.7240  177.6950  141.4340 C   0  0  1  0  0  3  0  0  0  0  0  0
  190.2120  176.5200  139.9820 C   0  0  1  0  0  3  0  0  0  0  0  0
  186.1510  178.7780  139.8540 N   0  0  0  0  0  2  0  0  0  0  0  0
  186.9750  178.2260  138.8220 C   0  0  0  0  0  0  0  0  0  0  0  0
  186.0220  179.7890  141.9310 O   0  0  0  0  0  0  0  0  0  0  0  0
  188.4550  178.1120  138.9760 C   0  0  0  0  0  2  0  0  0  0  0  0
  187.2670  177.7260  141.9150 C   0  0  1  0  0  3  0  0  0  0  0  0
  189.6050  176.7540  142.2400 C   0  0  0  0  0  2  0  0  0  0  0  0
  186.4520  177.8980  137.7260 O   0  0  0  0  0  0  0  0  0  0  0  0
  190.6160  176.1920  141.3480 N   0  0  0  0  0  2  0  0  0  0  0  0
  188.8040  177.1020  140.0570 C   0  0  2  0  0  3  0  0  0  0  0  0
  188.9550  178.4740  148.7640 C   0  0  0  0  0  1  0  0  0  0  0  0
  187.1300  177.7490  143.4150 C   0  0  0  0  0  0  0  0  0  0  0  0
  188.2500  177.4370  144.2060 C   0  0  0  0  0  3  0  0  0  0  0  0
  188.1070  177.4560  145.5930 C   0  0  0  0  0  0  0  0  0  0  0  0
  188.3350  177.3590  147.9440 C   0  0  2  0  0  3  0  0  0  0  0  0
  185.8980  178.0680  144.0330 C   0  0  0  0  0  3  0  0  0  0  0  0
  185.7840  178.0800  145.4330 C   0  0  0  0  0  3  0  0  0  0  0  0
  189.1290  177.1750  146.6310 C   0  0  0  0  0  2  0  0  0  0  0  0
  186.9160  177.7680  146.1810 C   0  0  0  0  0  0  0  0  0  0  0  0
  187.0110  177.7270  147.5540 O   0  0  0  0  0  0  0  0  0  0  0  0
  191.2450  177.4470  139.3260 C   0  0  1  0  0  3  0  0  0  0  0  0
  192.3510  177.6370  140.1620 O   0  0  0  0  0  1  0  0  0  0  0  0
  191.6910  176.8810  137.9860 C   0  0  0  0  0  2  0  0  0  0  0  0
  192.8950  175.9640  138.1470 C   0  0  0  0  0  2  0  0  0  0  0  0
  194.2290  176.9410  136.3380 N   0  0  0  0  0  1  0  0  0  0  0  0
  193.5880  175.7230  136.8110 C   0  0  1  0  0  3  0  0  0  0  0  0
  194.6140  174.6030  136.9260 C   0  0  0  0  0  2  0  0  0  0  0  0
  195.3770  173.0610  139.1900 O   0  0  0  0  0  0  0  0  0  0  0  0
  196.0020  174.1330  138.9790 C   0  0  0  0  0  0  0  0  0  0  0  0
  197.0200  174.5180  139.8400 O   0  0  0  0  0  1  0  0  0  0  0  0
  195.6730  174.9570  137.8610 N   0  0  0  0  0  2  0  0  0  0  0  0
  1  8  1  0  0  0  0
  1  6  2  0  0  0  0
  2  8  1  0  0  0  0
  2  9  1  1  0  0  0
  3 23  1  1  0  0  0
  3 12  1  0  0  0  0
  3 11  1  0  0  0  0
  4  1  1  0  0  0  0
  5  7  1  0  0  0  0
  5  4  1  0  0  0  0
  8 14  1  1  0  0  0
 10  5  2  0  0  0  0
 11  9  1  0  0  0  0
 12  7  1  6  0  0  0
 12  2  1  0  0  0  0
 14 18  2  0  0  0  0
 14 15  1  0  0  0  0
 15 16  2  0  0  0  0
 16 21  1  0  0  0  0
 16 20  1  0  0  0  0
 17 13  1  1  0  0  0
 18 19  1  0  0  0  0
 19 21  2  0  0  0  0
 20 17  1  0  0  0  0
 21 22  1  0  0  0  0
 22 17  1  0  0  0  0
 23 24  1  1  0  0  0
 25 26  1  0  0  0  0
 25 23  1  0  0  0  0
 28 27  1  1  0  0  0
 28 29  1  0  0  0  0
 28 26  1  0  0  0  0
 29 33  1  0  0  0  0
 31 30  2  0  0  0  0
 31 32  1  0  0  0  0
 33 31  1  0  0  0  0
M  END
>  <MODEL>
1

>  <REMARK>
 VINA RESULT:      -9.3      0.000      0.000
  Name = 
  7 active torsions:
  status: ('A' for Active; 'I' for Inactive)
    1  A    between atoms: C_3  and  C_19
    2  A    between atoms: C_5  and  C_8
    3  A    between atoms: C_5  and  C_21
    4  A    between atoms: C_16  and  N_26
    5  A    between atoms: C_16  and  C_33
    6  A    between atoms: C_21  and  C_30
    7  A    between atoms: C_30  and  C_33
                            x       y       z     vdW  Elec       q    Type
                         _______ _______ _______ _____ _____    ______ ____

>  <TORSDO>
F 7

$$$$
=
 OpenBabel10232410253D

 33 36  0  0  1  0  0  0  0  0999 V2000
  187.3180  177.3060  144.7450 C   0  0  0  0  0  0  0  0  0  0  0  0
  187.4360  177.8000  142.2690 C   0  0  1  0  0  3  0  0  0  0  0  0
  189.1400  178.2580  140.6600 C   0  0  1  0  0  3  0  0  0  0  0  0
  188.6820  177.2030  145.1640 N   0  0  0  0  0  2  0  0  0  0  0  0
  189.8310  177.3240  144.3190 C   0  0  0  0  0  0  0  0  0  0  0  0
  186.4480  176.6380  145.3680 O   0  0  0  0  0  0  0  0  0  0  0  0
  189.7580  177.0550  142.8520 C   0  0  0  0  0  2  0  0  0  0  0  0
  186.9020  178.2500  143.6360 C   0  0  1  0  0  3  0  0  0  0  0  0
  186.8570  178.5900  141.1060 C   0  0  0  0  0  2  0  0  0  0  0  0
  190.9480  177.5880  144.8330 O   0  0  0  0  0  0  0  0  0  0  0  0
  187.8780  178.6940  140.0660 N   0  0  0  0  0  2  0  0  0  0  0  0
  188.9030  178.1030  142.1590 C   0  0  2  0  0  3  0  0  0  0  0  0
  180.0230  177.8070  141.9640 C   0  0  0  0  0  1  0  0  0  0  0  0
  185.4200  178.5240  143.6410 C   0  0  0  0  0  0  0  0  0  0  0  0
  184.6920  178.3570  142.4500 C   0  0  0  0  0  3  0  0  0  0  0  0
  183.3230  178.6200  142.4690 C   0  0  0  0  0  0  0  0  0  0  0  0
  181.0240  178.9440  142.0290 C   0  0  2  0  0  3  0  0  0  0  0  0
  184.7590  178.9520  144.8170 C   0  0  0  0  0  3  0  0  0  0  0  0
  183.3790  179.2090  144.8060 C   0  0  0  0  0  3  0  0  0  0  0  0
  182.3460  178.5120  141.3570 C   0  0  0  0  0  2  0  0  0  0  0  0
  182.6930  179.0290  143.6070 C   0  0  0  0  0  0  0  0  0  0  0  0
  181.3470  179.2240  143.3910 O   0  0  0  0  0  0  0  0  0  0  0  0
  189.6480  176.9860  139.9660 C   0  0  1  0  0  3  0  0  0  0  0  0
  188.9050  176.7140  138.8120 O   0  0  0  0  0  1  0  0  0  0  0  0
  191.1230  177.1240  139.6190 C   0  0  0  0  0  2  0  0  0  0  0  0
  191.5270  176.1470  138.5240 C   0  0  0  0  0  2  0  0  0  0  0  0
  193.7380  176.9460  139.2170 N   0  0  0  0  0  1  0  0  0  0  0  0
  192.9890  176.3300  138.1320 C   0  0  1  0  0  3  0  0  0  0  0  0
  193.6190  174.9970  137.7510 C   0  0  0  0  0  2  0  0  0  0  0  0
  195.2140  173.0770  139.1120 O   0  0  0  0  0  1  0  0  0  0  0  0
  195.8060  174.0490  138.5720 C   0  0  0  0  0  0  0  0  0  0  0  0
  197.1880  174.1460  138.6580 O   0  0  0  0  0  0  0  0  0  0  0  0
  195.0690  175.0500  137.8710 N   0  0  0  0  0  2  0  0  0  0  0  0
  1  4  1  0  0  0  0
  1  6  2  0  0  0  0
  2  9  1  6  0  0  0
  2  8  1  0  0  0  0
  3 23  1  6  0  0  0
  3 12  1  0  0  0  0
  5 10  2  0  0  0  0
  5  4  1  0  0  0  0
  7  5  1  0  0  0  0
  8 14  1  6  0  0  0
  8  1  1  0  0  0  0
 11  3  1  0  0  0  0
 11  9  1  0  0  0  0
 12  2  1  0  0  0  0
 12  7  1  6  0  0  0
 14 18  1  0  0  0  0
 15 16  1  0  0  0  0
 15 14  2  0  0  0  0
 16 21  2  0  0  0  0
 17 13  1  1  0  0  0
 17 22  1  0  0  0  0
 19 18  2  0  0  0  0
 20 17  1  0  0  0  0
 20 16  1  0  0  0  0
 21 19  1  0  0  0  0
 22 21  1  0  0  0  0
 23 24  1  6  0  0  0
 25 23  1  0  0  0  0
 26 25  1  0  0  0  0
 28 26  1  0  0  0  0
 28 27  1  1  0  0  0
 29 33  1  0  0  0  0
 29 28  1  0  0  0  0
 31 32  2  0  0  0  0
 31 30  1  0  0  0  0
 33 31  1  0  0  0  0
M  END
>  <MODEL>
2

>  <REMARK>
 VINA RESULT:      -9.1      2.609      4.666
  Name = 
  7 active torsions:
  status: ('A' for Active; 'I' for Inactive)
    1  A    between atoms: C_3  and  C_19
    2  A    between atoms: C_5  and  C_8
    3  A    between atoms: C_5  and  C_21
    4  A    between atoms: C_16  and  N_26
    5  A    between atoms: C_16  and  C_33
    6  A    between atoms: C_21  and  C_30
    7  A    between atoms: C_30  and  C_33
                            x       y       z     vdW  Elec       q    Type
                         _______ _______ _______ _____ _____    ______ ____

>  <TORSDO>
F 7

$$$$
=
 OpenBabel10232410253D

 33 36  0  0  1  0  0  0  0  0999 V2000
  184.9230  178.9160  145.2680 C   0  0  0  0  0  0  0  0  0  0  0  0
  185.4250  178.6590  142.8040 C   0  0  1  0  0  3  0  0  0  0  0  0
  184.1860  178.2520  140.8030 C   0  0  1  0  0  3  0  0  0  0  0  0
  183.4950  178.8920  145.3550 N   0  0  0  0  0  2  0  0  0  0  0  0
  182.5880  178.7820  144.2530 C   0  0  0  0  0  0  0  0  0  0  0  0
  185.5640  179.5740  146.1320 O   0  0  0  0  0  0  0  0  0  0  0  0
  182.9770  179.1950  142.8720 C   0  0  0  0  0  2  0  0  0  0  0  0
  185.6630  178.1130  144.2190 C   0  0  1  0  0  3  0  0  0  0  0  0
  186.3230  178.0230  141.7550 C   0  0  0  0  0  2  0  0  0  0  0  0
  181.4090  178.3990  144.4630 O   0  0  0  0  0  0  0  0  0  0  0  0
  185.5840  177.9560  140.4960 N   0  0  0  0  0  2  0  0  0  0  0  0
  184.0550  178.2760  142.3230 C   0  0  2  0  0  3  0  0  0  0  0  0
  191.5440  175.6430  147.3220 C   0  0  0  0  0  1  0  0  0  0  0  0
  187.1200  177.9330  144.5560 C   0  0  0  0  0  0  0  0  0  0  0  0
  187.4760  177.5590  145.8640 C   0  0  0  0  0  3  0  0  0  0  0  0
  188.8290  177.4010  146.1630 C   0  0  0  0  0  0  0  0  0  0  0  0
  190.9580  177.0260  147.1160 C   0  0  2  0  0  3  0  0  0  0  0  0
  188.1280  178.1440  143.5850 C   0  0  0  0  0  3  0  0  0  0  0  0
  189.4820  177.9780  143.9150 C   0  0  0  0  0  3  0  0  0  0  0  0
  189.4500  177.0090  147.4510 C   0  0  0  0  0  2  0  0  0  0  0  0
  189.7940  177.6030  145.2200 C   0  0  0  0  0  0  0  0  0  0  0  0
  191.0510  177.3890  145.7380 O   0  0  0  0  0  0  0  0  0  0  0  0
  183.7480  179.5510  140.1110 C   0  0  1  0  0  3  0  0  0  0  0  0
  184.7560  180.0350  139.2700 O   0  0  0  0  0  1  0  0  0  0  0  0
  182.4690  179.3240  139.3200 C   0  0  0  0  0  2  0  0  0  0  0  0
  181.9620  180.6220  138.7060 C   0  0  0  0  0  2  0  0  0  0  0  0
  179.9830  179.4370  137.8770 N   0  0  0  0  0  1  0  0  0  0  0  0
  181.0550  180.3500  137.5110 C   0  0  1  0  0  3  0  0  0  0  0  0
  180.4740  181.6480  136.9660 C   0  0  0  0  0  2  0  0  0  0  0  0
  181.0820  184.0770  135.6190 O   0  0  0  0  0  0  0  0  0  0  0  0
  181.3900  183.9940  136.8370 C   0  0  0  0  0  0  0  0  0  0  0  0
  182.0030  185.0690  137.4670 O   0  0  0  0  0  1  0  0  0  0  0  0
  181.1140  182.8050  137.5770 N   0  0  0  0  0  2  0  0  0  0  0  0
  1  4  1  0  0  0  0
  1  6  2  0  0  0  0
  2  9  1  6  0  0  0
  2  8  1  0  0  0  0
  3 23  1  1  0  0  0
  3 12  1  0  0  0  0
  5 10  2  0  0  0  0
  5  4  1  0  0  0  0
  7  5  1  0  0  0  0
  8 14  1  1  0  0  0
  8  1  1  0  0  0  0
 11  3  1  0  0  0  0
 11  9  1  0  0  0  0
 12  2  1  0  0  0  0
 12  7  1  6  0  0  0
 14 15  1  0  0  0  0
 15 16  2  0  0  0  0
 16 20  1  0  0  0  0
 17 13  1  6  0  0  0
 17 20  1  0  0  0  0
 18 19  1  0  0  0  0
 18 14  2  0  0  0  0
 19 21  2  0  0  0  0
 21 22  1  0  0  0  0
 21 16  1  0  0  0  0
 22 17  1  0  0  0  0
 23 24  1  6  0  0  0
 25 23  1  0  0  0  0
 26 25  1  0  0  0  0
 28 27  1  1  0  0  0
 28 26  1  0  0  0  0
 29 28  1  0  0  0  0
 29 33  1  0  0  0  0
 30 31  2  0  0  0  0
 31 32  1  0  0  0  0
 31 33  1  0  0  0  0
M  END
>  <MODEL>
3

>  <REMARK>
 VINA RESULT:      -8.9      5.182      9.085
  Name = 
  7 active torsions:
  status: ('A' for Active; 'I' for Inactive)
    1  A    between atoms: C_3  and  C_19
    2  A    between atoms: C_5  and  C_8
    3  A    between atoms: C_5  and  C_21
    4  A    between atoms: C_16  and  N_26
    5  A    between atoms: C_16  and  C_33
    6  A    between atoms: C_21  and  C_30
    7  A    between atoms: C_30  and  C_33
                            x       y       z     vdW  Elec       q    Type
                         _______ _______ _______ _____ _____    ______ ____

>  <TORSDO>
F 7

$$$$
=
 OpenBabel10232410253D

 33 36  0  0  1  0  0  0  0  0999 V2000
  191.3250  176.7510  142.3960 C   0  0  0  0  0  0  0  0  0  0  0  0
  189.3300  177.3960  140.9850 C   0  0  1  0  0  3  0  0  0  0  0  0
  188.9530  178.3180  138.8140 C   0  0  1  0  0  3  0  0  0  0  0  0
  192.4560  176.9370  141.5390 N   0  0  0  0  0  2  0  0  0  0  0  0
  192.4130  177.3610  140.1730 C   0  0  0  0  0  0  0  0  0  0  0  0
  191.3940  175.8690  143.2950 O   0  0  0  0  0  0  0  0  0  0  0  0
  191.1980  177.1660  139.3280 C   0  0  0  0  0  2  0  0  0  0  0  0
  190.1010  177.6360  142.2900 C   0  0  1  0  0  3  0  0  0  0  0  0
  187.9820  178.0980  140.9430 C   0  0  0  0  0  2  0  0  0  0  0  0
  193.4490  177.8430  139.6460 O   0  0  0  0  0  0  0  0  0  0  0  0
  187.7090  178.4890  139.5620 N   0  0  0  0  0  2  0  0  0  0  0  0
  190.0530  178.0290  139.8300 C   0  0  2  0  0  3  0  0  0  0  0  0
  187.9690  178.4210  149.0090 C   0  0  0  0  0  1  0  0  0  0  0  0
  189.2340  177.5670  143.5200 C   0  0  0  0  0  0  0  0  0  0  0  0
  189.8470  177.4560  144.7810 C   0  0  0  0  0  3  0  0  0  0  0  0
  189.0320  177.3880  145.9100 C   0  0  0  0  0  0  0  0  0  0  0  0
  188.0740  177.2400  148.0650 C   0  0  2  0  0  3  0  0  0  0  0  0
  187.8230  177.6020  143.4240 C   0  0  0  0  0  3  0  0  0  0  0  0
  187.0280  177.5310  144.5790 C   0  0  0  0  0  3  0  0  0  0  0  0
  189.4350  177.2770  147.3340 C   0  0  0  0  0  2  0  0  0  0  0  0
  187.6730  177.4250  145.8090 C   0  0  0  0  0  0  0  0  0  0  0  0
  187.0780  177.3460  147.0480 O   0  0  0  0  0  0  0  0  0  0  0  0
  188.7870  177.2350  137.7380 C   0  0  1  0  0  3  0  0  0  0  0  0
  187.4760  176.7480  137.7150 O   0  0  0  0  0  1  0  0  0  0  0  0
  189.1670  177.7830  136.3710 C   0  0  0  0  0  2  0  0  0  0  0  0
  189.5370  176.6630  135.4090 C   0  0  0  0  0  2  0  0  0  0  0  0
  189.7640  174.2680  135.8760 N   0  0  0  0  0  1  0  0  0  0  0  0
  190.3500  175.5790  136.1090 C   0  0  1  0  0  3  0  0  0  0  0  0
  191.7980  175.5980  135.6360 C   0  0  0  0  0  2  0  0  0  0  0  0
  194.1990  176.8260  136.5370 O   0  0  0  0  0  0  0  0  0  0  0  0
  193.8790  175.7230  137.0540 C   0  0  0  0  0  0  0  0  0  0  0  0
  194.6930  175.1570  138.0260 O   0  0  0  0  0  1  0  0  0  0  0  0
  192.6870  175.0500  136.6510 N   0  0  0  0  0  2  0  0  0  0  0  0
  1  6  2  0  0  0  0
  2  9  1  1  0  0  0
  2  8  1  0  0  0  0
  3 23  1  6  0  0  0
  3 11  1  0  0  0  0
  3 12  1  0  0  0  0
  4  1  1  0  0  0  0
  5  4  1  0  0  0  0
  7  5  1  0  0  0  0
  8  1  1  0  0  0  0
  8 14  1  1  0  0  0
 10  5  2  0  0  0  0
 11  9  1  0  0  0  0
 12  7  1  6  0  0  0
 12  2  1  0  0  0  0
 14 15  1  0  0  0  0
 15 16  2  0  0  0  0
 16 20  1  0  0  0  0
 17 13  1  1  0  0  0
 18 14  2  0  0  0  0
 18 19  1  0  0  0  0
 19 21  2  0  0  0  0
 20 17  1  0  0  0  0
 21 16  1  0  0  0  0
 21 22  1  0  0  0  0
 22 17  1  0  0  0  0
 23 24  1  6  0  0  0
 25 23  1  0  0  0  0
 26 28  1  0  0  0  0
 26 25  1  0  0  0  0
 28 27  1  6  0  0  0
 29 28  1  0  0  0  0
 29 33  1  0  0  0  0
 30 31  2  0  0  0  0
 31 32  1  0  0  0  0
 33 31  1  0  0  0  0
M  END
>  <MODEL>
4

>  <REMARK>
 VINA RESULT:      -8.6      2.010      3.665
  Name = 
  7 active torsions:
  status: ('A' for Active; 'I' for Inactive)
    1  A    between atoms: C_3  and  C_19
    2  A    between atoms: C_5  and  C_8
    3  A    between atoms: C_5  and  C_21
    4  A    between atoms: C_16  and  N_26
    5  A    between atoms: C_16  and  C_33
    6  A    between atoms: C_21  and  C_30
    7  A    between atoms: C_30  and  C_33
                            x       y       z     vdW  Elec       q    Type
                         _______ _______ _______ _____ _____    ______ ____

>  <TORSDO>
F 7

$$$$
=
 OpenBabel10232410253D

 33 36  0  0  1  0  0  0  0  0999 V2000
  187.0790  177.7550  138.8740 C   0  0  0  0  0  0  0  0  0  0  0  0
  189.1230  177.2430  140.2690 C   0  0  1  0  0  3  0  0  0  0  0  0
  189.9450  177.8180  142.4370 C   0  0  1  0  0  3  0  0  0  0  0  0
  186.2230  178.5070  139.7400 N   0  0  0  0  0  2  0  0  0  0  0  0
  186.4930  178.8400  141.1050 C   0  0  0  0  0  0  0  0  0  0  0  0
  186.5490  177.0470  137.9750 O   0  0  0  0  0  0  0  0  0  0  0  0
  187.4270  178.0280  141.9410 C   0  0  0  0  0  2  0  0  0  0  0  0
  188.5860  177.8600  138.9700 C   0  0  1  0  0  3  0  0  0  0  0  0
  190.6390  177.1270  140.3000 C   0  0  0  0  0  2  0  0  0  0  0  0
  185.8720  179.7930  141.6410 O   0  0  0  0  0  0  0  0  0  0  0  0
  191.0870  177.3080  141.6790 N   0  0  0  0  0  2  0  0  0  0  0  0
  188.8520  178.1580  141.4290 C   0  0  2  0  0  3  0  0  0  0  0  0
  191.5380  173.3620  134.3480 C   0  0  0  0  0  1  0  0  0  0  0  0
  189.2770  177.3480  137.7330 C   0  0  0  0  0  0  0  0  0  0  0  0
  190.1020  176.2140  137.8330 C   0  0  0  0  0  3  0  0  0  0  0  0
  190.7390  175.7540  136.6800 C   0  0  0  0  0  0  0  0  0  0  0  0
  192.0020  174.6360  135.0250 C   0  0  2  0  0  3  0  0  0  0  0  0
  189.1150  177.9930  136.4840 C   0  0  0  0  0  3  0  0  0  0  0  0
  189.7690  177.5080  135.3400 C   0  0  0  0  0  3  0  0  0  0  0  0
  191.6430  174.5880  136.5270 C   0  0  0  0  0  2  0  0  0  0  0  0
  190.5750  176.3800  135.4800 C   0  0  0  0  0  0  0  0  0  0  0  0
  191.2940  175.7530  134.4880 O   0  0  0  0  0  0  0  0  0  0  0  0
  189.5210  176.8070  143.5120 C   0  0  1  0  0  3  0  0  0  0  0  0
  189.8700  175.5040  143.1400 O   0  0  0  0  0  1  0  0  0  0  0  0
  190.1550  177.1580  144.8490 C   0  0  0  0  0  2  0  0  0  0  0  0
  189.2460  178.0610  145.6720 C   0  0  0  0  0  2  0  0  0  0  0  0
  189.4700  177.8520  148.1030 N   0  0  0  0  0  1  0  0  0  0  0  0
  188.7620  177.3560  146.9340 C   0  0  1  0  0  3  0  0  0  0  0  0
  187.2600  177.5380  147.1140 C   0  0  0  0  0  2  0  0  0  0  0  0
  184.7570  178.8670  146.8810 O   0  0  0  0  0  1  0  0  0  0  0  0
  185.3620  178.5730  145.8170 C   0  0  0  0  0  0  0  0  0  0  0  0
  184.7970  178.9020  144.5920 O   0  0  0  0  0  0  0  0  0  0  0  0
  186.6230  177.9070  145.8570 N   0  0  0  0  0  2  0  0  0  0  0  0
  1  8  1  0  0  0  0
  1  4  1  0  0  0  0
  2  9  1  6  0  0  0
  2 12  1  0  0  0  0
  3 23  1  1  0  0  0
  4  5  1  0  0  0  0
  5 10  2  0  0  0  0
  5  7  1  0  0  0  0
  6  1  2  0  0  0  0
  8 14  1  6  0  0  0
  8  2  1  0  0  0  0
  9 11  1  0  0  0  0
 11  3  1  0  0  0  0
 12  7  1  1  0  0  0
 12  3  1  0  0  0  0
 14 15  1  0  0  0  0
 16 15  2  0  0  0  0
 17 13  1  6  0  0  0
 17 20  1  0  0  0  0
 18 14  2  0  0  0  0
 19 21  2  0  0  0  0
 19 18  1  0  0  0  0
 20 16  1  0  0  0  0
 21 16  1  0  0  0  0
 22 17  1  0  0  0  0
 22 21  1  0  0  0  0
 23 24  1  6  0  0  0
 23 25  1  0  0  0  0
 25 26  1  0  0  0  0
 26 28  1  0  0  0  0
 28 29  1  0  0  0  0
 28 27  1  1  0  0  0
 31 33  1  0  0  0  0
 31 30  1  0  0  0  0
 32 31  2  0  0  0  0
 33 29  1  0  0  0  0
M  END
>  <MODEL>
5

>  <REMARK>
 VINA RESULT:      -8.6      2.955      8.996
  Name = 
  7 active torsions:
  status: ('A' for Active; 'I' for Inactive)
    1  A    between atoms: C_3  and  C_19
    2  A    between atoms: C_5  and  C_8
    3  A    between atoms: C_5  and  C_21
    4  A    between atoms: C_16  and  N_26
    5  A    between atoms: C_16  and  C_33
    6  A    between atoms: C_21  and  C_30
    7  A    between atoms: C_30  and  C_33
                            x       y       z     vdW  Elec       q    Type
                         _______ _______ _______ _____ _____    ______ ____

>  <TORSDO>
F 7

$$$$
=
 OpenBabel10232410253D

 33 36  0  0  1  0  0  0  0  0999 V2000
  186.0370  177.9760  146.5320 C   0  0  0  0  0  0  0  0  0  0  0  0
  187.1980  177.6590  144.3090 C   0  0  1  0  0  3  0  0  0  0  0  0
  189.4450  177.6620  143.4990 C   0  0  1  0  0  3  0  0  0  0  0  0
  187.0960  178.0780  147.4880 N   0  0  0  0  0  2  0  0  0  0  0  0
  188.4950  177.9770  147.2040 C   0  0  0  0  0  0  0  0  0  0  0  0
  184.9310  177.5000  146.9100 O   0  0  0  0  0  0  0  0  0  0  0  0
  189.0020  177.2520  146.0020 C   0  0  0  0  0  2  0  0  0  0  0  0
  186.1970  178.4950  145.1180 C   0  0  1  0  0  3  0  0  0  0  0  0
  187.2180  178.0090  142.8300 C   0  0  0  0  0  2  0  0  0  0  0  0
  189.3240  178.4450  148.0260 O   0  0  0  0  0  0  0  0  0  0  0  0
  188.5800  177.8250  142.3310 N   0  0  0  0  0  2  0  0  0  0  0  0
  188.6040  177.9820  144.7300 C   0  0  2  0  0  3  0  0  0  0  0  0
  180.8500  177.5320  140.5580 C   0  0  0  0  0  1  0  0  0  0  0  0
  184.8740  178.6860  144.4230 C   0  0  0  0  0  0  0  0  0  0  0  0
  184.7730  178.3810  143.0540 C   0  0  0  0  0  3  0  0  0  0  0  0
  183.5440  178.5670  142.4230 C   0  0  0  0  0  0  0  0  0  0  0  0
  181.6970  178.7240  140.9570 C   0  0  2  0  0  3  0  0  0  0  0  0
  183.7430  179.1710  145.1220 C   0  0  0  0  0  3  0  0  0  0  0  0
  182.5180  179.3490  144.4600 C   0  0  0  0  0  3  0  0  0  0  0  0
  183.1860  178.3130  141.0060 C   0  0  0  0  0  2  0  0  0  0  0  0
  182.4580  179.0330  143.1040 C   0  0  0  0  0  0  0  0  0  0  0  0
  181.3580  179.1330  142.2830 O   0  0  0  0  0  0  0  0  0  0  0  0
  190.0730  176.2610  143.5090 C   0  0  1  0  0  3  0  0  0  0  0  0
  189.1930  175.3130  142.9770 O   0  0  0  0  0  1  0  0  0  0  0  0
  191.3790  176.2610  142.7280 C   0  0  0  0  0  2  0  0  0  0  0  0
  191.7240  177.6550  142.2260 C   0  0  0  0  0  2  0  0  0  0  0  0
  193.1340  176.9610  140.3460 N   0  0  0  0  0  1  0  0  0  0  0  0
  191.9160  177.6660  140.7140 C   0  0  1  0  0  3  0  0  0  0  0  0
  190.7170  177.0420  140.0110 C   0  0  0  0  0  2  0  0  0  0  0  0
  188.5030  178.7020  139.3550 O   0  0  0  0  0  1  0  0  0  0  0  0
  189.3550  178.4840  138.4540 C   0  0  0  0  0  0  0  0  0  0  0  0
  189.1860  179.0500  137.1970 O   0  0  0  0  0  0  0  0  0  0  0  0
  190.4920  177.6610  138.7120 N   0  0  0  0  0  2  0  0  0  0  0  0
  1  6  2  0  0  0  0
  1  4  1  0  0  0  0
  2  9  1  6  0  0  0
  2 12  1  0  0  0  0
  2  8  1  0  0  0  0
  3 23  1  1  0  0  0
  3 12  1  0  0  0  0
  5  4  1  0  0  0  0
  5 10  2  0  0  0  0
  7  5  1  0  0  0  0
  8 14  1  6  0  0  0
  8  1  1  0  0  0  0
 11  9  1  0  0  0  0
 11  3  1  0  0  0  0
 12  7  1  1  0  0  0
 14 18  1  0  0  0  0
 15 14  2  0  0  0  0
 16 15  1  0  0  0  0
 16 21  2  0  0  0  0
 17 13  1  1  0  0  0
 17 20  1  0  0  0  0
 17 22  1  0  0  0  0
 19 18  2  0  0  0  0
 20 16  1  0  0  0  0
 21 19  1  0  0  0  0
 22 21  1  0  0  0  0
 23 24  1  6  0  0  0
 25 23  1  0  0  0  0
 26 25  1  0  0  0  0
 28 27  1  1  0  0  0
 28 26  1  0  0  0  0
 29 28  1  0  0  0  0
 31 33  1  0  0  0  0
 31 30  1  0  0  0  0
 32 31  2  0  0  0  0
 33 29  1  0  0  0  0
M  END
>  <MODEL>
6

>  <REMARK>
 VINA RESULT:      -8.6      3.288      6.322
  Name = 
  7 active torsions:
  status: ('A' for Active; 'I' for Inactive)
    1  A    between atoms: C_3  and  C_19
    2  A    between atoms: C_5  and  C_8
    3  A    between atoms: C_5  and  C_21
    4  A    between atoms: C_16  and  N_26
    5  A    between atoms: C_16  and  C_33
    6  A    between atoms: C_21  and  C_30
    7  A    between atoms: C_30  and  C_33
                            x       y       z     vdW  Elec       q    Type
                         _______ _______ _______ _____ _____    ______ ____

>  <TORSDO>
F 7

$$$$
=
 OpenBabel10232410253D

 33 36  0  0  1  0  0  0  0  0999 V2000
  189.0920  178.2600  138.6070 C   0  0  0  0  0  0  0  0  0  0  0  0
  189.0980  177.5780  141.0410 C   0  0  1  0  0  3  0  0  0  0  0  0
  190.4120  176.1720  142.4560 C   0  0  1  0  0  3  0  0  0  0  0  0
  190.2750  177.6720  138.0590 N   0  0  0  0  0  2  0  0  0  0  0  0
  191.2430  176.9040  138.7810 C   0  0  0  0  0  0  0  0  0  0  0  0
  188.6630  179.3310  138.0970 O   0  0  0  0  0  0  0  0  0  0  0  0
  191.4200  177.0510  140.2560 C   0  0  0  0  0  2  0  0  0  0  0  0
  188.3180  177.5840  139.7200 C   0  0  1  0  0  3  0  0  0  0  0  0
  188.2700  177.1130  142.2280 C   0  0  0  0  0  2  0  0  0  0  0  0
  192.0180  176.1400  138.1500 O   0  0  0  0  0  0  0  0  0  0  0  0
  189.1510  176.4100  143.1580 N   0  0  0  0  0  2  0  0  0  0  0  0
  190.1910  176.5490  140.9950 C   0  0  2  0  0  3  0  0  0  0  0  0
  181.3020  178.2160  138.8910 C   0  0  0  0  0  1  0  0  0  0  0  0
  186.9160  178.1210  139.8520 C   0  0  0  0  0  0  0  0  0  0  0  0
  186.0200  177.9590  138.7820 C   0  0  0  0  0  3  0  0  0  0  0  0
  184.7280  178.4670  138.9170 C   0  0  0  0  0  0  0  0  0  0  0  0
  182.4770  179.1520  138.6940 C   0  0  2  0  0  3  0  0  0  0  0  0
  186.4970  178.7890  141.0280 C   0  0  0  0  0  3  0  0  0  0  0  0
  185.1900  179.2900  141.1350 C   0  0  0  0  0  3  0  0  0  0  0  0
  183.6100  178.4160  137.9430 C   0  0  0  0  0  2  0  0  0  0  0  0
  184.3310  179.1070  140.0530 C   0  0  0  0  0  0  0  0  0  0  0  0
  183.0200  179.5170  139.9630 O   0  0  0  0  0  0  0  0  0  0  0  0
  191.5560  176.9330  143.1390 C   0  0  1  0  0  3  0  0  0  0  0  0
  191.2400  178.2880  143.2880 O   0  0  0  0  0  1  0  0  0  0  0  0
  191.8690  176.3160  144.4940 C   0  0  0  0  0  2  0  0  0  0  0  0
  191.5570  177.2830  145.6280 C   0  0  0  0  0  2  0  0  0  0  0  0
  192.1760  176.5370  147.8780 N   0  0  0  0  0  1  0  0  0  0  0  0
  191.1150  176.5390  146.8830 C   0  0  1  0  0  3  0  0  0  0  0  0
  189.8520  177.1610  147.4650 C   0  0  0  0  0  2  0  0  0  0  0  0
  187.2870  178.3270  147.8440 O   0  0  0  0  0  1  0  0  0  0  0  0
  187.4750  177.6630  146.7910 C   0  0  0  0  0  0  0  0  0  0  0  0
  186.4450  177.5270  145.8700 O   0  0  0  0  0  0  0  0  0  0  0  0
  188.7380  177.0500  146.5330 N   0  0  0  0  0  2  0  0  0  0  0  0
  1  8  1  0  0  0  0
  2  9  1  1  0  0  0
  3 23  1  1  0  0  0
  3 11  1  0  0  0  0
  4  1  1  0  0  0  0
  4  5  1  0  0  0  0
  5  7  1  0  0  0  0
  6  1  2  0  0  0  0
  8 14  1  1  0  0  0
  8  2  1  0  0  0  0
  9 11  1  0  0  0  0
 10  5  2  0  0  0  0
 12  7  1  1  0  0  0
 12  2  1  0  0  0  0
 12  3  1  0  0  0  0
 14 18  1  0  0  0  0
 15 16  1  0  0  0  0
 15 14  2  0  0  0  0
 16 21  2  0  0  0  0
 17 13  1  1  0  0  0
 17 22  1  0  0  0  0
 18 19  2  0  0  0  0
 20 17  1  0  0  0  0
 20 16  1  0  0  0  0
 21 19  1  0  0  0  0
 22 21  1  0  0  0  0
 23 24  1  1  0  0  0
 23 25  1  0  0  0  0
 25 26  1  0  0  0  0
 26 28  1  0  0  0  0
 28 29  1  0  0  0  0
 28 27  1  1  0  0  0
 31 30  1  0  0  0  0
 32 31  2  0  0  0  0
 33 31  1  0  0  0  0
 33 29  1  0  0  0  0
M  END
>  <MODEL>
7

>  <REMARK>
 VINA RESULT:      -8.6      2.842      7.596
  Name = 
  7 active torsions:
  status: ('A' for Active; 'I' for Inactive)
    1  A    between atoms: C_3  and  C_19
    2  A    between atoms: C_5  and  C_8
    3  A    between atoms: C_5  and  C_21
    4  A    between atoms: C_16  and  N_26
    5  A    between atoms: C_16  and  C_33
    6  A    between atoms: C_21  and  C_30
    7  A    between atoms: C_30  and  C_33
                            x       y       z     vdW  Elec       q    Type
                         _______ _______ _______ _____ _____    ______ ____

>  <TORSDO>
F 7

$$$$
=
 OpenBabel10232410253D

 33 36  0  0  1  0  0  0  0  0999 V2000
  190.9570  177.8550  143.8700 C   0  0  0  0  0  0  0  0  0  0  0  0
  188.4350  177.6780  143.8600 C   0  0  1  0  0  3  0  0  0  0  0  0
  186.7290  176.9810  145.3790 C   0  0  1  0  0  3  0  0  0  0  0  0
  191.3420  177.5200  145.2070 N   0  0  0  0  0  2  0  0  0  0  0  0
  190.4540  177.1980  146.2810 C   0  0  0  0  0  0  0  0  0  0  0  0
  191.6860  178.6510  143.2180 O   0  0  0  0  0  0  0  0  0  0  0  0
  189.0360  177.6660  146.2940 C   0  0  0  0  0  2  0  0  0  0  0  0
  189.7490  177.2180  143.2140 C   0  0  1  0  0  3  0  0  0  0  0  0
  187.2000  177.2390  143.0900 C   0  0  0  0  0  2  0  0  0  0  0  0
  190.8950  176.5700  147.2770 O   0  0  0  0  0  0  0  0  0  0  0  0
  186.1230  176.9940  144.0480 N   0  0  0  0  0  2  0  0  0  0  0  0
  188.2420  176.9970  145.1850 C   0  0  2  0  0  3  0  0  0  0  0  0
  190.3380  175.5530  136.3440 C   0  0  0  0  0  1  0  0  0  0  0  0
  189.7660  177.3670  141.7150 C   0  0  0  0  0  0  0  0  0  0  0  0
  190.6180  176.5440  140.9580 C   0  0  0  0  0  3  0  0  0  0  0  0
  190.6260  176.6970  139.5710 C   0  0  0  0  0  0  0  0  0  0  0  0
  190.9750  176.6010  137.2360 C   0  0  2  0  0  3  0  0  0  0  0  0
  188.9480  178.3220  141.0650 C   0  0  0  0  0  3  0  0  0  0  0  0
  188.9770  178.4530  139.6680 C   0  0  0  0  0  3  0  0  0  0  0  0
  191.4220  175.9520  138.5650 C   0  0  0  0  0  2  0  0  0  0  0  0
  189.8330  177.6180  138.9530 C   0  0  0  0  0  0  0  0  0  0  0  0
  190.0050  177.5880  137.5880 O   0  0  0  0  0  0  0  0  0  0  0  0
  186.1870  178.1410  146.2250 C   0  0  1  0  0  3  0  0  0  0  0  0
  186.5370  179.3750  145.6660 O   0  0  0  0  0  1  0  0  0  0  0  0
  184.6760  178.0370  146.3620 C   0  0  0  0  0  2  0  0  0  0  0  0
  183.9730  179.1510  145.5980 C   0  0  0  0  0  2  0  0  0  0  0  0
  181.9750  178.7910  144.2260 N   0  0  0  0  0  1  0  0  0  0  0  0
  183.4220  178.6470  144.2690 C   0  0  1  0  0  3  0  0  0  0  0  0
  184.0580  179.3920  143.1030 C   0  0  0  0  0  2  0  0  0  0  0  0
  185.6030  179.5390  140.7200 O   0  0  0  0  0  1  0  0  0  0  0  0
  184.5200  178.8970  140.6730 C   0  0  0  0  0  0  0  0  0  0  0  0
  184.1270  178.2960  139.4860 O   0  0  0  0  0  0  0  0  0  0  0  0
  183.6940  178.7810  141.8310 N   0  0  0  0  0  2  0  0  0  0  0  0
  1  4  1  0  0  0  0
  2  9  1  6  0  0  0
  2 12  1  0  0  0  0
  3 23  1  1  0  0  0
  4  5  1  0  0  0  0
  5  7  1  0  0  0  0
  5 10  2  0  0  0  0
  6  1  2  0  0  0  0
  8 14  1  6  0  0  0
  8  2  1  0  0  0  0
  8  1  1  0  0  0  0
  9 11  1  0  0  0  0
 11  3  1  0  0  0  0
 12  3  1  0  0  0  0
 12  7  1  1  0  0  0
 15 14  2  0  0  0  0
 16 15  1  0  0  0  0
 17 13  1  6  0  0  0
 17 22  1  0  0  0  0
 17 20  1  0  0  0  0
 18 14  1  0  0  0  0
 19 18  2  0  0  0  0
 20 16  1  0  0  0  0
 21 16  2  0  0  0  0
 21 19  1  0  0  0  0
 22 21  1  0  0  0  0
 23 24  1  6  0  0  0
 23 25  1  0  0  0  0
 26 25  1  0  0  0  0
 28 27  1  1  0  0  0
 28 26  1  0  0  0  0
 29 28  1  0  0  0  0
 31 30  1  0  0  0  0
 31 33  1  0  0  0  0
 32 31  2  0  0  0  0
 33 29  1  0  0  0  0
M  END
>  <MODEL>
8

>  <REMARK>
 VINA RESULT:      -8.5      3.537      9.123
  Name = 
  7 active torsions:
  status: ('A' for Active; 'I' for Inactive)
    1  A    between atoms: C_3  and  C_19
    2  A    between atoms: C_5  and  C_8
    3  A    between atoms: C_5  and  C_21
    4  A    between atoms: C_16  and  N_26
    5  A    between atoms: C_16  and  C_33
    6  A    between atoms: C_21  and  C_30
    7  A    between atoms: C_30  and  C_33
                            x       y       z     vdW  Elec       q    Type
                         _______ _______ _______ _____ _____    ______ ____

>  <TORSDO>
F 7

$$$$
=
 OpenBabel10232410253D

 33 36  0  0  1  0  0  0  0  0999 V2000
  186.0720  177.8920  146.4340 C   0  0  0  0  0  0  0  0  0  0  0  0
  187.3230  177.6580  144.2500 C   0  0  1  0  0  3  0  0  0  0  0  0
  189.5960  177.7540  143.5210 C   0  0  1  0  0  3  0  0  0  0  0  0
  187.0920  178.0140  147.4300 N   0  0  0  0  0  2  0  0  0  0  0  0
  188.5030  177.9680  147.1950 C   0  0  0  0  0  0  0  0  0  0  0  0
  184.9720  177.3710  146.7640 O   0  0  0  0  0  0  0  0  0  0  0  0
  189.0790  177.2830  146.0000 C   0  0  0  0  0  2  0  0  0  0  0  0
  186.2640  178.4430  145.0360 C   0  0  1  0  0  3  0  0  0  0  0  0
  187.3830  178.0350  142.7780 C   0  0  0  0  0  2  0  0  0  0  0  0
  189.2860  178.4490  148.0540 O   0  0  0  0  0  0  0  0  0  0  0  0
  188.7670  177.9080  142.3260 N   0  0  0  0  0  2  0  0  0  0  0  0
  188.7000  178.0210  144.7270 C   0  0  2  0  0  3  0  0  0  0  0  0
  181.0700  177.2980  140.3430 C   0  0  0  0  0  1  0  0  0  0  0  0
  184.9610  178.5990  144.2970 C   0  0  0  0  0  0  0  0  0  0  0  0
  184.9050  178.2590  142.9340 C   0  0  0  0  0  3  0  0  0  0  0  0
  183.6930  178.4140  142.2610 C   0  0  0  0  0  0  0  0  0  0  0  0
  181.8900  178.5110  140.7370 C   0  0  2  0  0  3  0  0  0  0  0  0
  183.8030  179.0880  144.9480 C   0  0  0  0  0  3  0  0  0  0  0  0
  182.5970  179.2340  144.2450 C   0  0  0  0  0  3  0  0  0  0  0  0
  183.3820  178.1200  140.8410 C   0  0  0  0  0  2  0  0  0  0  0  0
  182.5820  178.8830  142.8970 C   0  0  0  0  0  0  0  0  0  0  0  0
  181.5070  178.9490  142.0400 O   0  0  0  0  0  0  0  0  0  0  0  0
  190.2730  176.3770  143.5300 C   0  0  1  0  0  3  0  0  0  0  0  0
  189.4370  175.4030  142.9720 O   0  0  0  0  0  1  0  0  0  0  0  0
  191.5920  176.4300  142.7760 C   0  0  0  0  0  2  0  0  0  0  0  0
  191.8050  177.7910  142.1280 C   0  0  0  0  0  2  0  0  0  0  0  0
  193.3290  177.1920  140.3050 N   0  0  0  0  0  1  0  0  0  0  0  0
  191.9890  177.6630  140.6200 C   0  0  1  0  0  3  0  0  0  0  0  0
  190.9500  176.7220  140.0250 C   0  0  0  0  0  2  0  0  0  0  0  0
  191.2960  174.6620  138.0950 O   0  0  0  0  0  1  0  0  0  0  0  0
  191.0330  175.8190  137.6720 C   0  0  0  0  0  0  0  0  0  0  0  0
  190.9240  176.0440  136.3070 O   0  0  0  0  0  0  0  0  0  0  0  0
  190.8460  176.9010  138.5840 N   0  0  0  0  0  2  0  0  0  0  0  0
  1  6  2  0  0  0  0
  1  4  1  0  0  0  0
  2  9  1  6  0  0  0
  2 12  1  0  0  0  0
  2  8  1  0  0  0  0
  3 23  1  1  0  0  0
  3 12  1  0  0  0  0
  5  4  1  0  0  0  0
  5 10  2  0  0  0  0
  7  5  1  0  0  0  0
  8 14  1  6  0  0  0
  8  1  1  0  0  0  0
 11  9  1  0  0  0  0
 11  3  1  0  0  0  0
 12  7  1  1  0  0  0
 14 18  1  0  0  0  0
 15 14  2  0  0  0  0
 16 21  2  0  0  0  0
 16 15  1  0  0  0  0
 17 13  1  1  0  0  0
 17 20  1  0  0  0  0
 17 22  1  0  0  0  0
 19 18  2  0  0  0  0
 20 16  1  0  0  0  0
 21 19  1  0  0  0  0
 22 21  1  0  0  0  0
 23 24  1  6  0  0  0
 25 23  1  0  0  0  0
 26 25  1  0  0  0  0
 28 27  1  1  0  0  0
 28 26  1  0  0  0  0
 29 28  1  0  0  0  0
 31 30  1  0  0  0  0
 31 33  1  0  0  0  0
 32 31  2  0  0  0  0
 33 29  1  0  0  0  0
M  END
>  <MODEL>
9

>  <REMARK>
 VINA RESULT:      -8.5      2.989      5.945
  Name = 
  7 active torsions:
  status: ('A' for Active; 'I' for Inactive)
    1  A    between atoms: C_3  and  C_19
    2  A    between atoms: C_5  and  C_8
    3  A    between atoms: C_5  and  C_21
    4  A    between atoms: C_16  and  N_26
    5  A    between atoms: C_16  and  C_33
    6  A    between atoms: C_21  and  C_30
    7  A    between atoms: C_30  and  C_33
                            x       y       z     vdW  Elec       q    Type
                         _______ _______ _______ _____ _____    ______ ____

>  <TORSDO>
F 7

$$$$
