=
 OpenBabel10232410293D

 43 47  0  0  1  0  0  0  0  0999 V2000
  191.9510  176.8020  143.7970 C   0  0  0  0  0  3  0  0  0  0  0  0
  189.2690  177.1250  141.4190 C   0  0  0  0  0  0  0  0  0  0  0  0
  191.2120  177.2680  142.6120 C   0  0  1  0  0  3  0  0  0  0  0  0
  188.0800  177.5380  141.6030 N   0  0  0  0  0  0  0  0  0  0  0  0
  191.4440  176.6680  145.0560 C   0  0  0  0  0  0  0  0  0  0  0  0
  190.0880  176.9070  145.7150 C   0  0  0  0  0  0  0  0  0  0  0  0
  191.8970  177.5490  140.9120 S   0  0  0  0  0  0  0  0  0  0  0  0
  187.7630  177.4220  146.2390 C   0  0  0  0  0  0  0  0  0  0  0  0
  189.3920  176.9880  147.9820 N   0  0  0  0  0  0  0  0  0  0  0  0
  186.3630  177.6020  145.8340 N   0  0  0  0  0  0  0  0  0  0  0  0
  190.3820  176.7180  147.0540 C   0  0  0  0  0  0  0  0  0  0  0  0
  186.5680  178.1830  143.5220 C   0  0  1  0  0  3  0  0  0  0  0  0
  191.7150  176.3750  147.3070 N   0  0  0  0  0  0  0  0  0  0  0  0
  185.9030  177.2140  144.4720 C   0  0  0  0  0  2  0  0  0  0  0  0
  192.3730  176.3440  146.0470 N   0  0  0  0  0  0  0  0  0  0  0  0
  190.1480  177.4180  140.2610 C   0  0  1  0  0  3  0  0  0  0  0  0
  187.5730  177.4440  142.9120 N   0  0  0  0  0  2  0  0  0  0  0  0
  188.8210  177.2840  145.2960 C   0  0  0  0  0  3  0  0  0  0  0  0
  189.9540  176.7200  142.5650 O   0  0  0  0  0  0  0  0  0  0  0  0
  188.1270  177.3270  147.5960 C   0  0  0  0  0  3  0  0  0  0  0  0
  185.6550  180.1940  147.2030 O   0  0  0  0  0  1  0  0  0  0  0  0
  185.1600  178.7360  146.4610 P   0  0  0  0  0  0  0  0  0  0  0  0
  184.6030  177.9770  147.6460 O   0  0  0  0  0  1  0  0  0  0  0  0
  183.8810  178.9730  145.4040 O   0  0  0  0  0  0  0  0  0  0  0  0
  185.7830  178.9800  142.4110 C   0  0  2  0  0  3  0  0  0  0  0  0
  185.2270  180.2490  143.0480 C   0  0  0  0  0  1  0  0  0  0  0  0
  184.7970  178.1490  141.5470 C   0  0  0  0  0  2  0  0  0  0  0  0
  184.8540  178.7620  140.1500 C   0  0  0  0  0  2  0  0  0  0  0  0
  183.5940  179.0540  139.5110 C   0  0  0  0  0  2  0  0  0  0  0  0
  183.3640  180.2660  139.1200 N   0  0  0  0  0  2  0  0  0  0  0  0
  181.7920  181.7240  138.0600 O   0  0  0  0  0  0  0  0  0  0  0  0
  182.0740  180.5040  138.6930 C   0  0  0  0  0  0  0  0  0  0  0  0
  181.1490  179.6720  138.9000 O   0  0  0  0  0  1  0  0  0  0  0  0
  190.2420  175.4510  138.6350 O   0  0  0  0  0  1  0  0  0  0  0  0
  189.9660  176.8240  138.8680 C   0  0  1  0  0  3  0  0  0  0  0  0
  189.7470  177.3300  136.1400 O   0  0  0  0  0  1  0  0  0  0  0  0
  188.6730  177.3620  138.1770 C   0  0  2  0  0  3  0  0  0  0  0  0
  188.7680  177.9970  136.8400 C   0  0  1  0  0  0  0  0  0  0  0  0
  189.0610  178.7970  138.1200 C   0  0  0  0  0  2  0  0  0  0  0  0
  187.3120  178.1790  136.3290 C   0  0  0  0  0  2  0  0  0  0  0  0
  184.8840  177.1600  136.5380 C   0  0  0  0  0  1  0  0  0  0  0  0
  186.5330  175.8520  135.4790 C   0  0  0  0  0  1  0  0  0  0  0  0
  186.3590  176.9670  136.4170 C   0  0  0  0  0  3  0  0  0  0  0  0
  1  5  2  0  0  0  0
  2  4  2  0  0  0  0
  2 19  1  0  0  0  0
  3  1  1  1  0  0  0
  4 17  1  0  0  0  0
  5  6  1  0  0  0  0
  5 15  1  0  0  0  0
  6 11  1  0  0  0  0
  7  3  1  0  0  0  0
  8 20  2  0  0  0  0
 10  8  1  0  0  0  0
 10 22  1  0  0  0  0
 11 13  1  0  0  0  0
 11  9  2  0  0  0  0
 12 25  1  6  0  0  0
 12 14  1  0  0  0  0
 14 10  1  0  0  0  0
 15 13  2  0  0  0  0
 16 35  1  6  0  0  0
 16  7  1  0  0  0  0
 16  2  1  0  0  0  0
 17 12  1  0  0  0  0
 18  6  2  0  0  0  0
 18  8  1  0  0  0  0
 19  3  1  0  0  0  0
 20  9  1  0  0  0  0
 22 21  1  0  0  0  0
 22 23  1  0  0  0  0
 24 22  2  0  0  0  0
 25 26  1  1  0  0  0
 27 25  1  0  0  0  0
 28 27  1  0  0  0  0
 29 28  1  0  0  0  0
 30 29  1  0  0  0  0
 31 32  2  0  0  0  0
 32 33  1  0  0  0  0
 32 30  1  0  0  0  0
 35 34  1  1  0  0  0
 37 35  1  6  0  0  0
 38 36  1  6  0  0  0
 38 39  1  0  0  0  0
 38 37  1  0  0  0  0
 39 37  1  0  0  0  0
 40 43  1  0  0  0  0
 40 38  1  0  0  0  0
 42 43  1  0  0  0  0
 43 41  1  0  0  0  0
M  END
>  <MODEL>
1

>  <REMARK>
 VINA RESULT:      -7.8      0.000      0.000
  Name = 
  10 active torsions:
  status: ('A' for Active; 'I' for Inactive)
    1  A    between atoms: C_2  and  C_24
    2  A    between atoms: C_2  and  C_28
    3  A    between atoms: C_3  and  C_34
    4  A    between atoms: C_3  and  C_40
    5  A    between atoms: C_13  and  C_39
    6  A    between atoms: C_16  and  C_32
    7  A    between atoms: C_16  and  C_33
    8  A    between atoms: N_19  and  P_22
    9  A    between atoms: C_27  and  N_43
   10  A    between atoms: C_28  and  C_39
                            x       y       z     vdW  Elec       q    Type
                         _______ _______ _______ _____ _____    ______ ____

>  <TORSDO>
F 10

$$$$
=
 OpenBabel10232410293D

 43 47  0  0  1  0  0  0  0  0999 V2000
  183.6270  178.2290  138.6760 C   0  0  0  0  0  3  0  0  0  0  0  0
  187.1030  178.3930  139.5960 C   0  0  0  0  0  0  0  0  0  0  0  0
  185.0500  177.8580  138.7470 C   0  0  1  0  0  3  0  0  0  0  0  0
  187.6300  178.3350  140.7520 N   0  0  0  0  0  0  0  0  0  0  0  0
  182.8480  178.6230  139.7240 C   0  0  0  0  0  0  0  0  0  0  0  0
  183.0610  178.8250  141.2220 C   0  0  0  0  0  0  0  0  0  0  0  0
  186.1080  177.2300  137.3580 S   0  0  0  0  0  0  0  0  0  0  0  0
  183.9350  179.0090  143.4900 C   0  0  0  0  0  0  0  0  0  0  0  0
  181.5600  179.1680  143.0280 N   0  0  0  0  0  0  0  0  0  0  0  0
  185.0530  179.1690  144.4290 N   0  0  0  0  0  0  0  0  0  0  0  0
  181.7720  179.0650  141.6640 C   0  0  0  0  0  0  0  0  0  0  0  0
  186.9030  178.3200  143.1720 C   0  0  1  0  0  3  0  0  0  0  0  0
  180.8060  179.0640  140.6520 N   0  0  0  0  0  0  0  0  0  0  0  0
  186.4160  179.5240  143.9440 C   0  0  0  0  0  2  0  0  0  0  0  0
  181.4920  178.7870  139.4370 N   0  0  0  0  0  0  0  0  0  0  0  0
  187.6030  177.7570  138.3520 C   0  0  1  0  0  3  0  0  0  0  0  0
  186.8120  178.6950  141.8390 N   0  0  0  0  0  2  0  0  0  0  0  0
  184.1300  178.7610  142.1020 C   0  0  0  0  0  3  0  0  0  0  0  0
  185.7460  178.7160  139.5630 O   0  0  0  0  0  0  0  0  0  0  0  0
  182.5990  179.1420  143.9140 C   0  0  0  0  0  3  0  0  0  0  0  0
  186.0650  176.9720  146.2280 O   0  0  0  0  0  0  0  0  0  0  0  0
  185.2650  178.4710  146.0390 P   0  0  0  0  0  0  0  0  0  0  0  0
  183.8450  178.0950  146.4050 O   0  0  0  0  0  1  0  0  0  0  0  0
  185.7670  179.5980  147.1730 O   0  0  0  0  0  1  0  0  0  0  0  0
  188.3110  177.6510  143.4130 C   0  0  2  0  0  3  0  0  0  0  0  0
  188.1210  176.1390  143.4020 C   0  0  0  0  0  1  0  0  0  0  0  0
  189.1510  178.2370  144.5800 C   0  0  0  0  0  2  0  0  0  0  0  0
  190.6110  178.0390  144.1800 C   0  0  0  0  0  2  0  0  0  0  0  0
  191.3990  177.1520  144.9980 C   0  0  0  0  0  2  0  0  0  0  0  0
  191.0080  176.9130  146.2090 N   0  0  0  0  0  2  0  0  0  0  0  0
  192.3160  176.7640  148.2050 O   0  0  0  0  0  1  0  0  0  0  0  0
  191.9080  176.2100  146.9820 C   0  0  0  0  0  0  0  0  0  0  0  0
  192.3960  175.1140  146.5920 O   0  0  0  0  0  0  0  0  0  0  0  0
  188.9660  179.6010  137.2260 O   0  0  0  0  0  1  0  0  0  0  0  0
  188.8250  178.2300  137.5730 C   0  0  1  0  0  3  0  0  0  0  0  0
  190.4200  176.5670  136.0110 O   0  0  0  0  0  1  0  0  0  0  0  0
  190.1330  177.5420  138.0780 C   0  0  2  0  0  3  0  0  0  0  0  0
  190.6690  176.3670  137.3500 C   0  0  1  0  0  0  0  0  0  0  0  0
  189.5480  176.2100  138.3890 C   0  0  0  0  0  2  0  0  0  0  0  0
  192.0830  176.0900  137.9330 C   0  0  0  0  0  2  0  0  0  0  0  0
  194.4090  174.8820  137.6060 C   0  0  0  0  0  1  0  0  0  0  0  0
  192.4890  173.8020  136.7720 C   0  0  0  0  0  1  0  0  0  0  0  0
  193.0040  175.1200  137.1620 C   0  0  0  0  0  3  0  0  0  0  0  0
  1  5  2  0  0  0  0
  2  4  2  0  0  0  0
  3  1  1  6  0  0  0
  3 19  1  0  0  0  0
  4 17  1  0  0  0  0
  5  6  1  0  0  0  0
  6 11  1  0  0  0  0
  6 18  2  0  0  0  0
  7 16  1  0  0  0  0
  7  3  1  0  0  0  0
  8 20  2  0  0  0  0
  8 10  1  0  0  0  0
  9 20  1  0  0  0  0
 10 22  1  0  0  0  0
 11  9  2  0  0  0  0
 12 25  1  1  0  0  0
 12 14  1  0  0  0  0
 13 11  1  0  0  0  0
 14 10  1  0  0  0  0
 15  5  1  0  0  0  0
 15 13  2  0  0  0  0
 16 35  1  6  0  0  0
 16  2  1  0  0  0  0
 17 12  1  0  0  0  0
 18  8  1  0  0  0  0
 19  2  1  0  0  0  0
 22 21  2  0  0  0  0
 22 23  1  0  0  0  0
 22 24  1  0  0  0  0
 25 26  1  1  0  0  0
 25 27  1  0  0  0  0
 28 27  1  0  0  0  0
 28 29  1  0  0  0  0
 29 30  1  0  0  0  0
 30 32  1  0  0  0  0
 32 31  1  0  0  0  0
 33 32  2  0  0  0  0
 35 34  1  1  0  0  0
 37 35  1  6  0  0  0
 37 39  1  0  0  0  0
 38 36  1  6  0  0  0
 38 40  1  0  0  0  0
 38 37  1  0  0  0  0
 38 39  1  0  0  0  0
 42 43  1  0  0  0  0
 43 41  1  0  0  0  0
 43 40  1  0  0  0  0
M  END
>  <MODEL>
2

>  <REMARK>
 VINA RESULT:      -7.7      2.735      7.352
  Name = 
  10 active torsions:
  status: ('A' for Active; 'I' for Inactive)
    1  A    between atoms: C_2  and  C_24
    2  A    between atoms: C_2  and  C_28
    3  A    between atoms: C_3  and  C_34
    4  A    between atoms: C_3  and  C_40
    5  A    between atoms: C_13  and  C_39
    6  A    between atoms: C_16  and  C_32
    7  A    between atoms: C_16  and  C_33
    8  A    between atoms: N_19  and  P_22
    9  A    between atoms: C_27  and  N_43
   10  A    between atoms: C_28  and  C_39
                            x       y       z     vdW  Elec       q    Type
                         _______ _______ _______ _____ _____    ______ ____

>  <TORSDO>
F 10

$$$$
=
 OpenBabel10232410293D

 43 47  0  0  1  0  0  0  0  0999 V2000
  183.6590  178.6560  144.1580 C   0  0  0  0  0  3  0  0  0  0  0  0
  185.2190  178.9730  140.9310 C   0  0  0  0  0  0  0  0  0  0  0  0
  183.8830  178.4730  142.7150 C   0  0  1  0  0  3  0  0  0  0  0  0
  186.3850  178.6180  140.5650 N   0  0  0  0  0  0  0  0  0  0  0  0
  184.6120  178.5890  145.1320 C   0  0  0  0  0  0  0  0  0  0  0  0
  186.1160  178.3280  145.1680 C   0  0  0  0  0  0  0  0  0  0  0  0
  182.5950  178.4660  141.3800 S   0  0  0  0  0  0  0  0  0  0  0  0
  188.4600  177.8900  144.6600 C   0  0  0  0  0  0  0  0  0  0  0  0
  187.6290  177.8750  146.9380 N   0  0  0  0  0  0  0  0  0  0  0  0
  189.5960  177.8870  143.7290 N   0  0  0  0  0  0  0  0  0  0  0  0
  186.3600  178.2430  146.5270 C   0  0  0  0  0  0  0  0  0  0  0  0
  188.5140  177.7350  141.6010 C   0  0  1  0  0  3  0  0  0  0  0  0
  185.2300  178.4380  147.3280 N   0  0  0  0  0  0  0  0  0  0  0  0
  189.4990  178.5550  142.4010 C   0  0  0  0  0  2  0  0  0  0  0  0
  184.1380  178.6560  146.4430 N   0  0  0  0  0  0  0  0  0  0  0  0
  183.9610  178.8400  140.1570 C   0  0  1  0  0  3  0  0  0  0  0  0
  187.3570  178.5010  141.5760 N   0  0  0  0  0  2  0  0  0  0  0  0
  187.1220  178.1260  144.2350 C   0  0  0  0  0  3  0  0  0  0  0  0
  185.0300  179.1080  142.3060 O   0  0  0  0  0  0  0  0  0  0  0  0
  188.6460  177.7040  146.0430 C   0  0  0  0  0  3  0  0  0  0  0  0
  191.9550  176.4730  144.9630 O   0  0  0  0  0  1  0  0  0  0  0  0
  190.9400  176.7450  143.6160 P   0  0  0  0  0  0  0  0  0  0  0  0
  191.8830  177.4650  142.6760 O   0  0  0  0  0  0  0  0  0  0  0  0
  190.5100  175.3140  142.8550 O   0  0  0  0  0  1  0  0  0  0  0  0
  188.8060  177.2160  140.1410 C   0  0  2  0  0  3  0  0  0  0  0  0
  190.1460  176.4910  140.1600 C   0  0  0  0  0  1  0  0  0  0  0  0
  188.5910  178.2450  138.9980 C   0  0  0  0  0  2  0  0  0  0  0  0
  189.4510  177.7570  137.8350 C   0  0  0  0  0  3  0  0  0  0  0  0
  188.7800  177.5120  136.5820 C   0  0  0  0  0  3  0  0  0  0  0  0
  187.4860  177.4690  136.5700 N   0  0  0  0  0  2  0  0  0  0  0  0
  187.5600  176.0080  134.6790 O   0  0  0  0  0  0  0  0  0  0  0  0
  186.9300  177.0460  135.3810 C   0  0  0  0  0  0  0  0  0  0  0  0
  185.9040  177.6010  134.9010 O   0  0  0  0  0  1  0  0  0  0  0  0
  184.1300  181.0030  138.8100 O   0  0  0  0  0  1  0  0  0  0  0  0
  183.5970  179.6940  138.9480 C   0  0  1  0  0  3  0  0  0  0  0  0
  181.3540  178.3550  137.9840 O   0  0  0  0  0  1  0  0  0  0  0  0
  183.5760  178.8510  137.6320 C   0  0  2  0  0  3  0  0  0  0  0  0
  182.5040  177.8470  137.4240 C   0  0  1  0  0  0  0  0  0  0  0  0
  183.7540  177.5110  138.2540 C   0  0  0  0  0  2  0  0  0  0  0  0
  182.6130  177.3820  135.9450 C   0  0  0  0  0  2  0  0  0  0  0  0
  183.1740  174.9370  135.1170 C   0  0  0  0  0  1  0  0  0  0  0  0
  181.3280  175.2090  136.5560 C   0  0  0  0  0  1  0  0  0  0  0  0
  182.1810  175.9370  135.6100 C   0  0  0  0  0  3  0  0  0  0  0  0
  1  5  2  0  0  0  0
  2 19  1  0  0  0  0
  3  1  1  1  0  0  0
  4  2  2  0  0  0  0
  4 17  1  0  0  0  0
  5  6  1  0  0  0  0
  5 15  1  0  0  0  0
  6 11  1  0  0  0  0
  7  3  1  0  0  0  0
  8 20  2  0  0  0  0
 10  8  1  0  0  0  0
 11  9  2  0  0  0  0
 11 13  1  0  0  0  0
 12 25  1  6  0  0  0
 12 14  1  0  0  0  0
 14 10  1  0  0  0  0
 15 13  2  0  0  0  0
 16 35  1  1  0  0  0
 16  2  1  0  0  0  0
 16  7  1  0  0  0  0
 17 12  1  0  0  0  0
 18  8  1  0  0  0  0
 18  6  2  0  0  0  0
 19  3  1  0  0  0  0
 20  9  1  0  0  0  0
 22 10  1  0  0  0  0
 22 21  1  0  0  0  0
 23 22  2  0  0  0  0
 24 22  1  0  0  0  0
 25 26  1  1  0  0  0
 27 25  1  0  0  0  0
 28 27  1  0  0  0  0
 29 28  2  0  0  0  0
 30 29  1  0  0  0  0
 31 32  2  0  0  0  0
 32 30  1  0  0  0  0
 33 32  1  0  0  0  0
 35 34  1  6  0  0  0
 37 39  1  0  0  0  0
 37 35  1  1  0  0  0
 38 37  1  0  0  0  0
 38 36  1  1  0  0  0
 38 39  1  0  0  0  0
 40 38  1  0  0  0  0
 41 43  1  0  0  0  0
 43 40  1  0  0  0  0
 43 42  1  0  0  0  0
M  END
>  <MODEL>
3

>  <REMARK>
 VINA RESULT:      -7.7      2.925      5.989
  Name = 
  10 active torsions:
  status: ('A' for Active; 'I' for Inactive)
    1  A    between atoms: C_2  and  C_24
    2  A    between atoms: C_2  and  C_28
    3  A    between atoms: C_3  and  C_34
    4  A    between atoms: C_3  and  C_40
    5  A    between atoms: C_13  and  C_39
    6  A    between atoms: C_16  and  C_32
    7  A    between atoms: C_16  and  C_33
    8  A    between atoms: N_19  and  P_22
    9  A    between atoms: C_27  and  N_43
   10  A    between atoms: C_28  and  C_39
                            x       y       z     vdW  Elec       q    Type
                         _______ _______ _______ _____ _____    ______ ____

>  <TORSDO>
F 10

$$$$
=
 OpenBabel10232410293D

 43 47  0  0  1  0  0  0  0  0999 V2000
  184.1190  178.7060  142.0540 C   0  0  0  0  0  3  0  0  0  0  0  0
  187.4190  178.3540  140.6620 C   0  0  0  0  0  0  0  0  0  0  0  0
  185.1980  178.2180  141.1810 C   0  0  1  0  0  3  0  0  0  0  0  0
  188.4900  177.9630  141.2260 N   0  0  0  0  0  0  0  0  0  0  0  0
  184.1990  178.8830  143.4040 C   0  0  0  0  0  0  0  0  0  0  0  0
  185.2770  178.6820  144.4670 C   0  0  0  0  0  0  0  0  0  0  0  0
  185.0890  177.8780  139.3600 S   0  0  0  0  0  0  0  0  0  0  0  0
  187.3170  178.2150  145.7170 C   0  0  0  0  0  0  0  0  0  0  0  0
  185.2170  178.6760  146.8390 N   0  0  0  0  0  0  0  0  0  0  0  0
  188.7740  178.0430  145.7840 N   0  0  0  0  0  0  0  0  0  0  0  0
  184.5720  178.9050  145.6360 C   0  0  0  0  0  0  0  0  0  0  0  0
  189.3160  177.3940  143.5460 C   0  0  1  0  0  3  0  0  0  0  0  0
  183.2260  179.2370  145.4430 N   0  0  0  0  0  0  0  0  0  0  0  0
  189.6410  178.3990  144.6260 C   0  0  0  0  0  2  0  0  0  0  0  0
  183.0020  179.2220  144.0380 N   0  0  0  0  0  0  0  0  0  0  0  0
  186.9550  178.0160  139.2940 C   0  0  1  0  0  3  0  0  0  0  0  0
  188.5540  178.1010  142.6250 N   0  0  0  0  0  2  0  0  0  0  0  0
  186.6130  178.3120  144.4840 C   0  0  0  0  0  3  0  0  0  0  0  0
  186.4030  178.7820  141.5170 O   0  0  0  0  0  0  0  0  0  0  0  0
  186.5410  178.3430  146.8850 C   0  0  0  0  0  3  0  0  0  0  0  0
  188.9680  175.6120  147.5560 O   0  0  0  0  0  1  0  0  0  0  0  0
  189.7200  176.9450  146.7950 P   0  0  0  0  0  0  0  0  0  0  0  0
  190.0450  177.8200  147.9860 O   0  0  0  0  0  1  0  0  0  0  0  0
  191.1860  176.5250  146.0990 O   0  0  0  0  0  0  0  0  0  0  0  0
  190.4170  176.5760  142.7670 C   0  0  2  0  0  3  0  0  0  0  0  0
  190.3590  175.1320  143.2500 C   0  0  0  0  0  1  0  0  0  0  0  0
  191.8250  177.2280  142.6960 C   0  0  0  0  0  2  0  0  0  0  0  0
  191.8870  177.9300  141.3420 C   0  0  0  0  0  2  0  0  0  0  0  0
  192.5790  177.2430  140.2800 C   0  0  0  0  0  2  0  0  0  0  0  0
  191.9720  177.0830  139.1480 N   0  0  0  0  0  2  0  0  0  0  0  0
  193.7780  176.7360  137.6190 O   0  0  0  0  0  0  0  0  0  0  0  0
  192.6210  176.2590  138.2520 C   0  0  0  0  0  0  0  0  0  0  0  0
  192.1710  175.1160  137.9660 O   0  0  0  0  0  1  0  0  0  0  0  0
  188.7370  179.3740  138.0690 O   0  0  0  0  0  1  0  0  0  0  0  0
  187.5660  178.5710  138.0140 C   0  0  1  0  0  3  0  0  0  0  0  0
  188.9910  176.1800  138.0570 O   0  0  0  0  0  1  0  0  0  0  0  0
  187.5460  177.5170  136.8610 C   0  0  2  0  0  3  0  0  0  0  0  0
  188.6330  176.5120  136.7700 C   0  0  1  0  0  0  0  0  0  0  0  0
  188.8130  177.9270  136.1970 C   0  0  0  0  0  2  0  0  0  0  0  0
  188.1900  175.4740  135.7010 C   0  0  0  0  0  2  0  0  0  0  0  0
  188.7550  173.1130  136.7400 C   0  0  0  0  0  1  0  0  0  0  0  0
  186.5790  173.9550  137.0580 C   0  0  0  0  0  1  0  0  0  0  0  0
  187.7560  174.0750  136.1900 C   0  0  0  0  0  3  0  0  0  0  0  0
  1  5  2  0  0  0  0
  2  4  2  0  0  0  0
  2 19  1  0  0  0  0
  3 19  1  0  0  0  0
  3  1  1  6  0  0  0
  4 17  1  0  0  0  0
  5 15  1  0  0  0  0
  5  6  1  0  0  0  0
  6 18  2  0  0  0  0
  6 11  1  0  0  0  0
  7  3  1  0  0  0  0
  8 10  1  0  0  0  0
  8 20  2  0  0  0  0
  9 20  1  0  0  0  0
 10 22  1  0  0  0  0
 11  9  2  0  0  0  0
 12 25  1  6  0  0  0
 12 14  1  0  0  0  0
 13 11  1  0  0  0  0
 14 10  1  0  0  0  0
 15 13  2  0  0  0  0
 16 35  1  6  0  0  0
 16  7  1  0  0  0  0
 16  2  1  0  0  0  0
 17 12  1  0  0  0  0
 18  8  1  0  0  0  0
 22 21  1  0  0  0  0
 22 23  1  0  0  0  0
 24 22  2  0  0  0  0
 25 26  1  1  0  0  0
 27 25  1  0  0  0  0
 28 27  1  0  0  0  0
 29 28  1  0  0  0  0
 30 29  1  0  0  0  0
 31 32  2  0  0  0  0
 32 30  1  0  0  0  0
 33 32  1  0  0  0  0
 35 34  1  1  0  0  0
 37 35  1  1  0  0  0
 38 37  1  0  0  0  0
 38 36  1  1  0  0  0
 39 38  1  0  0  0  0
 39 37  1  0  0  0  0
 40 43  1  0  0  0  0
 40 38  1  0  0  0  0
 43 41  1  0  0  0  0
 43 42  1  0  0  0  0
M  END
>  <MODEL>
4

>  <REMARK>
 VINA RESULT:      -7.6      3.073      6.112
  Name = 
  10 active torsions:
  status: ('A' for Active; 'I' for Inactive)
    1  A    between atoms: C_2  and  C_24
    2  A    between atoms: C_2  and  C_28
    3  A    between atoms: C_3  and  C_34
    4  A    between atoms: C_3  and  C_40
    5  A    between atoms: C_13  and  C_39
    6  A    between atoms: C_16  and  C_32
    7  A    between atoms: C_16  and  C_33
    8  A    between atoms: N_19  and  P_22
    9  A    between atoms: C_27  and  N_43
   10  A    between atoms: C_28  and  C_39
                            x       y       z     vdW  Elec       q    Type
                         _______ _______ _______ _____ _____    ______ ____

>  <TORSDO>
F 10

$$$$
=
 OpenBabel10232410293D

 43 47  0  0  1  0  0  0  0  0999 V2000
  191.9770  177.0050  143.8880 C   0  0  0  0  0  3  0  0  0  0  0  0
  189.3550  177.0850  141.4240 C   0  0  0  0  0  0  0  0  0  0  0  0
  191.2460  177.3870  142.6690 C   0  0  1  0  0  3  0  0  0  0  0  0
  188.1370  177.4250  141.5600 N   0  0  0  0  0  0  0  0  0  0  0  0
  191.4410  176.8740  145.1360 C   0  0  0  0  0  0  0  0  0  0  0  0
  190.0520  177.0440  145.7470 C   0  0  0  0  0  0  0  0  0  0  0  0
  191.9660  177.6630  140.9810 S   0  0  0  0  0  0  0  0  0  0  0  0
  187.6840  177.4220  146.1870 C   0  0  0  0  0  0  0  0  0  0  0  0
  189.2820  177.1450  147.9890 N   0  0  0  0  0  0  0  0  0  0  0  0
  186.2880  177.5000  145.7360 N   0  0  0  0  0  0  0  0  0  0  0  0
  190.3160  176.9130  147.0990 C   0  0  0  0  0  0  0  0  0  0  0  0
  186.5280  178.0250  143.4140 C   0  0  1  0  0  3  0  0  0  0  0  0
  191.6590  176.6640  147.4020 N   0  0  0  0  0  0  0  0  0  0  0  0
  185.8960  177.0430  144.3730 C   0  0  0  0  0  2  0  0  0  0  0  0
  192.3570  176.6400  146.1630 N   0  0  0  0  0  0  0  0  0  0  0  0
  190.2490  177.4000  140.2840 C   0  0  1  0  0  3  0  0  0  0  0  0
  187.5960  177.3360  142.8570 N   0  0  0  0  0  2  0  0  0  0  0  0
  188.7770  177.3260  145.2800 C   0  0  0  0  0  3  0  0  0  0  0  0
  190.0290  176.7580  142.6010 O   0  0  0  0  0  0  0  0  0  0  0  0
  188.0100  177.3900  147.5560 C   0  0  0  0  0  3  0  0  0  0  0  0
  183.6900  178.9530  145.2580 O   0  0  0  0  0  0  0  0  0  0  0  0
  184.9970  178.5700  146.2920 P   0  0  0  0  0  0  0  0  0  0  0  0
  185.7090  179.9030  146.3730 O   0  0  0  0  0  1  0  0  0  0  0  0
  184.4820  178.2110  147.8460 O   0  0  0  0  0  1  0  0  0  0  0  0
  185.7280  178.7380  142.2570 C   0  0  2  0  0  3  0  0  0  0  0  0
  185.6270  180.2200  142.5990 C   0  0  0  0  0  1  0  0  0  0  0  0
  184.4170  178.0390  141.8060 C   0  0  0  0  0  2  0  0  0  0  0  0
  184.1060  178.5980  140.4200 C   0  0  0  0  0  2  0  0  0  0  0  0
  182.9640  178.0480  139.7330 C   0  0  0  0  0  2  0  0  0  0  0  0
  182.7010  176.7890  139.8790 N   0  0  0  0  0  2  0  0  0  0  0  0
  180.7790  175.3980  139.5770 O   0  0  0  0  0  1  0  0  0  0  0  0
  181.7130  176.3020  139.0480 C   0  0  0  0  0  0  0  0  0  0  0  0
  181.6650  176.6180  137.8280 O   0  0  0  0  0  0  0  0  0  0  0  0
  190.5360  175.4030  138.7180 O   0  0  0  0  0  1  0  0  0  0  0  0
  190.1490  176.7570  138.9050 C   0  0  1  0  0  3  0  0  0  0  0  0
  189.9440  177.0970  136.1500 O   0  0  0  0  0  1  0  0  0  0  0  0
  188.8360  177.1740  138.1680 C   0  0  2  0  0  3  0  0  0  0  0  0
  188.9140  177.7390  136.8000 C   0  0  1  0  0  0  0  0  0  0  0  0
  189.1370  178.6250  138.0360 C   0  0  0  0  0  2  0  0  0  0  0  0
  187.4580  177.8010  136.2600 C   0  0  0  0  0  2  0  0  0  0  0  0
  185.0550  176.8930  136.8740 C   0  0  0  0  0  1  0  0  0  0  0  0
  186.5560  175.4020  135.8390 C   0  0  0  0  0  1  0  0  0  0  0  0
  186.5040  176.6410  136.6230 C   0  0  0  0  0  3  0  0  0  0  0  0
  1  5  2  0  0  0  0
  2  4  2  0  0  0  0
  2 19  1  0  0  0  0
  3  1  1  1  0  0  0
  4 17  1  0  0  0  0
  5  6  1  0  0  0  0
  5 15  1  0  0  0  0
  6 11  1  0  0  0  0
  7  3  1  0  0  0  0
  8 20  2  0  0  0  0
 10  8  1  0  0  0  0
 10 22  1  0  0  0  0
 11 13  1  0  0  0  0
 11  9  2  0  0  0  0
 12 25  1  6  0  0  0
 12 14  1  0  0  0  0
 14 10  1  0  0  0  0
 15 13  2  0  0  0  0
 16 35  1  6  0  0  0
 16  7  1  0  0  0  0
 16  2  1  0  0  0  0
 17 12  1  0  0  0  0
 18  6  2  0  0  0  0
 18  8  1  0  0  0  0
 19  3  1  0  0  0  0
 20  9  1  0  0  0  0
 21 22  2  0  0  0  0
 22 23  1  0  0  0  0
 22 24  1  0  0  0  0
 25 26  1  1  0  0  0
 27 25  1  0  0  0  0
 28 27  1  0  0  0  0
 29 30  1  0  0  0  0
 29 28  1  0  0  0  0
 32 31  1  0  0  0  0
 32 30  1  0  0  0  0
 33 32  2  0  0  0  0
 35 34  1  1  0  0  0
 37 35  1  6  0  0  0
 38 36  1  6  0  0  0
 38 39  1  0  0  0  0
 38 37  1  0  0  0  0
 39 37  1  0  0  0  0
 40 43  1  0  0  0  0
 40 38  1  0  0  0  0
 42 43  1  0  0  0  0
 43 41  1  0  0  0  0
M  END
>  <MODEL>
5

>  <REMARK>
 VINA RESULT:      -7.6      1.215      1.618
  Name = 
  10 active torsions:
  status: ('A' for Active; 'I' for Inactive)
    1  A    between atoms: C_2  and  C_24
    2  A    between atoms: C_2  and  C_28
    3  A    between atoms: C_3  and  C_34
    4  A    between atoms: C_3  and  C_40
    5  A    between atoms: C_13  and  C_39
    6  A    between atoms: C_16  and  C_32
    7  A    between atoms: C_16  and  C_33
    8  A    between atoms: N_19  and  P_22
    9  A    between atoms: C_27  and  N_43
   10  A    between atoms: C_28  and  C_39
                            x       y       z     vdW  Elec       q    Type
                         _______ _______ _______ _____ _____    ______ ____

>  <TORSDO>
F 10

$$$$
=
 OpenBabel10232410293D

 43 47  0  0  1  0  0  0  0  0999 V2000
  190.4760  176.8110  138.6770 C   0  0  0  0  0  2  0  0  0  0  0  0
  188.7010  178.1980  141.4840 C   0  0  0  0  0  0  0  0  0  0  0  0
  189.9700  176.9490  140.0530 C   0  0  1  0  0  3  0  0  0  0  0  0
  187.4530  178.3940  141.6260 N   0  0  0  0  0  0  0  0  0  0  0  0
  189.7500  176.9830  137.5360 C   0  0  0  0  0  0  0  0  0  0  0  0
  188.3010  177.3380  137.2100 C   0  0  0  0  0  0  0  0  0  0  0  0
  190.9080  176.6300  141.6220 S   0  0  0  0  0  0  0  0  0  0  0  0
  185.9420  177.9490  137.2530 C   0  0  0  0  0  0  0  0  0  0  0  0
  187.0390  177.2660  135.2020 N   0  0  0  0  0  0  0  0  0  0  0  0
  184.7770  178.5370  137.9280 N   0  0  0  0  0  0  0  0  0  0  0  0
  188.2630  177.1560  135.8390 C   0  0  0  0  0  0  0  0  0  0  0  0
  185.3430  178.2870  140.2390 C   0  0  1  0  0  3  0  0  0  0  0  0
  189.4820  176.7640  135.2760 N   0  0  0  0  0  2  0  0  0  0  0  0
  184.9320  179.3010  139.1980 C   0  0  0  0  0  2  0  0  0  0  0  0
  190.4100  176.6600  136.3490 N   0  0  0  0  0  0  0  0  0  0  0  0
  189.6490  177.6930  142.5080 C   0  0  1  0  0  3  0  0  0  0  0  0
  186.6950  178.5240  140.4470 N   0  0  0  0  0  2  0  0  0  0  0  0
  187.1690  177.6950  137.9270 C   0  0  0  0  0  3  0  0  0  0  0  0
  189.1460  178.0400  140.1720 O   0  0  0  0  0  0  0  0  0  0  0  0
  185.9160  177.6480  135.8780 C   0  0  0  0  0  3  0  0  0  0  0  0
  182.1640  178.3660  136.4330 O   0  0  0  0  0  0  0  0  0  0  0  0
  183.0790  178.0530  137.8430 P   0  0  0  0  0  0  0  0  0  0  0  0
  182.4340  179.0020  138.8290 O   0  0  0  0  0  1  0  0  0  0  0  0
  182.8160  176.5050  138.4300 O   0  0  0  0  0  1  0  0  0  0  0  0
  184.6330  178.1500  141.6400 C   0  0  2  0  0  3  0  0  0  0  0  0
  183.3880  177.2910  141.4540 C   0  0  0  0  0  1  0  0  0  0  0  0
  184.4540  179.4680  142.4420 C   0  0  0  0  0  2  0  0  0  0  0  0
  183.4160  179.1590  143.5180 C   0  0  0  0  0  2  0  0  0  0  0  0
  183.9130  178.8110  144.8260 C   0  0  0  0  0  2  0  0  0  0  0  0
  185.0640  179.2730  145.1950 N   0  0  0  0  0  2  0  0  0  0  0  0
  185.6060  179.5750  147.5050 O   0  0  0  0  0  1  0  0  0  0  0  0
  185.5510  178.7470  146.3730 C   0  0  0  0  0  0  0  0  0  0  0  0
  185.9830  177.5640  146.4370 O   0  0  0  0  0  0  0  0  0  0  0  0
  190.3380  179.9040  143.5860 O   0  0  0  0  0  1  0  0  0  0  0  0
  190.1400  178.5020  143.7030 C   0  0  1  0  0  3  0  0  0  0  0  0
  191.2240  176.6330  145.4590 O   0  0  0  0  0  1  0  0  0  0  0  0
  189.4540  178.0430  145.0300 C   0  0  2  0  0  3  0  0  0  0  0  0
  189.8700  176.7710  145.6660 C   0  0  1  0  0  0  0  0  0  0  0  0
  188.8510  176.7840  144.5160 C   0  0  0  0  0  2  0  0  0  0  0  0
  189.2030  176.7360  147.0700 C   0  0  0  0  0  2  0  0  0  0  0  0
  188.2310  178.3210  148.9460 C   0  0  0  0  0  1  0  0  0  0  0  0
  190.5600  178.3400  148.5960 C   0  0  0  0  0  1  0  0  0  0  0  0
  189.2900  178.0080  147.9420 C   0  0  0  0  0  3  0  0  0  0  0  0
  2  4  2  0  0  0  0
  2 16  1  0  0  0  0
  3  1  1  6  0  0  0
  3 19  1  0  0  0  0
  3  7  1  0  0  0  0
  5  1  1  0  0  0  0
  6  5  1  0  0  0  0
  6 18  2  0  0  0  0
  7 16  1  0  0  0  0
  8 18  1  0  0  0  0
  8 10  1  0  0  0  0
  9 11  2  0  0  0  0
  9 20  1  0  0  0  0
 10 14  1  0  0  0  0
 11  6  1  0  0  0  0
 12 17  1  0  0  0  0
 12 25  1  1  0  0  0
 13 11  1  0  0  0  0
 13 15  1  0  0  0  0
 14 12  1  0  0  0  0
 15  5  2  0  0  0  0
 16 35  1  6  0  0  0
 17  4  1  0  0  0  0
 19  2  1  0  0  0  0
 20  8  2  0  0  0  0
 21 22  2  0  0  0  0
 22 10  1  0  0  0  0
 22 24  1  0  0  0  0
 22 23  1  0  0  0  0
 25 26  1  6  0  0  0
 25 27  1  0  0  0  0
 27 28  1  0  0  0  0
 28 29  1  0  0  0  0
 29 30  1  0  0  0  0
 30 32  1  0  0  0  0
 32 33  2  0  0  0  0
 32 31  1  0  0  0  0
 35 34  1  6  0  0  0
 37 35  1  6  0  0  0
 37 38  1  0  0  0  0
 38 36  1  6  0  0  0
 38 40  1  0  0  0  0
 39 37  1  0  0  0  0
 39 38  1  0  0  0  0
 40 43  1  0  0  0  0
 43 42  1  0  0  0  0
 43 41  1  0  0  0  0
M  END
>  <MODEL>
6

>  <REMARK>
 VINA RESULT:      -7.3      2.863      8.096
  Name = 
  10 active torsions:
  status: ('A' for Active; 'I' for Inactive)
    1  A    between atoms: C_2  and  C_24
    2  A    between atoms: C_2  and  C_28
    3  A    between atoms: C_3  and  C_34
    4  A    between atoms: C_3  and  C_40
    5  A    between atoms: C_13  and  C_39
    6  A    between atoms: C_16  and  C_32
    7  A    between atoms: C_16  and  C_33
    8  A    between atoms: N_19  and  P_22
    9  A    between atoms: C_27  and  N_43
   10  A    between atoms: C_28  and  C_39
                            x       y       z     vdW  Elec       q    Type
                         _______ _______ _______ _____ _____    ______ ____

>  <TORSDO>
F 10

$$$$
=
 OpenBabel10232410293D

 43 47  0  0  1  0  0  0  0  0999 V2000
  186.0120  178.0310  143.4250 C   0  0  0  0  0  3  0  0  0  0  0  0
  185.1910  178.8840  140.0270 C   0  0  0  0  0  0  0  0  0  0  0  0
  185.2590  178.0720  142.1610 C   0  0  1  0  0  3  0  0  0  0  0  0
  185.8360  178.6350  138.9590 N   0  0  0  0  0  0  0  0  0  0  0  0
  187.3590  177.8600  143.5510 C   0  0  0  0  0  0  0  0  0  0  0  0
  188.5250  177.6580  142.5860 C   0  0  0  0  0  0  0  0  0  0  0  0
  183.4200  178.2100  141.9650 S   0  0  0  0  0  0  0  0  0  0  0  0
  189.9840  177.3960  140.6510 C   0  0  0  0  0  0  0  0  0  0  0  0
  190.7860  177.0110  142.9060 N   0  0  0  0  0  0  0  0  0  0  0  0
  190.2710  177.5770  139.2210 N   0  0  0  0  0  0  0  0  0  0  0  0
  189.5690  177.3830  143.4510 C   0  0  0  0  0  0  0  0  0  0  0  0
  188.0790  177.6970  138.2700 C   0  0  1  0  0  3  0  0  0  0  0  0
  189.2170  177.4120  144.8050 N   0  0  0  0  0  0  0  0  0  0  0  0
  189.3970  178.4280  138.3660 C   0  0  0  0  0  2  0  0  0  0  0  0
  187.8290  177.7140  144.8570 N   0  0  0  0  0  0  0  0  0  0  0  0
  183.7220  178.8150  140.2200 C   0  0  1  0  0  3  0  0  0  0  0  0
  187.2190  178.4100  139.0930 N   0  0  0  0  0  2  0  0  0  0  0  0
  188.6980  177.6380  141.2100 C   0  0  0  0  0  3  0  0  0  0  0  0
  185.9240  178.8070  141.2110 O   0  0  0  0  0  0  0  0  0  0  0  0
  190.9930  177.0160  141.5570 C   0  0  0  0  0  3  0  0  0  0  0  0
  190.8590  176.5710  136.4400 O   0  0  0  0  0  0  0  0  0  0  0  0
  191.1640  176.5200  138.1220 P   0  0  0  0  0  0  0  0  0  0  0  0
  190.6100  175.1580  138.4800 O   0  0  0  0  0  1  0  0  0  0  0  0
  192.8050  176.4700  138.4610 O   0  0  0  0  0  1  0  0  0  0  0  0
  187.3470  177.4110  136.9030 C   0  0  2  0  0  3  0  0  0  0  0  0
  187.1040  178.7470  136.2120 C   0  0  0  0  0  1  0  0  0  0  0  0
  186.1410  176.4340  136.9690 C   0  0  0  0  0  2  0  0  0  0  0  0
  186.7440  175.0320  136.9710 C   0  0  0  0  0  2  0  0  0  0  0  0
  185.9180  173.9630  136.4670 C   0  0  0  0  0  2  0  0  0  0  0  0
  185.1960  173.2900  137.3040 N   0  0  0  0  0  2  0  0  0  0  0  0
  183.3750  171.7410  137.3420 O   0  0  0  0  0  1  0  0  0  0  0  0
  184.5830  172.1730  136.7760 C   0  0  0  0  0  0  0  0  0  0  0  0
  185.1080  171.5180  135.8340 O   0  0  0  0  0  0  0  0  0  0  0  0
  183.1840  180.9000  138.8460 O   0  0  0  0  0  1  0  0  0  0  0  0
  182.7290  179.8220  139.6520 C   0  0  1  0  0  3  0  0  0  0  0  0
  182.6210  178.1490  137.4290 O   0  0  0  0  0  1  0  0  0  0  0  0
  181.4280  179.1230  139.1410 C   0  0  2  0  0  3  0  0  0  0  0  0
  181.3670  178.6180  137.7490 C   0  0  1  0  0  0  0  0  0  0  0  0
  181.0900  180.0960  138.0680 C   0  0  0  0  0  2  0  0  0  0  0  0
  180.0730  177.7650  137.6400 C   0  0  0  0  0  2  0  0  0  0  0  0
  180.6210  175.3080  136.8440 C   0  0  0  0  0  1  0  0  0  0  0  0
  180.8510  175.7910  139.1380 C   0  0  0  0  0  1  0  0  0  0  0  0
  180.1820  176.2500  137.9150 C   0  0  0  0  0  3  0  0  0  0  0  0
  1  5  2  0  0  0  0
  2 16  1  0  0  0  0
  2 19  1  0  0  0  0
  3  1  1  1  0  0  0
  4 17  1  0  0  0  0
  4  2  2  0  0  0  0
  5 15  1  0  0  0  0
  6 11  1  0  0  0  0
  6  5  1  0  0  0  0
  7  3  1  0  0  0  0
  8 18  1  0  0  0  0
  8 20  2  0  0  0  0
  9 11  2  0  0  0  0
 10  8  1  0  0  0  0
 11 13  1  0  0  0  0
 12 25  1  6  0  0  0
 12 14  1  0  0  0  0
 12 17  1  0  0  0  0
 13 15  2  0  0  0  0
 14 10  1  0  0  0  0
 16 35  1  1  0  0  0
 16  7  1  0  0  0  0
 18  6  2  0  0  0  0
 19  3  1  0  0  0  0
 20  9  1  0  0  0  0
 21 22  2  0  0  0  0
 22 24  1  0  0  0  0
 22 23  1  0  0  0  0
 22 10  1  0  0  0  0
 25 26  1  1  0  0  0
 25 27  1  0  0  0  0
 27 28  1  0  0  0  0
 29 28  1  0  0  0  0
 29 30  1  0  0  0  0
 32 30  1  0  0  0  0
 32 31  1  0  0  0  0
 33 32  2  0  0  0  0
 35 34  1  6  0  0  0
 37 35  1  6  0  0  0
 38 36  1  6  0  0  0
 38 39  1  0  0  0  0
 38 37  1  0  0  0  0
 39 37  1  0  0  0  0
 40 38  1  0  0  0  0
 40 43  1  0  0  0  0
 41 43  1  0  0  0  0
 43 42  1  0  0  0  0
M  END
>  <MODEL>
7

>  <REMARK>
 VINA RESULT:      -7.2      3.586      7.132
  Name = 
  10 active torsions:
  status: ('A' for Active; 'I' for Inactive)
    1  A    between atoms: C_2  and  C_24
    2  A    between atoms: C_2  and  C_28
    3  A    between atoms: C_3  and  C_34
    4  A    between atoms: C_3  and  C_40
    5  A    between atoms: C_13  and  C_39
    6  A    between atoms: C_16  and  C_32
    7  A    between atoms: C_16  and  C_33
    8  A    between atoms: N_19  and  P_22
    9  A    between atoms: C_27  and  N_43
   10  A    between atoms: C_28  and  C_39
                            x       y       z     vdW  Elec       q    Type
                         _______ _______ _______ _____ _____    ______ ____

>  <TORSDO>
F 10

$$$$
=
 OpenBabel10232410293D

 43 47  0  0  1  0  0  0  0  0999 V2000
  191.9380  176.9070  143.6150 C   0  0  0  0  0  3  0  0  0  0  0  0
  189.3510  177.0580  141.1180 C   0  0  0  0  0  0  0  0  0  0  0  0
  191.2330  177.3110  142.3880 C   0  0  1  0  0  3  0  0  0  0  0  0
  188.1400  177.4260  141.2390 N   0  0  0  0  0  0  0  0  0  0  0  0
  191.3830  176.7840  144.8550 C   0  0  0  0  0  0  0  0  0  0  0  0
  189.9910  176.9850  145.4490 C   0  0  0  0  0  0  0  0  0  0  0  0
  191.9810  177.5760  140.7110 S   0  0  0  0  0  0  0  0  0  0  0  0
  187.6270  177.4170  145.8590 C   0  0  0  0  0  0  0  0  0  0  0  0
  189.1940  177.0950  147.6810 N   0  0  0  0  0  0  0  0  0  0  0  0
  186.2400  177.5290  145.3910 N   0  0  0  0  0  0  0  0  0  0  0  0
  190.2340  176.8420  146.8030 C   0  0  0  0  0  0  0  0  0  0  0  0
  186.5210  178.0570  143.0750 C   0  0  1  0  0  3  0  0  0  0  0  0
  191.5670  176.5600  147.1230 N   0  0  0  0  0  0  0  0  0  0  0  0
  185.8550  177.0870  144.0210 C   0  0  0  0  0  2  0  0  0  0  0  0
  192.2800  176.5240  145.8930 N   0  0  0  0  0  0  0  0  0  0  0  0
  190.2670  177.3560  139.9900 C   0  0  1  0  0  3  0  0  0  0  0  0
  187.5810  177.3460  142.5280 N   0  0  0  0  0  2  0  0  0  0  0  0
  188.7290  177.2980  144.9660 C   0  0  0  0  0  3  0  0  0  0  0  0
  190.0020  176.7100  142.3020 O   0  0  0  0  0  0  0  0  0  0  0  0
  187.9350  177.3720  147.2330 C   0  0  0  0  0  3  0  0  0  0  0  0
  183.6280  178.9610  144.9260 O   0  0  0  0  0  0  0  0  0  0  0  0
  184.9660  178.6280  145.9350 P   0  0  0  0  0  0  0  0  0  0  0  0
  185.6810  179.9620  145.9270 O   0  0  0  0  0  1  0  0  0  0  0  0
  184.5020  178.3460  147.5210 O   0  0  0  0  0  1  0  0  0  0  0  0
  185.7540  178.7930  141.9100 C   0  0  2  0  0  3  0  0  0  0  0  0
  185.6200  180.2630  142.2910 C   0  0  0  0  0  1  0  0  0  0  0  0
  184.4700  178.0910  141.3920 C   0  0  0  0  0  2  0  0  0  0  0  0
  184.1580  178.7390  140.0460 C   0  0  0  0  0  2  0  0  0  0  0  0
  185.0380  178.4230  138.9480 C   0  0  0  0  0  2  0  0  0  0  0  0
  184.6450  177.5590  138.0680 N   0  0  0  0  0  2  0  0  0  0  0  0
  185.2020  176.7490  135.8880 O   0  0  0  0  0  0  0  0  0  0  0  0
  185.6100  177.1740  137.1610 C   0  0  0  0  0  0  0  0  0  0  0  0
  186.8330  177.1550  137.4700 O   0  0  0  0  0  1  0  0  0  0  0  0
  190.0710  177.5380  137.4500 O   0  0  0  0  0  1  0  0  0  0  0  0
  190.1710  176.7210  138.6080 C   0  0  1  0  0  3  0  0  0  0  0  0
  192.6260  176.8010  137.2980 O   0  0  0  0  0  1  0  0  0  0  0  0
  191.1310  175.4960  138.4680 C   0  0  2  0  0  3  0  0  0  0  0  0
  192.1790  175.5050  137.4190 C   0  0  1  0  0  0  0  0  0  0  0  0
  190.7350  175.0910  137.0930 C   0  0  0  0  0  2  0  0  0  0  0  0
  193.1090  174.2940  137.7090 C   0  0  0  0  0  2  0  0  0  0  0  0
  195.4740  173.9550  138.8340 C   0  0  0  0  0  1  0  0  0  0  0  0
  195.4170  174.4080  136.5230 C   0  0  0  0  0  1  0  0  0  0  0  0
  194.6320  174.5490  137.7550 C   0  0  0  0  0  3  0  0  0  0  0  0
  1  5  2  0  0  0  0
  2  4  2  0  0  0  0
  2 19  1  0  0  0  0
  3  1  1  1  0  0  0
  4 17  1  0  0  0  0
  5  6  1  0  0  0  0
  5 15  1  0  0  0  0
  6 11  1  0  0  0  0
  7  3  1  0  0  0  0
  8 20  2  0  0  0  0
 10  8  1  0  0  0  0
 10 22  1  0  0  0  0
 11 13  1  0  0  0  0
 11  9  2  0  0  0  0
 12 25  1  6  0  0  0
 12 14  1  0  0  0  0
 14 10  1  0  0  0  0
 15 13  2  0  0  0  0
 16 35  1  6  0  0  0
 16  7  1  0  0  0  0
 16  2  1  0  0  0  0
 17 12  1  0  0  0  0
 18  6  2  0  0  0  0
 18  8  1  0  0  0  0
 19  3  1  0  0  0  0
 20  9  1  0  0  0  0
 21 22  2  0  0  0  0
 22 24  1  0  0  0  0
 23 22  1  0  0  0  0
 25 26  1  1  0  0  0
 27 25  1  0  0  0  0
 28 27  1  0  0  0  0
 29 28  1  0  0  0  0
 30 29  1  0  0  0  0
 31 32  2  0  0  0  0
 32 33  1  0  0  0  0
 32 30  1  0  0  0  0
 35 34  1  6  0  0  0
 37 35  1  6  0  0  0
 38 36  1  6  0  0  0
 38 40  1  0  0  0  0
 38 37  1  0  0  0  0
 39 38  1  0  0  0  0
 39 37  1  0  0  0  0
 40 43  1  0  0  0  0
 42 43  1  0  0  0  0
 43 41  1  0  0  0  0
M  END
>  <MODEL>
8

>  <REMARK>
 VINA RESULT:      -6.9      2.188      3.566
  Name = 
  10 active torsions:
  status: ('A' for Active; 'I' for Inactive)
    1  A    between atoms: C_2  and  C_24
    2  A    between atoms: C_2  and  C_28
    3  A    between atoms: C_3  and  C_34
    4  A    between atoms: C_3  and  C_40
    5  A    between atoms: C_13  and  C_39
    6  A    between atoms: C_16  and  C_32
    7  A    between atoms: C_16  and  C_33
    8  A    between atoms: N_19  and  P_22
    9  A    between atoms: C_27  and  N_43
   10  A    between atoms: C_28  and  C_39
                            x       y       z     vdW  Elec       q    Type
                         _______ _______ _______ _____ _____    ______ ____

>  <TORSDO>
F 10

$$$$
=
 OpenBabel10232410293D

 43 47  0  0  1  0  0  0  0  0999 V2000
  185.7880  177.0110  137.0080 C   0  0  0  0  0  2  0  0  0  0  0  0
  188.7270  177.4520  139.0380 C   0  0  0  0  0  0  0  0  0  0  0  0
  187.0760  176.7000  137.6500 C   0  0  1  0  0  3  0  0  0  0  0  0
  188.8140  177.6500  140.2920 N   0  0  0  0  0  0  0  0  0  0  0  0
  184.7140  177.5960  137.6110 C   0  0  0  0  0  0  0  0  0  0  0  0
  184.3990  178.1130  139.0130 C   0  0  0  0  0  0  0  0  0  0  0  0
  188.5190  175.8220  136.8820 S   0  0  0  0  0  0  0  0  0  0  0  0
  184.4340  178.7890  141.3550 C   0  0  0  0  0  0  0  0  0  0  0  0
  182.3820  178.7880  140.0640 N   0  0  0  0  0  0  0  0  0  0  0  0
  185.1610  179.1700  142.5730 N   0  0  0  0  0  0  0  0  0  0  0  0
  183.0510  178.4080  138.9140 C   0  0  0  0  0  0  0  0  0  0  0  0
  187.2890  178.1240  142.2500 C   0  0  1  0  0  3  0  0  0  0  0  0
  182.5010  178.1700  137.6500 N   0  0  0  0  0  2  0  0  0  0  0  0
  186.6240  179.4500  142.5370 C   0  0  0  0  0  2  0  0  0  0  0  0
  183.5530  177.6620  136.8380 N   0  0  0  0  0  0  0  0  0  0  0  0
  189.5980  176.5830  138.2080 C   0  0  1  0  0  3  0  0  0  0  0  0
  187.6870  178.2090  140.9230 N   0  0  0  0  0  2  0  0  0  0  0  0
  185.0890  178.2610  140.2060 C   0  0  0  0  0  3  0  0  0  0  0  0
  187.4860  177.7260  138.4640 O   0  0  0  0  0  0  0  0  0  0  0  0
  183.0430  178.9740  141.2440 C   0  0  0  0  0  3  0  0  0  0  0  0
  185.6060  179.6170  145.5210 O   0  0  0  0  0  1  0  0  0  0  0  0
  184.7620  178.8290  144.2610 P   0  0  0  0  0  0  0  0  0  0  0  0
  185.2570  177.4080  144.4170 O   0  0  0  0  0  0  0  0  0  0  0  0
  183.1100  178.7920  144.5400 O   0  0  0  0  0  1  0  0  0  0  0  0
  188.4880  177.5560  143.1010 C   0  0  2  0  0  3  0  0  0  0  0  0
  188.2310  176.0740  143.3460 C   0  0  0  0  0  1  0  0  0  0  0  0
  188.9040  178.4010  144.3360 C   0  0  0  0  0  2  0  0  0  0  0  0
  188.5600  177.5490  145.5550 C   0  0  0  0  0  2  0  0  0  0  0  0
  189.6460  177.1970  146.4360 C   0  0  0  0  0  2  0  0  0  0  0  0
  190.7970  176.9140  145.9170 N   0  0  0  0  0  2  0  0  0  0  0  0
  192.3570  175.1950  146.4940 O   0  0  0  0  0  0  0  0  0  0  0  0
  191.7250  176.4080  146.8040 C   0  0  0  0  0  0  0  0  0  0  0  0
  191.9780  176.9900  147.8950 O   0  0  0  0  0  1  0  0  0  0  0  0
  192.0360  177.0150  138.8340 O   0  0  0  0  0  1  0  0  0  0  0  0
  191.0370  176.9130  137.8290 C   0  0  1  0  0  3  0  0  0  0  0  0
  191.5960  174.1880  137.7230 O   0  0  0  0  0  1  0  0  0  0  0  0
  191.4800  176.1590  136.5350 C   0  0  2  0  0  3  0  0  0  0  0  0
  192.1560  174.8450  136.6510 C   0  0  1  0  0  0  0  0  0  0  0  0
  192.9440  176.1570  136.7990 C   0  0  0  0  0  2  0  0  0  0  0  0
  192.2260  174.2520  135.2150 C   0  0  0  0  0  2  0  0  0  0  0  0
  194.7170  173.5460  134.6970 C   0  0  0  0  0  1  0  0  0  0  0  0
  193.3360  171.9720  135.7750 C   0  0  0  0  0  1  0  0  0  0  0  0
  193.2920  173.1720  134.9310 C   0  0  0  0  0  3  0  0  0  0  0  0
  1  5  1  0  0  0  0
  2  4  2  0  0  0  0
  3  1  1  6  0  0  0
  3 19  1  0  0  0  0
  4 17  1  0  0  0  0
  5  6  1  0  0  0  0
  6 18  2  0  0  0  0
  7  3  1  0  0  0  0
  7 16  1  0  0  0  0
  8 10  1  0  0  0  0
  9 20  1  0  0  0  0
 10 22  1  0  0  0  0
 11  6  1  0  0  0  0
 11  9  2  0  0  0  0
 12 14  1  0  0  0  0
 12 25  1  1  0  0  0
 13 11  1  0  0  0  0
 14 10  1  0  0  0  0
 15  5  2  0  0  0  0
 15 13  1  0  0  0  0
 16 35  1  6  0  0  0
 16  2  1  0  0  0  0
 17 12  1  0  0  0  0
 18  8  1  0  0  0  0
 19  2  1  0  0  0  0
 20  8  2  0  0  0  0
 22 23  2  0  0  0  0
 22 24  1  0  0  0  0
 22 21  1  0  0  0  0
 25 26  1  1  0  0  0
 25 27  1  0  0  0  0
 27 28  1  0  0  0  0
 28 29  1  0  0  0  0
 30 29  1  0  0  0  0
 30 32  1  0  0  0  0
 31 32  2  0  0  0  0
 32 33  1  0  0  0  0
 35 34  1  1  0  0  0
 37 38  1  0  0  0  0
 37 39  1  0  0  0  0
 37 35  1  1  0  0  0
 38 39  1  0  0  0  0
 38 36  1  1  0  0  0
 40 38  1  0  0  0  0
 41 43  1  0  0  0  0
 43 40  1  0  0  0  0
 43 42  1  0  0  0  0
M  END
>  <MODEL>
9

>  <REMARK>
 VINA RESULT:      -6.8      3.006      7.517
  Name = 
  10 active torsions:
  status: ('A' for Active; 'I' for Inactive)
    1  A    between atoms: C_2  and  C_24
    2  A    between atoms: C_2  and  C_28
    3  A    between atoms: C_3  and  C_34
    4  A    between atoms: C_3  and  C_40
    5  A    between atoms: C_13  and  C_39
    6  A    between atoms: C_16  and  C_32
    7  A    between atoms: C_16  and  C_33
    8  A    between atoms: N_19  and  P_22
    9  A    between atoms: C_27  and  N_43
   10  A    between atoms: C_28  and  C_39
                            x       y       z     vdW  Elec       q    Type
                         _______ _______ _______ _____ _____    ______ ____

>  <TORSDO>
F 10

$$$$
