=
 OpenBabel10232412443D

 39 42  0  0  1  0  0  0  0  0999 V2000
  189.5590  177.1550  143.6270 N   0  0  0  0  0  0  0  0  0  0  0  0
  188.1210  177.3810  143.4160 C   0  0  2  0  0  3  0  0  0  0  0  0
  187.4450  176.1810  143.5500 F   0  0  0  0  0  0  0  0  0  0  0  0
  190.0030  177.1810  141.2580 C   0  0  0  0  0  0  0  0  0  0  0  0
  187.8290  177.9770  142.0550 C   0  0  0  0  0  0  0  0  0  0  0  0
  188.6980  177.8260  141.0540 C   0  0  0  0  0  3  0  0  0  0  0  0
  190.4100  176.8940  142.4980 C   0  0  0  0  0  3  0  0  0  0  0  0
  190.0870  177.0580  144.9640 C   0  0  0  0  0  0  0  0  0  0  0  0
  191.4370  176.7440  145.1840 C   0  0  0  0  0  3  0  0  0  0  0  0
  191.1320  176.8390  147.5370 C   0  0  0  0  0  3  0  0  0  0  0  0
  189.2630  177.2590  146.0820 C   0  0  0  0  0  3  0  0  0  0  0  0
  191.9250  176.6440  146.4500 N   0  0  0  0  0  0  0  0  0  0  0  0
  189.7830  177.1510  147.3720 C   0  0  0  0  0  3  0  0  0  0  0  0
  190.8910  176.9400  140.0750 C   0  0  2  0  0  3  0  0  0  0  0  0
  192.2800  177.4980  140.3240 C   0  0  0  0  0  1  0  0  0  0  0  0
  190.3270  177.5380  138.8730 N   0  0  0  0  0  2  0  0  0  0  0  0
  190.0830  176.4620  137.9230 C   0  0  2  0  0  3  0  0  0  0  0  0
  185.4440  177.6820  137.1250 N   0  0  0  0  0  1  0  0  0  0  0  0
  186.6480  176.9350  137.2550 C   0  0  0  0  0  0  0  0  0  0  0  0
  186.7190  175.6100  137.0460 N   0  0  0  0  0  0  0  0  0  0  0  0
  187.9790  175.2720  137.2570 N   0  0  0  0  0  0  0  0  0  0  0  0
  188.6310  176.4050  137.5860 C   0  0  0  0  0  0  0  0  0  0  0  0
  187.8260  177.4850  137.6000 N   0  0  0  0  0  2  0  0  0  0  0  0
  190.5090  175.1930  138.4920 N   0  0  0  0  0  2  0  0  0  0  0  0
  192.4440  174.7670  137.5940 C   0  0  0  0  0  1  0  0  0  0  0  0
  191.0840  174.4820  137.4930 O   0  0  0  0  0  0  0  0  0  0  0  0
  186.5440  178.6980  141.7560 C   0  0  0  0  0  2  0  0  0  0  0  0
  185.4710  178.5320  142.8270 C   0  0  0  0  0  2  0  0  0  0  0  0
  182.9480  178.8040  143.0100 C   0  0  0  0  0  0  0  0  0  0  0  0
  184.1440  178.6330  142.2370 N   0  0  0  0  0  2  0  0  0  0  0  0
  182.9970  178.7930  144.5000 C   0  0  0  0  0  1  0  0  0  0  0  0
  181.8000  178.9560  142.4260 N   0  0  0  0  0  0  0  0  0  0  0  0
  180.6350  179.9000  140.6280 O   0  0  0  0  0  1  0  0  0  0  0  0
  181.6320  178.9870  140.9730 C   0  0  2  0  0  3  0  0  0  0  0  0
  180.8940  177.7110  139.0330 O   0  0  0  0  0  0  0  0  0  0  0  0
  182.2090  177.2570  139.2560 C   0  0  1  0  0  3  0  0  0  0  0  0
  181.3040  177.6100  140.3760 C   0  0  1  0  0  3  0  0  0  0  0  0
  183.2050  175.2320  138.4370 N   0  0  0  0  0  2  0  0  0  0  0  0
  182.2490  175.7780  139.0910 C   0  0  0  0  0  3  0  0  0  0  0  0
  1  8  1  0  0  0  0
  2  3  1  6  0  0  0
  2  1  1  0  0  0  0
  4  7  2  0  0  0  0
  5  2  1  0  0  0  0
  6  4  1  0  0  0  0
  6  5  2  0  0  0  0
  7  1  1  0  0  0  0
  8  9  2  0  0  0  0
  8 11  1  0  0  0  0
  9 12  1  0  0  0  0
 11 13  2  0  0  0  0
 12 10  2  0  0  0  0
 13 10  1  0  0  0  0
 14 15  1  1  0  0  0
 14  4  1  0  0  0  0
 16 14  1  0  0  0  0
 17 24  1  1  0  0  0
 17 16  1  0  0  0  0
 18 19  1  0  0  0  0
 19 23  1  0  0  0  0
 20 19  2  0  0  0  0
 20 21  1  0  0  0  0
 21 22  2  0  0  0  0
 22 23  1  0  0  0  0
 22 17  1  0  0  0  0
 26 25  1  0  0  0  0
 26 24  1  0  0  0  0
 27  5  1  0  0  0  0
 27 28  1  0  0  0  0
 29 31  1  0  0  0  0
 30 28  1  0  0  0  0
 30 29  1  0  0  0  0
 32 29  2  0  0  0  0
 34 33  1  1  0  0  0
 34 32  1  0  0  0  0
 35 36  1  0  0  0  0
 35 37  1  0  0  0  0
 36 39  1  1  0  0  0
 36 37  1  0  0  0  0
 37 34  1  6  0  0  0
 38 39  2  0  0  0  0
M  END
>  <MODEL>
1

>  <REMARK>
 VINA RESULT:      -7.9      0.000      0.000
  Name = 
  13 active torsions:
  status: ('A' for Active; 'I' for Inactive)
    1  A    between atoms: C_1  and  C_16
    2  A    between atoms: C_1  and  N_21
    3  A    between atoms: N_2  and  C_5
    4  A    between atoms: C_9  and  C_20
    5  A    between atoms: N_10  and  C_30
    6  A    between atoms: N_10  and  O_35
    7  A    between atoms: N_17  and  C_39
    8  A    between atoms: C_18  and  C_24
    9  A    between atoms: C_18  and  N_29
   10  A    between atoms: N_21  and  C_30
   11  A    between atoms: C_23  and  C_32
   12  A    between atoms: C_28  and  C_30
   13  A    between atoms: C_32  and  C_39
                            x       y       z     vdW  Elec       q    Type
                         _______ _______ _______ _____ _____    ______ ____

>  <TORSDO>
F 13

$$$$
=
 OpenBabel10232412443D

 39 42  0  0  1  0  0  0  0  0999 V2000
  189.5550  177.1660  143.7270 N   0  0  0  0  0  0  0  0  0  0  0  0
  188.1180  177.3540  143.4800 C   0  0  2  0  0  3  0  0  0  0  0  0
  187.4700  176.1380  143.6030 F   0  0  0  0  0  0  0  0  0  0  0  0
  190.0570  177.1950  141.3700 C   0  0  0  0  0  0  0  0  0  0  0  0
  187.8440  177.9380  142.1100 C   0  0  0  0  0  0  0  0  0  0  0  0
  188.7410  177.8060  141.1310 C   0  0  0  0  0  3  0  0  0  0  0  0
  190.4400  176.9220  142.6210 C   0  0  0  0  0  3  0  0  0  0  0  0
  190.0530  177.0860  145.0770 C   0  0  0  0  0  0  0  0  0  0  0  0
  191.4090  176.8280  145.3310 C   0  0  0  0  0  3  0  0  0  0  0  0
  191.0410  176.9030  147.6760 C   0  0  0  0  0  3  0  0  0  0  0  0
  189.1930  177.2500  146.1740 C   0  0  0  0  0  3  0  0  0  0  0  0
  191.8680  176.7450  146.6090 N   0  0  0  0  0  0  0  0  0  0  0  0
  189.6840  177.1600  147.4770 C   0  0  0  0  0  3  0  0  0  0  0  0
  190.9790  176.9730  140.2100 C   0  0  2  0  0  3  0  0  0  0  0  0
  192.3550  177.5420  140.5020 C   0  0  0  0  0  1  0  0  0  0  0  0
  190.4430  177.5760  138.9970 N   0  0  0  0  0  2  0  0  0  0  0  0
  190.2210  176.5050  138.0380 C   0  0  2  0  0  3  0  0  0  0  0  0
  194.8050  175.6490  136.6590 N   0  0  0  0  0  1  0  0  0  0  0  0
  193.4730  175.4720  137.1270 C   0  0  0  0  0  0  0  0  0  0  0  0
  192.9650  174.2770  137.4710 N   0  0  0  0  0  0  0  0  0  0  0  0
  191.7190  174.5030  137.8510 N   0  0  0  0  0  0  0  0  0  0  0  0
  191.5150  175.8300  137.7260 C   0  0  0  0  0  0  0  0  0  0  0  0
  192.5980  176.4850  137.2670 N   0  0  0  0  0  2  0  0  0  0  0  0
  189.6390  177.0450  136.8180 N   0  0  0  0  0  2  0  0  0  0  0  0
  188.0280  178.5050  136.7340 C   0  0  0  0  0  1  0  0  0  0  0  0
  189.3770  178.3540  137.0490 O   0  0  0  0  0  0  0  0  0  0  0  0
  186.5490  178.6250  141.7770 C   0  0  0  0  0  2  0  0  0  0  0  0
  185.5040  178.5590  142.8860 C   0  0  0  0  0  2  0  0  0  0  0  0
  182.9870  178.8410  143.1300 C   0  0  0  0  0  0  0  0  0  0  0  0
  184.1640  178.6640  142.3280 N   0  0  0  0  0  2  0  0  0  0  0  0
  183.0730  178.8330  144.6180 C   0  0  0  0  0  1  0  0  0  0  0  0
  181.8260  178.9960  142.5740 N   0  0  0  0  0  0  0  0  0  0  0  0
  180.5890  179.9050  140.8060 O   0  0  0  0  0  1  0  0  0  0  0  0
  181.6220  179.0230  141.1250 C   0  0  2  0  0  3  0  0  0  0  0  0
  181.0000  177.7170  139.1640 O   0  0  0  0  0  0  0  0  0  0  0  0
  182.2970  177.2620  139.4770 C   0  0  1  0  0  3  0  0  0  0  0  0
  181.3250  177.6380  140.5320 C   0  0  1  0  0  3  0  0  0  0  0  0
  182.0250  175.2310  138.2270 N   0  0  0  0  0  2  0  0  0  0  0  0
  182.3390  175.7800  139.3400 C   0  0  0  0  0  3  0  0  0  0  0  0
  1  8  1  0  0  0  0
  2  3  1  6  0  0  0
  2  1  1  0  0  0  0
  4  7  2  0  0  0  0
  5  2  1  0  0  0  0
  6  4  1  0  0  0  0
  6  5  2  0  0  0  0
  7  1  1  0  0  0  0
  8  9  2  0  0  0  0
  8 11  1  0  0  0  0
  9 12  1  0  0  0  0
 11 13  2  0  0  0  0
 12 10  2  0  0  0  0
 13 10  1  0  0  0  0
 14 15  1  1  0  0  0
 14  4  1  0  0  0  0
 16 14  1  0  0  0  0
 17 24  1  6  0  0  0
 17 16  1  0  0  0  0
 18 19  1  0  0  0  0
 19 23  1  0  0  0  0
 19 20  2  0  0  0  0
 20 21  1  0  0  0  0
 22 21  2  0  0  0  0
 22 17  1  0  0  0  0
 23 22  1  0  0  0  0
 24 26  1  0  0  0  0
 25 26  1  0  0  0  0
 27  5  1  0  0  0  0
 27 28  1  0  0  0  0
 29 31  1  0  0  0  0
 30 28  1  0  0  0  0
 30 29  1  0  0  0  0
 32 29  2  0  0  0  0
 34 33  1  1  0  0  0
 34 32  1  0  0  0  0
 35 36  1  0  0  0  0
 35 37  1  0  0  0  0
 36 39  1  1  0  0  0
 36 37  1  0  0  0  0
 37 34  1  6  0  0  0
 38 39  2  0  0  0  0
M  END
>  <MODEL>
2

>  <REMARK>
 VINA RESULT:      -7.6      1.364      2.730
  Name = 
  13 active torsions:
  status: ('A' for Active; 'I' for Inactive)
    1  A    between atoms: C_1  and  C_16
    2  A    between atoms: C_1  and  N_21
    3  A    between atoms: N_2  and  C_5
    4  A    between atoms: C_9  and  C_20
    5  A    between atoms: N_10  and  C_30
    6  A    between atoms: N_10  and  O_35
    7  A    between atoms: N_17  and  C_39
    8  A    between atoms: C_18  and  C_24
    9  A    between atoms: C_18  and  N_29
   10  A    between atoms: N_21  and  C_30
   11  A    between atoms: C_23  and  C_32
   12  A    between atoms: C_28  and  C_30
   13  A    between atoms: C_32  and  C_39
                            x       y       z     vdW  Elec       q    Type
                         _______ _______ _______ _____ _____    ______ ____

>  <TORSDO>
F 13

$$$$
=
 OpenBabel10232412443D

 39 42  0  0  1  0  0  0  0  0999 V2000
  184.4770  178.6100  143.1860 N   0  0  0  0  0  0  0  0  0  0  0  0
  184.8090  179.1850  144.4980 C   0  0  2  0  0  3  0  0  0  0  0  0
  185.0430  180.5410  144.3560 F   0  0  0  0  0  0  0  0  0  0  0  0
  186.7000  177.7200  142.9110 C   0  0  0  0  0  0  0  0  0  0  0  0
  186.0210  178.5250  145.1220 C   0  0  0  0  0  0  0  0  0  0  0  0
  186.9120  177.8940  144.3560 C   0  0  0  0  0  3  0  0  0  0  0  0
  185.5190  178.0420  142.3750 C   0  0  0  0  0  3  0  0  0  0  0  0
  183.1440  178.7400  142.6560 C   0  0  0  0  0  0  0  0  0  0  0  0
  182.8900  178.5510  141.2880 C   0  0  0  0  0  3  0  0  0  0  0  0
  180.5810  179.0070  141.5970 C   0  0  0  0  0  3  0  0  0  0  0  0
  182.0650  179.0730  143.4890 C   0  0  0  0  0  3  0  0  0  0  0  0
  181.6300  178.6850  140.7940 N   0  0  0  0  0  0  0  0  0  0  0  0
  180.7800  179.2070  142.9630 C   0  0  0  0  0  3  0  0  0  0  0  0
  187.7860  177.1010  142.0840 C   0  0  2  0  0  3  0  0  0  0  0  0
  188.6500  176.1860  142.9320 C   0  0  0  0  0  1  0  0  0  0  0  0
  188.6130  178.1260  141.4630 N   0  0  0  0  0  2  0  0  0  0  0  0
  188.7930  177.7550  140.0670 C   0  0  2  0  0  3  0  0  0  0  0  0
  192.9490  176.4150  137.9250 N   0  0  0  0  0  1  0  0  0  0  0  0
  192.0020  176.8710  138.8840 C   0  0  0  0  0  0  0  0  0  0  0  0
  192.3300  177.2070  140.1430 N   0  0  0  0  0  0  0  0  0  0  0  0
  191.2050  177.5750  140.7300 N   0  0  0  0  0  0  0  0  0  0  0  0
  190.2310  177.4530  139.8060 C   0  0  0  0  0  0  0  0  0  0  0  0
  190.6890  177.0070  138.6200 N   0  0  0  0  0  2  0  0  0  0  0  0
  188.3510  178.8410  139.2050 N   0  0  0  0  0  2  0  0  0  0  0  0
  186.3030  178.3360  138.6710 C   0  0  0  0  0  1  0  0  0  0  0  0
  187.6180  178.2850  138.2110 O   0  0  0  0  0  0  0  0  0  0  0  0
  186.3040  178.6020  146.5960 C   0  0  0  0  0  2  0  0  0  0  0  0
  186.6690  177.2640  147.2320 C   0  0  0  0  0  2  0  0  0  0  0  0
  189.0600  177.5940  148.0380 C   0  0  0  0  0  0  0  0  0  0  0  0
  188.1030  177.0290  147.1320 N   0  0  0  0  0  2  0  0  0  0  0  0
  188.6310  178.5500  149.0990 C   0  0  0  0  0  1  0  0  0  0  0  0
  190.3180  177.2960  147.9420 N   0  0  0  0  0  0  0  0  0  0  0  0
  191.5860  175.3620  147.5730 O   0  0  0  0  0  1  0  0  0  0  0  0
  190.8530  176.3680  146.9440 C   0  0  2  0  0  3  0  0  0  0  0  0
  191.6360  176.4140  144.6370 O   0  0  0  0  0  0  0  0  0  0  0  0
  190.9150  177.6170  144.7740 C   0  0  1  0  0  3  0  0  0  0  0  0
  191.7240  177.0600  145.8850 C   0  0  1  0  0  3  0  0  0  0  0  0
  191.0680  179.7980  143.7830 N   0  0  0  0  0  2  0  0  0  0  0  0
  191.6680  178.7140  144.1070 C   0  0  0  0  0  3  0  0  0  0  0  0
  1  2  1  0  0  0  0
  2  3  1  6  0  0  0
  2  5  1  0  0  0  0
  4  6  1  0  0  0  0
  5 27  1  0  0  0  0
  6  5  2  0  0  0  0
  7  4  2  0  0  0  0
  7  1  1  0  0  0  0
  8  1  1  0  0  0  0
  8 11  1  0  0  0  0
  9  8  2  0  0  0  0
 10 13  1  0  0  0  0
 12  9  1  0  0  0  0
 12 10  2  0  0  0  0
 13 11  2  0  0  0  0
 14  4  1  0  0  0  0
 14 15  1  1  0  0  0
 16 14  1  0  0  0  0
 17 24  1  6  0  0  0
 17 16  1  0  0  0  0
 18 19  1  0  0  0  0
 19 20  2  0  0  0  0
 20 21  1  0  0  0  0
 22 17  1  0  0  0  0
 22 21  2  0  0  0  0
 23 19  1  0  0  0  0
 23 22  1  0  0  0  0
 26 25  1  0  0  0  0
 26 24  1  0  0  0  0
 27 28  1  0  0  0  0
 29 31  1  0  0  0  0
 30 28  1  0  0  0  0
 30 29  1  0  0  0  0
 32 29  2  0  0  0  0
 34 33  1  1  0  0  0
 34 32  1  0  0  0  0
 35 36  1  0  0  0  0
 35 37  1  0  0  0  0
 36 39  1  6  0  0  0
 36 37  1  0  0  0  0
 37 34  1  1  0  0  0
 38 39  2  0  0  0  0
M  END
>  <MODEL>
3

>  <REMARK>
 VINA RESULT:      -7.6      2.955      7.726
  Name = 
  13 active torsions:
  status: ('A' for Active; 'I' for Inactive)
    1  A    between atoms: C_1  and  C_16
    2  A    between atoms: C_1  and  N_21
    3  A    between atoms: N_2  and  C_5
    4  A    between atoms: C_9  and  C_20
    5  A    between atoms: N_10  and  C_30
    6  A    between atoms: N_10  and  O_35
    7  A    between atoms: N_17  and  C_39
    8  A    between atoms: C_18  and  C_24
    9  A    between atoms: C_18  and  N_29
   10  A    between atoms: N_21  and  C_30
   11  A    between atoms: C_23  and  C_32
   12  A    between atoms: C_28  and  C_30
   13  A    between atoms: C_32  and  C_39
                            x       y       z     vdW  Elec       q    Type
                         _______ _______ _______ _____ _____    ______ ____

>  <TORSDO>
F 13

$$$$
=
 OpenBabel10232412443D

 39 42  0  0  1  0  0  0  0  0999 V2000
  189.5530  177.0540  139.6480 N   0  0  0  0  0  0  0  0  0  0  0  0
  188.5200  178.1000  139.6690 C   0  0  2  0  0  3  0  0  0  0  0  0
  189.0380  179.2650  139.1320 F   0  0  0  0  0  0  0  0  0  0  0  0
  190.0400  177.3590  141.9880 C   0  0  0  0  0  0  0  0  0  0  0  0
  188.0080  178.3710  141.0690 C   0  0  0  0  0  0  0  0  0  0  0  0
  188.7570  178.0640  142.1300 C   0  0  0  0  0  3  0  0  0  0  0  0
  190.3900  176.8590  140.8000 C   0  0  0  0  0  3  0  0  0  0  0  0
  189.8190  176.3250  138.4340 C   0  0  0  0  0  0  0  0  0  0  0  0
  188.8320  176.1890  137.4440 C   0  0  0  0  0  3  0  0  0  0  0  0
  190.2930  174.9010  136.0860 C   0  0  0  0  0  3  0  0  0  0  0  0
  191.0650  175.7180  138.2140 C   0  0  0  0  0  3  0  0  0  0  0  0
  189.0870  175.4900  136.3060 N   0  0  0  0  0  0  0  0  0  0  0  0
  191.3060  175.0060  137.0390 C   0  0  0  0  0  3  0  0  0  0  0  0
  190.8880  177.1380  143.2040 C   0  0  2  0  0  3  0  0  0  0  0  0
  190.9520  175.6630  143.5530 C   0  0  0  0  0  1  0  0  0  0  0  0
  190.3740  177.8930  144.3390 N   0  0  0  0  0  2  0  0  0  0  0  0
  190.3830  177.0060  145.4930 C   0  0  2  0  0  3  0  0  0  0  0  0
  186.0020  178.4450  147.0350 N   0  0  0  0  0  1  0  0  0  0  0  0
  187.3150  177.8990  146.9970 C   0  0  0  0  0  0  0  0  0  0  0  0
  187.9230  177.3630  148.0680 N   0  0  0  0  0  0  0  0  0  0  0  0
  189.1140  176.9660  147.6550 N   0  0  0  0  0  0  0  0  0  0  0  0
  189.1870  177.2720  146.3440 C   0  0  0  0  0  0  0  0  0  0  0  0
  188.0700  177.8680  145.8830 N   0  0  0  0  0  2  0  0  0  0  0  0
  191.5980  177.2130  146.2680 N   0  0  0  0  0  2  0  0  0  0  0  0
  192.3720  175.8270  147.7550 C   0  0  0  0  0  1  0  0  0  0  0  0
  192.2060  176.0090  146.3830 O   0  0  0  0  0  0  0  0  0  0  0  0
  186.6880  179.0430  141.3230 C   0  0  0  0  0  2  0  0  0  0  0  0
  185.7800  178.2890  142.2900 C   0  0  0  0  0  2  0  0  0  0  0  0
  183.3420  178.7320  142.8650 C   0  0  0  0  0  0  0  0  0  0  0  0
  184.3840  178.4640  141.9170 N   0  0  0  0  0  2  0  0  0  0  0  0
  183.6310  178.7530  144.3280 C   0  0  0  0  0  1  0  0  0  0  0  0
  182.1260  178.9470  142.4690 N   0  0  0  0  0  0  0  0  0  0  0  0
  180.6270  179.7960  140.8830 O   0  0  0  0  0  1  0  0  0  0  0  0
  181.7260  178.9550  141.0610 C   0  0  2  0  0  3  0  0  0  0  0  0
  180.8640  177.6130  139.2190 O   0  0  0  0  0  0  0  0  0  0  0  0
  182.2130  177.2180  139.3240 C   0  0  1  0  0  3  0  0  0  0  0  0
  181.4030  177.5550  140.5190 C   0  0  1  0  0  3  0  0  0  0  0  0
  182.2720  175.2070  138.0140 N   0  0  0  0  0  2  0  0  0  0  0  0
  182.3000  175.7390  139.1790 C   0  0  0  0  0  3  0  0  0  0  0  0
  1  2  1  0  0  0  0
  1  7  1  0  0  0  0
  2  3  1  1  0  0  0
  2  5  1  0  0  0  0
  4  6  1  0  0  0  0
  4 14  1  0  0  0  0
  5 27  1  0  0  0  0
  5  6  2  0  0  0  0
  7  4  2  0  0  0  0
  8  1  1  0  0  0  0
  9  8  2  0  0  0  0
 10 12  2  0  0  0  0
 10 13  1  0  0  0  0
 11  8  1  0  0  0  0
 12  9  1  0  0  0  0
 13 11  2  0  0  0  0
 14 15  1  1  0  0  0
 14 16  1  0  0  0  0
 17 16  1  6  0  0  0
 17 24  1  0  0  0  0
 17 22  1  0  0  0  0
 19 18  1  0  0  0  0
 19 20  2  0  0  0  0
 21 20  1  0  0  0  0
 22 21  2  0  0  0  0
 23 22  1  0  0  0  0
 23 19  1  0  0  0  0
 24 26  1  0  0  0  0
 26 25  1  0  0  0  0
 27 28  1  0  0  0  0
 29 31  1  0  0  0  0
 30 28  1  0  0  0  0
 30 29  1  0  0  0  0
 32 29  2  0  0  0  0
 34 33  1  1  0  0  0
 34 32  1  0  0  0  0
 35 36  1  0  0  0  0
 35 37  1  0  0  0  0
 36 39  1  1  0  0  0
 36 37  1  0  0  0  0
 37 34  1  6  0  0  0
 38 39  2  0  0  0  0
M  END
>  <MODEL>
4

>  <REMARK>
 VINA RESULT:      -7.5      2.328      6.317
  Name = 
  13 active torsions:
  status: ('A' for Active; 'I' for Inactive)
    1  A    between atoms: C_1  and  C_16
    2  A    between atoms: C_1  and  N_21
    3  A    between atoms: N_2  and  C_5
    4  A    between atoms: C_9  and  C_20
    5  A    between atoms: N_10  and  C_30
    6  A    between atoms: N_10  and  O_35
    7  A    between atoms: N_17  and  C_39
    8  A    between atoms: C_18  and  C_24
    9  A    between atoms: C_18  and  N_29
   10  A    between atoms: N_21  and  C_30
   11  A    between atoms: C_23  and  C_32
   12  A    between atoms: C_28  and  C_30
   13  A    between atoms: C_32  and  C_39
                            x       y       z     vdW  Elec       q    Type
                         _______ _______ _______ _____ _____    ______ ____

>  <TORSDO>
F 13

$$$$
=
 OpenBabel10232412443D

 39 42  0  0  1  0  0  0  0  0999 V2000
  187.2160  177.8950  141.9020 N   0  0  0  0  0  0  0  0  0  0  0  0
  187.3680  177.6290  143.3400 C   0  0  2  0  0  3  0  0  0  0  0  0
  187.3500  176.2620  143.5560 F   0  0  0  0  0  0  0  0  0  0  0  0
  184.8830  178.4420  142.1560 C   0  0  0  0  0  0  0  0  0  0  0  0
  186.2790  178.2860  144.1620 C   0  0  0  0  0  0  0  0  0  0  0  0
  185.1130  178.6070  143.5990 C   0  0  0  0  0  3  0  0  0  0  0  0
  185.9060  178.1280  141.3570 C   0  0  0  0  0  3  0  0  0  0  0  0
  188.3520  177.7850  141.0220 C   0  0  0  0  0  0  0  0  0  0  0  0
  188.3460  178.3960  139.7580 C   0  0  0  0  0  3  0  0  0  0  0  0
  190.5230  177.5700  139.2890 C   0  0  0  0  0  3  0  0  0  0  0  0
  189.4880  177.0520  141.3980 C   0  0  0  0  0  3  0  0  0  0  0  0
  189.4190  178.2780  138.9300 N   0  0  0  0  0  0  0  0  0  0  0  0
  190.5770  176.9430  140.5330 C   0  0  0  0  0  3  0  0  0  0  0  0
  183.5190  178.7150  141.6000 C   0  0  2  0  0  3  0  0  0  0  0  0
  182.5060  178.8790  142.7180 C   0  0  0  0  0  1  0  0  0  0  0  0
  183.0980  177.6440  140.7060 N   0  0  0  0  0  2  0  0  0  0  0  0
  182.9210  178.2240  139.3830 C   0  0  2  0  0  3  0  0  0  0  0  0
  186.6200  177.1870  136.4020 N   0  0  0  0  0  1  0  0  0  0  0  0
  185.4000  177.1070  137.1290 C   0  0  0  0  0  0  0  0  0  0  0  0
  184.5470  176.0750  137.0260 N   0  0  0  0  0  0  0  0  0  0  0  0
  183.5390  176.3480  137.8370 N   0  0  0  0  0  0  0  0  0  0  0  0
  183.8180  177.5380  138.4070 C   0  0  0  0  0  0  0  0  0  0  0  0
  184.9870  178.0590  137.9860 N   0  0  0  0  0  2  0  0  0  0  0  0
  183.2260  179.6460  139.4200 N   0  0  0  0  0  2  0  0  0  0  0  0
  181.1420  180.1680  139.0780 C   0  0  0  0  0  1  0  0  0  0  0  0
  182.4160  180.2490  138.5180 O   0  0  0  0  0  0  0  0  0  0  0  0
  186.4340  178.5440  145.6350 C   0  0  0  0  0  2  0  0  0  0  0  0
  186.6590  177.2870  146.4690 C   0  0  0  0  0  2  0  0  0  0  0  0
  188.8700  177.5210  147.7040 C   0  0  0  0  0  0  0  0  0  0  0  0
  188.0830  177.0220  146.6140 N   0  0  0  0  0  2  0  0  0  0  0  0
  188.2720  178.4360  148.7180 C   0  0  0  0  0  1  0  0  0  0  0  0
  190.1210  177.1970  147.8200 N   0  0  0  0  0  0  0  0  0  0  0  0
  191.5930  175.3900  147.5950 O   0  0  0  0  0  1  0  0  0  0  0  0
  190.8110  176.3050  146.8880 C   0  0  2  0  0  3  0  0  0  0  0  0
  191.9300  176.2760  144.7240 O   0  0  0  0  0  0  0  0  0  0  0  0
  190.9680  177.2980  144.5940 C   0  0  1  0  0  3  0  0  0  0  0  0
  191.6830  177.0550  145.8700 C   0  0  1  0  0  3  0  0  0  0  0  0
  191.0640  179.6230  144.0050 N   0  0  0  0  0  2  0  0  0  0  0  0
  191.5820  178.4570  143.8900 C   0  0  0  0  0  3  0  0  0  0  0  0
  1  2  1  0  0  0  0
  2  3  1  6  0  0  0
  2  5  1  0  0  0  0
  4  6  1  0  0  0  0
  5 27  1  0  0  0  0
  6  5  2  0  0  0  0
  7  1  1  0  0  0  0
  7  4  2  0  0  0  0
  8 11  1  0  0  0  0
  8  1  1  0  0  0  0
  9  8  2  0  0  0  0
 10 13  1  0  0  0  0
 12 10  2  0  0  0  0
 12  9  1  0  0  0  0
 13 11  2  0  0  0  0
 14  4  1  0  0  0  0
 14 15  1  1  0  0  0
 16 14  1  0  0  0  0
 17 24  1  1  0  0  0
 17 16  1  0  0  0  0
 18 19  1  0  0  0  0
 19 23  1  0  0  0  0
 20 19  2  0  0  0  0
 20 21  1  0  0  0  0
 21 22  2  0  0  0  0
 22 17  1  0  0  0  0
 23 22  1  0  0  0  0
 26 25  1  0  0  0  0
 26 24  1  0  0  0  0
 27 28  1  0  0  0  0
 28 30  1  0  0  0  0
 29 32  2  0  0  0  0
 29 31  1  0  0  0  0
 30 29  1  0  0  0  0
 34 33  1  1  0  0  0
 34 32  1  0  0  0  0
 35 37  1  0  0  0  0
 36 39  1  6  0  0  0
 36 35  1  0  0  0  0
 36 37  1  0  0  0  0
 37 34  1  1  0  0  0
 39 38  2  0  0  0  0
M  END
>  <MODEL>
5

>  <REMARK>
 VINA RESULT:      -7.5      2.672      7.601
  Name = 
  13 active torsions:
  status: ('A' for Active; 'I' for Inactive)
    1  A    between atoms: C_1  and  C_16
    2  A    between atoms: C_1  and  N_21
    3  A    between atoms: N_2  and  C_5
    4  A    between atoms: C_9  and  C_20
    5  A    between atoms: N_10  and  C_30
    6  A    between atoms: N_10  and  O_35
    7  A    between atoms: N_17  and  C_39
    8  A    between atoms: C_18  and  C_24
    9  A    between atoms: C_18  and  N_29
   10  A    between atoms: N_21  and  C_30
   11  A    between atoms: C_23  and  C_32
   12  A    between atoms: C_28  and  C_30
   13  A    between atoms: C_32  and  C_39
                            x       y       z     vdW  Elec       q    Type
                         _______ _______ _______ _____ _____    ______ ____

>  <TORSDO>
F 13

$$$$
=
 OpenBabel10232412443D

 39 42  0  0  1  0  0  0  0  0999 V2000
  187.0170  177.9320  142.2100 N   0  0  0  0  0  0  0  0  0  0  0  0
  187.2630  177.6690  143.6360 C   0  0  2  0  0  3  0  0  0  0  0  0
  187.2610  176.3030  143.8560 F   0  0  0  0  0  0  0  0  0  0  0  0
  184.7040  178.4760  142.6170 C   0  0  0  0  0  0  0  0  0  0  0  0
  186.2300  178.3270  144.5270 C   0  0  0  0  0  0  0  0  0  0  0  0
  185.0280  178.6450  144.0410 C   0  0  0  0  0  3  0  0  0  0  0  0
  185.6740  178.1620  141.7520 C   0  0  0  0  0  3  0  0  0  0  0  0
  188.0920  177.8220  141.2580 C   0  0  0  0  0  0  0  0  0  0  0  0
  189.2570  177.1020  141.5680 C   0  0  0  0  0  3  0  0  0  0  0  0
  190.2000  177.6090  139.4480 C   0  0  0  0  0  3  0  0  0  0  0  0
  188.0110  178.4420  140.0020 C   0  0  0  0  0  3  0  0  0  0  0  0
  190.2720  177.0110  140.6670 N   0  0  0  0  0  0  0  0  0  0  0  0
  189.0640  178.3370  139.0930 C   0  0  0  0  0  3  0  0  0  0  0  0
  183.3060  178.7460  142.1500 C   0  0  2  0  0  3  0  0  0  0  0  0
  182.3580  178.8550  143.3310 C   0  0  0  0  0  1  0  0  0  0  0  0
  182.8490  177.6990  141.2460 N   0  0  0  0  0  2  0  0  0  0  0  0
  181.7260  178.2340  140.4900 C   0  0  2  0  0  3  0  0  0  0  0  0
  181.1810  174.1330  137.9340 N   0  0  0  0  0  1  0  0  0  0  0  0
  180.9860  175.4410  138.4600 C   0  0  0  0  0  0  0  0  0  0  0  0
  179.9820  176.2480  138.0760 N   0  0  0  0  0  0  0  0  0  0  0  0
  180.1220  177.3640  138.7700 N   0  0  0  0  0  0  0  0  0  0  0  0
  181.2050  177.1950  139.5540 C   0  0  0  0  0  0  0  0  0  0  0  0
  181.7880  175.9910  139.3900 N   0  0  0  0  0  2  0  0  0  0  0  0
  182.1470  179.4080  139.7410 N   0  0  0  0  0  2  0  0  0  0  0  0
  184.0570  179.8870  138.8160 C   0  0  0  0  0  1  0  0  0  0  0  0
  182.9990  178.9800  138.7790 O   0  0  0  0  0  0  0  0  0  0  0  0
  186.4800  178.5890  145.9850 C   0  0  0  0  0  2  0  0  0  0  0  0
  186.7440  177.3320  146.8090 C   0  0  0  0  0  2  0  0  0  0  0  0
  189.0490  177.5300  147.8670 C   0  0  0  0  0  0  0  0  0  0  0  0
  188.1690  177.0390  146.8460 N   0  0  0  0  0  2  0  0  0  0  0  0
  188.5490  178.4650  148.9160 C   0  0  0  0  0  1  0  0  0  0  0  0
  190.2970  177.1810  147.8890 N   0  0  0  0  0  0  0  0  0  0  0  0
  191.6830  175.3210  147.5700 O   0  0  0  0  0  1  0  0  0  0  0  0
  190.8960  176.2680  146.9140 C   0  0  2  0  0  3  0  0  0  0  0  0
  191.7890  176.2560  144.6470 O   0  0  0  0  0  0  0  0  0  0  0  0
  190.9230  177.3690  144.6650 C   0  0  1  0  0  3  0  0  0  0  0  0
  191.7330  176.9900  145.8480 C   0  0  1  0  0  3  0  0  0  0  0  0
  191.0210  179.6590  143.9510 N   0  0  0  0  0  2  0  0  0  0  0  0
  191.5750  178.5040  143.9550 C   0  0  0  0  0  3  0  0  0  0  0  0
  1  2  1  0  0  0  0
  2  3  1  6  0  0  0
  2  5  1  0  0  0  0
  4  6  1  0  0  0  0
  5 27  1  0  0  0  0
  6  5  2  0  0  0  0
  7  1  1  0  0  0  0
  7  4  2  0  0  0  0
  8  9  1  0  0  0  0
  8  1  1  0  0  0  0
 10 12  1  0  0  0  0
 11  8  2  0  0  0  0
 12  9  2  0  0  0  0
 13 10  2  0  0  0  0
 13 11  1  0  0  0  0
 14  4  1  0  0  0  0
 14 15  1  1  0  0  0
 16 14  1  0  0  0  0
 17 24  1  6  0  0  0
 17 16  1  0  0  0  0
 18 19  1  0  0  0  0
 19 23  1  0  0  0  0
 20 19  2  0  0  0  0
 20 21  1  0  0  0  0
 21 22  2  0  0  0  0
 22 17  1  0  0  0  0
 23 22  1  0  0  0  0
 26 25  1  0  0  0  0
 26 24  1  0  0  0  0
 27 28  1  0  0  0  0
 28 30  1  0  0  0  0
 29 32  2  0  0  0  0
 29 31  1  0  0  0  0
 30 29  1  0  0  0  0
 34 33  1  1  0  0  0
 34 32  1  0  0  0  0
 35 36  1  0  0  0  0
 35 37  1  0  0  0  0
 36 39  1  6  0  0  0
 36 37  1  0  0  0  0
 37 34  1  1  0  0  0
 38 39  2  0  0  0  0
M  END
>  <MODEL>
6

>  <REMARK>
 VINA RESULT:      -7.2      2.815      7.946
  Name = 
  13 active torsions:
  status: ('A' for Active; 'I' for Inactive)
    1  A    between atoms: C_1  and  C_16
    2  A    between atoms: C_1  and  N_21
    3  A    between atoms: N_2  and  C_5
    4  A    between atoms: C_9  and  C_20
    5  A    between atoms: N_10  and  C_30
    6  A    between atoms: N_10  and  O_35
    7  A    between atoms: N_17  and  C_39
    8  A    between atoms: C_18  and  C_24
    9  A    between atoms: C_18  and  N_29
   10  A    between atoms: N_21  and  C_30
   11  A    between atoms: C_23  and  C_32
   12  A    between atoms: C_28  and  C_30
   13  A    between atoms: C_32  and  C_39
                            x       y       z     vdW  Elec       q    Type
                         _______ _______ _______ _____ _____    ______ ____

>  <TORSDO>
F 13

$$$$
=
 OpenBabel10232412443D

 39 42  0  0  1  0  0  0  0  0999 V2000
  189.7360  177.6220  143.7130 N   0  0  0  0  0  0  0  0  0  0  0  0
  190.9040  177.7920  142.8360 C   0  0  2  0  0  3  0  0  0  0  0  0
  191.4240  179.0630  143.0090 F   0  0  0  0  0  0  0  0  0  0  0  0
  188.2000  177.9870  141.8920 C   0  0  0  0  0  0  0  0  0  0  0  0
  190.5590  177.5800  141.3770 C   0  0  0  0  0  0  0  0  0  0  0  0
  189.3020  177.7280  140.9540 C   0  0  0  0  0  3  0  0  0  0  0  0
  188.4200  177.9050  143.2080 C   0  0  0  0  0  3  0  0  0  0  0  0
  189.9190  177.3100  145.1080 C   0  0  0  0  0  0  0  0  0  0  0  0
  191.1810  176.9510  145.6070 C   0  0  0  0  0  3  0  0  0  0  0  0
  190.3000  176.6790  147.7950 C   0  0  0  0  0  3  0  0  0  0  0  0
  188.8380  177.3430  146.0030 C   0  0  0  0  0  3  0  0  0  0  0  0
  191.3430  176.6480  146.9230 N   0  0  0  0  0  0  0  0  0  0  0  0
  189.0260  177.0290  147.3490 C   0  0  0  0  0  3  0  0  0  0  0  0
  186.8290  178.2530  141.3500 C   0  0  2  0  0  3  0  0  0  0  0  0
  186.8710  178.4160  139.8420 C   0  0  0  0  0  1  0  0  0  0  0  0
  186.2510  179.4430  141.9600 N   0  0  0  0  0  2  0  0  0  0  0  0
  184.8510  179.1570  142.2360 C   0  0  2  0  0  3  0  0  0  0  0  0
  185.5470  178.7280  147.0290 N   0  0  0  0  0  1  0  0  0  0  0  0
  184.9350  178.9050  145.7570 C   0  0  0  0  0  0  0  0  0  0  0  0
  183.6150  179.0990  145.5950 N   0  0  0  0  0  0  0  0  0  0  0  0
  183.4190  179.2200  144.2940 N   0  0  0  0  0  0  0  0  0  0  0  0
  184.6280  179.0980  143.7100 C   0  0  0  0  0  0  0  0  0  0  0  0
  185.6190  178.8940  144.5990 N   0  0  0  0  0  2  0  0  0  0  0  0
  184.4750  177.8900  141.6280 N   0  0  0  0  0  2  0  0  0  0  0  0
  183.2530  178.5310  139.9460 C   0  0  0  0  0  1  0  0  0  0  0  0
  183.1840  178.0050  141.2350 O   0  0  0  0  0  0  0  0  0  0  0  0
  191.6050  177.2620  140.3450 C   0  0  0  0  0  2  0  0  0  0  0  0
  191.0430  176.7260  139.0310 C   0  0  0  0  0  2  0  0  0  0  0  0
  191.8960  176.0570  136.7300 C   0  0  0  0  0  0  0  0  0  0  0  0
  192.1190  176.4800  138.0820 N   0  0  0  0  0  2  0  0  0  0  0  0
  190.5190  175.7510  136.2460 C   0  0  0  0  0  1  0  0  0  0  0  0
  192.8890  175.9180  135.9080 N   0  0  0  0  0  0  0  0  0  0  0  0
  194.8470  177.0770  135.3500 O   0  0  0  0  0  1  0  0  0  0  0  0
  194.2800  176.1940  136.2700 C   0  0  2  0  0  3  0  0  0  0  0  0
  196.4520  175.2160  136.7860 O   0  0  0  0  0  0  0  0  0  0  0  0
  195.5920  174.6620  137.7560 C   0  0  1  0  0  3  0  0  0  0  0  0
  195.1390  174.9240  136.3680 C   0  0  1  0  0  3  0  0  0  0  0  0
  195.3450  172.5380  138.8460 N   0  0  0  0  0  2  0  0  0  0  0  0
  195.9060  173.2150  137.9150 C   0  0  0  0  0  3  0  0  0  0  0  0
  1  8  1  0  0  0  0
  2  3  1  6  0  0  0
  2  1  1  0  0  0  0
  4  7  2  0  0  0  0
  5  2  1  0  0  0  0
  6  5  2  0  0  0  0
  6  4  1  0  0  0  0
  7  1  1  0  0  0  0
  8  9  2  0  0  0  0
  8 11  1  0  0  0  0
  9 12  1  0  0  0  0
 11 13  2  0  0  0  0
 12 10  2  0  0  0  0
 13 10  1  0  0  0  0
 14 15  1  6  0  0  0
 14  4  1  0  0  0  0
 14 16  1  0  0  0  0
 16 17  1  0  0  0  0
 17 24  1  6  0  0  0
 17 22  1  0  0  0  0
 19 18  1  0  0  0  0
 20 19  2  0  0  0  0
 21 20  1  0  0  0  0
 22 21  2  0  0  0  0
 22 23  1  0  0  0  0
 23 19  1  0  0  0  0
 25 26  1  0  0  0  0
 26 24  1  0  0  0  0
 27  5  1  0  0  0  0
 28 27  1  0  0  0  0
 29 30  1  0  0  0  0
 30 28  1  0  0  0  0
 31 29  1  0  0  0  0
 32 34  1  0  0  0  0
 32 29  2  0  0  0  0
 34 33  1  6  0  0  0
 35 36  1  0  0  0  0
 36 39  1  6  0  0  0
 37 34  1  1  0  0  0
 37 35  1  0  0  0  0
 37 36  1  0  0  0  0
 39 38  2  0  0  0  0
M  END
>  <MODEL>
7

>  <REMARK>
 VINA RESULT:      -7.2      2.597      8.685
  Name = 
  13 active torsions:
  status: ('A' for Active; 'I' for Inactive)
    1  A    between atoms: C_1  and  C_16
    2  A    between atoms: C_1  and  N_21
    3  A    between atoms: N_2  and  C_5
    4  A    between atoms: C_9  and  C_20
    5  A    between atoms: N_10  and  C_30
    6  A    between atoms: N_10  and  O_35
    7  A    between atoms: N_17  and  C_39
    8  A    between atoms: C_18  and  C_24
    9  A    between atoms: C_18  and  N_29
   10  A    between atoms: N_21  and  C_30
   11  A    between atoms: C_23  and  C_32
   12  A    between atoms: C_28  and  C_30
   13  A    between atoms: C_32  and  C_39
                            x       y       z     vdW  Elec       q    Type
                         _______ _______ _______ _____ _____    ______ ____

>  <TORSDO>
F 13

$$$$
=
 OpenBabel10232412443D

 39 42  0  0  1  0  0  0  0  0999 V2000
  188.3440  177.9390  144.1730 N   0  0  0  0  0  0  0  0  0  0  0  0
  189.6080  177.7740  143.4380 C   0  0  2  0  0  3  0  0  0  0  0  0
  190.3630  178.9260  143.5620 F   0  0  0  0  0  0  0  0  0  0  0  0
  187.1210  178.3960  142.1470 C   0  0  0  0  0  0  0  0  0  0  0  0
  189.3820  177.4720  141.9710 C   0  0  0  0  0  0  0  0  0  0  0  0
  188.2360  177.8180  141.3820 C   0  0  0  0  0  3  0  0  0  0  0  0
  187.1790  178.4200  143.4820 C   0  0  0  0  0  3  0  0  0  0  0  0
  188.3100  177.7560  145.6010 C   0  0  0  0  0  0  0  0  0  0  0  0
  187.1410  178.0210  146.3330 C   0  0  0  0  0  3  0  0  0  0  0  0
  188.2170  177.4350  148.3670 C   0  0  0  0  0  3  0  0  0  0  0  0
  189.4460  177.3220  146.3020 C   0  0  0  0  0  3  0  0  0  0  0  0
  187.1200  177.8550  147.6830 N   0  0  0  0  0  0  0  0  0  0  0  0
  189.4030  177.1590  147.6860 C   0  0  0  0  0  3  0  0  0  0  0  0
  185.9010  178.8670  141.4150 C   0  0  2  0  0  3  0  0  0  0  0  0
  184.6860  178.0520  141.8180 C   0  0  0  0  0  1  0  0  0  0  0  0
  186.0960  178.7830  139.9740 N   0  0  0  0  0  2  0  0  0  0  0  0
  184.7790  178.7340  139.3570 C   0  0  2  0  0  3  0  0  0  0  0  0
  186.1390  176.4010  135.3120 N   0  0  0  0  0  1  0  0  0  0  0  0
  185.3930  176.8320  136.4450 C   0  0  0  0  0  0  0  0  0  0  0  0
  184.1780  176.3490  136.7550 N   0  0  0  0  0  0  0  0  0  0  0  0
  183.8040  176.9770  137.8560 N   0  0  0  0  0  0  0  0  0  0  0  0
  184.8070  177.8180  138.1790 C   0  0  0  0  0  0  0  0  0  0  0  0
  185.8350  177.7620  137.3110 N   0  0  0  0  0  2  0  0  0  0  0  0
  184.3780  180.0680  138.9360 N   0  0  0  0  0  2  0  0  0  0  0  0
  182.2780  180.3490  138.4430 C   0  0  0  0  0  1  0  0  0  0  0  0
  183.1770  180.3210  139.5080 O   0  0  0  0  0  0  0  0  0  0  0  0
  190.4400  176.8380  141.1120 C   0  0  0  0  0  2  0  0  0  0  0  0
  190.5240  177.4120  139.7010 C   0  0  0  0  0  2  0  0  0  0  0  0
  191.4040  175.8510  137.8950 C   0  0  0  0  0  0  0  0  0  0  0  0
  191.6110  176.7870  138.9620 N   0  0  0  0  0  2  0  0  0  0  0  0
  190.0300  175.3920  137.5420 C   0  0  0  0  0  1  0  0  0  0  0  0
  192.4090  175.3770  137.2260 N   0  0  0  0  0  0  0  0  0  0  0  0
  194.1160  176.9110  136.7620 O   0  0  0  0  0  1  0  0  0  0  0  0
  193.7980  175.7580  137.4810 C   0  0  2  0  0  3  0  0  0  0  0  0
  196.1250  175.0370  137.4100 O   0  0  0  0  0  0  0  0  0  0  0  0
  195.5290  174.1650  138.3430 C   0  0  1  0  0  3  0  0  0  0  0  0
  194.8000  174.6430  137.1430 C   0  0  1  0  0  3  0  0  0  0  0  0
  195.3230  171.7770  138.4650 N   0  0  0  0  0  2  0  0  0  0  0  0
  196.0290  172.7830  138.1070 C   0  0  0  0  0  3  0  0  0  0  0  0
  1  8  1  0  0  0  0
  2  3  1  6  0  0  0
  2  1  1  0  0  0  0
  4  7  2  0  0  0  0
  5  2  1  0  0  0  0
  6  5  2  0  0  0  0
  6  4  1  0  0  0  0
  7  1  1  0  0  0  0
  8 11  2  0  0  0  0
  8  9  1  0  0  0  0
  9 12  2  0  0  0  0
 11 13  1  0  0  0  0
 12 10  1  0  0  0  0
 13 10  2  0  0  0  0
 14 15  1  1  0  0  0
 14  4  1  0  0  0  0
 16 14  1  0  0  0  0
 17 24  1  6  0  0  0
 17 16  1  0  0  0  0
 18 19  1  0  0  0  0
 19 20  2  0  0  0  0
 19 23  1  0  0  0  0
 20 21  1  0  0  0  0
 21 22  2  0  0  0  0
 22 17  1  0  0  0  0
 23 22  1  0  0  0  0
 24 26  1  0  0  0  0
 25 26  1  0  0  0  0
 27  5  1  0  0  0  0
 28 27  1  0  0  0  0
 29 30  1  0  0  0  0
 30 28  1  0  0  0  0
 31 29  1  0  0  0  0
 32 34  1  0  0  0  0
 32 29  2  0  0  0  0
 34 33  1  6  0  0  0
 35 36  1  0  0  0  0
 36 39  1  6  0  0  0
 37 35  1  0  0  0  0
 37 34  1  1  0  0  0
 37 36  1  0  0  0  0
 39 38  2  0  0  0  0
M  END
>  <MODEL>
8

>  <REMARK>
 VINA RESULT:      -7.2      2.518      7.958
  Name = 
  13 active torsions:
  status: ('A' for Active; 'I' for Inactive)
    1  A    between atoms: C_1  and  C_16
    2  A    between atoms: C_1  and  N_21
    3  A    between atoms: N_2  and  C_5
    4  A    between atoms: C_9  and  C_20
    5  A    between atoms: N_10  and  C_30
    6  A    between atoms: N_10  and  O_35
    7  A    between atoms: N_17  and  C_39
    8  A    between atoms: C_18  and  C_24
    9  A    between atoms: C_18  and  N_29
   10  A    between atoms: N_21  and  C_30
   11  A    between atoms: C_23  and  C_32
   12  A    between atoms: C_28  and  C_30
   13  A    between atoms: C_32  and  C_39
                            x       y       z     vdW  Elec       q    Type
                         _______ _______ _______ _____ _____    ______ ____

>  <TORSDO>
F 13

$$$$
=
 OpenBabel10232412443D

 39 42  0  0  1  0  0  0  0  0999 V2000
  190.0520  177.2940  144.5240 N   0  0  0  0  0  0  0  0  0  0  0  0
  190.6490  177.7230  143.2500 C   0  0  2  0  0  3  0  0  0  0  0  0
  191.2020  178.9820  143.4050 F   0  0  0  0  0  0  0  0  0  0  0  0
  187.8300  177.8470  143.7740 C   0  0  0  0  0  0  0  0  0  0  0  0
  189.6370  177.7500  142.1240 C   0  0  0  0  0  0  0  0  0  0  0  0
  188.3340  177.8600  142.3930 C   0  0  0  0  0  3  0  0  0  0  0  0
  188.6600  177.5470  144.7770 C   0  0  0  0  0  3  0  0  0  0  0  0
  190.8860  176.7520  145.5660 C   0  0  0  0  0  0  0  0  0  0  0  0
  191.8140  175.7350  145.2910 C   0  0  0  0  0  3  0  0  0  0  0  0
  192.4960  175.6660  147.5640 C   0  0  0  0  0  3  0  0  0  0  0  0
  190.7820  177.2140  146.8880 C   0  0  0  0  0  3  0  0  0  0  0  0
  192.5900  175.2220  146.2830 N   0  0  0  0  0  0  0  0  0  0  0  0
  191.5870  176.6730  147.8900 C   0  0  0  0  0  3  0  0  0  0  0  0
  186.3700  178.0850  144.0190 C   0  0  2  0  0  3  0  0  0  0  0  0
  185.9290  177.4220  145.3110 C   0  0  0  0  0  1  0  0  0  0  0  0
  185.5690  177.5870  142.9090 N   0  0  0  0  0  2  0  0  0  0  0  0
  184.4080  178.4550  142.7850 C   0  0  2  0  0  3  0  0  0  0  0  0
  182.5840  179.4080  138.3790 N   0  0  0  0  0  1  0  0  0  0  0  0
  183.4720  179.2950  139.4840 C   0  0  0  0  0  0  0  0  0  0  0  0
  184.7600  179.6740  139.4370 N   0  0  0  0  0  0  0  0  0  0  0  0
  185.2620  179.4210  140.6340 N   0  0  0  0  0  0  0  0  0  0  0  0
  184.2580  178.8990  141.3680 C   0  0  0  0  0  0  0  0  0  0  0  0
  183.1050  178.7970  140.6790 N   0  0  0  0  0  2  0  0  0  0  0  0
  184.5590  179.6130  143.6520 N   0  0  0  0  0  2  0  0  0  0  0  0
  182.7250  178.8620  144.5490 C   0  0  0  0  0  1  0  0  0  0  0  0
  183.3140  180.0050  144.0120 O   0  0  0  0  0  0  0  0  0  0  0  0
  190.0460  177.7180  140.6780 C   0  0  0  0  0  2  0  0  0  0  0  0
  190.8300  176.4710  140.2790 C   0  0  0  0  0  2  0  0  0  0  0  0
  191.5020  176.0540  137.8610 C   0  0  0  0  0  0  0  0  0  0  0  0
  190.5210  176.0960  138.9070 N   0  0  0  0  0  2  0  0  0  0  0  0
  192.9040  176.4940  138.1150 C   0  0  0  0  0  1  0  0  0  0  0  0
  191.1840  175.6460  136.6720 N   0  0  0  0  0  0  0  0  0  0  0  0
  189.9300  174.0640  135.4850 O   0  0  0  0  0  1  0  0  0  0  0  0
  189.8430  175.1870  136.3090 C   0  0  2  0  0  3  0  0  0  0  0  0
  187.6580  175.8740  135.4770 O   0  0  0  0  0  0  0  0  0  0  0  0
  187.9330  176.7960  136.5070 C   0  0  1  0  0  3  0  0  0  0  0  0
  189.0010  176.2720  135.6210 C   0  0  1  0  0  3  0  0  0  0  0  0
  187.3820  179.0960  136.9190 N   0  0  0  0  0  2  0  0  0  0  0  0
  187.5360  178.1590  136.0590 C   0  0  0  0  0  3  0  0  0  0  0  0
  1  7  1  0  0  0  0
  1  8  1  0  0  0  0
  2  3  1  1  0  0  0
  2  1  1  0  0  0  0
  4 14  1  0  0  0  0
  4  7  2  0  0  0  0
  5  6  2  0  0  0  0
  5  2  1  0  0  0  0
  6  4  1  0  0  0  0
  8 11  1  0  0  0  0
  9  8  2  0  0  0  0
  9 12  1  0  0  0  0
 10 13  1  0  0  0  0
 11 13  2  0  0  0  0
 12 10  2  0  0  0  0
 14 15  1  1  0  0  0
 16 14  1  0  0  0  0
 17 16  1  6  0  0  0
 17 24  1  0  0  0  0
 18 19  1  0  0  0  0
 19 23  1  0  0  0  0
 20 19  2  0  0  0  0
 20 21  1  0  0  0  0
 21 22  2  0  0  0  0
 22 17  1  0  0  0  0
 23 22  1  0  0  0  0
 24 26  1  0  0  0  0
 26 25  1  0  0  0  0
 27  5  1  0  0  0  0
 28 27  1  0  0  0  0
 29 31  1  0  0  0  0
 29 30  1  0  0  0  0
 30 28  1  0  0  0  0
 32 29  2  0  0  0  0
 34 33  1  6  0  0  0
 34 32  1  0  0  0  0
 35 37  1  0  0  0  0
 35 36  1  0  0  0  0
 36 39  1  6  0  0  0
 37 34  1  1  0  0  0
 37 36  1  0  0  0  0
 39 38  2  0  0  0  0
M  END
>  <MODEL>
9

>  <REMARK>
 VINA RESULT:      -7.2      2.320      6.838
  Name = 
  13 active torsions:
  status: ('A' for Active; 'I' for Inactive)
    1  A    between atoms: C_1  and  C_16
    2  A    between atoms: C_1  and  N_21
    3  A    between atoms: N_2  and  C_5
    4  A    between atoms: C_9  and  C_20
    5  A    between atoms: N_10  and  C_30
    6  A    between atoms: N_10  and  O_35
    7  A    between atoms: N_17  and  C_39
    8  A    between atoms: C_18  and  C_24
    9  A    between atoms: C_18  and  N_29
   10  A    between atoms: N_21  and  C_30
   11  A    between atoms: C_23  and  C_32
   12  A    between atoms: C_28  and  C_30
   13  A    between atoms: C_32  and  C_39
                            x       y       z     vdW  Elec       q    Type
                         _______ _______ _______ _____ _____    ______ ____

>  <TORSDO>
F 13

$$$$
