=
 OpenBabel10232412033D

 42 45  0  0  1  0  0  0  0  0999 V2000
  189.7730  177.0470  139.9350 C   0  0  1  0  0  3  0  0  0  0  0  0
  187.8820  178.4000  139.1020 C   0  0  0  0  0  3  0  0  0  0  0  0
  189.5390  177.6350  137.5400 N   0  0  0  0  0  0  0  0  0  0  0  0
  188.5700  177.9310  140.1420 C   0  0  0  0  0  3  0  0  0  0  0  0
  190.4930  177.4330  138.6340 C   0  0  2  0  0  3  0  0  0  0  0  0
  188.3450  178.1220  137.7310 C   0  0  0  0  0  0  0  0  0  0  0  0
  193.4940  174.4770  137.5440 C   0  0  0  0  0  0  0  0  0  0  0  0
  192.8720  176.6260  138.5510 C   0  0  0  0  0  3  0  0  0  0  0  0
  192.1360  174.2970  137.2400 C   0  0  0  0  0  0  0  0  0  0  0  0
  193.8490  175.6690  138.2080 C   0  0  0  0  0  3  0  0  0  0  0  0
  191.5550  173.2550  136.6250 N   0  0  0  0  0  0  0  0  0  0  0  0
  191.5190  176.4120  138.2400 C   0  0  0  0  0  0  0  0  0  0  0  0
  189.1890  172.7520  136.0110 C   0  0  0  0  0  1  0  0  0  0  0  0
  191.1900  175.2250  137.5740 C   0  0  0  0  0  0  0  0  0  0  0  0
  190.2450  173.6100  136.6090 C   0  0  0  0  0  0  0  0  0  0  0  0
  189.9740  174.8110  137.1810 N   0  0  0  0  0  2  0  0  0  0  0  0
  195.0050  173.4140  136.0390 O   0  0  0  0  0  0  0  0  0  0  0  0
  195.0010  172.6100  138.1790 O   0  0  0  0  0  1  0  0  0  0  0  0
  194.5310  173.4840  137.2060 C   0  0  0  0  0  0  0  0  0  0  0  0
  186.3530  177.7440  136.3390 C   0  0  0  0  0  3  0  0  0  0  0  0
  187.4510  178.3750  136.6360 N   0  0  0  0  0  0  0  0  0  0  0  0
  184.1350  175.0750  136.3580 C   0  0  0  0  0  2  0  0  0  0  0  0
  185.8120  176.5730  137.1000 C   0  0  1  0  0  3  0  0  0  0  0  0
  184.3350  176.4790  136.8750 C   0  0  0  0  0  2  0  0  0  0  0  0
  186.8110  174.4670  137.5430 F   0  0  0  0  0  0  0  0  0  0  0  0
  186.3600  175.2840  136.5210 C   0  0  1  0  0  3  0  0  0  0  0  0
  185.3450  174.6280  135.8050 O   0  0  0  0  0  0  0  0  0  0  0  0
  190.7220  177.1470  141.1240 C   0  0  0  0  0  2  0  0  0  0  0  0
  190.4330  175.4480  143.0200 C   0  0  0  0  0  1  0  0  0  0  0  0
  189.1620  177.5480  142.9170 N   0  0  0  0  0  0  0  0  0  0  0  0
  190.0460  176.7480  142.3940 C   0  0  0  0  0  0  0  0  0  0  0  0
  188.4140  177.3600  144.1290 C   0  0  0  0  0  0  0  0  0  0  0  0
  187.3590  176.6720  144.1560 O   0  0  0  0  0  0  0  0  0  0  0  0
  188.9030  177.9950  145.3840 C   0  0  0  0  0  2  0  0  0  0  0  0
  188.7970  177.0140  146.5490 C   0  0  2  0  0  3  0  0  0  0  0  0
  186.8910  178.4230  146.9390 O   0  0  0  0  0  1  0  0  0  0  0  0
  188.3870  178.1310  148.7550 C   0  0  0  0  0  1  0  0  0  0  0  0
  187.7340  177.4860  147.5420 C   0  0  2  0  0  3  0  0  0  0  0  0
  190.1530  176.8880  147.2420 C   0  0  0  0  0  2  0  0  0  0  0  0
  191.3010  176.9170  146.2460 C   0  0  0  0  0  2  0  0  0  0  0  0
  192.1760  175.7770  146.4560 N   0  0  0  0  0  2  0  0  0  0  0  0
  192.4770  175.7420  147.8750 C   0  0  0  0  0  1  0  0  0  0  0  0
  1  4  1  0  0  0  0
  1 28  1  1  0  0  0
  2  4  2  0  0  0  0
  3  6  2  0  0  0  0
  3  5  1  0  0  0  0
  5 12  1  6  0  0  0
  5  1  1  0  0  0  0
  6  2  1  0  0  0  0
  7 10  1  0  0  0  0
  9  7  2  0  0  0  0
  9 14  1  0  0  0  0
 10  8  2  0  0  0  0
 11  9  1  0  0  0  0
 12  8  1  0  0  0  0
 13 15  1  0  0  0  0
 14 12  2  0  0  0  0
 15 11  2  0  0  0  0
 15 16  1  0  0  0  0
 16 14  1  0  0  0  0
 17 19  2  0  0  0  0
 19  7  1  0  0  0  0
 19 18  1  0  0  0  0
 20 21  2  0  0  0  0
 21  6  1  0  0  0  0
 22 24  1  0  0  0  0
 23 20  1  6  0  0  0
 24 23  1  0  0  0  0
 26 23  1  0  0  0  0
 26 25  1  1  0  0  0
 27 22  1  0  0  0  0
 27 26  1  0  0  0  0
 28 31  1  0  0  0  0
 30 32  1  0  0  0  0
 31 30  2  0  0  0  0
 31 29  1  0  0  0  0
 32 33  2  0  0  0  0
 32 34  1  0  0  0  0
 35 34  1  6  0  0  0
 35 39  1  0  0  0  0
 35 38  1  0  0  0  0
 36 38  1  0  0  0  0
 38 37  1  1  0  0  0
 40 41  1  0  0  0  0
 40 39  1  0  0  0  0
 41 42  1  0  0  0  0
M  END
>  <MODEL>
1

>  <REMARK>
 VINA RESULT:      -7.8      0.000      0.000
  Name = 
  13 active torsions:
  status: ('A' for Active; 'I' for Inactive)
    1  A    between atoms: C_1  and  C_27
    2  A    between atoms: C_3  and  C_22
    3  A    between atoms: N_6  and  C_21
    4  A    between atoms: C_7  and  C_9
    5  A    between atoms: C_15  and  C_25
    6  A    between atoms: C_15  and  C_36
    7  A    between atoms: C_16  and  C_21
    8  A    between atoms: C_16  and  C_25
    9  A    between atoms: C_18  and  C_32
   10  A    between atoms: N_20  and  C_26
   11  A    between atoms: C_22  and  C_34
   12  A    between atoms: C_25  and  C_35
   13  A    between atoms: N_30  and  C_36
                            x       y       z     vdW  Elec       q    Type
                         _______ _______ _______ _____ _____    ______ ____

>  <TORSDO>
F 13

$$$$
=
 OpenBabel10232412033D

 42 45  0  0  1  0  0  0  0  0999 V2000
  189.8340  176.8130  140.4130 C   0  0  1  0  0  3  0  0  0  0  0  0
  188.0350  178.4030  139.8300 C   0  0  0  0  0  3  0  0  0  0  0  0
  189.7310  177.9190  138.2000 N   0  0  0  0  0  0  0  0  0  0  0  0
  188.6570  177.6860  140.7670 C   0  0  0  0  0  3  0  0  0  0  0  0
  190.6260  177.4380  139.2560 C   0  0  2  0  0  3  0  0  0  0  0  0
  188.5490  178.4090  138.4490 C   0  0  0  0  0  0  0  0  0  0  0  0
  193.5660  174.6640  137.6480 C   0  0  0  0  0  0  0  0  0  0  0  0
  193.0020  176.7130  138.8740 C   0  0  0  0  0  3  0  0  0  0  0  0
  192.1890  174.4660  137.4690 C   0  0  0  0  0  0  0  0  0  0  0  0
  193.9600  175.8130  138.3620 C   0  0  0  0  0  3  0  0  0  0  0  0
  191.5720  173.4540  136.8370 N   0  0  0  0  0  0  0  0  0  0  0  0
  191.6290  176.4810  138.6840 C   0  0  0  0  0  0  0  0  0  0  0  0
  189.1680  172.9260  136.4260 C   0  0  0  0  0  1  0  0  0  0  0  0
  191.2610  175.3370  137.9660 C   0  0  0  0  0  0  0  0  0  0  0  0
  190.2590  173.7690  136.9800 C   0  0  0  0  0  0  0  0  0  0  0  0
  190.0210  174.9160  137.6660 N   0  0  0  0  0  2  0  0  0  0  0  0
  195.3150  174.0440  136.1530 O   0  0  0  0  0  0  0  0  0  0  0  0
  194.7550  172.4870  137.7290 O   0  0  0  0  0  1  0  0  0  0  0  0
  194.5860  173.7300  137.1330 C   0  0  0  0  0  0  0  0  0  0  0  0
  186.5950  178.4520  136.9560 C   0  0  0  0  0  3  0  0  0  0  0  0
  187.7160  178.9360  137.4050 N   0  0  0  0  0  0  0  0  0  0  0  0
  184.2340  175.9790  136.3640 C   0  0  0  0  0  2  0  0  0  0  0  0
  185.9550  177.1900  137.4480 C   0  0  1  0  0  3  0  0  0  0  0  0
  184.4870  177.2370  137.1580 C   0  0  0  0  0  2  0  0  0  0  0  0
  186.8150  174.9790  137.4940 F   0  0  0  0  0  0  0  0  0  0  0  0
  186.4580  176.0100  136.6420 C   0  0  1  0  0  3  0  0  0  0  0  0
  185.4420  175.5740  135.7750 O   0  0  0  0  0  0  0  0  0  0  0  0
  190.7300  176.6060  141.6290 C   0  0  0  0  0  2  0  0  0  0  0  0
  190.6350  178.4680  143.3860 C   0  0  0  0  0  1  0  0  0  0  0  0
  189.1300  176.5270  143.4290 N   0  0  0  0  0  0  0  0  0  0  0  0
  190.1100  177.1700  142.8640 C   0  0  0  0  0  0  0  0  0  0  0  0
  188.3940  176.9020  144.6050 C   0  0  0  0  0  0  0  0  0  0  0  0
  188.9760  177.2130  145.6780 O   0  0  0  0  0  0  0  0  0  0  0  0
  186.9060  176.9220  144.5490 C   0  0  0  0  0  2  0  0  0  0  0  0
  186.3740  178.2290  145.1330 C   0  0  2  0  0  3  0  0  0  0  0  0
  184.5530  178.4680  146.6810 O   0  0  0  0  0  1  0  0  0  0  0  0
  186.7380  178.7330  147.5610 C   0  0  0  0  0  1  0  0  0  0  0  0
  185.8630  178.0000  146.5560 C   0  0  2  0  0  3  0  0  0  0  0  0
  185.2540  178.7720  144.2470 C   0  0  0  0  0  2  0  0  0  0  0  0
  185.5690  178.5990  142.7690 C   0  0  0  0  0  2  0  0  0  0  0  0
  184.3440  178.6200  141.9900 N   0  0  0  0  0  2  0  0  0  0  0  0
  184.7180  178.9970  140.6400 C   0  0  0  0  0  1  0  0  0  0  0  0
  1  4  1  0  0  0  0
  1 28  1  1  0  0  0
  2  4  2  0  0  0  0
  3  6  2  0  0  0  0
  3  5  1  0  0  0  0
  5 12  1  6  0  0  0
  5  1  1  0  0  0  0
  6  2  1  0  0  0  0
  7 10  1  0  0  0  0
  9  7  2  0  0  0  0
  9 14  1  0  0  0  0
 10  8  2  0  0  0  0
 11 15  2  0  0  0  0
 11  9  1  0  0  0  0
 12  8  1  0  0  0  0
 13 15  1  0  0  0  0
 14 12  2  0  0  0  0
 15 16  1  0  0  0  0
 16 14  1  0  0  0  0
 17 19  2  0  0  0  0
 19  7  1  0  0  0  0
 19 18  1  0  0  0  0
 20 21  2  0  0  0  0
 21  6  1  0  0  0  0
 22 24  1  0  0  0  0
 23 20  1  6  0  0  0
 24 23  1  0  0  0  0
 26 23  1  0  0  0  0
 26 25  1  1  0  0  0
 27 22  1  0  0  0  0
 27 26  1  0  0  0  0
 28 31  1  0  0  0  0
 30 32  1  0  0  0  0
 31 29  1  0  0  0  0
 31 30  2  0  0  0  0
 32 33  2  0  0  0  0
 34 32  1  0  0  0  0
 34 35  1  0  0  0  0
 35 39  1  6  0  0  0
 35 38  1  0  0  0  0
 38 36  1  0  0  0  0
 38 37  1  1  0  0  0
 40 39  1  0  0  0  0
 41 40  1  0  0  0  0
 42 41  1  0  0  0  0
M  END
>  <MODEL>
2

>  <REMARK>
 VINA RESULT:      -7.7      1.612      2.907
  Name = 
  13 active torsions:
  status: ('A' for Active; 'I' for Inactive)
    1  A    between atoms: C_1  and  C_27
    2  A    between atoms: C_3  and  C_22
    3  A    between atoms: N_6  and  C_21
    4  A    between atoms: C_7  and  C_9
    5  A    between atoms: C_15  and  C_25
    6  A    between atoms: C_15  and  C_36
    7  A    between atoms: C_16  and  C_21
    8  A    between atoms: C_16  and  C_25
    9  A    between atoms: C_18  and  C_32
   10  A    between atoms: N_20  and  C_26
   11  A    between atoms: C_22  and  C_34
   12  A    between atoms: C_25  and  C_35
   13  A    between atoms: N_30  and  C_36
                            x       y       z     vdW  Elec       q    Type
                         _______ _______ _______ _____ _____    ______ ____

>  <TORSDO>
F 13

$$$$
=
 OpenBabel10232412033D

 42 45  0  0  1  0  0  0  0  0999 V2000
  189.1540  177.5960  141.2320 C   0  0  1  0  0  3  0  0  0  0  0  0
  187.3440  178.3610  139.7360 C   0  0  0  0  0  3  0  0  0  0  0  0
  186.9110  178.1960  142.0930 N   0  0  0  0  0  0  0  0  0  0  0  0
  188.5560  177.8210  139.8670 C   0  0  0  0  0  3  0  0  0  0  0  0
  188.0470  177.2840  142.2500 C   0  0  2  0  0  3  0  0  0  0  0  0
  186.5440  178.6690  140.9350 C   0  0  0  0  0  0  0  0  0  0  0  0
  189.5670  177.4560  146.3220 C   0  0  0  0  0  0  0  0  0  0  0  0
  189.9210  177.1230  143.9170 C   0  0  0  0  0  3  0  0  0  0  0  0
  188.2080  177.6510  146.0330 C   0  0  0  0  0  0  0  0  0  0  0  0
  190.4210  177.1850  145.2340 C   0  0  0  0  0  3  0  0  0  0  0  0
  187.2100  177.9260  146.8870 N   0  0  0  0  0  0  0  0  0  0  0  0
  188.5550  177.3320  143.6600 C   0  0  0  0  0  0  0  0  0  0  0  0
  184.7650  178.3120  146.5700 C   0  0  0  0  0  1  0  0  0  0  0  0
  187.7240  177.5920  144.7570 C   0  0  0  0  0  0  0  0  0  0  0  0
  186.1320  178.0190  146.0670 C   0  0  0  0  0  0  0  0  0  0  0  0
  186.4000  177.8210  144.7510 N   0  0  0  0  0  2  0  0  0  0  0  0
  191.2110  176.9740  147.9790 O   0  0  0  0  0  0  0  0  0  0  0  0
  189.4260  178.2170  148.6800 O   0  0  0  0  0  1  0  0  0  0  0  0
  190.1160  177.5290  147.6900 C   0  0  0  0  0  0  0  0  0  0  0  0
  184.2140  179.1820  140.3360 C   0  0  0  0  0  3  0  0  0  0  0  0
  185.3870  179.5080  140.7960 N   0  0  0  0  0  0  0  0  0  0  0  0
  181.7960  177.2150  138.8120 C   0  0  0  0  0  2  0  0  0  0  0  0
  183.8490  177.8240  139.8220 C   0  0  1  0  0  3  0  0  0  0  0  0
  182.4150  177.5430  140.1480 C   0  0  0  0  0  2  0  0  0  0  0  0
  184.5850  176.7000  137.8660 F   0  0  0  0  0  0  0  0  0  0  0  0
  183.8960  177.8160  138.3080 C   0  0  1  0  0  3  0  0  0  0  0  0
  182.5850  177.7910  137.8030 O   0  0  0  0  0  0  0  0  0  0  0  0
  190.1770  176.4660  141.1880 C   0  0  0  0  0  2  0  0  0  0  0  0
  192.2020  177.5420  140.0440 C   0  0  0  0  0  1  0  0  0  0  0  0
  190.8200  175.8280  138.9540 N   0  0  0  0  0  0  0  0  0  0  0  0
  191.0610  176.5800  139.9900 C   0  0  0  0  0  0  0  0  0  0  0  0
  191.5510  175.7750  137.7180 C   0  0  0  0  0  0  0  0  0  0  0  0
  191.3610  176.6160  136.8000 O   0  0  0  0  0  0  0  0  0  0  0  0
  192.5580  174.6950  137.5230 C   0  0  0  0  0  2  0  0  0  0  0  0
  193.9690  175.2510  137.7000 C   0  0  2  0  0  3  0  0  0  0  0  0
  194.5760  176.8480  136.0120 O   0  0  0  0  0  1  0  0  0  0  0  0
  193.8820  174.7120  135.2530 C   0  0  0  0  0  1  0  0  0  0  0  0
  194.6160  175.4900  136.3350 C   0  0  2  0  0  3  0  0  0  0  0  0
  194.8080  174.2750  138.5220 C   0  0  0  0  0  2  0  0  0  0  0  0
  196.2550  174.2420  138.0560 C   0  0  0  0  0  2  0  0  0  0  0  0
  196.7170  172.8690  137.9510 N   0  0  0  0  0  2  0  0  0  0  0  0
  195.5310  172.0360  137.8990 C   0  0  0  0  0  1  0  0  0  0  0  0
  1 28  1  6  0  0  0
  1  5  1  0  0  0  0
  2  4  2  0  0  0  0
  2  6  1  0  0  0  0
  3  5  1  0  0  0  0
  4  1  1  0  0  0  0
  5 12  1  1  0  0  0
  6  3  2  0  0  0  0
  7 19  1  0  0  0  0
  8 10  1  0  0  0  0
  9  7  1  0  0  0  0
  9 11  1  0  0  0  0
 10  7  2  0  0  0  0
 12  8  2  0  0  0  0
 12 14  1  0  0  0  0
 14  9  2  0  0  0  0
 15 13  1  0  0  0  0
 15 11  2  0  0  0  0
 16 14  1  0  0  0  0
 16 15  1  0  0  0  0
 19 17  2  0  0  0  0
 19 18  1  0  0  0  0
 20 21  2  0  0  0  0
 21  6  1  0  0  0  0
 22 24  1  0  0  0  0
 23 24  1  0  0  0  0
 23 20  1  6  0  0  0
 26 25  1  1  0  0  0
 26 23  1  0  0  0  0
 27 26  1  0  0  0  0
 27 22  1  0  0  0  0
 30 31  2  0  0  0  0
 31 29  1  0  0  0  0
 31 28  1  0  0  0  0
 32 30  1  0  0  0  0
 33 32  2  0  0  0  0
 34 32  1  0  0  0  0
 35 34  1  6  0  0  0
 35 39  1  0  0  0  0
 36 38  1  0  0  0  0
 38 37  1  6  0  0  0
 38 35  1  0  0  0  0
 40 39  1  0  0  0  0
 41 40  1  0  0  0  0
 42 41  1  0  0  0  0
M  END
>  <MODEL>
3

>  <REMARK>
 VINA RESULT:      -7.6      2.717      8.437
  Name = 
  13 active torsions:
  status: ('A' for Active; 'I' for Inactive)
    1  A    between atoms: C_1  and  C_27
    2  A    between atoms: C_3  and  C_22
    3  A    between atoms: N_6  and  C_21
    4  A    between atoms: C_7  and  C_9
    5  A    between atoms: C_15  and  C_25
    6  A    between atoms: C_15  and  C_36
    7  A    between atoms: C_16  and  C_21
    8  A    between atoms: C_16  and  C_25
    9  A    between atoms: C_18  and  C_32
   10  A    between atoms: N_20  and  C_26
   11  A    between atoms: C_22  and  C_34
   12  A    between atoms: C_25  and  C_35
   13  A    between atoms: N_30  and  C_36
                            x       y       z     vdW  Elec       q    Type
                         _______ _______ _______ _____ _____    ______ ____

>  <TORSDO>
F 13

$$$$
=
 OpenBabel10232412033D

 42 45  0  0  1  0  0  0  0  0999 V2000
  189.1470  177.5880  141.3410 C   0  0  1  0  0  3  0  0  0  0  0  0
  187.3140  178.3390  139.8650 C   0  0  0  0  0  3  0  0  0  0  0  0
  186.9190  178.2060  142.2300 N   0  0  0  0  0  0  0  0  0  0  0  0
  188.5260  177.7970  139.9830 C   0  0  0  0  0  3  0  0  0  0  0  0
  188.0550  177.2920  142.3800 C   0  0  2  0  0  3  0  0  0  0  0  0
  186.5350  178.6640  141.0720 C   0  0  0  0  0  0  0  0  0  0  0  0
  189.6420  177.5130  146.4250 C   0  0  0  0  0  0  0  0  0  0  0  0
  189.9590  177.1700  144.0160 C   0  0  0  0  0  3  0  0  0  0  0  0
  188.2750  177.6860  146.1570 C   0  0  0  0  0  0  0  0  0  0  0  0
  190.4810  177.2480  145.3240 C   0  0  0  0  0  3  0  0  0  0  0  0
  187.2880  177.9530  147.0270 N   0  0  0  0  0  0  0  0  0  0  0  0
  188.5860  177.3570  143.7810 C   0  0  0  0  0  0  0  0  0  0  0  0
  184.8320  178.3010  146.7490 C   0  0  0  0  0  1  0  0  0  0  0  0
  187.7710  177.6120  144.8900 C   0  0  0  0  0  0  0  0  0  0  0  0
  186.1950  178.0250  146.2240 C   0  0  0  0  0  0  0  0  0  0  0  0
  186.4440  177.8220  144.9060 N   0  0  0  0  0  2  0  0  0  0  0  0
  189.5570  178.1210  148.7280 O   0  0  0  0  0  1  0  0  0  0  0  0
  191.4860  177.1110  148.0360 O   0  0  0  0  0  0  0  0  0  0  0  0
  190.2120  177.6030  147.7830 C   0  0  0  0  0  0  0  0  0  0  0  0
  184.2140  179.1920  140.4510 C   0  0  0  0  0  3  0  0  0  0  0  0
  185.3780  179.5050  140.9410 N   0  0  0  0  0  0  0  0  0  0  0  0
  181.8140  177.2610  138.8540 C   0  0  0  0  0  2  0  0  0  0  0  0
  183.8610  177.8510  139.8870 C   0  0  1  0  0  3  0  0  0  0  0  0
  182.4300  177.5450  140.2020 C   0  0  0  0  0  2  0  0  0  0  0  0
  184.6070  176.8070  137.8900 F   0  0  0  0  0  0  0  0  0  0  0  0
  183.9080  177.9000  138.3730 C   0  0  1  0  0  3  0  0  0  0  0  0
  182.5970  177.8810  137.8670 O   0  0  0  0  0  0  0  0  0  0  0  0
  190.1650  176.4540  141.2940 C   0  0  0  0  0  2  0  0  0  0  0  0
  192.1750  177.5910  140.1830 C   0  0  0  0  0  1  0  0  0  0  0  0
  190.8820  175.8130  139.0840 N   0  0  0  0  0  0  0  0  0  0  0  0
  191.0720  176.5860  140.1150 C   0  0  0  0  0  0  0  0  0  0  0  0
  191.6430  175.7720  137.8660 C   0  0  0  0  0  0  0  0  0  0  0  0
  192.8220  175.3300  137.8360 O   0  0  0  0  0  0  0  0  0  0  0  0
  191.0160  176.2630  136.6070 C   0  0  0  0  0  2  0  0  0  0  0  0
  189.6120  175.6820  136.4550 C   0  0  2  0  0  3  0  0  0  0  0  0
  189.5130  173.3430  135.9170 O   0  0  0  0  0  1  0  0  0  0  0  0
  190.8680  174.6980  134.5210 C   0  0  0  0  0  1  0  0  0  0  0  0
  189.5980  174.6190  135.3560 C   0  0  2  0  0  3  0  0  0  0  0  0
  188.6240  176.8000  136.1260 C   0  0  0  0  0  2  0  0  0  0  0  0
  189.2190  178.1740  136.3850 C   0  0  0  0  0  2  0  0  0  0  0  0
  188.1670  179.1270  136.6920 N   0  0  0  0  0  2  0  0  0  0  0  0
  186.9310  178.5540  136.1920 C   0  0  0  0  0  1  0  0  0  0  0  0
  1 28  1  6  0  0  0
  1  5  1  0  0  0  0
  2  4  2  0  0  0  0
  2  6  1  0  0  0  0
  3  5  1  0  0  0  0
  4  1  1  0  0  0  0
  5 12  1  1  0  0  0
  6  3  2  0  0  0  0
  7 19  1  0  0  0  0
  8 10  1  0  0  0  0
  9  7  1  0  0  0  0
  9 11  1  0  0  0  0
 10  7  2  0  0  0  0
 12  8  2  0  0  0  0
 12 14  1  0  0  0  0
 14 16  1  0  0  0  0
 14  9  2  0  0  0  0
 15 13  1  0  0  0  0
 15 11  2  0  0  0  0
 16 15  1  0  0  0  0
 19 18  2  0  0  0  0
 19 17  1  0  0  0  0
 20 21  2  0  0  0  0
 21  6  1  0  0  0  0
 22 24  1  0  0  0  0
 23 24  1  0  0  0  0
 23 20  1  1  0  0  0
 26 25  1  6  0  0  0
 26 23  1  0  0  0  0
 27 26  1  0  0  0  0
 27 22  1  0  0  0  0
 30 31  2  0  0  0  0
 31 29  1  0  0  0  0
 31 28  1  0  0  0  0
 32 30  1  0  0  0  0
 33 32  2  0  0  0  0
 34 32  1  0  0  0  0
 35 39  1  6  0  0  0
 35 34  1  0  0  0  0
 38 37  1  1  0  0  0
 38 36  1  0  0  0  0
 38 35  1  0  0  0  0
 39 40  1  0  0  0  0
 40 41  1  0  0  0  0
 42 41  1  0  0  0  0
M  END
>  <MODEL>
4

>  <REMARK>
 VINA RESULT:      -7.5      2.606      8.541
  Name = 
  13 active torsions:
  status: ('A' for Active; 'I' for Inactive)
    1  A    between atoms: C_1  and  C_27
    2  A    between atoms: C_3  and  C_22
    3  A    between atoms: N_6  and  C_21
    4  A    between atoms: C_7  and  C_9
    5  A    between atoms: C_15  and  C_25
    6  A    between atoms: C_15  and  C_36
    7  A    between atoms: C_16  and  C_21
    8  A    between atoms: C_16  and  C_25
    9  A    between atoms: C_18  and  C_32
   10  A    between atoms: N_20  and  C_26
   11  A    between atoms: C_22  and  C_34
   12  A    between atoms: C_25  and  C_35
   13  A    between atoms: N_30  and  C_36
                            x       y       z     vdW  Elec       q    Type
                         _______ _______ _______ _____ _____    ______ ____

>  <TORSDO>
F 13

$$$$
=
 OpenBabel10232412033D

 42 45  0  0  1  0  0  0  0  0999 V2000
  188.4790  176.9990  141.6110 C   0  0  1  0  0  3  0  0  0  0  0  0
  186.6740  178.4440  142.4820 C   0  0  0  0  0  3  0  0  0  0  0  0
  187.2740  178.6060  140.1620 N   0  0  0  0  0  0  0  0  0  0  0  0
  187.6730  177.5990  142.7360 C   0  0  0  0  0  3  0  0  0  0  0  0
  188.5740  177.9910  140.4430 C   0  0  2  0  0  3  0  0  0  0  0  0
  186.4020  178.8630  141.0960 C   0  0  0  0  0  0  0  0  0  0  0  0
  190.1090  176.1490  136.8140 C   0  0  0  0  0  0  0  0  0  0  0  0
  188.2370  176.9580  138.1770 C   0  0  0  0  0  3  0  0  0  0  0  0
  190.9590  176.5380  137.8600 C   0  0  0  0  0  0  0  0  0  0  0  0
  188.7290  176.3670  136.9950 C   0  0  0  0  0  3  0  0  0  0  0  0
  192.2960  176.4410  137.9210 N   0  0  0  0  0  0  0  0  0  0  0  0
  189.1160  177.3440  139.2030 C   0  0  0  0  0  0  0  0  0  0  0  0
  193.9650  177.0770  139.6640 C   0  0  0  0  0  1  0  0  0  0  0  0
  190.4820  177.1110  139.0040 C   0  0  0  0  0  0  0  0  0  0  0  0
  192.5790  176.9720  139.1380 C   0  0  0  0  0  0  0  0  0  0  0  0
  191.4960  177.3960  139.8380 N   0  0  0  0  0  2  0  0  0  0  0  0
  191.1320  176.2480  134.6640 O   0  0  0  0  0  0  0  0  0  0  0  0
  190.4870  174.1700  135.3630 O   0  0  0  0  0  1  0  0  0  0  0  0
  190.6010  175.5400  135.5630 C   0  0  0  0  0  0  0  0  0  0  0  0
  184.1260  179.0480  140.1800 C   0  0  0  0  0  3  0  0  0  0  0  0
  185.1610  179.5260  140.8070 N   0  0  0  0  0  0  0  0  0  0  0  0
  182.1670  176.7140  138.5200 C   0  0  0  0  0  2  0  0  0  0  0  0
  184.0460  177.6710  139.5970 C   0  0  1  0  0  3  0  0  0  0  0  0
  182.6940  177.0940  139.8820 C   0  0  0  0  0  2  0  0  0  0  0  0
  185.0120  176.8130  137.6060 F   0  0  0  0  0  0  0  0  0  0  0  0
  184.1080  177.7470  138.0850 C   0  0  1  0  0  3  0  0  0  0  0  0
  182.8340  177.4840  137.5540 O   0  0  0  0  0  0  0  0  0  0  0  0
  189.8690  176.6080  142.0990 C   0  0  0  0  0  2  0  0  0  0  0  0
  190.4770  178.6680  143.4960 C   0  0  0  0  0  1  0  0  0  0  0  0
  190.1270  176.4490  144.4900 N   0  0  0  0  0  0  0  0  0  0  0  0
  190.1670  177.2080  143.4330 C   0  0  0  0  0  0  0  0  0  0  0  0
  190.3660  176.8290  145.8550 C   0  0  0  0  0  0  0  0  0  0  0  0
  191.4840  177.2710  146.2330 O   0  0  0  0  0  0  0  0  0  0  0  0
  189.2610  176.6970  146.8440 C   0  0  0  0  0  2  0  0  0  0  0  0
  188.4730  178.0020  146.9320 C   0  0  2  0  0  3  0  0  0  0  0  0
  189.7050  178.6690  148.8830 O   0  0  0  0  0  1  0  0  0  0  0  0
  187.6950  177.4690  149.2550 C   0  0  0  0  0  1  0  0  0  0  0  0
  188.4150  178.4860  148.3820 C   0  0  2  0  0  3  0  0  0  0  0  0
  187.0620  177.7910  146.3860 C   0  0  0  0  0  2  0  0  0  0  0  0
  186.1320  178.9320  146.7650 C   0  0  0  0  0  2  0  0  0  0  0  0
  184.7470  178.5130  146.6410 N   0  0  0  0  0  2  0  0  0  0  0  0
  184.3390  178.8250  145.2840 C   0  0  0  0  0  1  0  0  0  0  0  0
  1 28  1  1  0  0  0
  1  4  1  0  0  0  0
  2  4  2  0  0  0  0
  3  5  1  0  0  0  0
  3  6  2  0  0  0  0
  5 12  1  6  0  0  0
  5  1  1  0  0  0  0
  6  2  1  0  0  0  0
  7 10  2  0  0  0  0
  7  9  1  0  0  0  0
  8 12  2  0  0  0  0
  9 11  1  0  0  0  0
  9 14  2  0  0  0  0
 10  8  1  0  0  0  0
 11 15  2  0  0  0  0
 14 12  1  0  0  0  0
 14 16  1  0  0  0  0
 15 13  1  0  0  0  0
 15 16  1  0  0  0  0
 17 19  2  0  0  0  0
 18 19  1  0  0  0  0
 19  7  1  0  0  0  0
 20 21  2  0  0  0  0
 21  6  1  0  0  0  0
 22 24  1  0  0  0  0
 23 24  1  0  0  0  0
 23 20  1  1  0  0  0
 26 25  1  6  0  0  0
 26 23  1  0  0  0  0
 27 26  1  0  0  0  0
 27 22  1  0  0  0  0
 28 31  1  0  0  0  0
 30 32  1  0  0  0  0
 31 29  1  0  0  0  0
 31 30  2  0  0  0  0
 32 33  2  0  0  0  0
 32 34  1  0  0  0  0
 34 35  1  0  0  0  0
 35 39  1  1  0  0  0
 35 38  1  0  0  0  0
 38 36  1  0  0  0  0
 38 37  1  1  0  0  0
 39 40  1  0  0  0  0
 41 40  1  0  0  0  0
 42 41  1  0  0  0  0
M  END
>  <MODEL>
5

>  <REMARK>
 VINA RESULT:      -7.4      2.755      4.096
  Name = 
  13 active torsions:
  status: ('A' for Active; 'I' for Inactive)
    1  A    between atoms: C_1  and  C_27
    2  A    between atoms: C_3  and  C_22
    3  A    between atoms: N_6  and  C_21
    4  A    between atoms: C_7  and  C_9
    5  A    between atoms: C_15  and  C_25
    6  A    between atoms: C_15  and  C_36
    7  A    between atoms: C_16  and  C_21
    8  A    between atoms: C_16  and  C_25
    9  A    between atoms: C_18  and  C_32
   10  A    between atoms: N_20  and  C_26
   11  A    between atoms: C_22  and  C_34
   12  A    between atoms: C_25  and  C_35
   13  A    between atoms: N_30  and  C_36
                            x       y       z     vdW  Elec       q    Type
                         _______ _______ _______ _____ _____    ______ ____

>  <TORSDO>
F 13

$$$$
=
 OpenBabel10232412033D

 42 45  0  0  1  0  0  0  0  0999 V2000
  187.6560  177.6260  138.7580 C   0  0  1  0  0  3  0  0  0  0  0  0
  185.4700  178.1120  137.7150 C   0  0  0  0  0  3  0  0  0  0  0  0
  187.1740  177.0470  136.3990 N   0  0  0  0  0  0  0  0  0  0  0  0
  186.2980  178.2800  138.7460 C   0  0  0  0  0  3  0  0  0  0  0  0
  188.2040  177.5220  137.3280 C   0  0  2  0  0  3  0  0  0  0  0  0
  185.9130  177.3460  136.5360 C   0  0  0  0  0  0  0  0  0  0  0  0
  191.7280  174.9760  137.1640 C   0  0  0  0  0  0  0  0  0  0  0  0
  190.6960  177.1960  137.3290 C   0  0  0  0  0  3  0  0  0  0  0  0
  190.4310  174.4470  137.0830 C   0  0  0  0  0  0  0  0  0  0  0  0
  191.8420  176.3750  137.2850 C   0  0  0  0  0  3  0  0  0  0  0  0
  190.0660  173.1600  136.9720 N   0  0  0  0  0  0  0  0  0  0  0  0
  189.4110  176.6330  137.2560 C   0  0  0  0  0  0  0  0  0  0  0  0
  187.8440  172.0340  136.8280 C   0  0  0  0  0  1  0  0  0  0  0  0
  189.3210  175.2420  137.1280 C   0  0  0  0  0  0  0  0  0  0  0  0
  188.7110  173.2350  136.9490 C   0  0  0  0  0  0  0  0  0  0  0  0
  188.2090  174.4930  137.0420 N   0  0  0  0  0  2  0  0  0  0  0  0
  193.1290  173.3050  136.2020 O   0  0  0  0  0  0  0  0  0  0  0  0
  193.8980  174.2580  138.1320 O   0  0  0  0  0  1  0  0  0  0  0  0
  192.9410  174.1360  137.1310 C   0  0  0  0  0  0  0  0  0  0  0  0
  183.9980  176.0310  135.7270 C   0  0  0  0  0  3  0  0  0  0  0  0
  184.9310  176.9260  135.5770 N   0  0  0  0  0  0  0  0  0  0  0  0
  182.3290  173.3720  137.2060 C   0  0  0  0  0  2  0  0  0  0  0  0
  183.7870  175.2230  136.9700 C   0  0  1  0  0  3  0  0  0  0  0  0
  182.3360  174.8770  137.0930 C   0  0  0  0  0  2  0  0  0  0  0  0
  185.2050  173.6140  137.9860 F   0  0  0  0  0  0  0  0  0  0  0  0
  184.4800  173.8820  136.8370 C   0  0  1  0  0  3  0  0  0  0  0  0
  183.5160  172.8790  136.6430 O   0  0  0  0  0  0  0  0  0  0  0  0
  188.6170  178.4080  139.6470 C   0  0  0  0  0  2  0  0  0  0  0  0
  190.2330  176.8640  140.9000 C   0  0  0  0  0  1  0  0  0  0  0  0
  188.1500  177.6970  141.9010 N   0  0  0  0  0  0  0  0  0  0  0  0
  188.9590  177.6430  140.8830 C   0  0  0  0  0  0  0  0  0  0  0  0
  188.2990  177.0520  143.1770 C   0  0  0  0  0  0  0  0  0  0  0  0
  188.0480  175.8270  143.3330 O   0  0  0  0  0  0  0  0  0  0  0  0
  188.7620  177.8560  144.3410 C   0  0  0  0  0  2  0  0  0  0  0  0
  188.1850  177.2900  145.6370 C   0  0  2  0  0  3  0  0  0  0  0  0
  187.1260  178.0310  147.6610 O   0  0  0  0  0  1  0  0  0  0  0  0
  185.9010  178.3220  145.6530 C   0  0  0  0  0  1  0  0  0  0  0  0
  187.2760  178.3230  146.3040 C   0  0  2  0  0  3  0  0  0  0  0  0
  189.3220  176.8960  146.5790 C   0  0  0  0  0  2  0  0  0  0  0  0
  190.6750  177.3470  146.0510 C   0  0  0  0  0  2  0  0  0  0  0  0
  191.5950  176.2240  146.0080 N   0  0  0  0  0  2  0  0  0  0  0  0
  191.9970  175.9640  147.3780 C   0  0  0  0  0  1  0  0  0  0  0  0
  1 28  1  1  0  0  0
  2  4  2  0  0  0  0
  3  6  2  0  0  0  0
  3  5  1  0  0  0  0
  4  1  1  0  0  0  0
  5 12  1  1  0  0  0
  5  1  1  0  0  0  0
  6  2  1  0  0  0  0
  7 10  1  0  0  0  0
  9 14  1  0  0  0  0
  9  7  2  0  0  0  0
 10  8  2  0  0  0  0
 11  9  1  0  0  0  0
 12  8  1  0  0  0  0
 13 15  1  0  0  0  0
 14 12  2  0  0  0  0
 15 11  2  0  0  0  0
 15 16  1  0  0  0  0
 16 14  1  0  0  0  0
 17 19  2  0  0  0  0
 19  7  1  0  0  0  0
 19 18  1  0  0  0  0
 21 20  2  0  0  0  0
 21  6  1  0  0  0  0
 23 20  1  6  0  0  0
 23 24  1  0  0  0  0
 24 22  1  0  0  0  0
 26 23  1  0  0  0  0
 26 25  1  1  0  0  0
 27 26  1  0  0  0  0
 27 22  1  0  0  0  0
 28 31  1  0  0  0  0
 30 32  1  0  0  0  0
 31 29  1  0  0  0  0
 31 30  2  0  0  0  0
 32 33  2  0  0  0  0
 32 34  1  0  0  0  0
 35 34  1  6  0  0  0
 35 38  1  0  0  0  0
 35 39  1  0  0  0  0
 38 37  1  6  0  0  0
 38 36  1  0  0  0  0
 40 39  1  0  0  0  0
 41 40  1  0  0  0  0
 41 42  1  0  0  0  0
M  END
>  <MODEL>
6

>  <REMARK>
 VINA RESULT:      -7.3      1.497      2.155
  Name = 
  13 active torsions:
  status: ('A' for Active; 'I' for Inactive)
    1  A    between atoms: C_1  and  C_27
    2  A    between atoms: C_3  and  C_22
    3  A    between atoms: N_6  and  C_21
    4  A    between atoms: C_7  and  C_9
    5  A    between atoms: C_15  and  C_25
    6  A    between atoms: C_15  and  C_36
    7  A    between atoms: C_16  and  C_21
    8  A    between atoms: C_16  and  C_25
    9  A    between atoms: C_18  and  C_32
   10  A    between atoms: N_20  and  C_26
   11  A    between atoms: C_22  and  C_34
   12  A    between atoms: C_25  and  C_35
   13  A    between atoms: N_30  and  C_36
                            x       y       z     vdW  Elec       q    Type
                         _______ _______ _______ _____ _____    ______ ____

>  <TORSDO>
F 13

$$$$
=
 OpenBabel10232412033D

 42 45  0  0  1  0  0  0  0  0999 V2000
  184.7460  178.3640  140.1910 C   0  0  1  0  0  3  0  0  0  0  0  0
  182.4650  178.5810  139.2690 C   0  0  0  0  0  3  0  0  0  0  0  0
  184.2790  178.0820  137.7760 N   0  0  0  0  0  0  0  0  0  0  0  0
  183.2900  178.7410  140.3030 C   0  0  0  0  0  3  0  0  0  0  0  0
  185.2420  178.5920  138.7560 C   0  0  2  0  0  3  0  0  0  0  0  0
  182.9910  178.1090  137.9760 C   0  0  0  0  0  0  0  0  0  0  0  0
  189.1580  176.7990  138.1450 C   0  0  0  0  0  0  0  0  0  0  0  0
  187.7190  178.5010  139.1710 C   0  0  0  0  0  3  0  0  0  0  0  0
  188.0110  176.3010  137.5080 C   0  0  0  0  0  0  0  0  0  0  0  0
  188.9900  177.9190  138.9830 C   0  0  0  0  0  3  0  0  0  0  0  0
  187.9140  175.2510  136.6780 N   0  0  0  0  0  0  0  0  0  0  0  0
  186.5880  177.9720  138.5250 C   0  0  0  0  0  0  0  0  0  0  0  0
  185.9900  174.2180  135.4690 C   0  0  0  0  0  1  0  0  0  0  0  0
  186.7800  176.8640  137.6920 C   0  0  0  0  0  0  0  0  0  0  0  0
  186.5890  175.2270  136.3810 C   0  0  0  0  0  0  0  0  0  0  0  0
  185.8540  176.1980  136.9810 N   0  0  0  0  0  2  0  0  0  0  0  0
  190.9690  175.4140  138.8390 O   0  0  0  0  0  1  0  0  0  0  0  0
  191.2510  176.4960  136.8460 O   0  0  0  0  0  0  0  0  0  0  0  0
  190.4960  176.2000  137.9740 C   0  0  0  0  0  0  0  0  0  0  0  0
  181.5150  176.4910  136.8550 C   0  0  0  0  0  3  0  0  0  0  0  0
  182.0630  177.6650  136.9740 N   0  0  0  0  0  0  0  0  0  0  0  0
  180.7530  173.2030  137.6610 C   0  0  0  0  0  2  0  0  0  0  0  0
  181.7850  175.3310  137.7640 C   0  0  1  0  0  3  0  0  0  0  0  0
  180.4960  174.6330  138.0670 C   0  0  0  0  0  2  0  0  0  0  0  0
  183.6590  173.8780  137.8450 F   0  0  0  0  0  0  0  0  0  0  0  0
  182.6120  174.2890  137.0380 C   0  0  1  0  0  3  0  0  0  0  0  0
  181.7980  173.1870  136.7240 O   0  0  0  0  0  0  0  0  0  0  0  0
  185.5830  179.1650  141.1820 C   0  0  0  0  0  2  0  0  0  0  0  0
  184.8840  178.1540  143.4310 C   0  0  0  0  0  1  0  0  0  0  0  0
  187.1210  177.8270  142.4680 N   0  0  0  0  0  0  0  0  0  0  0  0
  185.9310  178.3500  142.3830 C   0  0  0  0  0  0  0  0  0  0  0  0
  187.6470  177.0070  143.5240 C   0  0  0  0  0  0  0  0  0  0  0  0
  187.9130  175.7880  143.3460 O   0  0  0  0  0  0  0  0  0  0  0  0
  187.8840  177.6180  144.8610 C   0  0  0  0  0  2  0  0  0  0  0  0
  189.3370  177.4160  145.2840 C   0  0  2  0  0  3  0  0  0  0  0  0
  190.2130  176.5380  147.3410 O   0  0  0  0  0  1  0  0  0  0  0  0
  188.1060  177.6170  147.4580 C   0  0  0  0  0  1  0  0  0  0  0  0
  189.4750  177.5910  146.7960 C   0  0  2  0  0  3  0  0  0  0  0  0
  190.2320  178.4130  144.5490 C   0  0  0  0  0  2  0  0  0  0  0  0
  191.6060  177.8320  144.2580 C   0  0  0  0  0  2  0  0  0  0  0  0
  191.4930  176.7210  143.3280 N   0  0  0  0  0  2  0  0  0  0  0  0
  191.1210  177.2890  142.0470 C   0  0  0  0  0  1  0  0  0  0  0  0
  1  4  1  0  0  0  0
  1 28  1  1  0  0  0
  2  4  2  0  0  0  0
  3  6  2  0  0  0  0
  3  5  1  0  0  0  0
  5 12  1  1  0  0  0
  5  1  1  0  0  0  0
  6  2  1  0  0  0  0
  7 10  1  0  0  0  0
  9 14  1  0  0  0  0
  9  7  2  0  0  0  0
 10  8  2  0  0  0  0
 11  9  1  0  0  0  0
 12  8  1  0  0  0  0
 13 15  1  0  0  0  0
 14 12  2  0  0  0  0
 15 11  2  0  0  0  0
 15 16  1  0  0  0  0
 16 14  1  0  0  0  0
 18 19  2  0  0  0  0
 19  7  1  0  0  0  0
 19 17  1  0  0  0  0
 20 21  2  0  0  0  0
 21  6  1  0  0  0  0
 22 24  1  0  0  0  0
 23 20  1  6  0  0  0
 23 24  1  0  0  0  0
 26 23  1  0  0  0  0
 26 25  1  1  0  0  0
 27 26  1  0  0  0  0
 27 22  1  0  0  0  0
 28 31  1  0  0  0  0
 30 32  1  0  0  0  0
 31 30  2  0  0  0  0
 31 29  1  0  0  0  0
 32 34  1  0  0  0  0
 33 32  2  0  0  0  0
 34 35  1  0  0  0  0
 35 39  1  6  0  0  0
 35 38  1  0  0  0  0
 38 36  1  0  0  0  0
 38 37  1  1  0  0  0
 40 39  1  0  0  0  0
 41 40  1  0  0  0  0
 42 41  1  0  0  0  0
M  END
>  <MODEL>
7

>  <REMARK>
 VINA RESULT:      -7.3      2.774      4.383
  Name = 
  13 active torsions:
  status: ('A' for Active; 'I' for Inactive)
    1  A    between atoms: C_1  and  C_27
    2  A    between atoms: C_3  and  C_22
    3  A    between atoms: N_6  and  C_21
    4  A    between atoms: C_7  and  C_9
    5  A    between atoms: C_15  and  C_25
    6  A    between atoms: C_15  and  C_36
    7  A    between atoms: C_16  and  C_21
    8  A    between atoms: C_16  and  C_25
    9  A    between atoms: C_18  and  C_32
   10  A    between atoms: N_20  and  C_26
   11  A    between atoms: C_22  and  C_34
   12  A    between atoms: C_25  and  C_35
   13  A    between atoms: N_30  and  C_36
                            x       y       z     vdW  Elec       q    Type
                         _______ _______ _______ _____ _____    ______ ____

>  <TORSDO>
F 13

$$$$
=
 OpenBabel10232412033D

 42 45  0  0  1  0  0  0  0  0999 V2000
  190.6570  176.9840  139.4460 C   0  0  1  0  0  3  0  0  0  0  0  0
  193.0940  176.8410  139.0650 C   0  0  0  0  0  3  0  0  0  0  0  0
  191.6020  176.2160  137.2890 N   0  0  0  0  0  0  0  0  0  0  0  0
  192.0870  177.0080  139.9230 C   0  0  0  0  0  3  0  0  0  0  0  0
  190.5140  176.0270  138.2530 C   0  0  2  0  0  3  0  0  0  0  0  0
  192.8100  176.5490  137.6490 C   0  0  0  0  0  0  0  0  0  0  0  0
  186.6890  176.5220  136.2420 C   0  0  0  0  0  0  0  0  0  0  0  0
  188.5940  177.4510  137.4770 C   0  0  0  0  0  3  0  0  0  0  0  0
  187.3050  175.2660  136.3590 C   0  0  0  0  0  0  0  0  0  0  0  0
  187.3580  177.6190  136.8200 C   0  0  0  0  0  3  0  0  0  0  0  0
  186.8730  174.0850  135.8910 N   0  0  0  0  0  0  0  0  0  0  0  0
  189.1880  176.1810  137.5690 C   0  0  0  0  0  0  0  0  0  0  0  0
  187.8150  171.7760  135.9860 C   0  0  0  0  0  1  0  0  0  0  0  0
  188.5030  175.1040  136.9940 C   0  0  0  0  0  0  0  0  0  0  0  0
  187.8550  173.2320  136.2800 C   0  0  0  0  0  0  0  0  0  0  0  0
  188.8760  173.8140  136.9600 N   0  0  0  0  0  2  0  0  0  0  0  0
  185.3680  177.1060  134.3470 O   0  0  0  0  0  0  0  0  0  0  0  0
  184.2070  176.4910  136.2170 O   0  0  0  0  0  1  0  0  0  0  0  0
  185.4020  176.7240  135.5480 C   0  0  0  0  0  0  0  0  0  0  0  0
  194.6680  175.7250  136.2630 C   0  0  0  0  0  3  0  0  0  0  0  0
  193.8760  176.6630  136.6940 N   0  0  0  0  0  0  0  0  0  0  0  0
  196.1880  172.6070  136.1730 C   0  0  0  0  0  2  0  0  0  0  0  0
  194.6270  174.3000  136.7230 C   0  0  1  0  0  3  0  0  0  0  0  0
  195.0460  173.4070  135.5970 C   0  0  0  0  0  2  0  0  0  0  0  0
  195.1230  173.3860  138.8560 F   0  0  0  0  0  0  0  0  0  0  0  0
  195.6780  174.0730  137.7900 C   0  0  1  0  0  3  0  0  0  0  0  0
  196.7370  173.3250  137.2470 O   0  0  0  0  0  0  0  0  0  0  0  0
  189.7230  176.5740  140.5780 C   0  0  0  0  0  2  0  0  0  0  0  0
  188.9330  178.6390  141.8740 C   0  0  0  0  0  1  0  0  0  0  0  0
  190.7820  177.2170  142.6450 N   0  0  0  0  0  0  0  0  0  0  0  0
  189.8670  177.4790  141.7570 C   0  0  0  0  0  0  0  0  0  0  0  0
  191.0750  177.9480  143.8480 C   0  0  0  0  0  0  0  0  0  0  0  0
  191.3890  179.1680  143.8210 O   0  0  0  0  0  0  0  0  0  0  0  0
  191.0010  177.2410  145.1560 C   0  0  0  0  0  2  0  0  0  0  0  0
  189.7360  177.6510  145.9070 C   0  0  2  0  0  3  0  0  0  0  0  0
  189.3420  178.1600  148.2210 O   0  0  0  0  0  1  0  0  0  0  0  0
  191.2320  176.8140  147.7350 C   0  0  0  0  0  1  0  0  0  0  0  0
  189.8020  177.1650  147.3550 C   0  0  2  0  0  3  0  0  0  0  0  0
  188.5090  177.0690  145.2070 C   0  0  0  0  0  2  0  0  0  0  0  0
  187.3270  178.0230  145.2510 C   0  0  0  0  0  2  0  0  0  0  0  0
  186.4160  177.6430  146.3170 N   0  0  0  0  0  2  0  0  0  0  0  0
  185.5800  178.8000  146.5800 C   0  0  0  0  0  1  0  0  0  0  0  0
  1  4  1  0  0  0  0
  1 28  1  1  0  0  0
  2  4  2  0  0  0  0
  3  6  2  0  0  0  0
  3  5  1  0  0  0  0
  5 12  1  6  0  0  0
  5  1  1  0  0  0  0
  6  2  1  0  0  0  0
  7  9  2  0  0  0  0
  7 10  1  0  0  0  0
  8 12  1  0  0  0  0
  9 14  1  0  0  0  0
 10  8  2  0  0  0  0
 11 15  2  0  0  0  0
 11  9  1  0  0  0  0
 13 15  1  0  0  0  0
 14 12  2  0  0  0  0
 15 16  1  0  0  0  0
 16 14  1  0  0  0  0
 17 19  2  0  0  0  0
 19 18  1  0  0  0  0
 19  7  1  0  0  0  0
 20 21  2  0  0  0  0
 21  6  1  0  0  0  0
 22 27  1  0  0  0  0
 23 20  1  6  0  0  0
 23 26  1  0  0  0  0
 24 22  1  0  0  0  0
 24 23  1  0  0  0  0
 26 25  1  1  0  0  0
 27 26  1  0  0  0  0
 28 31  1  0  0  0  0
 30 32  1  0  0  0  0
 31 29  1  0  0  0  0
 31 30  2  0  0  0  0
 32 34  1  0  0  0  0
 33 32  2  0  0  0  0
 35 34  1  6  0  0  0
 35 38  1  0  0  0  0
 38 37  1  1  0  0  0
 38 36  1  0  0  0  0
 39 40  1  0  0  0  0
 39 35  1  0  0  0  0
 40 41  1  0  0  0  0
 41 42  1  0  0  0  0
M  END
>  <MODEL>
8

>  <REMARK>
 VINA RESULT:      -7.2      2.410      6.136
  Name = 
  13 active torsions:
  status: ('A' for Active; 'I' for Inactive)
    1  A    between atoms: C_1  and  C_27
    2  A    between atoms: C_3  and  C_22
    3  A    between atoms: N_6  and  C_21
    4  A    between atoms: C_7  and  C_9
    5  A    between atoms: C_15  and  C_25
    6  A    between atoms: C_15  and  C_36
    7  A    between atoms: C_16  and  C_21
    8  A    between atoms: C_16  and  C_25
    9  A    between atoms: C_18  and  C_32
   10  A    between atoms: N_20  and  C_26
   11  A    between atoms: C_22  and  C_34
   12  A    between atoms: C_25  and  C_35
   13  A    between atoms: N_30  and  C_36
                            x       y       z     vdW  Elec       q    Type
                         _______ _______ _______ _____ _____    ______ ____

>  <TORSDO>
F 13

$$$$
=
 OpenBabel10232412033D

 42 45  0  0  1  0  0  0  0  0999 V2000
  189.0200  177.7050  139.4090 C   0  0  1  0  0  3  0  0  0  0  0  0
  188.5270  178.5690  141.6700 C   0  0  0  0  0  3  0  0  0  0  0  0
  190.6150  177.4450  141.2850 N   0  0  0  0  0  0  0  0  0  0  0  0
  188.0910  178.2910  140.4410 C   0  0  0  0  0  3  0  0  0  0  0  0
  190.0630  176.8050  140.0870 C   0  0  2  0  0  3  0  0  0  0  0  0
  189.9080  178.2270  142.0530 C   0  0  0  0  0  0  0  0  0  0  0  0
  193.3160  175.7150  137.4120 C   0  0  0  0  0  0  0  0  0  0  0  0
  192.4170  177.0720  139.2480 C   0  0  0  0  0  3  0  0  0  0  0  0
  192.0570  175.1000  137.3330 C   0  0  0  0  0  0  0  0  0  0  0  0
  193.4780  176.7180  138.3890 C   0  0  0  0  0  3  0  0  0  0  0  0
  191.6630  174.1240  136.5000 N   0  0  0  0  0  0  0  0  0  0  0  0
  191.1710  176.4290  139.1490 C   0  0  0  0  0  0  0  0  0  0  0  0
  189.5020  172.9080  136.2160 C   0  0  0  0  0  1  0  0  0  0  0  0
  191.0310  175.4420  138.1670 C   0  0  0  0  0  0  0  0  0  0  0  0
  190.3740  173.9160  136.8730 C   0  0  0  0  0  0  0  0  0  0  0  0
  189.9430  174.7020  137.8920 N   0  0  0  0  0  2  0  0  0  0  0  0
  195.1770  176.2420  136.0200 O   0  0  0  0  0  0  0  0  0  0  0  0
  194.7130  174.0170  136.2610 O   0  0  0  0  0  1  0  0  0  0  0  0
  194.4440  175.3530  136.5330 C   0  0  0  0  0  0  0  0  0  0  0  0
  190.2120  178.4280  144.4860 C   0  0  0  0  0  3  0  0  0  0  0  0
  190.4490  178.7890  143.2580 N   0  0  0  0  0  0  0  0  0  0  0  0
  188.2500  177.0640  147.0020 C   0  0  0  0  0  2  0  0  0  0  0  0
  189.2720  177.3320  144.8830 C   0  0  1  0  0  3  0  0  0  0  0  0
  189.5710  176.9120  146.2880 C   0  0  0  0  0  2  0  0  0  0  0  0
  186.9980  177.0010  144.2880 F   0  0  0  0  0  0  0  0  0  0  0  0
  187.8550  177.8670  144.9470 C   0  0  1  0  0  3  0  0  0  0  0  0
  187.4630  177.9850  146.2910 O   0  0  0  0  0  0  0  0  0  0  0  0
  188.2320  176.9200  138.3650 C   0  0  0  0  0  2  0  0  0  0  0  0
  187.2700  178.7960  136.9090 C   0  0  0  0  0  1  0  0  0  0  0  0
  185.8630  177.3610  138.3230 N   0  0  0  0  0  0  0  0  0  0  0  0
  187.0450  177.6900  137.8880 C   0  0  0  0  0  0  0  0  0  0  0  0
  184.6030  177.9610  137.9810 C   0  0  0  0  0  0  0  0  0  0  0  0
  183.9890  177.6540  136.9240 O   0  0  0  0  0  0  0  0  0  0  0  0
  184.0090  178.9680  138.9030 C   0  0  0  0  0  2  0  0  0  0  0  0
  183.8150  178.3630  140.2920 C   0  0  2  0  0  3  0  0  0  0  0  0
  181.7110  177.2050  140.3190 O   0  0  0  0  0  1  0  0  0  0  0  0
  181.6290  179.5500  139.9790 C   0  0  0  0  0  1  0  0  0  0  0  0
  182.3370  178.4000  140.6800 C   0  0  2  0  0  3  0  0  0  0  0  0
  184.6520  179.1340  141.3110 C   0  0  0  0  0  2  0  0  0  0  0  0
  184.5760  178.5060  142.6940 C   0  0  0  0  0  2  0  0  0  0  0  0
  184.6660  179.5340  143.7170 N   0  0  0  0  0  2  0  0  0  0  0  0
  183.8010  179.1140  144.8030 C   0  0  0  0  0  1  0  0  0  0  0  0
  1 28  1  6  0  0  0
  1  5  1  0  0  0  0
  1  4  1  0  0  0  0
  2  6  1  0  0  0  0
  3  6  2  0  0  0  0
  4  2  2  0  0  0  0
  5 12  1  6  0  0  0
  5  3  1  0  0  0  0
  6 21  1  0  0  0  0
  7 10  1  0  0  0  0
  9  7  2  0  0  0  0
  9 14  1  0  0  0  0
 10  8  2  0  0  0  0
 11 15  2  0  0  0  0
 11  9  1  0  0  0  0
 12  8  1  0  0  0  0
 13 15  1  0  0  0  0
 14 12  2  0  0  0  0
 15 16  1  0  0  0  0
 16 14  1  0  0  0  0
 17 19  2  0  0  0  0
 18 19  1  0  0  0  0
 19  7  1  0  0  0  0
 21 20  2  0  0  0  0
 23 20  1  1  0  0  0
 23 26  1  0  0  0  0
 23 24  1  0  0  0  0
 24 22  1  0  0  0  0
 26 25  1  6  0  0  0
 26 27  1  0  0  0  0
 27 22  1  0  0  0  0
 29 31  1  0  0  0  0
 31 30  2  0  0  0  0
 31 28  1  0  0  0  0
 32 30  1  0  0  0  0
 32 34  1  0  0  0  0
 33 32  2  0  0  0  0
 35 34  1  6  0  0  0
 35 38  1  0  0  0  0
 35 39  1  0  0  0  0
 36 38  1  0  0  0  0
 38 37  1  6  0  0  0
 39 40  1  0  0  0  0
 40 41  1  0  0  0  0
 41 42  1  0  0  0  0
M  END
>  <MODEL>
9

>  <REMARK>
 VINA RESULT:      -7.1      2.747      6.459
  Name = 
  13 active torsions:
  status: ('A' for Active; 'I' for Inactive)
    1  A    between atoms: C_1  and  C_27
    2  A    between atoms: C_3  and  C_22
    3  A    between atoms: N_6  and  C_21
    4  A    between atoms: C_7  and  C_9
    5  A    between atoms: C_15  and  C_25
    6  A    between atoms: C_15  and  C_36
    7  A    between atoms: C_16  and  C_21
    8  A    between atoms: C_16  and  C_25
    9  A    between atoms: C_18  and  C_32
   10  A    between atoms: N_20  and  C_26
   11  A    between atoms: C_22  and  C_34
   12  A    between atoms: C_25  and  C_35
   13  A    between atoms: N_30  and  C_36
                            x       y       z     vdW  Elec       q    Type
                         _______ _______ _______ _____ _____    ______ ____

>  <TORSDO>
F 13

$$$$
