=
 OpenBabel10222421473D

 31 33  0  0  1  0  0  0  0  0999 V2000
  182.6030  177.8110  138.8150 C   0  0  0  0  0  0  0  0  0  0  0  0
  187.5150  178.0120  137.5410 C   0  0  0  0  0  3  0  0  0  0  0  0
  184.5880  176.0200  136.0960 C   0  0  2  0  0  3  0  0  0  0  0  0
  182.6200  178.7820  141.1430 C   0  0  0  0  0  2  0  0  0  0  0  0
  182.4430  175.4860  137.2610 C   0  0  0  0  0  3  0  0  0  0  0  0
  190.2200  176.0860  136.5460 O   0  0  0  0  0  0  0  0  0  0  0  0
  183.5300  176.3540  137.1020 C   0  0  0  0  0  0  0  0  0  0  0  0
  186.0080  176.2160  136.6450 C   0  0  1  0  0  3  0  0  0  0  0  0
  183.7800  177.9420  141.6570 C   0  0  0  0  0  2  0  0  0  0  0  0
  186.1750  177.9880  142.3630 C   0  0  1  0  0  3  0  0  0  0  0  0
  181.4390  175.7750  138.1900 C   0  0  0  0  0  3  0  0  0  0  0  0
  183.5980  177.5220  137.8750 C   0  0  0  0  0  3  0  0  0  0  0  0
  185.0740  178.7400  141.6330 C   0  0  0  0  0  2  0  0  0  0  0  0
  186.9720  175.2520  135.9750 C   0  0  0  0  0  2  0  0  0  0  0  0
  188.0530  177.7750  140.7490 C   0  0  0  0  0  2  0  0  0  0  0  0
  187.5200  178.5480  141.9390 C   0  0  0  0  0  2  0  0  0  0  0  0
  189.0590  176.1540  137.0290 C   0  0  0  0  0  0  0  0  0  0  0  0
  184.3350  176.7110  134.7610 C   0  0  0  0  0  1  0  0  0  0  0  0
  181.5190  176.9340  138.9660 C   0  0  0  0  0  3  0  0  0  0  0  0
  182.7260  179.0570  139.6400 C   0  0  2  0  0  3  0  0  0  0  0  0
  186.5150  177.6490  136.4860 C   0  0  0  0  0  2  0  0  0  0  0  0
  188.6570  177.3540  137.7900 C   0  0  0  0  0  0  0  0  0  0  0  0
  189.6370  177.8990  138.7950 C   0  0  0  0  0  2  0  0  0  0  0  0
  189.0010  178.6590  139.9600 C   0  0  0  0  0  2  0  0  0  0  0  0
  188.1500  174.9710  136.8950 C   0  0  0  0  0  2  0  0  0  0  0  0
  181.7380  180.0920  139.2070 C   0  0  0  0  0  0  0  0  0  0  0  0
  180.6470  180.3780  140.0170 O   0  0  0  0  0  1  0  0  0  0  0  0
  181.9050  180.7320  138.1340 O   0  0  0  0  0  0  0  0  0  0  0  0
  185.9950  178.1560  143.8650 C   0  0  0  0  0  2  0  0  0  0  0  0
  187.7020  177.9610  145.4870 O   0  0  0  0  0  0  0  0  0  0  0  0
  187.0460  177.4070  144.6200 C   0  0  0  0  0  3  0  0  0  0  0  0
  1 19  1  0  0  0  0
  1 20  1  0  0  0  0
  2 22  2  0  0  0  0
  3 18  1  6  0  0  0
  3  8  1  0  0  0  0
  3  7  1  0  0  0  0
  4  9  1  0  0  0  0
  5 11  1  0  0  0  0
  6 17  2  0  0  0  0
  7  5  2  0  0  0  0
  7 12  1  0  0  0  0
  8 14  1  6  0  0  0
 10 29  1  1  0  0  0
 11 19  2  0  0  0  0
 12  1  2  0  0  0  0
 13  9  1  0  0  0  0
 13 10  1  0  0  0  0
 14 25  1  0  0  0  0
 15 16  1  0  0  0  0
 16 10  1  0  0  0  0
 17 22  1  0  0  0  0
 20 26  1  6  0  0  0
 20  4  1  0  0  0  0
 21  8  1  0  0  0  0
 21  2  1  0  0  0  0
 22 23  1  0  0  0  0
 23 24  1  0  0  0  0
 24 15  1  0  0  0  0
 25 17  1  0  0  0  0
 26 27  1  0  0  0  0
 28 26  2  0  0  0  0
 29 31  1  0  0  0  0
 31 30  2  0  0  0  0
M  END
>  <MODEL>
1

>  <REMARK>
 VINA RESULT:      -6.7      0.000      0.000
  Name = 
  3 active torsions:
  status: ('A' for Active; 'I' for Inactive)
    1  A    between atoms: C_9  and  C_26
    2  A    between atoms: C_11  and  C_23
    3  A    between atoms: C_23  and  C_24
                            x       y       z     vdW  Elec       q    Type
                         _______ _______ _______ _____ _____    ______ ____

>  <TORSDO>
F 3

$$$$
=
 OpenBabel10222421473D

 31 33  0  0  1  0  0  0  0  0999 V2000
  188.9800  177.8910  143.6780 C   0  0  0  0  0  0  0  0  0  0  0  0
  185.8350  179.1630  139.9000 C   0  0  0  0  0  3  0  0  0  0  0  0
  185.1820  178.2040  143.5430 C   0  0  2  0  0  3  0  0  0  0  0  0
  191.0910  177.2960  142.4320 C   0  0  0  0  0  2  0  0  0  0  0  0
  186.7270  176.9300  145.0380 C   0  0  0  0  0  3  0  0  0  0  0  0
  182.7900  178.4020  138.4280 O   0  0  0  0  0  0  0  0  0  0  0  0
  186.5650  177.8000  143.9530 C   0  0  0  0  0  0  0  0  0  0  0  0
  184.9740  178.1410  142.0230 C   0  0  1  0  0  3  0  0  0  0  0  0
  190.4200  176.4020  141.3990 C   0  0  0  0  0  2  0  0  0  0  0  0
  189.7630  176.1960  138.9990 C   0  0  1  0  0  3  0  0  0  0  0  0
  188.0070  176.5400  145.4430 C   0  0  0  0  0  3  0  0  0  0  0  0
  187.6980  178.2870  143.2840 C   0  0  0  0  0  3  0  0  0  0  0  0
  190.2100  177.1510  140.0930 C   0  0  0  0  0  2  0  0  0  0  0  0
  183.5220  177.8320  141.7000 C   0  0  0  0  0  2  0  0  0  0  0  0
  187.6340  177.1160  138.1070 C   0  0  0  0  0  2  0  0  0  0  0  0
  189.1260  176.9950  137.8760 C   0  0  0  0  0  2  0  0  0  0  0  0
  183.7200  178.0870  139.2150 C   0  0  0  0  0  0  0  0  0  0  0  0
  184.7720  179.5300  144.1740 C   0  0  0  0  0  1  0  0  0  0  0  0
  189.1310  177.0180  144.7650 C   0  0  0  0  0  3  0  0  0  0  0  0
  190.1640  178.4120  142.9200 C   0  0  2  0  0  3  0  0  0  0  0  0
  185.4030  179.4220  141.3100 C   0  0  0  0  0  2  0  0  0  0  0  0
  185.0900  178.5710  138.9540 C   0  0  0  0  0  0  0  0  0  0  0  0
  185.5980  178.4870  137.5380 C   0  0  0  0  0  2  0  0  0  0  0  0
  187.1180  178.3620  137.4110 C   0  0  0  0  0  2  0  0  0  0  0  0
  183.4240  177.1490  140.3450 C   0  0  0  0  0  2  0  0  0  0  0  0
  190.9140  179.4280  143.7210 C   0  0  0  0  0  0  0  0  0  0  0  0
  192.0370  179.0400  144.4400 O   0  0  0  0  0  1  0  0  0  0  0  0
  190.5590  180.6380  143.7210 O   0  0  0  0  0  0  0  0  0  0  0  0
  190.9680  175.4300  138.4690 C   0  0  0  0  0  2  0  0  0  0  0  0
  190.1070  173.5380  137.3460 O   0  0  0  0  0  0  0  0  0  0  0  0
  190.6110  174.6450  137.2480 C   0  0  0  0  0  3  0  0  0  0  0  0
  1 19  1  0  0  0  0
  2 21  1  0  0  0  0
  3  7  1  0  0  0  0
  3 18  1  6  0  0  0
  4 20  1  0  0  0  0
  5 11  1  0  0  0  0
  6 17  2  0  0  0  0
  7  5  2  0  0  0  0
  8 21  1  6  0  0  0
  8  3  1  0  0  0  0
  9  4  1  0  0  0  0
 10 29  1  6  0  0  0
 10 13  1  0  0  0  0
 12  1  2  0  0  0  0
 12  7  1  0  0  0  0
 13  9  1  0  0  0  0
 14  8  1  0  0  0  0
 16 15  1  0  0  0  0
 16 10  1  0  0  0  0
 17 25  1  0  0  0  0
 19 11  2  0  0  0  0
 20  1  1  0  0  0  0
 20 26  1  1  0  0  0
 22 17  1  0  0  0  0
 22  2  2  0  0  0  0
 23 22  1  0  0  0  0
 24 23  1  0  0  0  0
 24 15  1  0  0  0  0
 25 14  1  0  0  0  0
 26 27  1  0  0  0  0
 28 26  2  0  0  0  0
 31 30  2  0  0  0  0
 31 29  1  0  0  0  0
M  END
>  <MODEL>
2

>  <REMARK>
 VINA RESULT:      -6.1      2.244      7.552
  Name = 
  3 active torsions:
  status: ('A' for Active; 'I' for Inactive)
    1  A    between atoms: C_9  and  C_26
    2  A    between atoms: C_11  and  C_23
    3  A    between atoms: C_23  and  C_24
                            x       y       z     vdW  Elec       q    Type
                         _______ _______ _______ _____ _____    ______ ____

>  <TORSDO>
F 3

$$$$
=
 OpenBabel10222421473D

 31 33  0  0  1  0  0  0  0  0999 V2000
  188.3680  177.8700  139.0270 C   0  0  0  0  0  0  0  0  0  0  0  0
  183.9160  175.6590  137.9890 C   0  0  0  0  0  3  0  0  0  0  0  0
  186.6030  177.1620  135.7220 C   0  0  2  0  0  3  0  0  0  0  0  0
  188.1160  178.4480  141.4690 C   0  0  0  0  0  2  0  0  0  0  0  0
  188.3470  178.8210  136.3920 C   0  0  0  0  0  3  0  0  0  0  0  0
  181.1130  175.8500  135.9580 O   0  0  0  0  0  0  0  0  0  0  0  0
  187.5020  177.7660  136.7560 C   0  0  0  0  0  0  0  0  0  0  0  0
  185.1740  176.9410  136.2370 C   0  0  1  0  0  3  0  0  0  0  0  0
  186.7370  179.0800  141.3410 C   0  0  0  0  0  2  0  0  0  0  0  0
  184.3110  178.8030  141.8630 C   0  0  1  0  0  3  0  0  0  0  0  0
  189.1990  179.4010  137.3370 C   0  0  0  0  0  3  0  0  0  0  0  0
  187.5260  177.2860  138.0740 C   0  0  0  0  0  3  0  0  0  0  0  0
  185.6550  178.1000  141.7640 C   0  0  0  0  0  2  0  0  0  0  0  0
  184.1780  177.0440  135.0950 C   0  0  0  0  0  2  0  0  0  0  0  0
  182.7590  177.5360  140.3930 C   0  0  0  0  0  2  0  0  0  0  0  0
  183.2050  177.7630  141.8230 C   0  0  0  0  0  2  0  0  0  0  0  0
  182.1540  176.3860  136.4190 C   0  0  0  0  0  0  0  0  0  0  0  0
  187.2310  175.9300  135.0790 C   0  0  0  0  0  1  0  0  0  0  0  0
  189.2090  178.9270  138.6520 C   0  0  0  0  0  3  0  0  0  0  0  0
  188.3450  177.3460  140.4320 C   0  0  2  0  0  3  0  0  0  0  0  0
  185.0010  175.6060  136.9580 C   0  0  0  0  0  2  0  0  0  0  0  0
  182.6400  176.0030  137.7590 C   0  0  0  0  0  0  0  0  0  0  0  0
  181.6190  175.8930  138.8620 C   0  0  0  0  0  2  0  0  0  0  0  0
  182.1680  176.1440  140.2670 C   0  0  0  0  0  2  0  0  0  0  0  0
  182.8190  177.4710  135.6260 C   0  0  0  0  0  2  0  0  0  0  0  0
  189.5820  176.5630  140.7370 C   0  0  0  0  0  0  0  0  0  0  0  0
  189.8950  176.2650  142.0570 O   0  0  0  0  0  1  0  0  0  0  0  0
  190.3220  176.1400  139.8080 O   0  0  0  0  0  0  0  0  0  0  0  0
  184.2400  179.5820  143.1690 C   0  0  0  0  0  2  0  0  0  0  0  0
  183.5790  179.1500  145.3960 O   0  0  0  0  0  0  0  0  0  0  0  0
  183.5480  178.7890  144.2310 C   0  0  0  0  0  3  0  0  0  0  0  0
  1 20  1  0  0  0  0
  3 18  1  1  0  0  0
  3  8  1  0  0  0  0
  3  7  1  0  0  0  0
  5  7  2  0  0  0  0
  5 11  1  0  0  0  0
  6 17  2  0  0  0  0
  7 12  1  0  0  0  0
  8 14  1  6  0  0  0
  8 21  1  0  0  0  0
  9  4  1  0  0  0  0
  9 13  1  0  0  0  0
 10 29  1  1  0  0  0
 11 19  2  0  0  0  0
 12  1  2  0  0  0  0
 13 10  1  0  0  0  0
 14 25  1  0  0  0  0
 15 16  1  0  0  0  0
 16 10  1  0  0  0  0
 17 22  1  0  0  0  0
 19  1  1  0  0  0  0
 20 26  1  1  0  0  0
 20  4  1  0  0  0  0
 21  2  1  0  0  0  0
 22  2  2  0  0  0  0
 22 23  1  0  0  0  0
 23 24  1  0  0  0  0
 24 15  1  0  0  0  0
 25 17  1  0  0  0  0
 26 27  1  0  0  0  0
 28 26  2  0  0  0  0
 29 31  1  0  0  0  0
 31 30  2  0  0  0  0
M  END
>  <MODEL>
3

>  <REMARK>
 VINA RESULT:      -6.0      2.244      5.890
  Name = 
  3 active torsions:
  status: ('A' for Active; 'I' for Inactive)
    1  A    between atoms: C_9  and  C_26
    2  A    between atoms: C_11  and  C_23
    3  A    between atoms: C_23  and  C_24
                            x       y       z     vdW  Elec       q    Type
                         _______ _______ _______ _____ _____    ______ ____

>  <TORSDO>
F 3

$$$$
=
 OpenBabel10222421473D

 31 33  0  0  1  0  0  0  0  0999 V2000
  187.6830  176.6280  136.6480 C   0  0  0  0  0  0  0  0  0  0  0  0
  187.1470  178.6770  141.2630 C   0  0  0  0  0  3  0  0  0  0  0  0
  189.9190  176.5320  139.7340 C   0  0  2  0  0  3  0  0  0  0  0  0
  185.3250  176.7100  135.7550 C   0  0  0  0  0  2  0  0  0  0  0  0
  189.7040  175.0320  137.7480 C   0  0  0  0  0  3  0  0  0  0  0  0
  187.6030  178.0850  144.6480 O   0  0  0  0  0  0  0  0  0  0  0  0
  189.2780  176.1790  138.4270 C   0  0  0  0  0  0  0  0  0  0  0  0
  188.8960  176.9360  140.8040 C   0  0  1  0  0  3  0  0  0  0  0  0
  184.6650  176.1230  136.9960 C   0  0  0  0  0  2  0  0  0  0  0  0
  183.2070  176.6240  138.9590 C   0  0  1  0  0  3  0  0  0  0  0  0
  189.1250  174.6810  136.5240 C   0  0  0  0  0  3  0  0  0  0  0  0
  188.2740  176.9810  137.8650 C   0  0  0  0  0  3  0  0  0  0  0  0
  184.0640  177.2230  137.8560 C   0  0  0  0  0  2  0  0  0  0  0  0
  189.4110  176.5840  142.1890 C   0  0  0  0  0  2  0  0  0  0  0  0
  184.0980  177.5320  141.0940 C   0  0  0  0  0  2  0  0  0  0  0  0
  183.0090  177.6630  140.0490 C   0  0  0  0  0  2  0  0  0  0  0  0
  187.5360  177.6430  143.4720 C   0  0  0  0  0  0  0  0  0  0  0  0
  191.0580  177.5300  139.5520 C   0  0  0  0  0  1  0  0  0  0  0  0
  188.1160  175.4760  135.9750 C   0  0  0  0  0  3  0  0  0  0  0  0
  186.5930  177.4970  136.0930 C   0  0  2  0  0  3  0  0  0  0  0  0
  188.5310  178.4190  140.7490 C   0  0  0  0  0  2  0  0  0  0  0  0
  186.6930  178.3380  142.4790 C   0  0  0  0  0  0  0  0  0  0  0  0
  185.3180  178.7710  142.9170 C   0  0  0  0  0  2  0  0  0  0  0  0
  184.2900  178.8680  141.7890 C   0  0  0  0  0  2  0  0  0  0  0  0
  188.2440  176.3640  143.1390 C   0  0  0  0  0  2  0  0  0  0  0  0
  187.0750  178.2810  134.9140 C   0  0  0  0  0  0  0  0  0  0  0  0
  188.3510  178.0550  134.4160 O   0  0  0  0  0  1  0  0  0  0  0  0
  186.3210  179.1170  134.3460 O   0  0  0  0  0  0  0  0  0  0  0  0
  181.8570  176.2120  138.3880 C   0  0  0  0  0  2  0  0  0  0  0  0
  180.5780  174.8200  139.8040 O   0  0  0  0  0  0  0  0  0  0  0  0
  180.8660  175.9600  139.4780 C   0  0  0  0  0  3  0  0  0  0  0  0
  1 12  1  0  0  0  0
  2 22  2  0  0  0  0
  3 18  1  6  0  0  0
  3  8  1  0  0  0  0
  4 20  1  0  0  0  0
  4  9  1  0  0  0  0
  5  7  1  0  0  0  0
  7  3  1  0  0  0  0
  8 21  1  1  0  0  0
  8 14  1  0  0  0  0
  9 13  1  0  0  0  0
 10 29  1  6  0  0  0
 10 16  1  0  0  0  0
 11  5  2  0  0  0  0
 12  7  2  0  0  0  0
 13 10  1  0  0  0  0
 14 25  1  0  0  0  0
 15 24  1  0  0  0  0
 16 15  1  0  0  0  0
 17  6  2  0  0  0  0
 19 11  1  0  0  0  0
 19  1  2  0  0  0  0
 20 26  1  6  0  0  0
 20  1  1  0  0  0  0
 21  2  1  0  0  0  0
 22 23  1  0  0  0  0
 22 17  1  0  0  0  0
 24 23  1  0  0  0  0
 25 17  1  0  0  0  0
 27 26  1  0  0  0  0
 28 26  2  0  0  0  0
 29 31  1  0  0  0  0
 31 30  2  0  0  0  0
M  END
>  <MODEL>
4

>  <REMARK>
 VINA RESULT:      -5.9      1.974      6.482
  Name = 
  3 active torsions:
  status: ('A' for Active; 'I' for Inactive)
    1  A    between atoms: C_9  and  C_26
    2  A    between atoms: C_11  and  C_23
    3  A    between atoms: C_23  and  C_24
                            x       y       z     vdW  Elec       q    Type
                         _______ _______ _______ _____ _____    ______ ____

>  <TORSDO>
F 3

$$$$
=
 OpenBabel10222421473D

 31 33  0  0  1  0  0  0  0  0999 V2000
  187.2030  176.3070  136.5780 C   0  0  0  0  0  0  0  0  0  0  0  0
  183.3570  177.1890  139.7750 C   0  0  0  0  0  3  0  0  0  0  0  0
  183.6090  177.4260  135.9670 C   0  0  2  0  0  3  0  0  0  0  0  0
  189.1990  176.3760  138.1190 C   0  0  0  0  0  2  0  0  0  0  0  0
  185.7100  177.6640  134.6350 C   0  0  0  0  0  3  0  0  0  0  0  0
  180.7040  179.3230  140.4260 O   0  0  0  0  0  0  0  0  0  0  0  0
  185.0790  177.1950  135.7930 C   0  0  0  0  0  0  0  0  0  0  0  0
  183.2520  177.9180  137.3760 C   0  0  1  0  0  3  0  0  0  0  0  0
  188.8120  177.6700  138.8220 C   0  0  0  0  0  2  0  0  0  0  0  0
  187.9920  178.6610  140.9610 C   0  0  1  0  0  3  0  0  0  0  0  0
  187.0800  177.4580  134.4460 C   0  0  0  0  0  3  0  0  0  0  0  0
  185.8300  176.5050  136.7570 C   0  0  0  0  0  3  0  0  0  0  0  0
  188.1580  177.3790  140.1620 C   0  0  0  0  0  2  0  0  0  0  0  0
  182.0140  178.7970  137.3320 C   0  0  0  0  0  2  0  0  0  0  0  0
  185.5770  178.8110  141.5310 C   0  0  0  0  0  2  0  0  0  0  0  0
  186.9520  178.4360  142.0450 C   0  0  0  0  0  2  0  0  0  0  0  0
  181.7760  179.0850  139.8100 C   0  0  0  0  0  0  0  0  0  0  0  0
  182.7900  176.2290  135.4980 C   0  0  0  0  0  1  0  0  0  0  0  0
  187.8250  176.7820  135.4150 C   0  0  0  0  0  3  0  0  0  0  0  0
  187.9750  175.5880  137.6440 C   0  0  2  0  0  3  0  0  0  0  0  0
  183.0410  176.7770  138.3700 C   0  0  0  0  0  2  0  0  0  0  0  0
  182.7950  178.2160  140.4300 C   0  0  0  0  0  0  0  0  0  0  0  0
  183.1100  178.4440  141.8850 C   0  0  0  0  0  2  0  0  0  0  0  0
  184.5240  178.0380  142.3040 C   0  0  0  0  0  2  0  0  0  0  0  0
  182.0230  179.7700  138.5000 C   0  0  0  0  0  2  0  0  0  0  0  0
  188.3560  174.2110  137.2010 C   0  0  0  0  0  0  0  0  0  0  0  0
  189.6690  173.7850  137.3450 O   0  0  0  0  0  1  0  0  0  0  0  0
  187.4900  173.4240  136.7330 O   0  0  0  0  0  0  0  0  0  0  0  0
  189.3230  179.0430  141.5930 C   0  0  0  0  0  2  0  0  0  0  0  0
  190.1150  178.3980  143.7240 O   0  0  0  0  0  0  0  0  0  0  0  0
  189.7370  178.0390  142.6210 C   0  0  0  0  0  3  0  0  0  0  0  0
  1 12  1  0  0  0  0
  1 20  1  0  0  0  0
  2 22  2  0  0  0  0
  3 18  1  1  0  0  0
  3  8  1  0  0  0  0
  4  9  1  0  0  0  0
  5  7  1  0  0  0  0
  7  3  1  0  0  0  0
  7 12  2  0  0  0  0
  8 14  1  6  0  0  0
  8 21  1  0  0  0  0
  9 13  1  0  0  0  0
 10 29  1  1  0  0  0
 10 16  1  0  0  0  0
 11  5  2  0  0  0  0
 11 19  1  0  0  0  0
 13 10  1  0  0  0  0
 14 25  1  0  0  0  0
 15 16  1  0  0  0  0
 15 24  1  0  0  0  0
 17  6  2  0  0  0  0
 17 22  1  0  0  0  0
 19  1  2  0  0  0  0
 20 26  1  6  0  0  0
 20  4  1  0  0  0  0
 21  2  1  0  0  0  0
 22 23  1  0  0  0  0
 23 24  1  0  0  0  0
 25 17  1  0  0  0  0
 26 27  1  0  0  0  0
 28 26  2  0  0  0  0
 29 31  1  0  0  0  0
 31 30  2  0  0  0  0
M  END
>  <MODEL>
5

>  <REMARK>
 VINA RESULT:      -5.6      1.568      6.037
  Name = 
  3 active torsions:
  status: ('A' for Active; 'I' for Inactive)
    1  A    between atoms: C_9  and  C_26
    2  A    between atoms: C_11  and  C_23
    3  A    between atoms: C_23  and  C_24
                            x       y       z     vdW  Elec       q    Type
                         _______ _______ _______ _____ _____    ______ ____

>  <TORSDO>
F 3

$$$$
=
 OpenBabel10222421473D

 31 33  0  0  1  0  0  0  0  0999 V2000
  184.0860  178.1740  141.5850 C   0  0  0  0  0  0  0  0  0  0  0  0
  188.7720  176.3280  142.2390 C   0  0  0  0  0  3  0  0  0  0  0  0
  186.3700  178.0890  144.6380 C   0  0  2  0  0  3  0  0  0  0  0  0
  183.9310  178.3460  139.0730 C   0  0  0  0  0  2  0  0  0  0  0  0
  184.4460  179.5500  143.9980 C   0  0  0  0  0  3  0  0  0  0  0  0
  191.8320  176.9550  143.7430 O   0  0  0  0  0  0  0  0  0  0  0  0
  185.2890  178.4800  143.6760 C   0  0  0  0  0  0  0  0  0  0  0  0
  187.7150  177.8380  143.9430 C   0  0  1  0  0  3  0  0  0  0  0  0
  185.2720  179.0400  138.8780 C   0  0  0  0  0  2  0  0  0  0  0  0
  187.6030  178.7680  138.0280 C   0  0  1  0  0  3  0  0  0  0  0  0
  183.4270  179.9330  143.1210 C   0  0  0  0  0  3  0  0  0  0  0  0
  185.0960  177.7870  142.4720 C   0  0  0  0  0  3  0  0  0  0  0  0
  186.3360  178.0430  138.4500 C   0  0  0  0  0  2  0  0  0  0  0  0
  188.8640  178.1640  144.8810 C   0  0  0  0  0  2  0  0  0  0  0  0
  189.4350  177.8200  139.4150 C   0  0  0  0  0  2  0  0  0  0  0  0
  188.7640  177.7900  138.0570 C   0  0  0  0  0  2  0  0  0  0  0  0
  190.7020  177.3690  143.3740 C   0  0  0  0  0  0  0  0  0  0  0  0
  185.9230  176.9590  145.5590 C   0  0  0  0  0  1  0  0  0  0  0  0
  183.2480  179.2480  141.9160 C   0  0  0  0  0  3  0  0  0  0  0  0
  183.9290  177.4240  140.2950 C   0  0  2  0  0  3  0  0  0  0  0  0
  187.8600  176.4080  143.4250 C   0  0  0  0  0  2  0  0  0  0  0  0
  190.0440  176.7510  142.2060 C   0  0  0  0  0  0  0  0  0  0  0  0
  190.8920  176.4960  140.9870 C   0  0  0  0  0  2  0  0  0  0  0  0
  190.1220  176.4900  139.6650 C   0  0  0  0  0  2  0  0  0  0  0  0
  190.0990  178.5460  144.0800 C   0  0  0  0  0  2  0  0  0  0  0  0
  182.7110  176.5570  140.3180 C   0  0  0  0  0  0  0  0  0  0  0  0
  181.5580  177.0140  140.9430 O   0  0  0  0  0  1  0  0  0  0  0  0
  182.7100  175.4340  139.7460 O   0  0  0  0  0  0  0  0  0  0  0  0
  187.4280  179.3210  136.6210 C   0  0  0  0  0  2  0  0  0  0  0  0
  186.8270  178.4750  134.4990 O   0  0  0  0  0  0  0  0  0  0  0  0
  187.1840  178.2220  135.6380 C   0  0  0  0  0  3  0  0  0  0  0  0
  1 19  2  0  0  0  0
  1 12  1  0  0  0  0
  2 21  1  0  0  0  0
  3 18  1  6  0  0  0
  4 20  1  0  0  0  0
  7  5  1  0  0  0  0
  7  3  1  0  0  0  0
  8 21  1  1  0  0  0
  8  3  1  0  0  0  0
  8 14  1  0  0  0  0
  9  4  1  0  0  0  0
 10 29  1  6  0  0  0
 10 16  1  0  0  0  0
 10 13  1  0  0  0  0
 11  5  2  0  0  0  0
 12  7  2  0  0  0  0
 13  9  1  0  0  0  0
 15 24  1  0  0  0  0
 16 15  1  0  0  0  0
 17  6  2  0  0  0  0
 17 25  1  0  0  0  0
 19 11  1  0  0  0  0
 20 26  1  1  0  0  0
 20  1  1  0  0  0  0
 22  2  2  0  0  0  0
 22 17  1  0  0  0  0
 23 22  1  0  0  0  0
 24 23  1  0  0  0  0
 25 14  1  0  0  0  0
 26 27  1  0  0  0  0
 28 26  2  0  0  0  0
 30 31  2  0  0  0  0
 31 29  1  0  0  0  0
M  END
>  <MODEL>
6

>  <REMARK>
 VINA RESULT:      -5.4      2.478      6.322
  Name = 
  3 active torsions:
  status: ('A' for Active; 'I' for Inactive)
    1  A    between atoms: C_9  and  C_26
    2  A    between atoms: C_11  and  C_23
    3  A    between atoms: C_23  and  C_24
                            x       y       z     vdW  Elec       q    Type
                         _______ _______ _______ _____ _____    ______ ____

>  <TORSDO>
F 3

$$$$
=
 OpenBabel10222421473D

 31 33  0  0  1  0  0  0  0  0999 V2000
  185.0420  175.4740  136.3460 C   0  0  0  0  0  0  0  0  0  0  0  0
  183.1700  177.1820  140.7460 C   0  0  0  0  0  3  0  0  0  0  0  0
  181.6050  176.8390  137.2740 C   0  0  2  0  0  3  0  0  0  0  0  0
  187.5290  175.5700  136.7550 C   0  0  0  0  0  2  0  0  0  0  0  0
  182.8360  176.6740  135.1060 C   0  0  0  0  0  3  0  0  0  0  0  0
  181.1750  179.6380  142.1630 O   0  0  0  0  0  0  0  0  0  0  0  0
  182.8160  176.4420  136.4860 C   0  0  0  0  0  0  0  0  0  0  0  0
  181.9620  177.5630  138.5800 C   0  0  1  0  0  3  0  0  0  0  0  0
  187.5420  176.9840  137.3200 C   0  0  0  0  0  2  0  0  0  0  0  0
  187.8430  178.3510  139.3870 C   0  0  1  0  0  3  0  0  0  0  0  0
  183.9510  176.3090  134.3460 C   0  0  0  0  0  3  0  0  0  0  0  0
  183.9190  175.8290  137.0990 C   0  0  0  0  0  3  0  0  0  0  0  0
  187.5910  176.9560  138.8390 C   0  0  0  0  0  2  0  0  0  0  0  0
  180.8650  178.5430  138.9590 C   0  0  0  0  0  2  0  0  0  0  0  0
  185.9840  178.8170  140.9690 C   0  0  0  0  0  2  0  0  0  0  0  0
  187.4320  178.3890  140.8490 C   0  0  0  0  0  2  0  0  0  0  0  0
  181.8260  179.2090  141.1750 C   0  0  0  0  0  0  0  0  0  0  0  0
  180.6400  175.6720  137.4520 C   0  0  0  0  0  1  0  0  0  0  0  0
  185.0530  175.7110  134.9640 C   0  0  0  0  0  3  0  0  0  0  0  0
  186.2120  174.8450  137.0430 C   0  0  2  0  0  3  0  0  0  0  0  0
  182.2230  176.6040  139.7400 C   0  0  0  0  0  2  0  0  0  0  0  0
  183.0010  178.3440  141.3960 C   0  0  0  0  0  0  0  0  0  0  0  0
  183.9680  178.7490  142.4780 C   0  0  0  0  0  2  0  0  0  0  0  0
  185.4050  178.2720  142.2620 C   0  0  0  0  0  2  0  0  0  0  0  0
  181.4410  179.6690  139.8020 C   0  0  0  0  0  2  0  0  0  0  0  0
  186.3140  173.3880  136.7220 C   0  0  0  0  0  0  0  0  0  0  0  0
  185.3170  172.5220  137.1500 O   0  0  0  0  0  1  0  0  0  0  0  0
  187.2750  172.9460  136.0360 O   0  0  0  0  0  0  0  0  0  0  0  0
  189.3220  178.6880  139.2580 C   0  0  0  0  0  2  0  0  0  0  0  0
  191.0390  177.6070  140.4690 O   0  0  0  0  0  0  0  0  0  0  0  0
  190.1740  177.5120  139.6130 C   0  0  0  0  0  3  0  0  0  0  0  0
  1 20  1  0  0  0  0
  1 12  1  0  0  0  0
  2 22  2  0  0  0  0
  3 18  1  1  0  0  0
  3  8  1  0  0  0  0
  4 20  1  0  0  0  0
  4  9  1  0  0  0  0
  5  7  1  0  0  0  0
  7 12  2  0  0  0  0
  7  3  1  0  0  0  0
  8 14  1  1  0  0  0
  8 21  1  0  0  0  0
  9 13  1  0  0  0  0
 10 29  1  1  0  0  0
 10 16  1  0  0  0  0
 11 19  1  0  0  0  0
 11  5  2  0  0  0  0
 13 10  1  0  0  0  0
 14 25  1  0  0  0  0
 15 24  1  0  0  0  0
 16 15  1  0  0  0  0
 17 22  1  0  0  0  0
 17  6  2  0  0  0  0
 19  1  2  0  0  0  0
 20 26  1  6  0  0  0
 21  2  1  0  0  0  0
 22 23  1  0  0  0  0
 24 23  1  0  0  0  0
 25 17  1  0  0  0  0
 26 27  1  0  0  0  0
 28 26  2  0  0  0  0
 29 31  1  0  0  0  0
 31 30  2  0  0  0  0
M  END
>  <MODEL>
7

>  <REMARK>
 VINA RESULT:      -5.3      1.957      6.128
  Name = 
  3 active torsions:
  status: ('A' for Active; 'I' for Inactive)
    1  A    between atoms: C_9  and  C_26
    2  A    between atoms: C_11  and  C_23
    3  A    between atoms: C_23  and  C_24
                            x       y       z     vdW  Elec       q    Type
                         _______ _______ _______ _____ _____    ______ ____

>  <TORSDO>
F 3

$$$$
=
 OpenBabel10222421473D

 31 33  0  0  1  0  0  0  0  0999 V2000
  188.3010  177.8790  139.4610 C   0  0  0  0  0  0  0  0  0  0  0  0
  184.4010  175.1560  137.6830 C   0  0  0  0  0  3  0  0  0  0  0  0
  187.3910  176.7690  135.9280 C   0  0  2  0  0  3  0  0  0  0  0  0
  187.4580  178.5930  141.7290 C   0  0  0  0  0  2  0  0  0  0  0  0
  188.7910  178.6410  136.8110 C   0  0  0  0  0  3  0  0  0  0  0  0
  182.1200  174.9180  135.0830 O   0  0  0  0  0  0  0  0  0  0  0  0
  187.9790  177.5320  137.0760 C   0  0  0  0  0  0  0  0  0  0  0  0
  185.9060  176.4380  136.1390 C   0  0  1  0  0  3  0  0  0  0  0  0
  186.0940  179.0690  141.2490 C   0  0  0  0  0  2  0  0  0  0  0  0
  183.6460  178.5810  141.2540 C   0  0  1  0  0  3  0  0  0  0  0  0
  189.3560  179.3680  137.8630 C   0  0  0  0  0  3  0  0  0  0  0  0
  187.7480  177.1480  138.4050 C   0  0  0  0  0  3  0  0  0  0  0  0
  185.0320  178.0140  141.5120 C   0  0  0  0  0  2  0  0  0  0  0  0
  185.1870  176.3600  134.8030 C   0  0  0  0  0  2  0  0  0  0  0  0
  182.5770  177.0630  139.6010 C   0  0  0  0  0  2  0  0  0  0  0  0
  182.6700  177.4320  141.0680 C   0  0  0  0  0  2  0  0  0  0  0  0
  182.9810  175.5890  135.7090 C   0  0  0  0  0  0  0  0  0  0  0  0
  188.2490  175.5670  135.5500 C   0  0  0  0  0  1  0  0  0  0  0  0
  189.1110  178.9890  139.1850 C   0  0  0  0  0  3  0  0  0  0  0  0
  188.0070  177.4520  140.8680 C   0  0  2  0  0  3  0  0  0  0  0  0
  185.6900  175.1440  136.9210 C   0  0  0  0  0  2  0  0  0  0  0  0
  183.1840  175.3500  137.1520 C   0  0  0  0  0  0  0  0  0  0  0  0
  181.9550  175.2100  138.0120 C   0  0  0  0  0  2  0  0  0  0  0  0
  182.1510  175.6120  139.4750 C   0  0  0  0  0  2  0  0  0  0  0  0
  183.7120  176.6790  134.9860 C   0  0  0  0  0  2  0  0  0  0  0  0
  189.2060  176.8230  141.5040 C   0  0  0  0  0  0  0  0  0  0  0  0
  190.1330  176.1610  140.7100 O   0  0  0  0  0  0  0  0  0  0  0  0
  189.4020  176.9200  142.7460 O   0  0  0  0  0  1  0  0  0  0  0  0
  183.2170  179.4350  142.4390 C   0  0  0  0  0  2  0  0  0  0  0  0
  183.8920  179.4500  144.7030 O   0  0  0  0  0  0  0  0  0  0  0  0
  183.5780  178.7800  143.7330 C   0  0  0  0  0  3  0  0  0  0  0  0
  1 20  1  0  0  0  0
  3 18  1  1  0  0  0
  3  8  1  0  0  0  0
  3  7  1  0  0  0  0
  5  7  2  0  0  0  0
  5 11  1  0  0  0  0
  6 17  2  0  0  0  0
  7 12  1  0  0  0  0
  8 14  1  6  0  0  0
  8 21  1  0  0  0  0
  9 13  1  0  0  0  0
  9  4  1  0  0  0  0
 10 13  1  0  0  0  0
 10 29  1  1  0  0  0
 11 19  2  0  0  0  0
 12  1  2  0  0  0  0
 14 25  1  0  0  0  0
 15 16  1  0  0  0  0
 16 10  1  0  0  0  0
 17 22  1  0  0  0  0
 19  1  1  0  0  0  0
 20 26  1  1  0  0  0
 20  4  1  0  0  0  0
 21  2  1  0  0  0  0
 22  2  2  0  0  0  0
 22 23  1  0  0  0  0
 23 24  1  0  0  0  0
 24 15  1  0  0  0  0
 25 17  1  0  0  0  0
 26 28  1  0  0  0  0
 27 26  2  0  0  0  0
 29 31  1  0  0  0  0
 31 30  2  0  0  0  0
M  END
>  <MODEL>
8

>  <REMARK>
 VINA RESULT:      -5.1      2.305      5.827
  Name = 
  3 active torsions:
  status: ('A' for Active; 'I' for Inactive)
    1  A    between atoms: C_9  and  C_26
    2  A    between atoms: C_11  and  C_23
    3  A    between atoms: C_23  and  C_24
                            x       y       z     vdW  Elec       q    Type
                         _______ _______ _______ _____ _____    ______ ____

>  <TORSDO>
F 3

$$$$
=
 OpenBabel10222421473D

 31 33  0  0  1  0  0  0  0  0999 V2000
  187.6010  177.4960  138.0740 C   0  0  0  0  0  0  0  0  0  0  0  0
  185.2520  179.2150  142.2350 C   0  0  0  0  0  3  0  0  0  0  0  0
  188.7900  177.8750  141.6770 C   0  0  2  0  0  3  0  0  0  0  0  0
  185.6630  177.0120  136.5340 C   0  0  0  0  0  2  0  0  0  0  0  0
  189.5420  176.4240  139.7860 C   0  0  0  0  0  3  0  0  0  0  0  0
  184.8310  178.6600  145.6310 O   0  0  0  0  0  0  0  0  0  0  0  0
  188.6660  177.4090  140.2590 C   0  0  0  0  0  0  0  0  0  0  0  0
  187.4310  177.9800  142.3850 C   0  0  1  0  0  3  0  0  0  0  0  0
  184.8360  176.2440  137.5560 C   0  0  0  0  0  2  0  0  0  0  0  0
  182.7910  176.3090  138.9870 C   0  0  1  0  0  3  0  0  0  0  0  0
  189.4510  175.9750  138.4660 C   0  0  0  0  0  3  0  0  0  0  0  0
  187.7050  177.9510  139.3930 C   0  0  0  0  0  3  0  0  0  0  0  0
  183.7580  177.1340  138.1520 C   0  0  0  0  0  2  0  0  0  0  0  0
  187.5890  177.7280  143.8740 C   0  0  0  0  0  2  0  0  0  0  0  0
  182.7670  177.3500  141.2430 C   0  0  0  0  0  2  0  0  0  0  0  0
  182.0340  177.2350  139.9220 C   0  0  0  0  0  2  0  0  0  0  0  0
  185.2210  178.2490  144.5070 C   0  0  0  0  0  0  0  0  0  0  0  0
  189.6480  179.1300  141.7870 C   0  0  0  0  0  1  0  0  0  0  0  0
  188.4820  176.5080  137.6110 C   0  0  0  0  0  3  0  0  0  0  0  0
  186.5420  178.0810  137.1880 C   0  0  2  0  0  3  0  0  0  0  0  0
  186.7440  179.3250  142.1570 C   0  0  0  0  0  2  0  0  0  0  0  0
  184.5610  178.7390  143.2810 C   0  0  0  0  0  0  0  0  0  0  0  0
  183.0560  178.8020  143.2820 C   0  0  0  0  0  2  0  0  0  0  0  0
  182.4110  178.6720  141.9000 C   0  0  0  0  0  2  0  0  0  0  0  0
  186.2880  177.1970  144.4540 C   0  0  0  0  0  2  0  0  0  0  0  0
  187.1380  178.9930  136.1630 C   0  0  0  0  0  0  0  0  0  0  0  0
  187.2800  178.5520  134.8540 O   0  0  0  0  0  0  0  0  0  0  0  0
  187.4780  180.1680  136.4680 O   0  0  0  0  0  1  0  0  0  0  0  0
  181.8130  175.5900  138.0690 C   0  0  0  0  0  2  0  0  0  0  0  0
  180.0950  174.2090  138.9180 O   0  0  0  0  0  0  0  0  0  0  0  0
  180.5090  175.3450  138.7580 C   0  0  0  0  0  3  0  0  0  0  0  0
  1 12  1  0  0  0  0
  2 22  2  0  0  0  0
  3 18  1  6  0  0  0
  3  8  1  0  0  0  0
  4 20  1  0  0  0  0
  4  9  1  0  0  0  0
  5  7  1  0  0  0  0
  7  3  1  0  0  0  0
  8 21  1  1  0  0  0
  8 14  1  0  0  0  0
  9 13  1  0  0  0  0
 10 29  1  6  0  0  0
 10 16  1  0  0  0  0
 11  5  2  0  0  0  0
 12  7  2  0  0  0  0
 13 10  1  0  0  0  0
 14 25  1  0  0  0  0
 15 24  1  0  0  0  0
 16 15  1  0  0  0  0
 17  6  2  0  0  0  0
 19  1  2  0  0  0  0
 19 11  1  0  0  0  0
 20 26  1  6  0  0  0
 20  1  1  0  0  0  0
 21  2  1  0  0  0  0
 22 23  1  0  0  0  0
 22 17  1  0  0  0  0
 24 23  1  0  0  0  0
 25 17  1  0  0  0  0
 26 28  1  0  0  0  0
 27 26  2  0  0  0  0
 29 31  1  0  0  0  0
 31 30  2  0  0  0  0
M  END
>  <MODEL>
9

>  <REMARK>
 VINA RESULT:      -5.1      2.202      7.104
  Name = 
  3 active torsions:
  status: ('A' for Active; 'I' for Inactive)
    1  A    between atoms: C_9  and  C_26
    2  A    between atoms: C_11  and  C_23
    3  A    between atoms: C_23  and  C_24
                            x       y       z     vdW  Elec       q    Type
                         _______ _______ _______ _____ _____    ______ ____

>  <TORSDO>
F 3

$$$$
