=
 OpenBabel10232411453D

 27 28  0  0  1  0  0  0  0  0999 V2000
  190.7980  177.3130  144.8090 C   0  0  0  0  0  0  0  0  0  0  0  0
  186.9810  177.9710  147.5090 C   0  0  0  0  0  3  0  0  0  0  0  0
  189.0830  177.1450  146.9870 C   0  0  0  0  0  0  0  0  0  0  0  0
  188.6930  177.8300  145.8710 C   0  0  0  0  0  0  0  0  0  0  0  0
  189.1330  178.6560  143.6370 O   0  0  0  0  0  1  0  0  0  0  0  0
  189.5360  177.9410  144.7600 C   0  0  0  0  0  0  0  0  0  0  0  0
  191.1820  176.5980  145.9600 C   0  0  0  0  0  3  0  0  0  0  0  0
  190.3220  176.5120  147.0670 C   0  0  0  0  0  3  0  0  0  0  0  0
  187.3360  178.4040  146.0680 C   0  0  1  0  0  3  0  0  0  0  0  0
  188.1060  177.1780  148.0030 N   0  0  0  0  0  0  0  0  0  0  0  0
  186.3550  177.7780  145.0850 C   0  0  0  0  0  2  0  0  0  0  0  0
  185.5840  178.8490  144.3270 C   0  0  0  0  0  2  0  0  0  0  0  0
  183.2760  178.4770  143.8060 O   0  0  0  0  0  1  0  0  0  0  0  0
  184.5780  178.2210  143.3720 C   0  0  1  0  0  3  0  0  0  0  0  0
  185.5920  179.6300  141.7690 O   0  0  0  0  0  0  0  0  0  0  0  0
  184.7660  178.7570  141.9880 C   0  0  0  0  0  0  0  0  0  0  0  0
  183.9460  178.2030  140.8710 C   0  0  0  0  0  2  0  0  0  0  0  0
  184.3010  180.2950  139.1530 O   0  0  0  0  0  1  0  0  0  0  0  0
  186.2120  178.5090  139.1480 O   0  0  0  0  0  1  0  0  0  0  0  0
  184.5510  178.8080  139.2670 P   0  0  0  0  0  0  0  0  0  0  0  0
  183.7470  178.0030  138.0160 O   0  0  0  0  0  0  0  0  0  0  0  0
  191.7270  177.3700  143.6400 C   0  0  0  0  0  2  0  0  0  0  0  0
  190.4690  175.6570  142.5690 O   0  0  0  0  0  0  0  0  0  0  0  0
  191.1920  177.3880  141.1740 N   0  0  0  0  0  2  0  0  0  0  0  0
  191.1000  176.7410  142.4430 C   0  0  0  0  0  0  0  0  0  0  0  0
  190.5990  176.8560  140.0200 C   0  0  0  0  0  0  0  0  0  0  0  0
  190.0890  176.3970  139.0290 C   0  0  0  0  0  3  0  0  0  0  0  0
  1  7  1  0  0  0  0
  2 10  2  0  0  0  0
  3  8  1  0  0  0  0
  3 10  1  0  0  0  0
  4  9  1  0  0  0  0
  4  3  2  0  0  0  0
  5  6  1  0  0  0  0
  6  1  2  0  0  0  0
  6  4  1  0  0  0  0
  7  8  2  0  0  0  0
  9 11  1  6  0  0  0
  9  2  1  0  0  0  0
 12 11  1  0  0  0  0
 14 13  1  1  0  0  0
 14 12  1  0  0  0  0
 15 16  2  0  0  0  0
 16 14  1  0  0  0  0
 17 16  1  0  0  0  0
 18 20  1  0  0  0  0
 19 20  1  0  0  0  0
 20 17  1  0  0  0  0
 21 20  2  0  0  0  0
 22  1  1  0  0  0  0
 24 25  1  0  0  0  0
 25 23  2  0  0  0  0
 25 22  1  0  0  0  0
 26 24  1  0  0  0  0
 27 26  3  0  0  0  0
M  END
>  <MODEL>
1

>  <REMARK>
 VINA RESULT:      -7.8      0.000      0.000
  Name = 
  9 active torsions:
  status: ('A' for Active; 'I' for Inactive)
    1  A    between atoms: C_1  and  C_19
    2  A    between atoms: C_4  and  C_17
    3  A    between atoms: C_4  and  C_18
    4  A    between atoms: C_9  and  N_12
    5  A    between atoms: C_13  and  C_19
    6  A    between atoms: C_17  and  C_26
    7  A    between atoms: C_18  and  C_24
    8  A    between atoms: P_22  and  C_23
    9  A    between atoms: C_23  and  C_26
                            x       y       z     vdW  Elec       q    Type
                         _______ _______ _______ _____ _____    ______ ____

>  <TORSDO>
F 9

$$$$
=
 OpenBabel10232411453D

 27 28  0  0  1  0  0  0  0  0999 V2000
  185.3790  178.6890  142.5410 C   0  0  0  0  0  0  0  0  0  0  0  0
  185.6750  177.9950  147.2020 C   0  0  0  0  0  3  0  0  0  0  0  0
  184.8000  178.8870  145.2500 C   0  0  0  0  0  0  0  0  0  0  0  0
  185.8610  178.1310  144.8390 C   0  0  0  0  0  0  0  0  0  0  0  0
  187.2480  177.2160  143.0770 O   0  0  0  0  0  1  0  0  0  0  0  0
  186.1750  178.0030  143.4820 C   0  0  0  0  0  0  0  0  0  0  0  0
  184.2970  179.4770  142.9790 C   0  0  0  0  0  3  0  0  0  0  0  0
  183.9950  179.5790  144.3470 C   0  0  0  0  0  3  0  0  0  0  0  0
  186.5320  177.5070  146.0110 C   0  0  1  0  0  3  0  0  0  0  0  0
  184.6340  178.8620  146.6500 N   0  0  0  0  0  0  0  0  0  0  0  0
  187.9530  178.0390  146.1450 C   0  0  0  0  0  2  0  0  0  0  0  0
  188.9650  176.9030  146.1240 C   0  0  0  0  0  2  0  0  0  0  0  0
  191.1020  176.8050  147.2010 O   0  0  0  0  0  1  0  0  0  0  0  0
  190.3880  177.4410  146.1830 C   0  0  1  0  0  3  0  0  0  0  0  0
  191.8900  176.3330  144.7340 O   0  0  0  0  0  0  0  0  0  0  0  0
  191.0780  177.2350  144.8720 C   0  0  0  0  0  0  0  0  0  0  0  0
  190.7540  178.1340  143.7250 C   0  0  0  0  0  2  0  0  0  0  0  0
  192.1190  177.2100  141.5480 O   0  0  0  0  0  1  0  0  0  0  0  0
  190.2690  175.6070  142.4700 O   0  0  0  0  0  1  0  0  0  0  0  0
  190.7370  177.2030  142.1630 P   0  0  0  0  0  0  0  0  0  0  0  0
  189.6400  177.9130  141.0910 O   0  0  0  0  0  0  0  0  0  0  0  0
  185.6860  178.6160  141.0800 C   0  0  0  0  0  2  0  0  0  0  0  0
  183.6120  177.7290  140.3210 O   0  0  0  0  0  0  0  0  0  0  0  0
  184.1550  179.8510  139.5010 N   0  0  0  0  0  2  0  0  0  0  0  0
  184.4310  178.6870  140.2790 C   0  0  0  0  0  0  0  0  0  0  0  0
  182.9780  179.9840  138.7490 C   0  0  0  0  0  0  0  0  0  0  0  0
  181.9670  180.0980  138.1030 C   0  0  0  0  0  3  0  0  0  0  0  0
  1  7  2  0  0  0  0
  1  6  1  0  0  0  0
  3 10  1  0  0  0  0
  4  3  1  0  0  0  0
  4  9  1  0  0  0  0
  5  6  1  0  0  0  0
  6  4  2  0  0  0  0
  7  8  1  0  0  0  0
  8  3  2  0  0  0  0
  9 11  1  1  0  0  0
  9  2  1  0  0  0  0
 10  2  2  0  0  0  0
 12 11  1  0  0  0  0
 12 14  1  0  0  0  0
 14 13  1  1  0  0  0
 15 16  2  0  0  0  0
 16 14  1  0  0  0  0
 17 16  1  0  0  0  0
 18 20  1  0  0  0  0
 20 19  1  0  0  0  0
 20 17  1  0  0  0  0
 21 20  2  0  0  0  0
 22  1  1  0  0  0  0
 24 25  1  0  0  0  0
 25 23  2  0  0  0  0
 25 22  1  0  0  0  0
 26 24  1  0  0  0  0
 27 26  3  0  0  0  0
M  END
>  <MODEL>
2

>  <REMARK>
 VINA RESULT:      -7.7      2.952      6.390
  Name = 
  9 active torsions:
  status: ('A' for Active; 'I' for Inactive)
    1  A    between atoms: C_1  and  C_19
    2  A    between atoms: C_4  and  C_17
    3  A    between atoms: C_4  and  C_18
    4  A    between atoms: C_9  and  N_12
    5  A    between atoms: C_13  and  C_19
    6  A    between atoms: C_17  and  C_26
    7  A    between atoms: C_18  and  C_24
    8  A    between atoms: P_22  and  C_23
    9  A    between atoms: C_23  and  C_26
                            x       y       z     vdW  Elec       q    Type
                         _______ _______ _______ _____ _____    ______ ____

>  <TORSDO>
F 9

$$$$
=
 OpenBabel10232411453D

 27 28  0  0  1  0  0  0  0  0999 V2000
  185.1700  178.7310  142.5700 C   0  0  0  0  0  0  0  0  0  0  0  0
  186.3070  177.9060  147.0780 C   0  0  0  0  0  3  0  0  0  0  0  0
  185.0820  178.8370  145.3440 C   0  0  0  0  0  0  0  0  0  0  0  0
  186.0640  178.1160  144.7260 C   0  0  0  0  0  0  0  0  0  0  0  0
  187.1270  177.2820  142.7150 O   0  0  0  0  0  1  0  0  0  0  0  0
  186.1320  178.0340  143.3310 C   0  0  0  0  0  0  0  0  0  0  0  0
  184.1710  179.4830  143.2200 C   0  0  0  0  0  3  0  0  0  0  0  0
  184.1190  179.5380  144.6220 C   0  0  0  0  0  3  0  0  0  0  0  0
  186.9430  177.4720  145.7370 C   0  0  1  0  0  3  0  0  0  0  0  0
  185.1710  178.7660  146.7500 N   0  0  0  0  0  0  0  0  0  0  0  0
  188.3570  178.0290  145.6330 C   0  0  0  0  0  2  0  0  0  0  0  0
  189.3820  176.9060  145.5560 C   0  0  0  0  0  2  0  0  0  0  0  0
  191.6470  177.6830  145.5210 O   0  0  0  0  0  1  0  0  0  0  0  0
  190.5750  177.3170  144.7040 C   0  0  1  0  0  3  0  0  0  0  0  0
  191.9770  175.5290  144.0520 O   0  0  0  0  0  0  0  0  0  0  0  0
  190.9840  176.1960  143.8030 C   0  0  0  0  0  0  0  0  0  0  0  0
  190.1570  175.8870  142.5990 C   0  0  0  0  0  2  0  0  0  0  0  0
  191.9690  177.5630  141.4310 O   0  0  0  0  0  1  0  0  0  0  0  0
  190.5450  176.1270  139.7730 O   0  0  0  0  0  0  0  0  0  0  0  0
  190.5820  176.9970  141.2230 P   0  0  0  0  0  0  0  0  0  0  0  0
  189.4630  178.2610  141.1470 O   0  0  0  0  0  1  0  0  0  0  0  0
  185.2110  178.7070  141.0770 C   0  0  0  0  0  2  0  0  0  0  0  0
  183.3100  179.5460  139.9160 O   0  0  0  0  0  0  0  0  0  0  0  0
  183.1410  177.3310  140.6440 N   0  0  0  0  0  2  0  0  0  0  0  0
  183.8350  178.5720  140.5190 C   0  0  0  0  0  0  0  0  0  0  0  0
  181.8560  177.1380  140.1160 C   0  0  0  0  0  0  0  0  0  0  0  0
  180.7510  176.9720  139.6620 C   0  0  0  0  0  3  0  0  0  0  0  0
  1  7  2  0  0  0  0
  1  6  1  0  0  0  0
  3 10  1  0  0  0  0
  4  3  1  0  0  0  0
  4  9  1  0  0  0  0
  5  6  1  0  0  0  0
  6  4  2  0  0  0  0
  7  8  1  0  0  0  0
  8  3  2  0  0  0  0
  9 11  1  1  0  0  0
  9  2  1  0  0  0  0
 10  2  2  0  0  0  0
 12 11  1  0  0  0  0
 14 13  1  1  0  0  0
 14 12  1  0  0  0  0
 16 15  2  0  0  0  0
 16 14  1  0  0  0  0
 17 16  1  0  0  0  0
 19 20  2  0  0  0  0
 20 18  1  0  0  0  0
 20 17  1  0  0  0  0
 21 20  1  0  0  0  0
 22  1  1  0  0  0  0
 23 25  2  0  0  0  0
 25 24  1  0  0  0  0
 25 22  1  0  0  0  0
 26 24  1  0  0  0  0
 27 26  3  0  0  0  0
M  END
>  <MODEL>
3

>  <REMARK>
 VINA RESULT:      -7.6      2.820      6.419
  Name = 
  9 active torsions:
  status: ('A' for Active; 'I' for Inactive)
    1  A    between atoms: C_1  and  C_19
    2  A    between atoms: C_4  and  C_17
    3  A    between atoms: C_4  and  C_18
    4  A    between atoms: C_9  and  N_12
    5  A    between atoms: C_13  and  C_19
    6  A    between atoms: C_17  and  C_26
    7  A    between atoms: C_18  and  C_24
    8  A    between atoms: P_22  and  C_23
    9  A    between atoms: C_23  and  C_26
                            x       y       z     vdW  Elec       q    Type
                         _______ _______ _______ _____ _____    ______ ____

>  <TORSDO>
F 9

$$$$
=
 OpenBabel10232411453D

 27 28  0  0  1  0  0  0  0  0999 V2000
  188.5780  177.3520  144.8950 C   0  0  0  0  0  0  0  0  0  0  0  0
  184.2430  179.2160  145.0780 C   0  0  0  0  0  3  0  0  0  0  0  0
  186.1430  178.1960  145.9300 C   0  0  0  0  0  0  0  0  0  0  0  0
  186.3920  178.3310  144.5940 C   0  0  0  0  0  0  0  0  0  0  0  0
  187.8590  178.0820  142.6820 O   0  0  0  0  0  1  0  0  0  0  0  0
  187.6110  177.9240  144.0410 C   0  0  0  0  0  0  0  0  0  0  0  0
  188.3020  177.2060  146.2690 C   0  0  0  0  0  3  0  0  0  0  0  0
  187.0750  177.6340  146.8000 C   0  0  0  0  0  3  0  0  0  0  0  0
  185.2310  178.9640  143.9150 C   0  0  1  0  0  3  0  0  0  0  0  0
  184.8730  178.6940  146.2900 N   0  0  0  0  0  0  0  0  0  0  0  0
  184.6150  177.9930  142.9160 C   0  0  0  0  0  2  0  0  0  0  0  0
  183.9950  178.7370  141.7420 C   0  0  0  0  0  2  0  0  0  0  0  0
  182.8020  177.3520  140.1950 O   0  0  0  0  0  1  0  0  0  0  0  0
  184.0570  177.8980  140.4730 C   0  0  1  0  0  3  0  0  0  0  0  0
  184.5260  179.9490  139.3970 O   0  0  0  0  0  0  0  0  0  0  0  0
  184.5160  178.7300  139.3180 C   0  0  0  0  0  0  0  0  0  0  0  0
  184.9800  178.0560  138.0700 C   0  0  0  0  0  2  0  0  0  0  0  0
  187.2860  176.6800  137.5780 O   0  0  0  0  0  1  0  0  0  0  0  0
  187.2950  179.1820  136.8190 O   0  0  0  0  0  0  0  0  0  0  0  0
  186.7950  178.0540  137.9750 P   0  0  0  0  0  0  0  0  0  0  0  0
  187.4430  178.4710  139.4800 O   0  0  0  0  0  1  0  0  0  0  0  0
  189.8850  176.8690  144.3560 C   0  0  0  0  0  2  0  0  0  0  0  0
  191.6720  177.9400  145.5080 O   0  0  0  0  0  0  0  0  0  0  0  0
  191.0750  175.8320  146.3250 N   0  0  0  0  0  2  0  0  0  0  0  0
  190.9360  176.9210  145.4130 C   0  0  0  0  0  0  0  0  0  0  0  0
  192.0270  175.8390  147.3550 C   0  0  0  0  0  0  0  0  0  0  0  0
  192.8450  175.8450  148.2410 C   0  0  0  0  0  3  0  0  0  0  0  0
  1  7  1  0  0  0  0
  2 10  2  0  0  0  0
  3 10  1  0  0  0  0
  3  8  1  0  0  0  0
  4  3  2  0  0  0  0
  5  6  1  0  0  0  0
  6  4  1  0  0  0  0
  6  1  2  0  0  0  0
  7  8  2  0  0  0  0
  9 11  1  6  0  0  0
  9  4  1  0  0  0  0
  9  2  1  0  0  0  0
 12 11  1  0  0  0  0
 14 13  1  6  0  0  0
 14 12  1  0  0  0  0
 16 15  2  0  0  0  0
 16 14  1  0  0  0  0
 17 16  1  0  0  0  0
 18 20  1  0  0  0  0
 19 20  2  0  0  0  0
 20 17  1  0  0  0  0
 20 21  1  0  0  0  0
 22  1  1  0  0  0  0
 22 25  1  0  0  0  0
 24 26  1  0  0  0  0
 25 23  2  0  0  0  0
 25 24  1  0  0  0  0
 26 27  3  0  0  0  0
M  END
>  <MODEL>
4

>  <REMARK>
 VINA RESULT:      -7.6      2.456      3.924
  Name = 
  9 active torsions:
  status: ('A' for Active; 'I' for Inactive)
    1  A    between atoms: C_1  and  C_19
    2  A    between atoms: C_4  and  C_17
    3  A    between atoms: C_4  and  C_18
    4  A    between atoms: C_9  and  N_12
    5  A    between atoms: C_13  and  C_19
    6  A    between atoms: C_17  and  C_26
    7  A    between atoms: C_18  and  C_24
    8  A    between atoms: P_22  and  C_23
    9  A    between atoms: C_23  and  C_26
                            x       y       z     vdW  Elec       q    Type
                         _______ _______ _______ _____ _____    ______ ____

>  <TORSDO>
F 9

$$$$
=
 OpenBabel10232411453D

 27 28  0  0  1  0  0  0  0  0999 V2000
  185.5590  178.1960  145.7980 C   0  0  0  0  0  0  0  0  0  0  0  0
  190.0410  177.2370  146.9320 C   0  0  0  0  0  3  0  0  0  0  0  0
  187.9120  178.0880  147.2700 C   0  0  0  0  0  0  0  0  0  0  0  0
  187.8820  177.5740  146.0040 C   0  0  0  0  0  0  0  0  0  0  0  0
  186.6910  177.0620  143.9580 O   0  0  0  0  0  1  0  0  0  0  0  0
  186.7120  177.6040  145.2390 C   0  0  0  0  0  0  0  0  0  0  0  0
  185.6070  178.7340  147.0990 C   0  0  0  0  0  3  0  0  0  0  0  0
  186.7920  178.6800  147.8500 C   0  0  0  0  0  3  0  0  0  0  0  0
  189.2090  177.0040  145.6500 C   0  0  1  0  0  3  0  0  0  0  0  0
  189.1730  177.9310  147.8820 N   0  0  0  0  0  0  0  0  0  0  0  0
  189.8190  177.7810  144.4900 C   0  0  0  0  0  2  0  0  0  0  0  0
  190.3850  176.8360  143.4390 C   0  0  0  0  0  2  0  0  0  0  0  0
  192.0140  177.3180  141.7500 O   0  0  0  0  0  1  0  0  0  0  0  0
  190.7030  177.5840  142.1510 C   0  0  1  0  0  3  0  0  0  0  0  0
  188.5440  177.2380  141.2540 O   0  0  0  0  0  0  0  0  0  0  0  0
  189.7500  177.1870  141.0690 C   0  0  0  0  0  0  0  0  0  0  0  0
  190.2870  176.7430  139.7490 C   0  0  0  0  0  2  0  0  0  0  0  0
  188.0010  176.7690  138.2560 O   0  0  0  0  0  1  0  0  0  0  0  0
  189.0680  179.1140  138.7070 O   0  0  0  0  0  1  0  0  0  0  0  0
  189.3320  177.4740  138.3850 P   0  0  0  0  0  0  0  0  0  0  0  0
  190.1960  177.3200  136.9400 O   0  0  0  0  0  0  0  0  0  0  0  0
  184.2890  178.2860  145.0160 C   0  0  0  0  0  2  0  0  0  0  0  0
  185.0160  180.1010  143.6590 O   0  0  0  0  0  0  0  0  0  0  0  0
  184.2480  178.2250  142.4930 N   0  0  0  0  0  2  0  0  0  0  0  0
  184.5330  178.9380  143.6980 C   0  0  0  0  0  0  0  0  0  0  0  0
  184.4830  178.7790  141.2260 C   0  0  0  0  0  0  0  0  0  0  0  0
  184.6850  179.2550  140.1370 C   0  0  0  0  0  3  0  0  0  0  0  0
  1  7  1  0  0  0  0
  2 10  2  0  0  0  0
  3  8  1  0  0  0  0
  3 10  1  0  0  0  0
  4  3  2  0  0  0  0
  5  6  1  0  0  0  0
  6  1  2  0  0  0  0
  6  4  1  0  0  0  0
  7  8  2  0  0  0  0
  9 11  1  6  0  0  0
  9  4  1  0  0  0  0
  9  2  1  0  0  0  0
 12 11  1  0  0  0  0
 14 13  1  6  0  0  0
 14 12  1  0  0  0  0
 16 15  2  0  0  0  0
 16 14  1  0  0  0  0
 17 16  1  0  0  0  0
 18 20  1  0  0  0  0
 20 19  1  0  0  0  0
 20 17  1  0  0  0  0
 21 20  2  0  0  0  0
 22  1  1  0  0  0  0
 23 25  2  0  0  0  0
 24 25  1  0  0  0  0
 25 22  1  0  0  0  0
 26 24  1  0  0  0  0
 27 26  3  0  0  0  0
M  END
>  <MODEL>
5

>  <REMARK>
 VINA RESULT:      -7.6      2.460      5.319
  Name = 
  9 active torsions:
  status: ('A' for Active; 'I' for Inactive)
    1  A    between atoms: C_1  and  C_19
    2  A    between atoms: C_4  and  C_17
    3  A    between atoms: C_4  and  C_18
    4  A    between atoms: C_9  and  N_12
    5  A    between atoms: C_13  and  C_19
    6  A    between atoms: C_17  and  C_26
    7  A    between atoms: C_18  and  C_24
    8  A    between atoms: P_22  and  C_23
    9  A    between atoms: C_23  and  C_26
                            x       y       z     vdW  Elec       q    Type
                         _______ _______ _______ _____ _____    ______ ____

>  <TORSDO>
F 9

$$$$
=
 OpenBabel10232411453D

 27 28  0  0  1  0  0  0  0  0999 V2000
  185.0950  178.4130  142.9220 C   0  0  0  0  0  0  0  0  0  0  0  0
  186.7380  178.2320  147.3450 C   0  0  0  0  0  3  0  0  0  0  0  0
  185.3430  178.9460  145.6360 C   0  0  0  0  0  0  0  0  0  0  0  0
  186.2210  178.0910  145.0320 C   0  0  0  0  0  0  0  0  0  0  0  0
  187.0090  176.9090  143.0700 O   0  0  0  0  0  1  0  0  0  0  0  0
  186.1190  177.7950  143.6690 C   0  0  0  0  0  0  0  0  0  0  0  0
  184.2050  179.3040  143.5550 C   0  0  0  0  0  3  0  0  0  0  0  0
  184.3220  179.5750  144.9270 C   0  0  0  0  0  3  0  0  0  0  0  0
  187.1950  177.5670  146.0260 C   0  0  1  0  0  3  0  0  0  0  0  0
  185.5970  179.0870  147.0160 N   0  0  0  0  0  0  0  0  0  0  0  0
  188.6030  178.0320  145.6750 C   0  0  0  0  0  2  0  0  0  0  0  0
  189.6140  176.9130  145.8810 C   0  0  0  0  0  2  0  0  0  0  0  0
  191.9790  177.2920  145.8690 O   0  0  0  0  0  1  0  0  0  0  0  0
  190.8630  177.1480  145.0420 C   0  0  1  0  0  3  0  0  0  0  0  0
  192.0200  175.2490  144.2430 O   0  0  0  0  0  0  0  0  0  0  0  0
  191.0770  176.0110  144.0940 C   0  0  0  0  0  0  0  0  0  0  0  0
  190.1160  175.8050  142.9700 C   0  0  0  0  0  2  0  0  0  0  0  0
  189.6050  178.1700  141.7040 O   0  0  0  0  0  1  0  0  0  0  0  0
  192.1050  177.4010  141.6700 O   0  0  0  0  0  1  0  0  0  0  0  0
  190.4790  176.9400  141.5970 P   0  0  0  0  0  0  0  0  0  0  0  0
  190.1830  176.1640  140.1250 O   0  0  0  0  0  0  0  0  0  0  0  0
  184.9560  178.1600  141.4560 C   0  0  0  0  0  2  0  0  0  0  0  0
  186.7220  179.7240  141.1350 O   0  0  0  0  0  0  0  0  0  0  0  0
  186.6320  177.9820  139.5770 N   0  0  0  0  0  2  0  0  0  0  0  0
  186.1430  178.6830  140.7210 C   0  0  0  0  0  0  0  0  0  0  0  0
  187.7600  178.4140  138.8640 C   0  0  0  0  0  0  0  0  0  0  0  0
  188.7290  178.7850  138.2510 C   0  0  0  0  0  3  0  0  0  0  0  0
  1  7  2  0  0  0  0
  1  6  1  0  0  0  0
  3 10  1  0  0  0  0
  4  3  1  0  0  0  0
  4  9  1  0  0  0  0
  5  6  1  0  0  0  0
  6  4  2  0  0  0  0
  7  8  1  0  0  0  0
  8  3  2  0  0  0  0
  9 11  1  6  0  0  0
  9  2  1  0  0  0  0
 10  2  2  0  0  0  0
 11 12  1  0  0  0  0
 14 13  1  1  0  0  0
 14 12  1  0  0  0  0
 16 15  2  0  0  0  0
 16 14  1  0  0  0  0
 17 16  1  0  0  0  0
 20 19  1  0  0  0  0
 20 18  1  0  0  0  0
 20 17  1  0  0  0  0
 21 20  2  0  0  0  0
 22  1  1  0  0  0  0
 24 25  1  0  0  0  0
 25 23  2  0  0  0  0
 25 22  1  0  0  0  0
 26 24  1  0  0  0  0
 27 26  3  0  0  0  0
M  END
>  <MODEL>
6

>  <REMARK>
 VINA RESULT:      -7.5      2.573      5.646
  Name = 
  9 active torsions:
  status: ('A' for Active; 'I' for Inactive)
    1  A    between atoms: C_1  and  C_19
    2  A    between atoms: C_4  and  C_17
    3  A    between atoms: C_4  and  C_18
    4  A    between atoms: C_9  and  N_12
    5  A    between atoms: C_13  and  C_19
    6  A    between atoms: C_17  and  C_26
    7  A    between atoms: C_18  and  C_24
    8  A    between atoms: P_22  and  C_23
    9  A    between atoms: C_23  and  C_26
                            x       y       z     vdW  Elec       q    Type
                         _______ _______ _______ _____ _____    ______ ____

>  <TORSDO>
F 9

$$$$
=
 OpenBabel10232411453D

 27 28  0  0  1  0  0  0  0  0999 V2000
  185.9280  178.5780  145.0880 C   0  0  0  0  0  0  0  0  0  0  0  0
  189.6290  176.9480  147.5250 C   0  0  0  0  0  3  0  0  0  0  0  0
  187.6150  178.0590  147.2320 C   0  0  0  0  0  0  0  0  0  0  0  0
  187.9620  177.6340  145.9800 C   0  0  0  0  0  0  0  0  0  0  0  0
  187.4880  177.4180  143.6150 O   0  0  0  0  0  1  0  0  0  0  0  0
  187.1310  177.8710  144.8800 C   0  0  0  0  0  0  0  0  0  0  0  0
  185.5900  179.0230  146.3810 C   0  0  0  0  0  3  0  0  0  0  0  0
  186.4360  178.7610  147.4700 C   0  0  0  0  0  3  0  0  0  0  0  0
  189.2610  176.9110  146.0240 C   0  0  1  0  0  3  0  0  0  0  0  0
  188.5690  177.6940  148.2040 N   0  0  0  0  0  0  0  0  0  0  0  0
  190.3080  177.6680  145.2170 C   0  0  0  0  0  2  0  0  0  0  0  0
  190.7210  176.8790  143.9830 C   0  0  0  0  0  2  0  0  0  0  0  0
  191.9810  178.4120  142.6420 O   0  0  0  0  0  1  0  0  0  0  0  0
  190.7450  177.7720  142.7500 C   0  0  1  0  0  3  0  0  0  0  0  0
  190.1000  175.8100  141.6020 O   0  0  0  0  0  0  0  0  0  0  0  0
  190.4810  176.9670  141.5170 C   0  0  0  0  0  0  0  0  0  0  0  0
  190.6720  177.5970  140.1770 C   0  0  0  0  0  2  0  0  0  0  0  0
  189.1840  179.1330  138.4800 O   0  0  0  0  0  1  0  0  0  0  0  0
  188.6090  176.5820  138.4730 O   0  0  0  0  0  0  0  0  0  0  0  0
  189.0690  177.9280  139.3870 P   0  0  0  0  0  0  0  0  0  0  0  0
  187.9010  178.2240  140.5740 O   0  0  0  0  0  1  0  0  0  0  0  0
  185.0160  178.8890  143.9460 C   0  0  0  0  0  2  0  0  0  0  0  0
  183.3220  178.8690  145.6180 O   0  0  0  0  0  0  0  0  0  0  0  0
  182.5510  178.8040  143.4110 N   0  0  0  0  0  2  0  0  0  0  0  0
  183.5930  178.8430  144.3870 C   0  0  0  0  0  0  0  0  0  0  0  0
  181.1950  178.7870  143.7680 C   0  0  0  0  0  0  0  0  0  0  0  0
  180.0290  178.7720  144.0740 C   0  0  0  0  0  3  0  0  0  0  0  0
  1  7  1  0  0  0  0
  2 10  2  0  0  0  0
  3  8  1  0  0  0  0
  3 10  1  0  0  0  0
  4  9  1  0  0  0  0
  4  3  2  0  0  0  0
  5  6  1  0  0  0  0
  6  1  2  0  0  0  0
  6  4  1  0  0  0  0
  7  8  2  0  0  0  0
  9 11  1  6  0  0  0
  9  2  1  0  0  0  0
 12 11  1  0  0  0  0
 14 13  1  6  0  0  0
 14 12  1  0  0  0  0
 16 15  2  0  0  0  0
 16 14  1  0  0  0  0
 17 16  1  0  0  0  0
 18 20  1  0  0  0  0
 19 20  2  0  0  0  0
 20 17  1  0  0  0  0
 20 21  1  0  0  0  0
 22 25  1  0  0  0  0
 22  1  1  0  0  0  0
 24 26  1  0  0  0  0
 24 25  1  0  0  0  0
 25 23  2  0  0  0  0
 26 27  3  0  0  0  0
M  END
>  <MODEL>
7

>  <REMARK>
 VINA RESULT:      -7.4      2.543      6.005
  Name = 
  9 active torsions:
  status: ('A' for Active; 'I' for Inactive)
    1  A    between atoms: C_1  and  C_19
    2  A    between atoms: C_4  and  C_17
    3  A    between atoms: C_4  and  C_18
    4  A    between atoms: C_9  and  N_12
    5  A    between atoms: C_13  and  C_19
    6  A    between atoms: C_17  and  C_26
    7  A    between atoms: C_18  and  C_24
    8  A    between atoms: P_22  and  C_23
    9  A    between atoms: C_23  and  C_26
                            x       y       z     vdW  Elec       q    Type
                         _______ _______ _______ _____ _____    ______ ____

>  <TORSDO>
F 9

$$$$
=
 OpenBabel10232411453D

 27 28  0  0  1  0  0  0  0  0999 V2000
  189.0580  177.5650  145.0660 C   0  0  0  0  0  0  0  0  0  0  0  0
  184.5250  178.7910  145.5580 C   0  0  0  0  0  3  0  0  0  0  0  0
  186.5470  177.8670  146.2140 C   0  0  0  0  0  0  0  0  0  0  0  0
  186.7640  178.3020  144.9370 C   0  0  0  0  0  0  0  0  0  0  0  0
  188.2290  178.6360  143.0370 O   0  0  0  0  0  1  0  0  0  0  0  0
  188.0180  178.1730  144.3320 C   0  0  0  0  0  0  0  0  0  0  0  0
  188.8180  177.1080  146.3770 C   0  0  0  0  0  3  0  0  0  0  0  0
  187.5520  177.2610  146.9650 C   0  0  0  0  0  3  0  0  0  0  0  0
  185.5240  178.9090  144.3840 C   0  0  1  0  0  3  0  0  0  0  0  0
  185.2290  178.1160  146.6480 N   0  0  0  0  0  0  0  0  0  0  0  0
  185.0250  178.0930  143.1980 C   0  0  0  0  0  2  0  0  0  0  0  0
  184.9860  178.9370  141.9320 C   0  0  0  0  0  2  0  0  0  0  0  0
  182.8330  178.3450  141.0680 O   0  0  0  0  0  1  0  0  0  0  0  0
  184.2040  178.2310  140.8330 C   0  0  1  0  0  3  0  0  0  0  0  0
  184.4800  180.0210  139.3130 O   0  0  0  0  0  0  0  0  0  0  0  0
  184.5400  178.8150  139.4970 C   0  0  0  0  0  0  0  0  0  0  0  0
  184.9680  177.9090  138.3900 C   0  0  0  0  0  2  0  0  0  0  0  0
  187.2880  176.6580  137.6780 O   0  0  0  0  0  1  0  0  0  0  0  0
  187.1110  179.1700  136.9720 O   0  0  0  0  0  0  0  0  0  0  0  0
  186.7670  177.9990  138.1430 P   0  0  0  0  0  0  0  0  0  0  0  0
  187.5190  178.4230  139.5960 O   0  0  0  0  0  1  0  0  0  0  0  0
  190.4110  177.3710  144.4600 C   0  0  0  0  0  2  0  0  0  0  0  0
  189.7380  175.6420  142.9690 O   0  0  0  0  0  0  0  0  0  0  0  0
  190.7780  177.4810  141.9660 N   0  0  0  0  0  2  0  0  0  0  0  0
  190.2930  176.7670  143.1030 C   0  0  0  0  0  0  0  0  0  0  0  0
  190.6700  176.9730  140.6640 C   0  0  0  0  0  0  0  0  0  0  0  0
  190.5770  176.5370  139.5440 C   0  0  0  0  0  3  0  0  0  0  0  0
  1  7  1  0  0  0  0
  2 10  2  0  0  0  0
  3 10  1  0  0  0  0
  3  8  1  0  0  0  0
  4  3  2  0  0  0  0
  5  6  1  0  0  0  0
  6  4  1  0  0  0  0
  6  1  2  0  0  0  0
  7  8  2  0  0  0  0
  9 11  1  6  0  0  0
  9  4  1  0  0  0  0
  9  2  1  0  0  0  0
 12 11  1  0  0  0  0
 14 13  1  1  0  0  0
 14 12  1  0  0  0  0
 15 16  2  0  0  0  0
 16 14  1  0  0  0  0
 17 16  1  0  0  0  0
 18 20  1  0  0  0  0
 19 20  2  0  0  0  0
 20 17  1  0  0  0  0
 20 21  1  0  0  0  0
 22  1  1  0  0  0  0
 23 25  2  0  0  0  0
 24 25  1  0  0  0  0
 25 22  1  0  0  0  0
 26 24  1  0  0  0  0
 27 26  3  0  0  0  0
M  END
>  <MODEL>
8

>  <REMARK>
 VINA RESULT:      -7.2      1.540      2.496
  Name = 
  9 active torsions:
  status: ('A' for Active; 'I' for Inactive)
    1  A    between atoms: C_1  and  C_19
    2  A    between atoms: C_4  and  C_17
    3  A    between atoms: C_4  and  C_18
    4  A    between atoms: C_9  and  N_12
    5  A    between atoms: C_13  and  C_19
    6  A    between atoms: C_17  and  C_26
    7  A    between atoms: C_18  and  C_24
    8  A    between atoms: P_22  and  C_23
    9  A    between atoms: C_23  and  C_26
                            x       y       z     vdW  Elec       q    Type
                         _______ _______ _______ _____ _____    ______ ____

>  <TORSDO>
F 9

$$$$
=
 OpenBabel10232411453D

 27 28  0  0  1  0  0  0  0  0999 V2000
  187.1700  177.1730  144.1960 C   0  0  0  0  0  0  0  0  0  0  0  0
  183.1730  179.6830  144.3210 C   0  0  0  0  0  3  0  0  0  0  0  0
  184.9110  178.4320  145.2080 C   0  0  0  0  0  0  0  0  0  0  0  0
  185.1540  178.4570  143.8640 C   0  0  0  0  0  0  0  0  0  0  0  0
  186.5300  177.8880  141.9530 O   0  0  0  0  0  1  0  0  0  0  0  0
  186.2860  177.8400  143.3220 C   0  0  0  0  0  0  0  0  0  0  0  0
  186.9010  177.1430  145.5780 C   0  0  0  0  0  3  0  0  0  0  0  0
  185.7630  177.7810  146.0980 C   0  0  0  0  0  3  0  0  0  0  0  0
  184.0890  179.2230  143.1640 C   0  0  1  0  0  3  0  0  0  0  0  0
  183.7390  179.1360  145.5540 N   0  0  0  0  0  0  0  0  0  0  0  0
  183.3150  178.3060  142.2260 C   0  0  0  0  0  2  0  0  0  0  0  0
  183.2210  178.9060  140.8300 C   0  0  0  0  0  2  0  0  0  0  0  0
  182.6500  177.3580  139.0940 O   0  0  0  0  0  1  0  0  0  0  0  0
  183.7260  177.9240  139.7810 C   0  0  1  0  0  3  0  0  0  0  0  0
  184.8700  179.8070  138.9270 O   0  0  0  0  0  0  0  0  0  0  0  0
  184.6380  178.6130  138.8170 C   0  0  0  0  0  0  0  0  0  0  0  0
  185.2790  177.8230  137.7250 C   0  0  0  0  0  2  0  0  0  0  0  0
  187.5770  178.3410  139.1070 O   0  0  0  0  0  1  0  0  0  0  0  0
  187.8410  176.7300  137.0640 O   0  0  0  0  0  1  0  0  0  0  0  0
  187.0770  178.0980  137.7010 P   0  0  0  0  0  0  0  0  0  0  0  0
  187.4330  179.4390  136.7350 O   0  0  0  0  0  0  0  0  0  0  0  0
  188.3800  176.4690  143.6710 C   0  0  0  0  0  2  0  0  0  0  0  0
  190.3800  176.5800  144.9570 O   0  0  0  0  0  0  0  0  0  0  0  0
  189.9570  178.4370  143.6010 N   0  0  0  0  0  2  0  0  0  0  0  0
  189.6220  177.1540  144.1290 C   0  0  0  0  0  0  0  0  0  0  0  0
  191.1260  179.1160  143.9760 C   0  0  0  0  0  0  0  0  0  0  0  0
  192.1300  179.7000  144.2980 C   0  0  0  0  0  3  0  0  0  0  0  0
  1  7  1  0  0  0  0
  2 10  2  0  0  0  0
  3 10  1  0  0  0  0
  3  8  1  0  0  0  0
  4  3  2  0  0  0  0
  5  6  1  0  0  0  0
  6  4  1  0  0  0  0
  6  1  2  0  0  0  0
  7  8  2  0  0  0  0
  9 11  1  6  0  0  0
  9  4  1  0  0  0  0
  9  2  1  0  0  0  0
 12 11  1  0  0  0  0
 14 13  1  6  0  0  0
 14 12  1  0  0  0  0
 16 15  2  0  0  0  0
 16 14  1  0  0  0  0
 17 16  1  0  0  0  0
 19 20  1  0  0  0  0
 20 17  1  0  0  0  0
 20 18  1  0  0  0  0
 21 20  2  0  0  0  0
 22 25  1  0  0  0  0
 22  1  1  0  0  0  0
 24 26  1  0  0  0  0
 24 25  1  0  0  0  0
 25 23  2  0  0  0  0
 26 27  3  0  0  0  0
M  END
>  <MODEL>
9

>  <REMARK>
 VINA RESULT:      -7.1      2.516      4.059
  Name = 
  9 active torsions:
  status: ('A' for Active; 'I' for Inactive)
    1  A    between atoms: C_1  and  C_19
    2  A    between atoms: C_4  and  C_17
    3  A    between atoms: C_4  and  C_18
    4  A    between atoms: C_9  and  N_12
    5  A    between atoms: C_13  and  C_19
    6  A    between atoms: C_17  and  C_26
    7  A    between atoms: C_18  and  C_24
    8  A    between atoms: P_22  and  C_23
    9  A    between atoms: C_23  and  C_26
                            x       y       z     vdW  Elec       q    Type
                         _______ _______ _______ _____ _____    ______ ____

>  <TORSDO>
F 9

$$$$
