=
 OpenBabel10232407423D

 36 40  0  0  0  0  0  0  0  0999 V2000
  187.8970  178.3410  139.7860 N   0  0  0  0  0  0  0  0  0  0  0  0
  190.2090  176.4420  137.5340 C   0  0  0  0  0  3  0  0  0  0  0  0
  186.7700  178.4420  139.1470 C   0  0  0  0  0  0  0  0  0  0  0  0
  186.6320  177.9450  137.7500 C   0  0  0  0  0  0  0  0  0  0  0  0
  190.1140  177.3300  140.1920 C   0  0  0  0  0  0  0  0  0  0  0  0
  184.2170  178.0030  138.0180 C   0  0  0  0  0  0  0  0  0  0  0  0
  189.1700  177.2790  137.9440 C   0  0  0  0  0  0  0  0  0  0  0  0
  184.3310  178.5840  139.2630 C   0  0  0  0  0  0  0  0  0  0  0  0
  182.8110  178.8480  139.9150 S   0  0  0  0  0  0  0  0  0  0  0  0
  188.0650  177.9190  136.6890 S   0  0  0  0  0  0  0  0  0  0  0  0
  191.1880  176.0280  138.4340 C   0  0  0  0  0  0  0  0  0  0  0  0
  180.5850  178.1040  138.3660 C   0  0  0  0  0  1  0  0  0  0  0  0
  182.0580  178.2050  138.5390 C   0  0  0  0  0  0  0  0  0  0  0  0
  185.4190  177.7260  137.2170 C   0  0  0  0  0  3  0  0  0  0  0  0
  189.0890  177.7080  139.2880 C   0  0  0  0  0  0  0  0  0  0  0  0
  191.1410  176.4900  139.7530 C   0  0  0  0  0  3  0  0  0  0  0  0
  185.5960  178.8530  139.8650 N   0  0  0  0  0  2  0  0  0  0  0  0
  182.9440  177.7960  137.5980 N   0  0  0  0  0  0  0  0  0  0  0  0
  192.2320  175.1620  137.9680 N   0  0  0  0  0  2  0  0  0  0  0  0
  193.8560  176.7720  137.4290 O   0  0  0  0  0  0  0  0  0  0  0  0
  193.5220  175.5590  137.4830 C   0  0  0  0  0  0  0  0  0  0  0  0
  194.4730  174.5160  137.0070 C   0  0  0  0  0  2  0  0  0  0  0  0
  196.4710  174.8960  138.2470 O   0  0  0  0  0  0  0  0  0  0  0  0
  195.2510  173.0590  138.8760 O   0  0  0  0  0  1  0  0  0  0  0  0
  195.4490  174.1810  138.0800 C   0  0  0  0  0  0  0  0  0  0  0  0
  190.1530  177.7310  141.5360 O   0  0  0  0  0  0  0  0  0  0  0  0
  190.3410  176.8510  142.6350 C   0  0  0  0  0  2  0  0  0  0  0  0
  187.9410  177.1080  143.2810 C   0  0  0  0  0  3  0  0  0  0  0  0
  189.6470  177.3500  144.9840 C   0  0  0  0  0  3  0  0  0  0  0  0
  188.6580  177.6040  145.9400 C   0  0  0  0  0  3  0  0  0  0  0  0
  187.3080  177.6030  145.5690 C   0  0  0  0  0  0  0  0  0  0  0  0
  186.9520  177.3620  144.2370 C   0  0  0  0  0  3  0  0  0  0  0  0
  189.2880  177.0930  143.6570 C   0  0  0  0  0  0  0  0  0  0  0  0
  186.2560  177.8900  146.5820 C   0  0  0  0  0  2  0  0  0  0  0  0
  185.5100  179.1580  146.2160 C   0  0  0  0  0  2  0  0  0  0  0  0
  184.1230  178.8390  145.9340 N   0  0  0  0  0  1  0  0  0  0  0  0
  2  7  2  0  0  0  0
  2 11  1  0  0  0  0
  3  1  2  0  0  0  0
  3 17  1  0  0  0  0
  4  3  1  0  0  0  0
  5 26  1  0  0  0  0
  6  8  2  0  0  0  0
  7 15  1  0  0  0  0
  8 17  1  0  0  0  0
  8  9  1  0  0  0  0
 10  4  1  0  0  0  0
 10  7  1  0  0  0  0
 11 16  2  0  0  0  0
 12 13  1  0  0  0  0
 13  9  1  0  0  0  0
 14  4  2  0  0  0  0
 14  6  1  0  0  0  0
 15  1  1  0  0  0  0
 15  5  2  0  0  0  0
 16  5  1  0  0  0  0
 18  6  1  0  0  0  0
 18 13  2  0  0  0  0
 19 11  1  0  0  0  0
 20 21  2  0  0  0  0
 21 19  1  0  0  0  0
 22 21  1  0  0  0  0
 22 25  1  0  0  0  0
 25 23  2  0  0  0  0
 25 24  1  0  0  0  0
 26 27  1  0  0  0  0
 27 33  1  0  0  0  0
 28 33  2  0  0  0  0
 28 32  1  0  0  0  0
 29 30  2  0  0  0  0
 31 30  1  0  0  0  0
 31 34  1  0  0  0  0
 32 31  2  0  0  0  0
 33 29  1  0  0  0  0
 35 34  1  0  0  0  0
 36 35  1  0  0  0  0
M  END
>  <MODEL>
1

>  <REMARK>
 VINA RESULT:      -9.1      0.000      0.000
  Name = 
  8 active torsions:
  status: ('A' for Active; 'I' for Inactive)
    1  A    between atoms: C_7  and  O_22
    2  A    between atoms: N_13  and  C_14
    3  A    between atoms: C_16  and  C_31
    4  A    between atoms: C_19  and  C_31
    5  A    between atoms: O_22  and  C_34
    6  A    between atoms: C_23  and  C_36
    7  A    between atoms: C_29  and  C_36
    8  A    between atoms: C_33  and  C_34
                            x       y       z     vdW  Elec       q    Type
                         _______ _______ _______ _____ _____    ______ ____

>  <TORSDO>
F 8

$$$$
=
 OpenBabel10232407423D

 36 40  0  0  0  0  0  0  0  0999 V2000
  187.5740  178.3070  139.2870 N   0  0  0  0  0  0  0  0  0  0  0  0
  190.1950  176.3880  137.4240 C   0  0  0  0  0  3  0  0  0  0  0  0
  186.5080  178.2800  138.5440 C   0  0  0  0  0  0  0  0  0  0  0  0
  186.5310  177.6630  137.1890 C   0  0  0  0  0  0  0  0  0  0  0  0
  189.7980  177.4820  139.9760 C   0  0  0  0  0  0  0  0  0  0  0  0
  184.1030  177.5810  137.2360 C   0  0  0  0  0  0  0  0  0  0  0  0
  189.0750  177.1850  137.6660 C   0  0  0  0  0  0  0  0  0  0  0  0
  184.0650  178.2680  138.4300 C   0  0  0  0  0  0  0  0  0  0  0  0
  182.4770  178.4830  138.9190 S   0  0  0  0  0  0  0  0  0  0  0  0
  188.0570  177.6450  136.2660 S   0  0  0  0  0  0  0  0  0  0  0  0
  191.1080  176.1150  138.4400 C   0  0  0  0  0  0  0  0  0  0  0  0
  180.4550  177.4690  137.2490 C   0  0  0  0  0  1  0  0  0  0  0  0
  181.8960  177.6820  137.5440 C   0  0  0  0  0  0  0  0  0  0  0  0
  185.3890  177.3210  136.5720 C   0  0  0  0  0  3  0  0  0  0  0  0
  188.8430  177.7160  138.9540 C   0  0  0  0  0  0  0  0  0  0  0  0
  190.9100  176.6790  139.7040 C   0  0  0  0  0  3  0  0  0  0  0  0
  185.2500  178.6690  139.1170 N   0  0  0  0  0  2  0  0  0  0  0  0
  182.8890  177.2570  136.7240 N   0  0  0  0  0  0  0  0  0  0  0  0
  192.2400  175.2860  138.1470 N   0  0  0  0  0  2  0  0  0  0  0  0
  193.7890  176.9460  137.5450 O   0  0  0  0  0  0  0  0  0  0  0  0
  193.5340  175.7240  137.7110 C   0  0  0  0  0  0  0  0  0  0  0  0
  194.5860  174.7110  137.4200 C   0  0  0  0  0  2  0  0  0  0  0  0
  195.6550  175.0750  139.5170 O   0  0  0  0  0  1  0  0  0  0  0  0
  195.3380  172.8800  138.9380 O   0  0  0  0  0  0  0  0  0  0  0  0
  195.2120  174.2400  138.6870 C   0  0  0  0  0  0  0  0  0  0  0  0
  189.6860  177.9930  141.2780 O   0  0  0  0  0  0  0  0  0  0  0  0
  188.6760  177.6230  142.2060 C   0  0  0  0  0  2  0  0  0  0  0  0
  188.4590  177.2780  144.6710 C   0  0  0  0  0  3  0  0  0  0  0  0
  190.6720  177.4160  143.6960 C   0  0  0  0  0  3  0  0  0  0  0  0
  191.2410  177.2510  144.9630 C   0  0  0  0  0  3  0  0  0  0  0  0
  190.4190  177.0930  146.0850 C   0  0  0  0  0  0  0  0  0  0  0  0
  189.0270  177.1140  145.9380 C   0  0  0  0  0  3  0  0  0  0  0  0
  189.2810  177.4200  143.5490 C   0  0  0  0  0  0  0  0  0  0  0  0
  191.0250  176.9360  147.4360 C   0  0  0  0  0  2  0  0  0  0  0  0
  191.9330  175.7220  147.4640 C   0  0  0  0  0  2  0  0  0  0  0  0
  193.0260  175.9570  148.3890 N   0  0  0  0  0  1  0  0  0  0  0  0
  2  7  2  0  0  0  0
  2 11  1  0  0  0  0
  3 17  1  0  0  0  0
  3  1  2  0  0  0  0
  4  3  1  0  0  0  0
  5 26  1  0  0  0  0
  6  8  2  0  0  0  0
  7 15  1  0  0  0  0
  8  9  1  0  0  0  0
  8 17  1  0  0  0  0
 10  4  1  0  0  0  0
 10  7  1  0  0  0  0
 11 16  2  0  0  0  0
 12 13  1  0  0  0  0
 13  9  1  0  0  0  0
 14  4  2  0  0  0  0
 14  6  1  0  0  0  0
 15  1  1  0  0  0  0
 15  5  2  0  0  0  0
 16  5  1  0  0  0  0
 18  6  1  0  0  0  0
 18 13  2  0  0  0  0
 19 11  1  0  0  0  0
 20 21  2  0  0  0  0
 21 19  1  0  0  0  0
 22 21  1  0  0  0  0
 22 25  1  0  0  0  0
 25 24  2  0  0  0  0
 25 23  1  0  0  0  0
 26 27  1  0  0  0  0
 27 33  1  0  0  0  0
 28 32  1  0  0  0  0
 29 30  2  0  0  0  0
 30 31  1  0  0  0  0
 31 34  1  0  0  0  0
 32 31  2  0  0  0  0
 33 29  1  0  0  0  0
 33 28  2  0  0  0  0
 34 35  1  0  0  0  0
 35 36  1  0  0  0  0
M  END
>  <MODEL>
2

>  <REMARK>
 VINA RESULT:      -8.7      1.964      2.473
  Name = 
  8 active torsions:
  status: ('A' for Active; 'I' for Inactive)
    1  A    between atoms: C_7  and  O_22
    2  A    between atoms: N_13  and  C_14
    3  A    between atoms: C_16  and  C_31
    4  A    between atoms: C_19  and  C_31
    5  A    between atoms: O_22  and  C_34
    6  A    between atoms: C_23  and  C_36
    7  A    between atoms: C_29  and  C_36
    8  A    between atoms: C_33  and  C_34
                            x       y       z     vdW  Elec       q    Type
                         _______ _______ _______ _____ _____    ______ ____

>  <TORSDO>
F 8

$$$$
=
 OpenBabel10232407423D

 36 40  0  0  0  0  0  0  0  0999 V2000
  187.7800  178.2160  138.9010 N   0  0  0  0  0  0  0  0  0  0  0  0
  190.3840  176.2120  137.1040 C   0  0  0  0  0  3  0  0  0  0  0  0
  186.7120  178.1670  138.1620 C   0  0  0  0  0  0  0  0  0  0  0  0
  186.7270  177.4990  136.8320 C   0  0  0  0  0  0  0  0  0  0  0  0
  190.0020  177.4050  139.6130 C   0  0  0  0  0  0  0  0  0  0  0  0
  184.2980  177.4340  136.8890 C   0  0  0  0  0  0  0  0  0  0  0  0
  189.2690  177.0240  137.3190 C   0  0  0  0  0  0  0  0  0  0  0  0
  184.2680  178.1660  138.0560 C   0  0  0  0  0  0  0  0  0  0  0  0
  182.6830  178.4090  138.5410 S   0  0  0  0  0  0  0  0  0  0  0  0
  188.2500  177.4370  135.9050 S   0  0  0  0  0  0  0  0  0  0  0  0
  191.2980  175.9720  138.1270 C   0  0  0  0  0  0  0  0  0  0  0  0
  180.6500  177.3440  136.9170 C   0  0  0  0  0  1  0  0  0  0  0  0
  182.0930  177.5600  137.1990 C   0  0  0  0  0  0  0  0  0  0  0  0
  185.5810  177.1400  136.2320 C   0  0  0  0  0  3  0  0  0  0  0  0
  189.0440  177.6050  138.5870 C   0  0  0  0  0  0  0  0  0  0  0  0
  191.1080  176.5850  139.3700 C   0  0  0  0  0  3  0  0  0  0  0  0
  185.4580  178.5860  138.7240 N   0  0  0  0  0  2  0  0  0  0  0  0
  183.0810  177.0980  136.3940 N   0  0  0  0  0  0  0  0  0  0  0  0
  192.4250  175.1250  137.8620 N   0  0  0  0  0  2  0  0  0  0  0  0
  193.9630  176.7450  137.1370 O   0  0  0  0  0  0  0  0  0  0  0  0
  193.7110  175.5350  137.3780 C   0  0  0  0  0  0  0  0  0  0  0  0
  194.7560  174.5050  137.1280 C   0  0  0  0  0  2  0  0  0  0  0  0
  196.2730  174.8980  138.9220 O   0  0  0  0  0  0  0  0  0  0  0  0
  195.1330  172.9110  139.0090 O   0  0  0  0  0  1  0  0  0  0  0  0
  195.4230  174.1280  138.4050 C   0  0  0  0  0  0  0  0  0  0  0  0
  189.8970  177.9650  140.8950 O   0  0  0  0  0  0  0  0  0  0  0  0
  190.6220  177.5190  142.0330 C   0  0  0  0  0  2  0  0  0  0  0  0
  190.2330  178.0180  144.4510 C   0  0  0  0  0  3  0  0  0  0  0  0
  188.4320  177.0570  143.1460 C   0  0  0  0  0  3  0  0  0  0  0  0
  187.6100  177.0580  144.2770 C   0  0  0  0  0  3  0  0  0  0  0  0
  188.0970  177.5460  145.4960 C   0  0  0  0  0  0  0  0  0  0  0  0
  189.4110  178.0190  145.5820 C   0  0  0  0  0  3  0  0  0  0  0  0
  189.7400  177.5450  143.2300 C   0  0  0  0  0  0  0  0  0  0  0  0
  187.2290  177.5300  146.7050 C   0  0  0  0  0  2  0  0  0  0  0  0
  187.8410  178.3830  147.7990 C   0  0  0  0  0  2  0  0  0  0  0  0
  187.8180  177.6520  149.0520 N   0  0  0  0  0  1  0  0  0  0  0  0
  2  7  2  0  0  0  0
  2 11  1  0  0  0  0
  3 17  1  0  0  0  0
  3  1  2  0  0  0  0
  4  3  1  0  0  0  0
  5 26  1  0  0  0  0
  6  8  2  0  0  0  0
  7 15  1  0  0  0  0
  8  9  1  0  0  0  0
  8 17  1  0  0  0  0
 10  4  1  0  0  0  0
 10  7  1  0  0  0  0
 11 16  2  0  0  0  0
 12 13  1  0  0  0  0
 13  9  1  0  0  0  0
 14  4  2  0  0  0  0
 14  6  1  0  0  0  0
 15  1  1  0  0  0  0
 15  5  2  0  0  0  0
 16  5  1  0  0  0  0
 18  6  1  0  0  0  0
 18 13  2  0  0  0  0
 19 11  1  0  0  0  0
 20 21  2  0  0  0  0
 21 19  1  0  0  0  0
 22 21  1  0  0  0  0
 22 25  1  0  0  0  0
 25 23  2  0  0  0  0
 25 24  1  0  0  0  0
 26 27  1  0  0  0  0
 27 33  1  0  0  0  0
 28 32  1  0  0  0  0
 29 33  1  0  0  0  0
 29 30  2  0  0  0  0
 30 31  1  0  0  0  0
 31 32  2  0  0  0  0
 31 34  1  0  0  0  0
 33 28  2  0  0  0  0
 34 35  1  0  0  0  0
 35 36  1  0  0  0  0
M  END
>  <MODEL>
3

>  <REMARK>
 VINA RESULT:      -8.3      1.243      1.522
  Name = 
  8 active torsions:
  status: ('A' for Active; 'I' for Inactive)
    1  A    between atoms: C_7  and  O_22
    2  A    between atoms: N_13  and  C_14
    3  A    between atoms: C_16  and  C_31
    4  A    between atoms: C_19  and  C_31
    5  A    between atoms: O_22  and  C_34
    6  A    between atoms: C_23  and  C_36
    7  A    between atoms: C_29  and  C_36
    8  A    between atoms: C_33  and  C_34
                            x       y       z     vdW  Elec       q    Type
                         _______ _______ _______ _____ _____    ______ ____

>  <TORSDO>
F 8

$$$$
=
 OpenBabel10232407423D

 36 40  0  0  0  0  0  0  0  0999 V2000
  184.3900  178.3770  139.2600 N   0  0  0  0  0  0  0  0  0  0  0  0
  188.1130  178.0050  139.4050 C   0  0  0  0  0  3  0  0  0  0  0  0
  184.0110  177.8030  138.1570 C   0  0  0  0  0  0  0  0  0  0  0  0
  185.0070  177.2570  137.1940 C   0  0  0  0  0  0  0  0  0  0  0  0
  186.0070  178.7980  141.0790 C   0  0  0  0  0  0  0  0  0  0  0  0
  183.2270  175.9640  136.1600 C   0  0  0  0  0  0  0  0  0  0  0  0
  186.8270  178.1340  138.8800 C   0  0  0  0  0  0  0  0  0  0  0  0
  182.2770  176.5610  136.9610 C   0  0  0  0  0  0  0  0  0  0  0  0
  180.7580  175.9560  136.5980 S   0  0  0  0  0  0  0  0  0  0  0  0
  186.6290  177.9930  137.1060 S   0  0  0  0  0  0  0  0  0  0  0  0
  188.3600  178.2480  140.7550 C   0  0  0  0  0  0  0  0  0  0  0  0
  180.5800  174.0300  134.5560 C   0  0  0  0  0  1  0  0  0  0  0  0
  181.3960  174.9450  135.3960 C   0  0  0  0  0  0  0  0  0  0  0  0
  184.6360  176.3750  136.2520 C   0  0  0  0  0  3  0  0  0  0  0  0
  185.7490  178.4990  139.7170 C   0  0  0  0  0  0  0  0  0  0  0  0
  187.3060  178.6590  141.5770 C   0  0  0  0  0  3  0  0  0  0  0  0
  182.6170  177.5160  137.9650 N   0  0  0  0  0  2  0  0  0  0  0  0
  182.7410  175.0630  135.2700 N   0  0  0  0  0  0  0  0  0  0  0  0
  189.6970  178.0960  141.2510 N   0  0  0  0  0  2  0  0  0  0  0  0
  189.4150  176.1470  142.5300 O   0  0  0  0  0  0  0  0  0  0  0  0
  190.1780  177.0590  142.1160 C   0  0  0  0  0  0  0  0  0  0  0  0
  191.6000  177.0820  142.5580 C   0  0  0  0  0  2  0  0  0  0  0  0
  191.7190  176.9890  144.9350 O   0  0  0  0  0  1  0  0  0  0  0  0
  191.7750  179.0920  144.0240 O   0  0  0  0  0  0  0  0  0  0  0  0
  191.7120  177.7090  143.9040 C   0  0  0  0  0  0  0  0  0  0  0  0
  185.0190  179.2070  141.9870 O   0  0  0  0  0  0  0  0  0  0  0  0
  184.3600  178.3450  142.9050 C   0  0  0  0  0  2  0  0  0  0  0  0
  184.7560  179.0990  145.2540 C   0  0  0  0  0  3  0  0  0  0  0  0
  186.2470  177.4560  144.2820 C   0  0  0  0  0  3  0  0  0  0  0  0
  186.9840  177.4200  145.4690 C   0  0  0  0  0  3  0  0  0  0  0  0
  186.6040  178.2200  146.5540 C   0  0  0  0  0  0  0  0  0  0  0  0
  185.4930  179.0640  146.4420 C   0  0  0  0  0  3  0  0  0  0  0  0
  185.1280  178.2880  144.1770 C   0  0  0  0  0  0  0  0  0  0  0  0
  187.3990  178.1960  147.8120 C   0  0  0  0  0  2  0  0  0  0  0  0
  188.3740  177.0350  147.7930 C   0  0  0  0  0  2  0  0  0  0  0  0
  189.7310  177.5420  147.8750 N   0  0  0  0  0  1  0  0  0  0  0  0
  1 15  1  0  0  0  0
  2 11  1  0  0  0  0
  3  1  2  0  0  0  0
  4  3  1  0  0  0  0
  5 16  1  0  0  0  0
  5 26  1  0  0  0  0
  6 14  1  0  0  0  0
  6  8  2  0  0  0  0
  7  2  2  0  0  0  0
  7 15  1  0  0  0  0
  8 17  1  0  0  0  0
  9  8  1  0  0  0  0
 10  4  1  0  0  0  0
 10  7  1  0  0  0  0
 11 19  1  0  0  0  0
 11 16  2  0  0  0  0
 12 13  1  0  0  0  0
 13  9  1  0  0  0  0
 14  4  2  0  0  0  0
 15  5  2  0  0  0  0
 17  3  1  0  0  0  0
 18 13  2  0  0  0  0
 18  6  1  0  0  0  0
 19 21  1  0  0  0  0
 21 20  2  0  0  0  0
 21 22  1  0  0  0  0
 22 25  1  0  0  0  0
 25 24  2  0  0  0  0
 25 23  1  0  0  0  0
 26 27  1  0  0  0  0
 27 33  1  0  0  0  0
 28 32  1  0  0  0  0
 29 30  2  0  0  0  0
 30 31  1  0  0  0  0
 31 34  1  0  0  0  0
 32 31  2  0  0  0  0
 33 29  1  0  0  0  0
 33 28  2  0  0  0  0
 35 34  1  0  0  0  0
 35 36  1  0  0  0  0
M  END
>  <MODEL>
4

>  <REMARK>
 VINA RESULT:      -8.2      3.597      4.688
  Name = 
  8 active torsions:
  status: ('A' for Active; 'I' for Inactive)
    1  A    between atoms: C_7  and  O_22
    2  A    between atoms: N_13  and  C_14
    3  A    between atoms: C_16  and  C_31
    4  A    between atoms: C_19  and  C_31
    5  A    between atoms: O_22  and  C_34
    6  A    between atoms: C_23  and  C_36
    7  A    between atoms: C_29  and  C_36
    8  A    between atoms: C_33  and  C_34
                            x       y       z     vdW  Elec       q    Type
                         _______ _______ _______ _____ _____    ______ ____

>  <TORSDO>
F 8

$$$$
=
 OpenBabel10232407423D

 36 40  0  0  0  0  0  0  0  0999 V2000
  188.6440  178.2870  141.7310 N   0  0  0  0  0  0  0  0  0  0  0  0
  191.5990  177.0030  143.6400 C   0  0  0  0  0  3  0  0  0  0  0  0
  188.8510  177.9710  140.4870 C   0  0  0  0  0  0  0  0  0  0  0  0
  190.1240  177.3280  140.0590 C   0  0  0  0  0  0  0  0  0  0  0  0
  189.0540  178.0610  144.1560 C   0  0  0  0  0  0  0  0  0  0  0  0
  189.0340  176.6540  137.9940 C   0  0  0  0  0  0  0  0  0  0  0  0
  190.8360  177.5080  142.5860 C   0  0  0  0  0  0  0  0  0  0  0  0
  187.8940  177.3550  138.3220 C   0  0  0  0  0  0  0  0  0  0  0  0
  186.7500  177.1910  137.1100 S   0  0  0  0  0  0  0  0  0  0  0  0
  191.6160  177.6510  140.9810 S   0  0  0  0  0  0  0  0  0  0  0  0
  191.1030  177.0000  144.9420 C   0  0  0  0  0  0  0  0  0  0  0  0
  187.4480  175.6490  134.8640 C   0  0  0  0  0  1  0  0  0  0  0  0
  187.7930  176.2200  136.1920 C   0  0  0  0  0  0  0  0  0  0  0  0
  190.2080  176.6930  138.8790 C   0  0  0  0  0  3  0  0  0  0  0  0
  189.5380  178.0130  142.8240 C   0  0  0  0  0  0  0  0  0  0  0  0
  189.8400  177.5460  145.1910 C   0  0  0  0  0  3  0  0  0  0  0  0
  187.7610  178.0600  139.5560 N   0  0  0  0  0  2  0  0  0  0  0  0
  188.9910  176.0220  136.7940 N   0  0  0  0  0  0  0  0  0  0  0  0
  191.9210  176.4640  145.9910 N   0  0  0  0  0  2  0  0  0  0  0  0
  190.4950  176.8360  147.8190 O   0  0  0  0  0  0  0  0  0  0  0  0
  191.5930  176.4000  147.3850 C   0  0  0  0  0  0  0  0  0  0  0  0
  192.5860  175.8360  148.3410 C   0  0  0  0  0  2  0  0  0  0  0  0
  192.4880  177.9780  149.3770 O   0  0  0  0  0  0  0  0  0  0  0  0
  194.3830  176.7600  149.8030 O   0  0  0  0  0  1  0  0  0  0  0  0
  193.1370  176.9140  149.2070 C   0  0  0  0  0  0  0  0  0  0  0  0
  187.7980  178.5770  144.5100 O   0  0  0  0  0  0  0  0  0  0  0  0
  186.7210  177.8020  145.0190 C   0  0  0  0  0  2  0  0  0  0  0  0
  184.3430  178.5700  145.0080 C   0  0  0  0  0  3  0  0  0  0  0  0
  185.4050  178.0070  142.9050 C   0  0  0  0  0  3  0  0  0  0  0  0
  184.2200  178.3070  142.2260 C   0  0  0  0  0  3  0  0  0  0  0  0
  183.0970  178.7450  142.9370 C   0  0  0  0  0  0  0  0  0  0  0  0
  183.1580  178.8700  144.3300 C   0  0  0  0  0  3  0  0  0  0  0  0
  185.4700  178.1470  144.2950 C   0  0  0  0  0  0  0  0  0  0  0  0
  181.8290  179.0480  142.2160 C   0  0  0  0  0  2  0  0  0  0  0  0
  180.7060  179.2770  143.2080 C   0  0  0  0  0  2  0  0  0  0  0  0
  180.1070  180.5760  142.9690 N   0  0  0  0  0  1  0  0  0  0  0  0
  1 15  1  0  0  0  0
  2 11  1  0  0  0  0
  3  1  2  0  0  0  0
  4  3  1  0  0  0  0
  4 10  1  0  0  0  0
  5 26  1  0  0  0  0
  5 16  1  0  0  0  0
  6  8  2  0  0  0  0
  6 14  1  0  0  0  0
  7 15  1  0  0  0  0
  7  2  2  0  0  0  0
  8 17  1  0  0  0  0
  9  8  1  0  0  0  0
 10  7  1  0  0  0  0
 11 16  2  0  0  0  0
 11 19  1  0  0  0  0
 12 13  1  0  0  0  0
 13 18  2  0  0  0  0
 13  9  1  0  0  0  0
 14  4  2  0  0  0  0
 15  5  2  0  0  0  0
 17  3  1  0  0  0  0
 18  6  1  0  0  0  0
 19 21  1  0  0  0  0
 21 20  2  0  0  0  0
 21 22  1  0  0  0  0
 22 25  1  0  0  0  0
 25 23  2  0  0  0  0
 25 24  1  0  0  0  0
 26 27  1  0  0  0  0
 29 33  1  0  0  0  0
 30 29  2  0  0  0  0
 30 31  1  0  0  0  0
 31 32  2  0  0  0  0
 32 28  1  0  0  0  0
 33 28  2  0  0  0  0
 33 27  1  0  0  0  0
 34 31  1  0  0  0  0
 34 35  1  0  0  0  0
 36 35  1  0  0  0  0
M  END
>  <MODEL>
5

>  <REMARK>
 VINA RESULT:      -8.2      4.135      6.637
  Name = 
  8 active torsions:
  status: ('A' for Active; 'I' for Inactive)
    1  A    between atoms: C_7  and  O_22
    2  A    between atoms: N_13  and  C_14
    3  A    between atoms: C_16  and  C_31
    4  A    between atoms: C_19  and  C_31
    5  A    between atoms: O_22  and  C_34
    6  A    between atoms: C_23  and  C_36
    7  A    between atoms: C_29  and  C_36
    8  A    between atoms: C_33  and  C_34
                            x       y       z     vdW  Elec       q    Type
                         _______ _______ _______ _____ _____    ______ ____

>  <TORSDO>
F 8

$$$$
=
 OpenBabel10232407423D

 36 40  0  0  0  0  0  0  0  0999 V2000
  190.6910  176.0950  139.1290 N   0  0  0  0  0  0  0  0  0  0  0  0
  187.3800  177.1340  137.7190 C   0  0  0  0  0  3  0  0  0  0  0  0
  191.3380  175.5300  138.1540 C   0  0  0  0  0  0  0  0  0  0  0  0
  190.6960  175.3140  136.8280 C   0  0  0  0  0  0  0  0  0  0  0  0
  188.9030  177.5360  140.0400 C   0  0  0  0  0  0  0  0  0  0  0  0
  192.9030  174.9800  135.8660 C   0  0  0  0  0  0  0  0  0  0  0  0
  188.5600  176.4110  137.9040 C   0  0  0  0  0  0  0  0  0  0  0  0
  193.4960  175.0500  137.1080 C   0  0  0  0  0  0  0  0  0  0  0  0
  195.1540  174.8570  136.9640 S   0  0  0  0  0  0  0  0  0  0  0  0
  188.9280  175.1000  136.7410 S   0  0  0  0  0  0  0  0  0  0  0  0
  186.9610  178.0670  138.6660 C   0  0  0  0  0  0  0  0  0  0  0  0
  196.1950  174.4400  134.3850 C   0  0  0  0  0  1  0  0  0  0  0  0
  195.0350  174.6760  135.2840 C   0  0  0  0  0  0  0  0  0  0  0  0
  191.4410  175.0640  135.7390 C   0  0  0  0  0  3  0  0  0  0  0  0
  189.3550  176.6260  139.0510 C   0  0  0  0  0  0  0  0  0  0  0  0
  187.7180  178.2470  139.8270 C   0  0  0  0  0  3  0  0  0  0  0  0
  192.7480  175.2970  138.2980 N   0  0  0  0  0  2  0  0  0  0  0  0
  193.7580  174.7600  134.8360 N   0  0  0  0  0  0  0  0  0  0  0  0
  185.7460  178.7910  138.4300 N   0  0  0  0  0  2  0  0  0  0  0  0
  184.5530  178.1810  140.3590 O   0  0  0  0  0  0  0  0  0  0  0  0
  184.5890  178.8240  139.2770 C   0  0  0  0  0  0  0  0  0  0  0  0
  183.3980  179.6100  138.8520 C   0  0  0  0  0  2  0  0  0  0  0  0
  182.8810  177.7620  137.4420 O   0  0  0  0  0  0  0  0  0  0  0  0
  181.0910  179.0320  138.1030 O   0  0  0  0  0  1  0  0  0  0  0  0
  182.4490  178.7420  138.1020 C   0  0  0  0  0  0  0  0  0  0  0  0
  189.5940  177.7960  141.2330 O   0  0  0  0  0  0  0  0  0  0  0  0
  189.9920  176.8030  142.1680 C   0  0  0  0  0  2  0  0  0  0  0  0
  187.8720  177.1520  143.4440 C   0  0  0  0  0  3  0  0  0  0  0  0
  189.9710  177.0760  144.6520 C   0  0  0  0  0  3  0  0  0  0  0  0
  189.2880  177.2870  145.8540 C   0  0  0  0  0  3  0  0  0  0  0  0
  187.8950  177.4240  145.8530 C   0  0  0  0  0  0  0  0  0  0  0  0
  187.1890  177.3630  144.6460 C   0  0  0  0  0  3  0  0  0  0  0  0
  189.2630  177.0000  143.4480 C   0  0  0  0  0  0  0  0  0  0  0  0
  187.1690  177.6660  147.1300 C   0  0  0  0  0  2  0  0  0  0  0  0
  185.7760  178.1940  146.8480 C   0  0  0  0  0  2  0  0  0  0  0  0
  185.6600  179.5490  147.3520 N   0  0  0  0  0  1  0  0  0  0  0  0
  2  7  2  0  0  0  0
  2 11  1  0  0  0  0
  3 17  1  0  0  0  0
  3  1  2  0  0  0  0
  4  3  1  0  0  0  0
  5 26  1  0  0  0  0
  6  8  2  0  0  0  0
  7 15  1  0  0  0  0
  8 17  1  0  0  0  0
  9  8  1  0  0  0  0
 10  4  1  0  0  0  0
 10  7  1  0  0  0  0
 11 16  2  0  0  0  0
 12 13  1  0  0  0  0
 13  9  1  0  0  0  0
 14  6  1  0  0  0  0
 14  4  2  0  0  0  0
 15  1  1  0  0  0  0
 15  5  2  0  0  0  0
 16  5  1  0  0  0  0
 18 13  2  0  0  0  0
 18  6  1  0  0  0  0
 19 11  1  0  0  0  0
 19 21  1  0  0  0  0
 21 20  2  0  0  0  0
 22 21  1  0  0  0  0
 23 25  2  0  0  0  0
 25 24  1  0  0  0  0
 25 22  1  0  0  0  0
 26 27  1  0  0  0  0
 27 33  1  0  0  0  0
 28 33  2  0  0  0  0
 28 32  1  0  0  0  0
 29 30  2  0  0  0  0
 31 30  1  0  0  0  0
 31 34  1  0  0  0  0
 32 31  2  0  0  0  0
 33 29  1  0  0  0  0
 35 34  1  0  0  0  0
 35 36  1  0  0  0  0
M  END
>  <MODEL>
6

>  <REMARK>
 VINA RESULT:      -7.5      3.026      7.873
  Name = 
  8 active torsions:
  status: ('A' for Active; 'I' for Inactive)
    1  A    between atoms: C_7  and  O_22
    2  A    between atoms: N_13  and  C_14
    3  A    between atoms: C_16  and  C_31
    4  A    between atoms: C_19  and  C_31
    5  A    between atoms: O_22  and  C_34
    6  A    between atoms: C_23  and  C_36
    7  A    between atoms: C_29  and  C_36
    8  A    between atoms: C_33  and  C_34
                            x       y       z     vdW  Elec       q    Type
                         _______ _______ _______ _____ _____    ______ ____

>  <TORSDO>
F 8

$$$$
=
 OpenBabel10232407423D

 36 40  0  0  0  0  0  0  0  0999 V2000
  188.6180  176.7340  137.7490 N   0  0  0  0  0  0  0  0  0  0  0  0
  191.6420  175.7860  135.7540 C   0  0  0  0  0  3  0  0  0  0  0  0
  187.6220  176.7420  136.9150 C   0  0  0  0  0  0  0  0  0  0  0  0
  187.8360  176.5100  135.4600 C   0  0  0  0  0  0  0  0  0  0  0  0
  190.9040  176.1020  138.4410 C   0  0  0  0  0  0  0  0  0  0  0  0
  185.4590  176.0550  135.2300 C   0  0  0  0  0  0  0  0  0  0  0  0
  190.3890  176.3130  136.0670 C   0  0  0  0  0  0  0  0  0  0  0  0
  185.2290  176.3920  136.5460 C   0  0  0  0  0  0  0  0  0  0  0  0
  183.6000  176.2300  136.9040 S   0  0  0  0  0  0  0  0  0  0  0  0
  189.3960  176.9650  134.7260 S   0  0  0  0  0  0  0  0  0  0  0  0
  192.5230  175.3970  136.7610 C   0  0  0  0  0  0  0  0  0  0  0  0
  181.8920  175.3950  134.8320 C   0  0  0  0  0  1  0  0  0  0  0  0
  183.2530  175.7380  135.3200 C   0  0  0  0  0  0  0  0  0  0  0  0
  186.8100  176.1740  134.6610 C   0  0  0  0  0  3  0  0  0  0  0  0
  189.9880  176.4480  137.4150 C   0  0  0  0  0  0  0  0  0  0  0  0
  192.1520  175.5740  138.0980 C   0  0  0  0  0  3  0  0  0  0  0  0
  186.2810  176.7730  137.4310 N   0  0  0  0  0  2  0  0  0  0  0  0
  184.3540  175.6970  134.5300 N   0  0  0  0  0  0  0  0  0  0  0  0
  193.7970  174.8540  136.3920 N   0  0  0  0  0  2  0  0  0  0  0  0
  194.9610  176.8500  135.9700 O   0  0  0  0  0  0  0  0  0  0  0  0
  194.9660  175.5910  136.0100 C   0  0  0  0  0  0  0  0  0  0  0  0
  196.2000  174.8520  135.6250 C   0  0  0  0  0  2  0  0  0  0  0  0
  198.4440  175.3980  136.2070 O   0  0  0  0  0  0  0  0  0  0  0  0
  197.0310  175.0130  137.9710 O   0  0  0  0  0  1  0  0  0  0  0  0
  197.2860  175.1140  136.6090 C   0  0  0  0  0  0  0  0  0  0  0  0
  190.6240  176.2320  139.8100 O   0  0  0  0  0  0  0  0  0  0  0  0
  191.0520  177.3160  140.6220 C   0  0  0  0  0  2  0  0  0  0  0  0
  188.9630  176.9900  141.9550 C   0  0  0  0  0  3  0  0  0  0  0  0
  191.0100  177.5870  143.1060 C   0  0  0  0  0  3  0  0  0  0  0  0
  190.3260  177.5810  144.3260 C   0  0  0  0  0  3  0  0  0  0  0  0
  188.9610  177.2730  144.3630 C   0  0  0  0  0  0  0  0  0  0  0  0
  188.2790  176.9840  143.1750 C   0  0  0  0  0  3  0  0  0  0  0  0
  190.3310  177.2830  141.9220 C   0  0  0  0  0  0  0  0  0  0  0  0
  188.2290  177.2840  145.6590 C   0  0  0  0  0  2  0  0  0  0  0  0
  189.2110  177.2870  146.8140 C   0  0  0  0  0  2  0  0  0  0  0  0
  188.5120  177.6150  148.0420 N   0  0  0  0  0  1  0  0  0  0  0  0
  2  7  2  0  0  0  0
  2 11  1  0  0  0  0
  3 17  1  0  0  0  0
  3  1  2  0  0  0  0
  4  3  1  0  0  0  0
  5 26  1  0  0  0  0
  6  8  2  0  0  0  0
  7 15  1  0  0  0  0
  8  9  1  0  0  0  0
  8 17  1  0  0  0  0
 10  4  1  0  0  0  0
 10  7  1  0  0  0  0
 11 16  2  0  0  0  0
 12 13  1  0  0  0  0
 13  9  1  0  0  0  0
 14  6  1  0  0  0  0
 14  4  2  0  0  0  0
 15  1  1  0  0  0  0
 15  5  2  0  0  0  0
 16  5  1  0  0  0  0
 18  6  1  0  0  0  0
 18 13  2  0  0  0  0
 19 11  1  0  0  0  0
 20 21  2  0  0  0  0
 21 19  1  0  0  0  0
 22 21  1  0  0  0  0
 22 25  1  0  0  0  0
 23 25  2  0  0  0  0
 25 24  1  0  0  0  0
 26 27  1  0  0  0  0
 27 33  1  0  0  0  0
 28 32  1  0  0  0  0
 29 30  2  0  0  0  0
 30 31  1  0  0  0  0
 31 34  1  0  0  0  0
 32 31  2  0  0  0  0
 33 28  2  0  0  0  0
 33 29  1  0  0  0  0
 34 35  1  0  0  0  0
 35 36  1  0  0  0  0
M  END
>  <MODEL>
7

>  <REMARK>
 VINA RESULT:      -7.1      2.447      2.917
  Name = 
  8 active torsions:
  status: ('A' for Active; 'I' for Inactive)
    1  A    between atoms: C_7  and  O_22
    2  A    between atoms: N_13  and  C_14
    3  A    between atoms: C_16  and  C_31
    4  A    between atoms: C_19  and  C_31
    5  A    between atoms: O_22  and  C_34
    6  A    between atoms: C_23  and  C_36
    7  A    between atoms: C_29  and  C_36
    8  A    between atoms: C_33  and  C_34
                            x       y       z     vdW  Elec       q    Type
                         _______ _______ _______ _____ _____    ______ ____

>  <TORSDO>
F 8

$$$$
=
 OpenBabel10232407423D

 36 40  0  0  0  0  0  0  0  0999 V2000
  188.4070  177.8820  140.3770 N   0  0  0  0  0  0  0  0  0  0  0  0
  189.7930  176.7580  137.0850 C   0  0  0  0  0  3  0  0  0  0  0  0
  187.2080  178.3210  140.1340 C   0  0  0  0  0  0  0  0  0  0  0  0
  186.6860  178.4000  138.7420 C   0  0  0  0  0  0  0  0  0  0  0  0
  190.4340  176.5890  139.8100 C   0  0  0  0  0  0  0  0  0  0  0  0
  184.4370  178.5800  139.6470 C   0  0  0  0  0  0  0  0  0  0  0  0
  189.0390  177.4730  138.0160 C   0  0  0  0  0  0  0  0  0  0  0  0
  184.9200  178.6380  140.9360 C   0  0  0  0  0  0  0  0  0  0  0  0
  183.6490  178.7800  142.0190 S   0  0  0  0  0  0  0  0  0  0  0  0
  187.8290  178.6390  137.3950 S   0  0  0  0  0  0  0  0  0  0  0  0
  190.8480  175.9460  137.4950 C   0  0  0  0  0  0  0  0  0  0  0  0
  181.0460  178.8850  140.9610 C   0  0  0  0  0  1  0  0  0  0  0  0
  182.5140  178.7750  140.7600 C   0  0  0  0  0  0  0  0  0  0  0  0
  185.3680  178.5120  138.5100 C   0  0  0  0  0  3  0  0  0  0  0  0
  189.3270  177.3730  139.3950 C   0  0  0  0  0  0  0  0  0  0  0  0
  191.1700  175.8820  138.8540 C   0  0  0  0  0  3  0  0  0  0  0  0
  186.3110  178.5410  141.2350 N   0  0  0  0  0  2  0  0  0  0  0  0
  183.0880  178.6670  139.5360 N   0  0  0  0  0  0  0  0  0  0  0  0
  191.5900  175.2240  136.5030 N   0  0  0  0  0  2  0  0  0  0  0  0
  190.2770  173.2810  136.3760 O   0  0  0  0  0  0  0  0  0  0  0  0
  191.2840  173.9250  135.9800 C   0  0  0  0  0  0  0  0  0  0  0  0
  192.1930  173.3140  134.9710 C   0  0  0  0  0  2  0  0  0  0  0  0
  194.1920  174.5200  134.4970 O   0  0  0  0  0  0  0  0  0  0  0  0
  194.2840  173.1290  136.3180 O   0  0  0  0  0  1  0  0  0  0  0  0
  193.6050  173.6990  135.2490 C   0  0  0  0  0  0  0  0  0  0  0  0
  190.8320  176.4500  141.1480 O   0  0  0  0  0  0  0  0  0  0  0  0
  191.5780  177.4180  141.8720 C   0  0  0  0  0  2  0  0  0  0  0  0
  191.6010  176.4920  144.1940 C   0  0  0  0  0  3  0  0  0  0  0  0
  190.1830  178.3930  143.7020 C   0  0  0  0  0  3  0  0  0  0  0  0
  189.7350  178.4030  145.0270 C   0  0  0  0  0  3  0  0  0  0  0  0
  190.2250  177.4600  145.9390 C   0  0  0  0  0  0  0  0  0  0  0  0
  191.1540  176.5010  145.5180 C   0  0  0  0  0  3  0  0  0  0  0  0
  191.1230  177.4440  143.2880 C   0  0  0  0  0  0  0  0  0  0  0  0
  189.7350  177.4580  147.3440 C   0  0  0  0  0  2  0  0  0  0  0  0
  188.3150  176.9320  147.4030 C   0  0  0  0  0  2  0  0  0  0  0  0
  187.3880  178.0460  147.4740 N   0  0  0  0  0  1  0  0  0  0  0  0
  2 11  2  0  0  0  0
  2  7  1  0  0  0  0
  3  1  2  0  0  0  0
  3 17  1  0  0  0  0
  4  3  1  0  0  0  0
  5 26  1  0  0  0  0
  6  8  2  0  0  0  0
  7 15  2  0  0  0  0
  8 17  1  0  0  0  0
  8  9  1  0  0  0  0
 10  7  1  0  0  0  0
 10  4  1  0  0  0  0
 11 16  1  0  0  0  0
 13 12  1  0  0  0  0
 13  9  1  0  0  0  0
 14  4  2  0  0  0  0
 14  6  1  0  0  0  0
 15  5  1  0  0  0  0
 15  1  1  0  0  0  0
 16  5  2  0  0  0  0
 18  6  1  0  0  0  0
 18 13  2  0  0  0  0
 19 11  1  0  0  0  0
 21 20  2  0  0  0  0
 21 19  1  0  0  0  0
 22 25  1  0  0  0  0
 22 21  1  0  0  0  0
 23 25  2  0  0  0  0
 25 24  1  0  0  0  0
 26 27  1  0  0  0  0
 27 33  1  0  0  0  0
 28 32  1  0  0  0  0
 29 30  2  0  0  0  0
 30 31  1  0  0  0  0
 31 34  1  0  0  0  0
 32 31  2  0  0  0  0
 33 29  1  0  0  0  0
 33 28  2  0  0  0  0
 34 35  1  0  0  0  0
 35 36  1  0  0  0  0
M  END
>  <MODEL>
8

>  <REMARK>
 VINA RESULT:      -7.0      2.098      2.514
  Name = 
  8 active torsions:
  status: ('A' for Active; 'I' for Inactive)
    1  A    between atoms: C_7  and  O_22
    2  A    between atoms: N_13  and  C_14
    3  A    between atoms: C_16  and  C_31
    4  A    between atoms: C_19  and  C_31
    5  A    between atoms: O_22  and  C_34
    6  A    between atoms: C_23  and  C_36
    7  A    between atoms: C_29  and  C_36
    8  A    between atoms: C_33  and  C_34
                            x       y       z     vdW  Elec       q    Type
                         _______ _______ _______ _____ _____    ______ ____

>  <TORSDO>
F 8

$$$$
=
 OpenBabel10232407423D

 36 40  0  0  0  0  0  0  0  0999 V2000
  187.7080  177.6260  142.3000 N   0  0  0  0  0  0  0  0  0  0  0  0
  190.8570  176.5930  140.5550 C   0  0  0  0  0  3  0  0  0  0  0  0
  187.8820  177.3480  143.5570 C   0  0  0  0  0  0  0  0  0  0  0  0
  189.1100  176.6480  144.0260 C   0  0  0  0  0  0  0  0  0  0  0  0
  188.5210  178.0440  140.0050 C   0  0  0  0  0  0  0  0  0  0  0  0
  188.6020  177.3730  146.2890 C   0  0  0  0  0  0  0  0  0  0  0  0
  189.8240  176.6180  141.4930 C   0  0  0  0  0  0  0  0  0  0  0  0
  187.3990  177.9130  145.8870 C   0  0  0  0  0  0  0  0  0  0  0  0
  186.6050  178.5880  147.1990 S   0  0  0  0  0  0  0  0  0  0  0  0
  189.9580  175.5390  142.9160 S   0  0  0  0  0  0  0  0  0  0  0  0
  190.7490  177.2950  139.3570 C   0  0  0  0  0  0  0  0  0  0  0  0
  187.8610  178.4130  149.7080 C   0  0  0  0  0  1  0  0  0  0  0  0
  187.8570  178.1380  148.2480 C   0  0  0  0  0  0  0  0  0  0  0  0
  189.4580  176.6690  145.3230 C   0  0  0  0  0  3  0  0  0  0  0  0
  188.6550  177.3720  141.2460 C   0  0  0  0  0  0  0  0  0  0  0  0
  189.5730  178.0020  139.0850 C   0  0  0  0  0  3  0  0  0  0  0  0
  186.9760  177.9010  144.5240 N   0  0  0  0  0  2  0  0  0  0  0  0
  188.8630  177.4850  147.6160 N   0  0  0  0  0  0  0  0  0  0  0  0
  191.8380  177.2450  138.4260 N   0  0  0  0  0  2  0  0  0  0  0  0
  191.7960  174.9550  137.9050 O   0  0  0  0  0  0  0  0  0  0  0  0
  192.3240  176.0850  137.7360 C   0  0  0  0  0  0  0  0  0  0  0  0
  193.4950  176.2170  136.8260 C   0  0  0  0  0  2  0  0  0  0  0  0
  194.5620  174.1850  136.1890 O   0  0  0  0  0  0  0  0  0  0  0  0
  195.1930  175.0380  138.2220 O   0  0  0  0  0  1  0  0  0  0  0  0
  194.4500  175.0970  137.0500 C   0  0  0  0  0  0  0  0  0  0  0  0
  187.3890  178.7880  139.6410 O   0  0  0  0  0  0  0  0  0  0  0  0
  186.4130  178.3650  138.6990 C   0  0  0  0  0  2  0  0  0  0  0  0
  183.9320  178.0940  138.5640 C   0  0  0  0  0  3  0  0  0  0  0  0
  184.9300  178.7450  140.6740 C   0  0  0  0  0  3  0  0  0  0  0  0
  183.6610  178.7920  141.2600 C   0  0  0  0  0  3  0  0  0  0  0  0
  182.5260  178.4830  140.5000 C   0  0  0  0  0  0  0  0  0  0  0  0
  182.6630  178.1410  139.1500 C   0  0  0  0  0  3  0  0  0  0  0  0
  185.0660  178.3880  139.3290 C   0  0  0  0  0  0  0  0  0  0  0  0
  181.1740  178.5500  141.1190 C   0  0  0  0  0  2  0  0  0  0  0  0
  181.2620  179.1590  142.5050 C   0  0  0  0  0  2  0  0  0  0  0  0
  180.3570  180.2880  142.5960 N   0  0  0  0  0  1  0  0  0  0  0  0
  1  3  2  0  0  0  0
  2  7  1  0  0  0  0
  3  4  1  0  0  0  0
  3 17  1  0  0  0  0
  4 14  2  0  0  0  0
  5 15  1  0  0  0  0
  6 18  1  0  0  0  0
  7 10  1  0  0  0  0
  8  6  2  0  0  0  0
  8  9  1  0  0  0  0
  9 13  1  0  0  0  0
 10  4  1  0  0  0  0
 11  2  2  0  0  0  0
 13 12  1  0  0  0  0
 14  6  1  0  0  0  0
 15  7  2  0  0  0  0
 15  1  1  0  0  0  0
 16 11  1  0  0  0  0
 16  5  2  0  0  0  0
 17  8  1  0  0  0  0
 18 13  2  0  0  0  0
 19 11  1  0  0  0  0
 21 20  2  0  0  0  0
 21 19  1  0  0  0  0
 22 25  1  0  0  0  0
 22 21  1  0  0  0  0
 23 25  2  0  0  0  0
 25 24  1  0  0  0  0
 26  5  1  0  0  0  0
 27 33  1  0  0  0  0
 27 26  1  0  0  0  0
 28 32  2  0  0  0  0
 28 33  1  0  0  0  0
 29 30  1  0  0  0  0
 31 34  1  0  0  0  0
 31 30  2  0  0  0  0
 32 31  1  0  0  0  0
 33 29  2  0  0  0  0
 34 35  1  0  0  0  0
 35 36  1  0  0  0  0
M  END
>  <MODEL>
9

>  <REMARK>
 VINA RESULT:      -6.9      2.844      6.195
  Name = 
  8 active torsions:
  status: ('A' for Active; 'I' for Inactive)
    1  A    between atoms: C_7  and  O_22
    2  A    between atoms: N_13  and  C_14
    3  A    between atoms: C_16  and  C_31
    4  A    between atoms: C_19  and  C_31
    5  A    between atoms: O_22  and  C_34
    6  A    between atoms: C_23  and  C_36
    7  A    between atoms: C_29  and  C_36
    8  A    between atoms: C_33  and  C_34
                            x       y       z     vdW  Elec       q    Type
                         _______ _______ _______ _____ _____    ______ ____

>  <TORSDO>
F 8

$$$$
