=
 OpenBabel10232409573D

 34 36  0  0  1  0  0  0  0  0999 V2000
  190.0650  176.3620  144.5400 C   0  0  2  0  0  3  0  0  0  0  0  0
  186.9730  177.8000  145.9370 C   0  0  2  0  0  3  0  0  0  0  0  0
  188.5460  176.6410  144.6150 C   0  0  1  0  0  3  0  0  0  0  0  0
  188.2440  177.9550  145.2110 N   0  0  1  0  0  0  0  0  0  0  0  0
  185.8610  178.5400  145.2510 C   0  0  0  0  0  3  0  0  0  0  0  0
  185.7300  178.3860  143.9330 C   0  0  0  0  0  0  0  0  0  0  0  0
  188.1390  177.7370  143.7320 C   0  0  2  0  0  3  0  0  0  0  0  0
  186.7100  177.4980  143.2180 C   0  0  0  0  0  2  0  0  0  0  0  0
  188.1510  177.4070  148.1410 C   0  0  0  0  0  1  0  0  0  0  0  0
  187.1210  178.2390  147.3910 C   0  0  0  0  0  2  0  0  0  0  0  0
  184.6810  179.1630  143.1940 C   0  0  1  0  0  3  0  0  0  0  0  0
  183.9560  177.8750  141.3030 O   0  0  0  0  0  1  0  0  0  0  0  0
  184.6650  178.8220  141.7370 C   0  0  0  0  0  0  0  0  0  0  0  0
  185.4510  179.5520  140.8560 O   0  0  0  0  0  0  0  0  0  0  0  0
  182.2640  178.8390  144.2980 C   0  0  0  0  0  3  0  0  0  0  0  0
  183.3530  178.9850  143.8000 C   0  0  0  0  0  0  0  0  0  0  0  0
  190.9700  177.3490  145.2800 C   0  0  0  0  0  2  0  0  0  0  0  0
  192.2730  175.4600  146.2530 O   0  0  0  0  0  0  0  0  0  0  0  0
  191.6480  176.6870  146.4300 C   0  0  0  0  0  0  0  0  0  0  0  0
  191.6510  177.2340  147.5640 O   0  0  0  0  0  1  0  0  0  0  0  0
  190.5210  176.2460  143.0940 C   0  0  0  0  0  2  0  0  0  0  0  0
  191.4680  177.3890  142.7390 C   0  0  0  0  0  2  0  0  0  0  0  0
  191.7470  175.8900  137.7640 C   0  0  0  0  0  0  0  0  0  0  0  0
  190.3320  177.0920  140.5170 C   0  0  0  0  0  2  0  0  0  0  0  0
  191.5790  177.6060  141.2330 C   0  0  2  0  0  3  0  0  0  0  0  0
  187.9950  176.3810  137.8800 C   0  0  0  0  0  1  0  0  0  0  0  0
  189.3510  175.9280  137.6040 N   0  0  0  0  0  0  0  0  0  0  0  0
  190.2850  177.6060  139.0880 C   0  0  0  0  0  2  0  0  0  0  0  0
  193.1550  177.4920  139.2900 C   0  0  0  0  0  2  0  0  0  0  0  0
  194.1430  175.7900  137.9460 N   0  0  0  0  0  2  0  0  0  0  0  0
  193.0480  176.3810  138.3000 C   0  0  0  0  0  0  0  0  0  0  0  0
  192.8600  176.9780  140.6890 C   0  0  0  0  0  2  0  0  0  0  0  0
  191.7740  174.9010  136.9270 N   0  0  0  0  0  2  0  0  0  0  0  0
  190.4190  176.4610  138.1240 C   0  0  0  0  0  0  0  0  0  0  0  0
  1 21  1  6  0  0  0
  1 17  1  0  0  0  0
  2 10  1  1  0  0  0
  3  1  1  6  0  0  0
  3  4  1  0  0  0  0
  4  2  1  0  0  0  0
  5  2  1  0  0  0  0
  6  5  2  0  0  0  0
  7  3  1  0  0  0  0
  7  4  1  0  0  0  0
  8  7  1  0  0  0  0
  8  6  1  0  0  0  0
 10  9  1  0  0  0  0
 11 16  1  0  0  0  0
 11  6  1  0  0  0  0
 12 13  1  0  0  0  0
 13 11  1  0  0  0  0
 14 13  2  0  0  0  0
 16 15  3  0  0  0  0
 17 19  1  0  0  0  0
 18 19  2  0  0  0  0
 19 20  1  0  0  0  0
 22 21  1  0  0  0  0
 23 34  1  0  0  0  0
 23 31  1  0  0  0  0
 24 25  1  0  0  0  0
 25 22  1  0  0  0  0
 27 26  1  0  0  0  0
 27 34  2  0  0  0  0
 28 24  1  0  0  0  0
 29 32  1  0  0  0  0
 30 31  2  0  0  0  0
 31 29  1  0  0  0  0
 32 25  1  0  0  0  0
 33 23  2  0  0  0  0
 34 28  1  0  0  0  0
M  END
>  <MODEL>
1

>  <REMARK>
 VINA RESULT:      -8.7      0.000      0.000
  Name = 
  10 active torsions:
  status: ('A' for Active; 'I' for Inactive)
    1  A    between atoms: C_4  and  C_25
    2  A    between atoms: C_6  and  C_22
    3  A    between atoms: C_8  and  C_12
    4  A    between atoms: C_8  and  C_22
    5  A    between atoms: C_9  and  C_27
    6  A    between atoms: C_13  and  C_15
    7  A    between atoms: C_15  and  C_16
    8  A    between atoms: C_15  and  C_32
    9  A    between atoms: C_22  and  C_30
   10  A    between atoms: C_27  and  C_30
                            x       y       z     vdW  Elec       q    Type
                         _______ _______ _______ _____ _____    ______ ____

>  <TORSDO>
F 10

$$$$
=
 OpenBabel10232409573D

 34 36  0  0  1  0  0  0  0  0999 V2000
  190.3080  176.7500  144.4340 C   0  0  2  0  0  3  0  0  0  0  0  0
  187.0770  177.7340  145.9070 C   0  0  2  0  0  3  0  0  0  0  0  0
  188.7690  176.8700  144.5080 C   0  0  1  0  0  3  0  0  0  0  0  0
  188.3310  178.0830  145.2220 N   0  0  1  0  0  0  0  0  0  0  0  0
  185.9020  178.4240  145.2750 C   0  0  0  0  0  3  0  0  0  0  0  0
  185.7980  178.3870  143.9470 C   0  0  0  0  0  0  0  0  0  0  0  0
  188.2620  178.0010  143.7280 C   0  0  2  0  0  3  0  0  0  0  0  0
  186.8670  177.6730  143.1670 C   0  0  0  0  0  2  0  0  0  0  0  0
  188.3820  177.3920  148.0470 C   0  0  0  0  0  1  0  0  0  0  0  0
  187.1680  178.0420  147.3990 C   0  0  0  0  0  2  0  0  0  0  0  0
  184.6820  179.1240  143.2670 C   0  0  1  0  0  3  0  0  0  0  0  0
  183.9740  177.8180  141.3830 O   0  0  0  0  0  1  0  0  0  0  0  0
  184.6240  178.8120  141.8050 C   0  0  0  0  0  0  0  0  0  0  0  0
  185.3050  179.6200  140.9050 O   0  0  0  0  0  0  0  0  0  0  0  0
  182.3310  178.6600  144.4590 C   0  0  0  0  0  3  0  0  0  0  0  0
  183.3900  178.8690  143.9220 C   0  0  0  0  0  0  0  0  0  0  0  0
  191.0940  177.4630  145.5360 C   0  0  0  0  0  2  0  0  0  0  0  0
  192.1890  175.2570  145.9210 O   0  0  0  0  0  0  0  0  0  0  0  0
  191.7670  176.4780  146.4290 C   0  0  0  0  0  0  0  0  0  0  0  0
  191.9500  176.7470  147.6450 O   0  0  0  0  0  1  0  0  0  0  0  0
  190.8190  177.2040  143.0760 C   0  0  0  0  0  2  0  0  0  0  0  0
  190.2250  176.3420  141.9650 C   0  0  0  0  0  2  0  0  0  0  0  0
  189.3600  176.7520  136.8510 C   0  0  0  0  0  0  0  0  0  0  0  0
  188.7930  177.2100  140.0910 C   0  0  0  0  0  2  0  0  0  0  0  0
  190.2190  177.0540  140.6160 C   0  0  2  0  0  3  0  0  0  0  0  0
  186.0500  178.1980  137.9880 C   0  0  0  0  0  1  0  0  0  0  0  0
  187.1240  177.5160  137.2770 N   0  0  0  0  0  0  0  0  0  0  0  0
  188.7520  178.2010  138.9410 C   0  0  0  0  0  2  0  0  0  0  0  0
  191.4090  177.2220  138.4190 C   0  0  0  0  0  2  0  0  0  0  0  0
  191.5770  175.9250  136.4260 N   0  0  0  0  0  2  0  0  0  0  0  0
  190.8060  176.6270  137.1910 C   0  0  0  0  0  0  0  0  0  0  0  0
  191.1280  176.3370  139.6220 C   0  0  0  0  0  2  0  0  0  0  0  0
  188.9420  176.1720  135.7700 N   0  0  0  0  0  2  0  0  0  0  0  0
  188.3640  177.5000  137.6700 C   0  0  0  0  0  0  0  0  0  0  0  0
  1 21  1  6  0  0  0
  1 17  1  0  0  0  0
  2 10  1  1  0  0  0
  3  1  1  6  0  0  0
  3  4  1  0  0  0  0
  4  2  1  0  0  0  0
  5  2  1  0  0  0  0
  6  5  2  0  0  0  0
  7  3  1  0  0  0  0
  7  4  1  0  0  0  0
  8  7  1  0  0  0  0
  8  6  1  0  0  0  0
 10  9  1  0  0  0  0
 11 16  1  0  0  0  0
 11  6  1  0  0  0  0
 12 13  1  0  0  0  0
 13 11  1  0  0  0  0
 14 13  2  0  0  0  0
 16 15  3  0  0  0  0
 17 19  1  0  0  0  0
 18 19  2  0  0  0  0
 19 20  1  0  0  0  0
 22 21  1  0  0  0  0
 23 31  1  0  0  0  0
 23 34  1  0  0  0  0
 24 25  1  0  0  0  0
 25 22  1  0  0  0  0
 27 34  2  0  0  0  0
 27 26  1  0  0  0  0
 28 24  1  0  0  0  0
 29 32  1  0  0  0  0
 30 31  2  0  0  0  0
 31 29  1  0  0  0  0
 32 25  1  0  0  0  0
 33 23  2  0  0  0  0
 34 28  1  0  0  0  0
M  END
>  <MODEL>
2

>  <REMARK>
 VINA RESULT:      -8.6      1.048      1.491
  Name = 
  10 active torsions:
  status: ('A' for Active; 'I' for Inactive)
    1  A    between atoms: C_4  and  C_25
    2  A    between atoms: C_6  and  C_22
    3  A    between atoms: C_8  and  C_12
    4  A    between atoms: C_8  and  C_22
    5  A    between atoms: C_9  and  C_27
    6  A    between atoms: C_13  and  C_15
    7  A    between atoms: C_15  and  C_16
    8  A    between atoms: C_15  and  C_32
    9  A    between atoms: C_22  and  C_30
   10  A    between atoms: C_27  and  C_30
                            x       y       z     vdW  Elec       q    Type
                         _______ _______ _______ _____ _____    ______ ____

>  <TORSDO>
F 10

$$$$
=
 OpenBabel10232409573D

 34 36  0  0  1  0  0  0  0  0999 V2000
  190.5860  176.9710  143.2410 C   0  0  2  0  0  3  0  0  0  0  0  0
  187.3590  177.3780  144.9740 C   0  0  2  0  0  3  0  0  0  0  0  0
  189.0460  176.9560  143.3790 C   0  0  1  0  0  3  0  0  0  0  0  0
  188.5580  177.9560  144.3460 N   0  0  1  0  0  0  0  0  0  0  0  0
  186.1150  178.0950  144.5340 C   0  0  0  0  0  3  0  0  0  0  0  0
  185.9580  178.3300  143.2310 C   0  0  0  0  0  0  0  0  0  0  0  0
  188.4320  178.1850  142.8710 C   0  0  2  0  0  3  0  0  0  0  0  0
  187.0410  177.8780  142.2900 C   0  0  0  0  0  2  0  0  0  0  0  0
  186.6140  178.4270  147.1520 C   0  0  0  0  0  1  0  0  0  0  0  0
  187.4910  177.3710  146.4940 C   0  0  0  0  0  2  0  0  0  0  0  0
  184.7680  179.1080  142.7540 C   0  0  1  0  0  3  0  0  0  0  0  0
  183.7370  177.7620  141.0550 O   0  0  0  0  0  1  0  0  0  0  0  0
  184.4270  178.7790  141.3340 C   0  0  0  0  0  0  0  0  0  0  0  0
  184.8880  179.5980  140.3130 O   0  0  0  0  0  0  0  0  0  0  0  0
  182.6610  178.7660  144.3680 C   0  0  0  0  0  3  0  0  0  0  0  0
  183.6100  178.9200  143.6400 C   0  0  0  0  0  0  0  0  0  0  0  0
  191.3770  177.1730  144.5350 C   0  0  0  0  0  2  0  0  0  0  0  0
  192.1380  175.7070  146.4030 O   0  0  0  0  0  1  0  0  0  0  0  0
  191.8990  175.8740  145.0450 C   0  0  0  0  0  0  0  0  0  0  0  0
  192.1300  174.9270  144.2470 O   0  0  0  0  0  0  0  0  0  0  0  0
  191.0250  178.0020  142.2150 C   0  0  0  0  0  2  0  0  0  0  0  0
  191.6950  177.3210  141.0250 C   0  0  0  0  0  2  0  0  0  0  0  0
  189.3320  177.2960  136.3890 C   0  0  0  0  0  0  0  0  0  0  0  0
  191.4010  176.2540  138.7690 C   0  0  0  0  0  2  0  0  0  0  0  0
  190.6880  176.8340  139.9890 C   0  0  2  0  0  3  0  0  0  0  0  0
  191.9130  174.6410  135.5970 C   0  0  0  0  0  1  0  0  0  0  0  0
  190.9620  175.7430  135.5530 N   0  0  0  0  0  0  0  0  0  0  0  0
  190.4300  175.4690  137.9040 C   0  0  0  0  0  2  0  0  0  0  0  0
  188.5110  177.3820  138.8790 C   0  0  0  0  0  2  0  0  0  0  0  0
  187.7400  178.8990  137.2110 N   0  0  0  0  0  2  0  0  0  0  0  0
  188.4890  177.8780  137.4720 C   0  0  0  0  0  0  0  0  0  0  0  0
  189.7130  177.9470  139.6160 C   0  0  0  0  0  2  0  0  0  0  0  0
  189.2490  177.8240  135.2100 N   0  0  0  0  0  2  0  0  0  0  0  0
  190.2620  176.1450  136.5730 C   0  0  0  0  0  0  0  0  0  0  0  0
  1 21  1  6  0  0  0
  1 17  1  0  0  0  0
  2 10  1  1  0  0  0
  3  1  1  6  0  0  0
  3  4  1  0  0  0  0
  4  2  1  0  0  0  0
  5  2  1  0  0  0  0
  6  5  2  0  0  0  0
  7  3  1  0  0  0  0
  7  4  1  0  0  0  0
  8  7  1  0  0  0  0
  8  6  1  0  0  0  0
 10  9  1  0  0  0  0
 11  6  1  0  0  0  0
 11 16  1  0  0  0  0
 12 13  1  0  0  0  0
 13 11  1  0  0  0  0
 14 13  2  0  0  0  0
 16 15  3  0  0  0  0
 17 19  1  0  0  0  0
 19 18  1  0  0  0  0
 20 19  2  0  0  0  0
 22 21  1  0  0  0  0
 23 34  1  0  0  0  0
 23 31  1  0  0  0  0
 24 25  1  0  0  0  0
 25 22  1  0  0  0  0
 27 26  1  0  0  0  0
 27 34  2  0  0  0  0
 28 24  1  0  0  0  0
 29 32  1  0  0  0  0
 30 31  2  0  0  0  0
 31 29  1  0  0  0  0
 32 25  1  0  0  0  0
 33 23  2  0  0  0  0
 34 28  1  0  0  0  0
M  END
>  <MODEL>
3

>  <REMARK>
 VINA RESULT:      -8.5      1.384      2.586
  Name = 
  10 active torsions:
  status: ('A' for Active; 'I' for Inactive)
    1  A    between atoms: C_4  and  C_25
    2  A    between atoms: C_6  and  C_22
    3  A    between atoms: C_8  and  C_12
    4  A    between atoms: C_8  and  C_22
    5  A    between atoms: C_9  and  C_27
    6  A    between atoms: C_13  and  C_15
    7  A    between atoms: C_15  and  C_16
    8  A    between atoms: C_15  and  C_32
    9  A    between atoms: C_22  and  C_30
   10  A    between atoms: C_27  and  C_30
                            x       y       z     vdW  Elec       q    Type
                         _______ _______ _______ _____ _____    ______ ____

>  <TORSDO>
F 10

$$$$
=
 OpenBabel10232409573D

 34 36  0  0  1  0  0  0  0  0999 V2000
  184.0050  178.9290  140.4500 C   0  0  2  0  0  3  0  0  0  0  0  0
  184.5880  178.9550  144.0890 C   0  0  2  0  0  3  0  0  0  0  0  0
  184.8370  179.0730  141.7460 C   0  0  1  0  0  3  0  0  0  0  0  0
  184.3290  178.2240  142.8380 N   0  0  1  0  0  0  0  0  0  0  0  0
  185.6660  178.2880  144.8950 C   0  0  0  0  0  3  0  0  0  0  0  0
  186.7820  177.9240  144.2630 C   0  0  0  0  0  0  0  0  0  0  0  0
  185.5630  177.8450  142.0780 C   0  0  2  0  0  3  0  0  0  0  0  0
  186.8840  178.1890  142.7860 C   0  0  0  0  0  2  0  0  0  0  0  0
  182.0650  178.7770  144.0870 C   0  0  0  0  0  1  0  0  0  0  0  0
  183.3060  179.1180  144.8990 C   0  0  0  0  0  2  0  0  0  0  0  0
  187.8540  177.1890  145.0120 C   0  0  1  0  0  3  0  0  0  0  0  0
  189.8700  178.4160  144.5770 O   0  0  0  0  0  1  0  0  0  0  0  0
  189.1960  177.3710  144.3750 C   0  0  0  0  0  0  0  0  0  0  0  0
  189.6970  176.3800  143.5410 O   0  0  0  0  0  0  0  0  0  0  0  0
  187.9000  177.8860  147.5950 C   0  0  0  0  0  3  0  0  0  0  0  0
  187.8790  177.5710  146.4310 C   0  0  0  0  0  0  0  0  0  0  0  0
  183.3320  177.5740  140.2280 C   0  0  0  0  0  2  0  0  0  0  0  0
  181.2680  178.9220  140.5980 O   0  0  0  0  0  1  0  0  0  0  0  0
  181.8480  177.7090  140.2530 C   0  0  0  0  0  0  0  0  0  0  0  0
  181.1180  176.7240  139.9670 O   0  0  0  0  0  0  0  0  0  0  0  0
  184.8420  179.2830  139.2310 C   0  0  0  0  0  2  0  0  0  0  0  0
  185.1700  178.0290  138.4260 C   0  0  0  0  0  2  0  0  0  0  0  0
  190.0010  176.1340  138.0390 C   0  0  0  0  0  0  0  0  0  0  0  0
  186.8850  176.7750  137.0840 C   0  0  0  0  0  2  0  0  0  0  0  0
  186.6150  178.0130  137.9360 C   0  0  2  0  0  3  0  0  0  0  0  0
  188.6000  174.4390  134.9570 C   0  0  0  0  0  1  0  0  0  0  0  0
  189.3370  174.7900  136.1630 N   0  0  0  0  0  0  0  0  0  0  0  0
  188.1920  176.9230  136.3230 C   0  0  0  0  0  2  0  0  0  0  0  0
  188.9800  178.4810  138.6140 C   0  0  0  0  0  2  0  0  0  0  0  0
  190.6460  177.4320  139.9570 N   0  0  0  0  0  2  0  0  0  0  0  0
  189.9180  177.3540  138.8910 C   0  0  0  0  0  0  0  0  0  0  0  0
  187.5850  178.1350  139.1080 C   0  0  0  0  0  2  0  0  0  0  0  0
  190.8360  175.2080  138.3910 N   0  0  0  0  0  2  0  0  0  0  0  0
  189.1890  175.9100  136.8090 C   0  0  0  0  0  0  0  0  0  0  0  0
  1 21  1  6  0  0  0
  2  5  1  0  0  0  0
  2 10  1  1  0  0  0
  3  1  1  6  0  0  0
  3  7  1  0  0  0  0
  3  4  1  0  0  0  0
  4  2  1  0  0  0  0
  6  5  2  0  0  0  0
  6 11  1  0  0  0  0
  7  8  1  0  0  0  0
  7  4  1  0  0  0  0
  8  6  1  0  0  0  0
  9 10  1  0  0  0  0
 11 16  1  0  0  0  0
 13 12  1  0  0  0  0
 13 11  1  0  0  0  0
 14 13  2  0  0  0  0
 16 15  3  0  0  0  0
 17 19  1  0  0  0  0
 17  1  1  0  0  0  0
 19 18  1  0  0  0  0
 20 19  2  0  0  0  0
 22 21  1  0  0  0  0
 23 33  2  0  0  0  0
 23 31  1  0  0  0  0
 24 25  1  0  0  0  0
 25 22  1  0  0  0  0
 25 32  1  0  0  0  0
 26 27  1  0  0  0  0
 27 34  2  0  0  0  0
 28 34  1  0  0  0  0
 28 24  1  0  0  0  0
 29 31  1  0  0  0  0
 29 32  1  0  0  0  0
 31 30  2  0  0  0  0
 34 23  1  0  0  0  0
M  END
>  <MODEL>
4

>  <REMARK>
 VINA RESULT:      -8.1      2.309      6.077
  Name = 
  10 active torsions:
  status: ('A' for Active; 'I' for Inactive)
    1  A    between atoms: C_4  and  C_25
    2  A    between atoms: C_6  and  C_22
    3  A    between atoms: C_8  and  C_12
    4  A    between atoms: C_8  and  C_22
    5  A    between atoms: C_9  and  C_27
    6  A    between atoms: C_13  and  C_15
    7  A    between atoms: C_15  and  C_16
    8  A    between atoms: C_15  and  C_32
    9  A    between atoms: C_22  and  C_30
   10  A    between atoms: C_27  and  C_30
                            x       y       z     vdW  Elec       q    Type
                         _______ _______ _______ _____ _____    ______ ____

>  <TORSDO>
F 10

$$$$
=
 OpenBabel10232409573D

 34 36  0  0  1  0  0  0  0  0999 V2000
  189.3230  177.2560  140.5400 C   0  0  2  0  0  3  0  0  0  0  0  0
  189.4490  177.5280  144.2130 C   0  0  2  0  0  3  0  0  0  0  0  0
  188.8820  176.9650  141.9930 C   0  0  1  0  0  3  0  0  0  0  0  0
  189.1310  178.1030  142.8960 N   0  0  1  0  0  0  0  0  0  0  0  0
  188.3430  177.7790  145.1970 C   0  0  0  0  0  3  0  0  0  0  0  0
  187.0930  177.5290  144.8070 C   0  0  0  0  0  0  0  0  0  0  0  0
  187.7490  177.7960  142.4060 C   0  0  2  0  0  3  0  0  0  0  0  0
  186.8690  177.0280  143.4070 C   0  0  0  0  0  2  0  0  0  0  0  0
  191.2820  179.2470  143.9220 C   0  0  0  0  0  1  0  0  0  0  0  0
  190.7850  178.0560  144.7280 C   0  0  0  0  0  2  0  0  0  0  0  0
  185.9510  177.8340  145.7310 C   0  0  1  0  0  3  0  0  0  0  0  0
  187.2290  177.8780  147.7610 O   0  0  0  0  0  1  0  0  0  0  0  0
  186.4220  178.4740  146.9990 C   0  0  0  0  0  0  0  0  0  0  0  0
  185.9540  179.7340  147.3440 O   0  0  0  0  0  0  0  0  0  0  0  0
  184.0850  179.3240  144.5220 C   0  0  0  0  0  3  0  0  0  0  0  0
  184.9250  178.6520  145.0660 C   0  0  0  0  0  0  0  0  0  0  0  0
  190.8120  177.5370  140.3300 C   0  0  0  0  0  2  0  0  0  0  0  0
  190.6360  175.5470  138.8390 O   0  0  0  0  0  0  0  0  0  0  0  0
  191.3860  176.6170  139.3070 C   0  0  0  0  0  0  0  0  0  0  0  0
  192.5520  176.8050  138.8700 O   0  0  0  0  0  1  0  0  0  0  0  0
  188.5070  178.3930  139.9470 C   0  0  0  0  0  2  0  0  0  0  0  0
  188.3870  178.2340  138.4340 C   0  0  0  0  0  2  0  0  0  0  0  0
  183.5800  176.2710  138.1120 C   0  0  0  0  0  0  0  0  0  0  0  0
  185.9800  178.3180  139.1490 C   0  0  0  0  0  2  0  0  0  0  0  0
  186.9370  178.1990  137.9650 C   0  0  2  0  0  3  0  0  0  0  0  0
  182.9190  178.6150  141.0100 C   0  0  0  0  0  1  0  0  0  0  0  0
  182.9300  177.5070  140.0650 N   0  0  0  0  0  0  0  0  0  0  0  0
  184.5710  178.6250  138.6700 C   0  0  0  0  0  2  0  0  0  0  0  0
  185.3610  177.0870  136.3670 C   0  0  0  0  0  2  0  0  0  0  0  0
  184.2510  174.9840  136.1950 N   0  0  0  0  0  2  0  0  0  0  0  0
  184.3720  176.0850  136.8630 C   0  0  0  0  0  0  0  0  0  0  0  0
  186.6700  176.9510  137.1270 C   0  0  0  0  0  2  0  0  0  0  0  0
  182.7690  175.3220  138.4590 N   0  0  0  0  0  2  0  0  0  0  0  0
  183.6570  177.4750  138.9860 C   0  0  0  0  0  0  0  0  0  0  0  0
  1 21  1  1  0  0  0
  2 10  1  1  0  0  0
  2  5  1  0  0  0  0
  3  1  1  6  0  0  0
  3  7  1  0  0  0  0
  3  4  1  0  0  0  0
  4  2  1  0  0  0  0
  6  5  2  0  0  0  0
  6 11  1  0  0  0  0
  7  4  1  0  0  0  0
  7  8  1  0  0  0  0
  8  6  1  0  0  0  0
  9 10  1  0  0  0  0
 11 13  1  0  0  0  0
 13 14  2  0  0  0  0
 13 12  1  0  0  0  0
 15 16  3  0  0  0  0
 16 11  1  0  0  0  0
 17  1  1  0  0  0  0
 18 19  2  0  0  0  0
 19 17  1  0  0  0  0
 20 19  1  0  0  0  0
 22 21  1  0  0  0  0
 23 33  2  0  0  0  0
 23 34  1  0  0  0  0
 25 22  1  0  0  0  0
 25 24  1  0  0  0  0
 27 26  1  0  0  0  0
 28 34  1  0  0  0  0
 28 24  1  0  0  0  0
 29 31  1  0  0  0  0
 29 32  1  0  0  0  0
 30 31  2  0  0  0  0
 31 23  1  0  0  0  0
 32 25  1  0  0  0  0
 34 27  2  0  0  0  0
M  END
>  <MODEL>
5

>  <REMARK>
 VINA RESULT:      -8.0      3.458      5.892
  Name = 
  10 active torsions:
  status: ('A' for Active; 'I' for Inactive)
    1  A    between atoms: C_4  and  C_25
    2  A    between atoms: C_6  and  C_22
    3  A    between atoms: C_8  and  C_12
    4  A    between atoms: C_8  and  C_22
    5  A    between atoms: C_9  and  C_27
    6  A    between atoms: C_13  and  C_15
    7  A    between atoms: C_15  and  C_16
    8  A    between atoms: C_15  and  C_32
    9  A    between atoms: C_22  and  C_30
   10  A    between atoms: C_27  and  C_30
                            x       y       z     vdW  Elec       q    Type
                         _______ _______ _______ _____ _____    ______ ____

>  <TORSDO>
F 10

$$$$
=
 OpenBabel10232409573D

 34 36  0  0  1  0  0  0  0  0999 V2000
  189.5360  177.2360  140.3420 C   0  0  2  0  0  3  0  0  0  0  0  0
  190.1290  177.4000  143.9750 C   0  0  2  0  0  3  0  0  0  0  0  0
  189.3200  176.8600  141.8260 C   0  0  1  0  0  3  0  0  0  0  0  0
  189.5900  177.9860  142.7380 N   0  0  1  0  0  0  0  0  0  0  0  0
  189.1470  177.5190  145.1060 C   0  0  0  0  0  3  0  0  0  0  0  0
  187.8820  177.1700  144.8720 C   0  0  0  0  0  0  0  0  0  0  0  0
  188.1860  177.5720  142.4200 C   0  0  2  0  0  3  0  0  0  0  0  0
  187.5160  176.6960  143.4920 C   0  0  0  0  0  2  0  0  0  0  0  0
  191.4870  179.5310  144.0910 C   0  0  0  0  0  1  0  0  0  0  0  0
  191.4720  178.0280  144.3350 C   0  0  0  0  0  2  0  0  0  0  0  0
  186.8520  177.3410  145.9490 C   0  0  1  0  0  3  0  0  0  0  0  0
  188.2130  176.8330  147.8590 O   0  0  0  0  0  1  0  0  0  0  0  0
  187.4810  177.6700  147.2660 C   0  0  0  0  0  0  0  0  0  0  0  0
  187.2430  178.9080  147.8470 O   0  0  0  0  0  0  0  0  0  0  0  0
  185.0130  179.1610  145.2640 C   0  0  0  0  0  3  0  0  0  0  0  0
  185.8410  178.3410  145.5730 C   0  0  0  0  0  0  0  0  0  0  0  0
  190.9760  177.5420  139.9260 C   0  0  0  0  0  2  0  0  0  0  0  0
  192.7230  176.6550  138.3840 O   0  0  0  0  0  0  0  0  0  0  0  0
  191.5050  176.4780  139.0260 C   0  0  0  0  0  0  0  0  0  0  0  0
  190.8470  175.4200  138.8420 O   0  0  0  0  0  1  0  0  0  0  0  0
  188.6390  178.3970  139.9450 C   0  0  0  0  0  2  0  0  0  0  0  0
  189.0360  178.9360  138.5730 C   0  0  0  0  0  2  0  0  0  0  0  0
  186.3950  175.3020  135.9480 C   0  0  0  0  0  0  0  0  0  0  0  0
  186.8360  177.8480  138.0330 C   0  0  0  0  0  2  0  0  0  0  0  0
  188.1320  178.4170  137.4600 C   0  0  2  0  0  3  0  0  0  0  0  0
  183.5450  176.4090  138.1820 C   0  0  0  0  0  1  0  0  0  0  0  0
  184.4800  175.6620  137.3510 N   0  0  0  0  0  0  0  0  0  0  0  0
  185.8060  177.6510  136.9340 C   0  0  0  0  0  2  0  0  0  0  0  0
  188.1200  177.1660  135.2900 C   0  0  0  0  0  2  0  0  0  0  0  0
  188.3350  174.8990  134.5860 N   0  0  0  0  0  2  0  0  0  0  0  0
  187.6230  175.7600  135.2370 C   0  0  0  0  0  0  0  0  0  0  0  0
  188.8730  177.4070  136.5880 C   0  0  0  0  0  2  0  0  0  0  0  0
  186.0730  174.0510  135.8510 N   0  0  0  0  0  2  0  0  0  0  0  0
  185.5130  176.1880  136.7600 C   0  0  0  0  0  0  0  0  0  0  0  0
  1 17  1  1  0  0  0
  2 10  1  1  0  0  0
  2  5  1  0  0  0  0
  3  1  1  6  0  0  0
  3  7  1  0  0  0  0
  3  4  1  0  0  0  0
  4  2  1  0  0  0  0
  6  5  2  0  0  0  0
  6 11  1  0  0  0  0
  7  4  1  0  0  0  0
  7  8  1  0  0  0  0
  8  6  1  0  0  0  0
  9 10  1  0  0  0  0
 11 13  1  0  0  0  0
 13 14  2  0  0  0  0
 13 12  1  0  0  0  0
 15 16  3  0  0  0  0
 16 11  1  0  0  0  0
 18 19  2  0  0  0  0
 19 17  1  0  0  0  0
 20 19  1  0  0  0  0
 21  1  1  0  0  0  0
 22 21  1  0  0  0  0
 23 34  1  0  0  0  0
 25 24  1  0  0  0  0
 25 22  1  0  0  0  0
 27 26  1  0  0  0  0
 28 24  1  0  0  0  0
 29 32  1  0  0  0  0
 30 31  2  0  0  0  0
 31 29  1  0  0  0  0
 31 23  1  0  0  0  0
 32 25  1  0  0  0  0
 33 23  2  0  0  0  0
 34 28  1  0  0  0  0
 34 27  2  0  0  0  0
M  END
>  <MODEL>
6

>  <REMARK>
 VINA RESULT:      -7.9      3.007      5.305
  Name = 
  10 active torsions:
  status: ('A' for Active; 'I' for Inactive)
    1  A    between atoms: C_4  and  C_25
    2  A    between atoms: C_6  and  C_22
    3  A    between atoms: C_8  and  C_12
    4  A    between atoms: C_8  and  C_22
    5  A    between atoms: C_9  and  C_27
    6  A    between atoms: C_13  and  C_15
    7  A    between atoms: C_15  and  C_16
    8  A    between atoms: C_15  and  C_32
    9  A    between atoms: C_22  and  C_30
   10  A    between atoms: C_27  and  C_30
                            x       y       z     vdW  Elec       q    Type
                         _______ _______ _______ _____ _____    ______ ____

>  <TORSDO>
F 10

$$$$
=
 OpenBabel10232409573D

 34 36  0  0  1  0  0  0  0  0999 V2000
  190.5450  177.3080  142.2590 C   0  0  2  0  0  3  0  0  0  0  0  0
  190.8940  176.8740  138.6170 C   0  0  2  0  0  3  0  0  0  0  0  0
  190.4030  177.7010  140.7710 C   0  0  1  0  0  3  0  0  0  0  0  0
  190.2450  176.5290  139.8910 N   0  0  1  0  0  0  0  0  0  0  0  0
  189.8800  177.0630  137.5240 C   0  0  0  0  0  3  0  0  0  0  0  0
  188.8130  177.8180  137.7870 C   0  0  0  0  0  0  0  0  0  0  0  0
  189.0720  177.3940  140.2410 C   0  0  2  0  0  3  0  0  0  0  0  0
  188.6850  178.4180  139.1600 C   0  0  0  0  0  2  0  0  0  0  0  0
  192.4680  176.0320  136.8250 C   0  0  0  0  0  1  0  0  0  0  0  0
  191.9360  175.8270  138.2350 C   0  0  0  0  0  2  0  0  0  0  0  0
  187.7390  177.9740  136.7520 C   0  0  1  0  0  3  0  0  0  0  0  0
  187.2140  175.8210  135.8310 O   0  0  0  0  0  1  0  0  0  0  0  0
  187.8280  176.9130  135.7000 C   0  0  0  0  0  0  0  0  0  0  0  0
  188.6080  177.1320  134.5720 O   0  0  0  0  0  0  0  0  0  0  0  0
  185.3060  178.0410  137.8650 C   0  0  0  0  0  3  0  0  0  0  0  0
  186.4030  178.0110  137.3640 C   0  0  0  0  0  0  0  0  0  0  0  0
  191.8620  177.6950  142.9360 C   0  0  0  0  0  2  0  0  0  0  0  0
  191.1680  179.7910  144.0960 O   0  0  0  0  0  0  0  0  0  0  0  0
  191.6090  178.4770  144.1800 C   0  0  0  0  0  0  0  0  0  0  0  0
  191.7980  177.9490  145.3070 O   0  0  0  0  0  1  0  0  0  0  0  0
  190.2990  175.8210  142.4500 C   0  0  0  0  0  2  0  0  0  0  0  0
  188.9800  175.5860  143.1810 C   0  0  0  0  0  2  0  0  0  0  0  0
  185.6020  178.4140  145.9490 C   0  0  0  0  0  0  0  0  0  0  0  0
  188.4800  176.9090  145.2580 C   0  0  0  0  0  2  0  0  0  0  0  0
  188.3830  176.8760  143.7340 C   0  0  2  0  0  3  0  0  0  0  0  0
  188.2480  178.1080  148.6390 C   0  0  0  0  0  1  0  0  0  0  0  0
  187.0060  178.2180  147.8870 N   0  0  0  0  0  0  0  0  0  0  0  0
  188.2090  178.3090  145.7820 C   0  0  0  0  0  2  0  0  0  0  0  0
  186.4870  178.4920  143.4810 C   0  0  0  0  0  2  0  0  0  0  0  0
  184.1670  178.5540  144.0250 N   0  0  0  0  0  2  0  0  0  0  0  0
  185.3770  178.5100  144.4790 C   0  0  0  0  0  0  0  0  0  0  0  0
  186.9510  177.0660  143.2400 C   0  0  0  0  0  2  0  0  0  0  0  0
  184.5600  178.4140  146.7200 N   0  0  0  0  0  2  0  0  0  0  0  0
  186.9430  178.3200  146.5920 C   0  0  0  0  0  0  0  0  0  0  0  0
  1 21  1  6  0  0  0
  1 17  1  0  0  0  0
  2 10  1  6  0  0  0
  2  4  1  0  0  0  0
  3  1  1  1  0  0  0
  4  7  1  0  0  0  0
  4  3  1  0  0  0  0
  5  6  2  0  0  0  0
  5  2  1  0  0  0  0
  6  8  1  0  0  0  0
  7  3  1  0  0  0  0
  8  7  1  0  0  0  0
  9 10  1  0  0  0  0
 11 16  1  0  0  0  0
 11  6  1  0  0  0  0
 13 12  1  0  0  0  0
 13 11  1  0  0  0  0
 14 13  2  0  0  0  0
 16 15  3  0  0  0  0
 17 19  1  0  0  0  0
 18 19  2  0  0  0  0
 19 20  1  0  0  0  0
 21 22  1  0  0  0  0
 22 25  1  0  0  0  0
 23 34  1  0  0  0  0
 23 33  2  0  0  0  0
 24 28  1  0  0  0  0
 25 24  1  0  0  0  0
 27 26  1  0  0  0  0
 28 34  1  0  0  0  0
 29 31  1  0  0  0  0
 30 31  2  0  0  0  0
 31 23  1  0  0  0  0
 32 29  1  0  0  0  0
 32 25  1  0  0  0  0
 34 27  2  0  0  0  0
M  END
>  <MODEL>
7

>  <REMARK>
 VINA RESULT:      -7.8      2.554      7.570
  Name = 
  10 active torsions:
  status: ('A' for Active; 'I' for Inactive)
    1  A    between atoms: C_4  and  C_25
    2  A    between atoms: C_6  and  C_22
    3  A    between atoms: C_8  and  C_12
    4  A    between atoms: C_8  and  C_22
    5  A    between atoms: C_9  and  C_27
    6  A    between atoms: C_13  and  C_15
    7  A    between atoms: C_15  and  C_16
    8  A    between atoms: C_15  and  C_32
    9  A    between atoms: C_22  and  C_30
   10  A    between atoms: C_27  and  C_30
                            x       y       z     vdW  Elec       q    Type
                         _______ _______ _______ _____ _____    ______ ____

>  <TORSDO>
F 10

$$$$
=
 OpenBabel10232409573D

 34 36  0  0  1  0  0  0  0  0999 V2000
  189.1490  178.0770  140.7370 C   0  0  2  0  0  3  0  0  0  0  0  0
  187.2700  178.0870  143.9070 C   0  0  2  0  0  3  0  0  0  0  0  0
  188.9360  178.3060  142.2510 C   0  0  1  0  0  3  0  0  0  0  0  0
  187.9660  177.3610  142.8330 N   0  0  1  0  0  0  0  0  0  0  0  0
  187.6630  177.5650  145.2600 C   0  0  0  0  0  3  0  0  0  0  0  0
  188.9610  177.3880  145.5070 C   0  0  0  0  0  0  0  0  0  0  0  0
  189.4380  177.1910  143.0570 C   0  0  2  0  0  3  0  0  0  0  0  0
  189.9450  177.7060  144.4150 C   0  0  0  0  0  2  0  0  0  0  0  0
  185.0050  178.7310  144.8330 C   0  0  0  0  0  1  0  0  0  0  0  0
  185.7580  178.0350  143.7080 C   0  0  0  0  0  2  0  0  0  0  0  0
  189.3950  176.7990  146.8160 C   0  0  1  0  0  3  0  0  0  0  0  0
  191.6030  176.1100  146.1740 O   0  0  0  0  0  0  0  0  0  0  0  0
  190.8860  176.7940  146.9520 C   0  0  0  0  0  0  0  0  0  0  0  0
  191.4830  177.5430  147.9560 O   0  0  0  0  0  1  0  0  0  0  0  0
  188.2310  178.0390  148.8830 C   0  0  0  0  0  3  0  0  0  0  0  0
  188.7560  177.4810  147.9520 C   0  0  0  0  0  0  0  0  0  0  0  0
  187.8810  177.9640  139.8880 C   0  0  0  0  0  2  0  0  0  0  0  0
  187.6370  177.4040  137.4700 O   0  0  0  0  0  0  0  0  0  0  0  0
  188.1820  178.2220  138.4510 C   0  0  0  0  0  0  0  0  0  0  0  0
  188.9340  179.1780  138.1240 O   0  0  0  0  0  1  0  0  0  0  0  0
  190.0290  176.8620  140.4950 C   0  0  0  0  0  2  0  0  0  0  0  0
  191.4040  177.2890  139.9880 C   0  0  0  0  0  2  0  0  0  0  0  0
  192.7390  173.8450  136.3240 C   0  0  0  0  0  0  0  0  0  0  0  0
  190.7000  175.7110  138.1640 C   0  0  0  0  0  2  0  0  0  0  0  0
  191.6700  176.8210  138.5610 C   0  0  2  0  0  3  0  0  0  0  0  0
  189.0030  173.2560  136.1600 C   0  0  0  0  0  1  0  0  0  0  0  0
  190.4540  173.1310  136.1440 N   0  0  0  0  0  0  0  0  0  0  0  0
  190.7310  175.4850  136.6620 C   0  0  0  0  0  2  0  0  0  0  0  0
  193.4850  176.2890  136.9190 C   0  0  0  0  0  2  0  0  0  0  0  0
  195.0360  174.5170  136.5530 N   0  0  0  0  0  2  0  0  0  0  0  0
  193.7920  174.8700  136.5750 C   0  0  0  0  0  0  0  0  0  0  0  0
  193.1290  176.4050  138.3920 C   0  0  0  0  0  2  0  0  0  0  0  0
  193.1240  172.6370  136.0580 N   0  0  0  0  0  2  0  0  0  0  0  0
  191.2740  174.1180  136.3580 C   0  0  0  0  0  0  0  0  0  0  0  0
  1 17  1  6  0  0  0
  2 10  1  6  0  0  0
  2  5  1  0  0  0  0
  3  1  1  6  0  0  0
  3  4  1  0  0  0  0
  3  7  1  0  0  0  0
  4  7  1  0  0  0  0
  4  2  1  0  0  0  0
  5  6  2  0  0  0  0
  6 11  1  0  0  0  0
  7  8  1  0  0  0  0
  8  6  1  0  0  0  0
 10  9  1  0  0  0  0
 11 13  1  0  0  0  0
 11 16  1  0  0  0  0
 12 13  2  0  0  0  0
 13 14  1  0  0  0  0
 16 15  3  0  0  0  0
 18 19  2  0  0  0  0
 19 17  1  0  0  0  0
 20 19  1  0  0  0  0
 21  1  1  0  0  0  0
 22 21  1  0  0  0  0
 23 34  1  0  0  0  0
 23 31  1  0  0  0  0
 24 25  1  0  0  0  0
 25 22  1  0  0  0  0
 27 26  1  0  0  0  0
 27 34  2  0  0  0  0
 28 24  1  0  0  0  0
 29 32  1  0  0  0  0
 30 31  2  0  0  0  0
 31 29  1  0  0  0  0
 32 25  1  0  0  0  0
 33 23  2  0  0  0  0
 34 28  1  0  0  0  0
M  END
>  <MODEL>
8

>  <REMARK>
 VINA RESULT:      -7.7      2.000      5.240
  Name = 
  10 active torsions:
  status: ('A' for Active; 'I' for Inactive)
    1  A    between atoms: C_4  and  C_25
    2  A    between atoms: C_6  and  C_22
    3  A    between atoms: C_8  and  C_12
    4  A    between atoms: C_8  and  C_22
    5  A    between atoms: C_9  and  C_27
    6  A    between atoms: C_13  and  C_15
    7  A    between atoms: C_15  and  C_16
    8  A    between atoms: C_15  and  C_32
    9  A    between atoms: C_22  and  C_30
   10  A    between atoms: C_27  and  C_30
                            x       y       z     vdW  Elec       q    Type
                         _______ _______ _______ _____ _____    ______ ____

>  <TORSDO>
F 10

$$$$
=
 OpenBabel10232409573D

 34 36  0  0  1  0  0  0  0  0999 V2000
  187.7390  177.9810  143.9610 C   0  0  2  0  0  3  0  0  0  0  0  0
  190.8020  177.5430  141.9590 C   0  0  2  0  0  3  0  0  0  0  0  0
  188.6940  178.2260  142.7700 C   0  0  1  0  0  3  0  0  0  0  0  0
  189.5080  177.0400  142.4480 N   0  0  1  0  0  0  0  0  0  0  0  0
  190.9610  177.2940  140.4860 C   0  0  0  0  0  3  0  0  0  0  0  0
  189.9420  177.6120  139.6870 C   0  0  0  0  0  0  0  0  0  0  0  0
  188.3360  177.4240  141.5980 C   0  0  2  0  0  3  0  0  0  0  0  0
  188.6980  178.1820  140.3100 C   0  0  0  0  0  2  0  0  0  0  0  0
  191.4690  176.1110  143.9340 C   0  0  0  0  0  1  0  0  0  0  0  0
  191.9560  176.9400  142.7540 C   0  0  0  0  0  2  0  0  0  0  0  0
  190.0270  177.3120  138.2200 C   0  0  1  0  0  3  0  0  0  0  0  0
  190.5600  174.9880  137.9480 O   0  0  0  0  0  1  0  0  0  0  0  0
  189.6770  175.8870  137.9250 C   0  0  0  0  0  0  0  0  0  0  0  0
  188.3670  175.5560  137.6120 O   0  0  0  0  0  0  0  0  0  0  0  0
  188.5260  179.0010  136.7860 C   0  0  0  0  0  3  0  0  0  0  0  0
  189.2020  178.2400  137.4320 C   0  0  0  0  0  0  0  0  0  0  0  0
  188.2230  176.9880  145.0200 C   0  0  0  0  0  2  0  0  0  0  0  0
  187.6380  177.6990  147.3380 O   0  0  0  0  0  1  0  0  0  0  0  0
  188.5530  177.6900  146.2930 C   0  0  0  0  0  0  0  0  0  0  0  0
  189.6580  178.2810  146.4220 O   0  0  0  0  0  0  0  0  0  0  0  0
  186.3620  177.5650  143.4710 C   0  0  0  0  0  2  0  0  0  0  0  0
  185.4120  178.7580  143.4660 C   0  0  0  0  0  2  0  0  0  0  0  0
  180.9820  179.6730  140.8940 C   0  0  0  0  0  0  0  0  0  0  0  0
  184.0320  178.4560  141.3880 C   0  0  0  0  0  2  0  0  0  0  0  0
  184.0350  178.4050  142.9140 C   0  0  2  0  0  3  0  0  0  0  0  0
  182.8870  178.1600  137.9930 C   0  0  0  0  0  1  0  0  0  0  0  0
  182.0040  178.9410  138.8480 N   0  0  0  0  0  0  0  0  0  0  0  0
  182.7890  177.7840  140.8310 C   0  0  0  0  0  2  0  0  0  0  0  0
  181.5760  178.7270  143.2680 C   0  0  0  0  0  2  0  0  0  0  0  0
  179.9820  180.4660  142.9320 N   0  0  0  0  0  2  0  0  0  0  0  0
  180.8020  179.6370  142.3740 C   0  0  0  0  0  0  0  0  0  0  0  0
  182.9600  179.2990  143.5270 C   0  0  0  0  0  2  0  0  0  0  0  0
  180.2730  180.5230  140.2210 N   0  0  0  0  0  2  0  0  0  0  0  0
  181.9210  178.7960  140.1390 C   0  0  0  0  0  0  0  0  0  0  0  0
  1 21  1  6  0  0  0
  1 17  1  0  0  0  0
  2  4  1  0  0  0  0
  2 10  1  1  0  0  0
  3  1  1  1  0  0  0
  4  3  1  0  0  0  0
  5  2  1  0  0  0  0
  6  8  1  0  0  0  0
  6  5  2  0  0  0  0
  7  4  1  0  0  0  0
  7  3  1  0  0  0  0
  8  7  1  0  0  0  0
 10  9  1  0  0  0  0
 11  6  1  0  0  0  0
 13 12  1  0  0  0  0
 13 11  1  0  0  0  0
 14 13  2  0  0  0  0
 15 16  3  0  0  0  0
 16 11  1  0  0  0  0
 17 19  1  0  0  0  0
 19 20  2  0  0  0  0
 19 18  1  0  0  0  0
 22 21  1  0  0  0  0
 23 31  1  0  0  0  0
 24 25  1  0  0  0  0
 25 22  1  0  0  0  0
 25 32  1  0  0  0  0
 26 27  1  0  0  0  0
 27 34  2  0  0  0  0
 28 24  1  0  0  0  0
 29 32  1  0  0  0  0
 31 30  2  0  0  0  0
 31 29  1  0  0  0  0
 33 23  2  0  0  0  0
 34 28  1  0  0  0  0
 34 23  1  0  0  0  0
M  END
>  <MODEL>
9

>  <REMARK>
 VINA RESULT:      -7.5      3.647      7.785
  Name = 
  10 active torsions:
  status: ('A' for Active; 'I' for Inactive)
    1  A    between atoms: C_4  and  C_25
    2  A    between atoms: C_6  and  C_22
    3  A    between atoms: C_8  and  C_12
    4  A    between atoms: C_8  and  C_22
    5  A    between atoms: C_9  and  C_27
    6  A    between atoms: C_13  and  C_15
    7  A    between atoms: C_15  and  C_16
    8  A    between atoms: C_15  and  C_32
    9  A    between atoms: C_22  and  C_30
   10  A    between atoms: C_27  and  C_30
                            x       y       z     vdW  Elec       q    Type
                         _______ _______ _______ _____ _____    ______ ____

>  <TORSDO>
F 10

$$$$
