=
 OpenBabel10222421513D

 54 58  0  0  1  0  0  0  0  0999 V2000
  190.8460  176.0260  137.3510 C   0  0  1  0  0  3  0  0  0  0  0  0
  192.1890  175.4860  136.9520 C   0  0  0  0  0  0  0  0  0  0  0  0
  196.0190  172.9150  134.9420 N   0  0  0  0  0  2  0  0  0  0  0  0
  194.7540  174.5220  136.3050 C   0  0  0  0  0  0  0  0  0  0  0  0
  194.7300  173.0880  138.3610 C   0  0  0  0  0  3  0  0  0  0  0  0
  194.0910  174.0720  137.4670 C   0  0  0  0  0  0  0  0  0  0  0  0
  196.9130  173.3780  137.1940 C   0  0  0  0  0  2  0  0  0  0  0  0
  192.8150  174.5490  137.7780 C   0  0  0  0  0  3  0  0  0  0  0  0
  194.1300  175.4890  135.4860 C   0  0  0  0  0  0  0  0  0  0  0  0
  194.7520  175.9880  134.3470 O   0  0  0  0  0  1  0  0  0  0  0  0
  196.8150  174.1420  134.7570 C   0  0  0  0  0  2  0  0  0  0  0  0
  196.1100  173.9160  136.0130 C   0  0  1  0  0  0  0  0  0  0  0  0
  192.8580  175.9670  135.8190 C   0  0  0  0  0  3  0  0  0  0  0  0
  196.0140  172.7380  138.2190 C   0  0  0  0  0  3  0  0  0  0  0  0
  189.8270  174.9310  137.2920 C   0  0  0  0  0  0  0  0  0  0  0  0
  190.1870  173.7290  137.1410 O   0  0  0  0  0  0  0  0  0  0  0  0
  188.4420  175.2660  137.3610 N   0  0  0  0  0  2  0  0  0  0  0  0
  187.1860  174.1070  136.9200 S   0  0  0  0  0  0  0  0  0  0  0  0
  186.2960  176.6260  137.1820 C   0  0  0  0  0  3  0  0  0  0  0  0
  184.3250  177.7160  138.2250 C   0  0  0  0  0  0  0  0  0  0  0  0
  185.9110  175.3550  137.0360 C   0  0  0  0  0  0  0  0  0  0  0  0
  185.3580  177.7890  137.1470 C   0  0  0  0  0  2  0  0  0  0  0  0
  183.4300  175.5180  137.4330 C   0  0  0  0  0  3  0  0  0  0  0  0
  184.5040  174.9250  136.8970 C   0  0  0  0  0  3  0  0  0  0  0  0
  183.4270  176.7300  138.2770 C   0  0  0  0  0  3  0  0  0  0  0  0
  184.1810  178.8660  139.1660 C   0  0  0  0  0  2  0  0  0  0  0  0
  183.7290  178.4020  140.5430 C   0  0  0  0  0  2  0  0  0  0  0  0
  184.8950  177.7930  141.3100 C   0  0  0  0  0  2  0  0  0  0  0  0
  184.9500  178.3240  142.7030 C   0  0  0  0  0  0  0  0  0  0  0  0
  184.5420  178.7760  145.7380 C   0  0  0  0  0  3  0  0  0  0  0  0
  186.2910  178.5840  143.3040 C   0  0  0  0  0  2  0  0  0  0  0  0
  183.7030  179.0780  144.7400 C   0  0  0  0  0  3  0  0  0  0  0  0
  183.8110  178.6170  143.3410 C   0  0  0  0  0  3  0  0  0  0  0  0
  186.5060  177.7950  144.5510 C   0  0  0  0  0  3  0  0  0  0  0  0
  185.7440  177.9260  145.6390 C   0  0  0  0  0  3  0  0  0  0  0  0
  190.8570  176.7600  138.7060 C   0  0  2  0  0  3  0  0  0  0  0  0
  189.5570  178.5930  137.7120 C   0  0  0  0  0  3  0  0  0  0  0  0
  189.7920  177.8260  138.7870 C   0  0  0  0  0  0  0  0  0  0  0  0
  188.5570  179.5560  137.6770 O   0  0  0  0  0  1  0  0  0  0  0  0
  187.9970  178.8180  140.0530 O   0  0  0  0  0  1  0  0  0  0  0  0
  189.0370  177.9550  140.0070 N   0  0  0  0  0  0  0  0  0  0  0  0
  189.2810  177.1220  141.1790 C   0  0  0  0  0  2  0  0  0  0  0  0
  189.6920  177.9780  142.3680 C   0  0  0  0  0  2  0  0  0  0  0  0
  190.3900  177.1370  143.4240 C   0  0  2  0  0  3  0  0  0  0  0  0
  189.8850  175.7060  143.3660 C   0  0  0  0  0  1  0  0  0  0  0  0
  190.1330  177.6700  144.6860 O   0  0  0  0  0  0  0  0  0  0  0  0
  191.3150  177.4570  145.4070 C   0  0  0  0  0  2  0  0  0  0  0  0
  191.0280  176.6270  146.6500 C   0  0  1  0  0  3  0  0  0  0  0  0
  191.8980  176.9790  147.6830 O   0  0  0  0  0  1  0  0  0  0  0  0
  189.5700  176.7780  147.0910 C   0  0  0  0  0  2  0  0  0  0  0  0
  189.3560  177.9440  148.0490 C   0  0  0  0  0  2  0  0  0  0  0  0
  187.9710  177.8790  148.6610 C   0  0  0  0  0  1  0  0  0  0  0  0
  192.4920  177.2770  140.3760 O   0  0  0  0  0  1  0  0  0  0  0  0
  192.2310  177.3520  139.0080 C   0  0  0  0  0  2  0  0  0  0  0  0
  1 15  1  1  0  0  0
  1 36  1  0  0  0  0
  2  1  1  0  0  0  0
  2  8  1  0  0  0  0
  3 12  1  0  0  0  0
  4  6  1  0  0  0  0
  6  8  2  0  0  0  0
  6  5  1  0  0  0  0
  7 14  1  0  0  0  0
  9 13  1  0  0  0  0
  9  4  2  0  0  0  0
 10  9  1  0  0  0  0
 11  3  1  0  0  0  0
 12 11  1  6  0  0  0
 12  4  1  0  0  0  0
 12  7  1  0  0  0  0
 13  2  2  0  0  0  0
 14  5  2  0  0  0  0
 15 17  1  0  0  0  0
 16 15  2  0  0  0  0
 18 21  1  0  0  0  0
 18 17  1  0  0  0  0
 20 25  2  0  0  0  0
 20 26  1  0  0  0  0
 21 19  2  0  0  0  0
 22 19  1  0  0  0  0
 22 20  1  0  0  0  0
 23 25  1  0  0  0  0
 24 21  1  0  0  0  0
 24 23  2  0  0  0  0
 26 27  1  0  0  0  0
 27 28  1  0  0  0  0
 28 29  1  0  0  0  0
 29 31  1  0  0  0  0
 29 33  2  0  0  0  0
 31 34  1  0  0  0  0
 32 30  2  0  0  0  0
 33 32  1  0  0  0  0
 34 35  2  0  0  0  0
 35 30  1  0  0  0  0
 36 38  1  0  0  0  0
 36 54  1  6  0  0  0
 37 38  2  0  0  0  0
 38 41  1  0  0  0  0
 39 37  1  0  0  0  0
 41 40  1  0  0  0  0
 41 42  1  0  0  0  0
 42 43  1  0  0  0  0
 43 44  1  0  0  0  0
 44 45  1  1  0  0  0
 44 46  1  0  0  0  0
 46 47  1  0  0  0  0
 47 48  1  0  0  0  0
 48 50  1  0  0  0  0
 48 49  1  1  0  0  0
 50 51  1  0  0  0  0
 51 52  1  0  0  0  0
 54 53  1  0  0  0  0
M  END
>  <MODEL>
1

>  <REMARK>
 VINA RESULT:      -7.9      0.000      0.000
  Name = 
  20 active torsions:
  status: ('A' for Active; 'I' for Inactive)
    1  A    between atoms: C_1  and  C_24
    2  A    between atoms: C_2  and  C_35
    3  A    between atoms: C_3  and  C_11
    4  A    between atoms: C_3  and  C_38
    5  A    between atoms: C_8  and  C_53
    6  A    between atoms: C_9  and  N_33
    7  A    between atoms: C_9  and  C_43
    8  A    between atoms: C_11  and  C_12
    9  A    between atoms: C_13  and  S_29
   10  A    between atoms: C_15  and  C_43
   11  A    between atoms: C_15  and  O_50
   12  A    between atoms: C_17  and  N_33
   13  A    between atoms: C_17  and  C_34
   14  A    between atoms: C_19  and  C_24
   15  A    between atoms: C_23  and  C_35
   16  A    between atoms: C_23  and  C_53
   17  A    between atoms: C_24  and  C_34
   18  A    between atoms: S_29  and  N_51
   19  A    between atoms: C_34  and  C_52
   20  A    between atoms: C_38  and  O_50
                            x       y       z     vdW  Elec       q    Type
                         _______ _______ _______ _____ _____    ______ ____

>  <TORSDO>
F 20

$$$$
=
 OpenBabel10222421513D

 54 58  0  0  1  0  0  0  0  0999 V2000
  190.1160  175.3270  136.3470 C   0  0  1  0  0  3  0  0  0  0  0  0
  191.6160  175.2780  136.2960 C   0  0  0  0  0  0  0  0  0  0  0  0
  196.4380  174.3420  135.2050 N   0  0  0  0  0  2  0  0  0  0  0  0
  194.4310  175.2250  136.3150 C   0  0  0  0  0  0  0  0  0  0  0  0
  194.3820  173.4670  138.1020 C   0  0  0  0  0  3  0  0  0  0  0  0
  193.6920  174.3860  137.1770 C   0  0  0  0  0  0  0  0  0  0  0  0
  196.5640  174.5860  137.6570 C   0  0  0  0  0  2  0  0  0  0  0  0
  192.2950  174.4120  137.1570 C   0  0  0  0  0  3  0  0  0  0  0  0
  193.7420  176.1180  135.4640 C   0  0  0  0  0  0  0  0  0  0  0  0
  194.4210  176.9860  134.6180 O   0  0  0  0  0  1  0  0  0  0  0  0
  196.8110  175.7550  135.3980 C   0  0  0  0  0  2  0  0  0  0  0  0
  195.9380  175.0960  136.3630 C   0  0  1  0  0  0  0  0  0  0  0  0
  192.3440  176.1410  135.4660 C   0  0  0  0  0  3  0  0  0  0  0  0
  195.7040  173.5290  138.2990 C   0  0  0  0  0  3  0  0  0  0  0  0
  189.6760  176.6170  136.9670 C   0  0  0  0  0  0  0  0  0  0  0  0
  189.9530  177.7190  136.4150 O   0  0  0  0  0  0  0  0  0  0  0  0
  188.9830  176.5880  138.2130 N   0  0  0  0  0  2  0  0  0  0  0  0
  188.7720  178.0440  139.1890 S   0  0  0  0  0  0  0  0  0  0  0  0
  189.0970  176.8780  141.5860 C   0  0  0  0  0  3  0  0  0  0  0  0
  190.7860  176.9860  143.4010 C   0  0  0  0  0  0  0  0  0  0  0  0
  189.7470  177.3600  140.5230 C   0  0  0  0  0  0  0  0  0  0  0  0
  189.7610  176.1470  142.7070 C   0  0  0  0  0  2  0  0  0  0  0  0
  192.1350  177.3340  141.3240 C   0  0  0  0  0  3  0  0  0  0  0  0
  191.2140  177.3030  140.3520 C   0  0  0  0  0  3  0  0  0  0  0  0
  191.8760  177.4330  142.7740 C   0  0  0  0  0  3  0  0  0  0  0  0
  190.6770  177.1840  144.8780 C   0  0  0  0  0  2  0  0  0  0  0  0
  189.5470  178.1420  145.2260 C   0  0  0  0  0  2  0  0  0  0  0  0
  188.6390  177.5310  146.2850 C   0  0  0  0  0  2  0  0  0  0  0  0
  187.2050  177.6740  145.9020 C   0  0  0  0  0  0  0  0  0  0  0  0
  184.3850  178.7870  145.2720 C   0  0  0  0  0  3  0  0  0  0  0  0
  186.7540  177.0620  144.6170 C   0  0  0  0  0  2  0  0  0  0  0  0
  184.9310  178.5580  146.4720 C   0  0  0  0  0  3  0  0  0  0  0  0
  186.3560  178.2780  146.7430 C   0  0  0  0  0  3  0  0  0  0  0  0
  186.1770  178.0750  143.6880 C   0  0  0  0  0  3  0  0  0  0  0  0
  185.0970  178.8020  143.9790 C   0  0  0  0  0  3  0  0  0  0  0  0
  189.4460  175.0600  134.9850 C   0  0  2  0  0  3  0  0  0  0  0  0
  187.4370  176.3870  134.4980 C   0  0  0  0  0  3  0  0  0  0  0  0
  187.9530  175.2700  135.0310 C   0  0  0  0  0  0  0  0  0  0  0  0
  186.0710  176.6350  134.4440 O   0  0  0  0  0  1  0  0  0  0  0  0
  186.6860  173.2290  134.8340 O   0  0  0  0  0  1  0  0  0  0  0  0
  187.1300  174.2400  135.6140 N   0  0  0  0  0  0  0  0  0  0  0  0
  186.8280  174.1830  137.0390 C   0  0  0  0  0  2  0  0  0  0  0  0
  186.3350  172.7960  137.4260 C   0  0  0  0  0  2  0  0  0  0  0  0
  184.8630  172.8310  137.8010 C   0  0  2  0  0  3  0  0  0  0  0  0
  184.0590  171.9800  136.8330 C   0  0  0  0  0  1  0  0  0  0  0  0
  184.4030  174.1460  137.7560 O   0  0  0  0  0  0  0  0  0  0  0  0
  183.0920  174.0460  137.2730 C   0  0  0  0  0  2  0  0  0  0  0  0
  182.2750  175.2490  137.7240 C   0  0  1  0  0  3  0  0  0  0  0  0
  181.0510  174.8360  138.2510 O   0  0  0  0  0  1  0  0  0  0  0  0
  183.0490  176.0940  138.7390 C   0  0  0  0  0  2  0  0  0  0  0  0
  183.1230  177.5670  138.3530 C   0  0  0  0  0  2  0  0  0  0  0  0
  182.0360  178.3540  139.0570 C   0  0  0  0  0  1  0  0  0  0  0  0
  189.8080  172.7570  135.5270 O   0  0  0  0  0  1  0  0  0  0  0  0
  189.7740  173.6620  134.4670 C   0  0  0  0  0  2  0  0  0  0  0  0
  1 15  1  6  0  0  0
  2  1  1  0  0  0  0
  2  8  1  0  0  0  0
  3 11  1  0  0  0  0
  3 12  1  0  0  0  0
  4 12  1  0  0  0  0
  4  6  1  0  0  0  0
  5 14  2  0  0  0  0
  6  5  1  0  0  0  0
  7 14  1  0  0  0  0
  8  6  2  0  0  0  0
  9 13  1  0  0  0  0
  9  4  2  0  0  0  0
 10  9  1  0  0  0  0
 12 11  1  6  0  0  0
 12  7  1  0  0  0  0
 13  2  2  0  0  0  0
 15 17  1  0  0  0  0
 16 15  2  0  0  0  0
 17 18  1  0  0  0  0
 18 21  1  0  0  0  0
 19 22  1  0  0  0  0
 20 26  1  0  0  0  0
 21 19  2  0  0  0  0
 22 20  1  0  0  0  0
 23 25  1  0  0  0  0
 24 21  1  0  0  0  0
 24 23  2  0  0  0  0
 25 20  2  0  0  0  0
 26 27  1  0  0  0  0
 27 28  1  0  0  0  0
 29 28  1  0  0  0  0
 29 33  2  0  0  0  0
 30 32  2  0  0  0  0
 31 29  1  0  0  0  0
 32 33  1  0  0  0  0
 34 35  2  0  0  0  0
 34 31  1  0  0  0  0
 35 30  1  0  0  0  0
 36 54  1  1  0  0  0
 36 38  1  0  0  0  0
 36  1  1  0  0  0  0
 37 38  2  0  0  0  0
 38 41  1  0  0  0  0
 39 37  1  0  0  0  0
 40 41  1  0  0  0  0
 41 42  1  0  0  0  0
 42 43  1  0  0  0  0
 43 44  1  0  0  0  0
 44 45  1  6  0  0  0
 46 44  1  0  0  0  0
 47 48  1  0  0  0  0
 47 46  1  0  0  0  0
 48 49  1  1  0  0  0
 48 50  1  0  0  0  0
 51 50  1  0  0  0  0
 51 52  1  0  0  0  0
 54 53  1  0  0  0  0
M  END
>  <MODEL>
2

>  <REMARK>
 VINA RESULT:      -7.8      2.646      6.432
  Name = 
  20 active torsions:
  status: ('A' for Active; 'I' for Inactive)
    1  A    between atoms: C_1  and  C_24
    2  A    between atoms: C_2  and  C_35
    3  A    between atoms: C_3  and  C_11
    4  A    between atoms: C_3  and  C_38
    5  A    between atoms: C_8  and  C_53
    6  A    between atoms: C_9  and  N_33
    7  A    between atoms: C_9  and  C_43
    8  A    between atoms: C_11  and  C_12
    9  A    between atoms: C_13  and  S_29
   10  A    between atoms: C_15  and  C_43
   11  A    between atoms: C_15  and  O_50
   12  A    between atoms: C_17  and  N_33
   13  A    between atoms: C_17  and  C_34
   14  A    between atoms: C_19  and  C_24
   15  A    between atoms: C_23  and  C_35
   16  A    between atoms: C_23  and  C_53
   17  A    between atoms: C_24  and  C_34
   18  A    between atoms: S_29  and  N_51
   19  A    between atoms: C_34  and  C_52
   20  A    between atoms: C_38  and  O_50
                            x       y       z     vdW  Elec       q    Type
                         _______ _______ _______ _____ _____    ______ ____

>  <TORSDO>
F 20

$$$$
=
 OpenBabel10222421513D

 54 58  0  0  1  0  0  0  0  0999 V2000
  189.4770  177.9810  140.9170 C   0  0  1  0  0  3  0  0  0  0  0  0
  189.4400  177.8500  142.4130 C   0  0  0  0  0  0  0  0  0  0  0  0
  189.5750  176.2420  147.1790 N   0  0  0  0  0  2  0  0  0  0  0  0
  189.3050  177.7030  145.2210 C   0  0  0  0  0  0  0  0  0  0  0  0
  186.8180  177.4210  145.0830 C   0  0  0  0  0  3  0  0  0  0  0  0
  188.1330  177.6040  144.4410 C   0  0  0  0  0  0  0  0  0  0  0  0
  187.7890  177.9380  147.3200 C   0  0  0  0  0  2  0  0  0  0  0  0
  188.2080  177.6700  143.0470 C   0  0  0  0  0  3  0  0  0  0  0  0
  190.5460  177.9110  144.5780 C   0  0  0  0  0  0  0  0  0  0  0  0
  191.7250  178.0460  145.3010 O   0  0  0  0  0  1  0  0  0  0  0  0
  190.2800  177.4580  147.6240 C   0  0  0  0  0  2  0  0  0  0  0  0
  189.1420  177.5690  146.7200 C   0  0  1  0  0  0  0  0  0  0  0  0
  190.6020  177.9880  143.1830 C   0  0  0  0  0  3  0  0  0  0  0  0
  186.6600  177.5360  146.4070 C   0  0  0  0  0  3  0  0  0  0  0  0
  190.4780  177.0220  140.3530 C   0  0  0  0  0  0  0  0  0  0  0  0
  190.5380  175.8350  140.7810 O   0  0  0  0  0  0  0  0  0  0  0  0
  191.3950  177.4790  139.3600 N   0  0  0  0  0  2  0  0  0  0  0  0
  192.8310  176.5470  138.9280 S   0  0  0  0  0  0  0  0  0  0  0  0
  191.8630  174.3830  137.6680 C   0  0  0  0  0  3  0  0  0  0  0  0
  191.5020  173.7140  135.3060 C   0  0  0  0  0  0  0  0  0  0  0  0
  191.9620  175.7130  137.6060 C   0  0  0  0  0  0  0  0  0  0  0  0
  191.0470  173.5630  136.7210 C   0  0  0  0  0  2  0  0  0  0  0  0
  191.1190  176.1860  135.2810 C   0  0  0  0  0  3  0  0  0  0  0  0
  191.3430  176.5430  136.5520 C   0  0  0  0  0  3  0  0  0  0  0  0
  191.4450  174.8830  134.6650 C   0  0  0  0  0  3  0  0  0  0  0  0
  191.8660  172.4900  134.5310 C   0  0  0  0  0  2  0  0  0  0  0  0
  192.7610  171.5650  135.3430 C   0  0  0  0  0  2  0  0  0  0  0  0
  194.2280  171.8930  135.0980 C   0  0  0  0  0  2  0  0  0  0  0  0
  194.7490  172.8170  136.1450 C   0  0  0  0  0  0  0  0  0  0  0  0
  196.3550  174.0900  138.4660 C   0  0  0  0  0  3  0  0  0  0  0  0
  195.0910  174.2140  135.7450 C   0  0  0  0  0  2  0  0  0  0  0  0
  195.3860  173.1700  138.5420 C   0  0  0  0  0  3  0  0  0  0  0  0
  194.8260  172.3980  137.4140 C   0  0  0  0  0  3  0  0  0  0  0  0
  196.5210  174.5380  136.0170 C   0  0  0  0  0  3  0  0  0  0  0  0
  197.0540  174.5190  137.2400 C   0  0  0  0  0  3  0  0  0  0  0  0
  188.0900  177.8560  140.2560 C   0  0  2  0  0  3  0  0  0  0  0  0
  188.8190  179.0570  138.2390 C   0  0  0  0  0  3  0  0  0  0  0  0
  188.1570  178.0110  138.7560 C   0  0  0  0  0  0  0  0  0  0  0  0
  188.9820  179.2450  136.8730 O   0  0  0  0  0  1  0  0  0  0  0  0
  186.3410  177.2620  137.3600 O   0  0  0  0  0  1  0  0  0  0  0  0
  187.5390  177.0040  137.9320 N   0  0  0  0  0  0  0  0  0  0  0  0
  188.1910  175.7420  137.6020 C   0  0  0  0  0  2  0  0  0  0  0  0
  187.3180  174.9150  136.6700 C   0  0  0  0  0  2  0  0  0  0  0  0
  187.1920  173.4870  137.1720 C   0  0  2  0  0  3  0  0  0  0  0  0
  187.4840  172.5120  136.0450 C   0  0  0  0  0  1  0  0  0  0  0  0
  185.8990  173.2730  137.6470 O   0  0  0  0  0  0  0  0  0  0  0  0
  185.0690  173.9080  136.7150 C   0  0  0  0  0  2  0  0  0  0  0  0
  183.6990  173.2460  136.6970 C   0  0  1  0  0  3  0  0  0  0  0  0
  183.0760  173.4490  135.4640 O   0  0  0  0  0  1  0  0  0  0  0  0
  183.8030  171.7530  137.0160 C   0  0  0  0  0  2  0  0  0  0  0  0
  184.1560  170.9080  135.7970 C   0  0  0  0  0  2  0  0  0  0  0  0
  183.5170  169.5370  135.8990 C   0  0  0  0  0  1  0  0  0  0  0  0
  185.9020  178.8180  140.1330 O   0  0  0  0  0  1  0  0  0  0  0  0
  187.0960  178.8490  140.8520 C   0  0  0  0  0  2  0  0  0  0  0  0
  1 15  1  6  0  0  0
  1  2  1  0  0  0  0
  2  8  2  0  0  0  0
  2 13  1  0  0  0  0
  3 11  1  0  0  0  0
  4 12  1  0  0  0  0
  5 14  2  0  0  0  0
  6  5  1  0  0  0  0
  6  4  2  0  0  0  0
  8  6  1  0  0  0  0
  9  4  1  0  0  0  0
  9 10  1  0  0  0  0
 12  3  1  0  0  0  0
 12  7  1  1  0  0  0
 12 11  1  0  0  0  0
 13  9  2  0  0  0  0
 14  7  1  0  0  0  0
 15 16  2  0  0  0  0
 17 15  1  0  0  0  0
 18 17  1  0  0  0  0
 20 22  1  0  0  0  0
 21 19  2  0  0  0  0
 21 18  1  0  0  0  0
 22 19  1  0  0  0  0
 23 24  2  0  0  0  0
 24 21  1  0  0  0  0
 25 23  1  0  0  0  0
 25 20  2  0  0  0  0
 26 20  1  0  0  0  0
 26 27  1  0  0  0  0
 28 27  1  0  0  0  0
 28 29  1  0  0  0  0
 29 33  2  0  0  0  0
 30 32  2  0  0  0  0
 31 34  1  0  0  0  0
 31 29  1  0  0  0  0
 33 32  1  0  0  0  0
 34 35  2  0  0  0  0
 35 30  1  0  0  0  0
 36 54  1  1  0  0  0
 36  1  1  0  0  0  0
 37 38  2  0  0  0  0
 38 36  1  0  0  0  0
 39 37  1  0  0  0  0
 40 41  1  0  0  0  0
 41 38  1  0  0  0  0
 42 41  1  0  0  0  0
 43 44  1  0  0  0  0
 43 42  1  0  0  0  0
 44 45  1  6  0  0  0
 44 46  1  0  0  0  0
 47 46  1  0  0  0  0
 48 49  1  6  0  0  0
 48 47  1  0  0  0  0
 48 50  1  0  0  0  0
 51 52  1  0  0  0  0
 51 50  1  0  0  0  0
 53 54  1  0  0  0  0
M  END
>  <MODEL>
3

>  <REMARK>
 VINA RESULT:      -7.4      2.686     10.154
  Name = 
  20 active torsions:
  status: ('A' for Active; 'I' for Inactive)
    1  A    between atoms: C_1  and  C_24
    2  A    between atoms: C_2  and  C_35
    3  A    between atoms: C_3  and  C_11
    4  A    between atoms: C_3  and  C_38
    5  A    between atoms: C_8  and  C_53
    6  A    between atoms: C_9  and  N_33
    7  A    between atoms: C_9  and  C_43
    8  A    between atoms: C_11  and  C_12
    9  A    between atoms: C_13  and  S_29
   10  A    between atoms: C_15  and  C_43
   11  A    between atoms: C_15  and  O_50
   12  A    between atoms: C_17  and  N_33
   13  A    between atoms: C_17  and  C_34
   14  A    between atoms: C_19  and  C_24
   15  A    between atoms: C_23  and  C_35
   16  A    between atoms: C_23  and  C_53
   17  A    between atoms: C_24  and  C_34
   18  A    between atoms: S_29  and  N_51
   19  A    between atoms: C_34  and  C_52
   20  A    between atoms: C_38  and  O_50
                            x       y       z     vdW  Elec       q    Type
                         _______ _______ _______ _____ _____    ______ ____

>  <TORSDO>
F 20

$$$$
=
 OpenBabel10222421513D

 54 58  0  0  1  0  0  0  0  0999 V2000
  191.4370  176.2370  137.5700 C   0  0  1  0  0  3  0  0  0  0  0  0
  192.7950  175.7670  137.1330 C   0  0  0  0  0  0  0  0  0  0  0  0
  196.7040  173.6120  134.8110 N   0  0  0  0  0  2  0  0  0  0  0  0
  195.3820  174.9090  136.4270 C   0  0  0  0  0  0  0  0  0  0  0  0
  195.2240  173.0590  138.1110 C   0  0  0  0  0  3  0  0  0  0  0  0
  194.6480  174.2300  137.4230 C   0  0  0  0  0  0  0  0  0  0  0  0
  197.4740  173.5470  137.1550 C   0  0  0  0  0  2  0  0  0  0  0  0
  193.3620  174.6570  137.7640 C   0  0  0  0  0  3  0  0  0  0  0  0
  194.8160  176.0470  135.8090 C   0  0  0  0  0  0  0  0  0  0  0  0
  195.5070  176.7700  134.8440 O   0  0  0  0  0  1  0  0  0  0  0  0
  197.5230  174.8310  134.9450 C   0  0  0  0  0  2  0  0  0  0  0  0
  196.7450  174.3500  136.0810 C   0  0  1  0  0  0  0  0  0  0  0  0
  193.5330  176.4690  136.1710 C   0  0  0  0  0  3  0  0  0  0  0  0
  196.5100  172.7190  137.9630 C   0  0  0  0  0  3  0  0  0  0  0  0
  190.4200  175.1790  137.2730 C   0  0  0  0  0  0  0  0  0  0  0  0
  190.4660  174.0640  137.8630 O   0  0  0  0  0  0  0  0  0  0  0  0
  189.4270  175.4300  136.2790 N   0  0  0  0  0  2  0  0  0  0  0  0
  188.4470  174.1270  135.6010 S   0  0  0  0  0  0  0  0  0  0  0  0
  186.0530  173.8050  136.7730 C   0  0  0  0  0  3  0  0  0  0  0  0
  183.9830  175.1560  136.9890 C   0  0  0  0  0  0  0  0  0  0  0  0
  186.9850  174.7070  136.4510 C   0  0  0  0  0  0  0  0  0  0  0  0
  184.8530  174.1100  137.6080 C   0  0  0  0  0  2  0  0  0  0  0  0
  185.8020  176.8720  136.9560 C   0  0  0  0  0  3  0  0  0  0  0  0
  186.9130  176.1380  136.8120 C   0  0  0  0  0  3  0  0  0  0  0  0
  184.4120  176.4020  136.7850 C   0  0  0  0  0  3  0  0  0  0  0  0
  182.5410  174.8470  136.7510 C   0  0  0  0  0  2  0  0  0  0  0  0
  181.6720  176.0810  136.9480 C   0  0  0  0  0  2  0  0  0  0  0  0
  181.1680  176.1540  138.3830 C   0  0  0  0  0  2  0  0  0  0  0  0
  181.9040  177.1990  139.1520 C   0  0  0  0  0  0  0  0  0  0  0  0
  184.1030  178.9490  140.4490 C   0  0  0  0  0  3  0  0  0  0  0  0
  181.5310  178.6270  138.9330 C   0  0  0  0  0  2  0  0  0  0  0  0
  183.6730  177.7440  140.8400 C   0  0  0  0  0  3  0  0  0  0  0  0
  182.8170  176.8290  140.0580 C   0  0  0  0  0  3  0  0  0  0  0  0
  182.6870  179.4390  138.4540 C   0  0  0  0  0  3  0  0  0  0  0  0
  183.8060  179.6060  139.1610 C   0  0  0  0  0  3  0  0  0  0  0  0
  191.3930  176.7140  139.0340 C   0  0  2  0  0  3  0  0  0  0  0  0
  189.5780  178.2310  138.3700 C   0  0  0  0  0  3  0  0  0  0  0  0
  190.1420  177.4990  139.3420 C   0  0  0  0  0  0  0  0  0  0  0  0
  188.3940  178.9350  138.5480 O   0  0  0  0  0  1  0  0  0  0  0  0
  188.5260  178.1880  140.9930 O   0  0  0  0  0  1  0  0  0  0  0  0
  189.5760  177.4020  140.6640 N   0  0  0  0  0  0  0  0  0  0  0  0
  190.0230  176.4200  141.6450 C   0  0  0  0  0  2  0  0  0  0  0  0
  189.4980  176.7690  143.0300 C   0  0  0  0  0  2  0  0  0  0  0  0
  190.6440  176.9730  144.0060 C   0  0  2  0  0  3  0  0  0  0  0  0
  191.6120  175.8060  143.9230 C   0  0  0  0  0  1  0  0  0  0  0  0
  190.1390  177.0660  145.3030 O   0  0  0  0  0  0  0  0  0  0  0  0
  189.0020  177.8730  145.1830 C   0  0  0  0  0  2  0  0  0  0  0  0
  187.9910  177.5180  146.2640 C   0  0  1  0  0  3  0  0  0  0  0  0
  188.4690  177.8950  147.5200 O   0  0  0  0  0  1  0  0  0  0  0  0
  186.6310  178.1610  145.9830 C   0  0  0  0  0  2  0  0  0  0  0  0
  186.1320  177.9000  144.5660 C   0  0  0  0  0  2  0  0  0  0  0  0
  184.8040  178.5930  144.3370 C   0  0  0  0  0  1  0  0  0  0  0  0
  193.2650  176.9640  140.5060 O   0  0  0  0  0  1  0  0  0  0  0  0
  192.6360  177.5240  139.3940 C   0  0  0  0  0  2  0  0  0  0  0  0
  1 15  1  1  0  0  0
  1 36  1  0  0  0  0
  2  1  1  0  0  0  0
  2  8  1  0  0  0  0
  3 11  1  0  0  0  0
  3 12  1  0  0  0  0
  4  6  1  0  0  0  0
  6  8  2  0  0  0  0
  6  5  1  0  0  0  0
  7 14  1  0  0  0  0
  9 13  1  0  0  0  0
  9  4  2  0  0  0  0
 10  9  1  0  0  0  0
 12 11  1  6  0  0  0
 12  4  1  0  0  0  0
 12  7  1  0  0  0  0
 13  2  2  0  0  0  0
 14  5  2  0  0  0  0
 15 16  2  0  0  0  0
 17 15  1  0  0  0  0
 18 17  1  0  0  0  0
 18 21  1  0  0  0  0
 19 22  1  0  0  0  0
 20 22  1  0  0  0  0
 21 19  2  0  0  0  0
 21 24  1  0  0  0  0
 24 23  2  0  0  0  0
 25 23  1  0  0  0  0
 25 20  2  0  0  0  0
 26 27  1  0  0  0  0
 26 20  1  0  0  0  0
 27 28  1  0  0  0  0
 28 29  1  0  0  0  0
 29 33  2  0  0  0  0
 30 32  2  0  0  0  0
 31 29  1  0  0  0  0
 33 32  1  0  0  0  0
 34 31  1  0  0  0  0
 34 35  2  0  0  0  0
 35 30  1  0  0  0  0
 36 38  1  0  0  0  0
 36 54  1  6  0  0  0
 37 39  1  0  0  0  0
 37 38  2  0  0  0  0
 38 41  1  0  0  0  0
 41 40  1  0  0  0  0
 41 42  1  0  0  0  0
 42 43  1  0  0  0  0
 43 44  1  0  0  0  0
 44 45  1  1  0  0  0
 44 46  1  0  0  0  0
 47 46  1  0  0  0  0
 47 48  1  0  0  0  0
 48 49  1  1  0  0  0
 50 48  1  0  0  0  0
 51 50  1  0  0  0  0
 52 51  1  0  0  0  0
 54 53  1  0  0  0  0
M  END
>  <MODEL>
4

>  <REMARK>
 VINA RESULT:      -7.3      1.289      2.958
  Name = 
  20 active torsions:
  status: ('A' for Active; 'I' for Inactive)
    1  A    between atoms: C_1  and  C_24
    2  A    between atoms: C_2  and  C_35
    3  A    between atoms: C_3  and  C_11
    4  A    between atoms: C_3  and  C_38
    5  A    between atoms: C_8  and  C_53
    6  A    between atoms: C_9  and  N_33
    7  A    between atoms: C_9  and  C_43
    8  A    between atoms: C_11  and  C_12
    9  A    between atoms: C_13  and  S_29
   10  A    between atoms: C_15  and  C_43
   11  A    between atoms: C_15  and  O_50
   12  A    between atoms: C_17  and  N_33
   13  A    between atoms: C_17  and  C_34
   14  A    between atoms: C_19  and  C_24
   15  A    between atoms: C_23  and  C_35
   16  A    between atoms: C_23  and  C_53
   17  A    between atoms: C_24  and  C_34
   18  A    between atoms: S_29  and  N_51
   19  A    between atoms: C_34  and  C_52
   20  A    between atoms: C_38  and  O_50
                            x       y       z     vdW  Elec       q    Type
                         _______ _______ _______ _____ _____    ______ ____

>  <TORSDO>
F 20

$$$$
=
 OpenBabel10222421513D

 54 58  0  0  1  0  0  0  0  0999 V2000
  189.3760  178.0440  141.1270 C   0  0  1  0  0  3  0  0  0  0  0  0
  189.3720  177.9080  142.6230 C   0  0  0  0  0  0  0  0  0  0  0  0
  189.5880  176.2810  147.3790 N   0  0  0  0  0  2  0  0  0  0  0  0
  189.3000  177.7540  145.4330 C   0  0  0  0  0  0  0  0  0  0  0  0
  186.8060  177.5210  145.3530 C   0  0  0  0  0  3  0  0  0  0  0  0
  188.1090  177.6810  144.6800 C   0  0  0  0  0  0  0  0  0  0  0  0
  187.8390  178.0110  147.5680 C   0  0  0  0  0  2  0  0  0  0  0  0
  188.1520  177.7500  143.2860 C   0  0  0  0  0  3  0  0  0  0  0  0
  190.5300  177.9400  144.7610 C   0  0  0  0  0  0  0  0  0  0  0  0
  191.7280  178.0490  145.4560 O   0  0  0  0  0  1  0  0  0  0  0  0
  190.3280  177.4810  147.8120 C   0  0  0  0  0  2  0  0  0  0  0  0
  189.1700  177.6180  146.9340 C   0  0  1  0  0  0  0  0  0  0  0  0
  190.5550  178.0210  143.3660 C   0  0  0  0  0  3  0  0  0  0  0  0
  186.6810  177.6350  146.6810 C   0  0  0  0  0  3  0  0  0  0  0  0
  190.3510  177.0730  140.5370 C   0  0  0  0  0  0  0  0  0  0  0  0
  190.3370  175.8590  140.8860 O   0  0  0  0  0  0  0  0  0  0  0  0
  191.3290  177.5470  139.6120 N   0  0  0  0  0  2  0  0  0  0  0  0
  192.7340  176.5740  139.1710 S   0  0  0  0  0  0  0  0  0  0  0  0
  190.8310  176.5880  137.2770 C   0  0  0  0  0  3  0  0  0  0  0  0
  190.3350  175.2520  135.2450 C   0  0  0  0  0  0  0  0  0  0  0  0
  192.1240  176.3430  137.5060 C   0  0  0  0  0  0  0  0  0  0  0  0
  190.2110  176.5810  135.9180 C   0  0  0  0  0  2  0  0  0  0  0  0
  192.8340  175.2600  135.3460 C   0  0  0  0  0  3  0  0  0  0  0  0
  193.0940  175.9580  136.4590 C   0  0  0  0  0  3  0  0  0  0  0  0
  191.5210  174.7270  134.9310 C   0  0  0  0  0  3  0  0  0  0  0  0
  189.0990  174.5740  134.7540 C   0  0  0  0  0  2  0  0  0  0  0  0
  189.0880  173.1000  135.1340 C   0  0  0  0  0  2  0  0  0  0  0  0
  188.5860  172.9210  136.5600 C   0  0  0  0  0  2  0  0  0  0  0  0
  187.1560  172.5000  136.5720 C   0  0  0  0  0  0  0  0  0  0  0  0
  184.0600  172.4630  136.5810 C   0  0  0  0  0  3  0  0  0  0  0  0
  186.7130  171.4810  135.5750 C   0  0  0  0  0  2  0  0  0  0  0  0
  184.8840  172.7210  137.6030 C   0  0  0  0  0  3  0  0  0  0  0  0
  186.3340  172.9870  137.5090 C   0  0  0  0  0  3  0  0  0  0  0  0
  185.6260  171.9970  134.6940 C   0  0  0  0  0  3  0  0  0  0  0  0
  184.4370  172.3880  135.1560 C   0  0  0  0  0  3  0  0  0  0  0  0
  187.9730  177.9380  140.4970 C   0  0  2  0  0  3  0  0  0  0  0  0
  188.8220  179.2090  138.5720 C   0  0  0  0  0  3  0  0  0  0  0  0
  187.9830  178.2650  139.0240 C   0  0  0  0  0  0  0  0  0  0  0  0
  188.9400  179.5310  137.2270 O   0  0  0  0  0  1  0  0  0  0  0  0
  187.4480  176.2540  137.8080 O   0  0  0  0  0  1  0  0  0  0  0  0
  187.1150  177.5190  138.1480 N   0  0  0  0  0  0  0  0  0  0  0  0
  185.8340  178.0340  137.6800 C   0  0  0  0  0  2  0  0  0  0  0  0
  184.8810  176.8900  137.3620 C   0  0  0  0  0  2  0  0  0  0  0  0
  183.7540  176.8280  138.3780 C   0  0  2  0  0  3  0  0  0  0  0  0
  182.8080  175.6890  138.0360 C   0  0  0  0  0  1  0  0  0  0  0  0
  183.0520  178.0320  138.3680 O   0  0  0  0  0  0  0  0  0  0  0  0
  182.4980  178.1290  139.6500 C   0  0  0  0  0  2  0  0  0  0  0  0
  181.0020  178.3960  139.5550 C   0  0  1  0  0  3  0  0  0  0  0  0
  180.3150  177.6780  140.5350 O   0  0  0  0  0  1  0  0  0  0  0  0
  180.7000  179.8920  139.6640 C   0  0  0  0  0  2  0  0  0  0  0  0
  180.7170  180.6020  138.3150 C   0  0  0  0  0  2  0  0  0  0  0  0
  181.6800  181.7720  138.3440 C   0  0  0  0  0  1  0  0  0  0  0  0
  185.6750  178.3210  141.0430 O   0  0  0  0  0  1  0  0  0  0  0  0
  186.9640  178.8160  141.2330 C   0  0  0  0  0  2  0  0  0  0  0  0
  1 15  1  6  0  0  0
  1  2  1  0  0  0  0
  2  8  2  0  0  0  0
  2 13  1  0  0  0  0
  3 11  1  0  0  0  0
  4 12  1  0  0  0  0
  5 14  2  0  0  0  0
  6  5  1  0  0  0  0
  6  4  2  0  0  0  0
  8  6  1  0  0  0  0
  9  4  1  0  0  0  0
  9 10  1  0  0  0  0
 12  3  1  0  0  0  0
 12  7  1  1  0  0  0
 12 11  1  0  0  0  0
 13  9  2  0  0  0  0
 14  7  1  0  0  0  0
 15 16  2  0  0  0  0
 17 15  1  0  0  0  0
 18 17  1  0  0  0  0
 19 21  2  0  0  0  0
 20 22  1  0  0  0  0
 21 18  1  0  0  0  0
 22 19  1  0  0  0  0
 23 24  2  0  0  0  0
 24 21  1  0  0  0  0
 25 20  2  0  0  0  0
 25 23  1  0  0  0  0
 26 27  1  0  0  0  0
 26 20  1  0  0  0  0
 27 28  1  0  0  0  0
 28 29  1  0  0  0  0
 29 33  2  0  0  0  0
 30 32  2  0  0  0  0
 31 29  1  0  0  0  0
 33 32  1  0  0  0  0
 34 35  2  0  0  0  0
 34 31  1  0  0  0  0
 35 30  1  0  0  0  0
 36  1  1  0  0  0  0
 36 54  1  1  0  0  0
 37 38  2  0  0  0  0
 38 36  1  0  0  0  0
 39 37  1  0  0  0  0
 40 41  1  0  0  0  0
 41 38  1  0  0  0  0
 42 41  1  0  0  0  0
 43 42  1  0  0  0  0
 43 44  1  0  0  0  0
 44 45  1  6  0  0  0
 46 44  1  0  0  0  0
 46 47  1  0  0  0  0
 48 47  1  0  0  0  0
 48 50  1  0  0  0  0
 48 49  1  1  0  0  0
 51 52  1  0  0  0  0
 51 50  1  0  0  0  0
 53 54  1  0  0  0  0
M  END
>  <MODEL>
5

>  <REMARK>
 VINA RESULT:      -6.9      2.806      9.232
  Name = 
  20 active torsions:
  status: ('A' for Active; 'I' for Inactive)
    1  A    between atoms: C_1  and  C_24
    2  A    between atoms: C_2  and  C_35
    3  A    between atoms: C_3  and  C_11
    4  A    between atoms: C_3  and  C_38
    5  A    between atoms: C_8  and  C_53
    6  A    between atoms: C_9  and  N_33
    7  A    between atoms: C_9  and  C_43
    8  A    between atoms: C_11  and  C_12
    9  A    between atoms: C_13  and  S_29
   10  A    between atoms: C_15  and  C_43
   11  A    between atoms: C_15  and  O_50
   12  A    between atoms: C_17  and  N_33
   13  A    between atoms: C_17  and  C_34
   14  A    between atoms: C_19  and  C_24
   15  A    between atoms: C_23  and  C_35
   16  A    between atoms: C_23  and  C_53
   17  A    between atoms: C_24  and  C_34
   18  A    between atoms: S_29  and  N_51
   19  A    between atoms: C_34  and  C_52
   20  A    between atoms: C_38  and  O_50
                            x       y       z     vdW  Elec       q    Type
                         _______ _______ _______ _____ _____    ______ ____

>  <TORSDO>
F 20

$$$$
=
 OpenBabel10222421513D

 54 58  0  0  1  0  0  0  0  0999 V2000
  186.8030  177.7940  142.0680 C   0  0  1  0  0  3  0  0  0  0  0  0
  187.3250  177.7260  143.4740 C   0  0  0  0  0  0  0  0  0  0  0  0
  189.0570  178.7150  148.0940 N   0  0  0  0  0  2  0  0  0  0  0  0
  188.3420  177.4870  146.0890 C   0  0  0  0  0  0  0  0  0  0  0  0
  190.6550  177.2220  145.1620 C   0  0  0  0  0  3  0  0  0  0  0  0
  189.2050  177.4190  144.9750 C   0  0  0  0  0  0  0  0  0  0  0  0
  190.3150  176.6600  147.5660 C   0  0  0  0  0  2  0  0  0  0  0  0
  188.6950  177.5460  143.6810 C   0  0  0  0  0  3  0  0  0  0  0  0
  186.9540  177.6440  145.8760 C   0  0  0  0  0  0  0  0  0  0  0  0
  186.0560  177.6860  146.9370 O   0  0  0  0  0  1  0  0  0  0  0  0
  188.2390  177.6420  148.6880 C   0  0  0  0  0  2  0  0  0  0  0  0
  188.9810  177.3930  147.4570 C   0  0  1  0  0  0  0  0  0  0  0  0
  186.4570  177.7560  144.5740 C   0  0  0  0  0  3  0  0  0  0  0  0
  191.1750  176.9100  146.3550 C   0  0  0  0  0  3  0  0  0  0  0  0
  185.5790  178.6550  142.0280 C   0  0  0  0  0  0  0  0  0  0  0  0
  185.6780  179.9120  142.1000 O   0  0  0  0  0  0  0  0  0  0  0  0
  184.2960  178.0350  141.9550 N   0  0  0  0  0  2  0  0  0  0  0  0
  182.8140  178.9350  142.2870 S   0  0  0  0  0  0  0  0  0  0  0  0
  182.6420  177.4480  140.0580 C   0  0  0  0  0  3  0  0  0  0  0  0
  182.0860  177.8720  137.6770 C   0  0  0  0  0  0  0  0  0  0  0  0
  182.1270  178.5040  140.6930 C   0  0  0  0  0  0  0  0  0  0  0  0
  182.0800  176.8810  138.7950 C   0  0  0  0  0  2  0  0  0  0  0  0
  180.6570  179.5110  138.9140 C   0  0  0  0  0  3  0  0  0  0  0  0
  180.9830  179.2960  140.1940 C   0  0  0  0  0  3  0  0  0  0  0  0
  181.3750  179.0000  137.7280 C   0  0  0  0  0  3  0  0  0  0  0  0
  182.7650  177.5120  136.3960 C   0  0  0  0  0  2  0  0  0  0  0  0
  182.2970  176.1580  135.8830 C   0  0  0  0  0  2  0  0  0  0  0  0
  183.3650  175.5220  135.0040 C   0  0  0  0  0  2  0  0  0  0  0  0
  184.4100  174.8570  135.8340 C   0  0  0  0  0  0  0  0  0  0  0  0
  186.1390  172.7850  137.3510 C   0  0  0  0  0  3  0  0  0  0  0  0
  185.8420  175.1630  135.5420 C   0  0  0  0  0  2  0  0  0  0  0  0
  184.9540  173.2910  137.7120 C   0  0  0  0  0  3  0  0  0  0  0  0
  184.0410  174.0700  136.8510 C   0  0  0  0  0  3  0  0  0  0  0  0
  186.6140  173.9370  135.1890 C   0  0  0  0  0  3  0  0  0  0  0  0
  186.7710  172.9080  136.0230 C   0  0  0  0  0  3  0  0  0  0  0  0
  187.8670  178.2190  141.0370 C   0  0  2  0  0  3  0  0  0  0  0  0
  186.0050  178.5750  139.4740 C   0  0  0  0  0  3  0  0  0  0  0  0
  187.3070  178.2990  139.6380 C   0  0  0  0  0  0  0  0  0  0  0  0
  185.4190  178.7260  138.2240 O   0  0  0  0  0  1  0  0  0  0  0  0
  188.9720  179.1500  138.1170 O   0  0  0  0  0  1  0  0  0  0  0  0
  188.2050  178.1140  138.5260 N   0  0  0  0  0  0  0  0  0  0  0  0
  188.3990  176.8250  137.8720 C   0  0  0  0  0  2  0  0  0  0  0  0
  189.2160  176.9880  136.5990 C   0  0  0  0  0  2  0  0  0  0  0  0
  190.3420  175.9700  136.5460 C   0  0  2  0  0  3  0  0  0  0  0  0
  189.8250  174.6020  136.9540 C   0  0  0  0  0  1  0  0  0  0  0  0
  191.3620  176.3590  137.4140 O   0  0  0  0  0  0  0  0  0  0  0  0
  192.0220  175.1680  137.7410 C   0  0  0  0  0  2  0  0  0  0  0  0
  193.4570  175.2090  137.2340 C   0  0  1  0  0  3  0  0  0  0  0  0
  193.9980  176.4840  137.4060 O   0  0  0  0  0  1  0  0  0  0  0  0
  194.3190  174.1530  137.9290 C   0  0  0  0  0  2  0  0  0  0  0  0
  195.6600  173.9320  137.2380 C   0  0  0  0  0  2  0  0  0  0  0  0
  196.8000  174.3100  138.1610 C   0  0  0  0  0  1  0  0  0  0  0  0
  190.2500  178.0380  140.9100 O   0  0  0  0  0  1  0  0  0  0  0  0
  189.0820  177.2960  141.0760 C   0  0  0  0  0  2  0  0  0  0  0  0
  1 15  1  1  0  0  0
  1  2  1  0  0  0  0
  2  8  2  0  0  0  0
  2 13  1  0  0  0  0
  3 11  1  0  0  0  0
  4 12  1  0  0  0  0
  5 14  2  0  0  0  0
  6  5  1  0  0  0  0
  6  4  2  0  0  0  0
  8  6  1  0  0  0  0
  9  4  1  0  0  0  0
  9 10  1  0  0  0  0
 12  7  1  1  0  0  0
 12  3  1  0  0  0  0
 12 11  1  0  0  0  0
 13  9  2  0  0  0  0
 14  7  1  0  0  0  0
 15 16  2  0  0  0  0
 17 15  1  0  0  0  0
 17 18  1  0  0  0  0
 19 21  2  0  0  0  0
 20 25  2  0  0  0  0
 20 22  1  0  0  0  0
 21 18  1  0  0  0  0
 22 19  1  0  0  0  0
 23 24  2  0  0  0  0
 24 21  1  0  0  0  0
 25 23  1  0  0  0  0
 26 20  1  0  0  0  0
 27 26  1  0  0  0  0
 28 29  1  0  0  0  0
 28 27  1  0  0  0  0
 29 33  2  0  0  0  0
 30 32  2  0  0  0  0
 31 29  1  0  0  0  0
 33 32  1  0  0  0  0
 34 31  1  0  0  0  0
 34 35  2  0  0  0  0
 35 30  1  0  0  0  0
 36 54  1  6  0  0  0
 36  1  1  0  0  0  0
 37 38  2  0  0  0  0
 38 36  1  0  0  0  0
 39 37  1  0  0  0  0
 40 41  1  0  0  0  0
 41 38  1  0  0  0  0
 42 41  1  0  0  0  0
 43 42  1  0  0  0  0
 44 43  1  0  0  0  0
 44 45  1  1  0  0  0
 44 46  1  0  0  0  0
 46 47  1  0  0  0  0
 48 49  1  1  0  0  0
 48 47  1  0  0  0  0
 48 50  1  0  0  0  0
 51 50  1  0  0  0  0
 51 52  1  0  0  0  0
 53 54  1  0  0  0  0
M  END
>  <MODEL>
6

>  <REMARK>
 VINA RESULT:      -6.8      2.651      8.765
  Name = 
  20 active torsions:
  status: ('A' for Active; 'I' for Inactive)
    1  A    between atoms: C_1  and  C_24
    2  A    between atoms: C_2  and  C_35
    3  A    between atoms: C_3  and  C_11
    4  A    between atoms: C_3  and  C_38
    5  A    between atoms: C_8  and  C_53
    6  A    between atoms: C_9  and  N_33
    7  A    between atoms: C_9  and  C_43
    8  A    between atoms: C_11  and  C_12
    9  A    between atoms: C_13  and  S_29
   10  A    between atoms: C_15  and  C_43
   11  A    between atoms: C_15  and  O_50
   12  A    between atoms: C_17  and  N_33
   13  A    between atoms: C_17  and  C_34
   14  A    between atoms: C_19  and  C_24
   15  A    between atoms: C_23  and  C_35
   16  A    between atoms: C_23  and  C_53
   17  A    between atoms: C_24  and  C_34
   18  A    between atoms: S_29  and  N_51
   19  A    between atoms: C_34  and  C_52
   20  A    between atoms: C_38  and  O_50
                            x       y       z     vdW  Elec       q    Type
                         _______ _______ _______ _____ _____    ______ ____

>  <TORSDO>
F 20

$$$$
=
 OpenBabel10222421513D

 54 58  0  0  1  0  0  0  0  0999 V2000
  187.6710  177.7500  141.6540 C   0  0  1  0  0  3  0  0  0  0  0  0
  188.2830  177.5950  143.0160 C   0  0  0  0  0  0  0  0  0  0  0  0
  190.2190  175.8900  147.3360 N   0  0  0  0  0  2  0  0  0  0  0  0
  189.3940  177.4190  145.5970 C   0  0  0  0  0  0  0  0  0  0  0  0
  187.1080  177.6660  146.5950 C   0  0  0  0  0  3  0  0  0  0  0  0
  188.0030  177.5840  145.4250 C   0  0  0  0  0  0  0  0  0  0  0  0
  189.0580  177.9190  148.1260 C   0  0  0  0  0  2  0  0  0  0  0  0
  187.4580  177.6640  144.1420 C   0  0  0  0  0  3  0  0  0  0  0  0
  190.2290  177.3760  144.4580 C   0  0  0  0  0  0  0  0  0  0  0  0
  191.6080  177.2450  144.5720 O   0  0  0  0  0  1  0  0  0  0  0  0
  191.2730  176.9210  147.3320 C   0  0  0  0  0  2  0  0  0  0  0  0
  189.8970  177.2880  147.0180 C   0  0  1  0  0  0  0  0  0  0  0  0
  189.6690  177.4700  143.1800 C   0  0  0  0  0  3  0  0  0  0  0  0
  187.5860  177.7830  147.8390 C   0  0  0  0  0  3  0  0  0  0  0  0
  186.4620  178.6290  141.7430 C   0  0  0  0  0  0  0  0  0  0  0  0
  186.5590  179.8730  141.5440 O   0  0  0  0  0  0  0  0  0  0  0  0
  185.2080  178.0510  142.1030 N   0  0  0  0  0  2  0  0  0  0  0  0
  183.8390  179.0490  142.6010 S   0  0  0  0  0  0  0  0  0  0  0  0
  183.4030  177.7570  140.2880 C   0  0  0  0  0  3  0  0  0  0  0  0
  181.7360  177.9040  138.4550 C   0  0  0  0  0  0  0  0  0  0  0  0
  182.8030  178.3730  141.3090 C   0  0  0  0  0  0  0  0  0  0  0  0
  182.6720  177.0190  139.2140 C   0  0  0  0  0  2  0  0  0  0  0  0
  180.4260  178.5280  140.4930 C   0  0  0  0  0  3  0  0  0  0  0  0
  181.3380  178.4730  141.4720 C   0  0  0  0  0  3  0  0  0  0  0  0
  180.6950  178.4990  139.0410 C   0  0  0  0  0  3  0  0  0  0  0  0
  181.8660  177.9870  136.9700 C   0  0  0  0  0  2  0  0  0  0  0  0
  183.0760  177.2080  136.4750 C   0  0  0  0  0  2  0  0  0  0  0  0
  182.6400  176.0580  135.5770 C   0  0  0  0  0  2  0  0  0  0  0  0
  183.3920  174.8130  135.9050 C   0  0  0  0  0  0  0  0  0  0  0  0
  184.6910  172.4140  137.3670 C   0  0  0  0  0  3  0  0  0  0  0  0
  183.1090  173.5880  135.1010 C   0  0  0  0  0  2  0  0  0  0  0  0
  185.1130  173.6840  137.3320 C   0  0  0  0  0  3  0  0  0  0  0  0
  184.3390  174.8450  136.8500 C   0  0  0  0  0  3  0  0  0  0  0  0
  182.6360  172.4580  135.9520 C   0  0  0  0  0  3  0  0  0  0  0  0
  183.3720  171.9210  136.9270 C   0  0  0  0  0  3  0  0  0  0  0  0
  188.6720  178.2170  140.5800 C   0  0  2  0  0  3  0  0  0  0  0  0
  186.8510  177.6630  139.0260 C   0  0  0  0  0  3  0  0  0  0  0  0
  188.0990  178.1290  139.1870 C   0  0  0  0  0  0  0  0  0  0  0  0
  186.2240  177.6030  137.7890 O   0  0  0  0  0  1  0  0  0  0  0  0
  188.9820  179.9130  137.8290 O   0  0  0  0  0  1  0  0  0  0  0  0
  188.9010  178.5870  138.0810 N   0  0  0  0  0  0  0  0  0  0  0  0
  189.7160  177.6900  137.2700 C   0  0  0  0  0  2  0  0  0  0  0  0
  189.2010  177.6470  135.8390 C   0  0  0  0  0  2  0  0  0  0  0  0
  189.0170  176.2130  135.3730 C   0  0  2  0  0  3  0  0  0  0  0  0
  187.5390  175.9080  135.2030 C   0  0  0  0  0  1  0  0  0  0  0  0
  189.5650  175.3440  136.3160 O   0  0  0  0  0  0  0  0  0  0  0  0
  189.8910  174.1930  135.5890 C   0  0  0  0  0  2  0  0  0  0  0  0
  191.2620  173.6820  136.0060 C   0  0  1  0  0  3  0  0  0  0  0  0
  191.7720  172.8110  135.0410 O   0  0  0  0  0  1  0  0  0  0  0  0
  192.2300  174.8400  136.2600 C   0  0  0  0  0  2  0  0  0  0  0  0
  192.6390  174.9630  137.7230 C   0  0  0  0  0  2  0  0  0  0  0  0
  193.1070  176.3730  138.0250 C   0  0  0  0  0  1  0  0  0  0  0  0
  189.8410  176.1900  140.0780 O   0  0  0  0  0  1  0  0  0  0  0  0
  189.9860  177.4450  140.6680 C   0  0  0  0  0  2  0  0  0  0  0  0
  1 15  1  1  0  0  0
  1  2  1  0  0  0  0
  2 13  2  0  0  0  0
  2  8  1  0  0  0  0
  4 12  1  0  0  0  0
  5 14  2  0  0  0  0
  6  4  1  0  0  0  0
  6  5  1  0  0  0  0
  8  6  2  0  0  0  0
  9 10  1  0  0  0  0
  9  4  2  0  0  0  0
 11  3  1  0  0  0  0
 12 11  1  1  0  0  0
 12  3  1  0  0  0  0
 12  7  1  0  0  0  0
 13  9  1  0  0  0  0
 14  7  1  0  0  0  0
 15 17  1  0  0  0  0
 16 15  2  0  0  0  0
 17 18  1  0  0  0  0
 19 21  2  0  0  0  0
 20 25  2  0  0  0  0
 20 22  1  0  0  0  0
 21 24  1  0  0  0  0
 21 18  1  0  0  0  0
 22 19  1  0  0  0  0
 23 24  2  0  0  0  0
 25 23  1  0  0  0  0
 26 20  1  0  0  0  0
 27 26  1  0  0  0  0
 28 29  1  0  0  0  0
 28 27  1  0  0  0  0
 29 33  2  0  0  0  0
 31 29  1  0  0  0  0
 31 34  1  0  0  0  0
 32 30  2  0  0  0  0
 33 32  1  0  0  0  0
 34 35  2  0  0  0  0
 35 30  1  0  0  0  0
 36 54  1  6  0  0  0
 36  1  1  0  0  0  0
 37 38  2  0  0  0  0
 38 36  1  0  0  0  0
 39 37  1  0  0  0  0
 40 41  1  0  0  0  0
 41 38  1  0  0  0  0
 42 41  1  0  0  0  0
 43 42  1  0  0  0  0
 44 45  1  1  0  0  0
 44 43  1  0  0  0  0
 44 46  1  0  0  0  0
 47 48  1  0  0  0  0
 47 46  1  0  0  0  0
 48 49  1  6  0  0  0
 48 50  1  0  0  0  0
 50 51  1  0  0  0  0
 51 52  1  0  0  0  0
 53 54  1  0  0  0  0
M  END
>  <MODEL>
7

>  <REMARK>
 VINA RESULT:      -6.8      2.789      8.637
  Name = 
  20 active torsions:
  status: ('A' for Active; 'I' for Inactive)
    1  A    between atoms: C_1  and  C_24
    2  A    between atoms: C_2  and  C_35
    3  A    between atoms: C_3  and  C_11
    4  A    between atoms: C_3  and  C_38
    5  A    between atoms: C_8  and  C_53
    6  A    between atoms: C_9  and  N_33
    7  A    between atoms: C_9  and  C_43
    8  A    between atoms: C_11  and  C_12
    9  A    between atoms: C_13  and  S_29
   10  A    between atoms: C_15  and  C_43
   11  A    between atoms: C_15  and  O_50
   12  A    between atoms: C_17  and  N_33
   13  A    between atoms: C_17  and  C_34
   14  A    between atoms: C_19  and  C_24
   15  A    between atoms: C_23  and  C_35
   16  A    between atoms: C_23  and  C_53
   17  A    between atoms: C_24  and  C_34
   18  A    between atoms: S_29  and  N_51
   19  A    between atoms: C_34  and  C_52
   20  A    between atoms: C_38  and  O_50
                            x       y       z     vdW  Elec       q    Type
                         _______ _______ _______ _____ _____    ______ ____

>  <TORSDO>
F 20

$$$$
=
 OpenBabel10222421513D

 54 58  0  0  1  0  0  0  0  0999 V2000
  190.7990  175.4200  136.9480 C   0  0  1  0  0  3  0  0  0  0  0  0
  192.2870  175.2670  136.8070 C   0  0  0  0  0  0  0  0  0  0  0  0
  197.2860  175.4170  137.3600 N   0  0  0  0  0  2  0  0  0  0  0  0
  195.0590  174.9570  136.4270 C   0  0  0  0  0  0  0  0  0  0  0  0
  195.0630  176.9280  134.8780 C   0  0  0  0  0  3  0  0  0  0  0  0
  194.3560  175.9910  135.7720 C   0  0  0  0  0  0  0  0  0  0  0  0
  197.0970  175.4870  134.9010 C   0  0  0  0  0  2  0  0  0  0  0  0
  192.9820  176.1440  135.9710 C   0  0  0  0  0  3  0  0  0  0  0  0
  194.3490  174.0560  137.2520 C   0  0  0  0  0  0  0  0  0  0  0  0
  194.9870  173.0020  137.8950 O   0  0  0  0  0  1  0  0  0  0  0  0
  197.4260  174.0060  136.9580 C   0  0  0  0  0  2  0  0  0  0  0  0
  196.5540  174.8950  136.1990 C   0  0  1  0  0  0  0  0  0  0  0  0
  192.9710  174.2140  137.4300 C   0  0  0  0  0  3  0  0  0  0  0  0
  196.3310  176.7220  134.5040 C   0  0  0  0  0  3  0  0  0  0  0  0
  190.1290  174.1180  136.6360 C   0  0  0  0  0  0  0  0  0  0  0  0
  190.6770  173.2860  135.8590 O   0  0  0  0  0  0  0  0  0  0  0  0
  188.8420  173.8490  137.1910 N   0  0  0  0  0  2  0  0  0  0  0  0
  187.8290  172.5380  136.5820 S   0  0  0  0  0  0  0  0  0  0  0  0
  186.5500  174.8750  136.2450 C   0  0  0  0  0  3  0  0  0  0  0  0
  184.5870  175.9920  137.2720 C   0  0  0  0  0  0  0  0  0  0  0  0
  186.3820  173.5880  136.5630 C   0  0  0  0  0  0  0  0  0  0  0  0
  185.4250  175.8370  136.0440 C   0  0  0  0  0  2  0  0  0  0  0  0
  183.9940  173.5630  137.3630 C   0  0  0  0  0  3  0  0  0  0  0  0
  185.0690  172.9660  136.8330 C   0  0  0  0  0  3  0  0  0  0  0  0
  183.8960  174.9740  137.7890 C   0  0  0  0  0  3  0  0  0  0  0  0
  184.3770  177.3590  137.8360 C   0  0  0  0  0  2  0  0  0  0  0  0
  184.3190  177.3280  139.3560 C   0  0  0  0  0  2  0  0  0  0  0  0
  183.3620  178.3940  139.8740 C   0  0  0  0  0  2  0  0  0  0  0  0
  183.6880  178.7620  141.2820 C   0  0  0  0  0  0  0  0  0  0  0  0
  183.9860  178.7860  144.3630 C   0  0  0  0  0  3  0  0  0  0  0  0
  185.0890  179.1690  141.5970 C   0  0  0  0  0  2  0  0  0  0  0  0
  182.8940  179.0570  143.6390 C   0  0  0  0  0  3  0  0  0  0  0  0
  182.7130  178.7860  142.1990 C   0  0  0  0  0  3  0  0  0  0  0  0
  185.7080  178.2880  142.6280 C   0  0  0  0  0  3  0  0  0  0  0  0
  185.2280  178.1630  143.8660 C   0  0  0  0  0  3  0  0  0  0  0  0
  190.3680  176.0040  138.3070 C   0  0  2  0  0  3  0  0  0  0  0  0
  189.0020  177.5150  136.9320 C   0  0  0  0  0  3  0  0  0  0  0  0
  189.4610  177.2000  138.1520 C   0  0  0  0  0  0  0  0  0  0  0  0
  188.1180  178.5610  136.7060 O   0  0  0  0  0  1  0  0  0  0  0  0
  189.0200  179.2890  139.2710 O   0  0  0  0  0  1  0  0  0  0  0  0
  189.0890  177.9400  139.3320 N   0  0  0  0  0  0  0  0  0  0  0  0
  188.6880  177.2940  140.5760 C   0  0  0  0  0  2  0  0  0  0  0  0
  189.3040  178.0060  141.7720 C   0  0  0  0  0  2  0  0  0  0  0  0
  190.4810  177.2200  142.3220 C   0  0  2  0  0  3  0  0  0  0  0  0
  190.0640  175.7860  142.6010 C   0  0  0  0  0  1  0  0  0  0  0  0
  190.9250  177.8120  143.5030 O   0  0  0  0  0  0  0  0  0  0  0  0
  191.2910  176.7380  144.3220 C   0  0  0  0  0  2  0  0  0  0  0  0
  190.6940  176.9110  145.7120 C   0  0  1  0  0  3  0  0  0  0  0  0
  191.7050  176.9880  146.6710 O   0  0  0  0  0  1  0  0  0  0  0  0
  189.7890  178.1430  145.7750 C   0  0  0  0  0  2  0  0  0  0  0  0
  188.6820  178.0160  146.8150 C   0  0  0  0  0  2  0  0  0  0  0  0
  187.6190  177.0460  146.3400 C   0  0  0  0  0  1  0  0  0  0  0  0
  192.0260  177.6380  138.8620 O   0  0  0  0  0  1  0  0  0  0  0  0
  191.5750  176.3550  139.1720 C   0  0  0  0  0  2  0  0  0  0  0  0
  1 15  1  1  0  0  0
  1 36  1  0  0  0  0
  2  1  1  0  0  0  0
  2 13  1  0  0  0  0
  4  9  1  0  0  0  0
  5  6  1  0  0  0  0
  6  8  1  0  0  0  0
  6  4  2  0  0  0  0
  8  2  2  0  0  0  0
  9 13  2  0  0  0  0
  9 10  1  0  0  0  0
 11  3  1  0  0  0  0
 12  7  1  6  0  0  0
 12  4  1  0  0  0  0
 12 11  1  0  0  0  0
 12  3  1  0  0  0  0
 14  5  2  0  0  0  0
 14  7  1  0  0  0  0
 15 17  1  0  0  0  0
 16 15  2  0  0  0  0
 18 17  1  0  0  0  0
 19 21  2  0  0  0  0
 20 25  2  0  0  0  0
 20 26  1  0  0  0  0
 21 18  1  0  0  0  0
 21 24  1  0  0  0  0
 22 19  1  0  0  0  0
 22 20  1  0  0  0  0
 23 25  1  0  0  0  0
 24 23  2  0  0  0  0
 26 27  1  0  0  0  0
 27 28  1  0  0  0  0
 28 29  1  0  0  0  0
 29 31  1  0  0  0  0
 29 33  2  0  0  0  0
 31 34  1  0  0  0  0
 32 30  2  0  0  0  0
 33 32  1  0  0  0  0
 34 35  2  0  0  0  0
 35 30  1  0  0  0  0
 36 54  1  6  0  0  0
 37 38  2  0  0  0  0
 38 36  1  0  0  0  0
 38 41  1  0  0  0  0
 39 37  1  0  0  0  0
 40 41  1  0  0  0  0
 41 42  1  0  0  0  0
 42 43  1  0  0  0  0
 43 44  1  0  0  0  0
 44 45  1  1  0  0  0
 44 46  1  0  0  0  0
 46 47  1  0  0  0  0
 47 48  1  0  0  0  0
 48 50  1  0  0  0  0
 48 49  1  1  0  0  0
 50 51  1  0  0  0  0
 52 51  1  0  0  0  0
 53 54  1  0  0  0  0
M  END
>  <MODEL>
8

>  <REMARK>
 VINA RESULT:      -6.7      1.460      2.097
  Name = 
  20 active torsions:
  status: ('A' for Active; 'I' for Inactive)
    1  A    between atoms: C_1  and  C_24
    2  A    between atoms: C_2  and  C_35
    3  A    between atoms: C_3  and  C_11
    4  A    between atoms: C_3  and  C_38
    5  A    between atoms: C_8  and  C_53
    6  A    between atoms: C_9  and  N_33
    7  A    between atoms: C_9  and  C_43
    8  A    between atoms: C_11  and  C_12
    9  A    between atoms: C_13  and  S_29
   10  A    between atoms: C_15  and  C_43
   11  A    between atoms: C_15  and  O_50
   12  A    between atoms: C_17  and  N_33
   13  A    between atoms: C_17  and  C_34
   14  A    between atoms: C_19  and  C_24
   15  A    between atoms: C_23  and  C_35
   16  A    between atoms: C_23  and  C_53
   17  A    between atoms: C_24  and  C_34
   18  A    between atoms: S_29  and  N_51
   19  A    between atoms: C_34  and  C_52
   20  A    between atoms: C_38  and  O_50
                            x       y       z     vdW  Elec       q    Type
                         _______ _______ _______ _____ _____    ______ ____

>  <TORSDO>
F 20

$$$$
=
 OpenBabel10222421513D

 54 58  0  0  1  0  0  0  0  0999 V2000
  183.9380  178.3940  138.8670 C   0  0  1  0  0  3  0  0  0  0  0  0
  184.4310  178.4160  140.2860 C   0  0  0  0  0  0  0  0  0  0  0  0
  186.0530  177.2770  144.9100 N   0  0  0  0  0  2  0  0  0  0  0  0
  185.3110  178.5680  142.9560 C   0  0  0  0  0  0  0  0  0  0  0  0
  182.9330  178.7730  143.7240 C   0  0  0  0  0  3  0  0  0  0  0  0
  183.9340  178.6300  142.6500 C   0  0  0  0  0  0  0  0  0  0  0  0
  184.7200  179.2990  145.3800 C   0  0  0  0  0  2  0  0  0  0  0  0
  183.5040  178.5450  141.3230 C   0  0  0  0  0  3  0  0  0  0  0  0
  186.2470  178.4630  141.9030 C   0  0  0  0  0  0  0  0  0  0  0  0
  187.6150  178.4300  142.1470 O   0  0  0  0  0  1  0  0  0  0  0  0
  187.0470  178.3650  144.8870 C   0  0  0  0  0  2  0  0  0  0  0  0
  185.6880  178.6130  144.4210 C   0  0  1  0  0  0  0  0  0  0  0  0
  185.8010  178.3940  140.5800 C   0  0  0  0  0  3  0  0  0  0  0  0
  183.2890  179.0440  144.9850 C   0  0  0  0  0  3  0  0  0  0  0  0
  185.1050  178.3210  137.9320 C   0  0  0  0  0  0  0  0  0  0  0  0
  185.8300  179.3360  137.7320 O   0  0  0  0  0  0  0  0  0  0  0  0
  185.3590  177.1030  137.2320 N   0  0  0  0  0  2  0  0  0  0  0  0
  186.4530  177.0420  135.8490 S   0  0  0  0  0  0  0  0  0  0  0  0
  188.2550  176.1990  137.6520 C   0  0  0  0  0  3  0  0  0  0  0  0
  189.5440  177.2420  139.4990 C   0  0  0  0  0  0  0  0  0  0  0  0
  187.8860  177.2390  136.9000 C   0  0  0  0  0  0  0  0  0  0  0  0
  189.5080  176.1620  138.4660 C   0  0  0  0  0  2  0  0  0  0  0  0
  189.3460  179.0780  137.8110 C   0  0  0  0  0  3  0  0  0  0  0  0
  188.6260  178.5170  136.8310 C   0  0  0  0  0  3  0  0  0  0  0  0
  189.5530  178.5350  139.1690 C   0  0  0  0  0  3  0  0  0  0  0  0
  189.7530  176.8660  140.9290 C   0  0  0  0  0  2  0  0  0  0  0  0
  191.1600  177.2160  141.3930 C   0  0  0  0  0  2  0  0  0  0  0  0
  191.1150  177.9180  142.7440 C   0  0  0  0  0  2  0  0  0  0  0  0
  191.1460  176.9280  143.8590 C   0  0  0  0  0  0  0  0  0  0  0  0
  192.0380  175.0380  146.1420 C   0  0  0  0  0  3  0  0  0  0  0  0
  190.2060  177.1250  145.0010 C   0  0  0  0  0  2  0  0  0  0  0  0
  192.1450  174.8430  144.8230 C   0  0  0  0  0  3  0  0  0  0  0  0
  191.9530  175.8640  143.7730 C   0  0  0  0  0  3  0  0  0  0  0  0
  190.9260  177.2660  146.2990 C   0  0  0  0  0  3  0  0  0  0  0  0
  191.7020  176.3090  146.8110 C   0  0  0  0  0  3  0  0  0  0  0  0
  182.8880  177.2990  138.5990 C   0  0  2  0  0  3  0  0  0  0  0  0
  181.0340  178.8740  138.2500 C   0  0  0  0  0  3  0  0  0  0  0  0
  181.7190  177.8140  137.7950 C   0  0  0  0  0  0  0  0  0  0  0  0
  179.9840  179.4500  137.5470 O   0  0  0  0  0  1  0  0  0  0  0  0
  181.8750  177.7000  135.3930 O   0  0  0  0  0  1  0  0  0  0  0  0
  181.4060  177.1700  136.5450 N   0  0  0  0  0  0  0  0  0  0  0  0
  180.6790  175.9080  136.4660 C   0  0  0  0  0  2  0  0  0  0  0  0
  181.5910  174.7950  135.9690 C   0  0  0  0  0  2  0  0  0  0  0  0
  180.8630  173.4620  135.9650 C   0  0  2  0  0  3  0  0  0  0  0  0
  180.1390  173.2600  137.2840 C   0  0  0  0  0  1  0  0  0  0  0  0
  181.7820  172.4310  135.7760 O   0  0  0  0  0  0  0  0  0  0  0  0
  182.8750  172.7800  136.5790 C   0  0  0  0  0  2  0  0  0  0  0  0
  183.9000  171.6550  136.5850 C   0  0  1  0  0  3  0  0  0  0  0  0
  183.2870  170.4350  136.2960 O   0  0  0  0  0  1  0  0  0  0  0  0
  185.0390  171.9390  135.6020 C   0  0  0  0  0  2  0  0  0  0  0  0
  186.1500  172.7880  136.2090 C   0  0  0  0  0  2  0  0  0  0  0  0
  186.0060  172.8510  137.7160 C   0  0  0  0  0  1  0  0  0  0  0  0
  181.8870  175.3910  139.6410 O   0  0  0  0  0  1  0  0  0  0  0  0
  182.4040  176.6600  139.8980 C   0  0  0  0  0  2  0  0  0  0  0  0
  1 15  1  6  0  0  0
  1  2  1  0  0  0  0
  2 13  2  0  0  0  0
  2  8  1  0  0  0  0
  4 12  1  0  0  0  0
  5 14  2  0  0  0  0
  6  4  1  0  0  0  0
  6  5  1  0  0  0  0
  8  6  2  0  0  0  0
  9 10  1  0  0  0  0
  9  4  2  0  0  0  0
 11  3  1  0  0  0  0
 12 11  1  1  0  0  0
 12  3  1  0  0  0  0
 12  7  1  0  0  0  0
 13  9  1  0  0  0  0
 14  7  1  0  0  0  0
 16 15  2  0  0  0  0
 17 15  1  0  0  0  0
 18 21  1  0  0  0  0
 18 17  1  0  0  0  0
 19 22  1  0  0  0  0
 20 26  1  0  0  0  0
 21 19  2  0  0  0  0
 22 20  1  0  0  0  0
 23 25  1  0  0  0  0
 24 21  1  0  0  0  0
 24 23  2  0  0  0  0
 25 20  2  0  0  0  0
 26 27  1  0  0  0  0
 27 28  1  0  0  0  0
 28 29  1  0  0  0  0
 29 31  1  0  0  0  0
 30 35  1  0  0  0  0
 31 34  1  0  0  0  0
 32 30  2  0  0  0  0
 33 29  2  0  0  0  0
 33 32  1  0  0  0  0
 34 35  2  0  0  0  0
 36  1  1  0  0  0  0
 36 54  1  1  0  0  0
 38 37  2  0  0  0  0
 38 36  1  0  0  0  0
 39 37  1  0  0  0  0
 40 41  1  0  0  0  0
 41 38  1  0  0  0  0
 42 41  1  0  0  0  0
 43 42  1  0  0  0  0
 44 43  1  0  0  0  0
 44 45  1  1  0  0  0
 46 44  1  0  0  0  0
 46 47  1  0  0  0  0
 47 48  1  0  0  0  0
 48 49  1  6  0  0  0
 50 51  1  0  0  0  0
 50 48  1  0  0  0  0
 51 52  1  0  0  0  0
 53 54  1  0  0  0  0
M  END
>  <MODEL>
9

>  <REMARK>
 VINA RESULT:      -6.5      4.159      9.986
  Name = 
  20 active torsions:
  status: ('A' for Active; 'I' for Inactive)
    1  A    between atoms: C_1  and  C_24
    2  A    between atoms: C_2  and  C_35
    3  A    between atoms: C_3  and  C_11
    4  A    between atoms: C_3  and  C_38
    5  A    between atoms: C_8  and  C_53
    6  A    between atoms: C_9  and  N_33
    7  A    between atoms: C_9  and  C_43
    8  A    between atoms: C_11  and  C_12
    9  A    between atoms: C_13  and  S_29
   10  A    between atoms: C_15  and  C_43
   11  A    between atoms: C_15  and  O_50
   12  A    between atoms: C_17  and  N_33
   13  A    between atoms: C_17  and  C_34
   14  A    between atoms: C_19  and  C_24
   15  A    between atoms: C_23  and  C_35
   16  A    between atoms: C_23  and  C_53
   17  A    between atoms: C_24  and  C_34
   18  A    between atoms: S_29  and  N_51
   19  A    between atoms: C_34  and  C_52
   20  A    between atoms: C_38  and  O_50
                            x       y       z     vdW  Elec       q    Type
                         _______ _______ _______ _____ _____    ______ ____

>  <TORSDO>
F 20

$$$$
