=
 OpenBabel10232408043D

 46 50  0  0  1  0  0  0  0  0999 V2000
  189.0560  177.2100  142.3590 C   0  0  2  0  0  3  0  0  0  0  0  0
  187.7430  177.0740  147.8100 N   0  0  0  0  0  1  0  0  0  0  0  0
  191.9590  177.5290  144.1950 N   0  0  0  0  0  0  0  0  0  0  0  0
  188.6220  177.6270  145.5990 C   0  0  0  0  0  3  0  0  0  0  0  0
  189.7840  178.1610  143.3270 C   0  0  2  0  0  3  0  0  0  0  0  0
  191.1610  176.8610  146.4750 C   0  0  0  0  0  0  0  0  0  0  0  0
  190.0860  176.7810  147.3080 N   0  0  0  0  0  0  0  0  0  0  0  0
  188.8340  177.1540  146.9010 C   0  0  0  0  0  0  0  0  0  0  0  0
  190.9670  177.3290  145.1760 C   0  0  0  0  0  0  0  0  0  0  0  0
  191.3050  178.1140  143.0250 C   0  0  0  0  0  2  0  0  0  0  0  0
  189.7240  177.6860  144.7430 C   0  0  0  0  0  0  0  0  0  0  0  0
  192.3060  176.5290  146.8780 O   0  0  0  0  0  0  0  0  0  0  0  0
  189.2450  177.5020  139.4490 N   0  0  0  0  0  2  0  0  0  0  0  0
  190.0660  176.5510  140.1380 C   0  0  0  0  0  0  0  0  0  0  0  0
  190.8280  175.7790  139.4960 O   0  0  0  0  0  0  0  0  0  0  0  0
  190.0290  176.4720  141.5640 N   0  0  0  0  0  2  0  0  0  0  0  0
  190.3640  177.6470  137.4330 F   0  0  0  0  0  0  0  0  0  0  0  0
  188.4860  176.4160  137.5310 F   0  0  0  0  0  0  0  0  0  0  0  0
  189.1030  177.5660  137.9930 C   0  0  0  0  0  0  0  0  0  0  0  0
  188.9010  179.8560  137.2850 O   0  0  0  0  0  0  0  0  0  0  0  0
  188.3110  178.7800  137.5760 C   0  0  0  0  0  0  0  0  0  0  0  0
  186.8940  178.7260  137.4490 N   0  0  0  0  0  2  0  0  0  0  0  0
  186.0940  177.6040  137.9090 C   0  0  0  0  0  2  0  0  0  0  0  0
  184.9110  177.4780  137.0750 N   0  0  0  0  0  0  0  0  0  0  0  0
  183.3460  178.1840  138.8590 C   0  0  0  0  0  0  0  0  0  0  0  0
  181.0620  177.3810  139.6710 C   0  0  0  0  0  2  0  0  0  0  0  0
  183.7430  177.2610  139.8140 F   0  0  0  0  0  0  0  0  0  0  0  0
  182.6000  177.6070  136.7170 O   0  0  0  0  0  0  0  0  0  0  0  0
  183.7140  177.7310  137.5060 C   0  0  0  0  0  0  0  0  0  0  0  0
  181.8140  178.3080  138.7330 C   0  0  2  0  0  3  0  0  0  0  0  0
  181.4270  177.9700  137.3450 N   0  0  2  0  0  0  0  0  0  0  0  0
  183.9020  179.4220  139.1250 F   0  0  0  0  0  0  0  0  0  0  0  0
  180.5820  176.7800  137.4120 C   0  0  0  0  0  2  0  0  0  0  0  0
  180.6600  176.2150  138.8130 C   0  0  0  0  0  2  0  0  0  0  0  0
  188.1660  177.9370  141.4640 N   0  0  0  0  0  2  0  0  0  0  0  0
  187.3290  178.7250  142.2710 N   0  0  0  0  0  2  0  0  0  0  0  0
  185.9820  178.6470  141.7210 C   0  0  0  0  0  2  0  0  0  0  0  0
  184.9680  178.7150  142.8090 C   0  0  0  0  0  0  0  0  0  0  0  0
  185.3710  178.5730  144.1390 C   0  0  0  0  0  3  0  0  0  0  0  0
  183.0840  178.8900  144.8640 C   0  0  0  0  0  3  0  0  0  0  0  0
  184.9360  178.4990  146.8310 Cl  0  0  0  0  0  0  0  0  0  0  0  0
  184.4270  178.6630  145.1660 C   0  0  0  0  0  0  0  0  0  0  0  0
  182.6720  179.0250  143.5350 C   0  0  0  0  0  0  0  0  0  0  0  0
  183.6230  178.9400  142.5070 C   0  0  0  0  0  3  0  0  0  0  0  0
  181.3160  179.2340  143.2670 O   0  0  0  0  0  0  0  0  0  0  0  0
  180.2870  178.4430  143.8450 C   0  0  0  0  0  1  0  0  0  0  0  0
  1 35  1  6  0  0  0
  3  9  2  0  0  0  0
  4  8  1  0  0  0  0
  5  1  1  6  0  0  0
  5 11  1  0  0  0  0
  6 12  2  0  0  0  0
  6  7  1  0  0  0  0
  8  7  2  0  0  0  0
  8  2  1  0  0  0  0
  9  6  1  0  0  0  0
 10  5  1  0  0  0  0
 10  3  1  0  0  0  0
 11  9  1  0  0  0  0
 11  4  2  0  0  0  0
 13 14  1  0  0  0  0
 14 16  1  0  0  0  0
 15 14  2  0  0  0  0
 16  1  1  0  0  0  0
 17 19  1  0  0  0  0
 18 19  1  0  0  0  0
 19 13  1  0  0  0  0
 20 21  2  0  0  0  0
 21 19  1  0  0  0  0
 22 21  1  0  0  0  0
 22 23  1  0  0  0  0
 24 29  2  0  0  0  0
 24 23  1  0  0  0  0
 25 32  1  0  0  0  0
 25 27  1  0  0  0  0
 28 31  1  0  0  0  0
 28 29  1  0  0  0  0
 29 25  1  0  0  0  0
 30 25  1  0  0  0  0
 30 26  1  1  0  0  0
 31 33  1  1  0  0  0
 31 30  1  0  0  0  0
 33 34  1  0  0  0  0
 34 26  1  0  0  0  0
 35 36  1  0  0  0  0
 37 36  1  0  0  0  0
 37 38  1  0  0  0  0
 38 39  1  0  0  0  0
 39 42  2  0  0  0  0
 40 42  1  0  0  0  0
 42 41  1  0  0  0  0
 43 40  2  0  0  0  0
 44 38  2  0  0  0  0
 44 43  1  0  0  0  0
 45 43  1  0  0  0  0
 45 46  1  0  0  0  0
M  END
>  <MODEL>
1

>  <REMARK>
 VINA RESULT:      -9.9      0.000      0.000
  Name = 
  11 active torsions:
  status: ('A' for Active; 'I' for Inactive)
    1  A    between atoms: N_1  and  C_19
    2  A    between atoms: N_1  and  N_30
    3  A    between atoms: N_2  and  C_11
    4  A    between atoms: N_6  and  C_29
    5  A    between atoms: C_10  and  C_19
    6  A    between atoms: C_11  and  N_42
    7  A    between atoms: C_14  and  C_29
    8  A    between atoms: O_15  and  C_41
    9  A    between atoms: C_20  and  C_35
   10  A    between atoms: N_30  and  C_35
   11  A    between atoms: N_34  and  C_35
                            x       y       z     vdW  Elec       q    Type
                         _______ _______ _______ _____ _____    ______ ____

>  <TORSDO>
F 11

$$$$
=
 OpenBabel10232408043D

 46 50  0  0  1  0  0  0  0  0999 V2000
  188.6280  177.5700  142.6670 C   0  0  2  0  0  3  0  0  0  0  0  0
  187.9010  177.1920  148.2150 N   0  0  0  0  0  1  0  0  0  0  0  0
  191.7290  177.4650  144.1750 N   0  0  0  0  0  0  0  0  0  0  0  0
  188.5930  177.8050  145.9540 C   0  0  0  0  0  3  0  0  0  0  0  0
  189.5540  178.3730  143.5990 C   0  0  2  0  0  3  0  0  0  0  0  0
  191.1130  176.7260  146.4890 C   0  0  0  0  0  0  0  0  0  0  0  0
  190.1310  176.6980  147.4340 N   0  0  0  0  0  0  0  0  0  0  0  0
  188.8910  177.2230  147.1940 C   0  0  0  0  0  0  0  0  0  0  0  0
  190.8310  177.2990  145.2490 C   0  0  0  0  0  0  0  0  0  0  0  0
  191.0190  178.1930  143.1220 C   0  0  0  0  0  2  0  0  0  0  0  0
  189.5960  177.8100  144.9830 C   0  0  0  0  0  0  0  0  0  0  0  0
  192.2510  176.2520  146.7390 O   0  0  0  0  0  0  0  0  0  0  0  0
  189.9650  176.9590  140.1320 N   0  0  0  0  0  2  0  0  0  0  0  0
  189.0840  178.0840  140.2350 C   0  0  0  0  0  0  0  0  0  0  0  0
  188.9260  178.8650  139.2580 O   0  0  0  0  0  0  0  0  0  0  0  0
  188.3720  178.3270  141.4490 N   0  0  0  0  0  2  0  0  0  0  0  0
  190.7790  175.3580  138.6800 F   0  0  0  0  0  0  0  0  0  0  0  0
  190.4150  177.4330  137.8940 F   0  0  0  0  0  0  0  0  0  0  0  0
  190.8450  176.7030  138.9900 C   0  0  0  0  0  0  0  0  0  0  0  0
  192.5620  177.6090  140.4090 O   0  0  0  0  0  0  0  0  0  0  0  0
  192.2750  177.0540  139.3150 C   0  0  0  0  0  0  0  0  0  0  0  0
  193.3340  176.7180  138.4240 N   0  0  0  0  0  2  0  0  0  0  0  0
  193.1180  176.2290  137.0730 C   0  0  0  0  0  2  0  0  0  0  0  0
  194.3570  176.3150  136.3220 N   0  0  0  0  0  0  0  0  0  0  0  0
  195.0220  173.9760  136.7850 C   0  0  0  0  0  0  0  0  0  0  0  0
  197.2070  172.8200  137.4270 C   0  0  0  0  0  2  0  0  0  0  0  0
  194.9290  174.0390  138.1670 F   0  0  0  0  0  0  0  0  0  0  0  0
  196.3550  175.4090  135.5010 O   0  0  0  0  0  0  0  0  0  0  0  0
  195.1840  175.3230  136.2090 C   0  0  0  0  0  0  0  0  0  0  0  0
  196.3080  173.2780  136.2940 C   0  0  2  0  0  3  0  0  0  0  0  0
  197.0710  174.2310  135.4580 N   0  0  2  0  0  0  0  0  0  0  0  0
  193.9100  173.3490  136.2540 F   0  0  0  0  0  0  0  0  0  0  0  0
  198.3450  174.4690  136.1320 C   0  0  0  0  0  2  0  0  0  0  0  0
  198.2700  173.8780  137.5230 C   0  0  0  0  0  2  0  0  0  0  0  0
  187.3570  177.2650  143.3110 N   0  0  0  0  0  2  0  0  0  0  0  0
  186.3810  178.0590  142.6850 N   0  0  0  0  0  2  0  0  0  0  0  0
  185.3640  178.3760  143.6780 C   0  0  0  0  0  2  0  0  0  0  0  0
  184.0290  178.5140  143.0330 C   0  0  0  0  0  0  0  0  0  0  0  0
  182.8860  178.6270  143.8280 C   0  0  0  0  0  3  0  0  0  0  0  0
  181.5240  178.8250  141.8370 C   0  0  0  0  0  3  0  0  0  0  0  0
  180.2040  178.9390  144.2250 Cl  0  0  0  0  0  0  0  0  0  0  0  0
  181.6330  178.7840  143.2280 C   0  0  0  0  0  0  0  0  0  0  0  0
  182.6620  178.7050  141.0360 C   0  0  0  0  0  0  0  0  0  0  0  0
  183.9180  178.5530  141.6420 C   0  0  0  0  0  3  0  0  0  0  0  0
  182.5150  178.7330  139.6450 O   0  0  0  0  0  0  0  0  0  0  0  0
  182.6960  179.9140  138.8770 C   0  0  0  0  0  1  0  0  0  0  0  0
  1 16  1  6  0  0  0
  1 35  1  0  0  0  0
  3  9  2  0  0  0  0
  4  8  1  0  0  0  0
  5  1  1  6  0  0  0
  5 11  1  0  0  0  0
  6 12  2  0  0  0  0
  6  7  1  0  0  0  0
  8  7  2  0  0  0  0
  8  2  1  0  0  0  0
  9  6  1  0  0  0  0
 10  5  1  0  0  0  0
 10  3  1  0  0  0  0
 11  9  1  0  0  0  0
 11  4  2  0  0  0  0
 13 14  1  0  0  0  0
 14 16  1  0  0  0  0
 15 14  2  0  0  0  0
 17 19  1  0  0  0  0
 18 19  1  0  0  0  0
 19 21  1  0  0  0  0
 19 13  1  0  0  0  0
 21 20  2  0  0  0  0
 22 21  1  0  0  0  0
 23 22  1  0  0  0  0
 24 23  1  0  0  0  0
 25 27  1  0  0  0  0
 26 34  1  0  0  0  0
 28 29  1  0  0  0  0
 29 24  2  0  0  0  0
 29 25  1  0  0  0  0
 30 25  1  0  0  0  0
 30 26  1  1  0  0  0
 31 28  1  0  0  0  0
 31 33  1  1  0  0  0
 31 30  1  0  0  0  0
 32 25  1  0  0  0  0
 33 34  1  0  0  0  0
 36 35  1  0  0  0  0
 36 37  1  0  0  0  0
 38 37  1  0  0  0  0
 38 39  1  0  0  0  0
 40 42  1  0  0  0  0
 42 39  2  0  0  0  0
 42 41  1  0  0  0  0
 43 44  1  0  0  0  0
 43 40  2  0  0  0  0
 44 38  2  0  0  0  0
 45 43  1  0  0  0  0
 46 45  1  0  0  0  0
M  END
>  <MODEL>
2

>  <REMARK>
 VINA RESULT:      -9.4      4.064      7.536
  Name = 
  11 active torsions:
  status: ('A' for Active; 'I' for Inactive)
    1  A    between atoms: N_1  and  C_19
    2  A    between atoms: N_1  and  N_30
    3  A    between atoms: N_2  and  C_11
    4  A    between atoms: N_6  and  C_29
    5  A    between atoms: C_10  and  C_19
    6  A    between atoms: C_11  and  N_42
    7  A    between atoms: C_14  and  C_29
    8  A    between atoms: O_15  and  C_41
    9  A    between atoms: C_20  and  C_35
   10  A    between atoms: N_30  and  C_35
   11  A    between atoms: N_34  and  C_35
                            x       y       z     vdW  Elec       q    Type
                         _______ _______ _______ _____ _____    ______ ____

>  <TORSDO>
F 11

$$$$
=
 OpenBabel10232408043D

 46 50  0  0  1  0  0  0  0  0999 V2000
  188.8260  177.7490  141.9590 C   0  0  2  0  0  3  0  0  0  0  0  0
  187.9900  177.6390  147.5030 N   0  0  0  0  0  1  0  0  0  0  0  0
  191.8400  177.1090  143.5100 N   0  0  0  0  0  0  0  0  0  0  0  0
  188.8040  178.0620  145.2390 C   0  0  0  0  0  3  0  0  0  0  0  0
  189.8760  178.3890  142.8860 C   0  0  2  0  0  3  0  0  0  0  0  0
  191.0770  176.5500  145.8300 C   0  0  0  0  0  0  0  0  0  0  0  0
  190.0980  176.7250  146.7620 N   0  0  0  0  0  0  0  0  0  0  0  0
  188.9780  177.4640  146.4950 C   0  0  0  0  0  0  0  0  0  0  0  0
  190.9170  177.1360  144.5750 C   0  0  0  0  0  0  0  0  0  0  0  0
  191.2870  177.9310  142.4330 C   0  0  0  0  0  2  0  0  0  0  0  0
  189.8000  177.8590  144.2820 C   0  0  0  0  0  0  0  0  0  0  0  0
  192.1050  175.8800  146.1060 O   0  0  0  0  0  0  0  0  0  0  0  0
  189.8600  177.0060  139.3190 N   0  0  0  0  0  2  0  0  0  0  0  0
  189.2030  178.2640  139.5140 C   0  0  0  0  0  0  0  0  0  0  0  0
  189.1230  179.0960  138.5700 O   0  0  0  0  0  0  0  0  0  0  0  0
  188.6290  178.5840  140.7810 N   0  0  0  0  0  2  0  0  0  0  0  0
  190.2160  177.4880  137.0880 F   0  0  0  0  0  0  0  0  0  0  0  0
  191.9590  176.7950  138.3270 F   0  0  0  0  0  0  0  0  0  0  0  0
  190.6000  176.6400  138.1100 C   0  0  0  0  0  0  0  0  0  0  0  0
  191.1880  174.3290  137.7950 O   0  0  0  0  0  0  0  0  0  0  0  0
  190.3020  175.2210  137.6960 C   0  0  0  0  0  0  0  0  0  0  0  0
  189.0070  174.8450  137.2400 N   0  0  0  0  0  2  0  0  0  0  0  0
  187.9600  175.8040  136.9300 C   0  0  0  0  0  2  0  0  0  0  0  0
  186.6620  175.1640  137.0580 N   0  0  0  0  0  0  0  0  0  0  0  0
  185.4210  177.2940  137.2780 C   0  0  0  0  0  0  0  0  0  0  0  0
  183.5200  178.1240  138.7690 C   0  0  0  0  0  2  0  0  0  0  0  0
  186.1540  177.8140  138.3340 F   0  0  0  0  0  0  0  0  0  0  0  0
  184.3380  175.2200  137.3390 O   0  0  0  0  0  0  0  0  0  0  0  0
  185.5600  175.8280  137.2150 C   0  0  0  0  0  0  0  0  0  0  0  0
  183.8970  177.4480  137.4620 C   0  0  2  0  0  3  0  0  0  0  0  0
  183.2830  176.1010  137.4480 N   0  0  2  0  0  0  0  0  0  0  0  0
  185.8150  177.8730  136.0860 F   0  0  0  0  0  0  0  0  0  0  0  0
  182.6730  175.8930  138.7580 C   0  0  0  0  0  2  0  0  0  0  0  0
  183.1360  176.9960  139.6840 C   0  0  0  0  0  2  0  0  0  0  0  0
  187.5480  177.5780  142.6370 N   0  0  0  0  0  2  0  0  0  0  0  0
  186.5450  177.8300  141.6870 N   0  0  0  0  0  2  0  0  0  0  0  0
  185.9590  179.1280  141.9950 C   0  0  0  0  0  2  0  0  0  0  0  0
  184.9030  178.9910  143.0360 C   0  0  0  0  0  0  0  0  0  0  0  0
  185.2680  178.7930  144.3690 C   0  0  0  0  0  3  0  0  0  0  0  0
  182.9330  178.7830  145.0060 C   0  0  0  0  0  3  0  0  0  0  0  0
  184.7410  178.4560  147.0250 Cl  0  0  0  0  0  0  0  0  0  0  0  0
  184.2810  178.6910  145.3540 C   0  0  0  0  0  0  0  0  0  0  0  0
  182.5600  178.9720  143.6730 C   0  0  0  0  0  0  0  0  0  0  0  0
  183.5530  179.0810  142.6880 C   0  0  0  0  0  3  0  0  0  0  0  0
  181.2000  179.0420  143.3560 O   0  0  0  0  0  0  0  0  0  0  0  0
  180.7300  179.2940  142.0390 C   0  0  0  0  0  1  0  0  0  0  0  0
  1 16  1  6  0  0  0
  1 35  1  0  0  0  0
  3  9  2  0  0  0  0
  4  8  1  0  0  0  0
  5  1  1  6  0  0  0
  5 11  1  0  0  0  0
  6 12  2  0  0  0  0
  6  7  1  0  0  0  0
  8  7  2  0  0  0  0
  8  2  1  0  0  0  0
  9  6  1  0  0  0  0
 10  5  1  0  0  0  0
 10  3  1  0  0  0  0
 11  9  1  0  0  0  0
 11  4  2  0  0  0  0
 13 14  1  0  0  0  0
 14 16  1  0  0  0  0
 15 14  2  0  0  0  0
 17 19  1  0  0  0  0
 19 18  1  0  0  0  0
 19 13  1  0  0  0  0
 21 20  2  0  0  0  0
 21 19  1  0  0  0  0
 22 21  1  0  0  0  0
 23 24  1  0  0  0  0
 23 22  1  0  0  0  0
 24 29  2  0  0  0  0
 25 30  1  0  0  0  0
 25 27  1  0  0  0  0
 26 34  1  0  0  0  0
 28 31  1  0  0  0  0
 29 25  1  0  0  0  0
 29 28  1  0  0  0  0
 30 26  1  1  0  0  0
 31 30  1  0  0  0  0
 31 33  1  1  0  0  0
 32 25  1  0  0  0  0
 33 34  1  0  0  0  0
 36 37  1  0  0  0  0
 36 35  1  0  0  0  0
 37 38  1  0  0  0  0
 38 39  1  0  0  0  0
 39 42  2  0  0  0  0
 40 42  1  0  0  0  0
 42 41  1  0  0  0  0
 43 40  2  0  0  0  0
 44 38  2  0  0  0  0
 44 43  1  0  0  0  0
 45 43  1  0  0  0  0
 46 45  1  0  0  0  0
M  END
>  <MODEL>
3

>  <REMARK>
 VINA RESULT:      -9.3      1.564      2.227
  Name = 
  11 active torsions:
  status: ('A' for Active; 'I' for Inactive)
    1  A    between atoms: N_1  and  C_19
    2  A    between atoms: N_1  and  N_30
    3  A    between atoms: N_2  and  C_11
    4  A    between atoms: N_6  and  C_29
    5  A    between atoms: C_10  and  C_19
    6  A    between atoms: C_11  and  N_42
    7  A    between atoms: C_14  and  C_29
    8  A    between atoms: O_15  and  C_41
    9  A    between atoms: C_20  and  C_35
   10  A    between atoms: N_30  and  C_35
   11  A    between atoms: N_34  and  C_35
                            x       y       z     vdW  Elec       q    Type
                         _______ _______ _______ _____ _____    ______ ____

>  <TORSDO>
F 11

$$$$
=
 OpenBabel10232408043D

 46 50  0  0  1  0  0  0  0  0999 V2000
  184.5260  178.5010  138.5530 C   0  0  2  0  0  3  0  0  0  0  0  0
  181.0800  182.8920  138.0150 N   0  0  0  0  0  1  0  0  0  0  0  0
  181.6810  177.4660  136.9000 N   0  0  0  0  0  0  0  0  0  0  0  0
  182.0830  180.7090  138.4590 C   0  0  0  0  0  3  0  0  0  0  0  0
  183.0130  178.2920  138.7510 C   0  0  2  0  0  3  0  0  0  0  0  0
  180.6440  179.6680  136.3040 C   0  0  0  0  0  0  0  0  0  0  0  0
  180.5400  180.9860  136.6360 N   0  0  0  0  0  0  0  0  0  0  0  0
  181.2330  181.5150  137.6890 C   0  0  0  0  0  0  0  0  0  0  0  0
  181.4860  178.8530  137.0590 C   0  0  0  0  0  0  0  0  0  0  0  0
  182.5780  177.0250  137.9690 C   0  0  0  0  0  2  0  0  0  0  0  0
  182.2020  179.3660  138.1000 C   0  0  0  0  0  0  0  0  0  0  0  0
  179.9830  179.2000  135.3410 O   0  0  0  0  0  0  0  0  0  0  0  0
  187.3590  178.3660  137.8120 N   0  0  0  0  0  2  0  0  0  0  0  0
  186.3800  177.6150  137.0820 C   0  0  0  0  0  0  0  0  0  0  0  0
  186.7160  176.9410  136.0710 O   0  0  0  0  0  0  0  0  0  0  0  0
  185.0150  177.6200  137.5000 N   0  0  0  0  0  2  0  0  0  0  0  0
  188.7520  179.0750  136.1110 F   0  0  0  0  0  0  0  0  0  0  0  0
  189.3910  179.4250  138.2380 F   0  0  0  0  0  0  0  0  0  0  0  0
  188.7480  178.5420  137.3870 C   0  0  0  0  0  0  0  0  0  0  0  0
  189.7380  176.6600  136.2630 O   0  0  0  0  0  0  0  0  0  0  0  0
  189.4810  177.2240  137.3610 C   0  0  0  0  0  0  0  0  0  0  0  0
  189.9450  176.6170  138.5620 N   0  0  0  0  0  2  0  0  0  0  0  0
  189.5720  177.0820  139.8870 C   0  0  0  0  0  2  0  0  0  0  0  0
  190.4060  176.4290  140.8820 N   0  0  0  0  0  0  0  0  0  0  0  0
  189.0520  177.2070  142.8030 C   0  0  0  0  0  0  0  0  0  0  0  0
  189.5850  178.1540  145.1140 C   0  0  0  0  0  2  0  0  0  0  0  0
  189.0890  178.5610  142.5040 F   0  0  0  0  0  0  0  0  0  0  0  0
  190.9600  175.8830  143.0910 O   0  0  0  0  0  0  0  0  0  0  0  0
  190.1690  176.4980  142.1550 C   0  0  0  0  0  0  0  0  0  0  0  0
  189.3210  176.9060  144.2920 C   0  0  2  0  0  3  0  0  0  0  0  0
  190.5130  176.0330  144.3870 N   0  0  2  0  0  0  0  0  0  0  0  0
  187.8400  176.6620  142.4200 F   0  0  0  0  0  0  0  0  0  0  0  0
  191.5340  176.7780  145.1180 C   0  0  0  0  0  2  0  0  0  0  0  0
  191.0800  178.2160  145.2460 C   0  0  0  0  0  2  0  0  0  0  0  0
  185.2680  178.2320  139.7780 N   0  0  0  0  0  2  0  0  0  0  0  0
  185.1750  179.3860  140.5730 N   0  0  0  0  0  2  0  0  0  0  0  0
  185.8380  179.1070  141.8390 C   0  0  0  0  0  2  0  0  0  0  0  0
  184.8420  179.0120  142.9420 C   0  0  0  0  0  0  0  0  0  0  0  0
  183.4780  179.0770  142.6480 C   0  0  0  0  0  3  0  0  0  0  0  0
  182.9610  178.7830  144.9940 C   0  0  0  0  0  3  0  0  0  0  0  0
  180.8300  179.0290  143.3050 Cl  0  0  0  0  0  0  0  0  0  0  0  0
  182.5380  178.9610  143.6760 C   0  0  0  0  0  0  0  0  0  0  0  0
  184.3240  178.7260  145.2970 C   0  0  0  0  0  0  0  0  0  0  0  0
  185.2650  178.8360  144.2610 C   0  0  0  0  0  3  0  0  0  0  0  0
  184.7130  178.5650  146.6300 O   0  0  0  0  0  0  0  0  0  0  0  0
  185.9710  179.0060  147.1210 C   0  0  0  0  0  1  0  0  0  0  0  0
  1 16  1  6  0  0  0
  1 35  1  0  0  0  0
  3  9  2  0  0  0  0
  3 10  1  0  0  0  0
  5  1  1  6  0  0  0
  6  7  1  0  0  0  0
  6  9  1  0  0  0  0
  7  8  2  0  0  0  0
  8  2  1  0  0  0  0
  8  4  1  0  0  0  0
  9 11  1  0  0  0  0
 10  5  1  0  0  0  0
 11  4  2  0  0  0  0
 11  5  1  0  0  0  0
 12  6  2  0  0  0  0
 14 16  1  0  0  0  0
 14 13  1  0  0  0  0
 15 14  2  0  0  0  0
 17 19  1  0  0  0  0
 19 13  1  0  0  0  0
 19 18  1  0  0  0  0
 20 21  2  0  0  0  0
 21 19  1  0  0  0  0
 21 22  1  0  0  0  0
 22 23  1  0  0  0  0
 23 24  1  0  0  0  0
 24 29  2  0  0  0  0
 25 30  1  0  0  0  0
 26 34  1  0  0  0  0
 27 25  1  0  0  0  0
 28 31  1  0  0  0  0
 29 25  1  0  0  0  0
 29 28  1  0  0  0  0
 30 31  1  0  0  0  0
 30 26  1  1  0  0  0
 31 33  1  1  0  0  0
 32 25  1  0  0  0  0
 33 34  1  0  0  0  0
 35 36  1  0  0  0  0
 36 37  1  0  0  0  0
 37 38  1  0  0  0  0
 38 44  1  0  0  0  0
 39 38  2  0  0  0  0
 39 42  1  0  0  0  0
 40 43  1  0  0  0  0
 41 42  1  0  0  0  0
 42 40  2  0  0  0  0
 43 45  1  0  0  0  0
 44 43  2  0  0  0  0
 45 46  1  0  0  0  0
M  END
>  <MODEL>
4

>  <REMARK>
 VINA RESULT:      -9.2      2.449      8.232
  Name = 
  11 active torsions:
  status: ('A' for Active; 'I' for Inactive)
    1  A    between atoms: N_1  and  C_19
    2  A    between atoms: N_1  and  N_30
    3  A    between atoms: N_2  and  C_11
    4  A    between atoms: N_6  and  C_29
    5  A    between atoms: C_10  and  C_19
    6  A    between atoms: C_11  and  N_42
    7  A    between atoms: C_14  and  C_29
    8  A    between atoms: O_15  and  C_41
    9  A    between atoms: C_20  and  C_35
   10  A    between atoms: N_30  and  C_35
   11  A    between atoms: N_34  and  C_35
                            x       y       z     vdW  Elec       q    Type
                         _______ _______ _______ _____ _____    ______ ____

>  <TORSDO>
F 11

$$$$
=
 OpenBabel10232408043D

 46 50  0  0  1  0  0  0  0  0999 V2000
  186.6860  178.5440  141.4720 C   0  0  2  0  0  3  0  0  0  0  0  0
  185.1070  178.8570  146.8440 N   0  0  0  0  0  1  0  0  0  0  0  0
  183.2420  178.4340  141.6100 N   0  0  0  0  0  0  0  0  0  0  0  0
  185.4180  178.2490  144.4990 C   0  0  0  0  0  3  0  0  0  0  0  0
  185.5170  177.6690  141.9590 C   0  0  2  0  0  3  0  0  0  0  0  0
  182.8320  179.1630  143.9720 C   0  0  0  0  0  0  0  0  0  0  0  0
  183.3500  179.2320  145.2320 N   0  0  0  0  0  0  0  0  0  0  0  0
  184.6130  178.7870  145.5120 C   0  0  0  0  0  0  0  0  0  0  0  0
  183.6220  178.6320  142.9530 C   0  0  0  0  0  0  0  0  0  0  0  0
  184.3570  177.7710  140.9350 C   0  0  0  0  0  2  0  0  0  0  0  0
  184.8900  178.2020  143.2070 C   0  0  0  0  0  0  0  0  0  0  0  0
  181.6620  179.5630  143.7430 O   0  0  0  0  0  0  0  0  0  0  0  0
  188.6030  177.5620  139.4840 N   0  0  0  0  0  2  0  0  0  0  0  0
  187.5190  178.4120  139.0900 C   0  0  0  0  0  0  0  0  0  0  0  0
  187.4150  178.8040  137.8960 O   0  0  0  0  0  0  0  0  0  0  0  0
  186.5420  178.8190  140.0480 N   0  0  0  0  0  2  0  0  0  0  0  0
  189.3780  176.0890  137.8830 F   0  0  0  0  0  0  0  0  0  0  0  0
  189.9960  178.2460  137.7440 F   0  0  0  0  0  0  0  0  0  0  0  0
  189.7280  177.2060  138.6180 C   0  0  0  0  0  0  0  0  0  0  0  0
  190.9470  177.0150  140.6820 O   0  0  0  0  0  0  0  0  0  0  0  0
  190.9580  176.8830  139.4290 C   0  0  0  0  0  0  0  0  0  0  0  0
  192.1340  176.3720  138.8090 N   0  0  0  0  0  2  0  0  0  0  0  0
  192.3240  176.3310  137.3690 C   0  0  0  0  0  2  0  0  0  0  0  0
  193.7270  176.5410  137.0590 N   0  0  0  0  0  0  0  0  0  0  0  0
  194.1380  174.1820  136.4320 C   0  0  0  0  0  0  0  0  0  0  0  0
  196.0050  172.4990  136.8840 C   0  0  0  0  0  2  0  0  0  0  0  0
  193.6640  173.6060  137.6010 F   0  0  0  0  0  0  0  0  0  0  0  0
  195.8350  175.7920  136.3670 O   0  0  0  0  0  0  0  0  0  0  0  0
  194.5100  175.5900  136.6550 C   0  0  0  0  0  0  0  0  0  0  0  0
  195.4800  173.5820  135.9600 C   0  0  2  0  0  3  0  0  0  0  0  0
  196.4850  174.6670  135.9050 N   0  0  2  0  0  0  0  0  0  0  0  0
  193.1940  174.0800  135.4270 F   0  0  0  0  0  0  0  0  0  0  0  0
  197.5280  174.3360  136.8730 C   0  0  0  0  0  2  0  0  0  0  0  0
  197.0420  173.1860  137.7280 C   0  0  0  0  0  2  0  0  0  0  0  0
  187.9710  177.8960  141.7010 N   0  0  0  0  0  2  0  0  0  0  0  0
  188.2840  178.0780  143.0580 N   0  0  0  0  0  2  0  0  0  0  0  0
  188.7260  176.7940  143.5870 C   0  0  0  0  0  2  0  0  0  0  0  0
  189.2790  176.9570  144.9600 C   0  0  0  0  0  0  0  0  0  0  0  0
  188.4930  177.5370  145.9580 C   0  0  0  0  0  3  0  0  0  0  0  0
  190.2860  177.2230  147.5520 C   0  0  0  0  0  3  0  0  0  0  0  0
  188.0060  178.3820  148.5060 Cl  0  0  0  0  0  0  0  0  0  0  0  0
  188.9980  177.6680  147.2540 C   0  0  0  0  0  0  0  0  0  0  0  0
  191.0830  176.6490  146.5570 C   0  0  0  0  0  0  0  0  0  0  0  0
  190.5700  176.5140  145.2570 C   0  0  0  0  0  3  0  0  0  0  0  0
  192.3760  176.2300  146.8840 O   0  0  0  0  0  0  0  0  0  0  0  0
  192.7330  175.7890  148.1870 C   0  0  0  0  0  1  0  0  0  0  0  0
  1 16  1  6  0  0  0
  1 35  1  0  0  0  0
  3  9  2  0  0  0  0
  4  8  1  0  0  0  0
  5  1  1  6  0  0  0
  5 11  1  0  0  0  0
  6  7  1  0  0  0  0
  7  8  2  0  0  0  0
  8  2  1  0  0  0  0
  9 11  1  0  0  0  0
  9  6  1  0  0  0  0
 10  3  1  0  0  0  0
 10  5  1  0  0  0  0
 11  4  2  0  0  0  0
 12  6  2  0  0  0  0
 14 13  1  0  0  0  0
 14 16  1  0  0  0  0
 15 14  2  0  0  0  0
 17 19  1  0  0  0  0
 18 19  1  0  0  0  0
 19 21  1  0  0  0  0
 19 13  1  0  0  0  0
 21 20  2  0  0  0  0
 22 21  1  0  0  0  0
 23 22  1  0  0  0  0
 24 23  1  0  0  0  0
 25 29  1  0  0  0  0
 25 27  1  0  0  0  0
 26 34  1  0  0  0  0
 28 29  1  0  0  0  0
 29 24  2  0  0  0  0
 30 25  1  0  0  0  0
 30 26  1  1  0  0  0
 31 30  1  0  0  0  0
 31 28  1  0  0  0  0
 31 33  1  1  0  0  0
 32 25  1  0  0  0  0
 33 34  1  0  0  0  0
 35 36  1  0  0  0  0
 36 37  1  0  0  0  0
 37 38  1  0  0  0  0
 38 44  2  0  0  0  0
 38 39  1  0  0  0  0
 39 42  2  0  0  0  0
 42 40  1  0  0  0  0
 42 41  1  0  0  0  0
 43 45  1  0  0  0  0
 43 40  2  0  0  0  0
 44 43  1  0  0  0  0
 45 46  1  0  0  0  0
M  END
>  <MODEL>
5

>  <REMARK>
 VINA RESULT:      -8.9      3.730      8.623
  Name = 
  11 active torsions:
  status: ('A' for Active; 'I' for Inactive)
    1  A    between atoms: N_1  and  C_19
    2  A    between atoms: N_1  and  N_30
    3  A    between atoms: N_2  and  C_11
    4  A    between atoms: N_6  and  C_29
    5  A    between atoms: C_10  and  C_19
    6  A    between atoms: C_11  and  N_42
    7  A    between atoms: C_14  and  C_29
    8  A    between atoms: O_15  and  C_41
    9  A    between atoms: C_20  and  C_35
   10  A    between atoms: N_30  and  C_35
   11  A    between atoms: N_34  and  C_35
                            x       y       z     vdW  Elec       q    Type
                         _______ _______ _______ _____ _____    ______ ____

>  <TORSDO>
F 11

$$$$
=
 OpenBabel10232408043D

 46 50  0  0  1  0  0  0  0  0999 V2000
  189.1930  177.5050  140.2960 C   0  0  2  0  0  3  0  0  0  0  0  0
  190.2240  174.3360  135.7860 N   0  0  0  0  0  1  0  0  0  0  0  0
  192.6040  177.3850  139.7980 N   0  0  0  0  0  0  0  0  0  0  0  0
  190.1950  175.3630  138.0030 C   0  0  0  0  0  2  0  0  0  0  0  0
  190.3920  176.5390  140.3200 C   0  0  2  0  0  3  0  0  0  0  0  0
  192.7170  176.4420  137.4790 C   0  0  0  0  0  0  0  0  0  0  0  0
  192.0800  175.6820  136.5440 N   0  0  0  0  0  0  0  0  0  0  0  0
  190.8460  175.1410  136.7810 C   0  0  0  0  0  0  0  0  0  0  0  0
  192.0820  176.6730  138.6980 C   0  0  0  0  0  0  0  0  0  0  0  0
  191.6270  177.2900  140.8820 C   0  0  0  0  0  3  0  0  0  0  0  0
  190.8440  176.1610  138.9470 C   0  0  0  0  0  0  0  0  0  0  0  0
  193.8590  176.9140  137.2440 O   0  0  0  0  0  0  0  0  0  0  0  0
  187.7120  177.5780  137.7680 N   0  0  0  0  0  2  0  0  0  0  0  0
  188.7500  178.5300  138.0290 C   0  0  0  0  0  0  0  0  0  0  0  0
  189.0870  179.3660  137.1480 O   0  0  0  0  0  0  0  0  0  0  0  0
  189.4110  178.5410  139.2950 N   0  0  0  0  0  2  0  0  0  0  0  0
  186.1750  178.4190  136.2640 F   0  0  0  0  0  0  0  0  0  0  0  0
  188.0310  177.4350  135.4640 F   0  0  0  0  0  0  0  0  0  0  0  0
  187.0750  177.3890  136.4640 C   0  0  0  0  0  0  0  0  0  0  0  0
  186.8180  175.0950  135.7900 O   0  0  0  0  0  0  0  0  0  0  0  0
  186.3280  176.0800  136.4060 C   0  0  0  0  0  0  0  0  0  0  0  0
  185.0900  175.9090  137.0870 N   0  0  0  0  0  2  0  0  0  0  0  0
  184.3510  177.0060  137.6880 C   0  0  0  0  0  2  0  0  0  0  0  0
  183.2710  176.4750  138.5010 N   0  0  0  0  0  0  0  0  0  0  0  0
  181.9990  178.5980  138.5360 C   0  0  0  0  0  0  0  0  0  0  0  0
  180.7340  179.9100  140.3260 C   0  0  0  0  0  2  0  0  0  0  0  0
  183.0220  179.4060  139.0090 F   0  0  0  0  0  0  0  0  0  0  0  0
  181.2350  176.6810  139.6400 O   0  0  0  0  0  0  0  0  0  0  0  0
  182.2500  177.1860  138.8690 C   0  0  0  0  0  0  0  0  0  0  0  0
  180.6520  178.8450  139.2480 C   0  0  2  0  0  3  0  0  0  0  0  0
  180.2170  177.5800  139.8820 N   0  0  2  0  0  0  0  0  0  0  0  0
  181.8500  178.7590  137.1710 F   0  0  0  0  0  0  0  0  0  0  0  0
  180.1750  177.8150  141.3230 C   0  0  0  0  0  2  0  0  0  0  0  0
  180.8420  179.1410  141.6130 C   0  0  0  0  0  2  0  0  0  0  0  0
  188.9890  178.1360  141.5940 N   0  0  0  0  0  2  0  0  0  0  0  0
  187.6770  177.8320  141.9940 N   0  0  0  0  0  2  0  0  0  0  0  0
  187.7600  176.9990  143.1860 C   0  0  0  0  0  2  0  0  0  0  0  0
  186.9820  177.6040  144.3020 C   0  0  0  0  0  0  0  0  0  0  0  0
  185.6750  178.0390  144.0780 C   0  0  0  0  0  3  0  0  0  0  0  0
  185.4950  178.6960  146.4000 C   0  0  0  0  0  3  0  0  0  0  0  0
  183.2880  179.1140  144.8480 Cl  0  0  0  0  0  0  0  0  0  0  0  0
  184.9310  178.5830  145.1280 C   0  0  0  0  0  0  0  0  0  0  0  0
  186.8060  178.2720  146.6300 C   0  0  0  0  0  0  0  0  0  0  0  0
  187.5480  177.7200  145.5740 C   0  0  0  0  0  3  0  0  0  0  0  0
  187.3470  178.4160  147.9120 O   0  0  0  0  0  0  0  0  0  0  0  0
  188.2290  177.4610  148.4850 C   0  0  0  0  0  1  0  0  0  0  0  0
  1 16  1  6  0  0  0
  1 35  1  0  0  0  0
  2  8  1  0  0  0  0
  3 10  2  0  0  0  0
  4 11  1  0  0  0  0
  5  1  1  6  0  0  0
  5 10  1  0  0  0  0
  6  9  1  0  0  0  0
  7  8  2  0  0  0  0
  7  6  1  0  0  0  0
  8  4  1  0  0  0  0
  9 11  2  0  0  0  0
  9  3  1  0  0  0  0
 11  5  1  0  0  0  0
 12  6  2  0  0  0  0
 13 14  1  0  0  0  0
 14 16  1  0  0  0  0
 15 14  2  0  0  0  0
 17 19  1  0  0  0  0
 18 19  1  0  0  0  0
 19 13  1  0  0  0  0
 20 21  2  0  0  0  0
 21 19  1  0  0  0  0
 21 22  1  0  0  0  0
 22 23  1  0  0  0  0
 23 24  1  0  0  0  0
 24 29  2  0  0  0  0
 25 29  1  0  0  0  0
 25 27  1  0  0  0  0
 25 30  1  0  0  0  0
 26 34  1  0  0  0  0
 28 31  1  0  0  0  0
 29 28  1  0  0  0  0
 30 31  1  0  0  0  0
 30 26  1  1  0  0  0
 31 33  1  1  0  0  0
 32 25  1  0  0  0  0
 33 34  1  0  0  0  0
 35 36  1  0  0  0  0
 36 37  1  0  0  0  0
 37 38  1  0  0  0  0
 38 44  1  0  0  0  0
 39 38  2  0  0  0  0
 39 42  1  0  0  0  0
 40 43  1  0  0  0  0
 41 42  1  0  0  0  0
 42 40  2  0  0  0  0
 43 45  1  0  0  0  0
 44 43  2  0  0  0  0
 45 46  1  0  0  0  0
M  END
>  <MODEL>
6

>  <REMARK>
 VINA RESULT:      -8.9      2.586      5.127
  Name = 
  11 active torsions:
  status: ('A' for Active; 'I' for Inactive)
    1  A    between atoms: N_1  and  C_19
    2  A    between atoms: N_1  and  N_30
    3  A    between atoms: N_2  and  C_11
    4  A    between atoms: N_6  and  C_29
    5  A    between atoms: C_10  and  C_19
    6  A    between atoms: C_11  and  N_42
    7  A    between atoms: C_14  and  C_29
    8  A    between atoms: O_15  and  C_41
    9  A    between atoms: C_20  and  C_35
   10  A    between atoms: N_30  and  C_35
   11  A    between atoms: N_34  and  C_35
                            x       y       z     vdW  Elec       q    Type
                         _______ _______ _______ _____ _____    ______ ____

>  <TORSDO>
F 11

$$$$
=
 OpenBabel10232408043D

 46 50  0  0  1  0  0  0  0  0999 V2000
  189.2780  177.4690  142.3160 C   0  0  2  0  0  3  0  0  0  0  0  0
  187.3700  177.2920  147.5870 N   0  0  0  0  0  1  0  0  0  0  0  0
  191.9740  177.6010  144.4640 N   0  0  0  0  0  0  0  0  0  0  0  0
  188.5130  177.8430  145.4990 C   0  0  0  0  0  3  0  0  0  0  0  0
  189.9410  178.3610  143.3810 C   0  0  2  0  0  3  0  0  0  0  0  0
  190.9000  176.9300  146.6260 C   0  0  0  0  0  0  0  0  0  0  0  0
  189.7370  176.8890  147.3360 N   0  0  0  0  0  0  0  0  0  0  0  0
  188.5570  177.3330  146.8040 C   0  0  0  0  0  0  0  0  0  0  0  0
  190.8720  177.4320  145.3260 C   0  0  0  0  0  0  0  0  0  0  0  0
  191.4820  178.2420  143.2450 C   0  0  0  0  0  2  0  0  0  0  0  0
  189.7030  177.8620  144.7700 C   0  0  0  0  0  0  0  0  0  0  0  0
  191.9750  176.5310  147.1430 O   0  0  0  0  0  0  0  0  0  0  0  0
  188.7270  177.2930  139.4430 N   0  0  0  0  0  2  0  0  0  0  0  0
  189.9830  176.8490  139.9700 C   0  0  0  0  0  0  0  0  0  0  0  0
  190.8400  176.3140  139.2150 O   0  0  0  0  0  0  0  0  0  0  0  0
  190.2770  177.0150  141.3570 N   0  0  0  0  0  2  0  0  0  0  0  0
  189.1800  177.6120  137.2010 F   0  0  0  0  0  0  0  0  0  0  0  0
  188.2230  175.6800  137.8370 F   0  0  0  0  0  0  0  0  0  0  0  0
  188.2720  177.0430  138.0740 C   0  0  0  0  0  0  0  0  0  0  0  0
  186.4940  178.5830  138.5750 O   0  0  0  0  0  0  0  0  0  0  0  0
  186.9170  177.6590  137.8290 C   0  0  0  0  0  0  0  0  0  0  0  0
  186.1150  177.2540  136.7250 N   0  0  0  0  0  2  0  0  0  0  0  0
  186.4180  176.0970  135.8990 C   0  0  0  0  0  2  0  0  0  0  0  0
  185.2130  175.6610  135.2150 N   0  0  0  0  0  0  0  0  0  0  0  0
  184.5720  174.0420  136.9750 C   0  0  0  0  0  0  0  0  0  0  0  0
  183.6690  171.6530  136.9800 C   0  0  0  0  0  2  0  0  0  0  0  0
  185.7640  173.3360  137.0050 F   0  0  0  0  0  0  0  0  0  0  0  0
  183.2830  174.3450  135.0450 O   0  0  0  0  0  0  0  0  0  0  0  0
  184.4170  174.7570  135.6960 C   0  0  0  0  0  0  0  0  0  0  0  0
  183.3260  173.1320  136.9680 C   0  0  2  0  0  3  0  0  0  0  0  0
  182.5450  173.4130  135.7430 N   0  0  2  0  0  0  0  0  0  0  0  0
  184.5070  174.9250  138.0370 F   0  0  0  0  0  0  0  0  0  0  0  0
  182.5320  172.1850  134.9510 C   0  0  0  0  0  2  0  0  0  0  0  0
  183.5290  171.2180  135.5490 C   0  0  0  0  0  2  0  0  0  0  0  0
  188.2250  178.1790  141.6020 N   0  0  0  0  0  2  0  0  0  0  0  0
  187.0040  177.7700  142.1620 N   0  0  0  0  0  2  0  0  0  0  0  0
  186.0000  178.7650  141.8110 C   0  0  0  0  0  2  0  0  0  0  0  0
  184.8860  178.7540  142.7990 C   0  0  0  0  0  0  0  0  0  0  0  0
  185.1740  178.7370  144.1650 C   0  0  0  0  0  3  0  0  0  0  0  0
  182.8060  178.7840  144.6640 C   0  0  0  0  0  3  0  0  0  0  0  0
  184.4950  178.7470  146.8080 Cl  0  0  0  0  0  0  0  0  0  0  0  0
  184.1320  178.7540  145.0970 C   0  0  0  0  0  0  0  0  0  0  0  0
  182.5100  178.7920  143.2990 C   0  0  0  0  0  0  0  0  0  0  0  0
  183.5580  178.7810  142.3660 C   0  0  0  0  0  3  0  0  0  0  0  0
  181.1700  178.8040  142.8980 O   0  0  0  0  0  0  0  0  0  0  0  0
  180.4880  179.9960  142.5350 C   0  0  0  0  0  1  0  0  0  0  0  0
  1 16  1  6  0  0  0
  3  9  2  0  0  0  0
  4  8  1  0  0  0  0
  5  1  1  6  0  0  0
  5 11  1  0  0  0  0
  6 12  2  0  0  0  0
  6  7  1  0  0  0  0
  8  7  2  0  0  0  0
  8  2  1  0  0  0  0
  9  6  1  0  0  0  0
 10  5  1  0  0  0  0
 10  3  1  0  0  0  0
 11  9  1  0  0  0  0
 11  4  2  0  0  0  0
 13 14  1  0  0  0  0
 14 16  1  0  0  0  0
 15 14  2  0  0  0  0
 17 19  1  0  0  0  0
 18 19  1  0  0  0  0
 19 13  1  0  0  0  0
 21 19  1  0  0  0  0
 21 20  2  0  0  0  0
 22 21  1  0  0  0  0
 23 22  1  0  0  0  0
 24 29  2  0  0  0  0
 24 23  1  0  0  0  0
 25 27  1  0  0  0  0
 25 32  1  0  0  0  0
 28 29  1  0  0  0  0
 28 31  1  0  0  0  0
 29 25  1  0  0  0  0
 30 25  1  0  0  0  0
 30 26  1  6  0  0  0
 31 33  1  6  0  0  0
 31 30  1  0  0  0  0
 33 34  1  0  0  0  0
 34 26  1  0  0  0  0
 35 36  1  0  0  0  0
 35  1  1  0  0  0  0
 37 36  1  0  0  0  0
 37 38  1  0  0  0  0
 38 39  1  0  0  0  0
 39 42  2  0  0  0  0
 40 42  1  0  0  0  0
 42 41  1  0  0  0  0
 43 40  2  0  0  0  0
 44 38  2  0  0  0  0
 44 43  1  0  0  0  0
 45 43  1  0  0  0  0
 46 45  1  0  0  0  0
M  END
>  <MODEL>
7

>  <REMARK>
 VINA RESULT:      -8.8      2.356      2.626
  Name = 
  11 active torsions:
  status: ('A' for Active; 'I' for Inactive)
    1  A    between atoms: N_1  and  C_19
    2  A    between atoms: N_1  and  N_30
    3  A    between atoms: N_2  and  C_11
    4  A    between atoms: N_6  and  C_29
    5  A    between atoms: C_10  and  C_19
    6  A    between atoms: C_11  and  N_42
    7  A    between atoms: C_14  and  C_29
    8  A    between atoms: O_15  and  C_41
    9  A    between atoms: C_20  and  C_35
   10  A    between atoms: N_30  and  C_35
   11  A    between atoms: N_34  and  C_35
                            x       y       z     vdW  Elec       q    Type
                         _______ _______ _______ _____ _____    ______ ____

>  <TORSDO>
F 11

$$$$
=
 OpenBabel10232408043D

 46 50  0  0  1  0  0  0  0  0999 V2000
  189.8520  177.1650  139.9450 C   0  0  2  0  0  3  0  0  0  0  0  0
  190.8540  173.7590  135.6040 N   0  0  0  0  0  1  0  0  0  0  0  0
  193.1910  177.4040  139.1120 N   0  0  0  0  0  0  0  0  0  0  0  0
  190.9000  174.9640  137.7290 C   0  0  0  0  0  2  0  0  0  0  0  0
  191.1600  176.3530  139.9200 C   0  0  2  0  0  3  0  0  0  0  0  0
  193.2080  176.2830  136.8710 C   0  0  0  0  0  0  0  0  0  0  0  0
  192.5880  175.3750  136.0660 N   0  0  0  0  0  0  0  0  0  0  0  0
  191.4580  174.7150  136.4670 C   0  0  0  0  0  0  0  0  0  0  0  0
  192.6640  176.5430  138.1280 C   0  0  0  0  0  0  0  0  0  0  0  0
  192.3370  177.2890  140.2950 C   0  0  0  0  0  3  0  0  0  0  0  0
  191.5280  175.9120  138.5390 C   0  0  0  0  0  0  0  0  0  0  0  0
  194.2550  176.8640  136.4860 O   0  0  0  0  0  0  0  0  0  0  0  0
  187.9810  176.9890  137.6960 N   0  0  0  0  0  2  0  0  0  0  0  0
  188.9950  178.0020  137.7200 C   0  0  0  0  0  0  0  0  0  0  0  0
  189.1380  178.7860  136.7430 O   0  0  0  0  0  0  0  0  0  0  0  0
  189.8480  178.1340  138.8570 N   0  0  0  0  0  2  0  0  0  0  0  0
  186.3520  177.7720  136.2570 F   0  0  0  0  0  0  0  0  0  0  0  0
  187.9610  176.4370  135.4310 F   0  0  0  0  0  0  0  0  0  0  0  0
  187.1530  176.6790  136.5290 C   0  0  0  0  0  0  0  0  0  0  0  0
  186.7470  174.3210  136.7730 O   0  0  0  0  0  0  0  0  0  0  0  0
  186.2670  175.4860  136.7910 C   0  0  0  0  0  0  0  0  0  0  0  0
  184.8910  175.6510  137.1180 N   0  0  0  0  0  2  0  0  0  0  0  0
  184.1910  176.9190  137.0110 C   0  0  0  0  0  2  0  0  0  0  0  0
  183.2670  177.0590  138.1230 N   0  0  0  0  0  0  0  0  0  0  0  0
  184.6330  178.7600  139.2910 C   0  0  0  0  0  0  0  0  0  0  0  0
  185.3150  179.1630  141.7190 C   0  0  0  0  0  2  0  0  0  0  0  0
  185.8150  178.0370  139.3310 F   0  0  0  0  0  0  0  0  0  0  0  0
  182.6030  177.9910  140.1660 O   0  0  0  0  0  0  0  0  0  0  0  0
  183.4760  177.8650  139.1160 C   0  0  0  0  0  0  0  0  0  0  0  0
  184.2920  179.4410  140.6330 C   0  0  2  0  0  3  0  0  0  0  0  0
  182.9810  178.9350  141.0970 N   0  0  2  0  0  0  0  0  0  0  0  0
  184.6770  179.7020  138.2800 F   0  0  0  0  0  0  0  0  0  0  0  0
  183.2110  178.2370  142.3590 C   0  0  0  0  0  2  0  0  0  0  0  0
  184.7020  178.0710  142.5500 C   0  0  0  0  0  2  0  0  0  0  0  0
  189.6860  177.8720  141.2090 N   0  0  0  0  0  2  0  0  0  0  0  0
  189.5600  176.8950  142.2100 N   0  0  0  0  0  2  0  0  0  0  0  0
  188.2350  177.0330  142.7990 C   0  0  0  0  0  2  0  0  0  0  0  0
  188.3360  177.2450  144.2700 C   0  0  0  0  0  0  0  0  0  0  0  0
  189.5090  176.8920  144.9390 C   0  0  0  0  0  3  0  0  0  0  0  0
  188.5580  177.6820  147.0200 C   0  0  0  0  0  3  0  0  0  0  0  0
  191.0960  176.6830  147.1500 Cl  0  0  0  0  0  0  0  0  0  0  0  0
  189.6200  177.1130  146.3150 C   0  0  0  0  0  0  0  0  0  0  0  0
  187.3770  178.0300  146.3580 C   0  0  0  0  0  0  0  0  0  0  0  0
  187.2730  177.8120  144.9750 C   0  0  0  0  0  3  0  0  0  0  0  0
  186.3270  178.5820  147.0970 O   0  0  0  0  0  0  0  0  0  0  0  0
  184.9630  178.4130  146.7370 C   0  0  0  0  0  1  0  0  0  0  0  0
  1 16  1  6  0  0  0
  1 35  1  0  0  0  0
  2  8  1  0  0  0  0
  3 10  2  0  0  0  0
  4 11  1  0  0  0  0
  5  1  1  6  0  0  0
  5 10  1  0  0  0  0
  6  9  1  0  0  0  0
  7  8  2  0  0  0  0
  7  6  1  0  0  0  0
  8  4  1  0  0  0  0
  9 11  2  0  0  0  0
  9  3  1  0  0  0  0
 11  5  1  0  0  0  0
 12  6  2  0  0  0  0
 13 14  1  0  0  0  0
 14 16  1  0  0  0  0
 15 14  2  0  0  0  0
 17 19  1  0  0  0  0
 18 19  1  0  0  0  0
 19 21  1  0  0  0  0
 19 13  1  0  0  0  0
 20 21  2  0  0  0  0
 21 22  1  0  0  0  0
 23 22  1  0  0  0  0
 23 24  1  0  0  0  0
 24 29  2  0  0  0  0
 25 27  1  0  0  0  0
 25 30  1  0  0  0  0
 26 34  1  0  0  0  0
 28 31  1  0  0  0  0
 29 25  1  0  0  0  0
 29 28  1  0  0  0  0
 30 31  1  0  0  0  0
 30 26  1  1  0  0  0
 31 33  1  1  0  0  0
 32 25  1  0  0  0  0
 33 34  1  0  0  0  0
 35 36  1  0  0  0  0
 36 37  1  0  0  0  0
 37 38  1  0  0  0  0
 38 39  2  0  0  0  0
 38 44  1  0  0  0  0
 39 42  1  0  0  0  0
 42 40  2  0  0  0  0
 42 41  1  0  0  0  0
 43 40  1  0  0  0  0
 43 45  1  0  0  0  0
 44 43  2  0  0  0  0
 46 45  1  0  0  0  0
M  END
>  <MODEL>
8

>  <REMARK>
 VINA RESULT:      -8.6      2.835      5.602
  Name = 
  11 active torsions:
  status: ('A' for Active; 'I' for Inactive)
    1  A    between atoms: N_1  and  C_19
    2  A    between atoms: N_1  and  N_30
    3  A    between atoms: N_2  and  C_11
    4  A    between atoms: N_6  and  C_29
    5  A    between atoms: C_10  and  C_19
    6  A    between atoms: C_11  and  N_42
    7  A    between atoms: C_14  and  C_29
    8  A    between atoms: O_15  and  C_41
    9  A    between atoms: C_20  and  C_35
   10  A    between atoms: N_30  and  C_35
   11  A    between atoms: N_34  and  C_35
                            x       y       z     vdW  Elec       q    Type
                         _______ _______ _______ _____ _____    ______ ____

>  <TORSDO>
F 11

$$$$
=
 OpenBabel10232408043D

 46 50  0  0  1  0  0  0  0  0999 V2000
  186.0550  178.2420  142.4110 C   0  0  2  0  0  3  0  0  0  0  0  0
  189.4610  176.9130  146.6640 N   0  0  0  0  0  1  0  0  0  0  0  0
  184.5350  179.1720  145.3650 N   0  0  0  0  0  0  0  0  0  0  0  0
  187.5670  177.2030  145.1480 C   0  0  0  0  0  2  0  0  0  0  0  0
  185.4470  177.6610  143.7010 C   0  0  2  0  0  3  0  0  0  0  0  0
  186.4570  179.0110  146.9650 C   0  0  0  0  0  0  0  0  0  0  0  0
  187.6570  178.4170  147.2220 N   0  0  0  0  0  0  0  0  0  0  0  0
  188.2160  177.5260  146.3470 C   0  0  0  0  0  0  0  0  0  0  0  0
  185.7990  178.7010  145.7750 C   0  0  0  0  0  0  0  0  0  0  0  0
  184.2130  178.5120  144.0990 C   0  0  0  0  0  3  0  0  0  0  0  0
  186.3490  177.8320  144.8810 C   0  0  0  0  0  0  0  0  0  0  0  0
  185.9540  179.8140  147.7930 O   0  0  0  0  0  0  0  0  0  0  0  0
  187.9660  177.5500  140.2990 N   0  0  0  0  0  2  0  0  0  0  0  0
  188.4280  178.0010  141.5780 C   0  0  0  0  0  0  0  0  0  0  0  0
  189.6620  178.0400  141.8350 O   0  0  0  0  0  0  0  0  0  0  0  0
  187.4920  178.4150  142.5740 N   0  0  0  0  0  2  0  0  0  0  0  0
  189.9110  176.3760  139.8850 F   0  0  0  0  0  0  0  0  0  0  0  0
  188.1330  176.0080  138.5600 F   0  0  0  0  0  0  0  0  0  0  0  0
  188.8290  176.9730  139.2670 C   0  0  0  0  0  0  0  0  0  0  0  0
  188.7790  179.1650  138.2780 O   0  0  0  0  0  0  0  0  0  0  0  0
  189.3380  178.0360  138.3260 C   0  0  0  0  0  0  0  0  0  0  0  0
  190.4870  177.8110  137.5160 N   0  0  0  0  0  2  0  0  0  0  0  0
  191.1130  176.5090  137.3620 C   0  0  0  0  0  2  0  0  0  0  0  0
  192.3860  176.4980  138.0610 N   0  0  0  0  0  0  0  0  0  0  0  0
  193.4640  174.9420  136.4660 C   0  0  0  0  0  0  0  0  0  0  0  0
  194.9930  172.9080  136.6900 C   0  0  0  0  0  2  0  0  0  0  0  0
  192.5140  173.9350  136.5360 F   0  0  0  0  0  0  0  0  0  0  0  0
  194.6040  175.7920  138.3250 O   0  0  0  0  0  0  0  0  0  0  0  0
  193.4050  175.8030  137.6600 C   0  0  0  0  0  0  0  0  0  0  0  0
  194.9130  174.4170  136.5400 C   0  0  2  0  0  3  0  0  0  0  0  0
  195.5760  175.0310  137.7120 N   0  0  2  0  0  0  0  0  0  0  0  0
  193.2900  175.6900  135.3160 F   0  0  0  0  0  0  0  0  0  0  0  0
  195.9230  173.9460  138.6270 C   0  0  0  0  0  2  0  0  0  0  0  0
  195.2370  172.6830  138.1550 C   0  0  0  0  0  2  0  0  0  0  0  0
  185.4580  179.5270  142.0710 N   0  0  0  0  0  2  0  0  0  0  0  0
  185.2940  179.5440  140.6760 N   0  0  0  0  0  2  0  0  0  0  0  0
  184.0240  178.8990  140.3710 C   0  0  0  0  0  2  0  0  0  0  0  0
  184.1690  177.9810  139.2080 C   0  0  0  0  0  0  0  0  0  0  0  0
  183.2410  176.9560  139.0170 C   0  0  0  0  0  3  0  0  0  0  0  0
  184.4010  176.2830  137.0020 C   0  0  0  0  0  3  0  0  0  0  0  0
  182.1860  174.8320  137.6670 Cl  0  0  0  0  0  0  0  0  0  0  0  0
  183.3580  176.1080  137.9120 C   0  0  0  0  0  0  0  0  0  0  0  0
  185.3390  177.3010  137.1920 C   0  0  0  0  0  0  0  0  0  0  0  0
  185.2150  178.1550  138.2990 C   0  0  0  0  0  3  0  0  0  0  0  0
  186.3830  177.4380  136.2710 O   0  0  0  0  0  0  0  0  0  0  0  0
  186.4440  176.6930  135.0630 C   0  0  0  0  0  1  0  0  0  0  0  0
  1 35  1  1  0  0  0
  1 16  1  0  0  0  0
  3  9  1  0  0  0  0
  4  8  1  0  0  0  0
  5  1  1  6  0  0  0
  5 10  1  0  0  0  0
  5 11  1  0  0  0  0
  6  7  1  0  0  0  0
  6 12  2  0  0  0  0
  8  2  1  0  0  0  0
  8  7  2  0  0  0  0
  9  6  1  0  0  0  0
 10  3  2  0  0  0  0
 11  4  1  0  0  0  0
 11  9  2  0  0  0  0
 13 14  1  0  0  0  0
 14 15  2  0  0  0  0
 14 16  1  0  0  0  0
 18 19  1  0  0  0  0
 19 17  1  0  0  0  0
 19 13  1  0  0  0  0
 20 21  2  0  0  0  0
 21 19  1  0  0  0  0
 22 21  1  0  0  0  0
 23 22  1  0  0  0  0
 23 24  1  0  0  0  0
 25 27  1  0  0  0  0
 25 30  1  0  0  0  0
 25 29  1  0  0  0  0
 26 34  1  0  0  0  0
 29 24  2  0  0  0  0
 29 28  1  0  0  0  0
 30 26  1  1  0  0  0
 30 31  1  0  0  0  0
 31 28  1  0  0  0  0
 31 33  1  1  0  0  0
 32 25  1  0  0  0  0
 34 33  1  0  0  0  0
 36 35  1  0  0  0  0
 37 36  1  0  0  0  0
 38 37  1  0  0  0  0
 39 38  1  0  0  0  0
 40 43  2  0  0  0  0
 40 42  1  0  0  0  0
 41 42  1  0  0  0  0
 42 39  2  0  0  0  0
 43 44  1  0  0  0  0
 44 38  2  0  0  0  0
 45 43  1  0  0  0  0
 46 45  1  0  0  0  0
M  END
>  <MODEL>
9

>  <REMARK>
 VINA RESULT:      -8.6      3.637      7.617
  Name = 
  11 active torsions:
  status: ('A' for Active; 'I' for Inactive)
    1  A    between atoms: N_1  and  C_19
    2  A    between atoms: N_1  and  N_30
    3  A    between atoms: N_2  and  C_11
    4  A    between atoms: N_6  and  C_29
    5  A    between atoms: C_10  and  C_19
    6  A    between atoms: C_11  and  N_42
    7  A    between atoms: C_14  and  C_29
    8  A    between atoms: O_15  and  C_41
    9  A    between atoms: C_20  and  C_35
   10  A    between atoms: N_30  and  C_35
   11  A    between atoms: N_34  and  C_35
                            x       y       z     vdW  Elec       q    Type
                         _______ _______ _______ _____ _____    ______ ____

>  <TORSDO>
F 11

$$$$
