=
 OpenBabel10232411143D

 33 38  0  0  1  0  0  0  0  0999 V2000
  186.4240  178.4060  142.9220 C   0  0  1  0  0  3  0  0  0  0  0  0
  188.2400  176.8850  143.2960 C   0  0  2  0  0  0  0  0  0  0  0  0
  187.5460  177.0910  144.5330 C   0  0  2  0  0  3  0  0  0  0  0  0
  186.6080  177.9970  144.3180 C   0  0  2  0  0  3  0  0  0  0  0  0
  189.6140  177.4270  143.6550 C   0  0  1  0  0  3  0  0  0  0  0  0
  187.4470  177.5450  142.1570 C   0  0  2  0  0  3  0  0  0  0  0  0
  184.0660  178.7450  144.2250 S   0  0  0  0  0  0  0  0  0  0  0  0
  188.4930  177.1670  145.6580 C   0  0  2  0  0  3  0  0  0  0  0  0
  188.1140  178.2160  146.7160 C   0  0  1  0  0  3  0  0  0  0  0  0
  189.7590  177.4310  145.0770 O   0  0  0  0  0  0  0  0  0  0  0  0
  186.7590  177.8610  147.3400 C   0  0  0  0  0  2  0  0  0  0  0  0
  185.5600  178.2970  146.5260 C   0  0  0  0  0  3  0  0  0  0  0  0
  185.5130  178.3190  145.1890 C   0  0  0  0  0  0  0  0  0  0  0  0
  189.4650  176.0050  143.1230 C   0  0  0  0  0  2  0  0  0  0  0  0
  184.9340  178.1690  142.6850 C   0  0  1  0  0  3  0  0  0  0  0  0
  189.0870  178.2250  147.7150 O   0  0  0  0  0  1  0  0  0  0  0  0
  184.4250  178.9140  141.4460 C   0  0  1  0  0  3  0  0  0  0  0  0
  185.4490  179.6760  140.8750 O   0  0  0  0  0  1  0  0  0  0  0  0
  183.8360  177.9660  140.3920 C   0  0  0  0  0  2  0  0  0  0  0  0
  184.5830  177.6240  138.1510 O   0  0  0  0  0  1  0  0  0  0  0  0
  183.8880  178.5170  138.9670 C   0  0  1  0  0  3  0  0  0  0  0  0
  182.4860  178.7560  138.4050 C   0  0  0  0  0  2  0  0  0  0  0  0
  181.1480  180.2820  139.6410 O   0  0  0  0  0  1  0  0  0  0  0  0
  182.0260  180.2030  138.5650 C   0  0  0  0  0  0  0  0  0  0  0  0
  181.3690  180.6270  137.4080 O   0  0  0  0  0  1  0  0  0  0  0  0
  183.1230  181.0320  138.8110 O   0  0  0  0  0  1  0  0  0  0  0  0
  188.2770  178.3250  141.1220 C   0  0  0  0  0  2  0  0  0  0  0  0
  190.5950  176.8620  138.4330 C   0  0  0  0  0  2  0  0  0  0  0  0
  189.9930  177.5590  137.3670 O   0  0  0  0  0  0  0  0  0  0  0  0
  188.7010  177.4900  139.9220 C   0  0  0  0  0  3  0  0  0  0  0  0
  188.0170  178.0100  138.6580 C   0  0  0  0  0  2  0  0  0  0  0  0
  190.2220  177.5230  139.7610 C   0  0  0  0  0  2  0  0  0  0  0  0
  188.6120  177.2980  137.4430 C   0  0  0  0  0  2  0  0  0  0  0  0
  1  4  1  0  0  0  0
  2  5  1  0  0  0  0
  2  3  1  0  0  0  0
  3  8  1  0  0  0  0
  4  3  1  0  0  0  0
  4 13  1  0  0  0  0
  5 10  1  0  0  0  0
  6  1  1  0  0  0  0
  6  2  1  0  0  0  0
  7 13  1  0  0  0  0
  8  9  1  0  0  0  0
  9 11  1  0  0  0  0
  9 16  1  0  0  0  0
 10  8  1  0  0  0  0
 12 11  1  0  0  0  0
 13 12  2  0  0  0  0
 14  2  1  0  0  0  0
 14  5  1  0  0  0  0
 15  1  1  0  0  0  0
 15  7  1  0  0  0  0
 17 15  1  0  0  0  0
 18 17  1  0  0  0  0
 19 17  1  0  0  0  0
 20 21  1  0  0  0  0
 21 19  1  0  0  0  0
 22 24  1  0  0  0  0
 22 21  1  0  0  0  0
 24 26  1  0  0  0  0
 24 23  1  0  0  0  0
 25 24  1  0  0  0  0
 27  6  1  0  0  0  0
 28 32  1  0  0  0  0
 29 33  1  0  0  0  0
 29 28  1  0  0  0  0
 30 27  1  0  0  0  0
 31 30  1  0  0  0  0
 32 30  1  0  0  0  0
 33 31  1  0  0  0  0
M  END
>  <MODEL>
1

>  <REMARK>
 VINA RESULT:      -8.8      0.000      0.000
  Name = 
  7 active torsions:
  status: ('A' for Active; 'I' for Inactive)
    1  A    between atoms: C_3  and  C_15
    2  A    between atoms: C_6  and  C_31
    3  A    between atoms: C_6  and  C_32
    4  A    between atoms: C_10  and  C_15
    5  A    between atoms: C_10  and  C_31
    6  A    between atoms: C_11  and  C_12
    7  A    between atoms: C_11  and  C_18
                            x       y       z     vdW  Elec       q    Type
                         _______ _______ _______ _____ _____    ______ ____

>  <TORSDO>
F 7

$$$$
=
 OpenBabel10232411143D

 33 38  0  0  1  0  0  0  0  0999 V2000
  186.9440  178.3220  143.5490 C   0  0  1  0  0  3  0  0  0  0  0  0
  188.7280  176.7200  143.5920 C   0  0  2  0  0  0  0  0  0  0  0  0
  188.2240  176.8880  144.9230 C   0  0  2  0  0  3  0  0  0  0  0  0
  187.3040  177.8370  144.8850 C   0  0  2  0  0  3  0  0  0  0  0  0
  190.1610  177.1940  143.7770 C   0  0  1  0  0  3  0  0  0  0  0  0
  187.8120  177.4650  142.6090 C   0  0  2  0  0  3  0  0  0  0  0  0
  184.8080  178.6790  145.1870 S   0  0  0  0  0  0  0  0  0  0  0  0
  189.3220  176.8730  145.9050 C   0  0  2  0  0  3  0  0  0  0  0  0
  189.1390  177.8810  147.0530 C   0  0  1  0  0  3  0  0  0  0  0  0
  190.5030  177.1210  145.1620 O   0  0  0  0  0  0  0  0  0  0  0  0
  187.8700  177.5420  147.8450 C   0  0  0  0  0  2  0  0  0  0  0  0
  186.5900  178.0620  147.2300 C   0  0  0  0  0  3  0  0  0  0  0  0
  186.3560  178.1530  145.9160 C   0  0  0  0  0  0  0  0  0  0  0  0
  189.8780  175.8070  143.2080 C   0  0  0  0  0  2  0  0  0  0  0  0
  185.4270  178.1510  143.5150 C   0  0  1  0  0  3  0  0  0  0  0  0
  190.2420  177.8050  147.9020 O   0  0  0  0  0  1  0  0  0  0  0  0
  184.7810  178.9750  142.3950 C   0  0  1  0  0  3  0  0  0  0  0  0
  185.6790  179.9280  141.9070 O   0  0  0  0  0  1  0  0  0  0  0  0
  184.2760  178.1000  141.2400 C   0  0  0  0  0  2  0  0  0  0  0  0
  183.7860  179.1320  139.1440 O   0  0  0  0  0  1  0  0  0  0  0  0
  183.2180  178.7780  140.3680 C   0  0  1  0  0  3  0  0  0  0  0  0
  182.0090  177.8700  140.1410 C   0  0  0  0  0  2  0  0  0  0  0  0
  179.9820  177.3440  141.2640 O   0  0  0  0  0  1  0  0  0  0  0  0
  180.7370  178.4110  140.7870 C   0  0  0  0  0  0  0  0  0  0  0  0
  179.9850  179.1170  139.8450 O   0  0  0  0  0  1  0  0  0  0  0  0
  181.0590  179.2530  141.8540 O   0  0  0  0  0  1  0  0  0  0  0  0
  188.5220  178.2660  141.5020 C   0  0  0  0  0  2  0  0  0  0  0  0
  190.4740  176.8200  138.5290 C   0  0  0  0  0  2  0  0  0  0  0  0
  189.7960  177.5840  137.5600 O   0  0  0  0  0  0  0  0  0  0  0  0
  188.7780  177.4640  140.2340 C   0  0  0  0  0  3  0  0  0  0  0  0
  187.9890  178.0640  139.0710 C   0  0  0  0  0  2  0  0  0  0  0  0
  190.2740  177.4410  139.9130 C   0  0  0  0  0  2  0  0  0  0  0  0
  188.4200  177.3780  137.7740 C   0  0  0  0  0  2  0  0  0  0  0  0
  1  4  1  0  0  0  0
  2  5  1  0  0  0  0
  2  3  1  0  0  0  0
  3  8  1  0  0  0  0
  4  3  1  0  0  0  0
  4 13  1  0  0  0  0
  5 10  1  0  0  0  0
  6  1  1  0  0  0  0
  6  2  1  0  0  0  0
  7 13  1  0  0  0  0
  8  9  1  0  0  0  0
  9 11  1  0  0  0  0
  9 16  1  0  0  0  0
 10  8  1  0  0  0  0
 12 11  1  0  0  0  0
 13 12  2  0  0  0  0
 14  2  1  0  0  0  0
 14  5  1  0  0  0  0
 15  1  1  0  0  0  0
 15  7  1  0  0  0  0
 17 15  1  0  0  0  0
 18 17  1  0  0  0  0
 19 17  1  0  0  0  0
 20 21  1  0  0  0  0
 21 19  1  0  0  0  0
 22 21  1  0  0  0  0
 22 24  1  0  0  0  0
 24 23  1  0  0  0  0
 24 26  1  0  0  0  0
 25 24  1  0  0  0  0
 27  6  1  0  0  0  0
 28 32  1  0  0  0  0
 29 33  1  0  0  0  0
 29 28  1  0  0  0  0
 30 27  1  0  0  0  0
 31 30  1  0  0  0  0
 32 30  1  0  0  0  0
 33 31  1  0  0  0  0
M  END
>  <MODEL>
2

>  <REMARK>
 VINA RESULT:      -8.6      1.288      1.539
  Name = 
  7 active torsions:
  status: ('A' for Active; 'I' for Inactive)
    1  A    between atoms: C_3  and  C_15
    2  A    between atoms: C_6  and  C_31
    3  A    between atoms: C_6  and  C_32
    4  A    between atoms: C_10  and  C_15
    5  A    between atoms: C_10  and  C_31
    6  A    between atoms: C_11  and  C_12
    7  A    between atoms: C_11  and  C_18
                            x       y       z     vdW  Elec       q    Type
                         _______ _______ _______ _____ _____    ______ ____

>  <TORSDO>
F 7

$$$$
=
 OpenBabel10232411143D

 33 38  0  0  1  0  0  0  0  0999 V2000
  186.8800  178.3090  143.4970 C   0  0  1  0  0  3  0  0  0  0  0  0
  188.6750  176.7210  143.5750 C   0  0  2  0  0  0  0  0  0  0  0  0
  188.1520  176.8940  144.8980 C   0  0  2  0  0  3  0  0  0  0  0  0
  187.2260  177.8360  144.8410 C   0  0  2  0  0  3  0  0  0  0  0  0
  190.1020  177.2070  143.7760 C   0  0  1  0  0  3  0  0  0  0  0  0
  187.7680  177.4530  142.5750 C   0  0  2  0  0  3  0  0  0  0  0  0
  184.7200  178.6620  145.1030 S   0  0  0  0  0  0  0  0  0  0  0  0
  189.2360  176.8930  145.8950 C   0  0  2  0  0  3  0  0  0  0  0  0
  189.0300  177.9070  147.0330 C   0  0  1  0  0  3  0  0  0  0  0  0
  190.4260  177.1450  145.1670 O   0  0  0  0  0  0  0  0  0  0  0  0
  187.7530  177.5650  147.8110 C   0  0  0  0  0  2  0  0  0  0  0  0
  186.4770  178.0710  147.1750 C   0  0  0  0  0  3  0  0  0  0  0  0
  186.2620  178.1520  145.8560 C   0  0  0  0  0  0  0  0  0  0  0  0
  189.8370  175.8130  143.2140 C   0  0  0  0  0  2  0  0  0  0  0  0
  185.3650  178.1270  143.4430 C   0  0  1  0  0  3  0  0  0  0  0  0
  190.1210  177.8450  147.8980 O   0  0  0  0  0  1  0  0  0  0  0  0
  184.7300  178.9390  142.3090 C   0  0  1  0  0  3  0  0  0  0  0  0
  185.6390  179.8720  141.8030 O   0  0  0  0  0  1  0  0  0  0  0  0
  184.2120  178.0510  141.1710 C   0  0  0  0  0  2  0  0  0  0  0  0
  182.0940  178.9310  141.8330 O   0  0  0  0  0  1  0  0  0  0  0  0
  182.7700  178.3500  140.7590 C   0  0  1  0  0  3  0  0  0  0  0  0
  182.7120  179.2750  139.5430 C   0  0  0  0  0  2  0  0  0  0  0  0
  181.3990  177.5180  138.6290 O   0  0  0  0  0  1  0  0  0  0  0  0
  182.2570  178.5550  138.2770 C   0  0  0  0  0  0  0  0  0  0  0  0
  183.3610  178.0250  137.6050 O   0  0  0  0  0  1  0  0  0  0  0  0
  181.5790  179.4400  137.4360 O   0  0  0  0  0  1  0  0  0  0  0  0
  188.4870  178.2520  141.4730 C   0  0  0  0  0  2  0  0  0  0  0  0
  190.4520  176.8110  138.5050 C   0  0  0  0  0  2  0  0  0  0  0  0
  189.7710  177.5690  137.5330 O   0  0  0  0  0  0  0  0  0  0  0  0
  188.7500  177.4490  140.2060 C   0  0  0  0  0  3  0  0  0  0  0  0
  187.9590  178.0400  139.0410 C   0  0  0  0  0  2  0  0  0  0  0  0
  190.2460  177.4340  139.8870 C   0  0  0  0  0  2  0  0  0  0  0  0
  188.3950  177.3540  137.7460 C   0  0  0  0  0  2  0  0  0  0  0  0
  1  4  1  0  0  0  0
  2  5  1  0  0  0  0
  2  3  1  0  0  0  0
  3  8  1  0  0  0  0
  4  3  1  0  0  0  0
  4 13  1  0  0  0  0
  5 10  1  0  0  0  0
  6  1  1  0  0  0  0
  6  2  1  0  0  0  0
  7 13  1  0  0  0  0
  8  9  1  0  0  0  0
  9 11  1  0  0  0  0
  9 16  1  0  0  0  0
 10  8  1  0  0  0  0
 12 11  1  0  0  0  0
 13 12  2  0  0  0  0
 14  2  1  0  0  0  0
 14  5  1  0  0  0  0
 15  1  1  0  0  0  0
 15  7  1  0  0  0  0
 17 15  1  0  0  0  0
 18 17  1  0  0  0  0
 19 17  1  0  0  0  0
 21 19  1  0  0  0  0
 21 20  1  0  0  0  0
 22 21  1  0  0  0  0
 24 23  1  0  0  0  0
 24 22  1  0  0  0  0
 25 24  1  0  0  0  0
 26 24  1  0  0  0  0
 27  6  1  0  0  0  0
 28 32  1  0  0  0  0
 29 33  1  0  0  0  0
 29 28  1  0  0  0  0
 30 27  1  0  0  0  0
 31 30  1  0  0  0  0
 32 30  1  0  0  0  0
 33 31  1  0  0  0  0
M  END
>  <MODEL>
3

>  <REMARK>
 VINA RESULT:      -8.5      1.054      1.476
  Name = 
  7 active torsions:
  status: ('A' for Active; 'I' for Inactive)
    1  A    between atoms: C_3  and  C_15
    2  A    between atoms: C_6  and  C_31
    3  A    between atoms: C_6  and  C_32
    4  A    between atoms: C_10  and  C_15
    5  A    between atoms: C_10  and  C_31
    6  A    between atoms: C_11  and  C_12
    7  A    between atoms: C_11  and  C_18
                            x       y       z     vdW  Elec       q    Type
                         _______ _______ _______ _____ _____    ______ ____

>  <TORSDO>
F 7

$$$$
=
 OpenBabel10232411143D

 33 38  0  0  1  0  0  0  0  0999 V2000
  188.4550  177.3610  143.8870 C   0  0  1  0  0  3  0  0  0  0  0  0
  188.0930  178.1200  146.1330 C   0  0  2  0  0  0  0  0  0  0  0  0
  189.4480  177.6680  146.0100 C   0  0  2  0  0  3  0  0  0  0  0  0
  189.5940  177.1760  144.7910 C   0  0  2  0  0  3  0  0  0  0  0  0
  187.5710  177.1490  147.1800 C   0  0  1  0  0  3  0  0  0  0  0  0
  187.4410  178.1440  144.7420 C   0  0  2  0  0  3  0  0  0  0  0  0
  190.7130  177.1960  142.3870 S   0  0  0  0  0  0  0  0  0  0  0  0
  189.8720  176.9490  147.2230 C   0  0  2  0  0  3  0  0  0  0  0  0
  190.7580  175.7240  146.9370 C   0  0  1  0  0  3  0  0  0  0  0  0
  188.6770  176.5940  147.8970 O   0  0  0  0  0  0  0  0  0  0  0  0
  192.0530  176.1680  146.2450 C   0  0  0  0  0  2  0  0  0  0  0  0
  191.9240  176.3810  144.7530 C   0  0  0  0  0  3  0  0  0  0  0  0
  190.8330  176.8560  144.1400 C   0  0  0  0  0  0  0  0  0  0  0  0
  187.4690  178.6540  147.4100 C   0  0  0  0  0  2  0  0  0  0  0  0
  189.0830  178.0440  142.6740 C   0  0  1  0  0  3  0  0  0  0  0  0
  191.0770  175.1040  148.1450 O   0  0  0  0  0  1  0  0  0  0  0  0
  188.1830  177.9550  141.4360 C   0  0  1  0  0  3  0  0  0  0  0  0
  187.7500  179.2270  141.0510 O   0  0  0  0  0  1  0  0  0  0  0  0
  188.8760  177.2650  140.2550 C   0  0  0  0  0  2  0  0  0  0  0  0
  189.9380  178.0680  138.2720 O   0  0  0  0  0  1  0  0  0  0  0  0
  188.7060  177.9970  138.9230 C   0  0  1  0  0  3  0  0  0  0  0  0
  187.6800  177.3030  138.0270 C   0  0  0  0  0  2  0  0  0  0  0  0
  185.8590  177.6000  136.5290 O   0  0  0  0  0  1  0  0  0  0  0  0
  186.6380  178.2690  137.4680 C   0  0  0  0  0  0  0  0  0  0  0  0
  187.2700  179.3510  136.8510 O   0  0  0  0  0  1  0  0  0  0  0  0
  185.8130  178.7330  138.4950 O   0  0  0  0  0  1  0  0  0  0  0  0
  186.0020  177.6040  144.6630 C   0  0  0  0  0  2  0  0  0  0  0  0
  182.7180  179.4450  143.9060 C   0  0  0  0  0  2  0  0  0  0  0  0
  182.4570  178.7360  142.7170 O   0  0  0  0  0  0  0  0  0  0  0  0
  185.0360  178.5380  143.9460 C   0  0  0  0  0  3  0  0  0  0  0  0
  184.7400  178.0050  142.5450 C   0  0  0  0  0  2  0  0  0  0  0  0
  183.7420  178.6840  144.7490 C   0  0  0  0  0  2  0  0  0  0  0  0
  183.6170  178.8360  141.9240 C   0  0  0  0  0  2  0  0  0  0  0  0
  1  6  1  0  0  0  0
  1  4  1  0  0  0  0
  2  5  1  0  0  0  0
  2 14  1  0  0  0  0
  3  2  1  0  0  0  0
  3  8  1  0  0  0  0
  4  3  1  0  0  0  0
  5 14  1  0  0  0  0
  5 10  1  0  0  0  0
  6  2  1  0  0  0  0
  7 15  1  0  0  0  0
  7 13  1  0  0  0  0
  8 10  1  0  0  0  0
  9  8  1  0  0  0  0
  9 16  1  0  0  0  0
 11  9  1  0  0  0  0
 12 11  1  0  0  0  0
 13 12  2  0  0  0  0
 13  4  1  0  0  0  0
 15  1  1  0  0  0  0
 17 15  1  0  0  0  0
 18 17  1  0  0  0  0
 19 17  1  0  0  0  0
 20 21  1  0  0  0  0
 21 19  1  0  0  0  0
 22 21  1  0  0  0  0
 23 24  1  0  0  0  0
 24 22  1  0  0  0  0
 24 26  1  0  0  0  0
 25 24  1  0  0  0  0
 27  6  1  0  0  0  0
 28 32  1  0  0  0  0
 29 28  1  0  0  0  0
 30 27  1  0  0  0  0
 30 32  1  0  0  0  0
 31 30  1  0  0  0  0
 33 31  1  0  0  0  0
 33 29  1  0  0  0  0
M  END
>  <MODEL>
4

>  <REMARK>
 VINA RESULT:      -8.5      2.425      5.288
  Name = 
  7 active torsions:
  status: ('A' for Active; 'I' for Inactive)
    1  A    between atoms: C_3  and  C_15
    2  A    between atoms: C_6  and  C_31
    3  A    between atoms: C_6  and  C_32
    4  A    between atoms: C_10  and  C_15
    5  A    between atoms: C_10  and  C_31
    6  A    between atoms: C_11  and  C_12
    7  A    between atoms: C_11  and  C_18
                            x       y       z     vdW  Elec       q    Type
                         _______ _______ _______ _____ _____    ______ ____

>  <TORSDO>
F 7

$$$$
=
 OpenBabel10232411143D

 33 38  0  0  1  0  0  0  0  0999 V2000
  186.0330  178.6580  142.3950 C   0  0  1  0  0  3  0  0  0  0  0  0
  187.5690  177.0970  143.3730 C   0  0  2  0  0  0  0  0  0  0  0  0
  186.5430  177.3980  144.3280 C   0  0  2  0  0  3  0  0  0  0  0  0
  185.7630  178.3230  143.7970 C   0  0  2  0  0  3  0  0  0  0  0  0
  188.7950  177.6110  144.1120 C   0  0  1  0  0  3  0  0  0  0  0  0
  187.1940  177.7190  142.0190 C   0  0  2  0  0  3  0  0  0  0  0  0
  183.4110  179.1540  142.8970 S   0  0  0  0  0  0  0  0  0  0  0  0
  187.1060  177.5050  145.6850 C   0  0  2  0  0  3  0  0  0  0  0  0
  186.4770  178.6260  146.5300 C   0  0  1  0  0  3  0  0  0  0  0  0
  188.5000  177.6910  145.5090 O   0  0  0  0  0  0  0  0  0  0  0  0
  184.9800  178.3550  146.7230 C   0  0  0  0  0  2  0  0  0  0  0  0
  184.1100  178.7860  145.5630 C   0  0  0  0  0  3  0  0  0  0  0  0
  184.4730  178.7330  144.2760 C   0  0  0  0  0  0  0  0  0  0  0  0
  188.7410  176.1660  143.6230 C   0  0  0  0  0  2  0  0  0  0  0  0
  184.6750  178.4610  141.7240 C   0  0  1  0  0  3  0  0  0  0  0  0
  187.0990  178.6580  147.7770 O   0  0  0  0  0  1  0  0  0  0  0  0
  184.6060  179.1510  140.3570 C   0  0  1  0  0  3  0  0  0  0  0  0
  185.4550  178.5190  139.4440 O   0  0  0  0  0  1  0  0  0  0  0  0
  183.1800  179.1950  139.7940 C   0  0  0  0  0  2  0  0  0  0  0  0
  181.5260  177.5360  140.2550 O   0  0  0  0  0  1  0  0  0  0  0  0
  182.6150  177.8210  139.4320 C   0  0  1  0  0  3  0  0  0  0  0  0
  182.1920  177.7550  137.9640 C   0  0  0  0  0  2  0  0  0  0  0  0
  183.6820  177.2540  136.1820 O   0  0  0  0  0  1  0  0  0  0  0  0
  182.9240  176.6630  137.1880 C   0  0  0  0  0  0  0  0  0  0  0  0
  182.0020  175.7870  136.6100 O   0  0  0  0  0  1  0  0  0  0  0  0
  183.7730  175.9540  138.0400 O   0  0  0  0  0  1  0  0  0  0  0  0
  188.3390  178.4090  141.2550 C   0  0  0  0  0  2  0  0  0  0  0  0
  190.7570  176.3420  139.1040 C   0  0  0  0  0  2  0  0  0  0  0  0
  190.9600  177.3570  138.1480 O   0  0  0  0  0  0  0  0  0  0  0  0
  188.8420  177.6150  140.0570 C   0  0  0  0  0  3  0  0  0  0  0  0
  188.9860  178.5370  138.8460 C   0  0  0  0  0  2  0  0  0  0  0  0
  190.1770  176.9450  140.3840 C   0  0  0  0  0  2  0  0  0  0  0  0
  189.6840  177.7710  137.7210 C   0  0  0  0  0  2  0  0  0  0  0  0
  1  4  1  0  0  0  0
  2 14  1  0  0  0  0
  2  5  1  0  0  0  0
  2  3  1  0  0  0  0
  3  8  1  0  0  0  0
  4 13  1  0  0  0  0
  4  3  1  0  0  0  0
  5 10  1  0  0  0  0
  6  1  1  0  0  0  0
  6  2  1  0  0  0  0
  7 13  1  0  0  0  0
  8  9  1  0  0  0  0
  9 11  1  0  0  0  0
  9 16  1  0  0  0  0
 10  8  1  0  0  0  0
 12 11  1  0  0  0  0
 13 12  2  0  0  0  0
 14  5  1  0  0  0  0
 15  1  1  0  0  0  0
 15  7  1  0  0  0  0
 17 15  1  0  0  0  0
 18 17  1  0  0  0  0
 19 17  1  0  0  0  0
 21 19  1  0  0  0  0
 21 20  1  0  0  0  0
 22 21  1  0  0  0  0
 23 24  1  0  0  0  0
 24 22  1  0  0  0  0
 24 26  1  0  0  0  0
 25 24  1  0  0  0  0
 27  6  1  0  0  0  0
 28 32  1  0  0  0  0
 29 28  1  0  0  0  0
 30 32  1  0  0  0  0
 30 27  1  0  0  0  0
 31 30  1  0  0  0  0
 33 29  1  0  0  0  0
 33 31  1  0  0  0  0
M  END
>  <MODEL>
5

>  <REMARK>
 VINA RESULT:      -8.3      1.572      2.152
  Name = 
  7 active torsions:
  status: ('A' for Active; 'I' for Inactive)
    1  A    between atoms: C_3  and  C_15
    2  A    between atoms: C_6  and  C_31
    3  A    between atoms: C_6  and  C_32
    4  A    between atoms: C_10  and  C_15
    5  A    between atoms: C_10  and  C_31
    6  A    between atoms: C_11  and  C_12
    7  A    between atoms: C_11  and  C_18
                            x       y       z     vdW  Elec       q    Type
                         _______ _______ _______ _____ _____    ______ ____

>  <TORSDO>
F 7

$$$$
=
 OpenBabel10232411143D

 33 38  0  0  1  0  0  0  0  0999 V2000
  188.7000  178.1330  142.6920 C   0  0  1  0  0  3  0  0  0  0  0  0
  187.8010  177.3530  144.7740 C   0  0  2  0  0  0  0  0  0  0  0  0
  186.7180  177.6390  143.8800 C   0  0  2  0  0  3  0  0  0  0  0  0
  187.2360  178.1480  142.7760 C   0  0  2  0  0  3  0  0  0  0  0  0
  187.5100  178.3470  145.8880 C   0  0  1  0  0  3  0  0  0  0  0  0
  189.1280  177.4540  144.0060 C   0  0  2  0  0  3  0  0  0  0  0  0
  187.7040  178.0670  140.1670 S   0  0  0  0  0  0  0  0  0  0  0  0
  185.5940  178.2610  144.6010 C   0  0  2  0  0  3  0  0  0  0  0  0
  184.8910  179.3760  143.8070 C   0  0  1  0  0  3  0  0  0  0  0  0
  186.1370  178.7380  145.8200 O   0  0  0  0  0  0  0  0  0  0  0  0
  184.2890  178.7980  142.5200 C   0  0  0  0  0  2  0  0  0  0  0  0
  185.2710  178.6510  141.3790 C   0  0  0  0  0  3  0  0  0  0  0  0
  186.5640  178.3330  141.5210 C   0  0  0  0  0  0  0  0  0  0  0  0
  187.6420  176.8590  146.2010 C   0  0  0  0  0  2  0  0  0  0  0  0
  188.9650  177.4180  141.3690 C   0  0  1  0  0  3  0  0  0  0  0  0
  183.8690  179.9120  144.5880 O   0  0  0  0  0  1  0  0  0  0  0  0
  190.3920  177.6560  140.8650 C   0  0  1  0  0  3  0  0  0  0  0  0
  191.2750  176.7300  141.4280 O   0  0  0  0  0  1  0  0  0  0  0  0
  190.4900  177.5990  139.3340 C   0  0  0  0  0  2  0  0  0  0  0  0
  190.0530  175.4160  138.4740 O   0  0  0  0  0  1  0  0  0  0  0  0
  191.0850  176.2950  138.8010 C   0  0  1  0  0  3  0  0  0  0  0  0
  191.9700  176.5390  137.5780 C   0  0  0  0  0  2  0  0  0  0  0  0
  193.8510  176.5900  139.0300 O   0  0  0  0  0  1  0  0  0  0  0  0
  193.4160  176.1020  137.8010 C   0  0  0  0  0  0  0  0  0  0  0  0
  194.2320  176.6150  136.7910 O   0  0  0  0  0  1  0  0  0  0  0  0
  193.5010  174.7080  137.8100 O   0  0  0  0  0  1  0  0  0  0  0  0
  190.2770  178.1690  144.7390 C   0  0  0  0  0  2  0  0  0  0  0  0
  192.3570  174.9500  144.9810 C   0  0  0  0  0  2  0  0  0  0  0  0
  191.9730  174.6620  146.3060 O   0  0  0  0  0  0  0  0  0  0  0  0
  191.3910  177.2350  145.1920 C   0  0  0  0  0  3  0  0  0  0  0  0
  191.2310  176.9170  146.6790 C   0  0  0  0  0  2  0  0  0  0  0  0
  191.3770  175.9490  144.3640 C   0  0  0  0  0  2  0  0  0  0  0  0
  192.2280  175.8220  147.0610 C   0  0  0  0  0  2  0  0  0  0  0  0
  1  4  1  0  0  0  0
  1  6  1  0  0  0  0
  2  5  1  0  0  0  0
  2 14  1  0  0  0  0
  3  8  1  0  0  0  0
  3  2  1  0  0  0  0
  4  3  1  0  0  0  0
  5 14  1  0  0  0  0
  6 27  1  0  0  0  0
  6  2  1  0  0  0  0
  7 15  1  0  0  0  0
  7 13  1  0  0  0  0
  8 10  1  0  0  0  0
  9 16  1  0  0  0  0
  9  8  1  0  0  0  0
 10  5  1  0  0  0  0
 11  9  1  0  0  0  0
 12 13  2  0  0  0  0
 12 11  1  0  0  0  0
 13  4  1  0  0  0  0
 15  1  1  0  0  0  0
 17 15  1  0  0  0  0
 17 18  1  0  0  0  0
 19 17  1  0  0  0  0
 20 21  1  0  0  0  0
 21 19  1  0  0  0  0
 22 24  1  0  0  0  0
 22 21  1  0  0  0  0
 24 26  1  0  0  0  0
 24 23  1  0  0  0  0
 25 24  1  0  0  0  0
 27 30  1  0  0  0  0
 28 29  1  0  0  0  0
 29 33  1  0  0  0  0
 30 31  1  0  0  0  0
 31 33  1  0  0  0  0
 32 28  1  0  0  0  0
 32 30  1  0  0  0  0
M  END
>  <MODEL>
6

>  <REMARK>
 VINA RESULT:      -8.3      3.135      7.001
  Name = 
  7 active torsions:
  status: ('A' for Active; 'I' for Inactive)
    1  A    between atoms: C_3  and  C_15
    2  A    between atoms: C_6  and  C_31
    3  A    between atoms: C_6  and  C_32
    4  A    between atoms: C_10  and  C_15
    5  A    between atoms: C_10  and  C_31
    6  A    between atoms: C_11  and  C_12
    7  A    between atoms: C_11  and  C_18
                            x       y       z     vdW  Elec       q    Type
                         _______ _______ _______ _____ _____    ______ ____

>  <TORSDO>
F 7

$$$$
=
 OpenBabel10232411143D

 33 38  0  0  1  0  0  0  0  0999 V2000
  188.2430  177.4990  143.1250 C   0  0  1  0  0  3  0  0  0  0  0  0
  187.4920  178.3370  145.2430 C   0  0  2  0  0  0  0  0  0  0  0  0
  188.8900  178.0350  145.3340 C   0  0  2  0  0  3  0  0  0  0  0  0
  189.2570  177.4950  144.1850 C   0  0  2  0  0  3  0  0  0  0  0  0
  186.9330  177.3730  146.2790 C   0  0  1  0  0  3  0  0  0  0  0  0
  187.0430  178.2090  143.7800 C   0  0  2  0  0  3  0  0  0  0  0  0
  190.6930  177.5080  141.9550 S   0  0  0  0  0  0  0  0  0  0  0  0
  189.2140  177.4380  146.6410 C   0  0  2  0  0  3  0  0  0  0  0  0
  190.2540  176.3080  146.5640 C   0  0  1  0  0  3  0  0  0  0  0  0
  187.9790  176.9890  147.1730 O   0  0  0  0  0  0  0  0  0  0  0  0
  191.5790  176.8570  146.0210 C   0  0  0  0  0  2  0  0  0  0  0  0
  191.6400  176.9690  144.5130 C   0  0  0  0  0  3  0  0  0  0  0  0
  190.6020  177.2820  143.7290 C   0  0  0  0  0  0  0  0  0  0  0  0
  186.6430  178.8670  146.3840 C   0  0  0  0  0  2  0  0  0  0  0  0
  188.9590  178.1790  141.9610 C   0  0  1  0  0  3  0  0  0  0  0  0
  190.4630  175.7970  147.8450 O   0  0  0  0  0  1  0  0  0  0  0  0
  188.2560  177.9200  140.6240 C   0  0  1  0  0  3  0  0  0  0  0  0
  187.1740  178.7900  140.4610 O   0  0  0  0  0  1  0  0  0  0  0  0
  189.2070  178.0450  139.4270 C   0  0  0  0  0  2  0  0  0  0  0  0
  188.9880  179.6380  137.6610 O   0  0  0  0  0  1  0  0  0  0  0  0
  188.5070  178.4100  138.1170 C   0  0  1  0  0  3  0  0  0  0  0  0
  188.7190  177.3370  137.0490 C   0  0  0  0  0  2  0  0  0  0  0  0
  187.3570  175.4110  137.3380 O   0  0  0  0  0  1  0  0  0  0  0  0
  187.4240  176.6260  136.6640 C   0  0  0  0  0  0  0  0  0  0  0  0
  187.4000  176.3870  135.2880 O   0  0  0  0  0  1  0  0  0  0  0  0
  186.3220  177.4060  137.0220 O   0  0  0  0  0  1  0  0  0  0  0  0
  185.6930  177.5050  143.5490 C   0  0  0  0  0  2  0  0  0  0  0  0
  182.2810  179.2560  143.7490 C   0  0  0  0  0  2  0  0  0  0  0  0
  181.7660  178.6440  142.5890 O   0  0  0  0  0  0  0  0  0  0  0  0
  184.5650  178.4540  143.1670 C   0  0  0  0  0  3  0  0  0  0  0  0
  183.9630  178.0340  141.8260 C   0  0  0  0  0  2  0  0  0  0  0  0
  183.4920  178.4700  144.2560 C   0  0  0  0  0  2  0  0  0  0  0  0
  182.7070  178.8650  141.5650 C   0  0  0  0  0  2  0  0  0  0  0  0
  1  6  1  0  0  0  0
  1  4  1  0  0  0  0
  2  3  1  0  0  0  0
  2  5  1  0  0  0  0
  2 14  1  0  0  0  0
  3  8  1  0  0  0  0
  4  3  1  0  0  0  0
  5 14  1  0  0  0  0
  5 10  1  0  0  0  0
  6  2  1  0  0  0  0
  7 15  1  0  0  0  0
  7 13  1  0  0  0  0
  8 10  1  0  0  0  0
  9  8  1  0  0  0  0
  9 16  1  0  0  0  0
 11  9  1  0  0  0  0
 12 11  1  0  0  0  0
 13  4  1  0  0  0  0
 13 12  2  0  0  0  0
 15  1  1  0  0  0  0
 17 15  1  0  0  0  0
 18 17  1  0  0  0  0
 19 17  1  0  0  0  0
 20 21  1  0  0  0  0
 21 19  1  0  0  0  0
 22 21  1  0  0  0  0
 24 26  1  0  0  0  0
 24 22  1  0  0  0  0
 24 23  1  0  0  0  0
 25 24  1  0  0  0  0
 27  6  1  0  0  0  0
 28 32  1  0  0  0  0
 29 28  1  0  0  0  0
 30 27  1  0  0  0  0
 30 32  1  0  0  0  0
 31 30  1  0  0  0  0
 33 31  1  0  0  0  0
 33 29  1  0  0  0  0
M  END
>  <MODEL>
7

>  <REMARK>
 VINA RESULT:      -8.1      2.455      5.453
  Name = 
  7 active torsions:
  status: ('A' for Active; 'I' for Inactive)
    1  A    between atoms: C_3  and  C_15
    2  A    between atoms: C_6  and  C_31
    3  A    between atoms: C_6  and  C_32
    4  A    between atoms: C_10  and  C_15
    5  A    between atoms: C_10  and  C_31
    6  A    between atoms: C_11  and  C_12
    7  A    between atoms: C_11  and  C_18
                            x       y       z     vdW  Elec       q    Type
                         _______ _______ _______ _____ _____    ______ ____

>  <TORSDO>
F 7

$$$$
=
 OpenBabel10232411143D

 33 38  0  0  1  0  0  0  0  0999 V2000
  187.7940  177.6460  142.9740 C   0  0  1  0  0  3  0  0  0  0  0  0
  186.9520  178.5290  145.0390 C   0  0  2  0  0  0  0  0  0  0  0  0
  188.3460  178.2340  145.1960 C   0  0  2  0  0  3  0  0  0  0  0  0
  188.7620  177.6690  144.0760 C   0  0  2  0  0  3  0  0  0  0  0  0
  186.3520  177.5870  146.0710 C   0  0  1  0  0  3  0  0  0  0  0  0
  186.5660  178.3660  143.5610 C   0  0  2  0  0  3  0  0  0  0  0  0
  190.2920  177.6340  141.9100 S   0  0  0  0  0  0  0  0  0  0  0  0
  188.6140  177.6680  146.5290 C   0  0  2  0  0  3  0  0  0  0  0  0
  189.6600  176.5390  146.5220 C   0  0  1  0  0  3  0  0  0  0  0  0
  187.3590  177.2270  147.0180 O   0  0  0  0  0  0  0  0  0  0  0  0
  191.0060  177.0790  146.0230 C   0  0  0  0  0  2  0  0  0  0  0  0
  191.1300  177.1570  144.5180 C   0  0  0  0  0  3  0  0  0  0  0  0
  190.1260  177.4490  143.6830 C   0  0  0  0  0  0  0  0  0  0  0  0
  186.0540  179.0830  146.1300 C   0  0  0  0  0  2  0  0  0  0  0  0
  188.5590  178.3010  141.8270 C   0  0  1  0  0  3  0  0  0  0  0  0
  189.8150  176.0580  147.8220 O   0  0  0  0  0  1  0  0  0  0  0  0
  187.9130  178.0090  140.4670 C   0  0  1  0  0  3  0  0  0  0  0  0
  186.7650  178.7860  140.2910 O   0  0  0  0  0  1  0  0  0  0  0  0
  188.8790  178.2400  139.2980 C   0  0  0  0  0  2  0  0  0  0  0  0
  187.8280  176.9220  137.6080 O   0  0  0  0  0  1  0  0  0  0  0  0
  189.0020  177.0450  138.3510 C   0  0  1  0  0  3  0  0  0  0  0  0
  190.2010  177.1910  137.4140 C   0  0  0  0  0  2  0  0  0  0  0  0
  192.1850  176.0940  136.6980 O   0  0  0  0  0  1  0  0  0  0  0  0
  191.3690  176.2890  137.8080 C   0  0  0  0  0  0  0  0  0  0  0  0
  190.8910  175.0520  138.2470 O   0  0  0  0  0  1  0  0  0  0  0  0
  192.1180  176.8880  138.8240 O   0  0  0  0  0  1  0  0  0  0  0  0
  185.2290  177.6540  143.2880 C   0  0  0  0  0  2  0  0  0  0  0  0
  181.8750  179.5230  143.2330 C   0  0  0  0  0  2  0  0  0  0  0  0
  181.3450  178.7820  142.1580 O   0  0  0  0  0  0  0  0  0  0  0  0
  184.1340  178.5800  142.7780 C   0  0  0  0  0  3  0  0  0  0  0  0
  183.5230  178.0090  141.4990 C   0  0  0  0  0  2  0  0  0  0  0  0
  183.0570  178.7710  143.8480 C   0  0  0  0  0  2  0  0  0  0  0  0
  182.2960  178.8390  141.1210 C   0  0  0  0  0  2  0  0  0  0  0  0
  1  6  1  0  0  0  0
  1  4  1  0  0  0  0
  2  3  1  0  0  0  0
  2  5  1  0  0  0  0
  2 14  1  0  0  0  0
  3  8  1  0  0  0  0
  4  3  1  0  0  0  0
  5 14  1  0  0  0  0
  5 10  1  0  0  0  0
  6  2  1  0  0  0  0
  7 13  1  0  0  0  0
  8 10  1  0  0  0  0
  9  8  1  0  0  0  0
  9 16  1  0  0  0  0
 11  9  1  0  0  0  0
 12 11  1  0  0  0  0
 13  4  1  0  0  0  0
 13 12  2  0  0  0  0
 15  7  1  0  0  0  0
 15  1  1  0  0  0  0
 17 15  1  0  0  0  0
 18 17  1  0  0  0  0
 19 17  1  0  0  0  0
 20 21  1  0  0  0  0
 21 19  1  0  0  0  0
 22 24  1  0  0  0  0
 22 21  1  0  0  0  0
 23 24  1  0  0  0  0
 24 25  1  0  0  0  0
 24 26  1  0  0  0  0
 27  6  1  0  0  0  0
 28 32  1  0  0  0  0
 29 28  1  0  0  0  0
 30 27  1  0  0  0  0
 30 32  1  0  0  0  0
 31 30  1  0  0  0  0
 33 31  1  0  0  0  0
 33 29  1  0  0  0  0
M  END
>  <MODEL>
8

>  <REMARK>
 VINA RESULT:      -8.0      2.337      6.155
  Name = 
  7 active torsions:
  status: ('A' for Active; 'I' for Inactive)
    1  A    between atoms: C_3  and  C_15
    2  A    between atoms: C_6  and  C_31
    3  A    between atoms: C_6  and  C_32
    4  A    between atoms: C_10  and  C_15
    5  A    between atoms: C_10  and  C_31
    6  A    between atoms: C_11  and  C_12
    7  A    between atoms: C_11  and  C_18
                            x       y       z     vdW  Elec       q    Type
                         _______ _______ _______ _____ _____    ______ ____

>  <TORSDO>
F 7

$$$$
=
 OpenBabel10232411143D

 33 38  0  0  1  0  0  0  0  0999 V2000
  187.0490  177.9000  141.6730 C   0  0  1  0  0  3  0  0  0  0  0  0
  189.3230  178.0320  142.4260 C   0  0  2  0  0  0  0  0  0  0  0  0
  189.3060  178.0760  140.9940 C   0  0  2  0  0  3  0  0  0  0  0  0
  188.0530  177.9140  140.6040 C   0  0  2  0  0  3  0  0  0  0  0  0
  190.1150  176.7550  142.6550 C   0  0  1  0  0  3  0  0  0  0  0  0
  187.8810  178.1240  142.9500 C   0  0  2  0  0  3  0  0  0  0  0  0
  185.8550  178.7780  139.3980 S   0  0  0  0  0  0  0  0  0  0  0  0
  190.4280  177.3040  140.4330 C   0  0  2  0  0  3  0  0  0  0  0  0
  190.0620  176.5150  139.1640 C   0  0  1  0  0  3  0  0  0  0  0  0
  190.8690  176.4550  141.4790 O   0  0  0  0  0  0  0  0  0  0  0  0
  189.6310  177.4830  138.0550 C   0  0  0  0  0  2  0  0  0  0  0  0
  188.1910  177.9380  138.1460 C   0  0  0  0  0  3  0  0  0  0  0  0
  187.5280  178.1490  139.2890 C   0  0  0  0  0  0  0  0  0  0  0  0
  190.5760  178.0680  143.2810 C   0  0  0  0  0  2  0  0  0  0  0  0
  186.0610  178.9780  141.2350 C   0  0  1  0  0  3  0  0  0  0  0  0
  191.1810  175.8010  138.7370 O   0  0  0  0  0  1  0  0  0  0  0  0
  184.7180  178.8540  141.9640 C   0  0  1  0  0  3  0  0  0  0  0  0
  184.1230  177.6190  141.6920 O   0  0  0  0  0  1  0  0  0  0  0  0
  184.8550  179.0410  143.4810 C   0  0  0  0  0  2  0  0  0  0  0  0
  183.7550  179.1630  145.5960 O   0  0  0  0  0  1  0  0  0  0  0  0
  183.5330  178.9240  144.2400 C   0  0  1  0  0  3  0  0  0  0  0  0
  182.4860  179.9000  143.7010 C   0  0  0  0  0  2  0  0  0  0  0  0
  180.1610  180.1760  143.2930 O   0  0  0  0  0  1  0  0  0  0  0  0
  181.1670  179.2160  143.3520 C   0  0  0  0  0  0  0  0  0  0  0  0
  180.8430  178.2740  144.3300 O   0  0  0  0  0  1  0  0  0  0  0  0
  181.2670  178.5860  142.1090 O   0  0  0  0  0  1  0  0  0  0  0  0
  187.5230  177.1760  144.1090 C   0  0  0  0  0  2  0  0  0  0  0  0
  189.2360  177.3430  147.5410 C   0  0  0  0  0  2  0  0  0  0  0  0
  188.0560  177.1040  148.2740 O   0  0  0  0  0  0  0  0  0  0  0  0
  187.8900  177.7220  145.4820 C   0  0  0  0  0  3  0  0  0  0  0  0
  186.6680  177.6860  146.3990 C   0  0  0  0  0  2  0  0  0  0  0  0
  189.0390  176.9130  146.0860 C   0  0  0  0  0  2  0  0  0  0  0  0
  187.1050  178.0390  147.8220 C   0  0  0  0  0  2  0  0  0  0  0  0
  1  6  1  0  0  0  0
  2  5  1  0  0  0  0
  2  6  1  0  0  0  0
  2 14  1  0  0  0  0
  3  2  1  0  0  0  0
  4  3  1  0  0  0  0
  4  1  1  0  0  0  0
  5 14  1  0  0  0  0
  6 27  1  0  0  0  0
  7 15  1  0  0  0  0
  8  3  1  0  0  0  0
  8 10  1  0  0  0  0
  9  8  1  0  0  0  0
 10  5  1  0  0  0  0
 11 12  1  0  0  0  0
 11  9  1  0  0  0  0
 12 13  2  0  0  0  0
 13  7  1  0  0  0  0
 13  4  1  0  0  0  0
 15  1  1  0  0  0  0
 15 17  1  0  0  0  0
 16  9  1  0  0  0  0
 17 19  1  0  0  0  0
 18 17  1  0  0  0  0
 19 21  1  0  0  0  0
 21 20  1  0  0  0  0
 22 21  1  0  0  0  0
 23 24  1  0  0  0  0
 24 22  1  0  0  0  0
 24 25  1  0  0  0  0
 26 24  1  0  0  0  0
 27 30  1  0  0  0  0
 28 29  1  0  0  0  0
 30 32  1  0  0  0  0
 30 31  1  0  0  0  0
 31 33  1  0  0  0  0
 32 28  1  0  0  0  0
 33 29  1  0  0  0  0
M  END
>  <MODEL>
9

>  <REMARK>
 VINA RESULT:      -7.7      2.447      6.032
  Name = 
  7 active torsions:
  status: ('A' for Active; 'I' for Inactive)
    1  A    between atoms: C_3  and  C_15
    2  A    between atoms: C_6  and  C_31
    3  A    between atoms: C_6  and  C_32
    4  A    between atoms: C_10  and  C_15
    5  A    between atoms: C_10  and  C_31
    6  A    between atoms: C_11  and  C_12
    7  A    between atoms: C_11  and  C_18
                            x       y       z     vdW  Elec       q    Type
                         _______ _______ _______ _____ _____    ______ ____

>  <TORSDO>
F 7

$$$$
