=
 OpenBabel10232408493D

 25 28  0  0  1  0  0  0  0  0999 V2000
  185.6380  178.1200  144.2240 C   0  0  0  0  0  0  0  0  0  0  0  0
  185.6430  179.7750  147.4860 O   0  0  0  0  0  0  0  0  0  0  0  0
  185.7510  179.0990  146.4780 C   0  0  0  0  0  0  0  0  0  0  0  0
  184.4960  179.0910  145.2100 S   0  0  0  0  0  0  0  0  0  0  0  0
  186.9480  178.2580  146.2210 C   0  0  0  0  0  2  0  0  0  0  0  0
  186.7820  177.7730  144.8240 C   0  0  0  0  0  0  0  0  0  0  0  0
  187.8870  176.9730  144.1840 C   0  0  1  0  0  3  0  0  0  0  0  0
  191.4600  177.6210  144.7180 C   0  0  0  0  0  3  0  0  0  0  0  0
  189.3510  176.5950  146.2950 C   0  0  0  0  0  3  0  0  0  0  0  0
  190.1680  177.4920  144.2140 C   0  0  0  0  0  0  0  0  0  0  0  0
  188.3130  177.5610  142.8190 C   0  0  0  0  0  3  0  0  0  0  0  0
  189.1460  177.0010  144.9760 C   0  0  0  0  0  0  0  0  0  0  0  0
  191.6940  177.2270  146.0450 C   0  0  0  0  0  3  0  0  0  0  0  0
  189.7470  177.8390  142.9110 N   0  0  0  0  0  0  0  0  0  0  0  0
  190.6430  176.7140  146.8320 C   0  0  0  0  0  3  0  0  0  0  0  0
  185.3580  177.7690  142.8650 N   0  0  0  0  0  2  0  0  0  0  0  0
  184.9720  178.3550  138.1960 C   0  0  0  0  0  0  0  0  0  0  0  0
  186.3090  178.6620  137.8160 N   0  0  0  0  0  1  0  0  0  0  0  0
  183.2710  177.9980  140.0360 C   0  0  0  0  0  2  0  0  0  0  0  0
  184.5960  178.3530  139.5780 N   0  0  0  0  0  0  0  0  0  0  0  0
  182.3190  178.9410  142.0030 O   0  0  0  0  0  1  0  0  0  0  0  0
  184.6900  178.6540  141.9230 C   0  0  1  0  0  3  0  0  0  0  0  0
  185.5020  178.7210  140.6440 C   0  0  0  0  0  2  0  0  0  0  0  0
  183.3230  178.0850  141.5500 C   0  0  2  0  0  3  0  0  0  0  0  0
  184.1240  178.0750  137.3090 O   0  0  0  0  0  0  0  0  0  0  0  0
  1  6  2  0  0  0  0
  1  4  1  0  0  0  0
  3  2  2  0  0  0  0
  4  3  1  0  0  0  0
  5  3  1  0  0  0  0
  6  5  1  0  0  0  0
  7  6  1  1  0  0  0
  7 12  1  0  0  0  0
  8 13  1  0  0  0  0
  9 15  1  0  0  0  0
 10  8  2  0  0  0  0
 10 12  1  0  0  0  0
 11 14  2  0  0  0  0
 11  7  1  0  0  0  0
 12  9  2  0  0  0  0
 13 15  2  0  0  0  0
 14 10  1  0  0  0  0
 16  1  1  0  0  0  0
 17 20  1  0  0  0  0
 18 17  1  0  0  0  0
 19 24  1  0  0  0  0
 20 19  1  0  0  0  0
 20 23  1  0  0  0  0
 22 16  1  1  0  0  0
 23 22  1  0  0  0  0
 24 22  1  0  0  0  0
 24 21  1  6  0  0  0
 25 17  2  0  0  0  0
M  END
>  <MODEL>
1

>  <REMARK>
 VINA RESULT:      -8.3      0.000      0.000
  Name = 
  3 active torsions:
  status: ('A' for Active; 'I' for Inactive)
    1  A    between atoms: C_1  and  N_13
    2  A    between atoms: C_8  and  C_21
    3  A    between atoms: N_13  and  C_14
                            x       y       z     vdW  Elec       q    Type
                         _______ _______ _______ _____ _____    ______ ____

>  <TORSDO>
F 3

$$$$
=
 OpenBabel10232408493D

 25 28  0  0  1  0  0  0  0  0999 V2000
  187.1570  177.8660  142.3390 C   0  0  0  0  0  0  0  0  0  0  0  0
  184.4500  179.9410  143.6600 O   0  0  0  0  0  0  0  0  0  0  0  0
  185.3200  179.1400  143.3640 C   0  0  0  0  0  0  0  0  0  0  0  0
  185.8650  178.9210  141.6800 S   0  0  0  0  0  0  0  0  0  0  0  0
  186.0070  178.3130  144.3890 C   0  0  0  0  0  2  0  0  0  0  0  0
  187.1140  177.6410  143.6570 C   0  0  0  0  0  0  0  0  0  0  0  0
  188.1020  176.8000  144.4240 C   0  0  1  0  0  3  0  0  0  0  0  0
  189.9860  177.9980  147.3370 C   0  0  0  0  0  3  0  0  0  0  0  0
  187.2840  177.3520  146.8260 C   0  0  0  0  0  3  0  0  0  0  0  0
  189.5670  177.5550  146.0850 C   0  0  0  0  0  0  0  0  0  0  0  0
  189.5340  176.9200  143.8520 C   0  0  0  0  0  3  0  0  0  0  0  0
  188.2590  177.2460  145.8340 C   0  0  0  0  0  0  0  0  0  0  0  0
  189.0240  178.1210  148.3520 C   0  0  0  0  0  3  0  0  0  0  0  0
  190.3880  177.3750  144.9500 N   0  0  0  0  0  0  0  0  0  0  0  0
  187.6760  177.7970  148.0980 C   0  0  0  0  0  3  0  0  0  0  0  0
  188.1940  177.3270  141.5120 N   0  0  0  0  0  2  0  0  0  0  0  0
  191.6460  176.7520  138.3440 C   0  0  0  0  0  0  0  0  0  0  0  0
  192.8140  176.7730  139.1590 N   0  0  0  0  0  1  0  0  0  0  0  0
  189.1490  177.1020  138.1290 C   0  0  0  0  0  2  0  0  0  0  0  0
  190.3820  177.1510  138.8840 N   0  0  0  0  0  0  0  0  0  0  0  0
  187.3670  178.6320  138.5170 O   0  0  0  0  0  1  0  0  0  0  0  0
  188.7560  178.0240  140.3650 C   0  0  1  0  0  3  0  0  0  0  0  0
  190.2210  177.6560  140.2310 C   0  0  0  0  0  2  0  0  0  0  0  0
  188.0640  177.5640  139.0830 C   0  0  2  0  0  3  0  0  0  0  0  0
  191.7330  176.3700  137.1480 O   0  0  0  0  0  0  0  0  0  0  0  0
  1  6  2  0  0  0  0
  3  2  2  0  0  0  0
  3  5  1  0  0  0  0
  4  1  1  0  0  0  0
  4  3  1  0  0  0  0
  6  5  1  0  0  0  0
  7  6  1  6  0  0  0
  7 12  1  0  0  0  0
  8 13  1  0  0  0  0
  9 15  1  0  0  0  0
 10  8  2  0  0  0  0
 11  7  1  0  0  0  0
 11 14  2  0  0  0  0
 12 10  1  0  0  0  0
 12  9  2  0  0  0  0
 14 10  1  0  0  0  0
 15 13  2  0  0  0  0
 16  1  1  0  0  0  0
 17 20  1  0  0  0  0
 17 18  1  0  0  0  0
 19 20  1  0  0  0  0
 19 24  1  0  0  0  0
 20 23  1  0  0  0  0
 22 16  1  1  0  0  0
 23 22  1  0  0  0  0
 24 21  1  6  0  0  0
 24 22  1  0  0  0  0
 25 17  2  0  0  0  0
M  END
>  <MODEL>
2

>  <REMARK>
 VINA RESULT:      -8.2      3.150      4.262
  Name = 
  3 active torsions:
  status: ('A' for Active; 'I' for Inactive)
    1  A    between atoms: C_1  and  N_13
    2  A    between atoms: C_8  and  C_21
    3  A    between atoms: N_13  and  C_14
                            x       y       z     vdW  Elec       q    Type
                         _______ _______ _______ _____ _____    ______ ____

>  <TORSDO>
F 3

$$$$
=
 OpenBabel10232408493D

 25 28  0  0  1  0  0  0  0  0999 V2000
  189.8140  176.5150  139.0620 C   0  0  0  0  0  0  0  0  0  0  0  0
  186.9260  178.7460  138.8160 O   0  0  0  0  0  0  0  0  0  0  0  0
  187.8310  177.9700  139.0700 C   0  0  0  0  0  0  0  0  0  0  0  0
  188.6610  177.0410  137.7930 S   0  0  0  0  0  0  0  0  0  0  0  0
  188.3250  177.7660  140.4550 C   0  0  0  0  0  2  0  0  0  0  0  0
  189.5410  176.9220  140.3070 C   0  0  0  0  0  0  0  0  0  0  0  0
  190.3760  176.6110  141.5220 C   0  0  1  0  0  3  0  0  0  0  0  0
  189.9280  178.2290  144.7860 C   0  0  0  0  0  3  0  0  0  0  0  0
  188.4540  176.3700  143.2510 C   0  0  0  0  0  3  0  0  0  0  0  0
  190.3760  177.7920  143.5410 C   0  0  0  0  0  0  0  0  0  0  0  0
  191.6320  177.5100  141.6080 C   0  0  0  0  0  3  0  0  0  0  0  0
  189.6630  176.8970  142.7950 C   0  0  0  0  0  0  0  0  0  0  0  0
  188.7110  177.7200  145.2670 C   0  0  0  0  0  3  0  0  0  0  0  0
  191.5680  178.1950  142.9000 N   0  0  0  0  0  0  0  0  0  0  0  0
  187.9760  176.7920  144.5020 C   0  0  0  0  0  3  0  0  0  0  0  0
  190.9770  175.7390  138.7570 N   0  0  0  0  0  2  0  0  0  0  0  0
  195.3360  174.5200  137.4130 C   0  0  0  0  0  0  0  0  0  0  0  0
  196.1120  174.8490  138.5610 N   0  0  0  0  0  1  0  0  0  0  0  0
  193.1210  174.6260  136.1920 C   0  0  0  0  0  2  0  0  0  0  0  0
  193.9810  174.9700  137.3040 N   0  0  0  0  0  0  0  0  0  0  0  0
  191.3970  176.0800  135.4310 O   0  0  0  0  0  1  0  0  0  0  0  0
  191.9600  176.1170  137.7540 C   0  0  1  0  0  3  0  0  0  0  0  0
  193.3500  175.8250  138.2870 C   0  0  0  0  0  2  0  0  0  0  0  0
  191.7790  175.2660  136.4980 C   0  0  2  0  0  3  0  0  0  0  0  0
  195.8470  173.8200  136.5000 O   0  0  0  0  0  0  0  0  0  0  0  0
  1  6  2  0  0  0  0
  2  3  2  0  0  0  0
  3  5  1  0  0  0  0
  4  1  1  0  0  0  0
  4  3  1  0  0  0  0
  6  5  1  0  0  0  0
  7  6  1  6  0  0  0
  7 11  1  0  0  0  0
  7 12  1  0  0  0  0
  8 13  1  0  0  0  0
  9 15  1  0  0  0  0
 10  8  2  0  0  0  0
 11 14  2  0  0  0  0
 12  9  2  0  0  0  0
 12 10  1  0  0  0  0
 14 10  1  0  0  0  0
 15 13  2  0  0  0  0
 16  1  1  0  0  0  0
 17 18  1  0  0  0  0
 19 24  1  0  0  0  0
 19 20  1  0  0  0  0
 20 17  1  0  0  0  0
 20 23  1  0  0  0  0
 22 23  1  0  0  0  0
 22 16  1  1  0  0  0
 24 21  1  6  0  0  0
 24 22  1  0  0  0  0
 25 17  2  0  0  0  0
M  END
>  <MODEL>
3

>  <REMARK>
 VINA RESULT:      -8.0      5.720      7.635
  Name = 
  3 active torsions:
  status: ('A' for Active; 'I' for Inactive)
    1  A    between atoms: C_1  and  N_13
    2  A    between atoms: C_8  and  C_21
    3  A    between atoms: N_13  and  C_14
                            x       y       z     vdW  Elec       q    Type
                         _______ _______ _______ _____ _____    ______ ____

>  <TORSDO>
F 3

$$$$
=
 OpenBabel10232408493D

 25 28  0  0  1  0  0  0  0  0999 V2000
  189.7760  177.4790  142.4190 C   0  0  0  0  0  0  0  0  0  0  0  0
  192.2000  178.7530  144.8460 O   0  0  0  0  0  0  0  0  0  0  0  0
  191.2640  178.3900  144.1530 C   0  0  0  0  0  0  0  0  0  0  0  0
  191.4140  178.2090  142.3860 S   0  0  0  0  0  0  0  0  0  0  0  0
  189.9420  178.0460  144.7370 C   0  0  0  0  0  2  0  0  0  0  0  0
  189.1650  177.4660  143.6090 C   0  0  0  0  0  0  0  0  0  0  0  0
  187.7970  176.8930  143.8730 C   0  0  1  0  0  3  0  0  0  0  0  0
  184.8130  178.9300  144.5230 C   0  0  0  0  0  3  0  0  0  0  0  0
  186.4350  178.4130  142.2670 C   0  0  0  0  0  3  0  0  0  0  0  0
  185.9150  178.0800  144.5960 C   0  0  0  0  0  0  0  0  0  0  0  0
  187.5560  176.6360  145.3790 C   0  0  0  0  0  3  0  0  0  0  0  0
  186.7030  177.8330  143.5070 C   0  0  0  0  0  0  0  0  0  0  0  0
  184.5240  179.5330  143.2880 C   0  0  0  0  0  3  0  0  0  0  0  0
  186.3580  177.3920  145.7470 N   0  0  0  0  0  0  0  0  0  0  0  0
  185.3320  179.2750  142.1630 C   0  0  0  0  0  3  0  0  0  0  0  0
  189.1730  176.9120  141.2520 N   0  0  0  0  0  2  0  0  0  0  0  0
  190.1450  174.9070  137.0900 C   0  0  0  0  0  0  0  0  0  0  0  0
  191.3440  174.1920  137.3680 N   0  0  0  0  0  1  0  0  0  0  0  0
  188.4040  176.5890  137.8290 C   0  0  0  0  0  2  0  0  0  0  0  0
  189.6430  175.8680  138.0240 N   0  0  0  0  0  0  0  0  0  0  0  0
  188.0740  178.7880  138.6780 O   0  0  0  0  0  1  0  0  0  0  0  0
  189.5080  177.3130  139.8940 C   0  0  1  0  0  3  0  0  0  0  0  0
  190.3360  176.2210  139.2450 C   0  0  0  0  0  2  0  0  0  0  0  0
  188.2350  177.4570  139.0620 C   0  0  2  0  0  3  0  0  0  0  0  0
  189.5230  174.6790  136.0190 O   0  0  0  0  0  0  0  0  0  0  0  0
  1  6  2  0  0  0  0
  3  5  1  0  0  0  0
  3  2  2  0  0  0  0
  4  1  1  0  0  0  0
  4  3  1  0  0  0  0
  6  5  1  0  0  0  0
  7  6  1  1  0  0  0
  7 11  1  0  0  0  0
  8 10  1  0  0  0  0
  9 12  1  0  0  0  0
 10 14  1  0  0  0  0
 11 14  2  0  0  0  0
 12  7  1  0  0  0  0
 12 10  2  0  0  0  0
 13  8  2  0  0  0  0
 15  9  2  0  0  0  0
 15 13  1  0  0  0  0
 16  1  1  0  0  0  0
 17 18  1  0  0  0  0
 17 20  1  0  0  0  0
 19 20  1  0  0  0  0
 19 24  1  0  0  0  0
 20 23  1  0  0  0  0
 22 16  1  1  0  0  0
 23 22  1  0  0  0  0
 24 21  1  6  0  0  0
 24 22  1  0  0  0  0
 25 17  2  0  0  0  0
M  END
>  <MODEL>
4

>  <REMARK>
 VINA RESULT:      -7.9      3.785      5.592
  Name = 
  3 active torsions:
  status: ('A' for Active; 'I' for Inactive)
    1  A    between atoms: C_1  and  N_13
    2  A    between atoms: C_8  and  C_21
    3  A    between atoms: N_13  and  C_14
                            x       y       z     vdW  Elec       q    Type
                         _______ _______ _______ _____ _____    ______ ____

>  <TORSDO>
F 3

$$$$
=
 OpenBabel10232408493D

 25 28  0  0  1  0  0  0  0  0999 V2000
  186.3630  177.9630  143.8340 C   0  0  0  0  0  0  0  0  0  0  0  0
  185.2320  179.5410  146.9340 O   0  0  0  0  0  0  0  0  0  0  0  0
  185.6730  178.8800  146.0090 C   0  0  0  0  0  0  0  0  0  0  0  0
  184.9930  178.9920  144.3640 S   0  0  0  0  0  0  0  0  0  0  0  0
  186.8260  177.9600  146.1810 C   0  0  0  0  0  2  0  0  0  0  0  0
  187.1720  177.5190  144.8030 C   0  0  0  0  0  0  0  0  0  0  0  0
  188.3870  176.6550  144.5880 C   0  0  1  0  0  3  0  0  0  0  0  0
  191.2840  177.6580  142.5690 C   0  0  0  0  0  3  0  0  0  0  0  0
  190.2110  178.4420  145.0620 C   0  0  0  0  0  3  0  0  0  0  0  0
  190.1320  177.0690  143.0850 C   0  0  0  0  0  0  0  0  0  0  0  0
  188.2410  175.7470  143.3450 C   0  0  0  0  0  3  0  0  0  0  0  0
  189.6080  177.4500  144.2880 C   0  0  0  0  0  0  0  0  0  0  0  0
  191.9070  178.6650  143.3230 C   0  0  0  0  0  3  0  0  0  0  0  0
  189.3730  176.0500  142.4680 N   0  0  0  0  0  0  0  0  0  0  0  0
  191.3730  179.0550  144.5680 C   0  0  0  0  0  3  0  0  0  0  0  0
  186.5980  177.6630  142.4540 N   0  0  0  0  0  2  0  0  0  0  0  0
  188.3380  178.1460  138.0920 C   0  0  0  0  0  0  0  0  0  0  0  0
  189.7390  178.0030  138.3050 N   0  0  0  0  0  1  0  0  0  0  0  0
  186.0150  178.4140  139.0620 C   0  0  0  0  0  2  0  0  0  0  0  0
  187.4520  178.3180  139.2030 N   0  0  0  0  0  0  0  0  0  0  0  0
  184.6800  179.6890  140.5650 O   0  0  0  0  0  1  0  0  0  0  0  0
  186.6720  178.6720  141.4100 C   0  0  1  0  0  3  0  0  0  0  0  0
  187.9120  178.4290  140.5720 C   0  0  0  0  0  2  0  0  0  0  0  0
  185.4720  178.5440  140.4730 C   0  0  2  0  0  3  0  0  0  0  0  0
  187.8830  178.1080  136.9190 O   0  0  0  0  0  0  0  0  0  0  0  0
  1  4  1  0  0  0  0
  1  6  2  0  0  0  0
  3  5  1  0  0  0  0
  3  2  2  0  0  0  0
  4  3  1  0  0  0  0
  6  5  1  0  0  0  0
  7  6  1  6  0  0  0
  8 10  2  0  0  0  0
  8 13  1  0  0  0  0
 10 12  1  0  0  0  0
 11  7  1  0  0  0  0
 12  7  1  0  0  0  0
 12  9  2  0  0  0  0
 13 15  2  0  0  0  0
 14 10  1  0  0  0  0
 14 11  2  0  0  0  0
 15  9  1  0  0  0  0
 16  1  1  0  0  0  0
 17 18  1  0  0  0  0
 17 20  1  0  0  0  0
 19 20  1  0  0  0  0
 19 24  1  0  0  0  0
 20 23  1  0  0  0  0
 22 16  1  1  0  0  0
 23 22  1  0  0  0  0
 24 21  1  6  0  0  0
 24 22  1  0  0  0  0
 25 17  2  0  0  0  0
M  END
>  <MODEL>
5

>  <REMARK>
 VINA RESULT:      -7.9      1.822      2.234
  Name = 
  3 active torsions:
  status: ('A' for Active; 'I' for Inactive)
    1  A    between atoms: C_1  and  N_13
    2  A    between atoms: C_8  and  C_21
    3  A    between atoms: N_13  and  C_14
                            x       y       z     vdW  Elec       q    Type
                         _______ _______ _______ _____ _____    ______ ____

>  <TORSDO>
F 3

$$$$
=
 OpenBabel10232408493D

 25 28  0  0  1  0  0  0  0  0999 V2000
  188.8870  177.3820  140.7830 C   0  0  0  0  0  0  0  0  0  0  0  0
  185.9920  179.5970  141.0950 O   0  0  0  0  0  0  0  0  0  0  0  0
  186.8810  178.7630  141.1280 C   0  0  0  0  0  0  0  0  0  0  0  0
  187.8750  178.3880  139.6960 S   0  0  0  0  0  0  0  0  0  0  0  0
  187.2170  178.0230  142.3720 C   0  0  0  0  0  3  0  0  0  0  0  0
  188.4620  177.2760  142.0470 C   0  0  0  0  0  0  0  0  0  0  0  0
  189.1590  176.4970  143.1320 C   0  0  1  0  0  3  0  0  0  0  0  0
  189.7070  177.7600  146.5340 C   0  0  0  0  0  3  0  0  0  0  0  0
  187.4570  176.9130  145.0500 C   0  0  0  0  0  3  0  0  0  0  0  0
  189.8260  177.3200  145.2180 C   0  0  0  0  0  0  0  0  0  0  0  0
  190.6850  176.7470  143.1380 C   0  0  0  0  0  3  0  0  0  0  0  0
  188.7380  176.9140  144.4970 C   0  0  0  0  0  0  0  0  0  0  0  0
  188.4280  177.7760  147.1140 C   0  0  0  0  0  3  0  0  0  0  0  0
  191.0240  177.2390  144.4750 N   0  0  0  0  0  0  0  0  0  0  0  0
  187.3060  177.3530  146.3740 C   0  0  0  0  0  3  0  0  0  0  0  0
  190.0960  176.7610  140.3360 N   0  0  0  0  0  0  0  0  0  0  0  0
  193.5480  174.9360  137.6830 C   0  0  0  0  0  0  0  0  0  0  0  0
  194.7200  175.4130  138.3360 N   0  0  0  0  0  1  0  0  0  0  0  0
  191.0300  174.9930  137.4360 C   0  0  0  0  0  2  0  0  0  0  0  0
  192.2640  175.4700  138.0210 N   0  0  0  0  0  0  0  0  0  0  0  0
  189.1470  176.4140  137.1220 O   0  0  0  0  0  1  0  0  0  0  0  0
  190.5940  176.8510  138.9730 C   0  0  1  0  0  3  0  0  0  0  0  0
  192.0810  176.5500  138.9670 C   0  0  0  0  0  2  0  0  0  0  0  0
  189.9240  175.7920  138.0990 C   0  0  2  0  0  3  0  0  0  0  0  0
  193.6500  174.0310  136.8140 O   0  0  0  0  0  0  0  0  0  0  0  0
  1  6  1  0  0  0  0
  2  3  2  0  0  0  0
  3  5  1  0  0  0  0
  4  1  1  0  0  0  0
  4  3  1  0  0  0  0
  6  5  2  0  0  0  0
  7  6  1  6  0  0  0
  7 11  1  0  0  0  0
  7 12  1  0  0  0  0
  8 13  1  0  0  0  0
  9 15  1  0  0  0  0
 10  8  2  0  0  0  0
 11 14  2  0  0  0  0
 12  9  2  0  0  0  0
 12 10  1  0  0  0  0
 14 10  1  0  0  0  0
 15 13  2  0  0  0  0
 16  1  2  0  0  0  0
 17 20  1  0  0  0  0
 17 18  1  0  0  0  0
 19 20  1  0  0  0  0
 19 24  1  0  0  0  0
 20 23  1  0  0  0  0
 22 16  1  1  0  0  0
 23 22  1  0  0  0  0
 24 21  1  6  0  0  0
 24 22  1  0  0  0  0
 25 17  2  0  0  0  0
M  END
>  <MODEL>
6

>  <REMARK>
 VINA RESULT:      -7.8      4.448      5.993
  Name = 
  3 active torsions:
  status: ('A' for Active; 'I' for Inactive)
    1  A    between atoms: C_1  and  N_13
    2  A    between atoms: C_8  and  C_21
    3  A    between atoms: N_13  and  C_14
                            x       y       z     vdW  Elec       q    Type
                         _______ _______ _______ _____ _____    ______ ____

>  <TORSDO>
F 3

$$$$
=
 OpenBabel10232408493D

 25 28  0  0  1  0  0  0  0  0999 V2000
  187.1000  178.3670  142.5840 C   0  0  0  0  0  0  0  0  0  0  0  0
  183.8240  179.4410  143.8070 O   0  0  0  0  0  0  0  0  0  0  0  0
  184.8910  178.9350  143.5040 C   0  0  0  0  0  0  0  0  0  0  0  0
  185.6960  179.2890  141.9530 S   0  0  0  0  0  0  0  0  0  0  0  0
  185.6090  178.0110  144.4200 C   0  0  0  0  0  2  0  0  0  0  0  0
  186.9330  177.7900  143.7790 C   0  0  0  0  0  0  0  0  0  0  0  0
  187.9780  176.9820  144.5040 C   0  0  1  0  0  3  0  0  0  0  0  0
  189.8210  178.1800  147.4430 C   0  0  0  0  0  3  0  0  0  0  0  0
  187.1560  177.3920  146.9330 C   0  0  0  0  0  3  0  0  0  0  0  0
  189.4140  177.7590  146.1790 C   0  0  0  0  0  0  0  0  0  0  0  0
  189.3930  177.2090  143.9230 C   0  0  0  0  0  3  0  0  0  0  0  0
  188.1250  177.3820  145.9290 C   0  0  0  0  0  0  0  0  0  0  0  0
  188.8650  178.2060  148.4710 C   0  0  0  0  0  3  0  0  0  0  0  0
  190.2310  177.6730  145.0300 N   0  0  0  0  0  0  0  0  0  0  0  0
  187.5360  177.8120  148.2170 C   0  0  0  0  0  3  0  0  0  0  0  0
  188.3370  178.2840  141.8690 N   0  0  0  0  0  2  0  0  0  0  0  0
  188.5470  178.6340  137.1660 C   0  0  0  0  0  0  0  0  0  0  0  0
  187.2320  179.0660  136.8330 N   0  0  0  0  0  1  0  0  0  0  0  0
  190.1650  177.7560  138.9040 C   0  0  0  0  0  2  0  0  0  0  0  0
  188.8400  178.1590  138.4840 N   0  0  0  0  0  0  0  0  0  0  0  0
  190.5120  176.0730  140.5510 O   0  0  0  0  0  1  0  0  0  0  0  0
  188.5470  177.4240  140.7150 C   0  0  1  0  0  3  0  0  0  0  0  0
  187.8350  178.0210  139.5160 C   0  0  0  0  0  2  0  0  0  0  0  0
  190.0330  177.3700  140.3650 C   0  0  2  0  0  3  0  0  0  0  0  0
  189.4540  178.6830  136.2940 O   0  0  0  0  0  0  0  0  0  0  0  0
  1  6  2  0  0  0  0
  3  2  2  0  0  0  0
  3  5  1  0  0  0  0
  4  1  1  0  0  0  0
  4  3  1  0  0  0  0
  6  5  1  0  0  0  0
  7  6  1  6  0  0  0
  7 12  1  0  0  0  0
  8 13  1  0  0  0  0
  9 15  1  0  0  0  0
 10  8  2  0  0  0  0
 11  7  1  0  0  0  0
 11 14  2  0  0  0  0
 12 10  1  0  0  0  0
 12  9  2  0  0  0  0
 14 10  1  0  0  0  0
 15 13  2  0  0  0  0
 16  1  1  0  0  0  0
 17 20  1  0  0  0  0
 18 17  1  0  0  0  0
 19 24  1  0  0  0  0
 20 19  1  0  0  0  0
 20 23  1  0  0  0  0
 22 16  1  1  0  0  0
 23 22  1  0  0  0  0
 24 21  1  6  0  0  0
 24 22  1  0  0  0  0
 25 17  2  0  0  0  0
M  END
>  <MODEL>
7

>  <REMARK>
 VINA RESULT:      -7.8      2.825      3.904
  Name = 
  3 active torsions:
  status: ('A' for Active; 'I' for Inactive)
    1  A    between atoms: C_1  and  N_13
    2  A    between atoms: C_8  and  C_21
    3  A    between atoms: N_13  and  C_14
                            x       y       z     vdW  Elec       q    Type
                         _______ _______ _______ _____ _____    ______ ____

>  <TORSDO>
F 3

$$$$
=
 OpenBabel10232408493D

 25 28  0  0  1  0  0  0  0  0999 V2000
  185.2710  178.6930  143.3880 C   0  0  0  0  0  0  0  0  0  0  0  0
  184.7670  178.6890  147.0110 O   0  0  0  0  0  0  0  0  0  0  0  0
  185.0170  178.5270  145.8280 C   0  0  0  0  0  0  0  0  0  0  0  0
  184.0400  179.2900  144.5470 S   0  0  0  0  0  0  0  0  0  0  0  0
  186.1700  177.7080  145.3740 C   0  0  0  0  0  2  0  0  0  0  0  0
  186.2440  177.9330  143.9060 C   0  0  0  0  0  0  0  0  0  0  0  0
  187.3850  177.3370  143.1240 C   0  0  1  0  0  3  0  0  0  0  0  0
  190.8910  178.3490  143.5220 C   0  0  0  0  0  3  0  0  0  0  0  0
  189.0230  176.9300  145.0980 C   0  0  0  0  0  3  0  0  0  0  0  0
  189.5900  178.1180  143.0800 C   0  0  0  0  0  0  0  0  0  0  0  0
  187.6490  178.1030  141.8060 C   0  0  0  0  0  3  0  0  0  0  0  0
  188.6840  177.4360  143.8420 C   0  0  0  0  0  0  0  0  0  0  0  0
  191.2580  177.8570  144.7850 C   0  0  0  0  0  3  0  0  0  0  0  0
  189.0460  178.5380  141.8470 N   0  0  0  0  0  0  0  0  0  0  0  0
  190.3270  177.1480  145.5710 C   0  0  0  0  0  3  0  0  0  0  0  0
  185.2380  179.0370  141.9990 N   0  0  0  0  0  2  0  0  0  0  0  0
  180.8610  179.4320  140.2740 C   0  0  0  0  0  0  0  0  0  0  0  0
  180.0570  179.1800  141.4220 N   0  0  0  0  0  1  0  0  0  0  0  0
  183.1490  179.4430  139.1910 C   0  0  0  0  0  2  0  0  0  0  0  0
  182.2660  179.1600  140.3020 N   0  0  0  0  0  0  0  0  0  0  0  0
  185.0910  178.1370  138.7550 O   0  0  0  0  0  1  0  0  0  0  0  0
  184.3810  178.3810  141.0240 C   0  0  1  0  0  3  0  0  0  0  0  0
  182.9330  178.5590  141.4380 C   0  0  0  0  0  2  0  0  0  0  0  0
  184.5370  179.0450  139.6580 C   0  0  2  0  0  3  0  0  0  0  0  0
  180.3280  179.9080  139.2380 O   0  0  0  0  0  0  0  0  0  0  0  0
  1  6  2  0  0  0  0
  1  4  1  0  0  0  0
  3  2  2  0  0  0  0
  4  3  1  0  0  0  0
  5  3  1  0  0  0  0
  6  5  1  0  0  0  0
  7 12  1  0  0  0  0
  7  6  1  1  0  0  0
  8 13  1  0  0  0  0
  9 15  1  0  0  0  0
 10  8  2  0  0  0  0
 10 12  1  0  0  0  0
 11 14  2  0  0  0  0
 11  7  1  0  0  0  0
 12  9  2  0  0  0  0
 13 15  2  0  0  0  0
 14 10  1  0  0  0  0
 16  1  1  0  0  0  0
 17 20  1  0  0  0  0
 17 18  1  0  0  0  0
 19 24  1  0  0  0  0
 19 20  1  0  0  0  0
 20 23  1  0  0  0  0
 22 23  1  0  0  0  0
 22 16  1  1  0  0  0
 24 21  1  6  0  0  0
 24 22  1  0  0  0  0
 25 17  2  0  0  0  0
M  END
>  <MODEL>
8

>  <REMARK>
 VINA RESULT:      -7.7      1.804      2.579
  Name = 
  3 active torsions:
  status: ('A' for Active; 'I' for Inactive)
    1  A    between atoms: C_1  and  N_13
    2  A    between atoms: C_8  and  C_21
    3  A    between atoms: N_13  and  C_14
                            x       y       z     vdW  Elec       q    Type
                         _______ _______ _______ _____ _____    ______ ____

>  <TORSDO>
F 3

$$$$
=
 OpenBabel10232408493D

 25 28  0  0  1  0  0  0  0  0999 V2000
  188.1980  178.2640  140.8780 C   0  0  0  0  0  0  0  0  0  0  0  0
  188.5300  175.8230  143.5820 O   0  0  0  0  0  0  0  0  0  0  0  0
  188.3060  176.7270  142.7950 C   0  0  0  0  0  0  0  0  0  0  0  0
  189.4700  177.1750  141.5200 S   0  0  0  0  0  0  0  0  0  0  0  0
  187.0360  177.4960  142.8230 C   0  0  0  0  0  2  0  0  0  0  0  0
  187.0730  178.3410  141.5990 C   0  0  0  0  0  0  0  0  0  0  0  0
  185.8720  179.1790  141.2440 C   0  0  1  0  0  3  0  0  0  0  0  0
  182.4940  178.5730  142.5430 C   0  0  0  0  0  3  0  0  0  0  0  0
  184.9230  179.5130  143.6370 C   0  0  0  0  0  3  0  0  0  0  0  0
  183.6440  178.6960  141.7670 C   0  0  0  0  0  0  0  0  0  0  0  0
  185.1400  178.6410  139.9920 C   0  0  0  0  0  3  0  0  0  0  0  0
  184.8210  179.1470  142.2950 C   0  0  0  0  0  0  0  0  0  0  0  0
  182.5690  178.9290  143.8990 C   0  0  0  0  0  3  0  0  0  0  0  0
  183.7560  178.3840  140.3940 N   0  0  0  0  0  0  0  0  0  0  0  0
  183.7800  179.3990  144.4450 C   0  0  0  0  0  3  0  0  0  0  0  0
  188.3600  178.9800  139.6490 N   0  0  0  0  0  2  0  0  0  0  0  0
  191.0350  175.4970  137.9180 C   0  0  0  0  0  0  0  0  0  0  0  0
  192.3540  175.9710  138.1700 N   0  0  0  0  0  1  0  0  0  0  0  0
  188.5430  175.9420  137.8750 C   0  0  0  0  0  2  0  0  0  0  0  0
  189.9120  176.3730  138.0620 N   0  0  0  0  0  0  0  0  0  0  0  0
  186.8530  177.4140  137.0740 O   0  0  0  0  0  1  0  0  0  0  0  0
  188.6330  178.3400  138.3720 C   0  0  1  0  0  3  0  0  0  0  0  0
  190.0410  177.7760  138.3920 C   0  0  0  0  0  2  0  0  0  0  0  0
  187.6860  177.1600  138.1640 C   0  0  2  0  0  3  0  0  0  0  0  0
  190.8630  174.2970  137.5790 O   0  0  0  0  0  0  0  0  0  0  0  0
  1  4  1  0  0  0  0
  1  6  2  0  0  0  0
  3  5  1  0  0  0  0
  3  2  2  0  0  0  0
  4  3  1  0  0  0  0
  6  5  1  0  0  0  0
  7  6  1  1  0  0  0
  7 12  1  0  0  0  0
  8 13  1  0  0  0  0
  9 15  1  0  0  0  0
 10 12  1  0  0  0  0
 10  8  2  0  0  0  0
 11 14  2  0  0  0  0
 11  7  1  0  0  0  0
 12  9  2  0  0  0  0
 13 15  2  0  0  0  0
 14 10  1  0  0  0  0
 16  1  1  0  0  0  0
 17 20  1  0  0  0  0
 17 18  1  0  0  0  0
 19 20  1  0  0  0  0
 19 24  1  0  0  0  0
 20 23  1  0  0  0  0
 22 23  1  0  0  0  0
 22 16  1  1  0  0  0
 24 21  1  6  0  0  0
 24 22  1  0  0  0  0
 25 17  2  0  0  0  0
M  END
>  <MODEL>
9

>  <REMARK>
 VINA RESULT:      -7.6      3.672      6.176
  Name = 
  3 active torsions:
  status: ('A' for Active; 'I' for Inactive)
    1  A    between atoms: C_1  and  N_13
    2  A    between atoms: C_8  and  C_21
    3  A    between atoms: N_13  and  C_14
                            x       y       z     vdW  Elec       q    Type
                         _______ _______ _______ _____ _____    ______ ____

>  <TORSDO>
F 3

$$$$
