=
 OpenBabel10232411433D

 27 31  0  0  1  0  0  0  0  0999 V2000
  187.2470  177.9920  142.9110 C   0  0  0  0  0  0  0  0  0  0  0  0
  186.2720  178.6250  146.1150 C   0  0  0  0  0  3  0  0  0  0  0  0
  188.3370  177.4830  143.5720 C   0  0  0  0  0  0  0  0  0  0  0  0
  188.6010  178.3290  140.9480 C   0  0  0  0  0  3  0  0  0  0  0  0
  189.5890  177.3810  142.9670 C   0  0  0  0  0  3  0  0  0  0  0  0
  189.7140  177.8110  141.6360 C   0  0  0  0  0  3  0  0  0  0  0  0
  187.9230  177.1220  144.9170 C   0  0  0  0  0  0  0  0  0  0  0  0
  186.8910  178.5500  147.2660 C   0  0  0  0  0  0  0  0  0  0  0  0
  187.3530  178.4250  141.5850 C   0  0  0  0  0  3  0  0  0  0  0  0
  187.6460  178.3710  148.3180 C   0  0  0  0  0  3  0  0  0  0  0  0
  186.0850  178.0260  143.7480 N   0  0  0  0  0  0  0  0  0  0  0  0
  189.3920  176.9500  147.0620 C   0  0  0  0  0  3  0  0  0  0  0  0
  188.8710  177.6100  148.2350 N   0  0  0  0  0  2  0  0  0  0  0  0
  188.7330  176.9780  145.9340 C   0  0  0  0  0  0  0  0  0  0  0  0
  186.4670  177.5330  145.0820 C   0  0  2  0  0  3  0  0  0  0  0  0
  182.1280  178.8790  142.5600 C   0  0  0  0  0  0  0  0  0  0  0  0
  182.4530  179.0540  143.9010 C   0  0  0  0  0  3  0  0  0  0  0  0
  180.9190  179.0930  141.9440 O   0  0  0  0  0  0  0  0  0  0  0  0
  184.3440  178.1620  141.9990 C   0  0  0  0  0  3  0  0  0  0  0  0
  182.3520  178.3860  140.3270 C   0  0  0  0  0  2  0  0  0  0  0  0
  183.7730  178.7680  144.2910 C   0  0  0  0  0  3  0  0  0  0  0  0
  180.9560  178.8030  140.5870 N   0  0  0  0  0  0  0  0  0  0  0  0
  183.0290  178.4520  141.6480 C   0  0  0  0  0  0  0  0  0  0  0  0
  184.7310  178.3210  143.3480 C   0  0  0  0  0  0  0  0  0  0  0  0
  180.7460  180.0520  139.8720 C   0  0  0  0  0  2  0  0  0  0  0  0
  181.5460  181.5110  138.4250 C   0  0  0  0  0  1  0  0  0  0  0  0
  181.7480  180.2230  138.9180 O   0  0  0  0  0  0  0  0  0  0  0  0
  1  3  1  0  0  0  0
  1 11  1  0  0  0  0
  2  8  2  0  0  0  0
  3  7  1  0  0  0  0
  4  9  1  0  0  0  0
  4  6  2  0  0  0  0
  5  3  2  0  0  0  0
  6  5  1  0  0  0  0
  7 15  1  0  0  0  0
  7 14  2  0  0  0  0
  8 10  2  0  0  0  0
  9  1  2  0  0  0  0
 11 15  1  0  0  0  0
 12 13  1  0  0  0  0
 13 10  1  0  0  0  0
 14 12  2  0  0  0  0
 15  2  1  1  0  0  0
 16 17  1  0  0  0  0
 17 21  2  0  0  0  0
 18 16  1  0  0  0  0
 19 24  2  0  0  0  0
 20 22  1  0  0  0  0
 20 23  1  0  0  0  0
 22 18  1  0  0  0  0
 23 19  1  0  0  0  0
 23 16  2  0  0  0  0
 24 11  1  0  0  0  0
 24 21  1  0  0  0  0
 25 22  1  0  0  0  0
 26 27  1  0  0  0  0
 27 25  1  0  0  0  0
M  END
>  <MODEL>
1

>  <REMARK>
 VINA RESULT:      -9.5      0.000      0.000
  Name = 
  3 active torsions:
  status: ('A' for Active; 'I' for Inactive)
    1  A    between atoms: O_14  and  C_17
    2  A    between atoms: C_17  and  N_24
    3  A    between atoms: N_20  and  C_27
                            x       y       z     vdW  Elec       q    Type
                         _______ _______ _______ _____ _____    ______ ____

>  <TORSDO>
F 3

$$$$
=
 OpenBabel10232411433D

 27 31  0  0  1  0  0  0  0  0999 V2000
  187.3620  178.1010  146.3500 C   0  0  0  0  0  0  0  0  0  0  0  0
  188.1390  176.5530  143.4140 C   0  0  0  0  0  3  0  0  0  0  0  0
  188.7230  178.0230  146.5010 C   0  0  0  0  0  0  0  0  0  0  0  0
  187.1060  178.2140  148.7420 C   0  0  0  0  0  3  0  0  0  0  0  0
  189.3300  178.0300  147.7570 C   0  0  0  0  0  3  0  0  0  0  0  0
  188.5040  178.1290  148.8880 C   0  0  0  0  0  3  0  0  0  0  0  0
  189.3220  177.9310  145.1820 C   0  0  0  0  0  0  0  0  0  0  0  0
  189.2420  176.0210  142.9520 C   0  0  0  0  0  0  0  0  0  0  0  0
  186.5220  178.1990  147.4650 C   0  0  0  0  0  3  0  0  0  0  0  0
  190.4330  175.5840  142.6390 C   0  0  0  0  0  3  0  0  0  0  0  0
  186.9760  178.0420  144.9720 N   0  0  0  0  0  0  0  0  0  0  0  0
  191.6170  176.8880  144.5220 C   0  0  0  0  0  3  0  0  0  0  0  0
  191.5960  175.9820  143.3990 N   0  0  0  0  0  2  0  0  0  0  0  0
  190.5190  177.4630  144.9350 C   0  0  0  0  0  0  0  0  0  0  0  0
  188.1930  177.8700  144.1620 C   0  0  2  0  0  3  0  0  0  0  0  0
  183.1370  178.7130  143.3540 C   0  0  0  0  0  0  0  0  0  0  0  0
  183.3290  178.9920  144.7030 C   0  0  0  0  0  3  0  0  0  0  0  0
  181.9910  178.8540  142.6120 O   0  0  0  0  0  0  0  0  0  0  0  0
  185.4090  178.0110  143.0600 C   0  0  0  0  0  3  0  0  0  0  0  0
  183.5840  178.0660  141.1950 C   0  0  0  0  0  2  0  0  0  0  0  0
  184.6100  178.7660  145.2360 C   0  0  0  0  0  3  0  0  0  0  0  0
  182.1630  178.4680  141.2900 N   0  0  0  0  0  0  0  0  0  0  0  0
  184.1290  178.2440  142.5660 C   0  0  0  0  0  0  0  0  0  0  0  0
  185.6620  178.2760  144.4240 C   0  0  0  0  0  0  0  0  0  0  0  0
  182.0010  179.6580  140.4680 C   0  0  0  0  0  2  0  0  0  0  0  0
  182.2950  180.4560  138.4340 C   0  0  0  0  0  1  0  0  0  0  0  0
  182.8570  179.5900  139.3690 O   0  0  0  0  0  0  0  0  0  0  0  0
  1  3  2  0  0  0  0
  1  9  1  0  0  0  0
  3  5  1  0  0  0  0
  4  6  1  0  0  0  0
  5  6  2  0  0  0  0
  7  3  1  0  0  0  0
  8  2  2  0  0  0  0
  9  4  2  0  0  0  0
 10  8  2  0  0  0  0
 10 13  1  0  0  0  0
 11  1  1  0  0  0  0
 12 14  2  0  0  0  0
 13 12  1  0  0  0  0
 14  7  2  0  0  0  0
 15  2  1  1  0  0  0
 15 11  1  0  0  0  0
 15  7  1  0  0  0  0
 16 17  1  0  0  0  0
 17 21  2  0  0  0  0
 18 16  1  0  0  0  0
 19 24  2  0  0  0  0
 20 22  1  0  0  0  0
 20 23  1  0  0  0  0
 22 18  1  0  0  0  0
 23 19  1  0  0  0  0
 23 16  2  0  0  0  0
 24 11  1  0  0  0  0
 24 21  1  0  0  0  0
 25 22  1  0  0  0  0
 26 27  1  0  0  0  0
 27 25  1  0  0  0  0
M  END
>  <MODEL>
2

>  <REMARK>
 VINA RESULT:      -9.4      1.696      3.707
  Name = 
  3 active torsions:
  status: ('A' for Active; 'I' for Inactive)
    1  A    between atoms: O_14  and  C_17
    2  A    between atoms: C_17  and  N_24
    3  A    between atoms: N_20  and  C_27
                            x       y       z     vdW  Elec       q    Type
                         _______ _______ _______ _____ _____    ______ ____

>  <TORSDO>
F 3

$$$$
=
 OpenBabel10232411433D

 27 31  0  0  1  0  0  0  0  0999 V2000
  189.0840  177.4510  144.1340 C   0  0  0  0  0  0  0  0  0  0  0  0
  186.3000  178.9130  142.8190 C   0  0  0  0  0  3  0  0  0  0  0  0
  188.2610  177.3680  145.2280 C   0  0  0  0  0  0  0  0  0  0  0  0
  191.0080  177.3560  145.5800 C   0  0  0  0  0  3  0  0  0  0  0  0
  188.7610  177.2840  146.5270 C   0  0  0  0  0  3  0  0  0  0  0  0
  190.1550  177.2760  146.6970 C   0  0  0  0  0  3  0  0  0  0  0  0
  186.8850  177.3970  144.7630 C   0  0  0  0  0  0  0  0  0  0  0  0
  185.1710  179.3150  143.3460 C   0  0  0  0  0  0  0  0  0  0  0  0
  190.4750  177.4460  144.2840 C   0  0  0  0  0  3  0  0  0  0  0  0
  184.0980  179.6100  144.0310 C   0  0  0  0  0  3  0  0  0  0  0  0
  188.3400  177.5620  142.9150 N   0  0  0  0  0  0  0  0  0  0  0  0
  184.7610  178.1670  146.0610 C   0  0  0  0  0  3  0  0  0  0  0  0
  183.8890  179.0750  145.3560 N   0  0  0  0  0  2  0  0  0  0  0  0
  185.8540  177.7220  145.5000 C   0  0  0  0  0  0  0  0  0  0  0  0
  186.9080  177.5940  143.2540 C   0  0  2  0  0  3  0  0  0  0  0  0
  189.8360  177.3590  138.9750 C   0  0  0  0  0  0  0  0  0  0  0  0
  190.4800  176.6070  139.9520 C   0  0  0  0  0  3  0  0  0  0  0  0
  190.1360  177.4510  137.6390 O   0  0  0  0  0  0  0  0  0  0  0  0
  188.2410  178.2290  140.5370 C   0  0  0  0  0  3  0  0  0  0  0  0
  188.3290  178.7860  137.9890 C   0  0  0  0  0  2  0  0  0  0  0  0
  189.9780  176.6780  141.2620 C   0  0  0  0  0  3  0  0  0  0  0  0
  189.2820  178.3100  136.9610 N   0  0  0  0  0  0  0  0  0  0  0  0
  188.7660  178.1360  139.2510 C   0  0  0  0  0  0  0  0  0  0  0  0
  188.8550  177.4870  141.5700 C   0  0  0  0  0  0  0  0  0  0  0  0
  188.5220  177.5070  136.0150 C   0  0  0  0  0  2  0  0  0  0  0  0
  186.9020  177.8930  134.5690 C   0  0  0  0  0  1  0  0  0  0  0  0
  187.2200  177.9970  135.9220 O   0  0  0  0  0  0  0  0  0  0  0  0
  1  9  2  0  0  0  0
  1  3  1  0  0  0  0
  2  8  2  0  0  0  0
  3  5  2  0  0  0  0
  4  6  2  0  0  0  0
  5  6  1  0  0  0  0
  7  3  1  0  0  0  0
  7 14  2  0  0  0  0
  8 10  2  0  0  0  0
  9  4  1  0  0  0  0
 10 13  1  0  0  0  0
 11 15  1  0  0  0  0
 11  1  1  0  0  0  0
 13 12  1  0  0  0  0
 14 12  2  0  0  0  0
 15  2  1  1  0  0  0
 15  7  1  0  0  0  0
 16 23  2  0  0  0  0
 16 17  1  0  0  0  0
 17 21  2  0  0  0  0
 18 16  1  0  0  0  0
 19 24  2  0  0  0  0
 20 23  1  0  0  0  0
 21 24  1  0  0  0  0
 22 18  1  0  0  0  0
 22 20  1  0  0  0  0
 23 19  1  0  0  0  0
 24 11  1  0  0  0  0
 25 22  1  0  0  0  0
 26 27  1  0  0  0  0
 27 25  1  0  0  0  0
M  END
>  <MODEL>
3

>  <REMARK>
 VINA RESULT:      -9.4      3.435      5.891
  Name = 
  3 active torsions:
  status: ('A' for Active; 'I' for Inactive)
    1  A    between atoms: O_14  and  C_17
    2  A    between atoms: C_17  and  N_24
    3  A    between atoms: N_20  and  C_27
                            x       y       z     vdW  Elec       q    Type
                         _______ _______ _______ _____ _____    ______ ____

>  <TORSDO>
F 3

$$$$
=
 OpenBabel10232411433D

 27 31  0  0  1  0  0  0  0  0999 V2000
  188.1320  177.6940  143.9110 C   0  0  0  0  0  0  0  0  0  0  0  0
  191.1230  176.0980  144.2640 C   0  0  0  0  0  3  0  0  0  0  0  0
  188.2810  177.8140  145.2700 C   0  0  0  0  0  0  0  0  0  0  0  0
  185.7460  177.9110  144.1590 C   0  0  0  0  0  3  0  0  0  0  0  0
  187.1900  177.9790  146.1230 C   0  0  0  0  0  3  0  0  0  0  0  0
  185.9090  178.0290  145.5520 C   0  0  0  0  0  3  0  0  0  0  0  0
  189.6970  177.7280  145.5800 C   0  0  0  0  0  0  0  0  0  0  0  0
  191.8020  175.6980  145.3090 C   0  0  0  0  0  0  0  0  0  0  0  0
  186.8630  177.7400  143.3240 C   0  0  0  0  0  3  0  0  0  0  0  0
  192.3570  175.4130  146.4580 C   0  0  0  0  0  3  0  0  0  0  0  0
  189.3890  177.5010  143.2530 N   0  0  0  0  0  0  0  0  0  0  0  0
  190.8170  176.9770  147.8090 C   0  0  0  0  0  3  0  0  0  0  0  0
  191.8830  176.0130  147.6840 N   0  0  0  0  0  2  0  0  0  0  0  0
  190.1880  177.4180  146.7520 C   0  0  0  0  0  0  0  0  0  0  0  0
  190.4420  177.4520  144.2810 C   0  0  2  0  0  3  0  0  0  0  0  0
  190.1080  177.5600  139.0960 C   0  0  0  0  0  0  0  0  0  0  0  0
  191.1830  177.2890  139.9350 C   0  0  0  0  0  3  0  0  0  0  0  0
  190.0960  177.6290  137.7250 O   0  0  0  0  0  0  0  0  0  0  0  0
  188.5860  177.7870  140.9330 C   0  0  0  0  0  3  0  0  0  0  0  0
  187.9680  178.0410  138.4100 C   0  0  0  0  0  2  0  0  0  0  0  0
  190.9380  177.2700  141.3190 C   0  0  0  0  0  3  0  0  0  0  0  0
  188.8400  177.9340  137.2190 N   0  0  0  0  0  0  0  0  0  0  0  0
  188.8650  177.8000  139.5690 C   0  0  0  0  0  0  0  0  0  0  0  0
  189.6410  177.5180  141.8330 C   0  0  0  0  0  0  0  0  0  0  0  0
  188.3860  176.7770  136.4630 C   0  0  0  0  0  2  0  0  0  0  0  0
  187.5090  174.8050  136.9180 C   0  0  0  0  0  1  0  0  0  0  0  0
  187.3200  176.1700  137.1260 O   0  0  0  0  0  0  0  0  0  0  0  0
  1  3  1  0  0  0  0
  2  8  2  0  0  0  0
  3  7  1  0  0  0  0
  3  5  2  0  0  0  0
  4  6  2  0  0  0  0
  6  5  1  0  0  0  0
  7 14  2  0  0  0  0
  8 10  2  0  0  0  0
  9  1  2  0  0  0  0
  9  4  1  0  0  0  0
 10 13  1  0  0  0  0
 11  1  1  0  0  0  0
 11 15  1  0  0  0  0
 13 12  1  0  0  0  0
 14 12  2  0  0  0  0
 15  2  1  1  0  0  0
 15  7  1  0  0  0  0
 16 23  2  0  0  0  0
 16 17  1  0  0  0  0
 17 21  2  0  0  0  0
 18 16  1  0  0  0  0
 19 24  2  0  0  0  0
 20 23  1  0  0  0  0
 21 24  1  0  0  0  0
 22 18  1  0  0  0  0
 22 20  1  0  0  0  0
 23 19  1  0  0  0  0
 24 11  1  0  0  0  0
 25 27  1  0  0  0  0
 25 22  1  0  0  0  0
 26 27  1  0  0  0  0
M  END
>  <MODEL>
4

>  <REMARK>
 VINA RESULT:      -9.1      3.948      6.007
  Name = 
  3 active torsions:
  status: ('A' for Active; 'I' for Inactive)
    1  A    between atoms: O_14  and  C_17
    2  A    between atoms: C_17  and  N_24
    3  A    between atoms: N_20  and  C_27
                            x       y       z     vdW  Elec       q    Type
                         _______ _______ _______ _____ _____    ______ ____

>  <TORSDO>
F 3

$$$$
=
 OpenBabel10232411433D

 27 31  0  0  1  0  0  0  0  0999 V2000
  187.0020  178.1150  145.1330 C   0  0  0  0  0  0  0  0  0  0  0  0
  188.9450  176.3720  142.9410 C   0  0  0  0  0  3  0  0  0  0  0  0
  188.1340  177.9930  145.8990 C   0  0  0  0  0  0  0  0  0  0  0  0
  185.6830  178.3740  147.1320 C   0  0  0  0  0  3  0  0  0  0  0  0
  188.0950  178.0480  147.2920 C   0  0  0  0  0  3  0  0  0  0  0  0
  186.8490  178.2440  147.9090 C   0  0  0  0  0  3  0  0  0  0  0  0
  189.2650  177.8030  145.0080 C   0  0  0  0  0  0  0  0  0  0  0  0
  190.1030  175.7730  143.0590 C   0  0  0  0  0  0  0  0  0  0  0  0
  185.7510  178.3080  145.7300 C   0  0  0  0  0  3  0  0  0  0  0  0
  191.2760  175.2740  143.3460 C   0  0  0  0  0  3  0  0  0  0  0  0
  187.2890  177.9920  143.7350 N   0  0  0  0  0  0  0  0  0  0  0  0
  191.5390  176.6370  145.5180 C   0  0  0  0  0  3  0  0  0  0  0  0
  191.9820  175.6700  144.5430 N   0  0  0  0  0  2  0  0  0  0  0  0
  190.4110  177.2760  145.3580 C   0  0  0  0  0  0  0  0  0  0  0  0
  188.7290  177.7270  143.5850 C   0  0  2  0  0  3  0  0  0  0  0  0
  184.6450  178.7320  140.5320 C   0  0  0  0  0  0  0  0  0  0  0  0
  186.0100  178.8170  140.2780 C   0  0  0  0  0  3  0  0  0  0  0  0
  183.6050  178.9250  139.6570 O   0  0  0  0  0  0  0  0  0  0  0  0
  184.9940  178.1710  142.8350 C   0  0  0  0  0  3  0  0  0  0  0  0
  182.6730  178.4130  141.6660 C   0  0  0  0  0  2  0  0  0  0  0  0
  186.8860  178.5700  141.3490 C   0  0  0  0  0  3  0  0  0  0  0  0
  182.3650  178.7680  140.2630 N   0  0  0  0  0  0  0  0  0  0  0  0
  184.1560  178.4240  141.7530 C   0  0  0  0  0  0  0  0  0  0  0  0
  186.3900  178.2440  142.6350 C   0  0  0  0  0  0  0  0  0  0  0  0
  181.7330  177.6060  139.6580 C   0  0  0  0  0  2  0  0  0  0  0  0
  182.5710  175.7730  138.7630 C   0  0  0  0  0  1  0  0  0  0  0  0
  182.4610  176.4590  139.9710 O   0  0  0  0  0  0  0  0  0  0  0  0
  1  9  2  0  0  0  0
  1  3  1  0  0  0  0
  2  8  2  0  0  0  0
  3  5  2  0  0  0  0
  4  6  2  0  0  0  0
  5  6  1  0  0  0  0
  7 14  2  0  0  0  0
  7  3  1  0  0  0  0
  8 10  2  0  0  0  0
  9  4  1  0  0  0  0
 10 13  1  0  0  0  0
 11  1  1  0  0  0  0
 13 12  1  0  0  0  0
 14 12  2  0  0  0  0
 15  2  1  1  0  0  0
 15 11  1  0  0  0  0
 15  7  1  0  0  0  0
 16 23  1  0  0  0  0
 17 16  2  0  0  0  0
 17 21  1  0  0  0  0
 18 22  1  0  0  0  0
 18 16  1  0  0  0  0
 20 23  1  0  0  0  0
 21 24  2  0  0  0  0
 22 20  1  0  0  0  0
 23 19  2  0  0  0  0
 24 19  1  0  0  0  0
 24 11  1  0  0  0  0
 25 27  1  0  0  0  0
 25 22  1  0  0  0  0
 26 27  1  0  0  0  0
M  END
>  <MODEL>
5

>  <REMARK>
 VINA RESULT:      -8.9      1.924      4.010
  Name = 
  3 active torsions:
  status: ('A' for Active; 'I' for Inactive)
    1  A    between atoms: O_14  and  C_17
    2  A    between atoms: C_17  and  N_24
    3  A    between atoms: N_20  and  C_27
                            x       y       z     vdW  Elec       q    Type
                         _______ _______ _______ _____ _____    ______ ____

>  <TORSDO>
F 3

$$$$
=
 OpenBabel10232411433D

 27 31  0  0  1  0  0  0  0  0999 V2000
  189.2340  177.5050  143.8810 C   0  0  0  0  0  0  0  0  0  0  0  0
  186.3420  178.9110  142.7500 C   0  0  0  0  0  3  0  0  0  0  0  0
  188.4750  177.3810  145.0180 C   0  0  0  0  0  0  0  0  0  0  0  0
  191.2370  177.4390  145.2160 C   0  0  0  0  0  3  0  0  0  0  0  0
  189.0500  177.2890  146.2860 C   0  0  0  0  0  3  0  0  0  0  0  0
  190.4510  177.3170  146.3780 C   0  0  0  0  0  3  0  0  0  0  0  0
  187.0760  177.3790  144.6310 C   0  0  0  0  0  0  0  0  0  0  0  0
  185.2340  179.2720  143.3460 C   0  0  0  0  0  0  0  0  0  0  0  0
  190.6310  177.5360  143.9530 C   0  0  0  0  0  3  0  0  0  0  0  0
  184.1930  179.5260  144.0950 C   0  0  0  0  0  3  0  0  0  0  0  0
  188.4200  177.6150  142.7080 N   0  0  0  0  0  0  0  0  0  0  0  0
  185.0080  178.0680  146.0590 C   0  0  0  0  0  3  0  0  0  0  0  0
  184.0730  178.9630  145.4200 N   0  0  0  0  0  2  0  0  0  0  0  0
  186.0790  177.6630  145.4300 C   0  0  0  0  0  0  0  0  0  0  0  0
  187.0090  177.6020  143.1270 C   0  0  2  0  0  3  0  0  0  0  0  0
  189.7140  177.4830  138.6940 C   0  0  0  0  0  0  0  0  0  0  0  0
  188.8610  178.5170  139.0660 C   0  0  0  0  0  3  0  0  0  0  0  0
  190.2630  177.2360  137.4610 O   0  0  0  0  0  0  0  0  0  0  0  0
  189.7270  176.5500  140.9010 C   0  0  0  0  0  3  0  0  0  0  0  0
  191.0270  175.6030  138.8450 C   0  0  0  0  0  2  0  0  0  0  0  0
  188.4330  178.5560  140.4040 C   0  0  0  0  0  3  0  0  0  0  0  0
  191.0640  176.1030  137.4520 N   0  0  0  0  0  0  0  0  0  0  0  0
  190.1290  176.5400  139.5690 C   0  0  0  0  0  0  0  0  0  0  0  0
  188.8600  177.5770  141.3350 C   0  0  0  0  0  0  0  0  0  0  0  0
  192.4280  176.5380  137.1930 C   0  0  0  0  0  2  0  0  0  0  0  0
  194.2290  175.3170  136.8370 C   0  0  0  0  0  1  0  0  0  0  0  0
  193.3240  175.6830  137.8320 O   0  0  0  0  0  0  0  0  0  0  0  0
  1  9  2  0  0  0  0
  1  3  1  0  0  0  0
  2  8  2  0  0  0  0
  3  5  2  0  0  0  0
  4  6  2  0  0  0  0
  5  6  1  0  0  0  0
  7  3  1  0  0  0  0
  7 14  2  0  0  0  0
  8 10  2  0  0  0  0
  9  4  1  0  0  0  0
 10 13  1  0  0  0  0
 11 15  1  0  0  0  0
 11  1  1  0  0  0  0
 13 12  1  0  0  0  0
 14 12  2  0  0  0  0
 15  2  1  1  0  0  0
 15  7  1  0  0  0  0
 16 17  2  0  0  0  0
 16 23  1  0  0  0  0
 17 21  1  0  0  0  0
 18 16  1  0  0  0  0
 19 24  1  0  0  0  0
 20 23  1  0  0  0  0
 21 24  2  0  0  0  0
 22 18  1  0  0  0  0
 22 20  1  0  0  0  0
 23 19  2  0  0  0  0
 24 11  1  0  0  0  0
 25 22  1  0  0  0  0
 25 27  1  0  0  0  0
 26 27  1  0  0  0  0
M  END
>  <MODEL>
6

>  <REMARK>
 VINA RESULT:      -8.9      4.100      7.038
  Name = 
  3 active torsions:
  status: ('A' for Active; 'I' for Inactive)
    1  A    between atoms: O_14  and  C_17
    2  A    between atoms: C_17  and  N_24
    3  A    between atoms: N_20  and  C_27
                            x       y       z     vdW  Elec       q    Type
                         _______ _______ _______ _____ _____    ______ ____

>  <TORSDO>
F 3

$$$$
=
 OpenBabel10232411433D

 27 31  0  0  1  0  0  0  0  0999 V2000
  189.9660  177.2950  143.7330 C   0  0  0  0  0  0  0  0  0  0  0  0
  187.8200  178.6320  141.4470 C   0  0  0  0  0  3  0  0  0  0  0  0
  188.8120  177.2580  144.4740 C   0  0  0  0  0  0  0  0  0  0  0  0
  191.2630  177.3150  145.7620 C   0  0  0  0  0  3  0  0  0  0  0  0
  188.8270  177.2540  145.8690 C   0  0  0  0  0  3  0  0  0  0  0  0
  190.0730  177.2810  146.5140 C   0  0  0  0  0  3  0  0  0  0  0  0
  187.6850  177.2360  143.5580 C   0  0  0  0  0  0  0  0  0  0  0  0
  186.5790  179.0420  141.5230 C   0  0  0  0  0  0  0  0  0  0  0  0
  191.2170  177.3240  144.3580 C   0  0  0  0  0  3  0  0  0  0  0  0
  185.3350  179.3550  141.7720 C   0  0  0  0  0  3  0  0  0  0  0  0
  189.6950  177.3260  142.3270 N   0  0  0  0  0  0  0  0  0  0  0  0
  185.2440  178.0380  143.9860 C   0  0  0  0  0  3  0  0  0  0  0  0
  184.6740  178.8900  142.9700 N   0  0  0  0  0  2  0  0  0  0  0  0
  186.4630  177.5830  143.8680 C   0  0  0  0  0  0  0  0  0  0  0  0
  188.2350  177.3510  142.1420 C   0  0  2  0  0  3  0  0  0  0  0  0
  192.4650  176.9130  139.1710 C   0  0  0  0  0  0  0  0  0  0  0  0
  192.9060  177.5120  140.3470 C   0  0  0  0  0  3  0  0  0  0  0  0
  193.1760  176.6700  138.0220 O   0  0  0  0  0  0  0  0  0  0  0  0
  190.2540  176.5850  140.0360 C   0  0  0  0  0  3  0  0  0  0  0  0
  191.0730  175.8860  137.6580 C   0  0  0  0  0  2  0  0  0  0  0  0
  191.9790  177.6460  141.3940 C   0  0  0  0  0  3  0  0  0  0  0  0
  192.4060  176.0620  137.0400 N   0  0  0  0  0  0  0  0  0  0  0  0
  191.1970  176.4700  139.0190 C   0  0  0  0  0  0  0  0  0  0  0  0
  190.6470  177.1860  141.2520 C   0  0  0  0  0  0  0  0  0  0  0  0
  192.9540  174.7320  136.8230 C   0  0  0  0  0  2  0  0  0  0  0  0
  192.4250  172.7770  135.9510 C   0  0  0  0  0  1  0  0  0  0  0  0
  191.9170  173.8030  136.7450 O   0  0  0  0  0  0  0  0  0  0  0  0
  1  9  2  0  0  0  0
  1  3  1  0  0  0  0
  2  8  2  0  0  0  0
  3  5  2  0  0  0  0
  4  6  2  0  0  0  0
  5  6  1  0  0  0  0
  7 14  2  0  0  0  0
  7  3  1  0  0  0  0
  8 10  2  0  0  0  0
  9  4  1  0  0  0  0
 10 13  1  0  0  0  0
 11  1  1  0  0  0  0
 13 12  1  0  0  0  0
 14 12  2  0  0  0  0
 15  2  1  1  0  0  0
 15 11  1  0  0  0  0
 15  7  1  0  0  0  0
 16 17  1  0  0  0  0
 17 21  2  0  0  0  0
 18 16  1  0  0  0  0
 19 24  2  0  0  0  0
 20 23  1  0  0  0  0
 22 20  1  0  0  0  0
 22 18  1  0  0  0  0
 23 16  2  0  0  0  0
 23 19  1  0  0  0  0
 24 21  1  0  0  0  0
 24 11  1  0  0  0  0
 25 22  1  0  0  0  0
 26 27  1  0  0  0  0
 27 25  1  0  0  0  0
M  END
>  <MODEL>
7

>  <REMARK>
 VINA RESULT:      -8.9      4.713      8.051
  Name = 
  3 active torsions:
  status: ('A' for Active; 'I' for Inactive)
    1  A    between atoms: O_14  and  C_17
    2  A    between atoms: C_17  and  N_24
    3  A    between atoms: N_20  and  C_27
                            x       y       z     vdW  Elec       q    Type
                         _______ _______ _______ _____ _____    ______ ____

>  <TORSDO>
F 3

$$$$
=
 OpenBabel10232411433D

 27 31  0  0  1  0  0  0  0  0999 V2000
  187.7300  177.8480  144.7700 C   0  0  0  0  0  0  0  0  0  0  0  0
  190.4980  176.0730  143.8760 C   0  0  0  0  0  3  0  0  0  0  0  0
  188.3560  177.7980  145.9890 C   0  0  0  0  0  0  0  0  0  0  0  0
  185.6120  178.1550  145.8750 C   0  0  0  0  0  3  0  0  0  0  0  0
  187.6540  177.9150  147.1880 C   0  0  0  0  0  3  0  0  0  0  0  0
  186.2630  178.0970  147.1220 C   0  0  0  0  0  3  0  0  0  0  0  0
  189.7770  177.6040  145.7610 C   0  0  0  0  0  0  0  0  0  0  0  0
  191.4620  175.5170  144.5660 C   0  0  0  0  0  0  0  0  0  0  0  0
  186.3450  178.0280  144.6840 C   0  0  0  0  0  3  0  0  0  0  0  0
  192.3570  175.0700  145.4070 C   0  0  0  0  0  3  0  0  0  0  0  0
  188.6530  177.6720  143.6900 N   0  0  0  0  0  0  0  0  0  0  0  0
  191.5350  176.5370  147.3610 C   0  0  0  0  0  3  0  0  0  0  0  0
  192.3990  175.5420  146.7720 N   0  0  0  0  0  2  0  0  0  0  0  0
  190.6180  177.1320  146.6450 C   0  0  0  0  0  0  0  0  0  0  0  0
  189.9910  177.4480  144.2620 C   0  0  2  0  0  3  0  0  0  0  0  0
  187.8690  178.1890  139.5760 C   0  0  0  0  0  0  0  0  0  0  0  0
  189.1550  177.8100  139.9480 C   0  0  0  0  0  3  0  0  0  0  0  0
  187.3810  178.4120  138.3130 O   0  0  0  0  0  0  0  0  0  0  0  0
  187.1040  178.2290  141.8460 C   0  0  0  0  0  3  0  0  0  0  0  0
  185.6540  178.7740  139.7460 C   0  0  0  0  0  2  0  0  0  0  0  0
  189.4100  177.6390  141.3190 C   0  0  0  0  0  3  0  0  0  0  0  0
  186.0450  178.7890  138.3180 N   0  0  0  0  0  0  0  0  0  0  0  0
  186.8860  178.3910  140.4810 C   0  0  0  0  0  0  0  0  0  0  0  0
  188.3910  177.8450  142.2820 C   0  0  0  0  0  0  0  0  0  0  0  0
  185.2940  177.7310  137.6600 C   0  0  0  0  0  2  0  0  0  0  0  0
  185.5820  176.0150  136.3060 C   0  0  0  0  0  1  0  0  0  0  0  0
  185.9500  177.3460  136.4920 O   0  0  0  0  0  0  0  0  0  0  0  0
  1  3  1  0  0  0  0
  2  8  2  0  0  0  0
  3  5  2  0  0  0  0
  4  6  2  0  0  0  0
  6  5  1  0  0  0  0
  7  3  1  0  0  0  0
  7 14  2  0  0  0  0
  8 10  2  0  0  0  0
  9  1  2  0  0  0  0
  9  4  1  0  0  0  0
 10 13  1  0  0  0  0
 11 15  1  0  0  0  0
 11  1  1  0  0  0  0
 13 12  1  0  0  0  0
 14 12  2  0  0  0  0
 15  2  1  1  0  0  0
 15  7  1  0  0  0  0
 16 17  2  0  0  0  0
 16 23  1  0  0  0  0
 17 21  1  0  0  0  0
 18 22  1  0  0  0  0
 18 16  1  0  0  0  0
 19 24  1  0  0  0  0
 20 23  1  0  0  0  0
 21 24  2  0  0  0  0
 22 20  1  0  0  0  0
 23 19  2  0  0  0  0
 24 11  1  0  0  0  0
 25 22  1  0  0  0  0
 26 27  1  0  0  0  0
 27 25  1  0  0  0  0
M  END
>  <MODEL>
8

>  <REMARK>
 VINA RESULT:      -8.9      3.240      4.998
  Name = 
  3 active torsions:
  status: ('A' for Active; 'I' for Inactive)
    1  A    between atoms: O_14  and  C_17
    2  A    between atoms: C_17  and  N_24
    3  A    between atoms: N_20  and  C_27
                            x       y       z     vdW  Elec       q    Type
                         _______ _______ _______ _____ _____    ______ ____

>  <TORSDO>
F 3

$$$$
=
 OpenBabel10232411433D

 27 31  0  0  1  0  0  0  0  0999 V2000
  188.1040  177.7820  141.6640 C   0  0  0  0  0  0  0  0  0  0  0  0
  188.4660  177.9130  145.0500 C   0  0  0  0  0  3  0  0  0  0  0  0
  189.3220  177.1580  141.7740 C   0  0  0  0  0  0  0  0  0  0  0  0
  188.6360  178.4070  139.3990 C   0  0  0  0  0  3  0  0  0  0  0  0
  190.2410  177.1350  140.7250 C   0  0  0  0  0  3  0  0  0  0  0  0
  189.8840  177.7690  139.5240 C   0  0  0  0  0  3  0  0  0  0  0  0
  189.4230  176.5950  143.1090 C   0  0  0  0  0  0  0  0  0  0  0  0
  189.4660  177.6460  145.8500 C   0  0  0  0  0  0  0  0  0  0  0  0
  187.7330  178.4190  140.4750 C   0  0  0  0  0  3  0  0  0  0  0  0
  190.5480  177.2910  146.4930 C   0  0  0  0  0  3  0  0  0  0  0  0
  187.3520  177.7000  142.8800 N   0  0  0  0  0  0  0  0  0  0  0  0
  191.5760  176.0610  144.4750 C   0  0  0  0  0  3  0  0  0  0  0  0
  191.5900  176.5350  145.8380 N   0  0  0  0  0  2  0  0  0  0  0  0
  190.5440  176.2780  143.7040 C   0  0  0  0  0  0  0  0  0  0  0  0
  188.1720  176.9960  143.8790 C   0  0  2  0  0  3  0  0  0  0  0  0
  183.3150  178.7870  143.4450 C   0  0  0  0  0  0  0  0  0  0  0  0
  184.1980  179.0070  144.4970 C   0  0  0  0  0  3  0  0  0  0  0  0
  181.9700  179.0590  143.3940 O   0  0  0  0  0  0  0  0  0  0  0  0
  185.0320  177.8760  142.0450 C   0  0  0  0  0  3  0  0  0  0  0  0
  182.5240  178.1610  141.3800 C   0  0  0  0  0  2  0  0  0  0  0  0
  185.5420  178.6430  144.3030 C   0  0  0  0  0  3  0  0  0  0  0  0
  181.4000  178.6960  142.1810 N   0  0  0  0  0  0  0  0  0  0  0  0
  183.7100  178.2450  142.2720 C   0  0  0  0  0  0  0  0  0  0  0  0
  185.9740  178.0760  143.0780 C   0  0  0  0  0  0  0  0  0  0  0  0
  180.9570  179.9180  141.5290 C   0  0  0  0  0  2  0  0  0  0  0  0
  180.3580  180.8970  139.6460 C   0  0  0  0  0  1  0  0  0  0  0  0
  180.9350  179.7320  140.1470 O   0  0  0  0  0  0  0  0  0  0  0  0
  1  3  1  0  0  0  0
  1 11  1  0  0  0  0
  2  8  2  0  0  0  0
  3  7  1  0  0  0  0
  4  6  2  0  0  0  0
  4  9  1  0  0  0  0
  5  3  2  0  0  0  0
  6  5  1  0  0  0  0
  7 14  2  0  0  0  0
  7 15  1  0  0  0  0
  8 10  2  0  0  0  0
  9  1  2  0  0  0  0
 11 24  1  0  0  0  0
 11 15  1  0  0  0  0
 12 13  1  0  0  0  0
 13 10  1  0  0  0  0
 14 12  2  0  0  0  0
 15  2  1  1  0  0  0
 16 17  1  0  0  0  0
 18 16  1  0  0  0  0
 19 23  1  0  0  0  0
 19 24  2  0  0  0  0
 20 22  1  0  0  0  0
 20 23  1  0  0  0  0
 21 17  2  0  0  0  0
 22 18  1  0  0  0  0
 23 16  2  0  0  0  0
 24 21  1  0  0  0  0
 25 22  1  0  0  0  0
 26 27  1  0  0  0  0
 27 25  1  0  0  0  0
M  END
>  <MODEL>
9

>  <REMARK>
 VINA RESULT:      -8.8      1.606      2.151
  Name = 
  3 active torsions:
  status: ('A' for Active; 'I' for Inactive)
    1  A    between atoms: O_14  and  C_17
    2  A    between atoms: C_17  and  N_24
    3  A    between atoms: N_20  and  C_27
                            x       y       z     vdW  Elec       q    Type
                         _______ _______ _______ _____ _____    ______ ____

>  <TORSDO>
F 3

$$$$
