=
 OpenBabel10232410473D

 35 39  0  0  1  0  0  0  0  0999 V2000
  189.4570  177.8400  139.6920 C   0  0  2  0  0  0  0  0  0  0  0  0
  186.3050  178.9190  146.8830 C   0  0  0  0  0  3  0  0  0  0  0  0
  187.7940  177.1340  146.9640 C   0  0  0  0  0  0  0  0  0  0  0  0
  190.9560  178.5850  144.3960 N   0  0  0  0  0  0  0  0  0  0  0  0
  191.7070  176.9350  142.6790 C   0  0  0  0  0  2  0  0  0  0  0  0
  186.9010  177.8280  139.8940 C   0  0  0  0  0  2  0  0  0  0  0  0
  191.0070  176.6800  141.3530 C   0  0  0  0  0  2  0  0  0  0  0  0
  189.5720  176.8500  143.9760 N   0  0  0  0  0  0  0  0  0  0  0  0
  190.7420  177.4550  143.6930 C   0  0  0  0  0  0  0  0  0  0  0  0
  185.6250  178.4430  144.5240 C   0  0  0  0  0  2  0  0  0  0  0  0
  189.0250  177.6550  144.9010 C   0  0  0  0  0  0  0  0  0  0  0  0
  186.7150  177.8370  142.3630 C   0  0  0  0  0  2  0  0  0  0  0  0
  188.2120  177.3150  140.4620 C   0  0  2  0  0  3  0  0  0  0  0  0
  186.8070  178.6530  145.4580 C   0  0  2  0  0  3  0  0  0  0  0  0
  187.4550  178.4250  141.1760 C   0  0  1  0  0  3  0  0  0  0  0  0
  190.6060  177.9990  140.6990 C   0  0  0  0  0  2  0  0  0  0  0  0
  187.0230  178.0090  147.7560 N   0  0  0  0  0  0  0  0  0  0  0  0
  189.8640  178.7190  145.1710 C   0  0  0  0  0  2  0  0  0  0  0  0
  187.6830  177.3980  145.5140 C   0  0  2  0  0  3  0  0  0  0  0  0
  189.2130  179.1000  139.1290 O   0  0  0  0  0  1  0  0  0  0  0  0
  188.4830  176.2050  147.4600 O   0  0  0  0  0  0  0  0  0  0  0  0
  185.9490  178.9190  143.1170 C   0  0  1  0  0  3  0  0  0  0  0  0
  189.8610  176.8990  138.5680 C   0  0  0  0  0  0  0  0  0  0  0  0
  189.3030  175.2520  136.8610 C   0  0  0  0  0  3  0  0  0  0  0  0
  191.5710  176.0720  137.0400 C   0  0  0  0  0  3  0  0  0  0  0  0
  190.6350  175.2410  136.4190 C   0  0  0  0  0  0  0  0  0  0  0  0
  188.9210  176.0770  137.9220 C   0  0  0  0  0  3  0  0  0  0  0  0
  191.1870  176.8980  138.0990 C   0  0  0  0  0  3  0  0  0  0  0  0
  191.0510  174.4220  135.3650 O   0  0  0  0  0  0  0  0  0  0  0  0
  191.1700  173.0120  135.4900 C   0  0  0  0  0  1  0  0  0  0  0  0
  184.6460  179.2380  142.4040 C   0  0  0  0  0  2  0  0  0  0  0  0
  184.0530  178.0210  141.8740 N   0  0  0  0  0  2  0  0  0  0  0  0
  183.0740  178.4270  140.8820 C   0  0  0  0  0  2  0  0  0  0  0  0
  183.7030  179.3180  139.9050 C   0  0  0  0  0  0  0  0  0  0  0  0
  184.1960  180.0220  139.1310 N   0  0  0  0  0  0  0  0  0  0  0  0
  1 20  1  6  0  0  0
  1 13  1  0  0  0  0
  1 16  1  0  0  0  0
  2 17  2  0  0  0  0
  3 21  2  0  0  0  0
  3 17  1  0  0  0  0
  4 18  1  0  0  0  0
  5  9  1  0  0  0  0
  7  5  1  0  0  0  0
  8 11  2  0  0  0  0
  9  8  1  0  0  0  0
  9  4  2  0  0  0  0
 11 18  1  0  0  0  0
 12 22  1  0  0  0  0
 13  6  1  6  0  0  0
 13 15  1  0  0  0  0
 14 10  1  6  0  0  0
 14 19  1  0  0  0  0
 14  2  1  0  0  0  0
 15  6  1  6  0  0  0
 15 12  1  0  0  0  0
 16  7  1  0  0  0  0
 19 11  1  1  0  0  0
 19  3  1  0  0  0  0
 22 31  1  6  0  0  0
 22 10  1  0  0  0  0
 23  1  1  0  0  0  0
 24 27  1  0  0  0  0
 25 28  2  0  0  0  0
 26 24  2  0  0  0  0
 26 25  1  0  0  0  0
 27 23  2  0  0  0  0
 28 23  1  0  0  0  0
 29 30  1  0  0  0  0
 29 26  1  0  0  0  0
 32 31  1  0  0  0  0
 33 32  1  0  0  0  0
 34 33  1  0  0  0  0
 35 34  3  0  0  0  0
M  END
>  <MODEL>
1

>  <REMARK>
 VINA RESULT:      -6.9      0.000      0.000
  Name = 
  6 active torsions:
  status: ('A' for Active; 'I' for Inactive)
    1  A    between atoms: C_1  and  C_10
    2  A    between atoms: O_9  and  C_21
    3  A    between atoms: C_22  and  N_25
    4  A    between atoms: C_22  and  C_34
    5  A    between atoms: N_25  and  C_26
    6  A    between atoms: C_26  and  C_27
                            x       y       z     vdW  Elec       q    Type
                         _______ _______ _______ _____ _____    ______ ____

>  <TORSDO>
F 6

$$$$
=
 OpenBabel10232410473D

 35 39  0  0  1  0  0  0  0  0999 V2000
  184.0090  178.2140  139.6770 C   0  0  2  0  0  0  0  0  0  0  0  0
  191.4650  176.6510  141.8630 C   0  0  0  0  0  3  0  0  0  0  0  0
  190.5810  178.2720  143.2760 C   0  0  0  0  0  0  0  0  0  0  0  0
  186.5340  176.8250  143.7540 N   0  0  0  0  0  0  0  0  0  0  0  0
  184.7840  178.5760  143.4280 C   0  0  0  0  0  2  0  0  0  0  0  0
  185.8490  178.4390  137.9050 C   0  0  0  0  0  2  0  0  0  0  0  0
  184.2570  179.0370  142.0780 C   0  0  0  0  0  2  0  0  0  0  0  0
  187.1690  178.7150  142.6940 N   0  0  0  0  0  0  0  0  0  0  0  0
  186.1710  178.0390  143.2960 C   0  0  0  0  0  0  0  0  0  0  0  0
  190.1540  177.4420  139.8850 C   0  0  0  0  0  2  0  0  0  0  0  0
  188.2080  177.8680  142.7750 C   0  0  0  0  0  0  0  0  0  0  0  0
  187.8250  178.1780  139.3740 C   0  0  0  0  0  2  0  0  0  0  0  0
  185.4200  178.7640  139.3250 C   0  0  2  0  0  3  0  0  0  0  0  0
  190.0690  177.0230  141.3450 C   0  0  2  0  0  3  0  0  0  0  0  0
  186.4320  177.6570  139.0690 C   0  0  1  0  0  3  0  0  0  0  0  0
  184.0020  177.8410  141.1660 C   0  0  0  0  0  2  0  0  0  0  0  0
  191.6650  177.3900  143.0950 N   0  0  0  0  0  0  0  0  0  0  0  0
  187.8330  176.7080  143.4260 C   0  0  0  0  0  2  0  0  0  0  0  0
  189.5590  178.1790  142.2120 C   0  0  2  0  0  3  0  0  0  0  0  0
  183.7210  177.0510  138.9500 O   0  0  0  0  0  1  0  0  0  0  0  0
  190.5170  179.0740  144.2440 O   0  0  0  0  0  0  0  0  0  0  0  0
  188.8730  177.0950  139.1430 C   0  0  1  0  0  3  0  0  0  0  0  0
  182.9180  179.2310  139.3770 C   0  0  0  0  0  0  0  0  0  0  0  0
  180.5930  179.9520  139.4660 C   0  0  0  0  0  3  0  0  0  0  0  0
  182.2780  181.4450  138.5840 C   0  0  0  0  0  3  0  0  0  0  0  0
  180.9410  181.1860  138.8960 C   0  0  0  0  0  0  0  0  0  0  0  0
  181.5740  178.9870  139.7090 C   0  0  0  0  0  3  0  0  0  0  0  0
  183.2590  180.4800  138.8300 C   0  0  0  0  0  3  0  0  0  0  0  0
  179.9830  182.1700  138.6340 O   0  0  0  0  0  0  0  0  0  0  0  0
  180.2060  183.2320  137.7160 C   0  0  0  0  0  1  0  0  0  0  0  0
  189.1920  176.9760  137.6610 C   0  0  0  0  0  2  0  0  0  0  0  0
  188.6580  175.7320  137.1320 N   0  0  0  0  0  2  0  0  0  0  0  0
  189.6780  175.1710  136.2650 C   0  0  0  0  0  2  0  0  0  0  0  0
  190.7950  174.6790  137.0740 C   0  0  0  0  0  0  0  0  0  0  0  0
  191.6790  174.2900  137.7100 N   0  0  0  0  0  0  0  0  0  0  0  0
  1 20  1  6  0  0  0
  1 16  1  0  0  0  0
  2 17  2  0  0  0  0
  3 21  2  0  0  0  0
  7  5  1  0  0  0  0
  8 11  2  0  0  0  0
  8  9  1  0  0  0  0
  9  5  1  0  0  0  0
  9  4  2  0  0  0  0
 11 18  1  0  0  0  0
 13  6  1  6  0  0  0
 13  1  1  0  0  0  0
 14 10  1  6  0  0  0
 14  2  1  0  0  0  0
 14 19  1  0  0  0  0
 15  6  1  6  0  0  0
 15 13  1  0  0  0  0
 15 12  1  0  0  0  0
 16  7  1  0  0  0  0
 17  3  1  0  0  0  0
 18  4  1  0  0  0  0
 19 11  1  1  0  0  0
 19  3  1  0  0  0  0
 22 31  1  6  0  0  0
 22 12  1  0  0  0  0
 22 10  1  0  0  0  0
 23  1  1  0  0  0  0
 23 27  1  0  0  0  0
 24 27  2  0  0  0  0
 25 28  1  0  0  0  0
 25 26  2  0  0  0  0
 26 24  1  0  0  0  0
 28 23  2  0  0  0  0
 29 26  1  0  0  0  0
 30 29  1  0  0  0  0
 32 31  1  0  0  0  0
 33 34  1  0  0  0  0
 33 32  1  0  0  0  0
 34 35  3  0  0  0  0
M  END
>  <MODEL>
2

>  <REMARK>
 VINA RESULT:      -6.6      3.256      7.364
  Name = 
  6 active torsions:
  status: ('A' for Active; 'I' for Inactive)
    1  A    between atoms: C_1  and  C_10
    2  A    between atoms: O_9  and  C_21
    3  A    between atoms: C_22  and  N_25
    4  A    between atoms: C_22  and  C_34
    5  A    between atoms: N_25  and  C_26
    6  A    between atoms: C_26  and  C_27
                            x       y       z     vdW  Elec       q    Type
                         _______ _______ _______ _____ _____    ______ ____

>  <TORSDO>
F 6

$$$$
=
 OpenBabel10232410473D

 35 39  0  0  1  0  0  0  0  0999 V2000
  189.2490  177.9170  139.6590 C   0  0  2  0  0  0  0  0  0  0  0  0
  186.3440  178.8690  146.9710 C   0  0  0  0  0  3  0  0  0  0  0  0
  187.8530  177.1000  146.9760 C   0  0  0  0  0  0  0  0  0  0  0  0
  190.9070  178.6170  144.3170 N   0  0  0  0  0  0  0  0  0  0  0  0
  191.6130  176.9980  142.5520 C   0  0  0  0  0  2  0  0  0  0  0  0
  186.7020  177.8750  139.9510 C   0  0  0  0  0  2  0  0  0  0  0  0
  190.8690  176.7530  141.2490 C   0  0  0  0  0  2  0  0  0  0  0  0
  189.5270  176.8730  143.9230 N   0  0  0  0  0  0  0  0  0  0  0  0
  190.6790  177.4950  143.6060 C   0  0  0  0  0  0  0  0  0  0  0  0
  185.5850  178.4170  144.6320 C   0  0  0  0  0  2  0  0  0  0  0  0
  189.0040  177.6600  144.8770 C   0  0  0  0  0  0  0  0  0  0  0  0
  186.6040  177.8500  142.4250 C   0  0  0  0  0  2  0  0  0  0  0  0
  188.0380  177.3690  140.4660 C   0  0  2  0  0  3  0  0  0  0  0  0
  186.7970  178.6270  145.5260 C   0  0  2  0  0  3  0  0  0  0  0  0
  187.2950  178.4620  141.2200 C   0  0  1  0  0  3  0  0  0  0  0  0
  190.4310  178.0750  140.6260 C   0  0  0  0  0  2  0  0  0  0  0  0
  187.1020  177.9560  147.8060 N   0  0  0  0  0  0  0  0  0  0  0  0
  189.8410  178.7300  145.1310 C   0  0  0  0  0  2  0  0  0  0  0  0
  187.6880  177.3810  145.5340 C   0  0  2  0  0  3  0  0  0  0  0  0
  188.9720  179.1820  139.1220 O   0  0  0  0  0  1  0  0  0  0  0  0
  188.5690  176.1720  147.4340 O   0  0  0  0  0  0  0  0  0  0  0  0
  185.8550  178.9140  143.2200 C   0  0  1  0  0  3  0  0  0  0  0  0
  189.6220  176.9950  138.5090 C   0  0  0  0  0  0  0  0  0  0  0  0
  189.0210  175.3600  136.8050 C   0  0  0  0  0  3  0  0  0  0  0  0
  191.2830  176.2100  136.9060 C   0  0  0  0  0  3  0  0  0  0  0  0
  190.3350  175.3740  136.3110 C   0  0  0  0  0  0  0  0  0  0  0  0
  188.6690  176.1680  137.8890 C   0  0  0  0  0  3  0  0  0  0  0  0
  190.9290  177.0190  137.9900 C   0  0  0  0  0  3  0  0  0  0  0  0
  190.7220  174.5730  135.2330 O   0  0  0  0  0  0  0  0  0  0  0  0
  192.0750  174.2110  134.9930 C   0  0  0  0  0  1  0  0  0  0  0  0
  184.5230  179.2290  142.5580 C   0  0  0  0  0  2  0  0  0  0  0  0
  183.4410  179.0870  143.5180 N   0  0  0  0  0  2  0  0  0  0  0  0
  182.2010  179.1300  142.7640 C   0  0  0  0  0  2  0  0  0  0  0  0
  181.0880  178.7170  143.6220 C   0  0  0  0  0  0  0  0  0  0  0  0
  180.2100  178.3880  144.2980 N   0  0  0  0  0  0  0  0  0  0  0  0
  1 20  1  6  0  0  0
  1 13  1  0  0  0  0
  1 16  1  0  0  0  0
  2 17  2  0  0  0  0
  3 21  2  0  0  0  0
  3 17  1  0  0  0  0
  4 18  1  0  0  0  0
  5  9  1  0  0  0  0
  7  5  1  0  0  0  0
  8 11  2  0  0  0  0
  9  8  1  0  0  0  0
  9  4  2  0  0  0  0
 11 18  1  0  0  0  0
 12 22  1  0  0  0  0
 13  6  1  6  0  0  0
 13 15  1  0  0  0  0
 14 10  1  6  0  0  0
 14 19  1  0  0  0  0
 14  2  1  0  0  0  0
 15  6  1  6  0  0  0
 15 12  1  0  0  0  0
 16  7  1  0  0  0  0
 19 11  1  1  0  0  0
 19  3  1  0  0  0  0
 22 31  1  6  0  0  0
 22 10  1  0  0  0  0
 23  1  1  0  0  0  0
 24 27  1  0  0  0  0
 25 28  2  0  0  0  0
 26 24  2  0  0  0  0
 26 25  1  0  0  0  0
 27 23  2  0  0  0  0
 28 23  1  0  0  0  0
 29 26  1  0  0  0  0
 30 29  1  0  0  0  0
 31 32  1  0  0  0  0
 33 32  1  0  0  0  0
 33 34  1  0  0  0  0
 34 35  3  0  0  0  0
M  END
>  <MODEL>
3

>  <REMARK>
 VINA RESULT:      -6.5      1.135      1.502
  Name = 
  6 active torsions:
  status: ('A' for Active; 'I' for Inactive)
    1  A    between atoms: C_1  and  C_10
    2  A    between atoms: O_9  and  C_21
    3  A    between atoms: C_22  and  N_25
    4  A    between atoms: C_22  and  C_34
    5  A    between atoms: N_25  and  C_26
    6  A    between atoms: C_26  and  C_27
                            x       y       z     vdW  Elec       q    Type
                         _______ _______ _______ _____ _____    ______ ____

>  <TORSDO>
F 6

$$$$
=
 OpenBabel10232410473D

 35 39  0  0  1  0  0  0  0  0999 V2000
  189.7820  178.3000  142.4900 C   0  0  2  0  0  0  0  0  0  0  0  0
  190.9920  176.1290  134.9640 C   0  0  0  0  0  3  0  0  0  0  0  0
  188.8190  175.5740  135.5760 C   0  0  0  0  0  0  0  0  0  0  0  0
  187.7440  179.0000  137.9850 N   0  0  0  0  0  0  0  0  0  0  0  0
  186.7070  178.4140  140.1800 C   0  0  0  0  0  2  0  0  0  0  0  0
  191.7690  176.7570  141.9920 C   0  0  0  0  0  2  0  0  0  0  0  0
  187.4800  178.0180  141.4280 C   0  0  0  0  0  2  0  0  0  0  0  0
  188.0290  176.8810  138.7130 N   0  0  0  0  0  0  0  0  0  0  0  0
  187.4930  178.0940  138.9510 C   0  0  0  0  0  0  0  0  0  0  0  0
  191.9030  175.7390  137.2600 C   0  0  0  0  0  2  0  0  0  0  0  0
  188.6570  177.0470  137.5380 C   0  0  0  0  0  0  0  0  0  0  0  0
  191.2730  176.2510  139.6200 C   0  0  0  0  0  2  0  0  0  0  0  0
  190.2940  177.0270  141.7570 C   0  0  2  0  0  3  0  0  0  0  0  0
  190.8230  176.4460  136.4550 C   0  0  2  0  0  3  0  0  0  0  0  0
  191.3090  177.3470  140.6700 C   0  0  1  0  0  3  0  0  0  0  0  0
  188.6830  178.9350  141.6260 C   0  0  0  0  0  2  0  0  0  0  0  0
  189.6980  175.6860  134.4810 N   0  0  0  0  0  0  0  0  0  0  0  0
  188.4870  178.3390  137.0790 C   0  0  0  0  0  2  0  0  0  0  0  0
  189.4310  175.9560  136.8660 C   0  0  2  0  0  3  0  0  0  0  0  0
  190.8040  179.2480  142.6350 O   0  0  0  0  0  1  0  0  0  0  0  0
  187.6370  175.1610  135.4540 O   0  0  0  0  0  0  0  0  0  0  0  0
  192.2690  176.5370  138.5020 C   0  0  1  0  0  3  0  0  0  0  0  0
  189.2480  177.9750  143.8760 C   0  0  0  0  0  0  0  0  0  0  0  0
  187.4410  177.2880  145.3590 C   0  0  0  0  0  3  0  0  0  0  0  0
  189.6670  177.6040  146.2490 C   0  0  0  0  0  3  0  0  0  0  0  0
  188.3230  177.2810  146.4500 C   0  0  0  0  0  0  0  0  0  0  0  0
  187.9020  177.6250  144.0840 C   0  0  0  0  0  3  0  0  0  0  0  0
  190.1280  177.9400  144.9730 C   0  0  0  0  0  3  0  0  0  0  0  0
  187.8930  176.9540  147.7390 O   0  0  0  0  0  0  0  0  0  0  0  0
  187.8570  177.8990  148.8000 C   0  0  0  0  0  1  0  0  0  0  0  0
  193.6730  176.1420  138.9310 C   0  0  0  0  0  2  0  0  0  0  0  0
  194.3370  175.4130  137.8620 N   0  0  0  0  0  2  0  0  0  0  0  0
  194.9670  174.2550  138.4710 C   0  0  0  0  0  2  0  0  0  0  0  0
  196.0090  174.6940  139.4010 C   0  0  0  0  0  0  0  0  0  0  0  0
  196.8350  175.0390  140.1330 N   0  0  0  0  0  0  0  0  0  0  0  0
  1 20  1  1  0  0  0
  1 23  1  0  0  0  0
  4  9  2  0  0  0  0
  5  7  1  0  0  0  0
  7 16  1  0  0  0  0
  8  9  1  0  0  0  0
  9  5  1  0  0  0  0
 10 22  1  0  0  0  0
 11  8  2  0  0  0  0
 13  6  1  1  0  0  0
 13  1  1  0  0  0  0
 14  2  1  6  0  0  0
 14 19  1  0  0  0  0
 14 10  1  0  0  0  0
 15 12  1  6  0  0  0
 15 13  1  0  0  0  0
 15  6  1  0  0  0  0
 16  1  1  0  0  0  0
 17  2  2  0  0  0  0
 17  3  1  0  0  0  0
 18 11  1  0  0  0  0
 18  4  1  0  0  0  0
 19  3  1  6  0  0  0
 19 11  1  0  0  0  0
 21  3  2  0  0  0  0
 22 31  1  1  0  0  0
 22 12  1  0  0  0  0
 23 27  2  0  0  0  0
 23 28  1  0  0  0  0
 24 26  2  0  0  0  0
 25 26  1  0  0  0  0
 26 29  1  0  0  0  0
 27 24  1  0  0  0  0
 28 25  2  0  0  0  0
 29 30  1  0  0  0  0
 32 33  1  0  0  0  0
 32 31  1  0  0  0  0
 33 34  1  0  0  0  0
 34 35  3  0  0  0  0
M  END
>  <MODEL>
4

>  <REMARK>
 VINA RESULT:      -6.5      3.187      9.137
  Name = 
  6 active torsions:
  status: ('A' for Active; 'I' for Inactive)
    1  A    between atoms: C_1  and  C_10
    2  A    between atoms: O_9  and  C_21
    3  A    between atoms: C_22  and  N_25
    4  A    between atoms: C_22  and  C_34
    5  A    between atoms: N_25  and  C_26
    6  A    between atoms: C_26  and  C_27
                            x       y       z     vdW  Elec       q    Type
                         _______ _______ _______ _____ _____    ______ ____

>  <TORSDO>
F 6

$$$$
=
 OpenBabel10232410473D

 35 39  0  0  1  0  0  0  0  0999 V2000
  187.7240  178.3670  140.5890 C   0  0  2  0  0  0  0  0  0  0  0  0
  190.1130  177.5420  148.1010 C   0  0  0  0  0  3  0  0  0  0  0  0
  191.4390  176.2120  146.7290 C   0  0  0  0  0  0  0  0  0  0  0  0
  191.9040  178.7880  143.2870 N   0  0  0  0  0  0  0  0  0  0  0  0
  191.4700  177.6550  141.1050 C   0  0  0  0  0  2  0  0  0  0  0  0
  185.9790  177.6630  142.3310 C   0  0  0  0  0  2  0  0  0  0  0  0
  190.0920  177.4210  140.5050 C   0  0  0  0  0  2  0  0  0  0  0  0
  190.7750  176.8330  143.3610 N   0  0  0  0  0  0  0  0  0  0  0  0
  191.3870  177.7550  142.5930 C   0  0  0  0  0  0  0  0  0  0  0  0
  188.0790  177.2520  146.6740 C   0  0  0  0  0  2  0  0  0  0  0  0
  190.9120  177.3260  144.6020 C   0  0  0  0  0  0  0  0  0  0  0  0
  187.4940  177.2670  144.2480 C   0  0  0  0  0  2  0  0  0  0  0  0
  187.3750  177.4310  141.7810 C   0  0  2  0  0  3  0  0  0  0  0  0
  189.5540  177.6240  146.6740 C   0  0  2  0  0  3  0  0  0  0  0  0
  187.1860  178.1930  143.0850 C   0  0  1  0  0  3  0  0  0  0  0  0
  189.2280  178.6710  140.6480 C   0  0  0  0  0  2  0  0  0  0  0  0
  191.3160  176.7330  148.0330 N   0  0  0  0  0  0  0  0  0  0  0  0
  191.6050  178.5210  144.5720 C   0  0  0  0  0  2  0  0  0  0  0  0
  190.3600  176.6440  145.8160 C   0  0  2  0  0  3  0  0  0  0  0  0
  187.0430  179.5880  140.6840 O   0  0  0  0  0  1  0  0  0  0  0  0
  192.3700  175.4320  146.3990 O   0  0  0  0  0  0  0  0  0  0  0  0
  187.3290  177.9930  145.5790 C   0  0  1  0  0  3  0  0  0  0  0  0
  187.3610  177.7350  139.2540 C   0  0  0  0  0  0  0  0  0  0  0  0
  185.8580  177.4810  137.3530 C   0  0  0  0  0  3  0  0  0  0  0  0
  187.9840  176.3300  137.3620 C   0  0  0  0  0  3  0  0  0  0  0  0
  186.7720  176.6180  136.7300 C   0  0  0  0  0  0  0  0  0  0  0  0
  186.1540  178.0380  138.6000 C   0  0  0  0  0  3  0  0  0  0  0  0
  188.2800  176.8890  138.6080 C   0  0  0  0  0  3  0  0  0  0  0  0
  186.5040  176.0390  135.4860 O   0  0  0  0  0  0  0  0  0  0  0  0
  185.5890  174.9640  135.3210 C   0  0  0  0  0  1  0  0  0  0  0  0
  185.8600  178.0630  145.9640 C   0  0  0  0  0  2  0  0  0  0  0  0
  185.4610  179.4470  146.1670 N   0  0  0  0  0  2  0  0  0  0  0  0
  184.9060  179.9130  144.9100 C   0  0  0  0  0  2  0  0  0  0  0  0
  183.6210  179.2560  144.6650 C   0  0  0  0  0  0  0  0  0  0  0  0
  182.6040  178.7400  144.4710 N   0  0  0  0  0  0  0  0  0  0  0  0
  1 16  1  0  0  0  0
  1 20  1  1  0  0  0
  1 13  1  0  0  0  0
  3 17  1  0  0  0  0
  4 18  1  0  0  0  0
  5  9  1  0  0  0  0
  7 16  1  0  0  0  0
  7  5  1  0  0  0  0
  8 11  2  0  0  0  0
  9  4  2  0  0  0  0
  9  8  1  0  0  0  0
 12 22  1  0  0  0  0
 13  6  1  6  0  0  0
 13 15  1  0  0  0  0
 14 10  1  1  0  0  0
 14  2  1  0  0  0  0
 15  6  1  1  0  0  0
 15 12  1  0  0  0  0
 17  2  2  0  0  0  0
 18 11  1  0  0  0  0
 19 11  1  6  0  0  0
 19 14  1  0  0  0  0
 19  3  1  0  0  0  0
 21  3  2  0  0  0  0
 22 31  1  1  0  0  0
 22 10  1  0  0  0  0
 23  1  1  0  0  0  0
 24 27  1  0  0  0  0
 25 28  2  0  0  0  0
 26 24  2  0  0  0  0
 26 25  1  0  0  0  0
 27 23  2  0  0  0  0
 28 23  1  0  0  0  0
 29 26  1  0  0  0  0
 30 29  1  0  0  0  0
 31 32  1  0  0  0  0
 33 32  1  0  0  0  0
 34 33  1  0  0  0  0
 35 34  3  0  0  0  0
M  END
>  <MODEL>
5

>  <REMARK>
 VINA RESULT:      -6.4      2.437      3.405
  Name = 
  6 active torsions:
  status: ('A' for Active; 'I' for Inactive)
    1  A    between atoms: C_1  and  C_10
    2  A    between atoms: O_9  and  C_21
    3  A    between atoms: C_22  and  N_25
    4  A    between atoms: C_22  and  C_34
    5  A    between atoms: N_25  and  C_26
    6  A    between atoms: C_26  and  C_27
                            x       y       z     vdW  Elec       q    Type
                         _______ _______ _______ _____ _____    ______ ____

>  <TORSDO>
F 6

$$$$
=
 OpenBabel10232410473D

 35 39  0  0  1  0  0  0  0  0999 V2000
  183.7680  178.9230  139.2670 C   0  0  2  0  0  0  0  0  0  0  0  0
  189.5070  177.9200  144.6400 C   0  0  0  0  0  3  0  0  0  0  0  0
  189.8900  176.4960  142.8430 C   0  0  0  0  0  0  0  0  0  0  0  0
  188.7530  179.0310  139.5290 N   0  0  0  0  0  0  0  0  0  0  0  0
  187.2220  177.9340  137.8900 C   0  0  0  0  0  2  0  0  0  0  0  0
  183.0740  178.3510  141.6680 C   0  0  0  0  0  2  0  0  0  0  0  0
  185.7160  177.8040  138.0590 C   0  0  0  0  0  2  0  0  0  0  0  0
  187.6850  177.1660  140.2220 N   0  0  0  0  0  0  0  0  0  0  0  0
  187.8940  178.0400  139.2190 C   0  0  0  0  0  0  0  0  0  0  0  0
  187.0200  177.7830  144.4180 C   0  0  0  0  0  2  0  0  0  0  0  0
  188.4510  177.6470  141.2150 C   0  0  0  0  0  0  0  0  0  0  0  0
  185.3120  177.8420  142.5990 C   0  0  0  0  0  2  0  0  0  0  0  0
  183.9960  178.0160  140.5100 C   0  0  2  0  0  3  0  0  0  0  0  0
  188.3210  178.0440  143.6750 C   0  0  2  0  0  3  0  0  0  0  0  0
  184.5280  178.7880  141.7070 C   0  0  1  0  0  3  0  0  0  0  0  0
  185.1200  179.1150  138.5650 C   0  0  0  0  0  2  0  0  0  0  0  0
  190.4630  177.0250  144.0170 N   0  0  0  0  0  0  0  0  0  0  0  0
  189.1140  178.7870  140.8020 C   0  0  0  0  0  2  0  0  0  0  0  0
  188.5310  177.0080  142.5660 C   0  0  2  0  0  3  0  0  0  0  0  0
  183.3050  180.1910  139.6420 O   0  0  0  0  0  1  0  0  0  0  0  0
  190.4820  175.6490  142.1240 O   0  0  0  0  0  0  0  0  0  0  0  0
  185.8750  178.5780  143.8100 C   0  0  1  0  0  3  0  0  0  0  0  0
  182.7510  178.3210  138.3100 C   0  0  0  0  0  0  0  0  0  0  0  0
  181.1780  178.5290  136.4610 C   0  0  0  0  0  3  0  0  0  0  0  0
  181.6300  176.3520  137.4110 C   0  0  0  0  0  3  0  0  0  0  0  0
  180.9460  177.1450  136.4870 C   0  0  0  0  0  0  0  0  0  0  0  0
  182.0770  179.1090  137.3610 C   0  0  0  0  0  3  0  0  0  0  0  0
  182.5290  176.9320  138.3090 C   0  0  0  0  0  3  0  0  0  0  0  0
  180.0490  176.5360  135.6050 O   0  0  0  0  0  0  0  0  0  0  0  0
  180.4460  175.5360  134.6760 C   0  0  0  0  0  1  0  0  0  0  0  0
  184.7980  178.7570  144.8680 C   0  0  0  0  0  2  0  0  0  0  0  0
  185.3540  179.4120  146.0420 N   0  0  0  0  0  2  0  0  0  0  0  0
  185.4030  178.4150  147.0960 C   0  0  0  0  0  2  0  0  0  0  0  0
  186.7320  178.4130  147.7110 C   0  0  0  0  0  0  0  0  0  0  0  0
  187.7800  178.4090  148.1980 N   0  0  0  0  0  0  0  0  0  0  0  0
  1 20  1  1  0  0  0
  1 13  1  0  0  0  0
  3 17  1  0  0  0  0
  4 18  1  0  0  0  0
  5  7  1  0  0  0  0
  5  9  1  0  0  0  0
  7 16  1  0  0  0  0
  8 11  2  0  0  0  0
  9  4  2  0  0  0  0
  9  8  1  0  0  0  0
 12 22  1  0  0  0  0
 13  6  1  1  0  0  0
 13 15  1  0  0  0  0
 14 10  1  1  0  0  0
 14  2  1  0  0  0  0
 15  6  1  1  0  0  0
 15 12  1  0  0  0  0
 16  1  1  0  0  0  0
 17  2  2  0  0  0  0
 18 11  1  0  0  0  0
 19 11  1  6  0  0  0
 19  3  1  0  0  0  0
 19 14  1  0  0  0  0
 21  3  2  0  0  0  0
 22 10  1  0  0  0  0
 22 31  1  1  0  0  0
 23  1  1  0  0  0  0
 24 26  2  0  0  0  0
 24 27  1  0  0  0  0
 25 28  2  0  0  0  0
 26 25  1  0  0  0  0
 27 23  2  0  0  0  0
 28 23  1  0  0  0  0
 29 26  1  0  0  0  0
 30 29  1  0  0  0  0
 31 32  1  0  0  0  0
 32 33  1  0  0  0  0
 33 34  1  0  0  0  0
 34 35  3  0  0  0  0
M  END
>  <MODEL>
6

>  <REMARK>
 VINA RESULT:      -6.4      3.306      6.340
  Name = 
  6 active torsions:
  status: ('A' for Active; 'I' for Inactive)
    1  A    between atoms: C_1  and  C_10
    2  A    between atoms: O_9  and  C_21
    3  A    between atoms: C_22  and  N_25
    4  A    between atoms: C_22  and  C_34
    5  A    between atoms: N_25  and  C_26
    6  A    between atoms: C_26  and  C_27
                            x       y       z     vdW  Elec       q    Type
                         _______ _______ _______ _____ _____    ______ ____

>  <TORSDO>
F 6

$$$$
=
 OpenBabel10232410473D

 35 39  0  0  1  0  0  0  0  0999 V2000
  185.1100  179.3130  143.1080 C   0  0  2  0  0  0  0  0  0  0  0  0
  182.0150  177.6550  136.0030 C   0  0  0  0  0  3  0  0  0  0  0  0
  180.8630  176.4610  137.6330 C   0  0  0  0  0  0  0  0  0  0  0  0
  180.6770  179.3850  140.8130 N   0  0  0  0  0  0  0  0  0  0  0  0
  181.3500  178.4990  143.0480 C   0  0  0  0  0  2  0  0  0  0  0  0
  186.6930  178.4510  141.2840 C   0  0  0  0  0  2  0  0  0  0  0  0
  182.7860  178.3500  143.5280 C   0  0  0  0  0  2  0  0  0  0  0  0
  181.8400  177.4490  140.8330 N   0  0  0  0  0  0  0  0  0  0  0  0
  181.2850  178.4400  141.5570 C   0  0  0  0  0  0  0  0  0  0  0  0
  184.1860  177.5470  137.2410 C   0  0  0  0  0  2  0  0  0  0  0  0
  181.5690  177.8050  139.5670 C   0  0  0  0  0  0  0  0  0  0  0  0
  185.0060  177.8300  139.5800 C   0  0  0  0  0  2  0  0  0  0  0  0
  185.3630  178.2600  141.9920 C   0  0  2  0  0  3  0  0  0  0  0  0
  182.7100  177.8970  137.3490 C   0  0  2  0  0  3  0  0  0  0  0  0
  185.4040  178.8790  140.6030 C   0  0  1  0  0  3  0  0  0  0  0  0
  183.6010  179.5880  143.1680 C   0  0  0  0  0  2  0  0  0  0  0  0
  180.8450  176.8420  136.2760 N   0  0  0  0  0  0  0  0  0  0  0  0
  180.8540  178.9860  139.5410 C   0  0  0  0  0  2  0  0  0  0  0  0
  182.0150  177.0040  138.3830 C   0  0  2  0  0  3  0  0  0  0  0  0
  185.7490  180.5260  142.8170 O   0  0  0  0  0  1  0  0  0  0  0  0
  179.9880  175.7090  138.1350 O   0  0  0  0  0  0  0  0  0  0  0  0
  185.0220  178.4120  138.1710 C   0  0  1  0  0  3  0  0  0  0  0  0
  185.6180  178.8330  144.4590 C   0  0  0  0  0  0  0  0  0  0  0  0
  186.9760  177.3340  145.8170 C   0  0  0  0  0  3  0  0  0  0  0  0
  185.7720  179.1470  146.8720 C   0  0  0  0  0  3  0  0  0  0  0  0
  186.6160  178.0380  146.9770 C   0  0  0  0  0  0  0  0  0  0  0  0
  186.4860  177.7330  144.5710 C   0  0  0  0  0  3  0  0  0  0  0  0
  185.2840  179.5460  145.6240 C   0  0  0  0  0  3  0  0  0  0  0  0
  187.0840  177.6610  148.2390 O   0  0  0  0  0  0  0  0  0  0  0  0
  188.4030  177.9440  148.6830 C   0  0  0  0  0  1  0  0  0  0  0  0
  186.4440  178.4600  137.6350 C   0  0  0  0  0  2  0  0  0  0  0  0
  187.0700  177.1540  137.7580 N   0  0  0  0  0  2  0  0  0  0  0  0
  188.4700  177.3240  137.4160 C   0  0  0  0  0  2  0  0  0  0  0  0
  189.2420  177.6090  138.6280 C   0  0  0  0  0  0  0  0  0  0  0  0
  189.8520  177.8370  139.5830 N   0  0  0  0  0  0  0  0  0  0  0  0
  1 20  1  6  0  0  0
  1 16  1  0  0  0  0
  1 23  1  0  0  0  0
  2 17  2  0  0  0  0
  3 21  2  0  0  0  0
  4  9  2  0  0  0  0
  5  7  1  0  0  0  0
  8  9  1  0  0  0  0
  9  5  1  0  0  0  0
 10 14  1  0  0  0  0
 10 22  1  0  0  0  0
 11  8  2  0  0  0  0
 13  6  1  1  0  0  0
 13  1  1  0  0  0  0
 14  2  1  6  0  0  0
 14 19  1  0  0  0  0
 15 12  1  6  0  0  0
 15  6  1  0  0  0  0
 15 13  1  0  0  0  0
 16  7  1  0  0  0  0
 17  3  1  0  0  0  0
 18 11  1  0  0  0  0
 18  4  1  0  0  0  0
 19  3  1  6  0  0  0
 19 11  1  0  0  0  0
 22 31  1  6  0  0  0
 22 12  1  0  0  0  0
 23 27  2  0  0  0  0
 23 28  1  0  0  0  0
 24 26  2  0  0  0  0
 25 26  1  0  0  0  0
 26 29  1  0  0  0  0
 27 24  1  0  0  0  0
 28 25  2  0  0  0  0
 29 30  1  0  0  0  0
 31 32  1  0  0  0  0
 33 32  1  0  0  0  0
 33 34  1  0  0  0  0
 34 35  3  0  0  0  0
M  END
>  <MODEL>
7

>  <REMARK>
 VINA RESULT:      -6.4      3.610      8.951
  Name = 
  6 active torsions:
  status: ('A' for Active; 'I' for Inactive)
    1  A    between atoms: C_1  and  C_10
    2  A    between atoms: O_9  and  C_21
    3  A    between atoms: C_22  and  N_25
    4  A    between atoms: C_22  and  C_34
    5  A    between atoms: N_25  and  C_26
    6  A    between atoms: C_26  and  C_27
                            x       y       z     vdW  Elec       q    Type
                         _______ _______ _______ _____ _____    ______ ____

>  <TORSDO>
F 6

$$$$
=
 OpenBabel10232410473D

 35 39  0  0  1  0  0  0  0  0999 V2000
  186.8890  178.6320  140.7980 C   0  0  2  0  0  0  0  0  0  0  0  0
  191.5690  176.5740  146.8540 C   0  0  0  0  0  3  0  0  0  0  0  0
  191.8690  175.0630  145.1130 C   0  0  0  0  0  0  0  0  0  0  0  0
  191.7140  177.7080  141.6950 N   0  0  0  0  0  0  0  0  0  0  0  0
  190.2060  176.9180  139.8670 C   0  0  0  0  0  2  0  0  0  0  0  0
  185.7950  178.2680  143.0880 C   0  0  0  0  0  2  0  0  0  0  0  0
  188.6970  177.1070  139.8420 C   0  0  0  0  0  2  0  0  0  0  0  0
  190.2010  176.1200  142.2360 N   0  0  0  0  0  0  0  0  0  0  0  0
  190.7120  176.9100  141.2720 C   0  0  0  0  0  0  0  0  0  0  0  0
  189.1560  176.9520  146.3150 C   0  0  0  0  0  2  0  0  0  0  0  0
  190.9190  176.4530  143.3210 C   0  0  0  0  0  0  0  0  0  0  0  0
  187.7410  177.3260  144.2940 C   0  0  0  0  0  2  0  0  0  0  0  0
  186.7650  177.7240  142.0550 C   0  0  2  0  0  3  0  0  0  0  0  0
  190.5660  176.9210  145.7460 C   0  0  2  0  0  3  0  0  0  0  0  0
  187.2910  178.3950  143.3150 C   0  0  1  0  0  3  0  0  0  0  0  0
  188.3290  178.5230  140.2750 C   0  0  0  0  0  2  0  0  0  0  0  0
  192.3880  175.4870  146.3530 N   0  0  0  0  0  0  0  0  0  0  0  0
  191.8520  177.4210  143.0020 C   0  0  0  0  0  2  0  0  0  0  0  0
  190.6930  175.8400  144.6680 C   0  0  2  0  0  3  0  0  0  0  0  0
  186.6580  179.9770  141.1170 O   0  0  0  0  0  1  0  0  0  0  0  0
  192.3570  174.0960  144.4710 O   0  0  0  0  0  0  0  0  0  0  0  0
  188.2890  177.9550  145.5710 C   0  0  1  0  0  3  0  0  0  0  0  0
  185.8980  178.2340  139.7160 C   0  0  0  0  0  0  0  0  0  0  0  0
  185.3840  177.6300  137.4120 C   0  0  0  0  0  3  0  0  0  0  0  0
  183.6400  177.5660  139.0860 C   0  0  0  0  0  3  0  0  0  0  0  0
  184.0440  177.3970  137.7590 C   0  0  0  0  0  0  0  0  0  0  0  0
  186.3020  178.0380  138.3830 C   0  0  0  0  0  3  0  0  0  0  0  0
  184.5590  177.9730  140.0570 C   0  0  0  0  0  3  0  0  0  0  0  0
  183.0990  176.9940  136.8110 O   0  0  0  0  0  0  0  0  0  0  0  0
  183.3680  176.9890  135.4150 C   0  0  0  0  0  1  0  0  0  0  0  0
  187.1490  178.3760  146.4840 C   0  0  0  0  0  2  0  0  0  0  0  0
  186.0550  177.4240  146.3910 N   0  0  0  0  0  2  0  0  0  0  0  0
  184.9060  178.0380  147.0310 C   0  0  0  0  0  2  0  0  0  0  0  0
  184.0550  178.6670  146.0180 C   0  0  0  0  0  0  0  0  0  0  0  0
  183.3810  179.1630  145.2210 N   0  0  0  0  0  0  0  0  0  0  0  0
  1 20  1  1  0  0  0
  1 13  1  0  0  0  0
  3 17  1  0  0  0  0
  4 18  1  0  0  0  0
  5  9  1  0  0  0  0
  7  5  1  0  0  0  0
  7 16  1  0  0  0  0
  8 11  2  0  0  0  0
  9  4  2  0  0  0  0
  9  8  1  0  0  0  0
 12 22  1  0  0  0  0
 13  6  1  1  0  0  0
 13 15  1  0  0  0  0
 14 10  1  1  0  0  0
 14  2  1  0  0  0  0
 15  6  1  1  0  0  0
 15 12  1  0  0  0  0
 16  1  1  0  0  0  0
 17  2  2  0  0  0  0
 18 11  1  0  0  0  0
 19 11  1  6  0  0  0
 19  3  1  0  0  0  0
 19 14  1  0  0  0  0
 21  3  2  0  0  0  0
 22 10  1  0  0  0  0
 22 31  1  1  0  0  0
 23 28  1  0  0  0  0
 23  1  1  0  0  0  0
 24 26  2  0  0  0  0
 24 27  1  0  0  0  0
 25 28  2  0  0  0  0
 26 25  1  0  0  0  0
 27 23  2  0  0  0  0
 29 26  1  0  0  0  0
 30 29  1  0  0  0  0
 32 31  1  0  0  0  0
 32 33  1  0  0  0  0
 34 33  1  0  0  0  0
 35 34  3  0  0  0  0
M  END
>  <MODEL>
8

>  <REMARK>
 VINA RESULT:      -6.3      2.880      4.848
  Name = 
  6 active torsions:
  status: ('A' for Active; 'I' for Inactive)
    1  A    between atoms: C_1  and  C_10
    2  A    between atoms: O_9  and  C_21
    3  A    between atoms: C_22  and  N_25
    4  A    between atoms: C_22  and  C_34
    5  A    between atoms: N_25  and  C_26
    6  A    between atoms: C_26  and  C_27
                            x       y       z     vdW  Elec       q    Type
                         _______ _______ _______ _____ _____    ______ ____

>  <TORSDO>
F 6

$$$$
=
 OpenBabel10232410473D

 35 39  0  0  1  0  0  0  0  0999 V2000
  189.5950  178.2020  144.1820 C   0  0  2  0  0  0  0  0  0  0  0  0
  184.1440  178.9040  138.4710 C   0  0  0  0  0  3  0  0  0  0  0  0
  183.2860  177.5890  140.1860 C   0  0  0  0  0  0  0  0  0  0  0  0
  184.8450  179.6460  143.6560 N   0  0  0  0  0  0  0  0  0  0  0  0
  185.9240  178.1390  145.3300 C   0  0  0  0  0  2  0  0  0  0  0  0
  190.2610  177.5250  141.8000 C   0  0  0  0  0  2  0  0  0  0  0  0
  187.3480  177.6150  145.2370 C   0  0  0  0  0  2  0  0  0  0  0  0
  185.4200  177.5800  142.9460 N   0  0  0  0  0  0  0  0  0  0  0  0
  185.3890  178.4540  143.9710 C   0  0  0  0  0  0  0  0  0  0  0  0
  186.4870  178.1010  138.8220 C   0  0  0  0  0  2  0  0  0  0  0  0
  184.8730  178.2730  141.9350 C   0  0  0  0  0  0  0  0  0  0  0  0
  188.0320  177.6570  140.7300 C   0  0  0  0  0  2  0  0  0  0  0  0
  189.2130  177.4200  142.8930 C   0  0  2  0  0  3  0  0  0  0  0  0
  185.2580  178.6820  139.5030 C   0  0  2  0  0  3  0  0  0  0  0  0
  188.9810  178.3360  141.7000 C   0  0  1  0  0  3  0  0  0  0  0  0
  188.3020  178.7300  144.8170 C   0  0  0  0  0  2  0  0  0  0  0  0
  182.9480  178.2820  139.0060 N   0  0  0  0  0  0  0  0  0  0  0  0
  184.5120  179.5380  142.3570 C   0  0  0  0  0  2  0  0  0  0  0  0
  184.7110  177.7120  140.5560 C   0  0  2  0  0  3  0  0  0  0  0  0
  190.4010  179.3090  143.8840 O   0  0  0  0  0  1  0  0  0  0  0  0
  182.4460  176.9140  140.8370 O   0  0  0  0  0  0  0  0  0  0  0  0
  187.7610  178.5460  139.5210 C   0  0  1  0  0  3  0  0  0  0  0  0
  190.3540  177.3260  145.1660 C   0  0  0  0  0  0  0  0  0  0  0  0
  191.9880  175.5860  145.6530 C   0  0  0  0  0  3  0  0  0  0  0  0
  190.9250  176.7740  147.4710 C   0  0  0  0  0  3  0  0  0  0  0  0
  191.8150  175.7910  147.0300 C   0  0  0  0  0  0  0  0  0  0  0  0
  191.2690  176.3510  144.7310 C   0  0  0  0  0  3  0  0  0  0  0  0
  190.2070  177.5400  146.5490 C   0  0  0  0  0  3  0  0  0  0  0  0
  192.5150  175.0380  147.9780 O   0  0  0  0  0  0  0  0  0  0  0  0
  193.2380  175.6330  149.0470 C   0  0  0  0  0  1  0  0  0  0  0  0
  188.9110  178.4570  138.5310 C   0  0  0  0  0  2  0  0  0  0  0  0
  188.5290  177.6360  137.3930 N   0  0  0  0  0  2  0  0  0  0  0  0
  189.7570  177.1190  136.8170 C   0  0  0  0  0  2  0  0  0  0  0  0
  190.3700  176.1620  137.7400 C   0  0  0  0  0  0  0  0  0  0  0  0
  190.8570  175.4100  138.4710 N   0  0  0  0  0  0  0  0  0  0  0  0
  1 20  1  6  0  0  0
  1 16  1  0  0  0  0
  1 23  1  0  0  0  0
  2 17  2  0  0  0  0
  3 21  2  0  0  0  0
  4  9  2  0  0  0  0
  7  5  1  0  0  0  0
  8  9  1  0  0  0  0
  9  5  1  0  0  0  0
 10 14  1  0  0  0  0
 10 22  1  0  0  0  0
 11 18  1  0  0  0  0
 11  8  2  0  0  0  0
 13  6  1  6  0  0  0
 13  1  1  0  0  0  0
 14  2  1  6  0  0  0
 14 19  1  0  0  0  0
 15 12  1  6  0  0  0
 15  6  1  0  0  0  0
 15 13  1  0  0  0  0
 16  7  1  0  0  0  0
 17  3  1  0  0  0  0
 18  4  1  0  0  0  0
 19  3  1  6  0  0  0
 19 11  1  0  0  0  0
 22 31  1  6  0  0  0
 22 12  1  0  0  0  0
 23 28  1  0  0  0  0
 24 26  2  0  0  0  0
 26 25  1  0  0  0  0
 26 29  1  0  0  0  0
 27 23  2  0  0  0  0
 27 24  1  0  0  0  0
 28 25  2  0  0  0  0
 29 30  1  0  0  0  0
 32 31  1  0  0  0  0
 33 32  1  0  0  0  0
 33 34  1  0  0  0  0
 34 35  3  0  0  0  0
M  END
>  <MODEL>
9

>  <REMARK>
 VINA RESULT:      -6.1      2.849      7.274
  Name = 
  6 active torsions:
  status: ('A' for Active; 'I' for Inactive)
    1  A    between atoms: C_1  and  C_10
    2  A    between atoms: O_9  and  C_21
    3  A    between atoms: C_22  and  N_25
    4  A    between atoms: C_22  and  C_34
    5  A    between atoms: N_25  and  C_26
    6  A    between atoms: C_26  and  C_27
                            x       y       z     vdW  Elec       q    Type
                         _______ _______ _______ _____ _____    ______ ____

>  <TORSDO>
F 6

$$$$
