=
 OpenBabel10232409073D

 28 30  0  0  1  0  0  0  0  0999 V2000
  187.2420  177.6270  145.3370 C   0  0  0  0  0  3  0  0  0  0  0  0
  186.7460  177.5900  144.0290 C   0  0  0  0  0  0  0  0  0  0  0  0
  186.4940  178.2170  146.3580 C   0  0  0  0  0  3  0  0  0  0  0  0
  185.4880  178.1480  143.7370 C   0  0  0  0  0  0  0  0  0  0  0  0
  185.2460  178.7730  146.0750 C   0  0  0  0  0  3  0  0  0  0  0  0
  184.7460  178.7390  144.7710 C   0  0  0  0  0  3  0  0  0  0  0  0
  186.1610  179.9290  141.4820 O   0  0  0  0  0  0  0  0  0  0  0  0
  185.3340  178.9920  141.3160 C   0  0  0  0  0  0  0  0  0  0  0  0
  184.9920  178.1060  142.3900 N   0  0  0  0  0  2  0  0  0  0  0  0
  184.7230  178.7640  139.9720 C   0  0  1  0  0  3  0  0  0  0  0  0
  184.4780  180.0400  139.3200 N   0  0  0  0  0  1  0  0  0  0  0  0
  184.9320  177.4760  137.9620 O   0  0  0  0  0  1  0  0  0  0  0  0
  185.6250  177.8900  139.1030 C   0  0  1  0  0  3  0  0  0  0  0  0
  186.7600  178.6090  138.7140 O   0  0  0  0  0  0  0  0  0  0  0  0
  188.9980  178.4720  139.5440 C   0  0  0  0  0  2  0  0  0  0  0  0
  188.2690  177.1600  137.5530 C   0  0  0  0  0  2  0  0  0  0  0  0
  190.5340  176.9980  138.2480 C   0  0  0  0  0  2  0  0  0  0  0  0
  190.2170  177.5590  139.6320 C   0  0  0  0  0  2  0  0  0  0  0  0
  187.8290  177.7300  138.9010 C   0  0  2  0  0  3  0  0  0  0  0  0
  189.3910  176.2410  137.7390 N   0  0  0  0  0  2  0  0  0  0  0  0
  187.7440  176.8230  142.7470 S   0  0  0  0  0  0  0  0  0  0  0  0
  190.0160  176.5160  144.2990 C   0  0  0  0  0  3  0  0  0  0  0  0
  189.7570  178.6650  143.2100 C   0  0  0  0  0  3  0  0  0  0  0  0
  190.9590  179.0970  143.7780 C   0  0  0  0  0  3  0  0  0  0  0  0
  191.2190  176.9490  144.8660 C   0  0  0  0  0  0  0  0  0  0  0  0
  191.6900  178.2400  144.6060 C   0  0  0  0  0  3  0  0  0  0  0  0
  189.2820  177.3750  143.4740 C   0  0  0  0  0  0  0  0  0  0  0  0
  191.9450  176.0970  145.6870 O   0  0  0  0  0  1  0  0  0  0  0  0
  1  3  1  0  0  0  0
  2  1  2  0  0  0  0
  4  2  1  0  0  0  0
  4  6  2  0  0  0  0
  5  3  2  0  0  0  0
  6  5  1  0  0  0  0
  8  7  2  0  0  0  0
  8  9  1  0  0  0  0
  9  4  1  0  0  0  0
 10 11  1  6  0  0  0
 10  8  1  0  0  0  0
 13 12  1  6  0  0  0
 13 10  1  0  0  0  0
 14 13  1  0  0  0  0
 15 18  1  0  0  0  0
 16 20  1  0  0  0  0
 16 19  1  0  0  0  0
 17 18  1  0  0  0  0
 19 14  1  6  0  0  0
 19 15  1  0  0  0  0
 20 17  1  0  0  0  0
 21 27  1  0  0  0  0
 21  2  1  0  0  0  0
 22 25  1  0  0  0  0
 23 27  1  0  0  0  0
 23 24  2  0  0  0  0
 24 26  1  0  0  0  0
 25 28  1  0  0  0  0
 26 25  2  0  0  0  0
 27 22  2  0  0  0  0
M  END
>  <MODEL>
1

>  <REMARK>
 VINA RESULT:      -7.9      0.000      0.000
  Name = 
  7 active torsions:
  status: ('A' for Active; 'I' for Inactive)
    1  A    between atoms: O_1  and  C_15
    2  A    between atoms: O_1  and  C_25
    3  A    between atoms: C_9  and  S_18
    4  A    between atoms: C_11  and  C_23
    5  A    between atoms: C_11  and  C_25
    6  A    between atoms: C_16  and  N_24
    7  A    between atoms: S_18  and  C_22
                            x       y       z     vdW  Elec       q    Type
                         _______ _______ _______ _____ _____    ______ ____

>  <TORSDO>
F 7

$$$$
=
 OpenBabel10232409073D

 28 30  0  0  1  0  0  0  0  0999 V2000
  189.8350  177.0730  145.1520 C   0  0  0  0  0  3  0  0  0  0  0  0
  189.2720  177.1680  143.8740 C   0  0  0  0  0  0  0  0  0  0  0  0
  190.9600  177.8310  145.4830 C   0  0  0  0  0  3  0  0  0  0  0  0
  189.8360  178.0310  142.9170 C   0  0  0  0  0  0  0  0  0  0  0  0
  191.5270  178.6880  144.5380 C   0  0  0  0  0  3  0  0  0  0  0  0
  190.9680  178.7860  143.2620 C   0  0  0  0  0  3  0  0  0  0  0  0
  190.3630  176.3360  140.5590 O   0  0  0  0  0  0  0  0  0  0  0  0
  189.5310  177.2810  140.4800 C   0  0  0  0  0  0  0  0  0  0  0  0
  189.2500  178.1180  141.6090 N   0  0  0  0  0  2  0  0  0  0  0  0
  188.7910  177.5200  139.2040 C   0  0  1  0  0  3  0  0  0  0  0  0
  188.9680  178.9010  138.7840 N   0  0  0  0  0  1  0  0  0  0  0  0
  188.2110  176.2640  137.2490 O   0  0  0  0  0  1  0  0  0  0  0  0
  189.2690  176.5680  138.1100 C   0  0  1  0  0  3  0  0  0  0  0  0
  190.3010  177.1600  137.3760 O   0  0  0  0  0  0  0  0  0  0  0  0
  192.5660  176.5140  137.7890 C   0  0  0  0  0  2  0  0  0  0  0  0
  191.4140  175.9180  135.6590 C   0  0  0  0  0  2  0  0  0  0  0  0
  193.6860  175.2820  135.9340 C   0  0  0  0  0  2  0  0  0  0  0  0
  193.6220  175.4670  137.4480 C   0  0  0  0  0  2  0  0  0  0  0  0
  191.2270  176.1360  137.1600 C   0  0  2  0  0  3  0  0  0  0  0  0
  192.3850  174.8500  135.4250 N   0  0  0  0  0  2  0  0  0  0  0  0
  187.8260  176.1730  143.4910 S   0  0  0  0  0  0  0  0  0  0  0  0
  186.5600  177.7870  145.3500 C   0  0  0  0  0  3  0  0  0  0  0  0
  185.9230  178.1320  143.0380 C   0  0  0  0  0  3  0  0  0  0  0  0
  185.0310  179.1330  143.4320 C   0  0  0  0  0  3  0  0  0  0  0  0
  185.6670  178.7890  145.7440 C   0  0  0  0  0  0  0  0  0  0  0  0
  184.9030  179.4620  144.7850 C   0  0  0  0  0  3  0  0  0  0  0  0
  186.6850  177.4550  143.9970 C   0  0  0  0  0  0  0  0  0  0  0  0
  185.5410  179.1170  147.0870 O   0  0  0  0  0  1  0  0  0  0  0  0
  1  3  1  0  0  0  0
  2  1  2  0  0  0  0
  4  6  2  0  0  0  0
  4  2  1  0  0  0  0
  5  3  2  0  0  0  0
  6  5  1  0  0  0  0
  8  7  2  0  0  0  0
  8  9  1  0  0  0  0
  9  4  1  0  0  0  0
 10 11  1  6  0  0  0
 10  8  1  0  0  0  0
 13 12  1  6  0  0  0
 13 10  1  0  0  0  0
 14 13  1  0  0  0  0
 16 19  1  0  0  0  0
 17 18  1  0  0  0  0
 18 15  1  0  0  0  0
 19 14  1  6  0  0  0
 19 15  1  0  0  0  0
 20 16  1  0  0  0  0
 20 17  1  0  0  0  0
 21  2  1  0  0  0  0
 21 27  1  0  0  0  0
 22 25  1  0  0  0  0
 23 24  2  0  0  0  0
 23 27  1  0  0  0  0
 24 26  1  0  0  0  0
 25 28  1  0  0  0  0
 26 25  2  0  0  0  0
 27 22  2  0  0  0  0
M  END
>  <MODEL>
2

>  <REMARK>
 VINA RESULT:      -7.5      2.546      4.662
  Name = 
  7 active torsions:
  status: ('A' for Active; 'I' for Inactive)
    1  A    between atoms: O_1  and  C_15
    2  A    between atoms: O_1  and  C_25
    3  A    between atoms: C_9  and  S_18
    4  A    between atoms: C_11  and  C_23
    5  A    between atoms: C_11  and  C_25
    6  A    between atoms: C_16  and  N_24
    7  A    between atoms: S_18  and  C_22
                            x       y       z     vdW  Elec       q    Type
                         _______ _______ _______ _____ _____    ______ ____

>  <TORSDO>
F 7

$$$$
=
 OpenBabel10232409073D

 28 30  0  0  1  0  0  0  0  0999 V2000
  189.9940  176.9790  145.0990 C   0  0  0  0  0  3  0  0  0  0  0  0
  189.3790  177.1200  143.8500 C   0  0  0  0  0  0  0  0  0  0  0  0
  191.1730  177.6690  145.3850 C   0  0  0  0  0  3  0  0  0  0  0  0
  189.9450  177.9620  142.8760 C   0  0  0  0  0  0  0  0  0  0  0  0
  191.7420  178.5060  144.4230 C   0  0  0  0  0  3  0  0  0  0  0  0
  191.1310  178.6510  143.1750 C   0  0  0  0  0  3  0  0  0  0  0  0
  190.3460  176.3350  140.4470 O   0  0  0  0  0  0  0  0  0  0  0  0
  189.5260  177.2930  140.4320 C   0  0  0  0  0  0  0  0  0  0  0  0
  189.3050  178.0970  141.5980 N   0  0  0  0  0  2  0  0  0  0  0  0
  188.7350  177.5810  139.1980 C   0  0  1  0  0  3  0  0  0  0  0  0
  188.9880  178.9440  138.7590 N   0  0  0  0  0  1  0  0  0  0  0  0
  187.9280  176.2530  137.3750 O   0  0  0  0  0  1  0  0  0  0  0  0
  189.0820  176.5930  138.0860 C   0  0  1  0  0  3  0  0  0  0  0  0
  190.0090  177.1640  137.2080 O   0  0  0  0  0  0  0  0  0  0  0  0
  192.2680  176.4750  137.5780 C   0  0  0  0  0  2  0  0  0  0  0  0
  191.1050  176.0100  135.4210 C   0  0  0  0  0  2  0  0  0  0  0  0
  193.3720  175.3390  135.6540 C   0  0  0  0  0  2  0  0  0  0  0  0
  193.3130  175.4390  137.1760 C   0  0  0  0  0  2  0  0  0  0  0  0
  190.9240  176.1450  136.9330 C   0  0  2  0  0  3  0  0  0  0  0  0
  192.0660  174.9480  135.1250 N   0  0  0  0  0  2  0  0  0  0  0  0
  187.8640  176.2100  143.5240 S   0  0  0  0  0  0  0  0  0  0  0  0
  185.9010  178.1370  143.8350 C   0  0  0  0  0  3  0  0  0  0  0  0
  187.0270  177.4340  145.8610 C   0  0  0  0  0  3  0  0  0  0  0  0
  186.2420  178.3200  146.6050 C   0  0  0  0  0  3  0  0  0  0  0  0
  185.1160  179.0230  144.5790 C   0  0  0  0  0  0  0  0  0  0  0  0
  185.2870  179.1160  145.9640 C   0  0  0  0  0  3  0  0  0  0  0  0
  186.8590  177.3450  144.4750 C   0  0  0  0  0  0  0  0  0  0  0  0
  184.1670  179.8110  143.9430 O   0  0  0  0  0  1  0  0  0  0  0  0
  1  3  1  0  0  0  0
  2  1  2  0  0  0  0
  4  6  2  0  0  0  0
  4  2  1  0  0  0  0
  5  3  2  0  0  0  0
  6  5  1  0  0  0  0
  8  7  2  0  0  0  0
  8  9  1  0  0  0  0
  9  4  1  0  0  0  0
 10 11  1  6  0  0  0
 10  8  1  0  0  0  0
 13 12  1  6  0  0  0
 13 10  1  0  0  0  0
 14 13  1  0  0  0  0
 16 19  1  0  0  0  0
 17 18  1  0  0  0  0
 18 15  1  0  0  0  0
 19 14  1  6  0  0  0
 19 15  1  0  0  0  0
 20 16  1  0  0  0  0
 20 17  1  0  0  0  0
 21  2  1  0  0  0  0
 21 27  1  0  0  0  0
 22 27  2  0  0  0  0
 22 25  1  0  0  0  0
 23 24  2  0  0  0  0
 25 26  2  0  0  0  0
 26 24  1  0  0  0  0
 27 23  1  0  0  0  0
 28 25  1  0  0  0  0
M  END
>  <MODEL>
3

>  <REMARK>
 VINA RESULT:      -7.4      2.355      4.775
  Name = 
  7 active torsions:
  status: ('A' for Active; 'I' for Inactive)
    1  A    between atoms: O_1  and  C_15
    2  A    between atoms: O_1  and  C_25
    3  A    between atoms: C_9  and  S_18
    4  A    between atoms: C_11  and  C_23
    5  A    between atoms: C_11  and  C_25
    6  A    between atoms: C_16  and  N_24
    7  A    between atoms: S_18  and  C_22
                            x       y       z     vdW  Elec       q    Type
                         _______ _______ _______ _____ _____    ______ ____

>  <TORSDO>
F 7

$$$$
=
 OpenBabel10232409073D

 28 30  0  0  1  0  0  0  0  0999 V2000
  189.5860  177.5230  145.0830 C   0  0  0  0  0  3  0  0  0  0  0  0
  189.3540  177.2480  143.7310 C   0  0  0  0  0  0  0  0  0  0  0  0
  190.6530  178.3400  145.4630 C   0  0  0  0  0  3  0  0  0  0  0  0
  190.1950  177.7960  142.7460 C   0  0  0  0  0  0  0  0  0  0  0  0
  191.4920  178.8860  144.4910 C   0  0  0  0  0  3  0  0  0  0  0  0
  191.2640  178.6150  143.1390 C   0  0  0  0  0  3  0  0  0  0  0  0
  192.1390  177.6420  140.5310 O   0  0  0  0  0  0  0  0  0  0  0  0
  190.9140  177.4430  140.3060 C   0  0  0  0  0  0  0  0  0  0  0  0
  189.9470  177.5050  141.3610 N   0  0  0  0  0  2  0  0  0  0  0  0
  190.4540  177.0970  138.9270 C   0  0  1  0  0  3  0  0  0  0  0  0
  190.4780  175.6550  138.7480 N   0  0  0  0  0  1  0  0  0  0  0  0
  189.0470  179.0320  138.7910 O   0  0  0  0  0  1  0  0  0  0  0  0
  189.0500  177.6400  138.6680 C   0  0  1  0  0  3  0  0  0  0  0  0
  188.6310  177.2930  137.3800 O   0  0  0  0  0  0  0  0  0  0  0  0
  187.2260  175.3850  137.0580 C   0  0  0  0  0  2  0  0  0  0  0  0
  186.3690  177.7020  136.7140 C   0  0  0  0  0  2  0  0  0  0  0  0
  184.9040  175.8790  136.3000 C   0  0  0  0  0  2  0  0  0  0  0  0
  185.7770  174.9130  137.0970 C   0  0  0  0  0  2  0  0  0  0  0  0
  187.3220  176.8330  137.5350 C   0  0  2  0  0  3  0  0  0  0  0  0
  184.9960  177.2240  136.8670 N   0  0  0  0  0  2  0  0  0  0  0  0
  187.9710  176.1900  143.2890 S   0  0  0  0  0  0  0  0  0  0  0  0
  186.3470  177.6700  144.9730 C   0  0  0  0  0  3  0  0  0  0  0  0
  186.2250  178.2300  142.6190 C   0  0  0  0  0  3  0  0  0  0  0  0
  185.2770  179.2170  142.9030 C   0  0  0  0  0  3  0  0  0  0  0  0
  185.3990  178.6580  145.2560 C   0  0  0  0  0  0  0  0  0  0  0  0
  184.8630  179.4300  144.2210 C   0  0  0  0  0  3  0  0  0  0  0  0
  186.7580  177.4530  143.6530 C   0  0  0  0  0  0  0  0  0  0  0  0
  184.9890  178.8710  146.5650 O   0  0  0  0  0  1  0  0  0  0  0  0
  1  3  1  0  0  0  0
  2  1  2  0  0  0  0
  4  6  2  0  0  0  0
  4  2  1  0  0  0  0
  5  3  2  0  0  0  0
  6  5  1  0  0  0  0
  8  7  2  0  0  0  0
  8  9  1  0  0  0  0
  9  4  1  0  0  0  0
 10 11  1  1  0  0  0
 10  8  1  0  0  0  0
 13 12  1  6  0  0  0
 13 10  1  0  0  0  0
 14 13  1  0  0  0  0
 15 18  1  0  0  0  0
 15 19  1  0  0  0  0
 16 20  1  0  0  0  0
 16 19  1  0  0  0  0
 17 20  1  0  0  0  0
 17 18  1  0  0  0  0
 19 14  1  6  0  0  0
 21 27  1  0  0  0  0
 21  2  1  0  0  0  0
 22 25  1  0  0  0  0
 23 24  2  0  0  0  0
 23 27  1  0  0  0  0
 24 26  1  0  0  0  0
 25 28  1  0  0  0  0
 26 25  2  0  0  0  0
 27 22  2  0  0  0  0
M  END
>  <MODEL>
4

>  <REMARK>
 VINA RESULT:      -6.9      2.326      5.008
  Name = 
  7 active torsions:
  status: ('A' for Active; 'I' for Inactive)
    1  A    between atoms: O_1  and  C_15
    2  A    between atoms: O_1  and  C_25
    3  A    between atoms: C_9  and  S_18
    4  A    between atoms: C_11  and  C_23
    5  A    between atoms: C_11  and  C_25
    6  A    between atoms: C_16  and  N_24
    7  A    between atoms: S_18  and  C_22
                            x       y       z     vdW  Elec       q    Type
                         _______ _______ _______ _____ _____    ______ ____

>  <TORSDO>
F 7

$$$$
=
 OpenBabel10232409073D

 28 30  0  0  1  0  0  0  0  0999 V2000
  183.4870  179.0910  142.8500 C   0  0  0  0  0  3  0  0  0  0  0  0
  184.7240  178.8100  142.2570 C   0  0  0  0  0  0  0  0  0  0  0  0
  183.3320  178.9960  144.2340 C   0  0  0  0  0  3  0  0  0  0  0  0
  185.8180  178.4320  143.0560 C   0  0  0  0  0  0  0  0  0  0  0  0
  184.4130  178.6190  145.0320 C   0  0  0  0  0  3  0  0  0  0  0  0
  185.6500  178.3380  144.4460 C   0  0  0  0  0  3  0  0  0  0  0  0
  187.4910  176.0170  143.3420 O   0  0  0  0  0  0  0  0  0  0  0  0
  187.8740  176.9620  142.5990 C   0  0  0  0  0  0  0  0  0  0  0  0
  187.0810  178.1440  142.4350 N   0  0  0  0  0  2  0  0  0  0  0  0
  189.1560  176.8430  141.8410 C   0  0  1  0  0  3  0  0  0  0  0  0
  189.1520  177.7700  140.7210 N   0  0  0  0  0  1  0  0  0  0  0  0
  191.3620  177.7570  142.0260 O   0  0  0  0  0  1  0  0  0  0  0  0
  190.3540  177.1130  142.7490 C   0  0  1  0  0  3  0  0  0  0  0  0
  189.9700  177.9240  143.8210 O   0  0  0  0  0  0  0  0  0  0  0  0
  189.2790  177.6690  146.0960 C   0  0  0  0  0  2  0  0  0  0  0  0
  191.6090  177.1390  145.3790 C   0  0  0  0  0  2  0  0  0  0  0  0
  191.0520  176.9130  147.6770 C   0  0  0  0  0  2  0  0  0  0  0  0
  189.5550  176.8900  147.3790 C   0  0  0  0  0  2  0  0  0  0  0  0
  190.1400  177.1270  144.9560 C   0  0  2  0  0  3  0  0  0  0  0  0
  191.7940  176.3110  146.5700 N   0  0  0  0  0  2  0  0  0  0  0  0
  184.8770  178.9430  140.4720 S   0  0  0  0  0  0  0  0  0  0  0  0
  182.8130  177.1200  140.1920 C   0  0  0  0  0  3  0  0  0  0  0  0
  182.2030  179.4540  139.9760 C   0  0  0  0  0  3  0  0  0  0  0  0
  180.8720  179.0860  139.7550 C   0  0  0  0  0  3  0  0  0  0  0  0
  181.4820  176.7520  139.9710 C   0  0  0  0  0  0  0  0  0  0  0  0
  180.5120  177.7340  139.7520 C   0  0  0  0  0  3  0  0  0  0  0  0
  183.1750  178.4710  140.1900 C   0  0  0  0  0  0  0  0  0  0  0  0
  181.1240  175.4110  139.9690 O   0  0  0  0  0  1  0  0  0  0  0  0
  1  3  1  0  0  0  0
  2  1  2  0  0  0  0
  2  4  1  0  0  0  0
  3  5  2  0  0  0  0
  4  6  2  0  0  0  0
  6  5  1  0  0  0  0
  8  7  2  0  0  0  0
  9  8  1  0  0  0  0
  9  4  1  0  0  0  0
 10 11  1  6  0  0  0
 10  8  1  0  0  0  0
 10 13  1  0  0  0  0
 13 12  1  6  0  0  0
 13 14  1  0  0  0  0
 15 18  1  0  0  0  0
 16 20  1  0  0  0  0
 18 17  1  0  0  0  0
 19 14  1  6  0  0  0
 19 16  1  0  0  0  0
 19 15  1  0  0  0  0
 20 17  1  0  0  0  0
 21  2  1  0  0  0  0
 23 27  2  0  0  0  0
 24 23  1  0  0  0  0
 25 22  2  0  0  0  0
 26 24  2  0  0  0  0
 26 25  1  0  0  0  0
 27 22  1  0  0  0  0
 27 21  1  0  0  0  0
 28 25  1  0  0  0  0
M  END
>  <MODEL>
5

>  <REMARK>
 VINA RESULT:      -6.9      3.141      7.087
  Name = 
  7 active torsions:
  status: ('A' for Active; 'I' for Inactive)
    1  A    between atoms: O_1  and  C_15
    2  A    between atoms: O_1  and  C_25
    3  A    between atoms: C_9  and  S_18
    4  A    between atoms: C_11  and  C_23
    5  A    between atoms: C_11  and  C_25
    6  A    between atoms: C_16  and  N_24
    7  A    between atoms: S_18  and  C_22
                            x       y       z     vdW  Elec       q    Type
                         _______ _______ _______ _____ _____    ______ ____

>  <TORSDO>
F 7

$$$$
=
 OpenBabel10232409073D

 28 30  0  0  1  0  0  0  0  0999 V2000
  187.3550  177.2740  143.0970 C   0  0  0  0  0  3  0  0  0  0  0  0
  187.9220  177.5030  141.8380 C   0  0  0  0  0  0  0  0  0  0  0  0
  186.1650  177.9070  143.4590 C   0  0  0  0  0  3  0  0  0  0  0  0
  187.2930  178.3730  140.9300 C   0  0  0  0  0  0  0  0  0  0  0  0
  185.5350  178.7720  142.5630 C   0  0  0  0  0  3  0  0  0  0  0  0
  186.0970  179.0050  141.3050 C   0  0  0  0  0  3  0  0  0  0  0  0
  186.3670  177.4240  138.2930 O   0  0  0  0  0  0  0  0  0  0  0  0
  187.4150  178.1200  138.3770 C   0  0  0  0  0  0  0  0  0  0  0  0
  187.8860  178.6010  139.6420 N   0  0  0  0  0  2  0  0  0  0  0  0
  188.1660  178.4920  137.1400 C   0  0  1  0  0  3  0  0  0  0  0  0
  188.9290  179.7070  137.3740 N   0  0  0  0  0  1  0  0  0  0  0  0
  189.5060  177.5620  135.3850 O   0  0  0  0  0  1  0  0  0  0  0  0
  189.0930  177.3590  136.7040 C   0  0  1  0  0  3  0  0  0  0  0  0
  190.2180  177.3140  137.5340 O   0  0  0  0  0  0  0  0  0  0  0  0
  190.5050  174.9460  137.3740 C   0  0  0  0  0  2  0  0  0  0  0  0
  192.4630  176.4850  137.5060 C   0  0  0  0  0  2  0  0  0  0  0  0
  192.8660  174.1460  137.4180 C   0  0  0  0  0  2  0  0  0  0  0  0
  191.4610  173.8590  136.8930 C   0  0  0  0  0  2  0  0  0  0  0  0
  191.0360  176.3240  136.9840 C   0  0  2  0  0  3  0  0  0  0  0  0
  193.3240  175.4490  136.9390 N   0  0  0  0  0  2  0  0  0  0  0  0
  189.4560  176.6690  141.4160 S   0  0  0  0  0  0  0  0  0  0  0  0
  190.8040  176.3730  143.8150 C   0  0  0  0  0  3  0  0  0  0  0  0
  190.4720  178.6500  143.0590 C   0  0  0  0  0  3  0  0  0  0  0  0
  191.1350  179.1240  144.1950 C   0  0  0  0  0  3  0  0  0  0  0  0
  191.4660  176.8480  144.9520 C   0  0  0  0  0  0  0  0  0  0  0  0
  191.6310  178.2230  145.1420 C   0  0  0  0  0  3  0  0  0  0  0  0
  190.3030  177.2740  142.8700 C   0  0  0  0  0  0  0  0  0  0  0  0
  191.9600  175.9530  145.8910 O   0  0  0  0  0  1  0  0  0  0  0  0
  1  3  1  0  0  0  0
  2  1  2  0  0  0  0
  4  6  2  0  0  0  0
  4  2  1  0  0  0  0
  5  3  2  0  0  0  0
  6  5  1  0  0  0  0
  7  8  2  0  0  0  0
  8  9  1  0  0  0  0
  9  4  1  0  0  0  0
 10 11  1  1  0  0  0
 10  8  1  0  0  0  0
 13 12  1  6  0  0  0
 13 10  1  0  0  0  0
 13 14  1  0  0  0  0
 18 15  1  0  0  0  0
 18 17  1  0  0  0  0
 19 15  1  0  0  0  0
 19 16  1  0  0  0  0
 19 14  1  1  0  0  0
 20 17  1  0  0  0  0
 20 16  1  0  0  0  0
 21  2  1  0  0  0  0
 21 27  1  0  0  0  0
 22 25  1  0  0  0  0
 23 24  2  0  0  0  0
 24 26  1  0  0  0  0
 25 26  2  0  0  0  0
 25 28  1  0  0  0  0
 27 23  1  0  0  0  0
 27 22  2  0  0  0  0
M  END
>  <MODEL>
6

>  <REMARK>
 VINA RESULT:      -6.8      2.243      3.399
  Name = 
  7 active torsions:
  status: ('A' for Active; 'I' for Inactive)
    1  A    between atoms: O_1  and  C_15
    2  A    between atoms: O_1  and  C_25
    3  A    between atoms: C_9  and  S_18
    4  A    between atoms: C_11  and  C_23
    5  A    between atoms: C_11  and  C_25
    6  A    between atoms: C_16  and  N_24
    7  A    between atoms: S_18  and  C_22
                            x       y       z     vdW  Elec       q    Type
                         _______ _______ _______ _____ _____    ______ ____

>  <TORSDO>
F 7

$$$$
=
 OpenBabel10232409073D

 28 30  0  0  1  0  0  0  0  0999 V2000
  187.2290  177.4260  145.8360 C   0  0  0  0  0  3  0  0  0  0  0  0
  186.7900  177.6150  144.5200 C   0  0  0  0  0  0  0  0  0  0  0  0
  186.5820  178.0690  146.8930 C   0  0  0  0  0  3  0  0  0  0  0  0
  185.6910  178.4530  144.2570 C   0  0  0  0  0  0  0  0  0  0  0  0
  185.4920  178.9030  146.6390 C   0  0  0  0  0  3  0  0  0  0  0  0
  185.0490  179.0940  145.3280 C   0  0  0  0  0  3  0  0  0  0  0  0
  182.9340  178.7780  143.2550 O   0  0  0  0  0  0  0  0  0  0  0  0
  183.9010  178.7880  142.4460 C   0  0  0  0  0  0  0  0  0  0  0  0
  185.2520  178.6390  142.9020 N   0  0  0  0  0  2  0  0  0  0  0  0
  183.6530  178.9980  140.9880 C   0  0  1  0  0  3  0  0  0  0  0  0
  184.8570  179.5100  140.3520 N   0  0  0  0  0  1  0  0  0  0  0  0
  181.8180  177.6500  140.2440 O   0  0  0  0  0  1  0  0  0  0  0  0
  183.2120  177.6980  140.3170 C   0  0  1  0  0  3  0  0  0  0  0  0
  183.7420  177.6220  139.0250 O   0  0  0  0  0  0  0  0  0  0  0  0
  183.3570  175.4150  138.1890 C   0  0  0  0  0  2  0  0  0  0  0  0
  182.6440  177.4320  136.9060 C   0  0  0  0  0  2  0  0  0  0  0  0
  182.2720  175.2910  135.9480 C   0  0  0  0  0  2  0  0  0  0  0  0
  182.4400  174.5880  137.2930 C   0  0  0  0  0  2  0  0  0  0  0  0
  182.8310  176.8440  138.3050 C   0  0  2  0  0  3  0  0  0  0  0  0
  181.6960  176.6210  136.1450 N   0  0  0  0  0  2  0  0  0  0  0  0
  187.6540  176.7700  143.1910 S   0  0  0  0  0  0  0  0  0  0  0  0
  189.9970  176.5380  144.6470 C   0  0  0  0  0  3  0  0  0  0  0  0
  189.7870  178.5310  143.2850 C   0  0  0  0  0  3  0  0  0  0  0  0
  191.0430  178.9620  143.7210 C   0  0  0  0  0  3  0  0  0  0  0  0
  191.2530  176.9700  145.0830 C   0  0  0  0  0  0  0  0  0  0  0  0
  191.7760  178.1820  144.6210 C   0  0  0  0  0  3  0  0  0  0  0  0
  189.2610  177.3200  143.7500 C   0  0  0  0  0  0  0  0  0  0  0  0
  191.9820  176.1950  145.9750 O   0  0  0  0  0  1  0  0  0  0  0  0
  1  3  1  0  0  0  0
  2  1  2  0  0  0  0
  4  2  1  0  0  0  0
  4  6  2  0  0  0  0
  5  3  2  0  0  0  0
  6  5  1  0  0  0  0
  8  9  1  0  0  0  0
  8  7  2  0  0  0  0
  9  4  1  0  0  0  0
 10 11  1  6  0  0  0
 10  8  1  0  0  0  0
 13 12  1  6  0  0  0
 13 10  1  0  0  0  0
 14 13  1  0  0  0  0
 15 19  1  0  0  0  0
 16 19  1  0  0  0  0
 17 20  1  0  0  0  0
 17 18  1  0  0  0  0
 18 15  1  0  0  0  0
 19 14  1  1  0  0  0
 20 16  1  0  0  0  0
 21 27  1  0  0  0  0
 21  2  1  0  0  0  0
 22 25  1  0  0  0  0
 23 24  2  0  0  0  0
 23 27  1  0  0  0  0
 24 26  1  0  0  0  0
 25 28  1  0  0  0  0
 26 25  2  0  0  0  0
 27 22  2  0  0  0  0
M  END
>  <MODEL>
7

>  <REMARK>
 VINA RESULT:      -6.7      2.614      3.646
  Name = 
  7 active torsions:
  status: ('A' for Active; 'I' for Inactive)
    1  A    between atoms: O_1  and  C_15
    2  A    between atoms: O_1  and  C_25
    3  A    between atoms: C_9  and  S_18
    4  A    between atoms: C_11  and  C_23
    5  A    between atoms: C_11  and  C_25
    6  A    between atoms: C_16  and  N_24
    7  A    between atoms: S_18  and  C_22
                            x       y       z     vdW  Elec       q    Type
                         _______ _______ _______ _____ _____    ______ ____

>  <TORSDO>
F 7

$$$$
=
 OpenBabel10232409073D

 28 30  0  0  1  0  0  0  0  0999 V2000
  190.8690  176.4670  138.4620 C   0  0  0  0  0  3  0  0  0  0  0  0
  190.7830  177.0260  139.7420 C   0  0  0  0  0  0  0  0  0  0  0  0
  192.1150  176.2130  137.8870 C   0  0  0  0  0  3  0  0  0  0  0  0
  191.9540  177.3310  140.4580 C   0  0  0  0  0  0  0  0  0  0  0  0
  193.2820  176.5150  138.5910 C   0  0  0  0  0  3  0  0  0  0  0  0
  193.2010  177.0720  139.8690 C   0  0  0  0  0  3  0  0  0  0  0  0
  191.6650  175.9430  143.0460 O   0  0  0  0  0  0  0  0  0  0  0  0
  191.7060  177.2030  143.0110 C   0  0  0  0  0  0  0  0  0  0  0  0
  191.8520  177.9060  141.7700 N   0  0  0  0  0  2  0  0  0  0  0  0
  191.6420  177.9890  144.2800 C   0  0  1  0  0  3  0  0  0  0  0  0
  191.1590  179.3320  144.0030 N   0  0  0  0  0  1  0  0  0  0  0  0
  191.4990  176.8480  146.3820 O   0  0  0  0  0  1  0  0  0  0  0  0
  190.7370  177.3010  145.3020 C   0  0  1  0  0  3  0  0  0  0  0  0
  189.7710  178.1980  145.7670 O   0  0  0  0  0  0  0  0  0  0  0  0
  188.1310  177.8170  144.0690 C   0  0  0  0  0  2  0  0  0  0  0  0
  187.4790  178.1400  146.4550 C   0  0  0  0  0  2  0  0  0  0  0  0
  185.7620  177.8360  144.8420 C   0  0  0  0  0  2  0  0  0  0  0  0
  186.7350  177.2550  143.8200 C   0  0  0  0  0  2  0  0  0  0  0  0
  188.5460  177.5740  145.5180 C   0  0  2  0  0  3  0  0  0  0  0  0
  186.1930  177.4950  146.1970 N   0  0  0  0  0  2  0  0  0  0  0  0
  189.1580  177.3380  140.4420 S   0  0  0  0  0  0  0  0  0  0  0  0
  187.2850  177.3300  138.4030 C   0  0  0  0  0  3  0  0  0  0  0  0
  189.1380  178.8680  138.1350 C   0  0  0  0  0  3  0  0  0  0  0  0
  188.6080  179.2940  136.9140 C   0  0  0  0  0  3  0  0  0  0  0  0
  186.7560  177.7570  137.1810 C   0  0  0  0  0  0  0  0  0  0  0  0
  187.4180  178.7380  136.4360 C   0  0  0  0  0  3  0  0  0  0  0  0
  188.4790  177.8820  138.8790 C   0  0  0  0  0  0  0  0  0  0  0  0
  185.5730  177.2060  136.7070 O   0  0  0  0  0  1  0  0  0  0  0  0
  1  2  1  0  0  0  0
  2 21  1  0  0  0  0
  2  4  2  0  0  0  0
  3  1  2  0  0  0  0
  3  5  1  0  0  0  0
  4  9  1  0  0  0  0
  5  6  2  0  0  0  0
  6  4  1  0  0  0  0
  8  7  2  0  0  0  0
  8 10  1  0  0  0  0
  9  8  1  0  0  0  0
 10 11  1  6  0  0  0
 10 13  1  0  0  0  0
 13 14  1  0  0  0  0
 13 12  1  1  0  0  0
 15 19  1  0  0  0  0
 17 20  1  0  0  0  0
 18 15  1  0  0  0  0
 18 17  1  0  0  0  0
 19 14  1  1  0  0  0
 19 16  1  0  0  0  0
 20 16  1  0  0  0  0
 22 27  1  0  0  0  0
 23 27  2  0  0  0  0
 24 23  1  0  0  0  0
 25 22  2  0  0  0  0
 26 24  2  0  0  0  0
 26 25  1  0  0  0  0
 27 21  1  0  0  0  0
 28 25  1  0  0  0  0
M  END
>  <MODEL>
8

>  <REMARK>
 VINA RESULT:      -6.7      2.649      7.933
  Name = 
  7 active torsions:
  status: ('A' for Active; 'I' for Inactive)
    1  A    between atoms: O_1  and  C_15
    2  A    between atoms: O_1  and  C_25
    3  A    between atoms: C_9  and  S_18
    4  A    between atoms: C_11  and  C_23
    5  A    between atoms: C_11  and  C_25
    6  A    between atoms: C_16  and  N_24
    7  A    between atoms: S_18  and  C_22
                            x       y       z     vdW  Elec       q    Type
                         _______ _______ _______ _____ _____    ______ ____

>  <TORSDO>
F 7

$$$$
=
 OpenBabel10232409073D

 28 30  0  0  1  0  0  0  0  0999 V2000
  184.6130  179.1550  143.0380 C   0  0  0  0  0  3  0  0  0  0  0  0
  185.8080  178.5840  142.5860 C   0  0  0  0  0  0  0  0  0  0  0  0
  184.2580  179.0730  144.3860 C   0  0  0  0  0  3  0  0  0  0  0  0
  186.6600  177.9240  143.4910 C   0  0  0  0  0  0  0  0  0  0  0  0
  185.0970  178.4180  145.2880 C   0  0  0  0  0  3  0  0  0  0  0  0
  186.2910  177.8460  144.8430 C   0  0  0  0  0  3  0  0  0  0  0  0
  189.4130  178.4250  144.4260 O   0  0  0  0  0  0  0  0  0  0  0  0
  189.2080  177.6090  143.4860 C   0  0  0  0  0  0  0  0  0  0  0  0
  187.8820  177.3400  143.0140 N   0  0  0  0  0  2  0  0  0  0  0  0
  190.3540  176.8740  142.8710 C   0  0  1  0  0  3  0  0  0  0  0  0
  190.0880  175.4440  142.8880 N   0  0  0  0  0  1  0  0  0  0  0  0
  191.9720  177.5350  141.2330 O   0  0  0  0  0  1  0  0  0  0  0  0
  190.6030  177.3490  141.4410 C   0  0  1  0  0  3  0  0  0  0  0  0
  190.1260  176.4010  140.5310 O   0  0  0  0  0  0  0  0  0  0  0  0
  189.1250  177.6150  138.7300 C   0  0  0  0  0  2  0  0  0  0  0  0
  190.8240  175.8380  138.3110 C   0  0  0  0  0  2  0  0  0  0  0  0
  189.8460  176.9330  136.4440 C   0  0  0  0  0  2  0  0  0  0  0  0
  189.3550  178.0970  137.3010 C   0  0  0  0  0  2  0  0  0  0  0  0
  190.3860  176.9450  139.2700 C   0  0  2  0  0  3  0  0  0  0  0  0
  191.0940  176.3990  136.9890 N   0  0  0  0  0  2  0  0  0  0  0  0
  186.2240  178.7120  140.8430 S   0  0  0  0  0  0  0  0  0  0  0  0
  184.0200  179.6950  139.4870 C   0  0  0  0  0  3  0  0  0  0  0  0
  183.6610  177.6700  140.7660 C   0  0  0  0  0  3  0  0  0  0  0  0
  182.3210  177.6540  140.3660 C   0  0  0  0  0  3  0  0  0  0  0  0
  182.6800  179.6790  139.0870 C   0  0  0  0  0  0  0  0  0  0  0  0
  181.8310  178.6590  139.5270 C   0  0  0  0  0  3  0  0  0  0  0  0
  184.5100  178.6930  140.3300 C   0  0  0  0  0  0  0  0  0  0  0  0
  182.1930  180.6760  138.2520 O   0  0  0  0  0  1  0  0  0  0  0  0
  1  3  1  0  0  0  0
  2  1  2  0  0  0  0
  2  4  1  0  0  0  0
  3  5  2  0  0  0  0
  4  6  2  0  0  0  0
  6  5  1  0  0  0  0
  8  7  2  0  0  0  0
  9  8  1  0  0  0  0
  9  4  1  0  0  0  0
 10 11  1  6  0  0  0
 10  8  1  0  0  0  0
 13 12  1  1  0  0  0
 13 10  1  0  0  0  0
 14 13  1  0  0  0  0
 15 19  1  0  0  0  0
 16 19  1  0  0  0  0
 17 20  1  0  0  0  0
 17 18  1  0  0  0  0
 18 15  1  0  0  0  0
 19 14  1  1  0  0  0
 20 16  1  0  0  0  0
 21  2  1  0  0  0  0
 22 27  1  0  0  0  0
 24 23  1  0  0  0  0
 25 22  2  0  0  0  0
 25 26  1  0  0  0  0
 26 24  2  0  0  0  0
 27 23  2  0  0  0  0
 27 21  1  0  0  0  0
 28 25  1  0  0  0  0
M  END
>  <MODEL>
9

>  <REMARK>
 VINA RESULT:      -6.6      2.461      5.948
  Name = 
  7 active torsions:
  status: ('A' for Active; 'I' for Inactive)
    1  A    between atoms: O_1  and  C_15
    2  A    between atoms: O_1  and  C_25
    3  A    between atoms: C_9  and  S_18
    4  A    between atoms: C_11  and  C_23
    5  A    between atoms: C_11  and  C_25
    6  A    between atoms: C_16  and  N_24
    7  A    between atoms: S_18  and  C_22
                            x       y       z     vdW  Elec       q    Type
                         _______ _______ _______ _____ _____    ______ ____

>  <TORSDO>
F 7

$$$$
