=
 OpenBabel10232410203D

 29 30  0  0  1  0  0  0  0  0999 V2000
  182.5640  178.7970  143.8690 C   0  0  0  0  0  1  0  0  0  0  0  0
  184.0690  178.5820  143.9120 C   0  0  2  0  0  3  0  0  0  0  0  0
  188.0300  178.1650  149.1050 Cl  0  0  0  0  0  0  0  0  0  0  0  0
  189.8610  177.2770  146.7890 C   0  0  0  0  0  3  0  0  0  0  0  0
  186.8900  177.9220  144.7290 N   0  0  0  0  0  0  0  0  0  0  0  0
  184.6430  178.6950  145.2560 N   0  0  0  0  0  2  0  0  0  0  0  0
  188.5530  177.6350  146.4380 C   0  0  0  0  0  0  0  0  0  0  0  0
  190.7630  176.8610  145.8070 C   0  0  0  0  0  0  0  0  0  0  0  0
  190.3630  176.7960  144.4680 C   0  0  0  0  0  3  0  0  0  0  0  0
  187.6220  178.0640  147.3970 C   0  0  0  0  0  0  0  0  0  0  0  0
  189.0610  177.1520  144.1070 C   0  0  0  0  0  3  0  0  0  0  0  0
  186.3310  178.4160  146.9960 C   0  0  0  0  0  3  0  0  0  0  0  0
  188.1540  177.5710  145.0830 C   0  0  0  0  0  0  0  0  0  0  0  0
  185.9760  178.3400  145.6480 C   0  0  0  0  0  0  0  0  0  0  0  0
  192.0570  176.5090  146.1600 O   0  0  0  0  0  1  0  0  0  0  0  0
  184.8460  179.3540  142.8330 C   0  0  0  0  0  2  0  0  0  0  0  0
  185.3780  178.5540  141.6350 C   0  0  1  0  0  3  0  0  0  0  0  0
  184.2980  178.1940  140.6230 C   0  0  0  0  0  2  0  0  0  0  0  0
  184.4180  180.0610  139.1150 O   0  0  0  0  0  1  0  0  0  0  0  0
  183.6100  179.4400  140.0700 C   0  0  1  0  0  3  0  0  0  0  0  0
  181.1570  178.9770  140.5220 C   0  0  0  0  0  1  0  0  0  0  0  0
  181.8390  180.1730  138.4460 C   0  0  0  0  0  1  0  0  0  0  0  0
  182.2410  179.1250  139.4660 C   0  0  0  0  0  3  0  0  0  0  0  0
  186.4270  179.2300  141.0090 O   0  0  0  0  0  0  0  0  0  0  0  0
  187.5640  178.4630  141.2730 C   0  0  0  0  0  2  0  0  0  0  0  0
  188.4110  178.3400  140.0160 C   0  0  0  0  0  2  0  0  0  0  0  0
  187.5420  178.0900  138.7920 C   0  0  0  0  0  2  0  0  0  0  0  0
  188.9430  179.6460  137.6650 O   0  0  0  0  0  1  0  0  0  0  0  0
  188.3090  178.4130  137.5240 C   0  0  0  0  0  2  0  0  0  0  0  0
  2  1  1  1  0  0  0
  2  6  1  0  0  0  0
  5 13  1  0  0  0  0
  5 14  2  0  0  0  0
  6 14  1  0  0  0  0
  7  4  1  0  0  0  0
  7 10  1  0  0  0  0
  8 15  1  0  0  0  0
  8  4  2  0  0  0  0
  9  8  1  0  0  0  0
 10  3  1  0  0  0  0
 11  9  2  0  0  0  0
 11 13  1  0  0  0  0
 12 10  2  0  0  0  0
 13  7  2  0  0  0  0
 14 12  1  0  0  0  0
 16  2  1  0  0  0  0
 17 18  1  6  0  0  0
 17 16  1  0  0  0  0
 20 19  1  6  0  0  0
 20 18  1  0  0  0  0
 22 23  1  0  0  0  0
 23 20  1  0  0  0  0
 23 21  1  0  0  0  0
 24 25  1  0  0  0  0
 24 17  1  0  0  0  0
 26 25  1  0  0  0  0
 27 26  1  0  0  0  0
 29 28  1  0  0  0  0
 29 27  1  0  0  0  0
M  END
>  <MODEL>
1

>  <REMARK>
 VINA RESULT:      -7.9      0.000      0.000
  Name = 
  11 active torsions:
  status: ('A' for Active; 'I' for Inactive)
    1  A    between atoms: C_1  and  C_5
    2  A    between atoms: C_1  and  O_23
    3  A    between atoms: C_5  and  C_17
    4  A    between atoms: C_6  and  C_20
    5  A    between atoms: C_6  and  C_25
    6  A    between atoms: N_9  and  C_19
    7  A    between atoms: C_17  and  C_29
    8  A    between atoms: C_19  and  C_24
    9  A    between atoms: C_20  and  C_21
   10  A    between atoms: C_21  and  O_23
   11  A    between atoms: C_21  and  C_24
                            x       y       z     vdW  Elec       q    Type
                         _______ _______ _______ _____ _____    ______ ____

>  <TORSDO>
F 11

$$$$
=
 OpenBabel10232410203D

 29 30  0  0  1  0  0  0  0  0999 V2000
  186.2160  179.2720  147.5260 C   0  0  0  0  0  1  0  0  0  0  0  0
  185.9360  178.7900  146.1110 C   0  0  2  0  0  3  0  0  0  0  0  0
  180.2330  178.9350  142.9060 Cl  0  0  0  0  0  0  0  0  0  0  0  0
  182.2920  178.8950  140.6120 C   0  0  0  0  0  3  0  0  0  0  0  0
  184.7360  178.7700  143.3510 N   0  0  0  0  0  0  0  0  0  0  0  0
  184.5110  178.7430  145.7740 N   0  0  0  0  0  2  0  0  0  0  0  0
  182.8160  178.8600  141.9110 C   0  0  0  0  0  0  0  0  0  0  0  0
  183.1490  178.8810  139.5090 C   0  0  0  0  0  0  0  0  0  0  0  0
  184.5350  178.8360  139.6970 C   0  0  0  0  0  3  0  0  0  0  0  0
  181.9850  178.8670  143.0430 C   0  0  0  0  0  0  0  0  0  0  0  0
  185.0670  178.7990  140.9880 C   0  0  0  0  0  3  0  0  0  0  0  0
  182.5540  178.8240  144.3170 C   0  0  0  0  0  3  0  0  0  0  0  0
  184.2160  178.8110  142.0960 C   0  0  0  0  0  0  0  0  0  0  0  0
  183.9430  178.7750  144.4580 C   0  0  0  0  0  0  0  0  0  0  0  0
  182.6260  178.9150  138.2260 O   0  0  0  0  0  1  0  0  0  0  0  0
  186.7160  177.5270  145.7110 C   0  0  0  0  0  2  0  0  0  0  0  0
  187.9190  177.7040  144.7740 C   0  0  1  0  0  3  0  0  0  0  0  0
  189.1720  178.1980  145.4850 C   0  0  0  0  0  2  0  0  0  0  0  0
  191.4370  177.4430  145.2180 O   0  0  0  0  0  1  0  0  0  0  0  0
  190.1790  177.0690  145.6940 C   0  0  1  0  0  3  0  0  0  0  0  0
  191.7180  176.4120  147.6010 C   0  0  0  0  0  1  0  0  0  0  0  0
  189.6200  177.6720  148.0680 C   0  0  0  0  0  1  0  0  0  0  0  0
  190.2820  176.6510  147.1610 C   0  0  0  0  0  3  0  0  0  0  0  0
  188.1870  176.5250  144.0770 O   0  0  0  0  0  0  0  0  0  0  0  0
  187.7960  176.7810  142.7610 C   0  0  0  0  0  2  0  0  0  0  0  0
  188.9910  177.2490  141.9450 C   0  0  0  0  0  2  0  0  0  0  0  0
  188.6020  178.3770  141.0010 C   0  0  0  0  0  2  0  0  0  0  0  0
  188.9280  179.1040  138.7600 O   0  0  0  0  0  1  0  0  0  0  0  0
  188.8390  177.9670  139.5600 C   0  0  0  0  0  2  0  0  0  0  0  0
  2  1  1  1  0  0  0
  3 10  1  0  0  0  0
  4  7  1  0  0  0  0
  5 14  2  0  0  0  0
  6  2  1  0  0  0  0
  7 13  2  0  0  0  0
  7 10  1  0  0  0  0
  8  9  1  0  0  0  0
  8  4  2  0  0  0  0
  9 11  2  0  0  0  0
 10 12  2  0  0  0  0
 11 13  1  0  0  0  0
 12 14  1  0  0  0  0
 13  5  1  0  0  0  0
 14  6  1  0  0  0  0
 15  8  1  0  0  0  0
 16  2  1  0  0  0  0
 17 18  1  1  0  0  0
 17 16  1  0  0  0  0
 18 20  1  0  0  0  0
 20 19  1  1  0  0  0
 20 23  1  0  0  0  0
 23 21  1  0  0  0  0
 23 22  1  0  0  0  0
 24 17  1  0  0  0  0
 25 24  1  0  0  0  0
 26 25  1  0  0  0  0
 27 26  1  0  0  0  0
 28 29  1  0  0  0  0
 29 27  1  0  0  0  0
M  END
>  <MODEL>
2

>  <REMARK>
 VINA RESULT:      -7.9      2.375      7.197
  Name = 
  11 active torsions:
  status: ('A' for Active; 'I' for Inactive)
    1  A    between atoms: C_1  and  C_5
    2  A    between atoms: C_1  and  O_23
    3  A    between atoms: C_5  and  C_17
    4  A    between atoms: C_6  and  C_20
    5  A    between atoms: C_6  and  C_25
    6  A    between atoms: N_9  and  C_19
    7  A    between atoms: C_17  and  C_29
    8  A    between atoms: C_19  and  C_24
    9  A    between atoms: C_20  and  C_21
   10  A    between atoms: C_21  and  O_23
   11  A    between atoms: C_21  and  C_24
                            x       y       z     vdW  Elec       q    Type
                         _______ _______ _______ _____ _____    ______ ____

>  <TORSDO>
F 11

$$$$
=
 OpenBabel10232410203D

 29 30  0  0  1  0  0  0  0  0999 V2000
  191.3760  177.2060  139.7210 C   0  0  0  0  0  1  0  0  0  0  0  0
  190.6340  177.4520  141.0250 C   0  0  2  0  0  3  0  0  0  0  0  0
  192.3060  175.9340  147.1670 Cl  0  0  0  0  0  0  0  0  0  0  0  0
  189.4470  177.0360  147.5020 C   0  0  0  0  0  3  0  0  0  0  0  0
  189.6010  177.4140  143.8520 N   0  0  0  0  0  0  0  0  0  0  0  0
  191.3240  176.9240  142.2050 N   0  0  0  0  0  2  0  0  0  0  0  0
  189.9430  176.9980  146.1920 C   0  0  0  0  0  0  0  0  0  0  0  0
  188.1610  177.5210  147.7510 C   0  0  0  0  0  0  0  0  0  0  0  0
  187.3630  177.9730  146.6940 C   0  0  0  0  0  3  0  0  0  0  0  0
  191.2290  176.5120  145.9030 C   0  0  0  0  0  0  0  0  0  0  0  0
  187.8480  177.9380  145.3840 C   0  0  0  0  0  3  0  0  0  0  0  0
  191.6760  176.4880  144.5810 C   0  0  0  0  0  3  0  0  0  0  0  0
  189.1330  177.4530  145.1270 C   0  0  0  0  0  0  0  0  0  0  0  0
  190.8440  176.9450  143.5560 C   0  0  0  0  0  0  0  0  0  0  0  0
  187.6740  177.5560  149.0490 O   0  0  0  0  0  1  0  0  0  0  0  0
  189.1360  177.1110  140.9720 C   0  0  0  0  0  2  0  0  0  0  0  0
  188.1580  178.2610  140.6950 C   0  0  1  0  0  3  0  0  0  0  0  0
  187.2240  177.9920  139.5210 C   0  0  0  0  0  2  0  0  0  0  0  0
  188.8980  179.2570  138.3500 O   0  0  0  0  0  1  0  0  0  0  0  0
  187.9020  178.2920  138.1860 C   0  0  1  0  0  3  0  0  0  0  0  0
  187.4300  176.0580  137.0800 C   0  0  0  0  0  1  0  0  0  0  0  0
  189.4180  177.3950  136.3950 C   0  0  0  0  0  1  0  0  0  0  0  0
  188.4960  177.0370  137.5460 C   0  0  0  0  0  3  0  0  0  0  0  0
  187.4240  178.5790  141.8390 O   0  0  0  0  0  0  0  0  0  0  0  0
  186.1210  178.8020  141.3880 C   0  0  0  0  0  2  0  0  0  0  0  0
  185.1210  178.3040  142.4190 C   0  0  0  0  0  2  0  0  0  0  0  0
  184.7700  179.3990  143.4160 C   0  0  0  0  0  2  0  0  0  0  0  0
  184.0710  179.0580  145.6630 O   0  0  0  0  0  1  0  0  0  0  0  0
  183.6580  178.9380  144.3380 C   0  0  0  0  0  2  0  0  0  0  0  0
  2  1  1  6  0  0  0
  2  6  1  0  0  0  0
  4  8  1  0  0  0  0
  5 13  1  0  0  0  0
  6 14  1  0  0  0  0
  7  4  2  0  0  0  0
  8 15  1  0  0  0  0
  9  8  2  0  0  0  0
 10  7  1  0  0  0  0
 10  3  1  0  0  0  0
 11  9  1  0  0  0  0
 12 10  2  0  0  0  0
 13 11  2  0  0  0  0
 13  7  1  0  0  0  0
 14  5  2  0  0  0  0
 14 12  1  0  0  0  0
 16  2  1  0  0  0  0
 17 18  1  6  0  0  0
 17 16  1  0  0  0  0
 17 24  1  0  0  0  0
 20 19  1  1  0  0  0
 20 18  1  0  0  0  0
 21 23  1  0  0  0  0
 22 23  1  0  0  0  0
 23 20  1  0  0  0  0
 25 24  1  0  0  0  0
 25 26  1  0  0  0  0
 26 27  1  0  0  0  0
 27 29  1  0  0  0  0
 29 28  1  0  0  0  0
M  END
>  <MODEL>
3

>  <REMARK>
 VINA RESULT:      -7.9      2.676      5.463
  Name = 
  11 active torsions:
  status: ('A' for Active; 'I' for Inactive)
    1  A    between atoms: C_1  and  C_5
    2  A    between atoms: C_1  and  O_23
    3  A    between atoms: C_5  and  C_17
    4  A    between atoms: C_6  and  C_20
    5  A    between atoms: C_6  and  C_25
    6  A    between atoms: N_9  and  C_19
    7  A    between atoms: C_17  and  C_29
    8  A    between atoms: C_19  and  C_24
    9  A    between atoms: C_20  and  C_21
   10  A    between atoms: C_21  and  O_23
   11  A    between atoms: C_21  and  C_24
                            x       y       z     vdW  Elec       q    Type
                         _______ _______ _______ _____ _____    ______ ____

>  <TORSDO>
F 11

$$$$
=
 OpenBabel10232410203D

 29 30  0  0  1  0  0  0  0  0999 V2000
  186.0870  179.8950  147.4510 C   0  0  0  0  0  1  0  0  0  0  0  0
  185.8230  178.9260  146.3090 C   0  0  2  0  0  3  0  0  0  0  0  0
  180.2890  178.9360  142.8170 Cl  0  0  0  0  0  0  0  0  0  0  0  0
  182.4620  178.8290  140.6330 C   0  0  0  0  0  3  0  0  0  0  0  0
  184.7640  178.8070  143.4940 N   0  0  0  0  0  0  0  0  0  0  0  0
  184.4170  178.8610  145.9020 N   0  0  0  0  0  2  0  0  0  0  0  0
  182.9200  178.8400  141.9570 C   0  0  0  0  0  0  0  0  0  0  0  0
  183.3740  178.7830  139.5760 C   0  0  0  0  0  0  0  0  0  0  0  0
  184.7490  178.7500  139.8350 C   0  0  0  0  0  3  0  0  0  0  0  0
  182.0320  178.8810  143.0450 C   0  0  0  0  0  0  0  0  0  0  0  0
  185.2150  178.7590  141.1520 C   0  0  0  0  0  3  0  0  0  0  0  0
  182.5370  178.8840  144.3470 C   0  0  0  0  0  3  0  0  0  0  0  0
  184.3090  178.8040  142.2140 C   0  0  0  0  0  0  0  0  0  0  0  0
  183.9170  178.8460  144.5590 C   0  0  0  0  0  0  0  0  0  0  0  0
  182.9170  178.7710  138.2670 O   0  0  0  0  0  1  0  0  0  0  0  0
  186.4880  177.5500  146.4860 C   0  0  0  0  0  2  0  0  0  0  0  0
  187.8490  177.3310  145.8120 C   0  0  1  0  0  3  0  0  0  0  0  0
  187.7880  177.3940  144.2910 C   0  0  0  0  0  2  0  0  0  0  0  0
  188.6320  175.5700  142.9740 O   0  0  0  0  0  1  0  0  0  0  0  0
  189.0070  176.7320  143.6530 C   0  0  1  0  0  3  0  0  0  0  0  0
  188.8000  178.4360  141.7860 C   0  0  0  0  0  1  0  0  0  0  0  0
  190.6270  178.6420  143.4660 C   0  0  0  0  0  1  0  0  0  0  0  0
  189.7450  177.6740  142.7010 C   0  0  0  0  0  3  0  0  0  0  0  0
  188.7990  178.2310  146.2990 O   0  0  0  0  0  0  0  0  0  0  0  0
  189.1400  177.7520  147.5660 C   0  0  0  0  0  2  0  0  0  0  0  0
  189.9740  176.4870  147.4370 C   0  0  0  0  0  2  0  0  0  0  0  0
  191.2830  176.7650  146.7130 C   0  0  0  0  0  2  0  0  0  0  0  0
  192.8710  176.0180  148.3170 O   0  0  0  0  0  1  0  0  0  0  0  0
  192.3200  175.7190  147.0730 C   0  0  0  0  0  2  0  0  0  0  0  0
  2 16  1  0  0  0  0
  2  1  1  1  0  0  0
  3 10  1  0  0  0  0
  4  7  1  0  0  0  0
  5 14  2  0  0  0  0
  6  2  1  0  0  0  0
  7 13  2  0  0  0  0
  7 10  1  0  0  0  0
  8  9  1  0  0  0  0
  8  4  2  0  0  0  0
  9 11  2  0  0  0  0
 10 12  2  0  0  0  0
 11 13  1  0  0  0  0
 12 14  1  0  0  0  0
 13  5  1  0  0  0  0
 14  6  1  0  0  0  0
 15  8  1  0  0  0  0
 17 18  1  6  0  0  0
 17 24  1  0  0  0  0
 17 16  1  0  0  0  0
 20 19  1  6  0  0  0
 20 18  1  0  0  0  0
 21 23  1  0  0  0  0
 23 22  1  0  0  0  0
 23 20  1  0  0  0  0
 24 25  1  0  0  0  0
 26 25  1  0  0  0  0
 27 29  1  0  0  0  0
 27 26  1  0  0  0  0
 29 28  1  0  0  0  0
M  END
>  <MODEL>
4

>  <REMARK>
 VINA RESULT:      -7.8      2.823      7.439
  Name = 
  11 active torsions:
  status: ('A' for Active; 'I' for Inactive)
    1  A    between atoms: C_1  and  C_5
    2  A    between atoms: C_1  and  O_23
    3  A    between atoms: C_5  and  C_17
    4  A    between atoms: C_6  and  C_20
    5  A    between atoms: C_6  and  C_25
    6  A    between atoms: N_9  and  C_19
    7  A    between atoms: C_17  and  C_29
    8  A    between atoms: C_19  and  C_24
    9  A    between atoms: C_20  and  C_21
   10  A    between atoms: C_21  and  O_23
   11  A    between atoms: C_21  and  C_24
                            x       y       z     vdW  Elec       q    Type
                         _______ _______ _______ _____ _____    ______ ____

>  <TORSDO>
F 11

$$$$
=
 OpenBabel10232410203D

 29 30  0  0  1  0  0  0  0  0999 V2000
  190.8460  179.1380  143.7500 C   0  0  0  0  0  1  0  0  0  0  0  0
  190.4390  177.7530  143.2720 C   0  0  2  0  0  3  0  0  0  0  0  0
  191.3530  176.1890  136.9840 Cl  0  0  0  0  0  0  0  0  0  0  0  0
  188.4610  177.2560  136.9980 C   0  0  0  0  0  3  0  0  0  0  0  0
  189.1020  177.7820  140.5760 N   0  0  0  0  0  0  0  0  0  0  0  0
  191.0380  177.3700  141.9920 N   0  0  0  0  0  2  0  0  0  0  0  0
  189.1290  177.2700  138.2290 C   0  0  0  0  0  0  0  0  0  0  0  0
  187.1470  177.7200  136.9070 C   0  0  0  0  0  0  0  0  0  0  0  0
  186.4900  178.1980  138.0460 C   0  0  0  0  0  3  0  0  0  0  0  0
  190.4520  176.8180  138.3570 C   0  0  0  0  0  0  0  0  0  0  0  0
  187.1480  178.2170  139.2790 C   0  0  0  0  0  3  0  0  0  0  0  0
  191.0770  176.8580  139.6060 C   0  0  0  0  0  3  0  0  0  0  0  0
  188.4620  177.7560  139.3770 C   0  0  0  0  0  0  0  0  0  0  0  0
  190.3850  177.3470  140.7150 C   0  0  0  0  0  0  0  0  0  0  0  0
  186.4910  177.7050  135.6850 O   0  0  0  0  0  1  0  0  0  0  0  0
  188.9290  177.4740  143.3650 C   0  0  0  0  0  2  0  0  0  0  0  0
  188.2760  177.5680  144.7510 C   0  0  1  0  0  3  0  0  0  0  0  0
  186.7870  177.2460  144.7410 C   0  0  0  0  0  2  0  0  0  0  0  0
  185.2160  177.9860  143.0810 O   0  0  0  0  0  1  0  0  0  0  0  0
  185.9670  178.4060  144.1810 C   0  0  1  0  0  3  0  0  0  0  0  0
  183.5800  178.9630  144.8360 C   0  0  0  0  0  1  0  0  0  0  0  0
  185.2490  178.3700  146.5880 C   0  0  0  0  0  1  0  0  0  0  0  0
  185.0470  179.0240  145.2340 C   0  0  0  0  0  3  0  0  0  0  0  0
  188.9440  176.7590  145.6730 O   0  0  0  0  0  0  0  0  0  0  0  0
  189.1130  177.5590  146.8050 C   0  0  0  0  0  2  0  0  0  0  0  0
  190.4050  177.1860  147.5170 C   0  0  0  0  0  2  0  0  0  0  0  0
  191.3600  176.4660  146.5770 C   0  0  0  0  0  2  0  0  0  0  0  0
  192.7800  176.4020  148.4830 O   0  0  0  0  0  1  0  0  0  0  0  0
  192.3800  175.6690  147.3680 C   0  0  0  0  0  2  0  0  0  0  0  0
  2 16  1  0  0  0  0
  2  1  1  6  0  0  0
  3 10  1  0  0  0  0
  4  7  1  0  0  0  0
  5 14  2  0  0  0  0
  6  2  1  0  0  0  0
  7 10  1  0  0  0  0
  7 13  2  0  0  0  0
  8  4  2  0  0  0  0
  8  9  1  0  0  0  0
  9 11  2  0  0  0  0
 10 12  2  0  0  0  0
 11 13  1  0  0  0  0
 12 14  1  0  0  0  0
 13  5  1  0  0  0  0
 14  6  1  0  0  0  0
 15  8  1  0  0  0  0
 17 16  1  6  0  0  0
 17 24  1  0  0  0  0
 18 17  1  0  0  0  0
 20 19  1  6  0  0  0
 20 18  1  0  0  0  0
 20 23  1  0  0  0  0
 21 23  1  0  0  0  0
 23 22  1  0  0  0  0
 24 25  1  0  0  0  0
 25 26  1  0  0  0  0
 27 29  1  0  0  0  0
 27 26  1  0  0  0  0
 29 28  1  0  0  0  0
M  END
>  <MODEL>
5

>  <REMARK>
 VINA RESULT:      -7.6      3.720      7.897
  Name = 
  11 active torsions:
  status: ('A' for Active; 'I' for Inactive)
    1  A    between atoms: C_1  and  C_5
    2  A    between atoms: C_1  and  O_23
    3  A    between atoms: C_5  and  C_17
    4  A    between atoms: C_6  and  C_20
    5  A    between atoms: C_6  and  C_25
    6  A    between atoms: N_9  and  C_19
    7  A    between atoms: C_17  and  C_29
    8  A    between atoms: C_19  and  C_24
    9  A    between atoms: C_20  and  C_21
   10  A    between atoms: C_21  and  O_23
   11  A    between atoms: C_21  and  C_24
                            x       y       z     vdW  Elec       q    Type
                         _______ _______ _______ _____ _____    ______ ____

>  <TORSDO>
F 11

$$$$
=
 OpenBabel10232410203D

 29 30  0  0  1  0  0  0  0  0999 V2000
  190.4920  178.8230  143.6740 C   0  0  0  0  0  1  0  0  0  0  0  0
  189.6910  177.6760  143.0780 C   0  0  2  0  0  3  0  0  0  0  0  0
  187.4030  178.7570  137.0430 Cl  0  0  0  0  0  0  0  0  0  0  0  0
  189.8540  176.9620  136.5210 C   0  0  0  0  0  3  0  0  0  0  0  0
  190.1580  177.0070  140.1810 N   0  0  0  0  0  0  0  0  0  0  0  0
  188.8550  178.0680  141.9410 N   0  0  0  0  0  2  0  0  0  0  0  0
  189.5810  177.2570  137.8630 C   0  0  0  0  0  0  0  0  0  0  0  0
  190.9450  176.1570  136.1880 C   0  0  0  0  0  0  0  0  0  0  0  0
  191.7730  175.6440  137.1920 C   0  0  0  0  0  3  0  0  0  0  0  0
  188.4890  178.0580  138.2360 C   0  0  0  0  0  0  0  0  0  0  0  0
  191.5080  175.9300  138.5340 C   0  0  0  0  0  3  0  0  0  0  0  0
  188.2550  178.3180  139.5880 C   0  0  0  0  0  3  0  0  0  0  0  0
  190.4180  176.7340  138.8750 C   0  0  0  0  0  0  0  0  0  0  0  0
  189.1040  177.7810  140.5580 C   0  0  0  0  0  0  0  0  0  0  0  0
  191.2110  175.8680  134.8580 O   0  0  0  0  0  1  0  0  0  0  0  0
  188.9640  176.8080  144.1190 C   0  0  0  0  0  2  0  0  0  0  0  0
  187.9350  177.5010  145.0230 C   0  0  1  0  0  3  0  0  0  0  0  0
  186.4940  177.2830  144.5750 C   0  0  0  0  0  2  0  0  0  0  0  0
  185.3640  178.4200  142.7860 O   0  0  0  0  0  1  0  0  0  0  0  0
  185.8590  178.5820  144.0810 C   0  0  1  0  0  3  0  0  0  0  0  0
  183.3580  178.8220  144.4290 C   0  0  0  0  0  1  0  0  0  0  0  0
  184.8580  178.4320  146.3800 C   0  0  0  0  0  1  0  0  0  0  0  0
  184.7430  179.0670  145.0070 C   0  0  0  0  0  3  0  0  0  0  0  0
  188.0960  177.1110  146.3530 O   0  0  0  0  0  0  0  0  0  0  0  0
  189.2510  177.7650  146.7880 C   0  0  0  0  0  2  0  0  0  0  0  0
  190.1350  176.8000  147.5620 C   0  0  0  0  0  2  0  0  0  0  0  0
  191.4610  176.5800  146.8480 C   0  0  0  0  0  2  0  0  0  0  0  0
  193.3360  175.9020  148.1430 O   0  0  0  0  0  1  0  0  0  0  0  0
  192.2130  175.4210  147.4740 C   0  0  0  0  0  2  0  0  0  0  0  0
  2  1  1  1  0  0  0
  2 16  1  0  0  0  0
  3 10  1  0  0  0  0
  4  7  1  0  0  0  0
  5 14  2  0  0  0  0
  6  2  1  0  0  0  0
  7 10  1  0  0  0  0
  7 13  2  0  0  0  0
  8  4  2  0  0  0  0
  8  9  1  0  0  0  0
  9 11  2  0  0  0  0
 10 12  2  0  0  0  0
 11 13  1  0  0  0  0
 12 14  1  0  0  0  0
 13  5  1  0  0  0  0
 14  6  1  0  0  0  0
 15  8  1  0  0  0  0
 17 16  1  6  0  0  0
 17 24  1  0  0  0  0
 18 17  1  0  0  0  0
 20 19  1  6  0  0  0
 20 18  1  0  0  0  0
 20 23  1  0  0  0  0
 21 23  1  0  0  0  0
 23 22  1  0  0  0  0
 24 25  1  0  0  0  0
 25 26  1  0  0  0  0
 27 29  1  0  0  0  0
 27 26  1  0  0  0  0
 29 28  1  0  0  0  0
M  END
>  <MODEL>
6

>  <REMARK>
 VINA RESULT:      -7.5      3.674      7.749
  Name = 
  11 active torsions:
  status: ('A' for Active; 'I' for Inactive)
    1  A    between atoms: C_1  and  C_5
    2  A    between atoms: C_1  and  O_23
    3  A    between atoms: C_5  and  C_17
    4  A    between atoms: C_6  and  C_20
    5  A    between atoms: C_6  and  C_25
    6  A    between atoms: N_9  and  C_19
    7  A    between atoms: C_17  and  C_29
    8  A    between atoms: C_19  and  C_24
    9  A    between atoms: C_20  and  C_21
   10  A    between atoms: C_21  and  O_23
   11  A    between atoms: C_21  and  C_24
                            x       y       z     vdW  Elec       q    Type
                         _______ _______ _______ _____ _____    ______ ____

>  <TORSDO>
F 11

$$$$
=
 OpenBabel10232410203D

 29 30  0  0  1  0  0  0  0  0999 V2000
  192.2200  177.5470  140.4440 C   0  0  0  0  0  1  0  0  0  0  0  0
  191.1960  177.3820  141.5560 C   0  0  2  0  0  3  0  0  0  0  0  0
  192.2500  175.8880  147.8400 Cl  0  0  0  0  0  0  0  0  0  0  0  0
  189.4160  177.0990  147.9030 C   0  0  0  0  0  3  0  0  0  0  0  0
  189.9120  177.4210  144.2790 N   0  0  0  0  0  0  0  0  0  0  0  0
  191.7560  176.8450  142.7990 N   0  0  0  0  0  2  0  0  0  0  0  0
  190.0260  177.0240  146.6440 C   0  0  0  0  0  0  0  0  0  0  0  0
  188.1320  177.6350  148.0300 C   0  0  0  0  0  0  0  0  0  0  0  0
  187.4510  178.1010  146.9010 C   0  0  0  0  0  3  0  0  0  0  0  0
  191.3130  176.4870  146.4780 C   0  0  0  0  0  0  0  0  0  0  0  0
  188.0500  178.0300  145.6400 C   0  0  0  0  0  3  0  0  0  0  0  0
  191.8760  176.4290  145.2010 C   0  0  0  0  0  3  0  0  0  0  0  0
  189.3330  177.4950  145.5060 C   0  0  0  0  0  0  0  0  0  0  0  0
  191.1580  176.9030  144.1010 C   0  0  0  0  0  0  0  0  0  0  0  0
  187.5320  177.7050  149.2780 O   0  0  0  0  0  1  0  0  0  0  0  0
  189.8900  176.7020  141.1140 C   0  0  0  0  0  2  0  0  0  0  0  0
  188.8040  177.5930  140.4940 C   0  0  1  0  0  3  0  0  0  0  0  0
  188.1310  178.5150  141.5030 C   0  0  0  0  0  2  0  0  0  0  0  0
  186.6410  177.4550  143.0620 O   0  0  0  0  0  1  0  0  0  0  0  0
  186.7030  178.0650  141.8070 C   0  0  1  0  0  3  0  0  0  0  0  0
  184.7770  179.1290  140.5430 C   0  0  0  0  0  1  0  0  0  0  0  0
  184.8990  179.3200  143.0250 C   0  0  0  0  0  1  0  0  0  0  0  0
  185.7070  179.2230  141.7430 C   0  0  0  0  0  3  0  0  0  0  0  0
  189.3130  178.3300  139.4240 O   0  0  0  0  0  0  0  0  0  0  0  0
  188.4090  178.1300  138.3790 C   0  0  0  0  0  2  0  0  0  0  0  0
  188.7540  176.8530  137.6290 C   0  0  0  0  0  2  0  0  0  0  0  0
  190.1860  176.8870  137.1180 C   0  0  0  0  0  2  0  0  0  0  0  0
  191.0020  175.0050  138.3220 O   0  0  0  0  0  1  0  0  0  0  0  0
  190.7520  175.4820  137.0370 C   0  0  0  0  0  2  0  0  0  0  0  0
  2  1  1  6  0  0  0
  2  6  1  0  0  0  0
  4  8  1  0  0  0  0
  5 13  1  0  0  0  0
  6 14  1  0  0  0  0
  7  4  2  0  0  0  0
  8 15  1  0  0  0  0
  9  8  2  0  0  0  0
 10  7  1  0  0  0  0
 10  3  1  0  0  0  0
 11  9  1  0  0  0  0
 12 10  2  0  0  0  0
 13 11  2  0  0  0  0
 13  7  1  0  0  0  0
 14  5  2  0  0  0  0
 14 12  1  0  0  0  0
 16  2  1  0  0  0  0
 17 16  1  1  0  0  0
 17 18  1  0  0  0  0
 18 20  1  0  0  0  0
 20 19  1  1  0  0  0
 21 23  1  0  0  0  0
 23 20  1  0  0  0  0
 23 22  1  0  0  0  0
 24 17  1  0  0  0  0
 25 24  1  0  0  0  0
 26 25  1  0  0  0  0
 27 26  1  0  0  0  0
 29 27  1  0  0  0  0
 29 28  1  0  0  0  0
M  END
>  <MODEL>
7

>  <REMARK>
 VINA RESULT:      -7.4      2.630      4.785
  Name = 
  11 active torsions:
  status: ('A' for Active; 'I' for Inactive)
    1  A    between atoms: C_1  and  C_5
    2  A    between atoms: C_1  and  O_23
    3  A    between atoms: C_5  and  C_17
    4  A    between atoms: C_6  and  C_20
    5  A    between atoms: C_6  and  C_25
    6  A    between atoms: N_9  and  C_19
    7  A    between atoms: C_17  and  C_29
    8  A    between atoms: C_19  and  C_24
    9  A    between atoms: C_20  and  C_21
   10  A    between atoms: C_21  and  O_23
   11  A    between atoms: C_21  and  C_24
                            x       y       z     vdW  Elec       q    Type
                         _______ _______ _______ _____ _____    ______ ____

>  <TORSDO>
F 11

$$$$
=
 OpenBabel10232410203D

 29 30  0  0  1  0  0  0  0  0999 V2000
  188.2290  178.4440  140.9200 C   0  0  0  0  0  1  0  0  0  0  0  0
  189.2360  177.3770  140.5190 C   0  0  2  0  0  3  0  0  0  0  0  0
  191.9790  176.4200  146.3820 Cl  0  0  0  0  0  0  0  0  0  0  0  0
  189.1100  177.2800  147.1140 C   0  0  0  0  0  3  0  0  0  0  0  0
  188.6600  177.4310  143.4730 N   0  0  0  0  0  0  0  0  0  0  0  0
  190.1480  176.9920  141.5980 N   0  0  0  0  0  2  0  0  0  0  0  0
  189.4000  177.2010  145.7460 C   0  0  0  0  0  0  0  0  0  0  0  0
  187.8370  177.6620  147.5410 C   0  0  0  0  0  0  0  0  0  0  0  0
  186.8450  177.9710  146.6050 C   0  0  0  0  0  3  0  0  0  0  0  0
  190.6670  176.8150  145.2800 C   0  0  0  0  0  0  0  0  0  0  0  0
  187.1220  177.8940  145.2370 C   0  0  0  0  0  3  0  0  0  0  0  0
  190.9040  176.7450  143.9050 C   0  0  0  0  0  3  0  0  0  0  0  0
  188.3930  177.5110  144.8030 C   0  0  0  0  0  0  0  0  0  0  0  0
  189.8830  177.0580  143.0050 C   0  0  0  0  0  0  0  0  0  0  0  0
  187.5550  177.7380  148.8970 O   0  0  0  0  0  1  0  0  0  0  0  0
  189.9330  177.6450  139.1750 C   0  0  0  0  0  2  0  0  0  0  0  0
  189.1830  177.2440  137.8960 C   0  0  1  0  0  3  0  0  0  0  0  0
  190.0350  176.4400  136.9220 C   0  0  0  0  0  2  0  0  0  0  0  0
  190.2770  174.1100  137.4570 O   0  0  0  0  0  1  0  0  0  0  0  0
  190.8510  175.3690  137.6440 C   0  0  1  0  0  3  0  0  0  0  0  0
  193.1380  176.4520  137.8240 C   0  0  0  0  0  1  0  0  0  0  0  0
  192.9450  173.9970  137.4500 C   0  0  0  0  0  1  0  0  0  0  0  0
  192.3090  175.3480  137.1860 C   0  0  0  0  0  3  0  0  0  0  0  0
  188.0090  176.5540  138.2020 O   0  0  0  0  0  0  0  0  0  0  0  0
  187.0680  177.0010  137.2720 C   0  0  0  0  0  2  0  0  0  0  0  0
  186.3860  178.2590  137.7860 C   0  0  0  0  0  2  0  0  0  0  0  0
  184.9760  177.9580  138.2730 C   0  0  0  0  0  2  0  0  0  0  0  0
  184.9250  179.5440  140.0440 O   0  0  0  0  0  1  0  0  0  0  0  0
  184.3290  179.2120  138.8290 C   0  0  0  0  0  2  0  0  0  0  0  0
  2  1  1  1  0  0  0
  2  6  1  0  0  0  0
  4  8  1  0  0  0  0
  5 13  1  0  0  0  0
  6 14  1  0  0  0  0
  7  4  2  0  0  0  0
  8 15  1  0  0  0  0
  9  8  2  0  0  0  0
 10  7  1  0  0  0  0
 10  3  1  0  0  0  0
 11  9  1  0  0  0  0
 12 10  2  0  0  0  0
 13 11  2  0  0  0  0
 13  7  1  0  0  0  0
 14  5  2  0  0  0  0
 14 12  1  0  0  0  0
 16  2  1  0  0  0  0
 17 18  1  6  0  0  0
 17 24  1  0  0  0  0
 17 16  1  0  0  0  0
 18 20  1  0  0  0  0
 20 19  1  6  0  0  0
 23 22  1  0  0  0  0
 23 20  1  0  0  0  0
 23 21  1  0  0  0  0
 25 26  1  0  0  0  0
 25 24  1  0  0  0  0
 26 27  1  0  0  0  0
 27 29  1  0  0  0  0
 29 28  1  0  0  0  0
M  END
>  <MODEL>
8

>  <REMARK>
 VINA RESULT:      -7.1      3.063      6.159
  Name = 
  11 active torsions:
  status: ('A' for Active; 'I' for Inactive)
    1  A    between atoms: C_1  and  C_5
    2  A    between atoms: C_1  and  O_23
    3  A    between atoms: C_5  and  C_17
    4  A    between atoms: C_6  and  C_20
    5  A    between atoms: C_6  and  C_25
    6  A    between atoms: N_9  and  C_19
    7  A    between atoms: C_17  and  C_29
    8  A    between atoms: C_19  and  C_24
    9  A    between atoms: C_20  and  C_21
   10  A    between atoms: C_21  and  O_23
   11  A    between atoms: C_21  and  C_24
                            x       y       z     vdW  Elec       q    Type
                         _______ _______ _______ _____ _____    ______ ____

>  <TORSDO>
F 11

$$$$
=
 OpenBabel10232410203D

 29 30  0  0  1  0  0  0  0  0999 V2000
  188.9670  178.7610  138.3090 C   0  0  0  0  0  1  0  0  0  0  0  0
  188.3650  177.9340  139.4350 C   0  0  2  0  0  3  0  0  0  0  0  0
  183.0220  179.2730  142.9670 Cl  0  0  0  0  0  0  0  0  0  0  0  0
  185.0550  178.4190  145.1210 C   0  0  0  0  0  3  0  0  0  0  0  0
  187.3220  178.0470  142.2560 N   0  0  0  0  0  0  0  0  0  0  0  0
  187.0430  178.3950  139.8640 N   0  0  0  0  0  2  0  0  0  0  0  0
  185.5210  178.4210  143.8000 C   0  0  0  0  0  0  0  0  0  0  0  0
  185.9050  178.0450  146.1650 C   0  0  0  0  0  0  0  0  0  0  0  0
  187.2250  177.6680  145.8950 C   0  0  0  0  0  3  0  0  0  0  0  0
  184.6970  178.7960  142.7260 C   0  0  0  0  0  0  0  0  0  0  0  0
  187.7000  177.6680  144.5810 C   0  0  0  0  0  3  0  0  0  0  0  0
  185.2100  178.7880  141.4280 C   0  0  0  0  0  3  0  0  0  0  0  0
  186.8560  178.0420  143.5330 C   0  0  0  0  0  0  0  0  0  0  0  0
  186.5360  178.4090  141.2050 C   0  0  0  0  0  0  0  0  0  0  0  0
  185.4390  178.0460  147.4710 O   0  0  0  0  0  1  0  0  0  0  0  0
  189.3350  177.6490  140.5940 C   0  0  0  0  0  2  0  0  0  0  0  0
  190.8010  177.3670  140.2360 C   0  0  1  0  0  3  0  0  0  0  0  0
  191.7160  177.2920  141.4520 C   0  0  0  0  0  2  0  0  0  0  0  0
  190.7740  175.7100  142.9960 O   0  0  0  0  0  1  0  0  0  0  0  0
  190.9210  177.0750  142.7390 C   0  0  1  0  0  3  0  0  0  0  0  0
  191.1290  179.2100  144.0920 C   0  0  0  0  0  1  0  0  0  0  0  0
  191.2960  176.9950  145.2210 C   0  0  0  0  0  1  0  0  0  0  0  0
  191.5690  177.7620  143.9410 C   0  0  0  0  0  3  0  0  0  0  0  0
  190.9130  176.2050  139.4700 O   0  0  0  0  0  0  0  0  0  0  0  0
  191.9070  176.4820  138.5290 C   0  0  0  0  0  2  0  0  0  0  0  0
  191.9240  175.4040  137.4570 C   0  0  0  0  0  2  0  0  0  0  0  0
  190.5220  174.8810  137.1830 C   0  0  0  0  0  2  0  0  0  0  0  0
  191.8970  173.0820  136.4590 O   0  0  0  0  0  1  0  0  0  0  0  0
  190.5850  173.5520  136.4560 C   0  0  0  0  0  2  0  0  0  0  0  0
  2  1  1  6  0  0  0
  2  6  1  0  0  0  0
  2 16  1  0  0  0  0
  4  8  1  0  0  0  0
  5 13  1  0  0  0  0
  6 14  1  0  0  0  0
  7  4  2  0  0  0  0
  8 15  1  0  0  0  0
  9  8  2  0  0  0  0
 10  3  1  0  0  0  0
 10  7  1  0  0  0  0
 11  9  1  0  0  0  0
 12 10  2  0  0  0  0
 13  7  1  0  0  0  0
 13 11  2  0  0  0  0
 14 12  1  0  0  0  0
 14  5  2  0  0  0  0
 17 16  1  1  0  0  0
 17 18  1  0  0  0  0
 18 20  1  0  0  0  0
 20 19  1  1  0  0  0
 20 23  1  0  0  0  0
 23 21  1  0  0  0  0
 23 22  1  0  0  0  0
 24 17  1  0  0  0  0
 25 24  1  0  0  0  0
 26 25  1  0  0  0  0
 27 26  1  0  0  0  0
 29 28  1  0  0  0  0
 29 27  1  0  0  0  0
M  END
>  <MODEL>
9

>  <REMARK>
 VINA RESULT:      -7.1      3.504      6.577
  Name = 
  11 active torsions:
  status: ('A' for Active; 'I' for Inactive)
    1  A    between atoms: C_1  and  C_5
    2  A    between atoms: C_1  and  O_23
    3  A    between atoms: C_5  and  C_17
    4  A    between atoms: C_6  and  C_20
    5  A    between atoms: C_6  and  C_25
    6  A    between atoms: N_9  and  C_19
    7  A    between atoms: C_17  and  C_29
    8  A    between atoms: C_19  and  C_24
    9  A    between atoms: C_20  and  C_21
   10  A    between atoms: C_21  and  O_23
   11  A    between atoms: C_21  and  C_24
                            x       y       z     vdW  Elec       q    Type
                         _______ _______ _______ _____ _____    ______ ____

>  <TORSDO>
F 11

$$$$
