=
 OpenBabel10232407563D

 26 29  0  0  1  0  0  0  0  0999 V2000
  185.5340  178.0420  144.0980 N   0  0  0  0  0  0  0  0  0  0  0  0
  185.8940  178.6310  146.4670 C   0  0  0  0  0  3  0  0  0  0  0  0
  183.4310  178.9770  143.9810 C   0  0  0  0  0  0  0  0  0  0  0  0
  186.8520  177.5320  143.7070 C   0  0  0  0  0  2  0  0  0  0  0  0
  189.4990  177.2800  141.5110 C   0  0  0  0  0  3  0  0  0  0  0  0
  183.8650  179.2060  145.3160 N   0  0  0  0  0  2  0  0  0  0  0  0
  182.2990  179.3400  143.5650 O   0  0  0  0  0  0  0  0  0  0  0  0
  187.1560  178.0230  142.3330 C   0  0  0  0  0  0  0  0  0  0  0  0
  188.2510  177.8610  141.5220 C   0  0  0  0  0  0  0  0  0  0  0  0
  190.9970  177.2660  139.6900 O   0  0  0  0  0  0  0  0  0  0  0  0
  188.9480  178.2910  139.4900 N   0  0  0  0  0  2  0  0  0  0  0  0
  186.7980  178.9270  140.3240 O   0  0  0  0  0  0  0  0  0  0  0  0
  184.4330  178.2490  143.1480 C   0  0  1  0  0  3  0  0  0  0  0  0
  189.8900  177.5970  140.1880 C   0  0  0  0  0  0  0  0  0  0  0  0
  187.9870  178.4170  140.3740 N   0  0  0  0  0  0  0  0  0  0  0  0
  186.2490  178.7030  141.5110 C   0  0  0  0  0  0  0  0  0  0  0  0
  185.1580  178.6210  145.3530 C   0  0  0  0  0  0  0  0  0  0  0  0
  184.8870  179.1230  141.9640 C   0  0  0  0  0  2  0  0  0  0  0  0
  187.2480  178.0220  146.5820 C   0  0  0  0  0  2  0  0  0  0  0  0
  187.6840  178.0270  148.0340 C   0  0  0  0  0  2  0  0  0  0  0  0
  189.8490  178.4150  148.9390 O   0  0  0  0  0  0  0  0  0  0  0  0
  189.1450  177.7640  148.1220 C   0  0  0  0  0  0  0  0  0  0  0  0
  189.7410  176.7970  147.2550 N   0  0  0  0  0  2  0  0  0  0  0  0
  191.1610  176.4840  147.2920 C   0  0  0  0  0  2  0  0  0  0  0  0
  191.8190  177.1510  146.2590 O   0  0  0  0  0  0  0  0  0  0  0  0
  191.1020  176.8100  145.1120 C   0  0  0  0  0  1  0  0  0  0  0  0
  1 17  1  0  0  0  0
  2 19  1  0  0  0  0
  3  6  1  0  0  0  0
  4  1  1  0  0  0  0
  5  9  2  0  0  0  0
  6 17  1  0  0  0  0
  7  3  2  0  0  0  0
  8  4  1  0  0  0  0
  9  8  1  0  0  0  0
 10 14  2  0  0  0  0
 11 14  1  0  0  0  0
 11 15  1  0  0  0  0
 12 15  1  0  0  0  0
 12 16  1  0  0  0  0
 13 18  1  6  0  0  0
 13  3  1  0  0  0  0
 13  1  1  0  0  0  0
 14  5  1  0  0  0  0
 15  9  1  0  0  0  0
 16 18  1  0  0  0  0
 16  8  2  0  0  0  0
 17  2  2  0  0  0  0
 19 20  1  0  0  0  0
 20 22  1  0  0  0  0
 22 21  2  0  0  0  0
 23 24  1  0  0  0  0
 23 22  1  0  0  0  0
 25 24  1  0  0  0  0
 26 25  1  0  0  0  0
M  END
>  <MODEL>
1

>  <REMARK>
 VINA RESULT:      -9.2      0.000      0.000
  Name = 
  5 active torsions:
  status: ('A' for Active; 'I' for Inactive)
    1  A    between atoms: C_2  and  C_20
    2  A    between atoms: O_4  and  C_9
    3  A    between atoms: C_7  and  C_10
    4  A    between atoms: C_7  and  C_20
    5  A    between atoms: C_9  and  N_21
                            x       y       z     vdW  Elec       q    Type
                         _______ _______ _______ _____ _____    ______ ____

>  <TORSDO>
F 5

$$$$
=
 OpenBabel10232407563D

 26 29  0  0  1  0  0  0  0  0999 V2000
  189.6820  177.0040  145.2860 N   0  0  0  0  0  0  0  0  0  0  0  0
  191.3830  177.7120  143.6450 C   0  0  0  0  0  3  0  0  0  0  0  0
  191.1750  176.7670  147.0260 C   0  0  0  0  0  0  0  0  0  0  0  0
  188.4350  177.2160  144.5430 C   0  0  0  0  0  2  0  0  0  0  0  0
  185.1700  178.2980  144.3060 C   0  0  0  0  0  3  0  0  0  0  0  0
  191.9600  177.1920  145.9180 N   0  0  0  0  0  2  0  0  0  0  0  0
  191.6750  176.5150  148.1540 O   0  0  0  0  0  0  0  0  0  0  0  0
  187.4220  177.7820  145.4790 C   0  0  0  0  0  0  0  0  0  0  0  0
  186.1230  178.1810  145.2920 C   0  0  0  0  0  0  0  0  0  0  0  0
  182.9460  179.0180  144.6160 O   0  0  0  0  0  0  0  0  0  0  0  0
  184.3770  178.8850  146.4120 N   0  0  0  0  0  2  0  0  0  0  0  0
  186.4870  178.3730  147.4170 O   0  0  0  0  0  0  0  0  0  0  0  0
  189.7240  176.6290  146.7050 C   0  0  1  0  0  3  0  0  0  0  0  0
  184.0840  178.7570  145.0880 C   0  0  0  0  0  0  0  0  0  0  0  0
  185.6370  178.5230  146.4510 N   0  0  0  0  0  0  0  0  0  0  0  0
  187.6010  177.9140  146.8610 C   0  0  0  0  0  0  0  0  0  0  0  0
  191.0140  177.3290  144.8700 C   0  0  0  0  0  0  0  0  0  0  0  0
  188.8880  177.6030  147.5560 C   0  0  0  0  0  2  0  0  0  0  0  0
  190.4480  177.8590  142.4940 C   0  0  0  0  0  2  0  0  0  0  0  0
  190.5220  176.6230  141.6200 C   0  0  0  0  0  2  0  0  0  0  0  0
  190.4200  176.3740  139.2570 O   0  0  0  0  0  0  0  0  0  0  0  0
  189.9340  176.9150  140.2860 C   0  0  0  0  0  0  0  0  0  0  0  0
  188.8440  177.8330  140.1810 N   0  0  0  0  0  2  0  0  0  0  0  0
  188.2160  178.1580  138.9090 C   0  0  0  0  0  2  0  0  0  0  0  0
  188.8760  179.2360  138.3190 O   0  0  0  0  0  0  0  0  0  0  0  0
  189.0290  178.8630  136.9840 C   0  0  0  0  0  1  0  0  0  0  0  0
  1 13  1  0  0  0  0
  2 17  2  0  0  0  0
  3  7  2  0  0  0  0
  4  1  1  0  0  0  0
  4  8  1  0  0  0  0
  5 14  1  0  0  0  0
  5  9  2  0  0  0  0
  6  3  1  0  0  0  0
  8 16  2  0  0  0  0
  9  8  1  0  0  0  0
  9 15  1  0  0  0  0
 10 14  2  0  0  0  0
 11 15  1  0  0  0  0
 13  3  1  0  0  0  0
 13 18  1  1  0  0  0
 14 11  1  0  0  0  0
 15 12  1  0  0  0  0
 16 12  1  0  0  0  0
 16 18  1  0  0  0  0
 17  1  1  0  0  0  0
 17  6  1  0  0  0  0
 19  2  1  0  0  0  0
 20 19  1  0  0  0  0
 21 22  2  0  0  0  0
 22 20  1  0  0  0  0
 23 22  1  0  0  0  0
 24 23  1  0  0  0  0
 25 24  1  0  0  0  0
 26 25  1  0  0  0  0
M  END
>  <MODEL>
2

>  <REMARK>
 VINA RESULT:      -9.2      1.790      7.276
  Name = 
  5 active torsions:
  status: ('A' for Active; 'I' for Inactive)
    1  A    between atoms: C_2  and  C_20
    2  A    between atoms: O_4  and  C_9
    3  A    between atoms: C_7  and  C_10
    4  A    between atoms: C_7  and  C_20
    5  A    between atoms: C_9  and  N_21
                            x       y       z     vdW  Elec       q    Type
                         _______ _______ _______ _____ _____    ______ ____

>  <TORSDO>
F 5

$$$$
=
 OpenBabel10232407563D

 26 29  0  0  1  0  0  0  0  0999 V2000
  187.6090  177.5360  145.4560 N   0  0  0  0  0  0  0  0  0  0  0  0
  189.8920  177.9500  144.6160 C   0  0  0  0  0  3  0  0  0  0  0  0
  188.1640  177.8120  147.6760 C   0  0  0  0  0  0  0  0  0  0  0  0
  186.8320  177.4840  144.2130 C   0  0  0  0  0  2  0  0  0  0  0  0
  184.0640  178.2630  142.3090 C   0  0  0  0  0  3  0  0  0  0  0  0
  189.3770  178.0160  146.9620 N   0  0  0  0  0  2  0  0  0  0  0  0
  188.0990  177.8650  148.9330 O   0  0  0  0  0  0  0  0  0  0  0  0
  185.5370  178.1860  144.4400 C   0  0  0  0  0  0  0  0  0  0  0  0
  184.4750  178.4430  143.6110 C   0  0  0  0  0  0  0  0  0  0  0  0
  181.9690  178.8880  141.4260 O   0  0  0  0  0  0  0  0  0  0  0  0
  182.4480  179.2740  143.6420 N   0  0  0  0  0  2  0  0  0  0  0  0
  183.8680  179.1520  145.5640 O   0  0  0  0  0  0  0  0  0  0  0  0
  187.0000  177.5070  146.7920 C   0  0  1  0  0  3  0  0  0  0  0  0
  182.7660  178.8210  142.3980 C   0  0  0  0  0  0  0  0  0  0  0  0
  183.5420  179.0150  144.3180 N   0  0  0  0  0  0  0  0  0  0  0  0
  185.0900  178.6500  145.6840 C   0  0  0  0  0  0  0  0  0  0  0  0
  189.0010  177.8410  145.6050 C   0  0  0  0  0  0  0  0  0  0  0  0
  185.9200  178.5960  146.9270 C   0  0  0  0  0  2  0  0  0  0  0  0
  189.5720  177.7610  143.1740 C   0  0  0  0  0  2  0  0  0  0  0  0
  190.7790  177.1890  142.4580 C   0  0  0  0  0  2  0  0  0  0  0  0
  191.6470  177.4220  140.2550 O   0  0  0  0  0  0  0  0  0  0  0  0
  190.6240  177.3670  140.9890 C   0  0  0  0  0  0  0  0  0  0  0  0
  189.3170  177.5090  140.4300 N   0  0  0  0  0  2  0  0  0  0  0  0
  189.0920  177.6790  139.0020 C   0  0  0  0  0  2  0  0  0  0  0  0
  189.0250  179.0380  138.6940 O   0  0  0  0  0  0  0  0  0  0  0  0
  188.9760  179.0770  137.3010 C   0  0  0  0  0  1  0  0  0  0  0  0
  1 17  1  0  0  0  0
  1 13  1  0  0  0  0
  2 17  2  0  0  0  0
  3  7  2  0  0  0  0
  4  8  1  0  0  0  0
  4  1  1  0  0  0  0
  5 14  1  0  0  0  0
  5  9  2  0  0  0  0
  6  3  1  0  0  0  0
  8 16  2  0  0  0  0
  9 15  1  0  0  0  0
  9  8  1  0  0  0  0
 10 14  2  0  0  0  0
 11 15  1  0  0  0  0
 12 16  1  0  0  0  0
 13 18  1  6  0  0  0
 13  3  1  0  0  0  0
 14 11  1  0  0  0  0
 15 12  1  0  0  0  0
 16 18  1  0  0  0  0
 17  6  1  0  0  0  0
 19  2  1  0  0  0  0
 20 19  1  0  0  0  0
 21 22  2  0  0  0  0
 22 20  1  0  0  0  0
 23 22  1  0  0  0  0
 24 23  1  0  0  0  0
 25 24  1  0  0  0  0
 26 25  1  0  0  0  0
M  END
>  <MODEL>
3

>  <REMARK>
 VINA RESULT:      -9.0      1.810      6.293
  Name = 
  5 active torsions:
  status: ('A' for Active; 'I' for Inactive)
    1  A    between atoms: C_2  and  C_20
    2  A    between atoms: O_4  and  C_9
    3  A    between atoms: C_7  and  C_10
    4  A    between atoms: C_7  and  C_20
    5  A    between atoms: C_9  and  N_21
                            x       y       z     vdW  Elec       q    Type
                         _______ _______ _______ _____ _____    ______ ____

>  <TORSDO>
F 5

$$$$
=
 OpenBabel10232407563D

 26 29  0  0  1  0  0  0  0  0999 V2000
  190.0820  177.5350  145.5590 N   0  0  0  0  0  0  0  0  0  0  0  0
  188.4930  177.4940  147.4460 C   0  0  0  0  0  3  0  0  0  0  0  0
  191.6430  176.1870  146.5880 C   0  0  0  0  0  0  0  0  0  0  0  0
  189.3040  178.2190  144.5210 C   0  0  0  0  0  2  0  0  0  0  0  0
  188.2050  178.5810  141.2720 C   0  0  0  0  0  3  0  0  0  0  0  0
  190.5820  176.3100  147.5270 N   0  0  0  0  0  2  0  0  0  0  0  0
  192.6900  175.5290  146.8290 O   0  0  0  0  0  0  0  0  0  0  0  0
  189.5710  177.5480  143.2170 C   0  0  0  0  0  0  0  0  0  0  0  0
  189.0850  177.7720  141.9530 C   0  0  0  0  0  0  0  0  0  0  0  0
  187.8230  178.5530  138.9460 O   0  0  0  0  0  0  0  0  0  0  0  0
  189.3530  177.1130  139.8810 N   0  0  0  0  0  2  0  0  0  0  0  0
  190.5820  176.2230  141.7310 O   0  0  0  0  0  0  0  0  0  0  0  0
  191.3990  176.9320  145.3170 C   0  0  1  0  0  3  0  0  0  0  0  0
  188.4220  178.1040  139.9580 C   0  0  0  0  0  0  0  0  0  0  0  0
  189.7020  176.9650  141.1370 N   0  0  0  0  0  0  0  0  0  0  0  0
  190.5370  176.5530  143.0160 C   0  0  0  0  0  0  0  0  0  0  0  0
  189.6420  177.1410  146.8640 C   0  0  0  0  0  0  0  0  0  0  0  0
  191.3460  175.9590  144.1240 C   0  0  0  0  0  2  0  0  0  0  0  0
  187.4710  178.3760  146.8180 C   0  0  0  0  0  2  0  0  0  0  0  0
  186.3220  177.5330  146.3020 C   0  0  0  0  0  2  0  0  0  0  0  0
  184.5360  179.0470  145.8850 O   0  0  0  0  0  0  0  0  0  0  0  0
  185.4650  178.3470  145.4010 C   0  0  0  0  0  0  0  0  0  0  0  0
  185.6820  178.3000  143.9890 N   0  0  0  0  0  2  0  0  0  0  0  0
  184.8860  179.0770  143.0490 C   0  0  0  0  0  2  0  0  0  0  0  0
  184.3590  178.2340  142.0700 O   0  0  0  0  0  0  0  0  0  0  0  0
  184.5450  178.9290  140.8760 C   0  0  0  0  0  1  0  0  0  0  0  0
  1 17  1  0  0  0  0
  3  7  2  0  0  0  0
  3  6  1  0  0  0  0
  4  1  1  0  0  0  0
  5  9  2  0  0  0  0
  8  4  1  0  0  0  0
  9  8  1  0  0  0  0
 10 14  2  0  0  0  0
 11 14  1  0  0  0  0
 11 15  1  0  0  0  0
 12 16  1  0  0  0  0
 13 18  1  6  0  0  0
 13  1  1  0  0  0  0
 13  3  1  0  0  0  0
 14  5  1  0  0  0  0
 15 12  1  0  0  0  0
 15  9  1  0  0  0  0
 16  8  2  0  0  0  0
 16 18  1  0  0  0  0
 17  2  2  0  0  0  0
 17  6  1  0  0  0  0
 19  2  1  0  0  0  0
 20 19  1  0  0  0  0
 22 21  2  0  0  0  0
 22 20  1  0  0  0  0
 23 22  1  0  0  0  0
 24 23  1  0  0  0  0
 25 24  1  0  0  0  0
 26 25  1  0  0  0  0
M  END
>  <MODEL>
4

>  <REMARK>
 VINA RESULT:      -8.9      1.736      5.646
  Name = 
  5 active torsions:
  status: ('A' for Active; 'I' for Inactive)
    1  A    between atoms: C_2  and  C_20
    2  A    between atoms: O_4  and  C_9
    3  A    between atoms: C_7  and  C_10
    4  A    between atoms: C_7  and  C_20
    5  A    between atoms: C_9  and  N_21
                            x       y       z     vdW  Elec       q    Type
                         _______ _______ _______ _____ _____    ______ ____

>  <TORSDO>
F 5

$$$$
=
 OpenBabel10232407563D

 26 29  0  0  1  0  0  0  0  0999 V2000
  188.7400  177.3440  142.0090 N   0  0  0  0  0  0  0  0  0  0  0  0
  187.2720  178.7040  140.5660 C   0  0  0  0  0  3  0  0  0  0  0  0
  190.4610  177.2240  140.4810 C   0  0  0  0  0  0  0  0  0  0  0  0
  188.0060  177.3460  143.2790 C   0  0  0  0  0  2  0  0  0  0  0  0
  187.8530  177.5920  146.7150 C   0  0  0  0  0  3  0  0  0  0  0  0
  189.4520  178.0000  139.8450 N   0  0  0  0  0  2  0  0  0  0  0  0
  191.5500  176.9350  139.9180 O   0  0  0  0  0  0  0  0  0  0  0  0
  188.9910  177.4860  144.3890 C   0  0  0  0  0  0  0  0  0  0  0  0
  188.8340  177.5670  145.7500 C   0  0  0  0  0  0  0  0  0  0  0  0
  188.2120  177.6700  149.0440 O   0  0  0  0  0  0  0  0  0  0  0  0
  190.0030  177.6260  147.6020 N   0  0  0  0  0  2  0  0  0  0  0  0
  190.9720  177.5130  145.4170 O   0  0  0  0  0  0  0  0  0  0  0  0
  190.0850  176.7750  141.8540 C   0  0  1  0  0  3  0  0  0  0  0  0
  188.6670  177.6350  147.8720 C   0  0  0  0  0  0  0  0  0  0  0  0
  190.0190  177.5920  146.2910 N   0  0  0  0  0  0  0  0  0  0  0  0
  190.3820  177.4430  144.2310 C   0  0  0  0  0  0  0  0  0  0  0  0
  188.4130  178.0540  140.8100 C   0  0  0  0  0  0  0  0  0  0  0  0
  191.0540  177.3630  142.8980 C   0  0  0  0  0  2  0  0  0  0  0  0
  186.1340  178.7870  141.5240 C   0  0  0  0  0  2  0  0  0  0  0  0
  184.8260  178.7920  140.7570 C   0  0  0  0  0  2  0  0  0  0  0  0
  182.5100  178.6130  141.2690 O   0  0  0  0  0  0  0  0  0  0  0  0
  183.6850  178.7340  141.7090 C   0  0  0  0  0  0  0  0  0  0  0  0
  183.9300  178.8500  143.1120 N   0  0  0  0  0  2  0  0  0  0  0  0
  182.8620  178.7940  144.0990 C   0  0  0  0  0  2  0  0  0  0  0  0
  183.3580  179.1590  145.3510 O   0  0  0  0  0  0  0  0  0  0  0  0
  184.7390  179.0030  145.2360 C   0  0  0  0  0  1  0  0  0  0  0  0
  1  4  1  0  0  0  0
  2 17  2  0  0  0  0
  2 19  1  0  0  0  0
  3 13  1  0  0  0  0
  4  8  1  0  0  0  0
  5 14  1  0  0  0  0
  6  3  1  0  0  0  0
  6 17  1  0  0  0  0
  7  3  2  0  0  0  0
  8  9  1  0  0  0  0
  9 15  1  0  0  0  0
  9  5  2  0  0  0  0
 11 14  1  0  0  0  0
 12 15  1  0  0  0  0
 13  1  1  0  0  0  0
 13 18  1  1  0  0  0
 14 10  2  0  0  0  0
 15 11  1  0  0  0  0
 16  8  2  0  0  0  0
 16 12  1  0  0  0  0
 17  1  1  0  0  0  0
 18 16  1  0  0  0  0
 20 19  1  0  0  0  0
 20 22  1  0  0  0  0
 21 22  2  0  0  0  0
 22 23  1  0  0  0  0
 23 24  1  0  0  0  0
 24 25  1  0  0  0  0
 26 25  1  0  0  0  0
M  END
>  <MODEL>
5

>  <REMARK>
 VINA RESULT:      -8.3      1.609      7.126
  Name = 
  5 active torsions:
  status: ('A' for Active; 'I' for Inactive)
    1  A    between atoms: C_2  and  C_20
    2  A    between atoms: O_4  and  C_9
    3  A    between atoms: C_7  and  C_10
    4  A    between atoms: C_7  and  C_20
    5  A    between atoms: C_9  and  N_21
                            x       y       z     vdW  Elec       q    Type
                         _______ _______ _______ _____ _____    ______ ____

>  <TORSDO>
F 5

$$$$
=
 OpenBabel10232407563D

 26 29  0  0  1  0  0  0  0  0999 V2000
  186.0800  177.7030  144.6010 N   0  0  0  0  0  0  0  0  0  0  0  0
  187.1720  177.7440  146.8130 C   0  0  0  0  0  3  0  0  0  0  0  0
  184.2010  178.8470  145.2890 C   0  0  0  0  0  0  0  0  0  0  0  0
  187.1400  177.1570  143.7480 C   0  0  0  0  0  2  0  0  0  0  0  0
  188.9980  177.1060  140.8430 C   0  0  0  0  0  3  0  0  0  0  0  0
  185.0200  178.7470  146.4470 N   0  0  0  0  0  2  0  0  0  0  0  0
  183.0700  179.4000  145.3030 O   0  0  0  0  0  0  0  0  0  0  0  0
  187.1230  177.8910  142.4510 C   0  0  0  0  0  0  0  0  0  0  0  0
  187.9100  177.7940  141.3310 C   0  0  0  0  0  0  0  0  0  0  0  0
  189.9090  177.3240  138.6800 O   0  0  0  0  0  0  0  0  0  0  0  0
  188.0740  178.5680  139.2880 N   0  0  0  0  0  2  0  0  0  0  0  0
  186.3680  179.2270  140.8310 O   0  0  0  0  0  0  0  0  0  0  0  0
  184.8050  178.2130  144.0800 C   0  0  1  0  0  3  0  0  0  0  0  0
  189.0510  177.6520  139.5390 C   0  0  0  0  0  0  0  0  0  0  0  0
  187.4280  178.6020  140.4300 N   0  0  0  0  0  0  0  0  0  0  0  0
  186.1420  178.8150  142.0720 C   0  0  0  0  0  0  0  0  0  0  0  0
  186.1630  178.0410  145.9900 C   0  0  0  0  0  0  0  0  0  0  0  0
  185.0430  179.2650  142.9810 C   0  0  0  0  0  2  0  0  0  0  0  0
  188.3920  176.9920  146.4070 C   0  0  0  0  0  2  0  0  0  0  0  0
  189.6180  177.6570  147.0000 C   0  0  0  0  0  2  0  0  0  0  0  0
  191.8250  177.1210  146.2930 O   0  0  0  0  0  0  0  0  0  0  0  0
  190.7220  177.6570  146.0040 C   0  0  0  0  0  0  0  0  0  0  0  0
  190.5310  178.2970  144.7400 N   0  0  0  0  0  2  0  0  0  0  0  0
  191.5650  178.3290  143.7160 C   0  0  0  0  0  2  0  0  0  0  0  0
  191.6290  177.0930  143.0730 O   0  0  0  0  0  0  0  0  0  0  0  0
  192.1340  177.3860  141.8060 C   0  0  0  0  0  1  0  0  0  0  0  0
  1 17  1  0  0  0  0
  3  7  2  0  0  0  0
  3  6  1  0  0  0  0
  4  1  1  0  0  0  0
  5  9  2  0  0  0  0
  8  4  1  0  0  0  0
  9  8  1  0  0  0  0
 10 14  2  0  0  0  0
 11 14  1  0  0  0  0
 11 15  1  0  0  0  0
 12 16  1  0  0  0  0
 13 18  1  6  0  0  0
 13  1  1  0  0  0  0
 13  3  1  0  0  0  0
 14  5  1  0  0  0  0
 15 12  1  0  0  0  0
 15  9  1  0  0  0  0
 16  8  2  0  0  0  0
 16 18  1  0  0  0  0
 17  6  1  0  0  0  0
 17  2  2  0  0  0  0
 19  2  1  0  0  0  0
 19 20  1  0  0  0  0
 22 21  2  0  0  0  0
 22 20  1  0  0  0  0
 23 22  1  0  0  0  0
 24 23  1  0  0  0  0
 25 24  1  0  0  0  0
 26 25  1  0  0  0  0
M  END
>  <MODEL>
6

>  <REMARK>
 VINA RESULT:      -8.3      1.441      1.935
  Name = 
  5 active torsions:
  status: ('A' for Active; 'I' for Inactive)
    1  A    between atoms: C_2  and  C_20
    2  A    between atoms: O_4  and  C_9
    3  A    between atoms: C_7  and  C_10
    4  A    between atoms: C_7  and  C_20
    5  A    between atoms: C_9  and  N_21
                            x       y       z     vdW  Elec       q    Type
                         _______ _______ _______ _____ _____    ______ ____

>  <TORSDO>
F 5

$$$$
=
 OpenBabel10232407563D

 26 29  0  0  1  0  0  0  0  0999 V2000
  189.2560  177.0250  143.8080 N   0  0  0  0  0  0  0  0  0  0  0  0
  190.5070  177.6060  141.7630 C   0  0  0  0  0  3  0  0  0  0  0  0
  191.1190  176.9440  145.1620 C   0  0  0  0  0  0  0  0  0  0  0  0
  187.8640  177.1650  143.3650 C   0  0  0  0  0  2  0  0  0  0  0  0
  184.6060  178.2000  143.8160 C   0  0  0  0  0  3  0  0  0  0  0  0
  191.6120  177.2810  143.8700 N   0  0  0  0  0  2  0  0  0  0  0  0
  191.8750  176.7900  146.1570 O   0  0  0  0  0  0  0  0  0  0  0  0
  187.0830  177.8000  144.4640 C   0  0  0  0  0  0  0  0  0  0  0  0
  185.7660  178.1720  144.5570 C   0  0  0  0  0  0  0  0  0  0  0  0
  182.4980  178.9280  144.5820 O   0  0  0  0  0  0  0  0  0  0  0  0
  184.3120  178.9550  145.9960 N   0  0  0  0  0  2  0  0  0  0  0  0
  186.6110  178.5430  146.5150 O   0  0  0  0  0  0  0  0  0  0  0  0
  189.6370  176.7690  145.2030 C   0  0  1  0  0  3  0  0  0  0  0  0
  183.7210  178.7160  144.7920 C   0  0  0  0  0  0  0  0  0  0  0  0
  185.5550  178.6060  145.7670 N   0  0  0  0  0  0  0  0  0  0  0  0
  187.5760  178.0480  145.7510 C   0  0  0  0  0  0  0  0  0  0  0  0
  190.4440  177.3230  143.0660 C   0  0  0  0  0  0  0  0  0  0  0  0
  188.9980  177.8050  146.1470 C   0  0  0  0  0  2  0  0  0  0  0  0
  189.3260  177.6500  140.8560 C   0  0  0  0  0  2  0  0  0  0  0  0
  189.7780  177.4470  139.4240 C   0  0  0  0  0  2  0  0  0  0  0  0
  188.7220  177.2020  137.3070 O   0  0  0  0  0  0  0  0  0  0  0  0
  188.6160  177.5770  138.5050 C   0  0  0  0  0  0  0  0  0  0  0  0
  187.4010  178.1570  138.9830 N   0  0  0  0  0  2  0  0  0  0  0  0
  186.2230  178.3080  138.1420 C   0  0  0  0  0  2  0  0  0  0  0  0
  185.0890  178.4530  138.9420 O   0  0  0  0  0  0  0  0  0  0  0  0
  185.5900  178.7730  140.2030 C   0  0  0  0  0  1  0  0  0  0  0  0
  1 13  1  0  0  0  0
  2 17  2  0  0  0  0
  3 13  1  0  0  0  0
  3  7  2  0  0  0  0
  4  1  1  0  0  0  0
  4  8  1  0  0  0  0
  5  9  2  0  0  0  0
  5 14  1  0  0  0  0
  6  3  1  0  0  0  0
  8  9  1  0  0  0  0
  8 16  2  0  0  0  0
  9 15  1  0  0  0  0
 10 14  2  0  0  0  0
 13 18  1  1  0  0  0
 14 11  1  0  0  0  0
 15 11  1  0  0  0  0
 15 12  1  0  0  0  0
 16 18  1  0  0  0  0
 16 12  1  0  0  0  0
 17  1  1  0  0  0  0
 17  6  1  0  0  0  0
 19  2  1  0  0  0  0
 20 19  1  0  0  0  0
 21 22  2  0  0  0  0
 22 23  1  0  0  0  0
 22 20  1  0  0  0  0
 24 25  1  0  0  0  0
 24 23  1  0  0  0  0
 25 26  1  0  0  0  0
M  END
>  <MODEL>
7

>  <REMARK>
 VINA RESULT:      -8.3      1.978      7.496
  Name = 
  5 active torsions:
  status: ('A' for Active; 'I' for Inactive)
    1  A    between atoms: C_2  and  C_20
    2  A    between atoms: O_4  and  C_9
    3  A    between atoms: C_7  and  C_10
    4  A    between atoms: C_7  and  C_20
    5  A    between atoms: C_9  and  N_21
                            x       y       z     vdW  Elec       q    Type
                         _______ _______ _______ _____ _____    ______ ____

>  <TORSDO>
F 5

$$$$
=
 OpenBabel10232407563D

 26 29  0  0  1  0  0  0  0  0999 V2000
  188.9680  176.9360  142.6220 N   0  0  0  0  0  0  0  0  0  0  0  0
  189.8880  177.9270  140.5580 C   0  0  0  0  0  3  0  0  0  0  0  0
  191.0130  176.2590  143.4430 C   0  0  0  0  0  0  0  0  0  0  0  0
  187.5640  177.3560  142.5630 C   0  0  0  0  0  2  0  0  0  0  0  0
  184.6820  178.5880  144.0010 C   0  0  0  0  0  3  0  0  0  0  0  0
  191.3010  176.8900  142.2010 N   0  0  0  0  0  2  0  0  0  0  0  0
  191.9060  175.7430  144.1650 O   0  0  0  0  0  0  0  0  0  0  0  0
  187.1290  177.7370  143.9360 C   0  0  0  0  0  0  0  0  0  0  0  0
  185.9390  178.2170  144.4220 C   0  0  0  0  0  0  0  0  0  0  0  0
  182.9190  179.3050  145.3920 O   0  0  0  0  0  0  0  0  0  0  0  0
  184.9450  178.7200  146.3080 N   0  0  0  0  0  2  0  0  0  0  0  0
  187.1940  177.9160  146.1600 O   0  0  0  0  0  0  0  0  0  0  0  0
  189.5580  176.2520  143.7800 C   0  0  1  0  0  3  0  0  0  0  0  0
  184.1030  178.9030  145.2530 C   0  0  0  0  0  0  0  0  0  0  0  0
  186.0420  178.3100  145.7170 N   0  0  0  0  0  0  0  0  0  0  0  0
  187.8950  177.5500  145.0940 C   0  0  0  0  0  0  0  0  0  0  0  0
  190.0260  177.2940  141.7260 C   0  0  0  0  0  0  0  0  0  0  0  0
  189.3010  177.0430  145.0760 C   0  0  0  0  0  2  0  0  0  0  0  0
  188.5820  178.3630  139.9910 C   0  0  0  0  0  2  0  0  0  0  0  0
  188.3390  177.6540  138.6740 C   0  0  0  0  0  2  0  0  0  0  0  0
  186.5700  177.4840  137.0930 O   0  0  0  0  0  0  0  0  0  0  0  0
  186.9360  177.8740  138.2340 C   0  0  0  0  0  0  0  0  0  0  0  0
  186.0250  178.5570  139.0970 N   0  0  0  0  0  2  0  0  0  0  0  0
  184.6370  178.8000  138.7350 C   0  0  0  0  0  2  0  0  0  0  0  0
  184.1010  179.7890  139.5600 O   0  0  0  0  0  0  0  0  0  0  0  0
  182.9240  180.1760  138.9200 C   0  0  0  0  0  1  0  0  0  0  0  0
  1 13  1  0  0  0  0
  2 17  2  0  0  0  0
  3 13  1  0  0  0  0
  3  7  2  0  0  0  0
  4  1  1  0  0  0  0
  4  8  1  0  0  0  0
  5  9  2  0  0  0  0
  5 14  1  0  0  0  0
  6  3  1  0  0  0  0
  8  9  1  0  0  0  0
  8 16  2  0  0  0  0
  9 15  1  0  0  0  0
 13 18  1  1  0  0  0
 14 10  2  0  0  0  0
 14 11  1  0  0  0  0
 15 12  1  0  0  0  0
 15 11  1  0  0  0  0
 16 12  1  0  0  0  0
 17  6  1  0  0  0  0
 17  1  1  0  0  0  0
 18 16  1  0  0  0  0
 19  2  1  0  0  0  0
 20 19  1  0  0  0  0
 21 22  2  0  0  0  0
 22 20  1  0  0  0  0
 22 23  1  0  0  0  0
 24 23  1  0  0  0  0
 24 25  1  0  0  0  0
 26 25  1  0  0  0  0
M  END
>  <MODEL>
8

>  <REMARK>
 VINA RESULT:      -8.1      2.392      7.822
  Name = 
  5 active torsions:
  status: ('A' for Active; 'I' for Inactive)
    1  A    between atoms: C_2  and  C_20
    2  A    between atoms: O_4  and  C_9
    3  A    between atoms: C_7  and  C_10
    4  A    between atoms: C_7  and  C_20
    5  A    between atoms: C_9  and  N_21
                            x       y       z     vdW  Elec       q    Type
                         _______ _______ _______ _____ _____    ______ ____

>  <TORSDO>
F 5

$$$$
=
 OpenBabel10232407563D

 26 29  0  0  1  0  0  0  0  0999 V2000
  189.4370  176.7480  143.8810 N   0  0  0  0  0  0  0  0  0  0  0  0
  190.8420  177.0340  141.8730 C   0  0  0  0  0  3  0  0  0  0  0  0
  191.2020  176.7750  145.3620 C   0  0  0  0  0  0  0  0  0  0  0  0
  188.0840  176.8750  143.3270 C   0  0  0  0  0  2  0  0  0  0  0  0
  184.8470  178.0590  143.4200 C   0  0  0  0  0  3  0  0  0  0  0  0
  191.7920  176.9360  144.0770 N   0  0  0  0  0  2  0  0  0  0  0  0
  191.8840  176.7210  146.4190 O   0  0  0  0  0  0  0  0  0  0  0  0
  187.2580  177.6640  144.2840 C   0  0  0  0  0  0  0  0  0  0  0  0
  185.9530  178.0860  144.2390 C   0  0  0  0  0  0  0  0  0  0  0  0
  182.7240  178.9400  143.9430 O   0  0  0  0  0  0  0  0  0  0  0  0
  184.4390  179.0850  145.4670 N   0  0  0  0  0  2  0  0  0  0  0  0
  186.6810  178.6680  146.1920 O   0  0  0  0  0  0  0  0  0  0  0  0
  189.7150  176.6530  145.3190 C   0  0  1  0  0  3  0  0  0  0  0  0
  183.9200  178.7180  144.2630 C   0  0  0  0  0  0  0  0  0  0  0  0
  185.6810  178.6720  145.3700 N   0  0  0  0  0  0  0  0  0  0  0  0
  187.6740  178.0530  145.5640 C   0  0  0  0  0  0  0  0  0  0  0  0
  190.6820  176.9160  143.1940 C   0  0  0  0  0  0  0  0  0  0  0  0
  189.0560  177.8160  146.0840 C   0  0  0  0  0  2  0  0  0  0  0  0
  189.7260  177.0040  140.8870 C   0  0  0  0  0  2  0  0  0  0  0  0
  190.1910  177.6080  139.5770 C   0  0  0  0  0  2  0  0  0  0  0  0
  190.4710  175.4360  138.6480 O   0  0  0  0  0  0  0  0  0  0  0  0
  190.9460  176.5940  138.7950 C   0  0  0  0  0  0  0  0  0  0  0  0
  192.2200  176.9340  138.2450 N   0  0  0  0  0  2  0  0  0  0  0  0
  193.0100  175.9940  137.4620 C   0  0  0  0  0  2  0  0  0  0  0  0
  194.1110  175.5700  138.2070 O   0  0  0  0  0  0  0  0  0  0  0  0
  194.4520  174.3370  137.6520 C   0  0  0  0  0  1  0  0  0  0  0  0
  1 13  1  0  0  0  0
  2 17  2  0  0  0  0
  3  7  2  0  0  0  0
  4  1  1  0  0  0  0
  4  8  1  0  0  0  0
  5  9  2  0  0  0  0
  5 14  1  0  0  0  0
  6  3  1  0  0  0  0
  8 16  2  0  0  0  0
  9  8  1  0  0  0  0
  9 15  1  0  0  0  0
 10 14  2  0  0  0  0
 13  3  1  0  0  0  0
 13 18  1  1  0  0  0
 14 11  1  0  0  0  0
 15 11  1  0  0  0  0
 15 12  1  0  0  0  0
 16 18  1  0  0  0  0
 16 12  1  0  0  0  0
 17  1  1  0  0  0  0
 17  6  1  0  0  0  0
 19  2  1  0  0  0  0
 20 19  1  0  0  0  0
 21 22  2  0  0  0  0
 22 20  1  0  0  0  0
 23 22  1  0  0  0  0
 24 25  1  0  0  0  0
 24 23  1  0  0  0  0
 26 25  1  0  0  0  0
M  END
>  <MODEL>
9

>  <REMARK>
 VINA RESULT:      -8.1      2.482      7.347
  Name = 
  5 active torsions:
  status: ('A' for Active; 'I' for Inactive)
    1  A    between atoms: C_2  and  C_20
    2  A    between atoms: O_4  and  C_9
    3  A    between atoms: C_7  and  C_10
    4  A    between atoms: C_7  and  C_20
    5  A    between atoms: C_9  and  N_21
                            x       y       z     vdW  Elec       q    Type
                         _______ _______ _______ _____ _____    ______ ____

>  <TORSDO>
F 5

$$$$
