=
 OpenBabel10232411053D

 39 45  0  0  1  0  0  0  0  0999 V2000
  189.8420  176.6990  139.5750 C   0  0  2  0  0  3  0  0  0  0  0  0
  190.6190  177.6430  141.6530 C   0  0  1  0  0  3  0  0  0  0  0  0
  191.8320  177.4620  140.7560 C   0  0  0  0  0  2  0  0  0  0  0  0
  189.4200  177.5890  140.7250 C   0  0  0  0  0  2  0  0  0  0  0  0
  191.3380  176.9130  139.4240 C   0  0  0  0  0  2  0  0  0  0  0  0
  185.6540  178.2350  137.5390 N   0  0  0  0  0  2  0  0  0  0  0  0
  187.7710  178.2510  136.1190 C   0  0  1  0  0  3  0  0  0  0  0  0
  186.8590  178.2210  134.9050 C   0  0  0  0  0  1  0  0  0  0  0  0
  189.0730  177.0130  138.3230 C   0  0  0  0  0  0  0  0  0  0  0  0
  187.0270  177.8750  137.3820 C   0  0  0  0  0  0  0  0  0  0  0  0
  188.9490  177.3020  135.8810 C   0  0  0  0  0  2  0  0  0  0  0  0
  189.7140  177.0540  137.1480 C   0  0  0  0  0  3  0  0  0  0  0  0
  187.6710  177.3430  138.3850 N   0  0  0  0  0  0  0  0  0  0  0  0
  184.9750  177.9840  138.7390 N   0  0  0  0  0  2  0  0  0  0  0  0
  184.4700  180.2340  139.0910 O   0  0  0  0  0  0  0  0  0  0  0  0
  184.4110  179.0470  139.5050 C   0  0  0  0  0  0  0  0  0  0  0  0
  183.7830  178.7560  140.8220 C   0  0  0  0  0  2  0  0  0  0  0  0
  182.9220  177.6600  140.6890 O   0  0  0  0  0  0  0  0  0  0  0  0
  181.7270  178.0690  141.2810 C   0  0  0  0  0  2  0  0  0  0  0  0
  182.0260  179.0710  142.3850 C   0  0  2  0  0  3  0  0  0  0  0  0
  179.9820  178.5520  143.7030 C   0  0  0  0  0  2  0  0  0  0  0  0
  181.4990  178.5740  143.7190 C   0  0  2  0  0  3  0  0  0  0  0  0
  180.7360  179.6350  142.9550 C   0  0  1  0  0  3  0  0  0  0  0  0
  190.5680  176.5410  142.6030 N   0  0  0  0  0  2  0  0  0  0  0  0
  189.6230  176.8720  143.5870 N   0  0  0  0  0  2  0  0  0  0  0  0
  189.0500  177.3440  145.9420 C   0  0  0  0  0  0  0  0  0  0  0  0
  185.7680  178.4910  147.0310 C   0  0  0  0  0  3  0  0  0  0  0  0
  190.6800  177.0230  147.6830 N   0  0  0  0  0  0  0  0  0  0  0  0
  189.4390  177.3920  147.2770 C   0  0  0  0  0  0  0  0  0  0  0  0
  187.7120  177.7290  145.7730 C   0  0  0  0  0  0  0  0  0  0  0  0
  186.9900  177.7840  144.5750 C   0  0  0  0  0  3  0  0  0  0  0  0
  191.5970  176.6090  146.7630 C   0  0  0  0  0  3  0  0  0  0  0  0
  189.9760  176.9300  144.9710 C   0  0  0  0  0  0  0  0  0  0  0  0
  191.2650  176.5600  145.3980 C   0  0  0  0  0  3  0  0  0  0  0  0
  188.1730  177.9070  148.2670 S   0  0  0  0  0  0  0  0  0  0  0  0
  185.6490  178.1960  144.6120 C   0  0  0  0  0  3  0  0  0  0  0  0
  187.0950  178.0720  146.9770 C   0  0  0  0  0  0  0  0  0  0  0  0
  183.7470  178.9510  145.8490 F   0  0  0  0  0  0  0  0  0  0  0  0
  185.0410  178.5520  145.8320 C   0  0  0  0  0  0  0  0  0  0  0  0
  1  9  1  6  0  0  0
  1  4  1  0  0  0  0
  2 24  1  1  0  0  0
  3  2  1  0  0  0  0
  4  2  1  0  0  0  0
  5  1  1  0  0  0  0
  5  3  1  0  0  0  0
  6 14  1  0  0  0  0
  7  8  1  6  0  0  0
  7 10  1  0  0  0  0
  9 13  1  0  0  0  0
 10  6  1  0  0  0  0
 10 13  2  0  0  0  0
 11  7  1  0  0  0  0
 11 12  1  0  0  0  0
 12  9  2  0  0  0  0
 14 16  1  0  0  0  0
 15 16  2  0  0  0  0
 16 17  1  0  0  0  0
 18 17  1  0  0  0  0
 18 19  1  0  0  0  0
 20 19  1  6  0  0  0
 20 23  1  0  0  0  0
 20 22  1  0  0  0  0
 22 21  1  6  0  0  0
 23 21  1  6  0  0  0
 23 22  1  0  0  0  0
 24 25  1  0  0  0  0
 25 33  1  0  0  0  0
 26 29  1  0  0  0  0
 29 28  2  0  0  0  0
 29 35  1  0  0  0  0
 30 26  1  0  0  0  0
 30 37  2  0  0  0  0
 31 36  2  0  0  0  0
 31 30  1  0  0  0  0
 32 28  1  0  0  0  0
 33 34  1  0  0  0  0
 33 26  2  0  0  0  0
 34 32  2  0  0  0  0
 36 39  1  0  0  0  0
 37 27  1  0  0  0  0
 37 35  1  0  0  0  0
 39 38  1  0  0  0  0
 39 27  2  0  0  0  0
M  END
>  <MODEL>
1

>  <REMARK>
 VINA RESULT:     -10.0      0.000      0.000
  Name = 
  9 active torsions:
  status: ('A' for Active; 'I' for Inactive)
    1  A    between atoms: O_1  and  C_35
    2  A    between atoms: O_1  and  C_37
    3  A    between atoms: N_2  and  N_16
    4  A    between atoms: C_3  and  C_20
    5  A    between atoms: C_5  and  C_35
    6  A    between atoms: N_6  and  C_7
    7  A    between atoms: N_6  and  N_11
    8  A    between atoms: N_11  and  C_28
    9  A    between atoms: C_23  and  C_37
                            x       y       z     vdW  Elec       q    Type
                         _______ _______ _______ _____ _____    ______ ____

>  <TORSDO>
F 9

$$$$
=
 OpenBabel10232411053D

 39 45  0  0  1  0  0  0  0  0999 V2000
  190.0350  177.1250  141.8750 C   0  0  2  0  0  3  0  0  0  0  0  0
  191.5550  177.4700  143.7140 C   0  0  1  0  0  3  0  0  0  0  0  0
  191.1590  176.0030  143.7230 C   0  0  0  0  0  2  0  0  0  0  0  0
  191.2050  177.9740  142.3270 C   0  0  0  0  0  2  0  0  0  0  0  0
  190.2380  175.7710  142.5320 C   0  0  0  0  0  2  0  0  0  0  0  0
  187.6550  178.3430  137.7650 N   0  0  0  0  0  2  0  0  0  0  0  0
  190.0630  177.5320  137.5770 C   0  0  1  0  0  3  0  0  0  0  0  0
  189.7450  177.1730  136.1370 C   0  0  0  0  0  1  0  0  0  0  0  0
  189.9550  177.0470  140.3770 C   0  0  0  0  0  0  0  0  0  0  0  0
  188.8050  177.7650  138.3840 C   0  0  0  0  0  0  0  0  0  0  0  0
  190.9030  176.4100  138.1960 C   0  0  0  0  0  2  0  0  0  0  0  0
  190.9910  176.5530  139.6870 C   0  0  0  0  0  3  0  0  0  0  0  0
  188.8100  177.5660  139.6740 N   0  0  0  0  0  0  0  0  0  0  0  0
  186.5140  178.6600  138.5150 N   0  0  0  0  0  2  0  0  0  0  0  0
  185.0960  177.3930  137.1640 O   0  0  0  0  0  0  0  0  0  0  0  0
  185.2270  178.1670  138.1480 C   0  0  0  0  0  0  0  0  0  0  0  0
  184.0250  178.6010  138.9090 C   0  0  0  0  0  2  0  0  0  0  0  0
  184.2190  179.9100  139.3690 O   0  0  0  0  0  0  0  0  0  0  0  0
  183.2260  180.6610  138.7400 C   0  0  0  0  0  2  0  0  0  0  0  0
  181.9060  179.9070  138.8010 C   0  0  2  0  0  3  0  0  0  0  0  0
  180.6270  181.6140  137.5220 C   0  0  0  0  0  2  0  0  0  0  0  0
  181.0810  180.1660  137.5540 C   0  0  2  0  0  3  0  0  0  0  0  0
  180.7390  180.8800  138.8450 C   0  0  1  0  0  3  0  0  0  0  0  0
  190.7690  178.1750  144.7180 N   0  0  0  0  0  2  0  0  0  0  0  0
  189.9070  177.2420  145.3150 N   0  0  0  0  0  2  0  0  0  0  0  0
  187.7350  177.9240  146.2720 C   0  0  0  0  0  0  0  0  0  0  0  0
  184.7220  178.4310  144.2860 C   0  0  0  0  0  3  0  0  0  0  0  0
  187.4970  178.2610  148.6430 N   0  0  0  0  0  0  0  0  0  0  0  0
  186.9790  178.2640  147.3890 C   0  0  0  0  0  0  0  0  0  0  0  0
  186.9730  177.9570  145.0940 C   0  0  0  0  0  0  0  0  0  0  0  0
  187.4040  177.6590  143.7970 C   0  0  0  0  0  3  0  0  0  0  0  0
  188.8080  177.9350  148.8310 C   0  0  0  0  0  3  0  0  0  0  0  0
  189.0900  177.5920  146.4340 C   0  0  0  0  0  0  0  0  0  0  0  0
  189.6240  177.6010  147.7360 C   0  0  0  0  0  3  0  0  0  0  0  0
  185.3840  178.6170  146.9660 S   0  0  0  0  0  0  0  0  0  0  0  0
  186.4830  177.7500  142.7410 C   0  0  0  0  0  3  0  0  0  0  0  0
  185.6470  178.3280  145.3230 C   0  0  0  0  0  0  0  0  0  0  0  0
  184.2770  178.2230  141.9510 F   0  0  0  0  0  0  0  0  0  0  0  0
  185.1510  178.1380  142.9820 C   0  0  0  0  0  0  0  0  0  0  0  0
  1  9  1  6  0  0  0
  1  4  1  0  0  0  0
  1  5  1  0  0  0  0
  2  3  1  0  0  0  0
  2 24  1  1  0  0  0
  4  2  1  0  0  0  0
  5  3  1  0  0  0  0
  6 10  1  0  0  0  0
  6 14  1  0  0  0  0
  7  8  1  6  0  0  0
  7 11  1  0  0  0  0
  7 10  1  0  0  0  0
 10 13  2  0  0  0  0
 11 12  1  0  0  0  0
 12  9  2  0  0  0  0
 13  9  1  0  0  0  0
 15 16  2  0  0  0  0
 16 14  1  0  0  0  0
 16 17  1  0  0  0  0
 17 18  1  0  0  0  0
 19 18  1  0  0  0  0
 20 19  1  6  0  0  0
 20 23  1  0  0  0  0
 22 21  1  6  0  0  0
 22 20  1  0  0  0  0
 22 23  1  0  0  0  0
 23 21  1  6  0  0  0
 24 25  1  0  0  0  0
 25 33  1  0  0  0  0
 26 33  2  0  0  0  0
 26 29  1  0  0  0  0
 27 37  1  0  0  0  0
 28 32  1  0  0  0  0
 29 28  2  0  0  0  0
 30 37  2  0  0  0  0
 30 26  1  0  0  0  0
 31 30  1  0  0  0  0
 33 34  1  0  0  0  0
 34 32  2  0  0  0  0
 35 29  1  0  0  0  0
 36 39  1  0  0  0  0
 36 31  2  0  0  0  0
 37 35  1  0  0  0  0
 38 39  1  0  0  0  0
 39 27  2  0  0  0  0
M  END
>  <MODEL>
2

>  <REMARK>
 VINA RESULT:      -9.6      2.136      3.091
  Name = 
  9 active torsions:
  status: ('A' for Active; 'I' for Inactive)
    1  A    between atoms: O_1  and  C_35
    2  A    between atoms: O_1  and  C_37
    3  A    between atoms: N_2  and  N_16
    4  A    between atoms: C_3  and  C_20
    5  A    between atoms: C_5  and  C_35
    6  A    between atoms: N_6  and  C_7
    7  A    between atoms: N_6  and  N_11
    8  A    between atoms: N_11  and  C_28
    9  A    between atoms: C_23  and  C_37
                            x       y       z     vdW  Elec       q    Type
                         _______ _______ _______ _____ _____    ______ ____

>  <TORSDO>
F 9

$$$$
=
 OpenBabel10232411053D

 39 45  0  0  1  0  0  0  0  0999 V2000
  188.7850  177.3750  141.1740 C   0  0  2  0  0  3  0  0  0  0  0  0
  190.8880  177.7720  142.2850 C   0  0  1  0  0  3  0  0  0  0  0  0
  191.2000  177.3900  140.8470 C   0  0  0  0  0  2  0  0  0  0  0  0
  189.4270  178.1790  142.2870 C   0  0  0  0  0  2  0  0  0  0  0  0
  189.8710  177.1880  140.1300 C   0  0  0  0  0  2  0  0  0  0  0  0
  186.0910  178.6180  137.2700 N   0  0  0  0  0  2  0  0  0  0  0  0
  185.0050  178.7110  139.5740 C   0  0  1  0  0  3  0  0  0  0  0  0
  184.0070  179.6860  138.9740 C   0  0  0  0  0  1  0  0  0  0  0  0
  187.5600  178.0580  140.6350 C   0  0  0  0  0  0  0  0  0  0  0  0
  186.2230  178.5490  138.6910 C   0  0  0  0  0  0  0  0  0  0  0  0
  185.4080  179.2060  140.9660 C   0  0  0  0  0  2  0  0  0  0  0  0
  186.6070  178.4660  141.4820 C   0  0  0  0  0  3  0  0  0  0  0  0
  187.3690  178.2110  139.2150 N   0  0  0  0  0  0  0  0  0  0  0  0
  187.1870  178.3710  136.4310 N   0  0  0  0  0  2  0  0  0  0  0  0
  186.3670  176.3050  135.7260 O   0  0  0  0  0  0  0  0  0  0  0  0
  187.2890  177.1600  135.6850 C   0  0  0  0  0  0  0  0  0  0  0  0
  188.5110  176.8890  134.8810 C   0  0  0  0  0  2  0  0  0  0  0  0
  189.6410  177.2520  135.6240 O   0  0  0  0  0  0  0  0  0  0  0  0
  190.4180  176.0950  135.6810 C   0  0  0  0  0  2  0  0  0  0  0  0
  190.2350  175.4270  137.0350 C   0  0  2  0  0  3  0  0  0  0  0  0
  191.7950  173.5500  136.5600 C   0  0  0  0  0  2  0  0  0  0  0  0
  191.5120  174.7320  137.4690 C   0  0  2  0  0  3  0  0  0  0  0  0
  190.3650  173.9190  136.9070 C   0  0  1  0  0  3  0  0  0  0  0  0
  191.0850  176.6050  143.1350 N   0  0  0  0  0  2  0  0  0  0  0  0
  190.0630  176.6040  144.0970 N   0  0  0  0  0  2  0  0  0  0  0  0
  189.3660  177.2730  146.3690 C   0  0  0  0  0  0  0  0  0  0  0  0
  186.0150  178.4480  147.1890 C   0  0  0  0  0  3  0  0  0  0  0  0
  190.9110  177.1430  148.2090 N   0  0  0  0  0  0  0  0  0  0  0  0
  189.6860  177.4490  147.7110 C   0  0  0  0  0  0  0  0  0  0  0  0
  188.0310  177.6150  146.1010 C   0  0  0  0  0  0  0  0  0  0  0  0
  187.3700  177.5480  144.8690 C   0  0  0  0  0  3  0  0  0  0  0  0
  191.8790  176.6670  147.3750 C   0  0  0  0  0  3  0  0  0  0  0  0
  190.3450  176.7920  145.4850 C   0  0  0  0  0  0  0  0  0  0  0  0
  191.6170  176.4880  146.0060 C   0  0  0  0  0  3  0  0  0  0  0  0
  188.3640  178.0250  148.5880 S   0  0  0  0  0  0  0  0  0  0  0  0
  186.0220  177.9350  144.8040 C   0  0  0  0  0  3  0  0  0  0  0  0
  187.3500  178.0520  147.2380 C   0  0  0  0  0  0  0  0  0  0  0  0
  184.0490  178.7590  145.8730 F   0  0  0  0  0  0  0  0  0  0  0  0
  185.3480  178.3870  145.9560 C   0  0  0  0  0  0  0  0  0  0  0  0
  1  9  1  6  0  0  0
  1  4  1  0  0  0  0
  2  4  1  0  0  0  0
  2 24  1  1  0  0  0
  3  2  1  0  0  0  0
  5  3  1  0  0  0  0
  5  1  1  0  0  0  0
  6 10  1  0  0  0  0
  7  8  1  6  0  0  0
  7 11  1  0  0  0  0
  9 12  2  0  0  0  0
 10 13  2  0  0  0  0
 10  7  1  0  0  0  0
 11 12  1  0  0  0  0
 13  9  1  0  0  0  0
 14  6  1  0  0  0  0
 16 15  2  0  0  0  0
 16 14  1  0  0  0  0
 17 18  1  0  0  0  0
 17 16  1  0  0  0  0
 18 19  1  0  0  0  0
 20 19  1  6  0  0  0
 20 22  1  0  0  0  0
 22 21  1  6  0  0  0
 23 21  1  6  0  0  0
 23 20  1  0  0  0  0
 23 22  1  0  0  0  0
 24 25  1  0  0  0  0
 25 33  1  0  0  0  0
 26 29  1  0  0  0  0
 27 37  1  0  0  0  0
 29 28  2  0  0  0  0
 29 35  1  0  0  0  0
 30 26  1  0  0  0  0
 30 37  2  0  0  0  0
 31 30  1  0  0  0  0
 32 28  1  0  0  0  0
 33 34  1  0  0  0  0
 33 26  2  0  0  0  0
 34 32  2  0  0  0  0
 36 31  2  0  0  0  0
 36 39  1  0  0  0  0
 37 35  1  0  0  0  0
 38 39  1  0  0  0  0
 39 27  2  0  0  0  0
M  END
>  <MODEL>
3

>  <REMARK>
 VINA RESULT:      -9.5      2.308      5.308
  Name = 
  9 active torsions:
  status: ('A' for Active; 'I' for Inactive)
    1  A    between atoms: O_1  and  C_35
    2  A    between atoms: O_1  and  C_37
    3  A    between atoms: N_2  and  N_16
    4  A    between atoms: C_3  and  C_20
    5  A    between atoms: C_5  and  C_35
    6  A    between atoms: N_6  and  C_7
    7  A    between atoms: N_6  and  N_11
    8  A    between atoms: N_11  and  C_28
    9  A    between atoms: C_23  and  C_37
                            x       y       z     vdW  Elec       q    Type
                         _______ _______ _______ _____ _____    ______ ____

>  <TORSDO>
F 9

$$$$
=
 OpenBabel10232411053D

 39 45  0  0  1  0  0  0  0  0999 V2000
  190.0780  177.3660  141.7130 C   0  0  2  0  0  3  0  0  0  0  0  0
  191.6360  177.2590  143.5490 C   0  0  1  0  0  3  0  0  0  0  0  0
  191.0160  175.8800  143.4000 C   0  0  0  0  0  2  0  0  0  0  0  0
  191.3660  177.9670  142.2350 C   0  0  0  0  0  2  0  0  0  0  0  0
  190.0690  175.9310  142.2090 C   0  0  0  0  0  2  0  0  0  0  0  0
  191.3800  175.6060  137.3250 N   0  0  0  0  0  2  0  0  0  0  0  0
  189.3650  177.1610  137.4600 C   0  0  1  0  0  3  0  0  0  0  0  0
  189.5950  177.4540  135.9880 C   0  0  0  0  0  1  0  0  0  0  0  0
  189.9840  177.4730  140.2170 C   0  0  0  0  0  0  0  0  0  0  0  0
  190.5710  176.5010  138.0910 C   0  0  0  0  0  0  0  0  0  0  0  0
  189.0250  178.4680  138.1810 C   0  0  0  0  0  2  0  0  0  0  0  0
  189.0870  178.3030  139.6700 C   0  0  0  0  0  3  0  0  0  0  0  0
  190.7970  176.6390  139.3690 N   0  0  0  0  0  0  0  0  0  0  0  0
  192.4420  174.9080  137.9160 N   0  0  0  0  0  2  0  0  0  0  0  0
  194.0510  176.4090  137.1440 O   0  0  0  0  0  0  0  0  0  0  0  0
  193.7900  175.3490  137.7700 C   0  0  0  0  0  0  0  0  0  0  0  0
  194.8990  174.5310  138.3290 C   0  0  0  0  0  2  0  0  0  0  0  0
  196.1230  175.1250  137.9980 O   0  0  0  0  0  0  0  0  0  0  0  0
  196.7640  174.1940  137.1810 C   0  0  0  0  0  2  0  0  0  0  0  0
  197.7770  174.9060  136.2980 C   0  0  2  0  0  3  0  0  0  0  0  0
  196.1850  175.3070  134.4290 C   0  0  0  0  0  2  0  0  0  0  0  0
  197.0980  175.9650  135.4480 C   0  0  2  0  0  3  0  0  0  0  0  0
  197.4850  174.6380  134.8310 C   0  0  1  0  0  3  0  0  0  0  0  0
  190.9720  177.9580  144.6410 N   0  0  0  0  0  2  0  0  0  0  0  0
  189.9280  177.1390  145.0970 N   0  0  0  0  0  2  0  0  0  0  0  0
  187.8030  177.8620  146.1270 C   0  0  0  0  0  0  0  0  0  0  0  0
  184.7540  178.4940  144.2350 C   0  0  0  0  0  3  0  0  0  0  0  0
  187.6390  178.1590  148.5090 N   0  0  0  0  0  0  0  0  0  0  0  0
  187.0880  178.2020  147.2700 C   0  0  0  0  0  0  0  0  0  0  0  0
  187.0110  177.9410  144.9710 C   0  0  0  0  0  0  0  0  0  0  0  0
  187.3980  177.6560  143.6570 C   0  0  0  0  0  3  0  0  0  0  0  0
  188.9450  177.7920  148.6540 C   0  0  0  0  0  3  0  0  0  0  0  0
  189.1520  177.4890  146.2450 C   0  0  0  0  0  0  0  0  0  0  0  0
  189.7210  177.4580  147.5320 C   0  0  0  0  0  3  0  0  0  0  0  0
  185.4930  178.6080  146.8990 S   0  0  0  0  0  0  0  0  0  0  0  0
  186.4520  177.7940  142.6290 C   0  0  0  0  0  3  0  0  0  0  0  0
  185.7030  178.3440  145.2440 C   0  0  0  0  0  0  0  0  0  0  0  0
  184.2390  178.3440  141.9090 F   0  0  0  0  0  0  0  0  0  0  0  0
  185.1380  178.2140  142.9140 C   0  0  0  0  0  0  0  0  0  0  0  0
  1  9  1  6  0  0  0
  1  5  1  0  0  0  0
  1  4  1  0  0  0  0
  2 24  1  1  0  0  0
  3  2  1  0  0  0  0
  4  2  1  0  0  0  0
  5  3  1  0  0  0  0
  6 14  1  0  0  0  0
  6 10  1  0  0  0  0
  7  8  1  6  0  0  0
  7 10  1  0  0  0  0
  7 11  1  0  0  0  0
 10 13  2  0  0  0  0
 11 12  1  0  0  0  0
 12  9  2  0  0  0  0
 13  9  1  0  0  0  0
 15 16  2  0  0  0  0
 16 14  1  0  0  0  0
 16 17  1  0  0  0  0
 18 17  1  0  0  0  0
 19 18  1  0  0  0  0
 20 19  1  1  0  0  0
 22 21  1  1  0  0  0
 22 20  1  0  0  0  0
 23 21  1  1  0  0  0
 23 22  1  0  0  0  0
 23 20  1  0  0  0  0
 24 25  1  0  0  0  0
 25 33  1  0  0  0  0
 26 33  2  0  0  0  0
 26 29  1  0  0  0  0
 27 37  1  0  0  0  0
 28 32  1  0  0  0  0
 29 28  2  0  0  0  0
 30 37  2  0  0  0  0
 30 26  1  0  0  0  0
 31 30  1  0  0  0  0
 33 34  1  0  0  0  0
 34 32  2  0  0  0  0
 35 29  1  0  0  0  0
 36 39  1  0  0  0  0
 36 31  2  0  0  0  0
 37 35  1  0  0  0  0
 38 39  1  0  0  0  0
 39 27  2  0  0  0  0
M  END
>  <MODEL>
4

>  <REMARK>
 VINA RESULT:      -9.5      4.235      7.955
  Name = 
  9 active torsions:
  status: ('A' for Active; 'I' for Inactive)
    1  A    between atoms: O_1  and  C_35
    2  A    between atoms: O_1  and  C_37
    3  A    between atoms: N_2  and  N_16
    4  A    between atoms: C_3  and  C_20
    5  A    between atoms: C_5  and  C_35
    6  A    between atoms: N_6  and  C_7
    7  A    between atoms: N_6  and  N_11
    8  A    between atoms: N_11  and  C_28
    9  A    between atoms: C_23  and  C_37
                            x       y       z     vdW  Elec       q    Type
                         _______ _______ _______ _____ _____    ______ ____

>  <TORSDO>
F 9

$$$$
=
 OpenBabel10232411053D

 39 45  0  0  1  0  0  0  0  0999 V2000
  189.7490  176.6770  142.1220 C   0  0  2  0  0  3  0  0  0  0  0  0
  190.7270  177.3330  140.0190 C   0  0  1  0  0  3  0  0  0  0  0  0
  189.2810  177.7990  140.0100 C   0  0  0  0  0  2  0  0  0  0  0  0
  191.0600  177.0750  141.4770 C   0  0  0  0  0  2  0  0  0  0  0  0
  188.6750  177.4300  141.3580 C   0  0  0  0  0  2  0  0  0  0  0  0
  187.1670  177.8330  146.1280 N   0  0  0  0  0  0  0  0  0  0  0  0
  189.5190  176.8990  146.4280 C   0  0  1  0  0  3  0  0  0  0  0  0
  189.5190  177.5580  147.7960 C   0  0  0  0  0  1  0  0  0  0  0  0
  189.7450  176.9770  143.5950 C   0  0  0  0  0  0  0  0  0  0  0  0
  188.4120  177.4400  145.5490 C   0  0  0  0  0  0  0  0  0  0  0  0
  190.8860  177.1150  145.7710 C   0  0  0  0  0  2  0  0  0  0  0  0
  190.8540  176.7610  144.3140 C   0  0  0  0  0  3  0  0  0  0  0  0
  188.5420  177.4220  144.2510 N   0  0  0  0  0  0  0  0  0  0  0  0
  186.0950  178.2420  145.3230 N   0  0  0  0  0  0  0  0  0  0  0  0
  184.7250  178.7330  147.1450 O   0  0  0  0  0  0  0  0  0  0  0  0
  184.8600  178.6690  145.8960 C   0  0  0  0  0  0  0  0  0  0  0  0
  183.7120  179.0030  145.0110 C   0  0  0  0  0  2  0  0  0  0  0  0
  184.1970  179.5290  143.8070 O   0  0  0  0  0  0  0  0  0  0  0  0
  183.4670  178.8770  142.8130 C   0  0  0  0  0  2  0  0  0  0  0  0
  184.4170  178.1090  141.9070 C   0  0  2  0  0  3  0  0  0  0  0  0
  183.7570  179.3140  139.8340 C   0  0  0  0  0  2  0  0  0  0  0  0
  184.9060  178.9880  140.7710 C   0  0  2  0  0  3  0  0  0  0  0  0
  183.8240  177.9610  140.5160 C   0  0  1  0  0  3  0  0  0  0  0  0
  190.8290  176.0970  139.2550 N   0  0  0  0  0  2  0  0  0  0  0  0
  190.0070  176.2290  138.1240 N   0  0  0  0  0  2  0  0  0  0  0  0
  188.4920  174.9390  136.6620 C   0  0  0  0  0  0  0  0  0  0  0  0
  185.0330  175.8790  136.0060 C   0  0  0  0  0  3  0  0  0  0  0  0
  189.2700  172.9560  135.5410 N   0  0  0  0  0  0  0  0  0  0  0  0
  188.2850  173.8450  135.8280 C   0  0  0  0  0  0  0  0  0  0  0  0
  187.3430  175.7370  136.7720 C   0  0  0  0  0  0  0  0  0  0  0  0
  187.1970  176.9160  137.5120 C   0  0  0  0  0  3  0  0  0  0  0  0
  190.5050  173.1150  136.0970 C   0  0  0  0  0  3  0  0  0  0  0  0
  189.7520  175.1230  137.2550 C   0  0  0  0  0  0  0  0  0  0  0  0
  190.7660  174.1920  136.9630 C   0  0  0  0  0  3  0  0  0  0  0  0
  186.7110  173.8240  135.2210 S   0  0  0  0  0  0  0  0  0  0  0  0
  185.9590  177.5760  137.4940 C   0  0  0  0  0  3  0  0  0  0  0  0
  186.2720  175.2410  136.0280 C   0  0  0  0  0  0  0  0  0  0  0  0
  183.6920  177.7080  136.7460 F   0  0  0  0  0  0  0  0  0  0  0  0
  184.8810  177.0590  136.7490 C   0  0  0  0  0  0  0  0  0  0  0  0
  1  9  1  1  0  0  0
  2 24  1  6  0  0  0
  2  4  1  0  0  0  0
  3  2  1  0  0  0  0
  3  5  1  0  0  0  0
  4  1  1  0  0  0  0
  5  1  1  0  0  0  0
  7  8  1  1  0  0  0
  9 13  1  0  0  0  0
  9 12  2  0  0  0  0
 10  6  1  0  0  0  0
 10  7  1  0  0  0  0
 11  7  1  0  0  0  0
 12 11  1  0  0  0  0
 13 10  2  0  0  0  0
 14 16  1  0  0  0  0
 14  6  2  0  0  0  0
 16 15  2  0  0  0  0
 17 16  1  0  0  0  0
 18 17  1  0  0  0  0
 19 18  1  0  0  0  0
 20 19  1  1  0  0  0
 22 21  1  1  0  0  0
 22 20  1  0  0  0  0
 23 21  1  1  0  0  0
 23 22  1  0  0  0  0
 23 20  1  0  0  0  0
 25 24  1  0  0  0  0
 26 30  1  0  0  0  0
 26 33  1  0  0  0  0
 27 37  2  0  0  0  0
 27 39  1  0  0  0  0
 28 29  1  0  0  0  0
 28 32  2  0  0  0  0
 29 26  2  0  0  0  0
 30 31  2  0  0  0  0
 32 34  1  0  0  0  0
 33 25  1  0  0  0  0
 34 33  2  0  0  0  0
 35 29  1  0  0  0  0
 35 37  1  0  0  0  0
 36 31  1  0  0  0  0
 37 30  1  0  0  0  0
 38 39  1  0  0  0  0
 39 36  2  0  0  0  0
M  END
>  <MODEL>
5

>  <REMARK>
 VINA RESULT:      -9.2      3.637      7.943
  Name = 
  9 active torsions:
  status: ('A' for Active; 'I' for Inactive)
    1  A    between atoms: O_1  and  C_35
    2  A    between atoms: O_1  and  C_37
    3  A    between atoms: N_2  and  N_16
    4  A    between atoms: C_3  and  C_20
    5  A    between atoms: C_5  and  C_35
    6  A    between atoms: N_6  and  C_7
    7  A    between atoms: N_6  and  N_11
    8  A    between atoms: N_11  and  C_28
    9  A    between atoms: C_23  and  C_37
                            x       y       z     vdW  Elec       q    Type
                         _______ _______ _______ _____ _____    ______ ____

>  <TORSDO>
F 9

$$$$
=
 OpenBabel10232411053D

 39 45  0  0  1  0  0  0  0  0999 V2000
  183.9300  179.1940  142.4480 C   0  0  2  0  0  3  0  0  0  0  0  0
  184.4630  178.1420  144.5520 C   0  0  1  0  0  3  0  0  0  0  0  0
  183.0960  178.7880  144.7020 C   0  0  0  0  0  2  0  0  0  0  0  0
  184.6990  178.0380  143.0560 C   0  0  0  0  0  2  0  0  0  0  0  0
  182.7350  179.4100  143.3590 C   0  0  0  0  0  2  0  0  0  0  0  0
  185.3530  178.0380  137.9000 N   0  0  0  0  0  0  0  0  0  0  0  0
  182.9010  177.7250  138.5210 C   0  0  1  0  0  3  0  0  0  0  0  0
  182.5980  177.8010  137.0350 C   0  0  0  0  0  1  0  0  0  0  0  0
  183.5430  178.9110  141.0240 C   0  0  0  0  0  0  0  0  0  0  0  0
  184.2900  178.2380  138.8330 C   0  0  0  0  0  0  0  0  0  0  0  0
  181.8440  178.5280  139.2860 C   0  0  0  0  0  2  0  0  0  0  0  0
  182.2520  178.7480  140.7130 C   0  0  0  0  0  3  0  0  0  0  0  0
  184.5510  178.7400  140.0090 N   0  0  0  0  0  0  0  0  0  0  0  0
  186.6660  178.4150  138.2120 N   0  0  0  0  0  0  0  0  0  0  0  0
  187.4090  178.1820  136.0130 O   0  0  0  0  0  0  0  0  0  0  0  0
  187.6840  178.4460  137.2120 C   0  0  0  0  0  0  0  0  0  0  0  0
  189.0860  178.7560  137.5960 C   0  0  0  0  0  2  0  0  0  0  0  0
  189.4260  178.0150  138.7350 O   0  0  0  0  0  0  0  0  0  0  0  0
  189.5790  176.7060  138.2780 C   0  0  0  0  0  2  0  0  0  0  0  0
  190.8600  176.1160  138.8460 C   0  0  2  0  0  3  0  0  0  0  0  0
  192.0540  176.0590  136.6660 C   0  0  0  0  0  2  0  0  0  0  0  0
  192.0700  176.6160  138.0770 C   0  0  2  0  0  3  0  0  0  0  0  0
  191.5360  175.2230  137.8200 C   0  0  1  0  0  3  0  0  0  0  0  0
  185.4630  179.0100  145.1580 N   0  0  0  0  0  2  0  0  0  0  0  0
  186.7200  178.4210  144.9480 N   0  0  0  0  0  2  0  0  0  0  0  0
  188.8950  177.6650  145.8410 C   0  0  0  0  0  0  0  0  0  0  0  0
  191.8340  177.0750  143.7690 C   0  0  0  0  0  3  0  0  0  0  0  0
  189.1870  177.3040  148.2020 N   0  0  0  0  0  0  0  0  0  0  0  0
  189.6700  177.2920  146.9340 C   0  0  0  0  0  0  0  0  0  0  0  0
  189.6220  177.6150  144.6420 C   0  0  0  0  0  0  0  0  0  0  0  0
  189.1650  177.9350  143.3590 C   0  0  0  0  0  3  0  0  0  0  0  0
  187.8930  177.6700  148.4280 C   0  0  0  0  0  3  0  0  0  0  0  0
  187.5560  178.0380  146.0420 C   0  0  0  0  0  0  0  0  0  0  0  0
  187.0580  178.0370  147.3590 C   0  0  0  0  0  3  0  0  0  0  0  0
  191.2410  176.8920  146.4650 S   0  0  0  0  0  0  0  0  0  0  0  0
  190.0530  177.8230  142.2770 C   0  0  0  0  0  3  0  0  0  0  0  0
  190.9420  177.2010  144.8320 C   0  0  0  0  0  0  0  0  0  0  0  0
  192.2210  177.2860  141.4230 F   0  0  0  0  0  0  0  0  0  0  0  0
  191.3790  177.3910  142.4790 C   0  0  0  0  0  0  0  0  0  0  0  0
  1  9  1  6  0  0  0
  1  4  1  0  0  0  0
  1  5  1  0  0  0  0
  2  3  1  0  0  0  0
  2 24  1  1  0  0  0
  4  2  1  0  0  0  0
  5  3  1  0  0  0  0
  6 14  2  0  0  0  0
  6 10  1  0  0  0  0
  7  8  1  6  0  0  0
  7 10  1  0  0  0  0
  7 11  1  0  0  0  0
 10 13  2  0  0  0  0
 11 12  1  0  0  0  0
 12  9  2  0  0  0  0
 13  9  1  0  0  0  0
 15 16  2  0  0  0  0
 16 17  1  0  0  0  0
 16 14  1  0  0  0  0
 17 18  1  0  0  0  0
 19 18  1  0  0  0  0
 20 19  1  6  0  0  0
 22 21  1  6  0  0  0
 22 20  1  0  0  0  0
 23 21  1  6  0  0  0
 23 22  1  0  0  0  0
 23 20  1  0  0  0  0
 25 24  1  0  0  0  0
 25 33  1  0  0  0  0
 26 33  2  0  0  0  0
 26 29  1  0  0  0  0
 27 37  1  0  0  0  0
 28 32  1  0  0  0  0
 29 28  2  0  0  0  0
 30 37  2  0  0  0  0
 30 26  1  0  0  0  0
 31 30  1  0  0  0  0
 33 34  1  0  0  0  0
 34 32  2  0  0  0  0
 35 29  1  0  0  0  0
 36 39  1  0  0  0  0
 36 31  2  0  0  0  0
 37 35  1  0  0  0  0
 38 39  1  0  0  0  0
 39 27  2  0  0  0  0
M  END
>  <MODEL>
6

>  <REMARK>
 VINA RESULT:      -9.1      2.650      6.692
  Name = 
  9 active torsions:
  status: ('A' for Active; 'I' for Inactive)
    1  A    between atoms: O_1  and  C_35
    2  A    between atoms: O_1  and  C_37
    3  A    between atoms: N_2  and  N_16
    4  A    between atoms: C_3  and  C_20
    5  A    between atoms: C_5  and  C_35
    6  A    between atoms: N_6  and  C_7
    7  A    between atoms: N_6  and  N_11
    8  A    between atoms: N_11  and  C_28
    9  A    between atoms: C_23  and  C_37
                            x       y       z     vdW  Elec       q    Type
                         _______ _______ _______ _____ _____    ______ ____

>  <TORSDO>
F 9

$$$$
=
 OpenBabel10232411053D

 39 45  0  0  1  0  0  0  0  0999 V2000
  188.1040  178.2710  137.7190 C   0  0  2  0  0  3  0  0  0  0  0  0
  185.7760  177.8400  138.1750 C   0  0  1  0  0  3  0  0  0  0  0  0
  185.9410  177.8860  136.6650 C   0  0  0  0  0  2  0  0  0  0  0  0
  187.1730  177.6300  138.7280 C   0  0  0  0  0  2  0  0  0  0  0  0
  187.4200  178.1070  136.3740 C   0  0  0  0  0  2  0  0  0  0  0  0
  191.9750  176.9160  140.4080 N   0  0  0  0  0  2  0  0  0  0  0  0
  191.7220  175.9410  138.0660 C   0  0  1  0  0  3  0  0  0  0  0  0
  193.2170  175.6770  138.1030 C   0  0  0  0  0  1  0  0  0  0  0  0
  189.4740  177.6550  137.7630 C   0  0  0  0  0  0  0  0  0  0  0  0
  191.3020  176.9130  139.1470 C   0  0  0  0  0  0  0  0  0  0  0  0
  191.3450  176.4760  136.6820 C   0  0  0  0  0  2  0  0  0  0  0  0
  189.9550  177.0400  136.6750 C   0  0  0  0  0  3  0  0  0  0  0  0
  190.2410  177.6540  138.9820 N   0  0  0  0  0  0  0  0  0  0  0  0
  191.5380  177.7370  141.4560 N   0  0  0  0  0  2  0  0  0  0  0  0
  190.4390  175.9960  142.5540 O   0  0  0  0  0  0  0  0  0  0  0  0
  190.7330  177.2190  142.5150 C   0  0  0  0  0  0  0  0  0  0  0  0
  190.2070  178.1390  143.5580 C   0  0  0  0  0  2  0  0  0  0  0  0
  189.0560  177.5800  144.1270 O   0  0  0  0  0  0  0  0  0  0  0  0
  189.0100  178.0950  145.4220 C   0  0  0  0  0  2  0  0  0  0  0  0
  189.1440  176.9590  146.4250 C   0  0  2  0  0  3  0  0  0  0  0  0
  188.5200  178.3400  148.3960 C   0  0  0  0  0  2  0  0  0  0  0  0
  188.1540  177.1260  147.5620 C   0  0  2  0  0  3  0  0  0  0  0  0
  189.6090  177.4890  147.7710 C   0  0  1  0  0  3  0  0  0  0  0  0
  185.2440  179.1180  138.6290 N   0  0  0  0  0  2  0  0  0  0  0  0
  184.7850  178.9440  139.9440 N   0  0  0  0  0  2  0  0  0  0  0  0
  182.9380  178.8960  141.5820 C   0  0  0  0  0  0  0  0  0  0  0  0
  183.4410  178.7720  145.1890 C   0  0  0  0  0  3  0  0  0  0  0  0
  180.6490  178.9670  140.8450 N   0  0  0  0  0  0  0  0  0  0  0  0
  181.5710  178.8940  141.8380 C   0  0  0  0  0  0  0  0  0  0  0  0
  183.6910  178.8580  142.7660 C   0  0  0  0  0  0  0  0  0  0  0  0
  185.0860  178.8640  142.8840 C   0  0  0  0  0  3  0  0  0  0  0  0
  181.0590  179.0250  139.5450 C   0  0  0  0  0  3  0  0  0  0  0  0
  183.3900  178.9460  140.2540 C   0  0  0  0  0  0  0  0  0  0  0  0
  182.4280  179.0110  139.2280 C   0  0  0  0  0  3  0  0  0  0  0  0
  181.2550  178.8380  143.4940 S   0  0  0  0  0  0  0  0  0  0  0  0
  185.6550  178.8230  144.1670 C   0  0  0  0  0  3  0  0  0  0  0  0
  182.8920  178.8220  143.9100 C   0  0  0  0  0  0  0  0  0  0  0  0
  185.4060  178.7310  146.5420 F   0  0  0  0  0  0  0  0  0  0  0  0
  184.8390  178.7730  145.3130 C   0  0  0  0  0  0  0  0  0  0  0  0
  1  9  1  6  0  0  0
  1  4  1  0  0  0  0
  2 24  1  1  0  0  0
  2  4  1  0  0  0  0
  3  2  1  0  0  0  0
  5  3  1  0  0  0  0
  5  1  1  0  0  0  0
  6 14  1  0  0  0  0
  7  8  1  6  0  0  0
  7 10  1  0  0  0  0
  9 13  1  0  0  0  0
 10  6  1  0  0  0  0
 11  7  1  0  0  0  0
 12 11  1  0  0  0  0
 12  9  2  0  0  0  0
 13 10  2  0  0  0  0
 14 16  1  0  0  0  0
 16 15  2  0  0  0  0
 16 17  1  0  0  0  0
 17 18  1  0  0  0  0
 18 19  1  0  0  0  0
 20 19  1  6  0  0  0
 20 22  1  0  0  0  0
 20 23  1  0  0  0  0
 22 23  1  0  0  0  0
 22 21  1  6  0  0  0
 23 21  1  6  0  0  0
 24 25  1  0  0  0  0
 25 33  1  0  0  0  0
 26 29  1  0  0  0  0
 26 30  1  0  0  0  0
 27 39  1  0  0  0  0
 28 29  2  0  0  0  0
 29 35  1  0  0  0  0
 30 31  2  0  0  0  0
 30 37  1  0  0  0  0
 31 36  1  0  0  0  0
 32 28  1  0  0  0  0
 33 26  2  0  0  0  0
 34 32  2  0  0  0  0
 34 33  1  0  0  0  0
 35 37  1  0  0  0  0
 36 39  2  0  0  0  0
 37 27  2  0  0  0  0
 39 38  1  0  0  0  0
M  END
>  <MODEL>
7

>  <REMARK>
 VINA RESULT:      -9.1      2.776      6.933
  Name = 
  9 active torsions:
  status: ('A' for Active; 'I' for Inactive)
    1  A    between atoms: O_1  and  C_35
    2  A    between atoms: O_1  and  C_37
    3  A    between atoms: N_2  and  N_16
    4  A    between atoms: C_3  and  C_20
    5  A    between atoms: C_5  and  C_35
    6  A    between atoms: N_6  and  C_7
    7  A    between atoms: N_6  and  N_11
    8  A    between atoms: N_11  and  C_28
    9  A    between atoms: C_23  and  C_37
                            x       y       z     vdW  Elec       q    Type
                         _______ _______ _______ _____ _____    ______ ____

>  <TORSDO>
F 9

$$$$
=
 OpenBabel10232411053D

 39 45  0  0  1  0  0  0  0  0999 V2000
  183.8510  178.3400  142.4610 C   0  0  2  0  0  3  0  0  0  0  0  0
  184.4100  179.4040  144.5510 C   0  0  1  0  0  3  0  0  0  0  0  0
  185.4490  179.8360  143.5310 C   0  0  0  0  0  2  0  0  0  0  0  0
  183.2410  178.8770  143.7400 C   0  0  0  0  0  2  0  0  0  0  0  0
  185.0700  179.2070  142.1970 C   0  0  0  0  0  2  0  0  0  0  0  0
  182.8360  177.1770  137.8070 N   0  0  0  0  0  0  0  0  0  0  0  0
  180.9000  177.7250  139.3710 C   0  0  1  0  0  3  0  0  0  0  0  0
  180.0910  178.0450  138.1260 C   0  0  0  0  0  1  0  0  0  0  0  0
  182.8620  178.3530  141.3300 C   0  0  0  0  0  0  0  0  0  0  0  0
  182.3820  177.6620  139.0710 C   0  0  0  0  0  0  0  0  0  0  0  0
  180.6080  178.7820  140.4390 C   0  0  0  0  0  2  0  0  0  0  0  0
  181.5920  178.7030  141.5690 C   0  0  0  0  0  3  0  0  0  0  0  0
  183.2490  177.9220  140.0110 N   0  0  0  0  0  0  0  0  0  0  0  0
  184.2040  177.0160  137.5450 N   0  0  0  0  0  0  0  0  0  0  0  0
  183.8990  176.9270  135.2350 O   0  0  0  0  0  0  0  0  0  0  0  0
  184.6900  176.8680  136.2120 C   0  0  0  0  0  0  0  0  0  0  0  0
  186.1340  176.6030  135.9780 C   0  0  0  0  0  2  0  0  0  0  0  0
  186.6950  176.0530  137.1370 O   0  0  0  0  0  0  0  0  0  0  0  0
  188.0730  176.1080  136.9280 C   0  0  0  0  0  2  0  0  0  0  0  0
  188.7520  176.6720  138.1670 C   0  0  2  0  0  3  0  0  0  0  0  0
  189.0450  178.9560  137.2260 C   0  0  0  0  0  2  0  0  0  0  0  0
  188.4150  178.1420  138.3410 C   0  0  2  0  0  3  0  0  0  0  0  0
  189.7620  177.7390  137.7800 C   0  0  1  0  0  3  0  0  0  0  0  0
  184.9710  178.3390  145.3720 N   0  0  0  0  0  2  0  0  0  0  0  0
  186.3070  178.1590  144.9790 N   0  0  0  0  0  2  0  0  0  0  0  0
  188.6390  177.5680  145.5380 C   0  0  0  0  0  0  0  0  0  0  0  0
  191.1850  176.8160  143.0420 C   0  0  0  0  0  3  0  0  0  0  0  0
  189.3640  177.4930  147.8310 N   0  0  0  0  0  0  0  0  0  0  0  0
  189.6130  177.3460  146.5050 C   0  0  0  0  0  0  0  0  0  0  0  0
  189.1420  177.3970  144.2390 C   0  0  0  0  0  0  0  0  0  0  0  0
  188.4490  177.5540  143.0330 C   0  0  0  0  0  3  0  0  0  0  0  0
  188.1150  177.8500  148.2470 C   0  0  0  0  0  3  0  0  0  0  0  0
  187.3410  177.9280  145.9380 C   0  0  0  0  0  0  0  0  0  0  0  0
  187.0870  178.0680  147.3150 C   0  0  0  0  0  3  0  0  0  0  0  0
  191.0910  176.9330  145.8050 S   0  0  0  0  0  0  0  0  0  0  0  0
  189.1340  177.3380  141.8270 C   0  0  0  0  0  3  0  0  0  0  0  0
  190.4920  177.0420  144.2290 C   0  0  0  0  0  0  0  0  0  0  0  0
  191.1370  176.7610  140.6570 F   0  0  0  0  0  0  0  0  0  0  0  0
  190.4930  176.9670  141.8300 C   0  0  0  0  0  0  0  0  0  0  0  0
  1  9  1  6  0  0  0
  1  4  1  0  0  0  0
  2 24  1  1  0  0  0
  3  2  1  0  0  0  0
  4  2  1  0  0  0  0
  5  1  1  0  0  0  0
  5  3  1  0  0  0  0
  6 10  1  0  0  0  0
  7  8  1  6  0  0  0
  7 11  1  0  0  0  0
  9 12  2  0  0  0  0
 10  7  1  0  0  0  0
 10 13  2  0  0  0  0
 11 12  1  0  0  0  0
 13  9  1  0  0  0  0
 14  6  2  0  0  0  0
 15 16  2  0  0  0  0
 16 14  1  0  0  0  0
 17 16  1  0  0  0  0
 17 18  1  0  0  0  0
 19 18  1  0  0  0  0
 20 19  1  6  0  0  0
 20 22  1  0  0  0  0
 22 21  1  6  0  0  0
 23 21  1  6  0  0  0
 23 20  1  0  0  0  0
 23 22  1  0  0  0  0
 25 24  1  0  0  0  0
 25 33  1  0  0  0  0
 26 33  2  0  0  0  0
 26 29  1  0  0  0  0
 27 37  1  0  0  0  0
 28 32  1  0  0  0  0
 29 28  2  0  0  0  0
 30 26  1  0  0  0  0
 31 30  1  0  0  0  0
 33 34  1  0  0  0  0
 34 32  2  0  0  0  0
 35 29  1  0  0  0  0
 36 39  1  0  0  0  0
 36 31  2  0  0  0  0
 37 30  2  0  0  0  0
 37 35  1  0  0  0  0
 38 39  1  0  0  0  0
 39 27  2  0  0  0  0
M  END
>  <MODEL>
8

>  <REMARK>
 VINA RESULT:      -9.0      2.736      6.328
  Name = 
  9 active torsions:
  status: ('A' for Active; 'I' for Inactive)
    1  A    between atoms: O_1  and  C_35
    2  A    between atoms: O_1  and  C_37
    3  A    between atoms: N_2  and  N_16
    4  A    between atoms: C_3  and  C_20
    5  A    between atoms: C_5  and  C_35
    6  A    between atoms: N_6  and  C_7
    7  A    between atoms: N_6  and  N_11
    8  A    between atoms: N_11  and  C_28
    9  A    between atoms: C_23  and  C_37
                            x       y       z     vdW  Elec       q    Type
                         _______ _______ _______ _____ _____    ______ ____

>  <TORSDO>
F 9

$$$$
=
 OpenBabel10232411053D

 39 45  0  0  1  0  0  0  0  0999 V2000
  186.9240  178.7930  141.2000 C   0  0  2  0  0  3  0  0  0  0  0  0
  188.1760  177.9400  139.3250 C   0  0  1  0  0  3  0  0  0  0  0  0
  188.8050  177.3720  140.5870 C   0  0  0  0  0  2  0  0  0  0  0  0
  186.7950  178.4120  139.7400 C   0  0  0  0  0  2  0  0  0  0  0  0
  187.9850  177.8690  141.7700 C   0  0  0  0  0  2  0  0  0  0  0  0
  184.5170  178.4240  145.4570 N   0  0  0  0  0  2  0  0  0  0  0  0
  183.2210  179.1600  143.3900 C   0  0  1  0  0  3  0  0  0  0  0  0
  181.9680  178.6890  144.1080 C   0  0  0  0  0  1  0  0  0  0  0  0
  185.6070  178.6910  141.9160 C   0  0  0  0  0  0  0  0  0  0  0  0
  184.4740  178.6170  144.0430 C   0  0  0  0  0  0  0  0  0  0  0  0
  183.1450  178.7300  141.9220 C   0  0  0  0  0  2  0  0  0  0  0  0
  184.4700  178.8920  141.2370 C   0  0  0  0  0  3  0  0  0  0  0  0
  185.5590  178.4520  143.3360 N   0  0  0  0  0  0  0  0  0  0  0  0
  185.6990  178.0180  146.0930 N   0  0  0  0  0  2  0  0  0  0  0  0
  185.7530  179.8780  147.4990 O   0  0  0  0  0  0  0  0  0  0  0  0
  186.3010  178.8130  147.1130 C   0  0  0  0  0  0  0  0  0  0  0  0
  187.6040  178.4000  147.6980 C   0  0  0  0  0  2  0  0  0  0  0  0
  188.0030  177.1870  147.1230 O   0  0  0  0  0  0  0  0  0  0  0  0
  189.2640  177.4430  146.5850 C   0  0  0  0  0  2  0  0  0  0  0  0
  189.1710  177.4770  145.0680 C   0  0  2  0  0  3  0  0  0  0  0  0
  191.6060  177.8370  144.7130 C   0  0  0  0  0  2  0  0  0  0  0  0
  190.4330  176.9150  144.4390 C   0  0  2  0  0  3  0  0  0  0  0  0
  190.2200  178.4130  144.4910 C   0  0  1  0  0  3  0  0  0  0  0  0
  188.9750  179.0680  138.8680 N   0  0  0  0  0  2  0  0  0  0  0  0
  189.3270  178.8250  137.5310 N   0  0  0  0  0  2  0  0  0  0  0  0
  189.1810  176.5820  136.5100 C   0  0  0  0  0  0  0  0  0  0  0  0
  191.7460  174.0210  136.8850 C   0  0  0  0  0  3  0  0  0  0  0  0
  187.2570  175.9560  135.2060 N   0  0  0  0  0  0  0  0  0  0  0  0
  188.4760  175.6710  135.7300 C   0  0  0  0  0  0  0  0  0  0  0  0
  190.3910  176.0460  136.9750 C   0  0  0  0  0  0  0  0  0  0  0  0
  191.3390  176.6740  137.7920 C   0  0  0  0  0  3  0  0  0  0  0  0
  186.7000  177.1820  135.4230 C   0  0  0  0  0  3  0  0  0  0  0  0
  188.6350  177.8550  136.7430 C   0  0  0  0  0  0  0  0  0  0  0  0
  187.3760  178.1490  136.1860 C   0  0  0  0  0  3  0  0  0  0  0  0
  189.3090  174.2100  135.5880 S   0  0  0  0  0  0  0  0  0  0  0  0
  192.4950  175.9650  138.1540 C   0  0  0  0  0  3  0  0  0  0  0  0
  190.6000  174.7350  136.5420 C   0  0  0  0  0  0  0  0  0  0  0  0
  193.8240  173.9800  138.0570 F   0  0  0  0  0  0  0  0  0  0  0  0
  192.7000  174.6470  137.7000 C   0  0  0  0  0  0  0  0  0  0  0  0
  1  5  1  0  0  0  0
  1  9  1  1  0  0  0
  2 24  1  1  0  0  0
  2  4  1  0  0  0  0
  2  3  1  0  0  0  0
  3  5  1  0  0  0  0
  4  1  1  0  0  0  0
  6 14  1  0  0  0  0
  7 10  1  0  0  0  0
  7  8  1  1  0  0  0
  9 13  1  0  0  0  0
 10  6  1  0  0  0  0
 11  7  1  0  0  0  0
 12  9  2  0  0  0  0
 12 11  1  0  0  0  0
 13 10  2  0  0  0  0
 14 16  1  0  0  0  0
 16 15  2  0  0  0  0
 16 17  1  0  0  0  0
 18 17  1  0  0  0  0
 19 18  1  0  0  0  0
 20 19  1  1  0  0  0
 22 23  1  0  0  0  0
 22 21  1  1  0  0  0
 22 20  1  0  0  0  0
 23 21  1  1  0  0  0
 23 20  1  0  0  0  0
 25 24  1  0  0  0  0
 26 33  1  0  0  0  0
 26 30  1  0  0  0  0
 27 39  1  0  0  0  0
 28 32  2  0  0  0  0
 28 29  1  0  0  0  0
 29 26  2  0  0  0  0
 30 31  2  0  0  0  0
 31 36  1  0  0  0  0
 32 34  1  0  0  0  0
 33 25  1  0  0  0  0
 34 33  2  0  0  0  0
 35 29  1  0  0  0  0
 35 37  1  0  0  0  0
 37 27  2  0  0  0  0
 37 30  1  0  0  0  0
 39 38  1  0  0  0  0
 39 36  2  0  0  0  0
M  END
>  <MODEL>
9

>  <REMARK>
 VINA RESULT:      -8.9      4.145      8.976
  Name = 
  9 active torsions:
  status: ('A' for Active; 'I' for Inactive)
    1  A    between atoms: O_1  and  C_35
    2  A    between atoms: O_1  and  C_37
    3  A    between atoms: N_2  and  N_16
    4  A    between atoms: C_3  and  C_20
    5  A    between atoms: C_5  and  C_35
    6  A    between atoms: N_6  and  C_7
    7  A    between atoms: N_6  and  N_11
    8  A    between atoms: N_11  and  C_28
    9  A    between atoms: C_23  and  C_37
                            x       y       z     vdW  Elec       q    Type
                         _______ _______ _______ _____ _____    ______ ____

>  <TORSDO>
F 9

$$$$
