=
 OpenBabel10222421373D

 43 46  0  0  1  0  0  0  0  0999 V2000
  190.5050  177.8790  140.5330 C   0  0  2  0  0  3  0  0  0  0  0  0
  189.1770  178.6010  140.3760 C   0  0  0  0  0  2  0  0  0  0  0  0
  190.5060  176.7280  139.6260 N   0  0  0  0  0  0  0  0  0  0  0  0
  188.7420  178.2150  138.9890 C   0  0  1  0  0  3  0  0  0  0  0  0
  189.2840  176.8160  138.8220 C   0  0  0  0  0  2  0  0  0  0  0  0
  189.5880  177.5130  144.2620 C   0  0  2  0  0  0  0  0  0  0  0  0
  190.7570  179.5650  143.2640 C   0  0  0  0  0  1  0  0  0  0  0  0
  189.9570  178.2930  142.9800 C   0  0  1  0  0  3  0  0  0  0  0  0
  190.3750  176.0680  146.0120 C   0  0  0  0  0  2  0  0  0  0  0  0
  190.4940  175.8880  142.1350 C   0  0  0  0  0  2  0  0  0  0  0  0
  190.6830  176.4990  144.5980 C   0  0  2  0  0  0  0  0  0  0  0  0
  191.9320  177.1080  144.6100 F   0  0  0  0  0  0  0  0  0  0  0  0
  188.2310  176.8430  144.0220 C   0  0  0  0  0  1  0  0  0  0  0  0
  190.7160  175.3630  143.5760 C   0  0  0  0  0  2  0  0  0  0  0  0
  189.8090  177.3260  146.6730 C   0  0  2  0  0  3  0  0  0  0  0  0
  190.7340  177.4090  141.9720 C   0  0  1  0  0  3  0  0  0  0  0  0
  188.6510  176.9910  147.3830 O   0  0  0  0  0  1  0  0  0  0  0  0
  189.4610  178.3170  145.5500 C   0  0  0  0  0  2  0  0  0  0  0  0
  187.2840  178.2230  138.8600 C   0  0  0  0  0  0  0  0  0  0  0  0
  186.0830  178.1930  138.7880 C   0  0  0  0  0  0  0  0  0  0  0  0
  184.6190  178.1250  138.7440 C   0  0  0  0  0  2  0  0  0  0  0  0
  183.5710  180.2190  139.1280 O   0  0  0  0  0  0  0  0  0  0  0  0
  184.0340  179.1680  139.6410 C   0  0  0  0  0  0  0  0  0  0  0  0
  183.9920  178.9900  141.1070 C   0  0  0  0  0  0  0  0  0  0  0  0
  182.7360  178.8120  143.2710 C   0  0  0  0  0  0  0  0  0  0  0  0
  184.0360  178.8680  143.9490 C   0  0  0  0  0  0  0  0  0  0  0  0
  185.1460  178.9810  143.2290 C   0  0  0  0  0  3  0  0  0  0  0  0
  181.6680  178.7780  143.9490 O   0  0  0  0  0  0  0  0  0  0  0  0
  184.1320  178.8130  145.4340 C   0  0  0  0  0  1  0  0  0  0  0  0
  185.0940  179.0690  141.8000 N   0  0  0  0  0  0  0  0  0  0  0  0
  182.6600  178.7390  141.7730 C   0  0  0  0  0  2  0  0  0  0  0  0
  192.8520  176.9070  139.6010 O   0  0  0  0  0  1  0  0  0  0  0  0
  191.7240  176.7440  138.7950 C   0  0  1  0  0  3  0  0  0  0  0  0
  191.3530  174.4890  138.1790 O   0  0  0  0  0  0  0  0  0  0  0  0
  191.8760  175.5500  137.8770 C   0  0  0  0  0  0  0  0  0  0  0  0
  192.6780  175.6370  136.6100 C   0  0  0  0  0  2  0  0  0  0  0  0
  195.1250  175.9230  136.0860 C   0  0  0  0  0  0  0  0  0  0  0  0
  194.8210  176.9500  135.0450 C   0  0  0  0  0  1  0  0  0  0  0  0
  194.0780  175.2920  136.8380 N   0  0  0  0  0  0  0  0  0  0  0  0
  196.3290  175.6130  136.2960 O   0  0  0  0  0  0  0  0  0  0  0  0
  194.3980  174.2990  137.8570 C   0  0  0  0  0  2  0  0  0  0  0  0
  194.5280  172.9230  137.2170 C   0  0  0  0  0  2  0  0  0  0  0  0
  195.6200  172.1440  137.9220 C   0  0  0  0  0  1  0  0  0  0  0  0
  1  2  1  1  0  0  0
  1 16  1  0  0  0  0
  3  1  1  0  0  0  0
  4 19  1  1  0  0  0
  4  2  1  0  0  0  0
  5  4  1  0  0  0  0
  5  3  1  0  0  0  0
  6 13  1  6  0  0  0
  6 11  1  0  0  0  0
  6 18  1  0  0  0  0
  8  7  1  1  0  0  0
  8  6  1  0  0  0  0
  9 15  1  0  0  0  0
 10 14  1  0  0  0  0
 11 12  1  6  0  0  0
 11  9  1  0  0  0  0
 14 11  1  0  0  0  0
 15 17  1  6  0  0  0
 16 10  1  6  0  0  0
 16  8  1  0  0  0  0
 18 15  1  0  0  0  0
 20 19  3  0  0  0  0
 21 20  1  0  0  0  0
 21 23  1  0  0  0  0
 22 23  2  0  0  0  0
 23 24  1  0  0  0  0
 24 31  1  0  0  0  0
 24 30  2  0  0  0  0
 25 26  1  0  0  0  0
 25 28  2  0  0  0  0
 26 29  1  0  0  0  0
 27 26  2  0  0  0  0
 30 27  1  0  0  0  0
 31 25  1  0  0  0  0
 33 32  1  1  0  0  0
 33  3  1  0  0  0  0
 35 34  2  0  0  0  0
 35 33  1  0  0  0  0
 36 39  1  0  0  0  0
 36 35  1  0  0  0  0
 37 40  2  0  0  0  0
 37 39  1  0  0  0  0
 38 37  1  0  0  0  0
 39 41  1  0  0  0  0
 42 41  1  0  0  0  0
 42 43  1  0  0  0  0
M  END
>  <MODEL>
1

>  <REMARK>
 VINA RESULT:      -7.8      0.000      0.000
  Name = 
  11 active torsions:
  status: ('A' for Active; 'I' for Inactive)
    1  A    between atoms: C_1  and  C_38
    2  A    between atoms: C_4  and  C_33
    3  A    between atoms: C_5  and  C_35
    4  A    between atoms: C_5  and  C_38
    5  A    between atoms: C_9  and  C_30
    6  A    between atoms: N_20  and  C_37
    7  A    between atoms: C_22  and  C_37
    8  A    between atoms: C_22  and  C_40
    9  A    between atoms: C_24  and  N_27
   10  A    between atoms: C_24  and  C_29
   11  A    between atoms: N_27  and  C_40
                            x       y       z     vdW  Elec       q    Type
                         _______ _______ _______ _____ _____    ______ ____

>  <TORSDO>
F 11

$$$$
=
 OpenBabel10222421373D

 43 46  0  0  1  0  0  0  0  0999 V2000
  191.4910  176.6560  137.1980 C   0  0  2  0  0  3  0  0  0  0  0  0
  191.8530  176.7340  138.6720 C   0  0  0  0  0  2  0  0  0  0  0  0
  190.0410  176.4760  137.0970 N   0  0  0  0  0  0  0  0  0  0  0  0
  190.5770  177.2080  139.3110 C   0  0  1  0  0  3  0  0  0  0  0  0
  189.4990  176.5900  138.4540 C   0  0  0  0  0  2  0  0  0  0  0  0
  194.4530  174.2660  136.5720 C   0  0  2  0  0  0  0  0  0  0  0  0
  194.2630  176.6140  135.5610 C   0  0  0  0  0  1  0  0  0  0  0  0
  193.7490  175.6410  136.6210 C   0  0  1  0  0  3  0  0  0  0  0  0
  194.6560  172.1700  135.4160 C   0  0  0  0  0  2  0  0  0  0  0  0
  191.6520  174.1210  136.9160 C   0  0  0  0  0  2  0  0  0  0  0  0
  193.7000  173.3180  135.6360 C   0  0  2  0  0  0  0  0  0  0  0  0
  193.4760  173.9180  134.4030 F   0  0  0  0  0  0  0  0  0  0  0  0
  194.5250  173.7290  138.0060 C   0  0  0  0  0  1  0  0  0  0  0  0
  192.3470  172.9210  136.2260 C   0  0  0  0  0  2  0  0  0  0  0  0
  196.0390  172.8240  135.4280 C   0  0  2  0  0  3  0  0  0  0  0  0
  192.2100  175.5030  136.4940 C   0  0  1  0  0  3  0  0  0  0  0  0
  196.8950  172.0720  136.2380 O   0  0  0  0  0  1  0  0  0  0  0  0
  195.8720  174.2350  136.0180 C   0  0  0  0  0  2  0  0  0  0  0  0
  190.4640  176.7440  140.6950 C   0  0  0  0  0  0  0  0  0  0  0  0
  190.3250  176.3480  141.8230 C   0  0  0  0  0  0  0  0  0  0  0  0
  190.1100  175.8390  143.1810 C   0  0  0  0  0  2  0  0  0  0  0  0
  190.8930  177.7080  144.4170 O   0  0  0  0  0  0  0  0  0  0  0  0
  189.9090  176.9790  144.1260 C   0  0  0  0  0  0  0  0  0  0  0  0
  188.5880  177.2640  144.7230 C   0  0  0  0  0  0  0  0  0  0  0  0
  186.1590  177.8540  144.5220 C   0  0  0  0  0  0  0  0  0  0  0  0
  186.1490  178.0160  145.9800 C   0  0  0  0  0  0  0  0  0  0  0  0
  187.2670  177.8170  146.6680 C   0  0  0  0  0  3  0  0  0  0  0  0
  185.1190  178.1120  143.8480 O   0  0  0  0  0  0  0  0  0  0  0  0
  184.9090  178.4120  146.7020 C   0  0  0  0  0  1  0  0  0  0  0  0
  188.4890  177.4670  146.0080 N   0  0  0  0  0  0  0  0  0  0  0  0
  187.3790  177.3320  143.8210 C   0  0  0  0  0  2  0  0  0  0  0  0
  189.9760  177.3000  134.8930 O   0  0  0  0  0  1  0  0  0  0  0  0
  189.4720  177.4830  136.1820 C   0  0  1  0  0  3  0  0  0  0  0  0
  187.3870  178.3750  136.8600 O   0  0  0  0  0  0  0  0  0  0  0  0
  187.9590  177.5440  136.1720 C   0  0  0  0  0  0  0  0  0  0  0  0
  187.1450  176.5860  135.3500 C   0  0  0  0  0  2  0  0  0  0  0  0
  187.5580  174.1400  135.7870 C   0  0  0  0  0  0  0  0  0  0  0  0
  188.5950  174.0860  134.7140 C   0  0  0  0  0  1  0  0  0  0  0  0
  186.8600  175.3590  136.0860 N   0  0  0  0  0  0  0  0  0  0  0  0
  187.2990  173.0890  136.4320 O   0  0  0  0  0  0  0  0  0  0  0  0
  185.8570  175.3920  137.1450 C   0  0  0  0  0  2  0  0  0  0  0  0
  184.5070  175.7940  136.5670 C   0  0  0  0  0  2  0  0  0  0  0  0
  183.9630  176.9780  137.3400 C   0  0  0  0  0  1  0  0  0  0  0  0
  1  2  1  1  0  0  0
  2  4  1  0  0  0  0
  3  1  1  0  0  0  0
  3  5  1  0  0  0  0
  4 19  1  1  0  0  0
  5  4  1  0  0  0  0
  6  8  1  0  0  0  0
  6 13  1  1  0  0  0
  8  7  1  6  0  0  0
  9 15  1  0  0  0  0
  9 11  1  0  0  0  0
 11 12  1  6  0  0  0
 11 14  1  0  0  0  0
 11  6  1  0  0  0  0
 14 10  1  0  0  0  0
 15 18  1  0  0  0  0
 15 17  1  1  0  0  0
 16  8  1  0  0  0  0
 16 10  1  1  0  0  0
 16  1  1  0  0  0  0
 18  6  1  0  0  0  0
 19 20  3  0  0  0  0
 20 21  1  0  0  0  0
 21 23  1  0  0  0  0
 23 22  2  0  0  0  0
 23 24  1  0  0  0  0
 24 30  2  0  0  0  0
 25 26  1  0  0  0  0
 26 27  2  0  0  0  0
 26 29  1  0  0  0  0
 28 25  2  0  0  0  0
 30 27  1  0  0  0  0
 31 25  1  0  0  0  0
 31 24  1  0  0  0  0
 33 32  1  6  0  0  0
 33  3  1  0  0  0  0
 35 33  1  0  0  0  0
 35 34  2  0  0  0  0
 36 39  1  0  0  0  0
 36 35  1  0  0  0  0
 37 39  1  0  0  0  0
 37 40  2  0  0  0  0
 38 37  1  0  0  0  0
 39 41  1  0  0  0  0
 42 41  1  0  0  0  0
 42 43  1  0  0  0  0
M  END
>  <MODEL>
2

>  <REMARK>
 VINA RESULT:      -7.7      3.198      7.666
  Name = 
  11 active torsions:
  status: ('A' for Active; 'I' for Inactive)
    1  A    between atoms: C_1  and  C_38
    2  A    between atoms: C_4  and  C_33
    3  A    between atoms: C_5  and  C_35
    4  A    between atoms: C_5  and  C_38
    5  A    between atoms: C_9  and  C_30
    6  A    between atoms: N_20  and  C_37
    7  A    between atoms: C_22  and  C_37
    8  A    between atoms: C_22  and  C_40
    9  A    between atoms: C_24  and  N_27
   10  A    between atoms: C_24  and  C_29
   11  A    between atoms: N_27  and  C_40
                            x       y       z     vdW  Elec       q    Type
                         _______ _______ _______ _____ _____    ______ ____

>  <TORSDO>
F 11

$$$$
=
 OpenBabel10222421373D

 43 46  0  0  1  0  0  0  0  0999 V2000
  189.3660  176.8250  139.4990 C   0  0  2  0  0  3  0  0  0  0  0  0
  190.4360  175.9950  138.8090 C   0  0  0  0  0  2  0  0  0  0  0  0
  188.9870  177.9160  138.5980 N   0  0  0  0  0  0  0  0  0  0  0  0
  190.1840  176.2620  137.3500 C   0  0  1  0  0  3  0  0  0  0  0  0
  189.6850  177.6860  137.3300 C   0  0  0  0  0  2  0  0  0  0  0  0
  189.9060  176.7800  143.3190 C   0  0  2  0  0  0  0  0  0  0  0  0
  187.7440  177.5590  142.1820 C   0  0  0  0  0  1  0  0  0  0  0  0
  189.0640  176.8030  142.0230 C   0  0  1  0  0  3  0  0  0  0  0  0
  191.3370  178.0290  144.7890 C   0  0  0  0  0  2  0  0  0  0  0  0
  191.3970  177.3010  140.9760 C   0  0  0  0  0  2  0  0  0  0  0  0
  190.8440  177.9880  143.3630 C   0  0  2  0  0  0  0  0  0  0  0  0
  190.1430  179.1640  143.1290 F   0  0  0  0  0  0  0  0  0  0  0  0
  190.6700  175.4510  143.3510 C   0  0  0  0  0  1  0  0  0  0  0  0
  191.9440  177.8700  142.3080 C   0  0  0  0  0  2  0  0  0  0  0  0
  190.1440  177.5390  145.6130 C   0  0  2  0  0  3  0  0  0  0  0  0
  189.8570  177.3960  140.8310 C   0  0  1  0  0  3  0  0  0  0  0  0
  190.5860  176.5910  146.5420 O   0  0  0  0  0  1  0  0  0  0  0  0
  189.1510  176.8860  144.6380 C   0  0  0  0  0  2  0  0  0  0  0  0
  191.4110  176.1340  136.5610 C   0  0  0  0  0  0  0  0  0  0  0  0
  192.3920  176.0280  135.8720 C   0  0  0  0  0  0  0  0  0  0  0  0
  193.5560  175.9120  134.9880 C   0  0  0  0  0  2  0  0  0  0  0  0
  193.8420  173.5820  134.6380 O   0  0  0  0  0  0  0  0  0  0  0  0
  194.2530  174.6120  135.2330 C   0  0  0  0  0  0  0  0  0  0  0  0
  195.4030  174.5140  136.1540 C   0  0  0  0  0  0  0  0  0  0  0  0
  196.3710  174.3070  138.4590 C   0  0  0  0  0  0  0  0  0  0  0  0
  197.6840  174.5590  137.8540 C   0  0  0  0  0  0  0  0  0  0  0  0
  197.7730  174.7640  136.5460 C   0  0  0  0  0  3  0  0  0  0  0  0
  196.2640  174.1830  139.7140 O   0  0  0  0  0  0  0  0  0  0  0  0
  198.9180  174.6000  138.6860 C   0  0  0  0  0  1  0  0  0  0  0  0
  196.6060  174.7650  135.7160 N   0  0  0  0  0  0  0  0  0  0  0  0
  195.1540  174.1420  137.5960 C   0  0  0  0  0  2  0  0  0  0  0  0
  186.9410  178.7260  139.4320 O   0  0  0  0  0  1  0  0  0  0  0  0
  187.5220  177.9450  138.4310 C   0  0  1  0  0  3  0  0  0  0  0  0
  187.1770  179.5440  136.7210 O   0  0  0  0  0  0  0  0  0  0  0  0
  187.0510  178.3770  137.0590 C   0  0  0  0  0  0  0  0  0  0  0  0
  186.4110  177.4040  136.1110 C   0  0  0  0  0  2  0  0  0  0  0  0
  184.5000  176.2260  137.2520 C   0  0  0  0  0  0  0  0  0  0  0  0
  183.5880  177.3820  137.0010 C   0  0  0  0  0  1  0  0  0  0  0  0
  185.8680  176.2480  136.8170 N   0  0  0  0  0  0  0  0  0  0  0  0
  184.0460  175.2200  137.8610 O   0  0  0  0  0  0  0  0  0  0  0  0
  186.7380  175.1040  137.0640 C   0  0  0  0  0  2  0  0  0  0  0  0
  187.2040  174.5120  135.7400 C   0  0  0  0  0  2  0  0  0  0  0  0
  188.2000  173.4030  136.0110 C   0  0  0  0  0  1  0  0  0  0  0  0
  1  2  1  6  0  0  0
  1 16  1  0  0  0  0
  3  1  1  0  0  0  0
  4 19  1  6  0  0  0
  4  2  1  0  0  0  0
  5  4  1  0  0  0  0
  5  3  1  0  0  0  0
  6 13  1  1  0  0  0
  6 11  1  0  0  0  0
  6 18  1  0  0  0  0
  8  7  1  1  0  0  0
  8  6  1  0  0  0  0
  9 15  1  0  0  0  0
 10 14  1  0  0  0  0
 11 12  1  6  0  0  0
 11  9  1  0  0  0  0
 14 11  1  0  0  0  0
 15 17  1  1  0  0  0
 16 10  1  1  0  0  0
 16  8  1  0  0  0  0
 18 15  1  0  0  0  0
 20 19  3  0  0  0  0
 21 23  1  0  0  0  0
 21 20  1  0  0  0  0
 22 23  2  0  0  0  0
 23 24  1  0  0  0  0
 24 31  1  0  0  0  0
 25 28  2  0  0  0  0
 26 25  1  0  0  0  0
 26 29  1  0  0  0  0
 27 26  2  0  0  0  0
 30 24  2  0  0  0  0
 30 27  1  0  0  0  0
 31 25  1  0  0  0  0
 33  3  1  0  0  0  0
 33 32  1  1  0  0  0
 34 35  2  0  0  0  0
 35 33  1  0  0  0  0
 36 39  1  0  0  0  0
 36 35  1  0  0  0  0
 37 40  2  0  0  0  0
 38 37  1  0  0  0  0
 39 41  1  0  0  0  0
 39 37  1  0  0  0  0
 42 43  1  0  0  0  0
 42 41  1  0  0  0  0
M  END
>  <MODEL>
3

>  <REMARK>
 VINA RESULT:      -7.6      2.841      8.630
  Name = 
  11 active torsions:
  status: ('A' for Active; 'I' for Inactive)
    1  A    between atoms: C_1  and  C_38
    2  A    between atoms: C_4  and  C_33
    3  A    between atoms: C_5  and  C_35
    4  A    between atoms: C_5  and  C_38
    5  A    between atoms: C_9  and  C_30
    6  A    between atoms: N_20  and  C_37
    7  A    between atoms: C_22  and  C_37
    8  A    between atoms: C_22  and  C_40
    9  A    between atoms: C_24  and  N_27
   10  A    between atoms: C_24  and  C_29
   11  A    between atoms: N_27  and  C_40
                            x       y       z     vdW  Elec       q    Type
                         _______ _______ _______ _____ _____    ______ ____

>  <TORSDO>
F 11

$$$$
=
 OpenBabel10222421373D

 43 46  0  0  1  0  0  0  0  0999 V2000
  189.6040  176.8450  139.7650 C   0  0  2  0  0  3  0  0  0  0  0  0
  190.7260  176.0440  139.1260 C   0  0  0  0  0  2  0  0  0  0  0  0
  189.2420  177.9290  138.8480 N   0  0  0  0  0  0  0  0  0  0  0  0
  190.5390  176.3080  137.6570 C   0  0  1  0  0  3  0  0  0  0  0  0
  190.0060  177.7200  137.6150 C   0  0  0  0  0  2  0  0  0  0  0  0
  189.9940  176.7880  143.6030 C   0  0  2  0  0  0  0  0  0  0  0  0
  187.8470  177.4830  142.3860 C   0  0  0  0  0  1  0  0  0  0  0  0
  189.2040  176.7870  142.2740 C   0  0  1  0  0  3  0  0  0  0  0  0
  191.3100  178.0850  145.1390 C   0  0  0  0  0  2  0  0  0  0  0  0
  191.5530  177.3960  141.3250 C   0  0  0  0  0  2  0  0  0  0  0  0
  190.8750  178.0360  143.6930 C   0  0  2  0  0  0  0  0  0  0  0  0
  190.1340  179.1830  143.4400 F   0  0  0  0  0  0  0  0  0  0  0  0
  190.8130  175.4940  143.6560 C   0  0  0  0  0  1  0  0  0  0  0  0
  192.0210  177.9760  142.6830 C   0  0  0  0  0  2  0  0  0  0  0  0
  190.1080  177.5360  145.9100 C   0  0  2  0  0  3  0  0  0  0  0  0
  190.0170  177.4250  141.1200 C   0  0  1  0  0  3  0  0  0  0  0  0
  190.5530  176.6000  146.8490 O   0  0  0  0  0  1  0  0  0  0  0  0
  189.1840  176.8500  144.8910 C   0  0  0  0  0  2  0  0  0  0  0  0
  191.8050  176.2130  136.9270 C   0  0  0  0  0  0  0  0  0  0  0  0
  192.8380  176.0860  136.3240 C   0  0  0  0  0  0  0  0  0  0  0  0
  194.0830  175.8800  135.5770 C   0  0  0  0  0  2  0  0  0  0  0  0
  194.2180  173.5310  135.8800 O   0  0  0  0  0  0  0  0  0  0  0  0
  194.7710  174.6460  136.0640 C   0  0  0  0  0  0  0  0  0  0  0  0
  196.0760  174.7100  136.7530 C   0  0  0  0  0  0  0  0  0  0  0  0
  198.5840  174.6920  136.7330 C   0  0  0  0  0  0  0  0  0  0  0  0
  198.5250  174.6160  138.1970 C   0  0  0  0  0  0  0  0  0  0  0  0
  197.3460  174.5850  138.8040 C   0  0  0  0  0  3  0  0  0  0  0  0
  199.7010  174.6480  136.1390 O   0  0  0  0  0  0  0  0  0  0  0  0
  199.7690  174.5600  139.0140 C   0  0  0  0  0  1  0  0  0  0  0  0
  196.1260  174.6050  138.0530 N   0  0  0  0  0  0  0  0  0  0  0  0
  197.3290  174.8770  135.9290 C   0  0  0  0  0  2  0  0  0  0  0  0
  187.1450  178.7420  139.5420 O   0  0  0  0  0  1  0  0  0  0  0  0
  187.7870  177.9210  138.6120 C   0  0  1  0  0  3  0  0  0  0  0  0
  187.3510  179.4460  136.8550 O   0  0  0  0  0  0  0  0  0  0  0  0
  187.3750  178.2740  137.1980 C   0  0  0  0  0  0  0  0  0  0  0  0
  186.9740  177.2130  136.2140 C   0  0  0  0  0  2  0  0  0  0  0  0
  186.2520  174.9320  137.0010 C   0  0  0  0  0  0  0  0  0  0  0  0
  187.5900  174.3550  136.6720 C   0  0  0  0  0  1  0  0  0  0  0  0
  185.9640  176.3200  136.7730 N   0  0  0  0  0  0  0  0  0  0  0  0
  185.3690  174.1740  137.4840 O   0  0  0  0  0  0  0  0  0  0  0  0
  184.6550  176.8650  137.1110 C   0  0  0  0  0  2  0  0  0  0  0  0
  183.7430  176.8170  135.8920 C   0  0  0  0  0  2  0  0  0  0  0  0
  182.4350  177.5090  136.2170 C   0  0  0  0  0  1  0  0  0  0  0  0
  1  2  1  6  0  0  0
  1 16  1  0  0  0  0
  3  1  1  0  0  0  0
  4 19  1  6  0  0  0
  4  2  1  0  0  0  0
  5  4  1  0  0  0  0
  5  3  1  0  0  0  0
  6 13  1  1  0  0  0
  6 11  1  0  0  0  0
  6 18  1  0  0  0  0
  8  7  1  1  0  0  0
  8  6  1  0  0  0  0
  9 15  1  0  0  0  0
 10 14  1  0  0  0  0
 11 12  1  6  0  0  0
 11  9  1  0  0  0  0
 14 11  1  0  0  0  0
 15 17  1  1  0  0  0
 16 10  1  1  0  0  0
 16  8  1  0  0  0  0
 18 15  1  0  0  0  0
 20 19  3  0  0  0  0
 21 23  1  0  0  0  0
 21 20  1  0  0  0  0
 22 23  2  0  0  0  0
 23 24  1  0  0  0  0
 24 30  2  0  0  0  0
 25 26  1  0  0  0  0
 26 27  2  0  0  0  0
 26 29  1  0  0  0  0
 28 25  2  0  0  0  0
 30 27  1  0  0  0  0
 31 25  1  0  0  0  0
 31 24  1  0  0  0  0
 33  3  1  0  0  0  0
 33 32  1  1  0  0  0
 34 35  2  0  0  0  0
 35 33  1  0  0  0  0
 36 39  1  0  0  0  0
 36 35  1  0  0  0  0
 37 40  2  0  0  0  0
 38 37  1  0  0  0  0
 39 37  1  0  0  0  0
 39 41  1  0  0  0  0
 42 43  1  0  0  0  0
 42 41  1  0  0  0  0
M  END
>  <MODEL>
4

>  <REMARK>
 VINA RESULT:      -7.5      2.890      9.154
  Name = 
  11 active torsions:
  status: ('A' for Active; 'I' for Inactive)
    1  A    between atoms: C_1  and  C_38
    2  A    between atoms: C_4  and  C_33
    3  A    between atoms: C_5  and  C_35
    4  A    between atoms: C_5  and  C_38
    5  A    between atoms: C_9  and  C_30
    6  A    between atoms: N_20  and  C_37
    7  A    between atoms: C_22  and  C_37
    8  A    between atoms: C_22  and  C_40
    9  A    between atoms: C_24  and  N_27
   10  A    between atoms: C_24  and  C_29
   11  A    between atoms: N_27  and  C_40
                            x       y       z     vdW  Elec       q    Type
                         _______ _______ _______ _____ _____    ______ ____

>  <TORSDO>
F 11

$$$$
=
 OpenBabel10222421373D

 43 46  0  0  1  0  0  0  0  0999 V2000
  185.4340  178.4040  137.7950 C   0  0  2  0  0  3  0  0  0  0  0  0
  186.9010  178.2390  137.4320 C   0  0  0  0  0  2  0  0  0  0  0  0
  185.3030  178.2270  139.2430 N   0  0  0  0  0  0  0  0  0  0  0  0
  187.6090  178.5860  138.7130 C   0  0  1  0  0  3  0  0  0  0  0  0
  186.6590  178.1080  139.7850 C   0  0  0  0  0  2  0  0  0  0  0  0
  183.4370  175.1180  137.4710 C   0  0  2  0  0  0  0  0  0  0  0  0
  185.9610  175.3130  137.0620 C   0  0  0  0  0  1  0  0  0  0  0  0
  184.7140  175.9690  137.6560 C   0  0  1  0  0  3  0  0  0  0  0  0
  181.7450  174.3700  135.9400 C   0  0  0  0  0  2  0  0  0  0  0  0
  183.0800  177.8730  136.9520 C   0  0  0  0  0  2  0  0  0  0  0  0
  182.7460  175.4790  136.1550 C   0  0  2  0  0  0  0  0  0  0  0  0
  183.6470  175.4390  135.0980 F   0  0  0  0  0  0  0  0  0  0  0  0
  182.5360  175.3640  138.6860 C   0  0  0  0  0  1  0  0  0  0  0  0
  182.1440  176.8830  136.2160 C   0  0  0  0  0  2  0  0  0  0  0  0
  182.4320  173.1280  136.5100 C   0  0  2  0  0  3  0  0  0  0  0  0
  184.5480  177.3920  137.0630 C   0  0  1  0  0  3  0  0  0  0  0  0
  181.5280  172.4320  137.3180 O   0  0  0  0  0  1  0  0  0  0  0  0
  183.6210  173.6100  137.3570 C   0  0  0  0  0  2  0  0  0  0  0  0
  188.8960  177.8970  138.8200 C   0  0  0  0  0  0  0  0  0  0  0  0
  189.9520  177.3370  138.9560 C   0  0  0  0  0  0  0  0  0  0  0  0
  191.2310  176.6530  139.1760 C   0  0  0  0  0  2  0  0  0  0  0  0
  193.0670  177.8110  140.1350 O   0  0  0  0  0  0  0  0  0  0  0  0
  191.9470  177.2720  140.3330 C   0  0  0  0  0  0  0  0  0  0  0  0
  191.3710  177.2600  141.6930 C   0  0  0  0  0  0  0  0  0  0  0  0
  189.5780  176.6140  143.3230 C   0  0  0  0  0  0  0  0  0  0  0  0
  190.2430  177.4900  144.2940 C   0  0  0  0  0  0  0  0  0  0  0  0
  191.3370  178.1510  143.9380 C   0  0  0  0  0  3  0  0  0  0  0  0
  188.4940  176.0360  143.6280 O   0  0  0  0  0  0  0  0  0  0  0  0
  189.7030  177.6600  145.6720 C   0  0  0  0  0  1  0  0  0  0  0  0
  191.8690  178.0410  142.6130 N   0  0  0  0  0  0  0  0  0  0  0  0
  190.2000  176.3520  141.9820 C   0  0  0  0  0  2  0  0  0  0  0  0
  184.3350  180.3350  138.8460 O   0  0  0  0  0  1  0  0  0  0  0  0
  184.5680  179.3660  139.8240 C   0  0  1  0  0  3  0  0  0  0  0  0
  182.2300  179.4880  140.1750 O   0  0  0  0  0  0  0  0  0  0  0  0
  183.2860  178.9910  140.5360 C   0  0  0  0  0  0  0  0  0  0  0  0
  183.2870  178.0370  141.6970 C   0  0  0  0  0  2  0  0  0  0  0  0
  182.6490  178.9530  143.9550 C   0  0  0  0  0  0  0  0  0  0  0  0
  181.2300  178.5260  143.7680 C   0  0  0  0  0  1  0  0  0  0  0  0
  183.6380  178.7120  142.9430 N   0  0  0  0  0  0  0  0  0  0  0  0
  182.9690  179.5370  145.0250 O   0  0  0  0  0  0  0  0  0  0  0  0
  185.0200  179.1280  143.1490 C   0  0  0  0  0  2  0  0  0  0  0  0
  185.8390  177.9600  143.6840 C   0  0  0  0  0  2  0  0  0  0  0  0
  186.1180  178.1770  145.1570 C   0  0  0  0  0  1  0  0  0  0  0  0
  1  2  1  6  0  0  0
  1  3  1  0  0  0  0
  2  4  1  0  0  0  0
  3  5  1  0  0  0  0
  3 33  1  0  0  0  0
  4 19  1  6  0  0  0
  4  5  1  0  0  0  0
  6  8  1  0  0  0  0
  6 13  1  1  0  0  0
  8  7  1  6  0  0  0
  9 11  1  0  0  0  0
  9 15  1  0  0  0  0
 11 12  1  6  0  0  0
 11 14  1  0  0  0  0
 11  6  1  0  0  0  0
 14 10  1  0  0  0  0
 15 17  1  1  0  0  0
 15 18  1  0  0  0  0
 16 10  1  1  0  0  0
 16  8  1  0  0  0  0
 16  1  1  0  0  0  0
 18  6  1  0  0  0  0
 19 20  3  0  0  0  0
 20 21  1  0  0  0  0
 21 23  1  0  0  0  0
 22 23  2  0  0  0  0
 23 24  1  0  0  0  0
 24 31  1  0  0  0  0
 24 30  2  0  0  0  0
 25 28  2  0  0  0  0
 25 26  1  0  0  0  0
 26 29  1  0  0  0  0
 27 26  2  0  0  0  0
 30 27  1  0  0  0  0
 31 25  1  0  0  0  0
 33 32  1  6  0  0  0
 33 35  1  0  0  0  0
 34 35  2  0  0  0  0
 35 36  1  0  0  0  0
 36 39  1  0  0  0  0
 37 40  2  0  0  0  0
 38 37  1  0  0  0  0
 39 41  1  0  0  0  0
 39 37  1  0  0  0  0
 41 42  1  0  0  0  0
 42 43  1  0  0  0  0
M  END
>  <MODEL>
5

>  <REMARK>
 VINA RESULT:      -7.4      3.355      9.728
  Name = 
  11 active torsions:
  status: ('A' for Active; 'I' for Inactive)
    1  A    between atoms: C_1  and  C_38
    2  A    between atoms: C_4  and  C_33
    3  A    between atoms: C_5  and  C_35
    4  A    between atoms: C_5  and  C_38
    5  A    between atoms: C_9  and  C_30
    6  A    between atoms: N_20  and  C_37
    7  A    between atoms: C_22  and  C_37
    8  A    between atoms: C_22  and  C_40
    9  A    between atoms: C_24  and  N_27
   10  A    between atoms: C_24  and  C_29
   11  A    between atoms: N_27  and  C_40
                            x       y       z     vdW  Elec       q    Type
                         _______ _______ _______ _____ _____    ______ ____

>  <TORSDO>
F 11

$$$$
=
 OpenBabel10222421373D

 43 46  0  0  1  0  0  0  0  0999 V2000
  191.5950  176.7800  137.5310 C   0  0  2  0  0  3  0  0  0  0  0  0
  192.1070  176.8500  138.9610 C   0  0  0  0  0  2  0  0  0  0  0  0
  190.1410  176.6070  137.5770 N   0  0  0  0  0  0  0  0  0  0  0  0
  190.9040  177.3270  139.7290 C   0  0  1  0  0  3  0  0  0  0  0  0
  189.7410  176.7180  138.9830 C   0  0  0  0  0  2  0  0  0  0  0  0
  194.4060  174.2670  136.7120 C   0  0  2  0  0  0  0  0  0  0  0  0
  194.3220  176.6710  135.8230 C   0  0  0  0  0  1  0  0  0  0  0  0
  193.7790  175.6740  136.8470 C   0  0  1  0  0  3  0  0  0  0  0  0
  194.4650  172.2250  135.4490 C   0  0  0  0  0  2  0  0  0  0  0  0
  191.6100  174.2570  137.1210 C   0  0  0  0  0  2  0  0  0  0  0  0
  193.5800  173.4110  135.7500 C   0  0  2  0  0  0  0  0  0  0  0  0
  193.3610  174.0830  134.5540 F   0  0  0  0  0  0  0  0  0  0  0  0
  194.4810  173.6560  138.1150 C   0  0  0  0  0  1  0  0  0  0  0  0
  192.2210  173.0580  136.3550 C   0  0  0  0  0  2  0  0  0  0  0  0
  195.8820  172.8020  135.4590 C   0  0  2  0  0  3  0  0  0  0  0  0
  192.2330  175.6270  136.7530 C   0  0  1  0  0  3  0  0  0  0  0  0
  196.7140  171.9640  136.2070 O   0  0  0  0  0  1  0  0  0  0  0  0
  195.8080  174.1870  136.1210 C   0  0  0  0  0  2  0  0  0  0  0  0
  190.9300  176.8570  141.1150 C   0  0  0  0  0  0  0  0  0  0  0  0
  190.9060  176.4870  142.2600 C   0  0  0  0  0  0  0  0  0  0  0  0
  190.8220  176.0440  143.6550 C   0  0  0  0  0  2  0  0  0  0  0  0
  191.6010  177.9690  144.8040 O   0  0  0  0  0  0  0  0  0  0  0  0
  190.6200  177.2220  144.5520 C   0  0  0  0  0  0  0  0  0  0  0  0
  189.3020  177.5220  145.1480 C   0  0  0  0  0  0  0  0  0  0  0  0
  187.7720  177.7340  147.1240 C   0  0  0  0  0  0  0  0  0  0  0  0
  186.6730  177.9010  146.1660 C   0  0  0  0  0  0  0  0  0  0  0  0
  186.9270  177.8640  144.8640 C   0  0  0  0  0  3  0  0  0  0  0  0
  187.5300  177.6950  148.3660 O   0  0  0  0  0  0  0  0  0  0  0  0
  185.2720  178.0990  146.6310 C   0  0  0  0  0  1  0  0  0  0  0  0
  188.2560  177.6430  144.3770 N   0  0  0  0  0  0  0  0  0  0  0  0
  189.1930  177.6640  146.6470 C   0  0  0  0  0  2  0  0  0  0  0  0
  189.6560  177.2990  135.3810 O   0  0  0  0  0  1  0  0  0  0  0  0
  189.4880  177.6210  136.7290 C   0  0  1  0  0  3  0  0  0  0  0  0
  187.6520  179.0080  137.2870 O   0  0  0  0  0  0  0  0  0  0  0  0
  188.0300  177.8700  137.0530 C   0  0  0  0  0  0  0  0  0  0  0  0
  187.0410  176.7420  137.1160 C   0  0  0  0  0  2  0  0  0  0  0  0
  184.6350  177.1800  136.5140 C   0  0  0  0  0  0  0  0  0  0  0  0
  184.2610  177.3170  137.9540 C   0  0  0  0  0  1  0  0  0  0  0  0
  185.9860  176.9000  136.1200 N   0  0  0  0  0  0  0  0  0  0  0  0
  183.7360  177.3140  135.6410 O   0  0  0  0  0  0  0  0  0  0  0  0
  186.3310  176.7810  134.7080 C   0  0  0  0  0  2  0  0  0  0  0  0
  186.7780  175.3570  134.4020 C   0  0  0  0  0  2  0  0  0  0  0  0
  185.6970  174.3890  134.8380 C   0  0  0  0  0  1  0  0  0  0  0  0
  1  3  1  0  0  0  0
  1  2  1  1  0  0  0
  2  4  1  0  0  0  0
  3  5  1  0  0  0  0
  4 19  1  1  0  0  0
  5  4  1  0  0  0  0
  6  8  1  0  0  0  0
  6 13  1  1  0  0  0
  8  7  1  6  0  0  0
  9 15  1  0  0  0  0
  9 11  1  0  0  0  0
 11 12  1  6  0  0  0
 11 14  1  0  0  0  0
 11  6  1  0  0  0  0
 14 10  1  0  0  0  0
 15 18  1  0  0  0  0
 15 17  1  1  0  0  0
 16  8  1  0  0  0  0
 16 10  1  1  0  0  0
 16  1  1  0  0  0  0
 18  6  1  0  0  0  0
 19 20  3  0  0  0  0
 20 21  1  0  0  0  0
 21 23  1  0  0  0  0
 23 22  2  0  0  0  0
 23 24  1  0  0  0  0
 24 31  1  0  0  0  0
 25 28  2  0  0  0  0
 26 29  1  0  0  0  0
 26 25  1  0  0  0  0
 27 26  2  0  0  0  0
 30 27  1  0  0  0  0
 30 24  2  0  0  0  0
 31 25  1  0  0  0  0
 33 32  1  6  0  0  0
 33 35  1  0  0  0  0
 33  3  1  0  0  0  0
 35 36  1  0  0  0  0
 35 34  2  0  0  0  0
 37 38  1  0  0  0  0
 39 37  1  0  0  0  0
 39 36  1  0  0  0  0
 40 37  2  0  0  0  0
 41 39  1  0  0  0  0
 42 41  1  0  0  0  0
 42 43  1  0  0  0  0
M  END
>  <MODEL>
6

>  <REMARK>
 VINA RESULT:      -7.4      3.123      8.029
  Name = 
  11 active torsions:
  status: ('A' for Active; 'I' for Inactive)
    1  A    between atoms: C_1  and  C_38
    2  A    between atoms: C_4  and  C_33
    3  A    between atoms: C_5  and  C_35
    4  A    between atoms: C_5  and  C_38
    5  A    between atoms: C_9  and  C_30
    6  A    between atoms: N_20  and  C_37
    7  A    between atoms: C_22  and  C_37
    8  A    between atoms: C_22  and  C_40
    9  A    between atoms: C_24  and  N_27
   10  A    between atoms: C_24  and  C_29
   11  A    between atoms: N_27  and  C_40
                            x       y       z     vdW  Elec       q    Type
                         _______ _______ _______ _____ _____    ______ ____

>  <TORSDO>
F 11

$$$$
=
 OpenBabel10222421373D

 43 46  0  0  1  0  0  0  0  0999 V2000
  189.6250  177.3660  136.9410 C   0  0  2  0  0  3  0  0  0  0  0  0
  190.8670  176.6610  136.4210 C   0  0  0  0  0  2  0  0  0  0  0  0
  189.5130  177.0870  138.3750 N   0  0  0  0  0  0  0  0  0  0  0  0
  191.7250  176.5350  137.6490 C   0  0  1  0  0  3  0  0  0  0  0  0
  190.7240  176.3620  138.7660 C   0  0  0  0  0  2  0  0  0  0  0  0
  185.9970  176.0640  136.7640 C   0  0  2  0  0  0  0  0  0  0  0  0
  188.0490  174.5620  137.0930 C   0  0  0  0  0  1  0  0  0  0  0  0
  187.4970  175.9870  137.1300 C   0  0  1  0  0  3  0  0  0  0  0  0
  184.3680  175.9770  135.0000 C   0  0  0  0  0  2  0  0  0  0  0  0
  187.5850  178.0750  135.5730 C   0  0  0  0  0  2  0  0  0  0  0  0
  185.8300  176.2600  135.2560 C   0  0  2  0  0  0  0  0  0  0  0  0
  186.5680  175.3170  134.5510 F   0  0  0  0  0  0  0  0  0  0  0  0
  185.3810  177.2120  137.5710 C   0  0  0  0  0  1  0  0  0  0  0  0
  186.2960  177.6510  134.8260 C   0  0  0  0  0  2  0  0  0  0  0  0
  184.0170  174.8790  136.0060 C   0  0  2  0  0  3  0  0  0  0  0  0
  188.3590  176.8980  136.2190 C   0  0  1  0  0  3  0  0  0  0  0  0
  182.8140  175.2040  136.6400 O   0  0  0  0  0  1  0  0  0  0  0  0
  185.1520  174.8270  137.0420 C   0  0  0  0  0  2  0  0  0  0  0  0
  192.6130  175.3730  137.5680 C   0  0  0  0  0  0  0  0  0  0  0  0
  193.3040  174.3900  137.5090 C   0  0  0  0  0  0  0  0  0  0  0  0
  194.1000  173.1600  137.4360 C   0  0  0  0  0  2  0  0  0  0  0  0
  195.6530  173.3520  139.2190 O   0  0  0  0  0  0  0  0  0  0  0  0
  195.4710  173.4080  137.9760 C   0  0  0  0  0  0  0  0  0  0  0  0
  196.6070  173.7190  137.0840 C   0  0  0  0  0  0  0  0  0  0  0  0
  198.9430  173.3120  136.2660 C   0  0  0  0  0  0  0  0  0  0  0  0
  198.8070  174.5450  135.4810 C   0  0  0  0  0  0  0  0  0  0  0  0
  197.6790  175.2400  135.5430 C   0  0  0  0  0  3  0  0  0  0  0  0
  200.0400  172.6810  136.2710 O   0  0  0  0  0  0  0  0  0  0  0  0
  199.9210  175.0370  134.6240 C   0  0  0  0  0  1  0  0  0  0  0  0
  196.5960  174.8180  136.3810 N   0  0  0  0  0  0  0  0  0  0  0  0
  197.7710  172.7600  137.0240 C   0  0  0  0  0  2  0  0  0  0  0  0
  188.9910  179.3790  138.2490 O   0  0  0  0  0  1  0  0  0  0  0  0
  189.3520  178.3500  139.1200 C   0  0  1  0  0  3  0  0  0  0  0  0
  187.2160  178.0550  140.0960 O   0  0  0  0  0  0  0  0  0  0  0  0
  188.4010  178.2710  140.2960 C   0  0  0  0  0  0  0  0  0  0  0  0
  188.8820  178.4770  141.7040 C   0  0  0  0  0  2  0  0  0  0  0  0
  190.3760  176.6210  142.5220 C   0  0  0  0  0  0  0  0  0  0  0  0
  191.5820  177.2890  141.9490 C   0  0  0  0  0  1  0  0  0  0  0  0
  189.0710  177.2050  142.3950 N   0  0  0  0  0  0  0  0  0  0  0  0
  190.5210  175.5220  143.1220 O   0  0  0  0  0  0  0  0  0  0  0  0
  187.9070  176.5410  142.9700 C   0  0  0  0  0  2  0  0  0  0  0  0
  187.1950  177.4820  143.9320 C   0  0  0  0  0  2  0  0  0  0  0  0
  187.9830  177.5670  145.2240 C   0  0  0  0  0  1  0  0  0  0  0  0
  1  2  1  6  0  0  0
  1  3  1  0  0  0  0
  2  4  1  0  0  0  0
  3  5  1  0  0  0  0
  3 33  1  0  0  0  0
  4 19  1  6  0  0  0
  4  5  1  0  0  0  0
  6 18  1  0  0  0  0
  6  8  1  0  0  0  0
  6 13  1  1  0  0  0
  8  7  1  6  0  0  0
  9 11  1  0  0  0  0
  9 15  1  0  0  0  0
 11 12  1  6  0  0  0
 11  6  1  0  0  0  0
 14 11  1  0  0  0  0
 14 10  1  0  0  0  0
 15 17  1  1  0  0  0
 15 18  1  0  0  0  0
 16 10  1  1  0  0  0
 16  1  1  0  0  0  0
 16  8  1  0  0  0  0
 20 19  3  0  0  0  0
 21 20  1  0  0  0  0
 21 23  1  0  0  0  0
 23 22  2  0  0  0  0
 24 23  1  0  0  0  0
 25 28  2  0  0  0  0
 25 31  1  0  0  0  0
 26 27  2  0  0  0  0
 26 25  1  0  0  0  0
 27 30  1  0  0  0  0
 29 26  1  0  0  0  0
 30 24  2  0  0  0  0
 31 24  1  0  0  0  0
 33 32  1  6  0  0  0
 33 35  1  0  0  0  0
 34 35  2  0  0  0  0
 35 36  1  0  0  0  0
 36 39  1  0  0  0  0
 37 40  2  0  0  0  0
 38 37  1  0  0  0  0
 39 37  1  0  0  0  0
 39 41  1  0  0  0  0
 41 42  1  0  0  0  0
 42 43  1  0  0  0  0
M  END
>  <MODEL>
7

>  <REMARK>
 VINA RESULT:      -7.2      3.444     10.763
  Name = 
  11 active torsions:
  status: ('A' for Active; 'I' for Inactive)
    1  A    between atoms: C_1  and  C_38
    2  A    between atoms: C_4  and  C_33
    3  A    between atoms: C_5  and  C_35
    4  A    between atoms: C_5  and  C_38
    5  A    between atoms: C_9  and  C_30
    6  A    between atoms: N_20  and  C_37
    7  A    between atoms: C_22  and  C_37
    8  A    between atoms: C_22  and  C_40
    9  A    between atoms: C_24  and  N_27
   10  A    between atoms: C_24  and  C_29
   11  A    between atoms: N_27  and  C_40
                            x       y       z     vdW  Elec       q    Type
                         _______ _______ _______ _____ _____    ______ ____

>  <TORSDO>
F 11

$$$$
=
 OpenBabel10222421373D

 43 46  0  0  1  0  0  0  0  0999 V2000
  190.4830  177.6340  139.1990 C   0  0  2  0  0  3  0  0  0  0  0  0
  189.0700  177.5320  138.6490 C   0  0  0  0  0  2  0  0  0  0  0  0
  191.1670  176.3670  138.9310 N   0  0  0  0  0  0  0  0  0  0  0  0
  189.1980  176.4850  137.5760 C   0  0  1  0  0  3  0  0  0  0  0  0
  190.2630  175.5580  138.1090 C   0  0  0  0  0  2  0  0  0  0  0  0
  189.2160  177.2570  142.8240 C   0  0  2  0  0  0  0  0  0  0  0  0
  188.1910  178.8560  141.1020 C   0  0  0  0  0  1  0  0  0  0  0  0
  189.1020  177.6500  141.3330 C   0  0  1  0  0  3  0  0  0  0  0  0
  190.1700  177.7980  144.9610 C   0  0  0  0  0  2  0  0  0  0  0  0
  191.6720  177.2290  141.4260 C   0  0  0  0  0  2  0  0  0  0  0  0
  190.3820  178.0000  143.4790 C   0  0  2  0  0  0  0  0  0  0  0  0
  190.3010  179.3640  143.2280 F   0  0  0  0  0  0  0  0  0  0  0  0
  189.3870  175.7350  142.8900 C   0  0  0  0  0  1  0  0  0  0  0  0
  191.7240  177.4960  142.9500 C   0  0  0  0  0  2  0  0  0  0  0  0
  188.6490  177.7870  145.1250 C   0  0  2  0  0  3  0  0  0  0  0  0
  190.4910  177.9240  140.7020 C   0  0  1  0  0  3  0  0  0  0  0  0
  188.2820  176.7140  145.9410 O   0  0  0  0  0  1  0  0  0  0  0  0
  188.0390  177.6070  143.7250 C   0  0  0  0  0  2  0  0  0  0  0  0
  187.9400  175.7640  137.3750 C   0  0  0  0  0  0  0  0  0  0  0  0
  186.8840  175.2140  137.2020 C   0  0  0  0  0  0  0  0  0  0  0  0
  185.5760  174.5910  136.9710 C   0  0  0  0  0  2  0  0  0  0  0  0
  184.0590  175.8180  135.6200 O   0  0  0  0  0  0  0  0  0  0  0  0
  184.5370  175.6470  136.7710 C   0  0  0  0  0  0  0  0  0  0  0  0
  184.0670  176.4890  137.8900 C   0  0  0  0  0  0  0  0  0  0  0  0
  184.2540  178.5180  139.3520 C   0  0  0  0  0  0  0  0  0  0  0  0
  183.2160  177.9170  140.1980 C   0  0  0  0  0  0  0  0  0  0  0  0
  182.7110  176.7330  139.8740 C   0  0  0  0  0  3  0  0  0  0  0  0
  184.7940  179.6110  139.6910 O   0  0  0  0  0  0  0  0  0  0  0  0
  182.7280  178.6080  141.4240 C   0  0  0  0  0  1  0  0  0  0  0  0
  183.1770  176.0210  138.7220 N   0  0  0  0  0  0  0  0  0  0  0  0
  184.6460  177.8740  138.0550 C   0  0  0  0  0  2  0  0  0  0  0  0
  193.4600  176.8190  139.2080 O   0  0  0  0  0  1  0  0  0  0  0  0
  192.4540  176.6230  138.2600 C   0  0  1  0  0  3  0  0  0  0  0  0
  192.7170  175.8020  136.0550 O   0  0  0  0  0  0  0  0  0  0  0  0
  192.8570  175.5730  137.2460 C   0  0  0  0  0  0  0  0  0  0  0  0
  193.4050  174.2420  137.6770 C   0  0  0  0  0  2  0  0  0  0  0  0
  194.4640  172.8160  135.8920 C   0  0  0  0  0  0  0  0  0  0  0  0
  193.1790  172.0920  135.6560 C   0  0  0  0  0  1  0  0  0  0  0  0
  194.5620  173.8560  136.8760 N   0  0  0  0  0  0  0  0  0  0  0  0
  195.4730  172.4940  135.2090 O   0  0  0  0  0  0  0  0  0  0  0  0
  195.8240  174.5570  137.0840 C   0  0  0  0  0  2  0  0  0  0  0  0
  196.5620  173.9540  138.2720 C   0  0  0  0  0  2  0  0  0  0  0  0
  197.9320  174.5920  138.3860 C   0  0  0  0  0  1  0  0  0  0  0  0
  1  2  1  1  0  0  0
  1 16  1  0  0  0  0
  3  1  1  0  0  0  0
  4 19  1  1  0  0  0
  4  5  1  0  0  0  0
  4  2  1  0  0  0  0
  5  3  1  0  0  0  0
  6 13  1  1  0  0  0
  6 11  1  0  0  0  0
  6 18  1  0  0  0  0
  8  7  1  1  0  0  0
  8  6  1  0  0  0  0
  9 15  1  0  0  0  0
 10 14  1  0  0  0  0
 11 12  1  6  0  0  0
 11  9  1  0  0  0  0
 14 11  1  0  0  0  0
 15 17  1  1  0  0  0
 16  8  1  0  0  0  0
 16 10  1  1  0  0  0
 18 15  1  0  0  0  0
 20 19  3  0  0  0  0
 21 20  1  0  0  0  0
 22 23  2  0  0  0  0
 23 21  1  0  0  0  0
 23 24  1  0  0  0  0
 24 31  1  0  0  0  0
 24 30  2  0  0  0  0
 25 28  2  0  0  0  0
 25 26  1  0  0  0  0
 26 29  1  0  0  0  0
 27 26  2  0  0  0  0
 30 27  1  0  0  0  0
 31 25  1  0  0  0  0
 33  3  1  0  0  0  0
 33 32  1  1  0  0  0
 34 35  2  0  0  0  0
 35 36  1  0  0  0  0
 35 33  1  0  0  0  0
 37 39  1  0  0  0  0
 38 37  1  0  0  0  0
 39 41  1  0  0  0  0
 39 36  1  0  0  0  0
 40 37  2  0  0  0  0
 41 42  1  0  0  0  0
 42 43  1  0  0  0  0
M  END
>  <MODEL>
8

>  <REMARK>
 VINA RESULT:      -7.2      2.138      3.102
  Name = 
  11 active torsions:
  status: ('A' for Active; 'I' for Inactive)
    1  A    between atoms: C_1  and  C_38
    2  A    between atoms: C_4  and  C_33
    3  A    between atoms: C_5  and  C_35
    4  A    between atoms: C_5  and  C_38
    5  A    between atoms: C_9  and  C_30
    6  A    between atoms: N_20  and  C_37
    7  A    between atoms: C_22  and  C_37
    8  A    between atoms: C_22  and  C_40
    9  A    between atoms: C_24  and  N_27
   10  A    between atoms: C_24  and  C_29
   11  A    between atoms: N_27  and  C_40
                            x       y       z     vdW  Elec       q    Type
                         _______ _______ _______ _____ _____    ______ ____

>  <TORSDO>
F 11

$$$$
=
 OpenBabel10222421373D

 43 46  0  0  1  0  0  0  0  0999 V2000
  189.1120  177.5970  139.3640 C   0  0  2  0  0  3  0  0  0  0  0  0
  187.7930  178.3520  139.3840 C   0  0  0  0  0  2  0  0  0  0  0  0
  188.9960  176.5070  138.3920 N   0  0  0  0  0  0  0  0  0  0  0  0
  187.2160  178.0640  138.0250 C   0  0  1  0  0  3  0  0  0  0  0  0
  187.7040  176.6690  137.7190 C   0  0  0  0  0  2  0  0  0  0  0  0
  190.5900  177.7740  142.9230 C   0  0  2  0  0  0  0  0  0  0  0  0
  191.9670  177.2800  140.8170 C   0  0  0  0  0  1  0  0  0  0  0  0
  190.6470  177.8090  141.3790 C   0  0  1  0  0  3  0  0  0  0  0  0
  190.3330  176.4010  144.8770 C   0  0  0  0  0  2  0  0  0  0  0  0
  188.2230  176.8930  141.6550 C   0  0  0  0  0  2  0  0  0  0  0  0
  190.0170  176.4380  143.4010 C   0  0  2  0  0  0  0  0  0  0  0  0
  190.6840  175.3740  142.8050 F   0  0  0  0  0  0  0  0  0  0  0  0
  189.7430  178.9660  143.3830 C   0  0  0  0  0  1  0  0  0  0  0  0
  188.5320  176.3220  143.0610 C   0  0  0  0  0  2  0  0  0  0  0  0
  191.6790  177.1180  144.9920 C   0  0  2  0  0  3  0  0  0  0  0  0
  189.4670  177.0320  140.7410 C   0  0  1  0  0  3  0  0  0  0  0  0
  191.6240  178.0350  146.0460 O   0  0  0  0  0  1  0  0  0  0  0  0
  191.9160  177.8620  143.6680 C   0  0  0  0  0  2  0  0  0  0  0  0
  185.7530  178.1070  138.0410 C   0  0  0  0  0  0  0  0  0  0  0  0
  184.5530  178.1820  138.0820 C   0  0  0  0  0  0  0  0  0  0  0  0
  183.0950  178.3240  138.1530 C   0  0  0  0  0  2  0  0  0  0  0  0
  182.0920  180.3400  138.9000 O   0  0  0  0  0  0  0  0  0  0  0  0
  182.7300  179.3040  139.2200 C   0  0  0  0  0  0  0  0  0  0  0  0
  183.1040  179.0840  140.6320 C   0  0  0  0  0  0  0  0  0  0  0  0
  182.5130  178.8440  143.0580 C   0  0  0  0  0  0  0  0  0  0  0  0
  183.9520  178.8770  143.3390 C   0  0  0  0  0  0  0  0  0  0  0  0
  184.8130  179.0080  142.3370 C   0  0  0  0  0  3  0  0  0  0  0  0
  181.6810  178.7930  144.0100 O   0  0  0  0  0  0  0  0  0  0  0  0
  184.4650  178.7780  144.7340 C   0  0  0  0  0  1  0  0  0  0  0  0
  184.3580  179.1390  140.9850 N   0  0  0  0  0  0  0  0  0  0  0  0
  182.0140  178.8160  141.6420 C   0  0  0  0  0  2  0  0  0  0  0  0
  190.8980  177.6960  137.6780 O   0  0  0  0  0  1  0  0  0  0  0  0
  190.1280  176.5540  137.4480 C   0  0  1  0  0  3  0  0  0  0  0  0
  191.1690  174.6910  138.4700 O   0  0  0  0  0  0  0  0  0  0  0  0
  190.9890  175.3090  137.4330 C   0  0  0  0  0  0  0  0  0  0  0  0
  191.6470  174.8300  136.1700 C   0  0  0  0  0  2  0  0  0  0  0  0
  193.8390  173.5980  136.3160 C   0  0  0  0  0  0  0  0  0  0  0  0
  193.1460  172.2780  136.2190 C   0  0  0  0  0  1  0  0  0  0  0  0
  193.1010  174.8290  136.2930 N   0  0  0  0  0  0  0  0  0  0  0  0
  195.0940  173.6150  136.4230 O   0  0  0  0  0  0  0  0  0  0  0  0
  193.7980  176.1070  136.3790 C   0  0  0  0  0  2  0  0  0  0  0  0
  194.1980  176.5740  134.9850 C   0  0  0  0  0  2  0  0  0  0  0  0
  195.4110  177.4770  135.0880 C   0  0  0  0  0  1  0  0  0  0  0  0
  1  2  1  1  0  0  0
  1 16  1  0  0  0  0
  3  1  1  0  0  0  0
  4 19  1  1  0  0  0
  4  2  1  0  0  0  0
  5  4  1  0  0  0  0
  5  3  1  0  0  0  0
  6 13  1  1  0  0  0
  6 11  1  0  0  0  0
  6 18  1  0  0  0  0
  8  7  1  1  0  0  0
  8  6  1  0  0  0  0
  9 15  1  0  0  0  0
 10 14  1  0  0  0  0
 11 12  1  6  0  0  0
 11  9  1  0  0  0  0
 14 11  1  0  0  0  0
 15 17  1  1  0  0  0
 16  8  1  0  0  0  0
 16 10  1  1  0  0  0
 18 15  1  0  0  0  0
 19 20  3  0  0  0  0
 20 21  1  0  0  0  0
 21 23  1  0  0  0  0
 22 23  2  0  0  0  0
 23 24  1  0  0  0  0
 24 30  2  0  0  0  0
 24 31  1  0  0  0  0
 25 26  1  0  0  0  0
 25 28  2  0  0  0  0
 26 29  1  0  0  0  0
 27 26  2  0  0  0  0
 30 27  1  0  0  0  0
 31 25  1  0  0  0  0
 33 32  1  1  0  0  0
 33  3  1  0  0  0  0
 35 33  1  0  0  0  0
 35 34  2  0  0  0  0
 36 39  1  0  0  0  0
 36 35  1  0  0  0  0
 37 40  2  0  0  0  0
 38 37  1  0  0  0  0
 39 37  1  0  0  0  0
 39 41  1  0  0  0  0
 42 43  1  0  0  0  0
 42 41  1  0  0  0  0
M  END
>  <MODEL>
9

>  <REMARK>
 VINA RESULT:      -7.1      1.496      2.321
  Name = 
  11 active torsions:
  status: ('A' for Active; 'I' for Inactive)
    1  A    between atoms: C_1  and  C_38
    2  A    between atoms: C_4  and  C_33
    3  A    between atoms: C_5  and  C_35
    4  A    between atoms: C_5  and  C_38
    5  A    between atoms: C_9  and  C_30
    6  A    between atoms: N_20  and  C_37
    7  A    between atoms: C_22  and  C_37
    8  A    between atoms: C_22  and  C_40
    9  A    between atoms: C_24  and  N_27
   10  A    between atoms: C_24  and  C_29
   11  A    between atoms: N_27  and  C_40
                            x       y       z     vdW  Elec       q    Type
                         _______ _______ _______ _____ _____    ______ ____

>  <TORSDO>
F 11

$$$$
