=
 OpenBabel10232409513D

 59 62  0  0  1  0  0  0  0  0999 V2000
  188.3110  178.3810  140.5450 C   0  0  0  0  0  2  0  0  0  0  0  0
  189.2820  177.4060  142.6430 C   0  0  0  0  0  3  0  0  0  0  0  0
  186.8600  177.6190  142.5340 C   0  0  0  0  0  2  0  0  0  0  0  0
  188.1380  177.5140  143.3240 C   0  0  0  0  0  0  0  0  0  0  0  0
  189.2590  177.3300  141.1430 C   0  0  2  0  0  3  0  0  0  0  0  0
  187.0310  178.6130  141.3740 C   0  0  2  0  0  3  0  0  0  0  0  0
  188.1060  177.6070  144.8110 C   0  0  0  0  0  0  0  0  0  0  0  0
  185.7860  178.6690  144.8810 C   0  0  0  0  0  1  0  0  0  0  0  0
  189.2390  177.1660  145.5100 C   0  0  0  0  0  3  0  0  0  0  0  0
  185.9880  178.6430  147.6940 O   0  0  0  0  0  1  0  0  0  0  0  0
  187.0050  178.1140  145.5520 C   0  0  0  0  0  0  0  0  0  0  0  0
  187.0640  178.1480  146.9580 C   0  0  0  0  0  0  0  0  0  0  0  0
  188.2490  177.7300  149.0190 O   0  0  0  0  0  1  0  0  0  0  0  0
  188.2040  177.6910  147.6300 C   0  0  0  0  0  0  0  0  0  0  0  0
  189.2980  177.2030  146.9090 C   0  0  0  0  0  0  0  0  0  0  0  0
  191.6930  176.5770  146.9680 C   0  0  0  0  0  1  0  0  0  0  0  0
  190.4310  176.7600  147.6000 O   0  0  0  0  0  0  0  0  0  0  0  0
  185.9130  178.5760  140.5390 O   0  0  0  0  0  0  0  0  0  0  0  0
  184.9320  179.3120  141.2140 C   0  0  0  0  0  2  0  0  0  0  0  0
  183.8460  178.3860  141.7360 C   0  0  0  0  0  2  0  0  0  0  0  0
  182.6040  178.6270  141.0180 N   0  0  0  0  0  2  0  0  0  0  0  0
  182.5180  177.6170  139.9760 C   0  0  0  0  0  2  0  0  0  0  0  0
  181.3670  177.9250  139.0680 C   0  0  0  0  0  0  0  0  0  0  0  0
  180.2650  178.1500  139.5430 O   0  0  0  0  0  0  0  0  0  0  0  0
  181.5390  177.9540  137.5790 C   0  0  1  0  0  3  0  0  0  0  0  0
  182.0210  176.6700  137.0850 N   0  0  0  0  0  2  0  0  0  0  0  0
  183.3970  176.4270  136.7800 C   0  0  0  0  0  0  0  0  0  0  0  0
  184.2670  177.3150  136.9760 O   0  0  0  0  0  0  0  0  0  0  0  0
  183.8120  175.0920  136.2610 C   0  0  0  0  0  2  0  0  0  0  0  0
  186.2190  174.4590  136.4400 C   0  0  0  0  0  1  0  0  0  0  0  0
  184.4820  173.0510  137.4920 C   0  0  0  0  0  1  0  0  0  0  0  0
  184.8790  174.4730  137.1530 C   0  0  0  0  0  3  0  0  0  0  0  0
  180.2440  178.3090  136.9090 C   0  0  0  0  0  3  0  0  0  0  0  0
  179.9840  179.5320  136.4220 C   0  0  0  0  0  3  0  0  0  0  0  0
  180.9510  180.6740  136.5120 C   0  0  1  0  0  3  0  0  0  0  0  0
  180.7180  181.6280  135.3810 C   0  0  0  0  0  2  0  0  0  0  0  0
  180.3950  182.8970  136.0060 N   0  0  0  0  0  2  0  0  0  0  0  0
  180.8130  182.7930  137.3470 N   0  0  0  0  0  2  0  0  0  0  0  0
  180.7020  181.4400  137.7180 N   0  0  0  0  0  2  0  0  0  0  0  0
  190.5470  177.5040  140.6360 O   0  0  0  0  0  0  0  0  0  0  0  0
  190.6350  176.6050  139.5690 C   0  0  0  0  0  2  0  0  0  0  0  0
  192.9790  176.9510  139.7300 O   0  0  0  0  0  1  0  0  0  0  0  0
  191.9350  176.8310  138.8090 C   0  0  1  0  0  3  0  0  0  0  0  0
  192.2210  175.6730  137.8450 C   0  0  1  0  0  3  0  0  0  0  0  0
  191.6690  175.9560  136.5920 O   0  0  0  0  0  1  0  0  0  0  0  0
  193.7270  175.4320  137.6850 C   0  0  2  0  0  3  0  0  0  0  0  0
  194.9370  176.9350  136.2470 O   0  0  0  0  0  1  0  0  0  0  0  0
  194.1900  175.7540  136.2650 C   0  0  0  0  0  2  0  0  0  0  0  0
  194.0680  174.1100  137.9990 O   0  0  0  0  0  0  0  0  0  0  0  0
  195.3050  173.8920  137.3800 C   0  0  2  0  0  3  0  0  0  0  0  0
  193.2140  172.4510  135.7660 O   0  0  0  0  0  1  0  0  0  0  0  0
  194.1180  170.3930  136.5630 C   0  0  0  0  0  2  0  0  0  0  0  0
  196.3300  170.2860  136.9670 C   0  0  0  0  0  2  0  0  0  0  0  0
  195.3360  172.5530  136.7650 N   0  0  0  0  0  0  0  0  0  0  0  0
  196.3420  171.7420  137.4620 C   0  0  0  0  0  2  0  0  0  0  0  0
  195.3550  170.0800  135.9730 O   0  0  0  0  0  0  0  0  0  0  0  0
  194.0060  171.9080  136.7760 C   0  0  1  0  0  3  0  0  0  0  0  0
  196.4370  174.1470  138.3790 C   0  0  0  0  0  2  0  0  0  0  0  0
  195.9170  174.3980  139.6500 O   0  0  0  0  0  1  0  0  0  0  0  0
  1  5  1  0  0  0  0
  1  6  1  0  0  0  0
  2  4  2  0  0  0  0
  3  4  1  0  0  0  0
  4  7  1  0  0  0  0
  5 40  1  6  0  0  0
  5  2  1  0  0  0  0
  6 18  1  6  0  0  0
  6  3  1  0  0  0  0
  7  9  2  0  0  0  0
  7 11  1  0  0  0  0
  8 11  1  0  0  0  0
  9 15  1  0  0  0  0
 11 12  2  0  0  0  0
 12 14  1  0  0  0  0
 12 10  1  0  0  0  0
 14 13  1  0  0  0  0
 15 17  1  0  0  0  0
 15 14  2  0  0  0  0
 16 17  1  0  0  0  0
 18 19  1  0  0  0  0
 19 20  1  0  0  0  0
 21 20  1  0  0  0  0
 22 21  1  0  0  0  0
 23 24  2  0  0  0  0
 23 22  1  0  0  0  0
 25 33  1  6  0  0  0
 25 23  1  0  0  0  0
 26 25  1  0  0  0  0
 27 28  2  0  0  0  0
 27 26  1  0  0  0  0
 29 27  1  0  0  0  0
 29 32  1  0  0  0  0
 30 32  1  0  0  0  0
 32 31  1  0  0  0  0
 34 33  2  0  0  0  0
 35 34  1  6  0  0  0
 35 39  1  0  0  0  0
 36 37  1  0  0  0  0
 36 35  1  0  0  0  0
 37 38  1  0  0  0  0
 38 39  1  0  0  0  0
 41 40  1  0  0  0  0
 43 41  1  0  0  0  0
 43 42  1  1  0  0  0
 44 45  1  6  0  0  0
 44 43  1  0  0  0  0
 46 48  1  6  0  0  0
 46 44  1  0  0  0  0
 46 49  1  0  0  0  0
 47 48  1  0  0  0  0
 50 49  1  0  0  0  0
 50 58  1  1  0  0  0
 52 57  1  0  0  0  0
 53 55  1  0  0  0  0
 54 57  1  0  0  0  0
 54 50  1  0  0  0  0
 54 55  1  0  0  0  0
 56 52  1  0  0  0  0
 56 53  1  0  0  0  0
 57 51  1  6  0  0  0
 58 59  1  0  0  0  0
M  END
>  <MODEL>
1

>  <REMARK>
 VINA RESULT:      -7.0      0.000      0.000
  Name = 
  24 active torsions:
  status: ('A' for Active; 'I' for Inactive)
    1  A    between atoms: C_3  and  C_17
    2  A    between atoms: C_6  and  N_24
    3  A    between atoms: C_6  and  C_48
    4  A    between atoms: C_7  and  C_56
    5  A    between atoms: N_10  and  C_43
    6  A    between atoms: C_12  and  C_16
    7  A    between atoms: C_13  and  C_32
    8  A    between atoms: C_14  and  N_24
    9  A    between atoms: C_14  and  C_55
   10  A    between atoms: O_15  and  C_48
   11  A    between atoms: O_15  and  C_52
   12  A    between atoms: C_16  and  O_29
   13  A    between atoms: C_16  and  N_34
   14  A    between atoms: C_21  and  C_33
   15  A    between atoms: C_21  and  C_46
   16  A    between atoms: O_23  and  C_31
   17  A    between atoms: O_23  and  C_40
   18  A    between atoms: O_29  and  C_33
   19  A    between atoms: C_31  and  C_46
   20  A    between atoms: C_32  and  C_58
   21  A    between atoms: C_33  and  C_35
   22  A    between atoms: C_38  and  C_43
   23  A    between atoms: C_43  and  C_55
   24  A    between atoms: C_45  and  O_49
                            x       y       z     vdW  Elec       q    Type
                         _______ _______ _______ _____ _____    ______ ____

>  <TORSDO>
F 24

$$$$
=
 OpenBabel10232409513D

 59 62  0  0  1  0  0  0  0  0999 V2000
  185.1700  178.3550  141.1880 C   0  0  0  0  0  2  0  0  0  0  0  0
  185.5860  178.3950  143.6620 C   0  0  0  0  0  3  0  0  0  0  0  0
  187.4700  178.9100  142.2090 C   0  0  0  0  0  2  0  0  0  0  0  0
  186.9150  178.4280  143.5230 C   0  0  0  0  0  0  0  0  0  0  0  0
  184.7030  178.8880  142.5520 C   0  0  2  0  0  3  0  0  0  0  0  0
  186.7030  178.2710  141.0400 C   0  0  2  0  0  3  0  0  0  0  0  0
  187.8350  177.9380  144.5880 C   0  0  0  0  0  0  0  0  0  0  0  0
  186.1220  178.2220  146.4590 C   0  0  0  0  0  1  0  0  0  0  0  0
  189.1390  177.5880  144.2060 C   0  0  0  0  0  3  0  0  0  0  0  0
  188.0580  177.1870  148.2290 O   0  0  0  0  0  1  0  0  0  0  0  0
  187.4700  177.8070  145.9550 C   0  0  0  0  0  0  0  0  0  0  0  0
  188.4060  177.3190  146.8860 C   0  0  0  0  0  0  0  0  0  0  0  0
  190.6130  176.4890  147.4030 O   0  0  0  0  0  1  0  0  0  0  0  0
  189.6970  176.9690  146.4740 C   0  0  0  0  0  0  0  0  0  0  0  0
  190.0710  177.1060  145.1330 C   0  0  0  0  0  0  0  0  0  0  0  0
  191.6580  175.5860  143.9900 C   0  0  0  0  0  1  0  0  0  0  0  0
  191.3690  176.7590  144.7440 O   0  0  0  0  0  0  0  0  0  0  0  0
  187.0940  178.8510  139.8330 O   0  0  0  0  0  0  0  0  0  0  0  0
  187.6030  177.7930  139.0700 C   0  0  0  0  0  2  0  0  0  0  0  0
  188.9870  177.4070  139.5650 C   0  0  0  0  0  2  0  0  0  0  0  0
  189.9750  177.6780  138.5320 N   0  0  0  0  0  2  0  0  0  0  0  0
  189.9380  176.5560  137.6090 C   0  0  0  0  0  2  0  0  0  0  0  0
  191.3170  175.9960  137.4380 C   0  0  0  0  0  0  0  0  0  0  0  0
  192.2460  176.7450  137.1770 O   0  0  0  0  0  0  0  0  0  0  0  0
  191.5810  174.5270  137.5750 C   0  0  1  0  0  3  0  0  0  0  0  0
  190.3330  173.7760  137.6300 N   0  0  0  0  0  2  0  0  0  0  0  0
  189.5580  173.4800  136.4650 C   0  0  0  0  0  0  0  0  0  0  0  0
  189.9570  173.8230  135.3220 O   0  0  0  0  0  0  0  0  0  0  0  0
  188.2810  172.7230  136.6020 C   0  0  0  0  0  2  0  0  0  0  0  0
  185.9990  173.4430  137.3100 C   0  0  0  0  0  1  0  0  0  0  0  0
  186.5410  173.2120  134.9090 C   0  0  0  0  0  1  0  0  0  0  0  0
  187.0890  173.6080  136.2650 C   0  0  0  0  0  3  0  0  0  0  0  0
  192.4250  174.0380  136.4350 C   0  0  0  0  0  3  0  0  0  0  0  0
  193.7120  173.6870  136.5760 C   0  0  0  0  0  3  0  0  0  0  0  0
  194.4460  173.7620  137.8820 C   0  0  1  0  0  3  0  0  0  0  0  0
  195.5410  172.7400  137.9090 C   0  0  0  0  0  2  0  0  0  0  0  0
  196.7680  173.4940  138.0910 N   0  0  0  0  0  2  0  0  0  0  0  0
  196.3820  174.7690  138.5450 N   0  0  0  0  0  2  0  0  0  0  0  0
  195.1130  175.0430  138.0020 N   0  0  0  0  0  2  0  0  0  0  0  0
  183.3820  178.5070  142.7880 O   0  0  0  0  0  0  0  0  0  0  0  0
  182.7050  178.8170  141.6040 C   0  0  0  0  0  2  0  0  0  0  0  0
  180.8990  179.4140  143.0280 O   0  0  0  0  0  1  0  0  0  0  0  0
  181.2010  178.7480  141.8370 C   0  0  1  0  0  3  0  0  0  0  0  0
  180.4320  179.3850  140.6740 C   0  0  1  0  0  3  0  0  0  0  0  0
  180.2290  180.7450  140.9300 O   0  0  0  0  0  1  0  0  0  0  0  0
  181.1890  179.2350  139.3480 C   0  0  2  0  0  3  0  0  0  0  0  0
  182.4930  181.0450  138.4470 O   0  0  0  0  0  1  0  0  0  0  0  0
  181.1940  180.5450  138.5630 C   0  0  0  0  0  2  0  0  0  0  0  0
  180.6360  178.2180  138.5580 O   0  0  0  0  0  0  0  0  0  0  0  0
  181.5920  177.1960  138.5520 C   0  0  2  0  0  3  0  0  0  0  0  0
  181.0200  176.9730  135.6070 O   0  0  0  0  0  1  0  0  0  0  0  0
  183.2800  176.2810  135.2920 C   0  0  0  0  0  2  0  0  0  0  0  0
  184.8540  177.1250  136.6620 C   0  0  0  0  0  2  0  0  0  0  0  0
  182.4930  177.3490  137.3960 N   0  0  0  0  0  0  0  0  0  0  0  0
  183.8720  177.1210  137.8450 C   0  0  0  0  0  2  0  0  0  0  0  0
  184.1960  177.3370  135.4360 O   0  0  0  0  0  0  0  0  0  0  0  0
  182.1220  176.4510  136.2830 C   0  0  1  0  0  3  0  0  0  0  0  0
  180.8960  175.8340  138.6250 C   0  0  0  0  0  2  0  0  0  0  0  0
  180.8440  175.3830  139.9450 O   0  0  0  0  0  1  0  0  0  0  0  0
  1  5  1  0  0  0  0
  3  4  1  0  0  0  0
  4  2  2  0  0  0  0
  4  7  1  0  0  0  0
  5 40  1  1  0  0  0
  5  2  1  0  0  0  0
  6 18  1  6  0  0  0
  6  1  1  0  0  0  0
  6  3  1  0  0  0  0
  7 11  1  0  0  0  0
  9  7  2  0  0  0  0
  9 15  1  0  0  0  0
 11  8  1  0  0  0  0
 11 12  2  0  0  0  0
 12 10  1  0  0  0  0
 14 12  1  0  0  0  0
 14 13  1  0  0  0  0
 15 14  2  0  0  0  0
 16 17  1  0  0  0  0
 17 15  1  0  0  0  0
 19 20  1  0  0  0  0
 19 18  1  0  0  0  0
 21 20  1  0  0  0  0
 22 21  1  0  0  0  0
 23 25  1  0  0  0  0
 23 22  1  0  0  0  0
 24 23  2  0  0  0  0
 25 33  1  6  0  0  0
 25 26  1  0  0  0  0
 27 29  1  0  0  0  0
 27 26  1  0  0  0  0
 28 27  2  0  0  0  0
 31 32  1  0  0  0  0
 32 29  1  0  0  0  0
 32 30  1  0  0  0  0
 33 34  2  0  0  0  0
 35 34  1  6  0  0  0
 35 36  1  0  0  0  0
 35 39  1  0  0  0  0
 36 37  1  0  0  0  0
 37 38  1  0  0  0  0
 39 38  1  0  0  0  0
 41 43  1  0  0  0  0
 41 40  1  0  0  0  0
 43 42  1  1  0  0  0
 44 45  1  1  0  0  0
 44 43  1  0  0  0  0
 46 48  1  6  0  0  0
 46 44  1  0  0  0  0
 47 48  1  0  0  0  0
 49 46  1  0  0  0  0
 50 49  1  0  0  0  0
 50 58  1  6  0  0  0
 52 56  1  0  0  0  0
 52 57  1  0  0  0  0
 53 55  1  0  0  0  0
 54 55  1  0  0  0  0
 54 50  1  0  0  0  0
 56 53  1  0  0  0  0
 57 51  1  6  0  0  0
 57 54  1  0  0  0  0
 58 59  1  0  0  0  0
M  END
>  <MODEL>
2

>  <REMARK>
 VINA RESULT:      -7.0      2.457     10.163
  Name = 
  24 active torsions:
  status: ('A' for Active; 'I' for Inactive)
    1  A    between atoms: C_3  and  C_17
    2  A    between atoms: C_6  and  N_24
    3  A    between atoms: C_6  and  C_48
    4  A    between atoms: C_7  and  C_56
    5  A    between atoms: N_10  and  C_43
    6  A    between atoms: C_12  and  C_16
    7  A    between atoms: C_13  and  C_32
    8  A    between atoms: C_14  and  N_24
    9  A    between atoms: C_14  and  C_55
   10  A    between atoms: O_15  and  C_48
   11  A    between atoms: O_15  and  C_52
   12  A    between atoms: C_16  and  O_29
   13  A    between atoms: C_16  and  N_34
   14  A    between atoms: C_21  and  C_33
   15  A    between atoms: C_21  and  C_46
   16  A    between atoms: O_23  and  C_31
   17  A    between atoms: O_23  and  C_40
   18  A    between atoms: O_29  and  C_33
   19  A    between atoms: C_31  and  C_46
   20  A    between atoms: C_32  and  C_58
   21  A    between atoms: C_33  and  C_35
   22  A    between atoms: C_38  and  C_43
   23  A    between atoms: C_43  and  C_55
   24  A    between atoms: C_45  and  O_49
                            x       y       z     vdW  Elec       q    Type
                         _______ _______ _______ _____ _____    ______ ____

>  <TORSDO>
F 24

$$$$
=
 OpenBabel10232409513D

 59 62  0  0  1  0  0  0  0  0999 V2000
  189.5230  177.1910  138.2970 C   0  0  0  0  0  2  0  0  0  0  0  0
  188.2220  178.3460  140.1040 C   0  0  0  0  0  3  0  0  0  0  0  0
  190.3730  177.3900  140.7210 C   0  0  0  0  0  2  0  0  0  0  0  0
  188.9900  177.8610  141.0840 C   0  0  0  0  0  0  0  0  0  0  0  0
  188.7680  178.4640  138.7110 C   0  0  2  0  0  3  0  0  0  0  0  0
  190.3280  176.5410  139.4410 C   0  0  2  0  0  3  0  0  0  0  0  0
  188.4920  177.7100  142.4800 C   0  0  0  0  0  0  0  0  0  0  0  0
  190.7690  177.0370  143.4190 C   0  0  0  0  0  1  0  0  0  0  0  0
  187.1250  177.9310  142.7070 C   0  0  0  0  0  3  0  0  0  0  0  0
  189.5530  176.9080  145.9590 O   0  0  0  0  0  1  0  0  0  0  0  0
  189.3150  177.3580  143.5840 C   0  0  0  0  0  0  0  0  0  0  0  0
  188.7540  177.2540  144.8700 C   0  0  0  0  0  0  0  0  0  0  0  0
  186.8460  177.3840  146.3440 O   0  0  0  0  0  1  0  0  0  0  0  0
  187.3880  177.4900  145.0680 C   0  0  0  0  0  0  0  0  0  0  0  0
  186.5670  177.8250  143.9870 C   0  0  0  0  0  0  0  0  0  0  0  0
  184.6970  179.2750  144.7180 C   0  0  0  0  0  1  0  0  0  0  0  0
  185.2030  178.0480  144.2050 O   0  0  0  0  0  0  0  0  0  0  0  0
  191.6230  176.2560  139.0050 O   0  0  0  0  0  0  0  0  0  0  0  0
  191.4610  175.3150  137.9800 C   0  0  0  0  0  2  0  0  0  0  0  0
  192.4340  175.5980  136.8480 C   0  0  0  0  0  2  0  0  0  0  0  0
  191.9500  174.9950  135.6170 N   0  0  0  0  0  2  0  0  0  0  0  0
  193.0820  174.3190  135.0050 C   0  0  0  0  0  2  0  0  0  0  0  0
  193.2280  172.9480  135.5900 C   0  0  0  0  0  0  0  0  0  0  0  0
  192.2370  172.2560  135.7660 O   0  0  0  0  0  0  0  0  0  0  0  0
  194.5730  172.4070  135.9740 C   0  0  1  0  0  3  0  0  0  0  0  0
  194.4450  171.1130  136.6340 N   0  0  0  0  0  2  0  0  0  0  0  0
  195.0890  170.8130  137.8750 C   0  0  0  0  0  0  0  0  0  0  0  0
  195.7650  171.6870  138.4790 O   0  0  0  0  0  0  0  0  0  0  0  0
  194.9270  169.4600  138.4810 C   0  0  0  0  0  2  0  0  0  0  0  0
  197.2330  169.0030  137.6420 C   0  0  0  0  0  1  0  0  0  0  0  0
  195.2690  168.1430  136.4110 C   0  0  0  0  0  1  0  0  0  0  0  0
  195.8270  168.4460  137.7860 C   0  0  0  0  0  3  0  0  0  0  0  0
  195.4520  172.2820  134.7640 C   0  0  0  0  0  3  0  0  0  0  0  0
  196.4040  173.1760  134.4570 C   0  0  0  0  0  3  0  0  0  0  0  0
  196.6780  174.3990  135.2800 C   0  0  1  0  0  3  0  0  0  0  0  0
  197.3700  174.0120  136.5500 C   0  0  0  0  0  2  0  0  0  0  0  0
  198.6380  174.7190  136.5300 N   0  0  0  0  0  2  0  0  0  0  0  0
  198.5080  175.7310  135.5610 N   0  0  0  0  0  2  0  0  0  0  0  0
  197.6080  175.2660  134.5840 N   0  0  0  0  0  2  0  0  0  0  0  0
  187.7330  178.7210  137.8110 O   0  0  0  0  0  0  0  0  0  0  0  0
  187.4700  177.4870  137.2080 C   0  0  0  0  0  2  0  0  0  0  0  0
  187.2750  178.0650  134.9130 O   0  0  0  0  0  1  0  0  0  0  0  0
  186.5270  177.6800  136.0280 C   0  0  1  0  0  3  0  0  0  0  0  0
  185.7560  176.3910  135.7190 C   0  0  1  0  0  3  0  0  0  0  0  0
  186.6540  175.3750  135.3760 O   0  0  0  0  0  1  0  0  0  0  0  0
  184.9200  175.9330  136.9200 C   0  0  2  0  0  3  0  0  0  0  0  0
  184.0850  173.7830  137.6070 O   0  0  0  0  0  1  0  0  0  0  0  0
  185.2510  174.4940  137.3090 C   0  0  0  0  0  2  0  0  0  0  0  0
  183.5480  176.0430  136.6570 O   0  0  0  0  0  0  0  0  0  0  0  0
  183.1840  177.3130  137.1210 C   0  0  2  0  0  3  0  0  0  0  0  0
  182.1480  175.9460  139.5930 O   0  0  0  0  0  1  0  0  0  0  0  0
  182.7400  177.8950  140.8330 C   0  0  0  0  0  2  0  0  0  0  0  0
  184.5350  179.0770  140.1680 C   0  0  0  0  0  2  0  0  0  0  0  0
  183.5820  177.4710  138.5310 N   0  0  0  0  0  0  0  0  0  0  0  0
  184.2210  178.7830  138.6910 C   0  0  0  0  0  2  0  0  0  0  0  0
  184.1280  178.0250  141.0090 O   0  0  0  0  0  0  0  0  0  0  0  0
  182.4380  177.3020  139.4510 C   0  0  1  0  0  3  0  0  0  0  0  0
  181.6940  177.5530  136.8620 C   0  0  0  0  0  2  0  0  0  0  0  0
  181.4950  178.8140  136.2980 O   0  0  0  0  0  1  0  0  0  0  0  0
  1  5  1  0  0  0  0
  1  6  1  0  0  0  0
  2  4  2  0  0  0  0
  3  4  1  0  0  0  0
  4  7  1  0  0  0  0
  5 40  1  6  0  0  0
  5  2  1  0  0  0  0
  6 18  1  6  0  0  0
  6  3  1  0  0  0  0
  7  9  2  0  0  0  0
  7 11  1  0  0  0  0
  8 11  1  0  0  0  0
  9 15  1  0  0  0  0
 11 12  2  0  0  0  0
 12 14  1  0  0  0  0
 12 10  1  0  0  0  0
 14 13  1  0  0  0  0
 15 17  1  0  0  0  0
 15 14  2  0  0  0  0
 17 16  1  0  0  0  0
 19 18  1  0  0  0  0
 20 19  1  0  0  0  0
 21 20  1  0  0  0  0
 22 23  1  0  0  0  0
 22 21  1  0  0  0  0
 23 24  2  0  0  0  0
 23 25  1  0  0  0  0
 25 33  1  6  0  0  0
 25 26  1  0  0  0  0
 26 27  1  0  0  0  0
 27 28  2  0  0  0  0
 27 29  1  0  0  0  0
 30 32  1  0  0  0  0
 31 32  1  0  0  0  0
 32 29  1  0  0  0  0
 34 33  2  0  0  0  0
 35 34  1  6  0  0  0
 35 36  1  0  0  0  0
 37 36  1  0  0  0  0
 38 37  1  0  0  0  0
 39 35  1  0  0  0  0
 39 38  1  0  0  0  0
 41 40  1  0  0  0  0
 43 42  1  6  0  0  0
 43 41  1  0  0  0  0
 44 45  1  1  0  0  0
 44 43  1  0  0  0  0
 44 46  1  0  0  0  0
 46 48  1  6  0  0  0
 48 47  1  0  0  0  0
 49 46  1  0  0  0  0
 49 50  1  0  0  0  0
 50 58  1  1  0  0  0
 50 54  1  0  0  0  0
 52 56  1  0  0  0  0
 53 56  1  0  0  0  0
 54 55  1  0  0  0  0
 54 57  1  0  0  0  0
 55 53  1  0  0  0  0
 57 51  1  1  0  0  0
 57 52  1  0  0  0  0
 59 58  1  0  0  0  0
M  END
>  <MODEL>
3

>  <REMARK>
 VINA RESULT:      -6.5      2.388     11.167
  Name = 
  24 active torsions:
  status: ('A' for Active; 'I' for Inactive)
    1  A    between atoms: C_3  and  C_17
    2  A    between atoms: C_6  and  N_24
    3  A    between atoms: C_6  and  C_48
    4  A    between atoms: C_7  and  C_56
    5  A    between atoms: N_10  and  C_43
    6  A    between atoms: C_12  and  C_16
    7  A    between atoms: C_13  and  C_32
    8  A    between atoms: C_14  and  N_24
    9  A    between atoms: C_14  and  C_55
   10  A    between atoms: O_15  and  C_48
   11  A    between atoms: O_15  and  C_52
   12  A    between atoms: C_16  and  O_29
   13  A    between atoms: C_16  and  N_34
   14  A    between atoms: C_21  and  C_33
   15  A    between atoms: C_21  and  C_46
   16  A    between atoms: O_23  and  C_31
   17  A    between atoms: O_23  and  C_40
   18  A    between atoms: O_29  and  C_33
   19  A    between atoms: C_31  and  C_46
   20  A    between atoms: C_32  and  C_58
   21  A    between atoms: C_33  and  C_35
   22  A    between atoms: C_38  and  C_43
   23  A    between atoms: C_43  and  C_55
   24  A    between atoms: C_45  and  O_49
                            x       y       z     vdW  Elec       q    Type
                         _______ _______ _______ _____ _____    ______ ____

>  <TORSDO>
F 24

$$$$
=
 OpenBabel10232409513D

 59 62  0  0  1  0  0  0  0  0999 V2000
  186.2240  178.1820  140.6480 C   0  0  0  0  0  2  0  0  0  0  0  0
  186.3670  177.9520  143.1420 C   0  0  0  0  0  3  0  0  0  0  0  0
  188.3170  178.8510  141.9950 C   0  0  0  0  0  2  0  0  0  0  0  0
  187.6890  178.1480  143.1700 C   0  0  0  0  0  0  0  0  0  0  0  0
  185.5530  178.4830  141.9970 C   0  0  2  0  0  3  0  0  0  0  0  0
  187.7630  178.2850  140.6770 C   0  0  2  0  0  3  0  0  0  0  0  0
  188.5430  177.6300  144.2750 C   0  0  0  0  0  0  0  0  0  0  0  0
  190.4900  177.0270  142.7370 C   0  0  0  0  0  1  0  0  0  0  0  0
  188.0020  177.6370  145.5690 C   0  0  0  0  0  3  0  0  0  0  0  0
  191.8930  176.1900  145.0360 O   0  0  0  0  0  1  0  0  0  0  0  0
  189.8620  177.1340  144.0930 C   0  0  0  0  0  0  0  0  0  0  0  0
  190.5980  176.6790  145.2030 C   0  0  0  0  0  0  0  0  0  0  0  0
  190.7730  176.2540  147.5730 O   0  0  0  0  0  1  0  0  0  0  0  0
  190.0360  176.7070  146.4850 C   0  0  0  0  0  0  0  0  0  0  0  0
  188.7340  177.1810  146.6730 C   0  0  0  0  0  0  0  0  0  0  0  0
  187.6580  178.3690  148.5610 C   0  0  0  0  0  1  0  0  0  0  0  0
  188.1870  177.1920  147.9600 O   0  0  0  0  0  0  0  0  0  0  0  0
  188.2060  179.0530  139.6000 O   0  0  0  0  0  0  0  0  0  0  0  0
  188.7880  178.1350  138.7160 C   0  0  0  0  0  2  0  0  0  0  0  0
  189.3290  176.9390  139.4810 C   0  0  0  0  0  2  0  0  0  0  0  0
  190.7840  176.9620  139.4690 N   0  0  0  0  0  2  0  0  0  0  0  0
  191.1890  177.2700  138.1070 C   0  0  0  0  0  2  0  0  0  0  0  0
  192.3840  176.4470  137.7360 C   0  0  0  0  0  0  0  0  0  0  0  0
  193.4670  176.6890  138.2450 O   0  0  0  0  0  0  0  0  0  0  0  0
  192.2790  175.3290  136.7430 C   0  0  1  0  0  3  0  0  0  0  0  0
  193.5800  174.7150  136.5100 N   0  0  0  0  0  2  0  0  0  0  0  0
  194.4170  175.0730  135.4060 C   0  0  0  0  0  0  0  0  0  0  0  0
  194.0750  175.9830  134.6070 O   0  0  0  0  0  0  0  0  0  0  0  0
  195.7280  174.3870  135.2220 C   0  0  0  0  0  2  0  0  0  0  0  0
  198.0600  175.2240  134.9270 C   0  0  0  0  0  1  0  0  0  0  0  0
  197.2510  174.5620  137.1670 C   0  0  0  0  0  1  0  0  0  0  0  0
  196.8540  175.1960  135.8500 C   0  0  0  0  0  3  0  0  0  0  0  0
  191.3000  174.2960  137.2180 C   0  0  0  0  0  3  0  0  0  0  0  0
  190.2060  173.9500  136.5230 C   0  0  0  0  0  3  0  0  0  0  0  0
  189.8380  174.5710  135.2090 C   0  0  1  0  0  3  0  0  0  0  0  0
  188.8040  173.7310  134.5220 C   0  0  0  0  0  2  0  0  0  0  0  0
  187.6560  174.6010  134.3460 N   0  0  0  0  0  2  0  0  0  0  0  0
  188.1270  175.9160  134.5260 N   0  0  0  0  0  2  0  0  0  0  0  0
  189.2060  175.8560  135.4280 N   0  0  0  0  0  2  0  0  0  0  0  0
  184.2710  177.9340  142.0270 O   0  0  0  0  0  0  0  0  0  0  0  0
  183.5040  178.7730  141.2130 C   0  0  0  0  0  2  0  0  0  0  0  0
  181.6250  178.8910  142.6600 O   0  0  0  0  0  1  0  0  0  0  0  0
  182.0260  178.4580  141.3940 C   0  0  1  0  0  3  0  0  0  0  0  0
  181.1780  179.1430  140.3160 C   0  0  1  0  0  3  0  0  0  0  0  0
  180.7880  180.4110  140.7570 O   0  0  0  0  0  1  0  0  0  0  0  0
  181.9510  179.2880  138.9990 C   0  0  2  0  0  3  0  0  0  0  0  0
  181.0710  180.9440  137.4910 O   0  0  0  0  0  1  0  0  0  0  0  0
  181.9800  180.7420  138.5330 C   0  0  0  0  0  2  0  0  0  0  0  0
  181.3990  178.4850  137.9930 O   0  0  0  0  0  0  0  0  0  0  0  0
  182.2010  177.3380  137.9560 C   0  0  2  0  0  3  0  0  0  0  0  0
  182.2620  177.4640  134.9510 O   0  0  0  0  0  1  0  0  0  0  0  0
  184.4960  176.6350  135.0320 C   0  0  0  0  0  2  0  0  0  0  0  0
  185.7830  177.2100  136.7870 C   0  0  0  0  0  2  0  0  0  0  0  0
  183.3350  177.5400  137.0380 N   0  0  0  0  0  0  0  0  0  0  0  0
  184.5710  177.1600  137.7330 C   0  0  0  0  0  2  0  0  0  0  0  0
  185.4150  177.5970  135.4850 O   0  0  0  0  0  0  0  0  0  0  0  0
  183.1630  176.7920  135.7750 C   0  0  1  0  0  3  0  0  0  0  0  0
  181.3400  176.1140  137.6280 C   0  0  0  0  0  2  0  0  0  0  0  0
  179.9840  176.4330  137.7200 O   0  0  0  0  0  1  0  0  0  0  0  0
  1  6  1  0  0  0  0
  1  5  1  0  0  0  0
  2  4  2  0  0  0  0
  3  4  1  0  0  0  0
  4  7  1  0  0  0  0
  5 40  1  6  0  0  0
  5  2  1  0  0  0  0
  6 18  1  6  0  0  0
  6  3  1  0  0  0  0
  7  9  1  0  0  0  0
  8 11  1  0  0  0  0
  9 15  2  0  0  0  0
 10 12  1  0  0  0  0
 11  7  2  0  0  0  0
 11 12  1  0  0  0  0
 12 14  2  0  0  0  0
 14 15  1  0  0  0  0
 14 13  1  0  0  0  0
 15 17  1  0  0  0  0
 17 16  1  0  0  0  0
 19 20  1  0  0  0  0
 19 18  1  0  0  0  0
 21 20  1  0  0  0  0
 22 21  1  0  0  0  0
 23 22  1  0  0  0  0
 23 24  2  0  0  0  0
 25 33  1  1  0  0  0
 25 23  1  0  0  0  0
 26 25  1  0  0  0  0
 27 26  1  0  0  0  0
 28 27  2  0  0  0  0
 29 27  1  0  0  0  0
 29 32  1  0  0  0  0
 30 32  1  0  0  0  0
 32 31  1  0  0  0  0
 34 33  2  0  0  0  0
 35 39  1  0  0  0  0
 35 34  1  1  0  0  0
 36 35  1  0  0  0  0
 37 36  1  0  0  0  0
 37 38  1  0  0  0  0
 38 39  1  0  0  0  0
 41 43  1  0  0  0  0
 41 40  1  0  0  0  0
 43 42  1  1  0  0  0
 44 45  1  1  0  0  0
 44 43  1  0  0  0  0
 46 48  1  6  0  0  0
 46 44  1  0  0  0  0
 47 48  1  0  0  0  0
 49 46  1  0  0  0  0
 50 58  1  6  0  0  0
 50 49  1  0  0  0  0
 52 56  1  0  0  0  0
 52 57  1  0  0  0  0
 53 55  1  0  0  0  0
 54 55  1  0  0  0  0
 54 50  1  0  0  0  0
 56 53  1  0  0  0  0
 57 51  1  6  0  0  0
 57 54  1  0  0  0  0
 58 59  1  0  0  0  0
M  END
>  <MODEL>
4

>  <REMARK>
 VINA RESULT:      -6.5      2.653      9.895
  Name = 
  24 active torsions:
  status: ('A' for Active; 'I' for Inactive)
    1  A    between atoms: C_3  and  C_17
    2  A    between atoms: C_6  and  N_24
    3  A    between atoms: C_6  and  C_48
    4  A    between atoms: C_7  and  C_56
    5  A    between atoms: N_10  and  C_43
    6  A    between atoms: C_12  and  C_16
    7  A    between atoms: C_13  and  C_32
    8  A    between atoms: C_14  and  N_24
    9  A    between atoms: C_14  and  C_55
   10  A    between atoms: O_15  and  C_48
   11  A    between atoms: O_15  and  C_52
   12  A    between atoms: C_16  and  O_29
   13  A    between atoms: C_16  and  N_34
   14  A    between atoms: C_21  and  C_33
   15  A    between atoms: C_21  and  C_46
   16  A    between atoms: O_23  and  C_31
   17  A    between atoms: O_23  and  C_40
   18  A    between atoms: O_29  and  C_33
   19  A    between atoms: C_31  and  C_46
   20  A    between atoms: C_32  and  C_58
   21  A    between atoms: C_33  and  C_35
   22  A    between atoms: C_38  and  C_43
   23  A    between atoms: C_43  and  C_55
   24  A    between atoms: C_45  and  O_49
                            x       y       z     vdW  Elec       q    Type
                         _______ _______ _______ _____ _____    ______ ____

>  <TORSDO>
F 24

$$$$
=
 OpenBabel10232409513D

 59 62  0  0  1  0  0  0  0  0999 V2000
  192.4130  175.7940  137.1960 C   0  0  0  0  0  2  0  0  0  0  0  0
  193.6860  173.8170  136.3220 C   0  0  0  0  0  3  0  0  0  0  0  0
  194.6550  175.0190  138.2020 C   0  0  0  0  0  2  0  0  0  0  0  0
  194.7950  174.1230  137.0000 C   0  0  0  0  0  0  0  0  0  0  0  0
  192.3510  174.3100  136.8020 C   0  0  2  0  0  3  0  0  0  0  0  0
  193.7340  176.2060  137.8780 C   0  0  2  0  0  3  0  0  0  0  0  0
  196.1450  173.6710  136.5590 C   0  0  0  0  0  0  0  0  0  0  0  0
  196.7700  175.9250  135.5340 C   0  0  0  0  0  1  0  0  0  0  0  0
  196.4940  172.3360  136.8110 C   0  0  0  0  0  3  0  0  0  0  0  0
  199.2760  174.8050  134.8930 O   0  0  0  0  0  1  0  0  0  0  0  0
  197.0870  174.5080  135.9030 C   0  0  0  0  0  0  0  0  0  0  0  0
  198.3450  173.9920  135.5370 C   0  0  0  0  0  0  0  0  0  0  0  0
  199.9150  172.1610  135.4430 O   0  0  0  0  0  1  0  0  0  0  0  0
  198.6700  172.6580  135.8100 C   0  0  0  0  0  0  0  0  0  0  0  0
  197.7450  171.8240  136.4440 C   0  0  0  0  0  0  0  0  0  0  0  0
  197.2960  169.6400  137.5220 C   0  0  0  0  0  1  0  0  0  0  0  0
  198.0860  170.4910  136.6990 O   0  0  0  0  0  0  0  0  0  0  0  0
  193.4600  176.9350  139.0360 O   0  0  0  0  0  0  0  0  0  0  0  0
  192.0880  176.7620  139.2570 C   0  0  0  0  0  2  0  0  0  0  0  0
  191.6880  177.3740  140.5890 C   0  0  0  0  0  2  0  0  0  0  0  0
  190.4380  176.7890  141.0470 N   0  0  0  0  0  2  0  0  0  0  0  0
  189.6280  177.8790  141.5650 C   0  0  0  0  0  2  0  0  0  0  0  0
  188.2470  177.8010  140.9910 C   0  0  0  0  0  0  0  0  0  0  0  0
  188.0990  177.5580  139.8030 O   0  0  0  0  0  0  0  0  0  0  0  0
  187.0360  178.0230  141.8470 C   0  0  1  0  0  3  0  0  0  0  0  0
  187.3960  178.0560  143.2590 N   0  0  0  0  0  2  0  0  0  0  0  0
  187.7760  176.8840  143.9870 C   0  0  0  0  0  0  0  0  0  0  0  0
  187.8620  175.7680  143.4110 O   0  0  0  0  0  0  0  0  0  0  0  0
  188.1130  176.9930  145.4350 C   0  0  0  0  0  2  0  0  0  0  0  0
  189.9520  177.1450  147.1150 C   0  0  0  0  0  1  0  0  0  0  0  0
  190.2400  178.1250  144.8650 C   0  0  0  0  0  1  0  0  0  0  0  0
  189.6210  176.9820  145.6420 C   0  0  0  0  0  3  0  0  0  0  0  0
  186.3500  179.3010  141.4620 C   0  0  0  0  0  3  0  0  0  0  0  0
  185.0440  179.5220  141.6770 C   0  0  0  0  0  3  0  0  0  0  0  0
  184.1330  178.5120  142.3060 C   0  0  1  0  0  3  0  0  0  0  0  0
  183.9000  178.8640  143.7440 C   0  0  0  0  0  2  0  0  0  0  0  0
  182.4670  179.0530  143.8680 N   0  0  0  0  0  2  0  0  0  0  0  0
  181.8910  178.4590  142.7290 N   0  0  0  0  0  2  0  0  0  0  0  0
  182.8260  178.5660  141.6810 N   0  0  0  0  0  2  0  0  0  0  0  0
  191.3860  174.1170  135.8130 O   0  0  0  0  0  0  0  0  0  0  0  0
  190.6330  175.2950  135.8140 C   0  0  0  0  0  2  0  0  0  0  0  0
  189.0310  173.8750  134.7840 O   0  0  0  0  0  1  0  0  0  0  0  0
  189.1560  174.9630  135.6520 C   0  0  1  0  0  3  0  0  0  0  0  0
  188.5120  174.6300  137.0020 C   0  0  1  0  0  3  0  0  0  0  0  0
  189.1530  175.3440  138.0200 O   0  0  0  0  0  1  0  0  0  0  0  0
  187.0180  174.9760  137.0150 C   0  0  2  0  0  3  0  0  0  0  0  0
  185.9010  173.3950  135.5860 O   0  0  0  0  0  1  0  0  0  0  0  0
  186.1570  173.7180  136.9200 C   0  0  0  0  0  2  0  0  0  0  0  0
  186.6870  175.8480  135.9690 O   0  0  0  0  0  0  0  0  0  0  0  0
  186.3370  177.0530  136.5910 C   0  0  2  0  0  3  0  0  0  0  0  0
  184.3420  178.2300  138.5110 O   0  0  0  0  0  1  0  0  0  0  0  0
  182.6480  176.9510  137.4240 C   0  0  0  0  0  2  0  0  0  0  0  0
  182.8610  176.5570  135.2190 C   0  0  0  0  0  2  0  0  0  0  0  0
  184.8970  177.3120  136.4230 N   0  0  0  0  0  0  0  0  0  0  0  0
  184.3890  176.4430  135.3540 C   0  0  0  0  0  2  0  0  0  0  0  0
  182.3180  177.4560  136.1550 O   0  0  0  0  0  0  0  0  0  0  0  0
  184.1500  177.1240  137.6840 C   0  0  1  0  0  3  0  0  0  0  0  0
  187.2390  178.1810  136.0810 C   0  0  0  0  0  2  0  0  0  0  0  0
  187.2470  179.2450  136.9840 O   0  0  0  0  0  1  0  0  0  0  0  0
  1  6  1  0  0  0  0
  2  5  1  0  0  0  0
  2  4  2  0  0  0  0
  4  3  1  0  0  0  0
  5 40  1  6  0  0  0
  5  1  1  0  0  0  0
  6  3  1  0  0  0  0
  6 18  1  1  0  0  0
  7  9  1  0  0  0  0
  7  4  1  0  0  0  0
  8 11  1  0  0  0  0
 10 12  1  0  0  0  0
 11  7  2  0  0  0  0
 12 14  2  0  0  0  0
 12 11  1  0  0  0  0
 13 14  1  0  0  0  0
 14 15  1  0  0  0  0
 15 17  1  0  0  0  0
 15  9  2  0  0  0  0
 17 16  1  0  0  0  0
 18 19  1  0  0  0  0
 19 20  1  0  0  0  0
 20 21  1  0  0  0  0
 21 22  1  0  0  0  0
 23 22  1  0  0  0  0
 23 25  1  0  0  0  0
 24 23  2  0  0  0  0
 25 33  1  6  0  0  0
 25 26  1  0  0  0  0
 26 27  1  0  0  0  0
 27 29  1  0  0  0  0
 28 27  2  0  0  0  0
 29 32  1  0  0  0  0
 31 32  1  0  0  0  0
 32 30  1  0  0  0  0
 33 34  2  0  0  0  0
 35 34  1  6  0  0  0
 35 36  1  0  0  0  0
 36 37  1  0  0  0  0
 38 37  1  0  0  0  0
 39 35  1  0  0  0  0
 39 38  1  0  0  0  0
 40 41  1  0  0  0  0
 43 42  1  6  0  0  0
 43 41  1  0  0  0  0
 43 44  1  0  0  0  0
 44 46  1  0  0  0  0
 44 45  1  1  0  0  0
 46 48  1  6  0  0  0
 47 48  1  0  0  0  0
 49 50  1  0  0  0  0
 49 46  1  0  0  0  0
 50 58  1  6  0  0  0
 52 57  1  0  0  0  0
 53 55  1  0  0  0  0
 53 56  1  0  0  0  0
 54 50  1  0  0  0  0
 54 57  1  0  0  0  0
 55 54  1  0  0  0  0
 56 52  1  0  0  0  0
 57 51  1  1  0  0  0
 58 59  1  0  0  0  0
M  END
>  <MODEL>
5

>  <REMARK>
 VINA RESULT:      -6.5      2.949     10.398
  Name = 
  24 active torsions:
  status: ('A' for Active; 'I' for Inactive)
    1  A    between atoms: C_3  and  C_17
    2  A    between atoms: C_6  and  N_24
    3  A    between atoms: C_6  and  C_48
    4  A    between atoms: C_7  and  C_56
    5  A    between atoms: N_10  and  C_43
    6  A    between atoms: C_12  and  C_16
    7  A    between atoms: C_13  and  C_32
    8  A    between atoms: C_14  and  N_24
    9  A    between atoms: C_14  and  C_55
   10  A    between atoms: O_15  and  C_48
   11  A    between atoms: O_15  and  C_52
   12  A    between atoms: C_16  and  O_29
   13  A    between atoms: C_16  and  N_34
   14  A    between atoms: C_21  and  C_33
   15  A    between atoms: C_21  and  C_46
   16  A    between atoms: O_23  and  C_31
   17  A    between atoms: O_23  and  C_40
   18  A    between atoms: O_29  and  C_33
   19  A    between atoms: C_31  and  C_46
   20  A    between atoms: C_32  and  C_58
   21  A    between atoms: C_33  and  C_35
   22  A    between atoms: C_38  and  C_43
   23  A    between atoms: C_43  and  C_55
   24  A    between atoms: C_45  and  O_49
                            x       y       z     vdW  Elec       q    Type
                         _______ _______ _______ _____ _____    ______ ____

>  <TORSDO>
F 24

$$$$
=
 OpenBabel10232409513D

 59 62  0  0  1  0  0  0  0  0999 V2000
  189.1230  178.7080  138.9490 C   0  0  0  0  0  2  0  0  0  0  0  0
  186.7880  178.0570  139.5940 C   0  0  0  0  0  3  0  0  0  0  0  0
  187.4620  177.6450  137.2920 C   0  0  0  0  0  2  0  0  0  0  0  0
  186.3960  177.8850  138.3280 C   0  0  0  0  0  0  0  0  0  0  0  0
  188.2420  177.9460  139.9510 C   0  0  2  0  0  3  0  0  0  0  0  0
  188.6290  178.6250  137.4910 C   0  0  2  0  0  3  0  0  0  0  0  0
  184.9680  177.9990  137.9190 C   0  0  0  0  0  0  0  0  0  0  0  0
  184.3010  179.3870  139.9560 C   0  0  0  0  0  1  0  0  0  0  0  0
  184.5790  177.3480  136.7390 C   0  0  0  0  0  3  0  0  0  0  0  0
  181.6950  179.4900  138.8850 O   0  0  0  0  0  1  0  0  0  0  0  0
  183.9870  178.7220  138.6510 C   0  0  0  0  0  0  0  0  0  0  0  0
  182.6640  178.7840  138.1750 C   0  0  0  0  0  0  0  0  0  0  0  0
  180.9970  178.2020  136.5290 O   0  0  0  0  0  1  0  0  0  0  0  0
  182.3070  178.1330  136.9880 C   0  0  0  0  0  0  0  0  0  0  0  0
  183.2620  177.4090  136.2670 C   0  0  0  0  0  0  0  0  0  0  0  0
  182.8010  175.3400  134.9850 C   0  0  0  0  0  1  0  0  0  0  0  0
  182.8820  176.7580  135.0890 O   0  0  0  0  0  0  0  0  0  0  0  0
  189.6900  178.2880  136.6500 O   0  0  0  0  0  0  0  0  0  0  0  0
  189.7370  176.8880  136.6700 C   0  0  0  0  0  2  0  0  0  0  0  0
  191.0570  176.4150  137.2540 C   0  0  0  0  0  2  0  0  0  0  0  0
  191.9410  175.9730  136.1860 N   0  0  0  0  0  2  0  0  0  0  0  0
  192.8410  174.9890  136.7640 C   0  0  0  0  0  2  0  0  0  0  0  0
  194.2540  175.4760  136.6650 C   0  0  0  0  0  0  0  0  0  0  0  0
  194.4730  176.6630  136.4820 O   0  0  0  0  0  0  0  0  0  0  0  0
  195.4100  174.5290  136.7790 C   0  0  1  0  0  3  0  0  0  0  0  0
  194.9990  173.1650  136.4700 N   0  0  0  0  0  2  0  0  0  0  0  0
  195.1060  172.0940  137.4130 C   0  0  0  0  0  0  0  0  0  0  0  0
  195.5230  172.3040  138.5820 O   0  0  0  0  0  0  0  0  0  0  0  0
  194.6820  170.7200  137.0180 C   0  0  0  0  0  2  0  0  0  0  0  0
  196.5670  169.1900  137.5960 C   0  0  0  0  0  1  0  0  0  0  0  0
  194.2340  168.5200  138.0630 C   0  0  0  0  0  1  0  0  0  0  0  0
  195.1950  169.6890  138.0150 C   0  0  0  0  0  3  0  0  0  0  0  0
  196.5240  174.9490  135.8650 C   0  0  0  0  0  3  0  0  0  0  0  0
  197.8200  174.8130  136.1820 C   0  0  0  0  0  3  0  0  0  0  0  0
  198.2910  174.2450  137.4870 C   0  0  1  0  0  3  0  0  0  0  0  0
  199.7860  174.1400  137.4850 C   0  0  0  0  0  2  0  0  0  0  0  0
  200.2320  174.9600  138.5970 N   0  0  0  0  0  2  0  0  0  0  0  0
  199.1010  175.1710  139.4080 N   0  0  0  0  0  2  0  0  0  0  0  0
  197.9710  175.1550  138.5690 N   0  0  0  0  0  2  0  0  0  0  0  0
  188.4560  178.4300  141.2420 O   0  0  0  0  0  0  0  0  0  0  0  0
  189.8380  178.6230  141.3270 C   0  0  0  0  0  2  0  0  0  0  0  0
  191.2800  176.7720  141.6920 O   0  0  0  0  0  1  0  0  0  0  0  0
  190.4320  177.6650  142.3510 C   0  0  1  0  0  3  0  0  0  0  0  0
  191.2100  178.4230  143.4320 C   0  0  1  0  0  3  0  0  0  0  0  0
  190.8860  179.7830  143.3800 O   0  0  0  0  0  1  0  0  0  0  0  0
  190.8930  177.8880  144.8340 C   0  0  2  0  0  3  0  0  0  0  0  0
  191.9940  175.8410  145.4570 O   0  0  0  0  0  1  0  0  0  0  0  0
  190.8500  176.3610  144.8470 C   0  0  0  0  0  2  0  0  0  0  0  0
  189.6760  178.3940  145.3100 O   0  0  0  0  0  0  0  0  0  0  0  0
  189.0740  177.3260  145.9880 C   0  0  2  0  0  3  0  0  0  0  0  0
  187.3840  176.4640  143.6530 O   0  0  0  0  0  1  0  0  0  0  0  0
  185.7850  178.1130  144.2920 C   0  0  0  0  0  2  0  0  0  0  0  0
  185.5520  178.5800  146.4810 C   0  0  0  0  0  2  0  0  0  0  0  0
  187.6120  177.3690  145.8070 N   0  0  0  0  0  0  0  0  0  0  0  0
  187.0590  178.3800  146.7160 C   0  0  0  0  0  2  0  0  0  0  0  0
  185.0700  177.7550  145.4480 O   0  0  0  0  0  0  0  0  0  0  0  0
  187.2360  177.6300  144.4020 C   0  0  1  0  0  3  0  0  0  0  0  0
  189.5220  177.3240  147.4520 C   0  0  0  0  0  2  0  0  0  0  0  0
  189.3640  176.0530  148.0080 O   0  0  0  0  0  1  0  0  0  0  0  0
  1  5  1  0  0  0  0
  2  5  1  0  0  0  0
  3  6  1  0  0  0  0
  3  4  1  0  0  0  0
  4  2  2  0  0  0  0
  5 40  1  1  0  0  0
  6 18  1  6  0  0  0
  6  1  1  0  0  0  0
  7  4  1  0  0  0  0
  7 11  1  0  0  0  0
  9  7  2  0  0  0  0
 11  8  1  0  0  0  0
 12 11  2  0  0  0  0
 12 10  1  0  0  0  0
 13 14  1  0  0  0  0
 14 12  1  0  0  0  0
 15  9  1  0  0  0  0
 15 14  2  0  0  0  0
 16 17  1  0  0  0  0
 17 15  1  0  0  0  0
 18 19  1  0  0  0  0
 19 20  1  0  0  0  0
 21 22  1  0  0  0  0
 21 20  1  0  0  0  0
 23 22  1  0  0  0  0
 23 25  1  0  0  0  0
 24 23  2  0  0  0  0
 25 33  1  6  0  0  0
 26 25  1  0  0  0  0
 26 27  1  0  0  0  0
 27 28  2  0  0  0  0
 29 27  1  0  0  0  0
 29 32  1  0  0  0  0
 30 32  1  0  0  0  0
 32 31  1  0  0  0  0
 33 34  2  0  0  0  0
 35 34  1  6  0  0  0
 35 39  1  0  0  0  0
 36 35  1  0  0  0  0
 36 37  1  0  0  0  0
 37 38  1  0  0  0  0
 39 38  1  0  0  0  0
 40 41  1  0  0  0  0
 41 43  1  0  0  0  0
 43 42  1  6  0  0  0
 43 44  1  0  0  0  0
 44 45  1  1  0  0  0
 44 46  1  0  0  0  0
 46 48  1  6  0  0  0
 46 49  1  0  0  0  0
 48 47  1  0  0  0  0
 49 50  1  0  0  0  0
 50 58  1  1  0  0  0
 52 57  1  0  0  0  0
 52 56  1  0  0  0  0
 53 55  1  0  0  0  0
 54 50  1  0  0  0  0
 54 55  1  0  0  0  0
 56 53  1  0  0  0  0
 57 51  1  6  0  0  0
 57 54  1  0  0  0  0
 58 59  1  0  0  0  0
M  END
>  <MODEL>
6

>  <REMARK>
 VINA RESULT:      -6.5      3.746     11.835
  Name = 
  24 active torsions:
  status: ('A' for Active; 'I' for Inactive)
    1  A    between atoms: C_3  and  C_17
    2  A    between atoms: C_6  and  N_24
    3  A    between atoms: C_6  and  C_48
    4  A    between atoms: C_7  and  C_56
    5  A    between atoms: N_10  and  C_43
    6  A    between atoms: C_12  and  C_16
    7  A    between atoms: C_13  and  C_32
    8  A    between atoms: C_14  and  N_24
    9  A    between atoms: C_14  and  C_55
   10  A    between atoms: O_15  and  C_48
   11  A    between atoms: O_15  and  C_52
   12  A    between atoms: C_16  and  O_29
   13  A    between atoms: C_16  and  N_34
   14  A    between atoms: C_21  and  C_33
   15  A    between atoms: C_21  and  C_46
   16  A    between atoms: O_23  and  C_31
   17  A    between atoms: O_23  and  C_40
   18  A    between atoms: O_29  and  C_33
   19  A    between atoms: C_31  and  C_46
   20  A    between atoms: C_32  and  C_58
   21  A    between atoms: C_33  and  C_35
   22  A    between atoms: C_38  and  C_43
   23  A    between atoms: C_43  and  C_55
   24  A    between atoms: C_45  and  O_49
                            x       y       z     vdW  Elec       q    Type
                         _______ _______ _______ _____ _____    ______ ____

>  <TORSDO>
F 24

$$$$
=
 OpenBabel10232409513D

 59 62  0  0  1  0  0  0  0  0999 V2000
  187.9830  178.4920  140.4650 C   0  0  0  0  0  2  0  0  0  0  0  0
  189.7220  177.2600  141.7880 C   0  0  0  0  0  3  0  0  0  0  0  0
  187.4880  177.3940  142.7430 C   0  0  0  0  0  2  0  0  0  0  0  0
  188.9760  177.2240  142.8960 C   0  0  0  0  0  0  0  0  0  0  0  0
  189.0660  177.4030  140.4450 C   0  0  2  0  0  3  0  0  0  0  0  0
  187.1790  178.5520  141.7810 C   0  0  2  0  0  3  0  0  0  0  0  0
  189.5780  177.0980  144.2530 C   0  0  0  0  0  0  0  0  0  0  0  0
  191.4530  175.5460  143.4810 C   0  0  0  0  0  1  0  0  0  0  0  0
  188.9400  177.7670  145.3080 C   0  0  0  0  0  3  0  0  0  0  0  0
  192.4010  175.5640  146.1360 O   0  0  0  0  0  1  0  0  0  0  0  0
  190.7500  176.3460  144.5350 C   0  0  0  0  0  0  0  0  0  0  0  0
  191.2520  176.2990  145.8490 C   0  0  0  0  0  0  0  0  0  0  0  0
  191.1060  176.9310  148.1750 O   0  0  0  0  0  1  0  0  0  0  0  0
  190.6000  176.9850  146.8810 C   0  0  0  0  0  0  0  0  0  0  0  0
  189.4390  177.7180  146.6160 C   0  0  0  0  0  0  0  0  0  0  0  0
  187.8820  177.7440  148.5420 C   0  0  0  0  0  1  0  0  0  0  0  0
  188.7980  178.3880  147.6630 O   0  0  0  0  0  0  0  0  0  0  0  0
  185.8130  178.5950  141.4990 O   0  0  0  0  0  0  0  0  0  0  0  0
  185.7350  178.8060  140.1170 C   0  0  0  0  0  2  0  0  0  0  0  0
  184.2930  179.0440  139.7020 C   0  0  0  0  0  2  0  0  0  0  0  0
  183.4400  178.0080  140.2640 N   0  0  0  0  0  2  0  0  0  0  0  0
  183.5190  176.8660  139.3690 C   0  0  0  0  0  2  0  0  0  0  0  0
  182.1800  176.6150  138.7490 C   0  0  0  0  0  0  0  0  0  0  0  0
  181.2990  176.0830  139.4060 O   0  0  0  0  0  0  0  0  0  0  0  0
  181.8990  176.9990  137.3270 C   0  0  1  0  0  3  0  0  0  0  0  0
  182.1860  175.8920  136.4220 N   0  0  0  0  0  2  0  0  0  0  0  0
  183.2860  175.9080  135.5080 C   0  0  0  0  0  0  0  0  0  0  0  0
  184.0900  176.8760  135.4840 O   0  0  0  0  0  0  0  0  0  0  0  0
  183.5060  174.7460  134.5990 C   0  0  0  0  0  2  0  0  0  0  0  0
  185.5630  173.3360  134.5200 C   0  0  0  0  0  1  0  0  0  0  0  0
  183.4500  172.4040  135.4010 C   0  0  0  0  0  1  0  0  0  0  0  0
  184.3000  173.6540  135.3020 C   0  0  0  0  0  3  0  0  0  0  0  0
  180.4700  177.4300  137.1730 C   0  0  0  0  0  3  0  0  0  0  0  0
  180.0940  178.7170  137.1430 C   0  0  0  0  0  3  0  0  0  0  0  0
  181.0580  179.8580  137.2770 C   0  0  1  0  0  3  0  0  0  0  0  0
  180.6470  180.9790  136.3740 C   0  0  0  0  0  2  0  0  0  0  0  0
  180.4200  182.1160  137.2480 N   0  0  0  0  0  2  0  0  0  0  0  0
  181.0430  181.8020  138.4700 N   0  0  0  0  0  2  0  0  0  0  0  0
  180.9970  180.4030  138.6190 N   0  0  0  0  0  2  0  0  0  0  0  0
  190.0230  177.6970  139.4740 O   0  0  0  0  0  0  0  0  0  0  0  0
  190.6460  176.4750  139.2030 C   0  0  0  0  0  2  0  0  0  0  0  0
  190.0390  176.5730  136.9090 O   0  0  0  0  0  1  0  0  0  0  0  0
  189.9340  175.7770  138.0520 C   0  0  1  0  0  3  0  0  0  0  0  0
  190.5410  174.3950  137.7830 C   0  0  1  0  0  3  0  0  0  0  0  0
  189.5410  173.5150  137.3580 O   0  0  0  0  0  1  0  0  0  0  0  0
  191.6370  174.4600  136.7110 C   0  0  2  0  0  3  0  0  0  0  0  0
  190.1590  174.0230  134.8640 O   0  0  0  0  0  1  0  0  0  0  0  0
  191.3020  173.5630  135.5220 C   0  0  0  0  0  2  0  0  0  0  0  0
  192.8840  174.0960  137.2350 O   0  0  0  0  0  0  0  0  0  0  0  0
  193.8200  174.8450  136.5110 C   0  0  2  0  0  3  0  0  0  0  0  0
  195.8320  173.1590  135.0400 O   0  0  0  0  0  1  0  0  0  0  0  0
  196.7380  172.5230  137.1520 C   0  0  0  0  0  2  0  0  0  0  0  0
  196.6740  174.0180  138.8330 C   0  0  0  0  0  2  0  0  0  0  0  0
  195.1880  174.4520  136.8910 N   0  0  0  0  0  0  0  0  0  0  0  0
  195.3140  174.5500  138.3510 C   0  0  0  0  0  2  0  0  0  0  0  0
  197.4650  173.5580  137.7640 O   0  0  0  0  0  0  0  0  0  0  0  0
  195.5330  173.1010  136.4000 C   0  0  1  0  0  3  0  0  0  0  0  0
  193.5300  176.3390  136.6790 C   0  0  0  0  0  2  0  0  0  0  0  0
  194.5470  177.1010  136.1010 O   0  0  0  0  0  1  0  0  0  0  0  0
  1  6  1  0  0  0  0
  2  4  2  0  0  0  0
  3  4  1  0  0  0  0
  4  7  1  0  0  0  0
  5 40  1  6  0  0  0
  5  1  1  0  0  0  0
  5  2  1  0  0  0  0
  6 18  1  6  0  0  0
  6  3  1  0  0  0  0
  7 11  2  0  0  0  0
  7  9  1  0  0  0  0
  8 11  1  0  0  0  0
  9 15  2  0  0  0  0
 11 12  1  0  0  0  0
 12 10  1  0  0  0  0
 12 14  2  0  0  0  0
 14 13  1  0  0  0  0
 15 14  1  0  0  0  0
 15 17  1  0  0  0  0
 17 16  1  0  0  0  0
 19 18  1  0  0  0  0
 20 19  1  0  0  0  0
 20 21  1  0  0  0  0
 22 21  1  0  0  0  0
 23 22  1  0  0  0  0
 23 24  2  0  0  0  0
 25 33  1  1  0  0  0
 25 23  1  0  0  0  0
 26 25  1  0  0  0  0
 27 26  1  0  0  0  0
 28 27  2  0  0  0  0
 29 32  1  0  0  0  0
 29 27  1  0  0  0  0
 30 32  1  0  0  0  0
 32 31  1  0  0  0  0
 34 33  2  0  0  0  0
 35 34  1  1  0  0  0
 35 39  1  0  0  0  0
 36 37  1  0  0  0  0
 36 35  1  0  0  0  0
 37 38  1  0  0  0  0
 38 39  1  0  0  0  0
 41 40  1  0  0  0  0
 43 42  1  6  0  0  0
 43 41  1  0  0  0  0
 44 45  1  6  0  0  0
 44 43  1  0  0  0  0
 46 48  1  6  0  0  0
 46 49  1  0  0  0  0
 46 44  1  0  0  0  0
 47 48  1  0  0  0  0
 50 58  1  1  0  0  0
 50 54  1  0  0  0  0
 50 49  1  0  0  0  0
 52 56  1  0  0  0  0
 54 55  1  0  0  0  0
 55 53  1  0  0  0  0
 56 53  1  0  0  0  0
 57 51  1  6  0  0  0
 57 54  1  0  0  0  0
 57 52  1  0  0  0  0
 59 58  1  0  0  0  0
M  END
>  <MODEL>
7

>  <REMARK>
 VINA RESULT:      -6.4      1.616      2.763
  Name = 
  24 active torsions:
  status: ('A' for Active; 'I' for Inactive)
    1  A    between atoms: C_3  and  C_17
    2  A    between atoms: C_6  and  N_24
    3  A    between atoms: C_6  and  C_48
    4  A    between atoms: C_7  and  C_56
    5  A    between atoms: N_10  and  C_43
    6  A    between atoms: C_12  and  C_16
    7  A    between atoms: C_13  and  C_32
    8  A    between atoms: C_14  and  N_24
    9  A    between atoms: C_14  and  C_55
   10  A    between atoms: O_15  and  C_48
   11  A    between atoms: O_15  and  C_52
   12  A    between atoms: C_16  and  O_29
   13  A    between atoms: C_16  and  N_34
   14  A    between atoms: C_21  and  C_33
   15  A    between atoms: C_21  and  C_46
   16  A    between atoms: O_23  and  C_31
   17  A    between atoms: O_23  and  C_40
   18  A    between atoms: O_29  and  C_33
   19  A    between atoms: C_31  and  C_46
   20  A    between atoms: C_32  and  C_58
   21  A    between atoms: C_33  and  C_35
   22  A    between atoms: C_38  and  C_43
   23  A    between atoms: C_43  and  C_55
   24  A    between atoms: C_45  and  O_49
                            x       y       z     vdW  Elec       q    Type
                         _______ _______ _______ _____ _____    ______ ____

>  <TORSDO>
F 24

$$$$
=
 OpenBabel10232409513D

 59 62  0  0  1  0  0  0  0  0999 V2000
  191.9530  176.4850  138.0000 C   0  0  0  0  0  2  0  0  0  0  0  0
  192.9890  174.6680  136.6140 C   0  0  0  0  0  3  0  0  0  0  0  0
  194.2550  175.4580  138.5360 C   0  0  0  0  0  2  0  0  0  0  0  0
  194.1910  174.8030  137.1820 C   0  0  0  0  0  0  0  0  0  0  0  0
  191.7560  175.1060  137.3520 C   0  0  2  0  0  3  0  0  0  0  0  0
  193.3710  176.7150  138.5630 C   0  0  2  0  0  3  0  0  0  0  0  0
  195.4450  174.3980  136.4870 C   0  0  0  0  0  0  0  0  0  0  0  0
  195.8490  176.7060  135.4740 C   0  0  0  0  0  1  0  0  0  0  0  0
  195.8500  173.0610  136.6110 C   0  0  0  0  0  3  0  0  0  0  0  0
  198.2150  175.6670  134.3460 O   0  0  0  0  0  1  0  0  0  0  0  0
  196.2450  175.2810  135.7140 C   0  0  0  0  0  0  0  0  0  0  0  0
  197.4230  174.8080  135.1070 C   0  0  0  0  0  0  0  0  0  0  0  0
  198.9740  173.0150  134.6510 O   0  0  0  0  0  1  0  0  0  0  0  0
  197.8080  173.4700  135.2560 C   0  0  0  0  0  0  0  0  0  0  0  0
  197.0210  172.5900  136.0040 C   0  0  0  0  0  0  0  0  0  0  0  0
  197.6260  170.6330  137.3960 C   0  0  0  0  0  1  0  0  0  0  0  0
  197.4190  171.2550  136.1330 O   0  0  0  0  0  0  0  0  0  0  0  0
  193.2880  177.2190  139.8620 O   0  0  0  0  0  0  0  0  0  0  0  0
  191.9210  177.4260  140.0830 C   0  0  0  0  0  2  0  0  0  0  0  0
  191.5540  177.0400  141.5060 C   0  0  0  0  0  2  0  0  0  0  0  0
  190.2770  176.3440  141.5160 N   0  0  0  0  0  2  0  0  0  0  0  0
  189.5890  176.7440  142.7320 C   0  0  0  0  0  2  0  0  0  0  0  0
  188.5830  177.8090  142.4170 C   0  0  0  0  0  0  0  0  0  0  0  0
  188.8550  178.6750  141.6010 O   0  0  0  0  0  0  0  0  0  0  0  0
  187.2450  177.8360  143.0930 C   0  0  1  0  0  3  0  0  0  0  0  0
  186.1680  177.8950  142.1120 N   0  0  0  0  0  2  0  0  0  0  0  0
  185.4460  179.0960  141.8280 C   0  0  0  0  0  0  0  0  0  0  0  0
  185.7510  180.1800  142.3910 O   0  0  0  0  0  0  0  0  0  0  0  0
  184.3430  179.0740  140.8250 C   0  0  0  0  0  2  0  0  0  0  0  0
  182.7690  177.3430  139.9570 C   0  0  0  0  0  1  0  0  0  0  0  0
  182.1400  178.7310  141.9030 C   0  0  0  0  0  1  0  0  0  0  0  0
  183.2910  178.0400  141.2020 C   0  0  0  0  0  3  0  0  0  0  0  0
  187.0760  176.6310  143.9700 C   0  0  0  0  0  3  0  0  0  0  0  0
  187.3670  176.6340  145.2800 C   0  0  0  0  0  3  0  0  0  0  0  0
  187.9070  177.8340  145.9980 C   0  0  1  0  0  3  0  0  0  0  0  0
  187.0990  178.0930  147.2330 C   0  0  0  0  0  2  0  0  0  0  0  0
  188.0390  178.0050  148.3350 N   0  0  0  0  0  2  0  0  0  0  0  0
  189.3230  178.1060  147.7670 N   0  0  0  0  0  2  0  0  0  0  0  0
  189.2520  177.5660  146.4690 N   0  0  0  0  0  2  0  0  0  0  0  0
  190.6650  175.1370  136.4830 O   0  0  0  0  0  0  0  0  0  0  0  0
  190.0570  173.8860  136.6290 C   0  0  0  0  0  2  0  0  0  0  0  0
  189.9120  172.0210  135.1650 O   0  0  0  0  0  1  0  0  0  0  0  0
  189.5920  173.3760  135.2710 C   0  0  1  0  0  3  0  0  0  0  0  0
  188.0820  173.5720  135.0940 C   0  0  1  0  0  3  0  0  0  0  0  0
  187.5420  172.4810  134.4060 O   0  0  0  0  0  1  0  0  0  0  0  0
  187.3700  173.7120  136.4460 C   0  0  2  0  0  3  0  0  0  0  0  0
  185.3860  172.3910  136.7760 O   0  0  0  0  0  1  0  0  0  0  0  0
  186.7770  172.3790  136.8990 C   0  0  0  0  0  2  0  0  0  0  0  0
  186.3570  174.6790  136.3900 O   0  0  0  0  0  0  0  0  0  0  0  0
  186.8890  175.7240  135.6240 C   0  0  2  0  0  3  0  0  0  0  0  0
  185.3770  177.2880  137.7020 O   0  0  0  0  0  1  0  0  0  0  0  0
  186.8300  179.1290  137.2710 C   0  0  0  0  0  2  0  0  0  0  0  0
  188.9580  178.6930  136.6830 C   0  0  0  0  0  2  0  0  0  0  0  0
  187.3380  176.8190  136.5010 N   0  0  0  0  0  0  0  0  0  0  0  0
  188.5180  177.4480  135.8940 C   0  0  0  0  0  2  0  0  0  0  0  0
  188.1220  178.9330  137.7890 O   0  0  0  0  0  0  0  0  0  0  0  0
  186.2630  177.8000  136.7560 C   0  0  1  0  0  3  0  0  0  0  0  0
  185.8750  176.1520  134.5590 C   0  0  0  0  0  2  0  0  0  0  0  0
  184.9330  175.1430  134.3480 O   0  0  0  0  0  1  0  0  0  0  0  0
  1  6  1  0  0  0  0
  2  4  2  0  0  0  0
  2  5  1  0  0  0  0
  3  6  1  0  0  0  0
  4  3  1  0  0  0  0
  5 40  1  6  0  0  0
  5  1  1  0  0  0  0
  6 18  1  1  0  0  0
  7  9  1  0  0  0  0
  7  4  1  0  0  0  0
  8 11  1  0  0  0  0
 10 12  1  0  0  0  0
 11  7  2  0  0  0  0
 12 14  2  0  0  0  0
 12 11  1  0  0  0  0
 13 14  1  0  0  0  0
 14 15  1  0  0  0  0
 15 17  1  0  0  0  0
 15  9  2  0  0  0  0
 17 16  1  0  0  0  0
 18 19  1  0  0  0  0
 19 20  1  0  0  0  0
 20 21  1  0  0  0  0
 21 22  1  0  0  0  0
 23 22  1  0  0  0  0
 23 25  1  0  0  0  0
 24 23  2  0  0  0  0
 25 33  1  6  0  0  0
 26 25  1  0  0  0  0
 27 26  1  0  0  0  0
 27 28  2  0  0  0  0
 29 32  1  0  0  0  0
 29 27  1  0  0  0  0
 30 32  1  0  0  0  0
 32 31  1  0  0  0  0
 33 34  2  0  0  0  0
 35 34  1  1  0  0  0
 35 39  1  0  0  0  0
 35 36  1  0  0  0  0
 36 37  1  0  0  0  0
 38 37  1  0  0  0  0
 39 38  1  0  0  0  0
 40 41  1  0  0  0  0
 43 42  1  1  0  0  0
 43 41  1  0  0  0  0
 44 45  1  1  0  0  0
 44 43  1  0  0  0  0
 44 46  1  0  0  0  0
 46 48  1  6  0  0  0
 47 48  1  0  0  0  0
 49 46  1  0  0  0  0
 50 58  1  6  0  0  0
 50 49  1  0  0  0  0
 50 54  1  0  0  0  0
 52 56  1  0  0  0  0
 53 56  1  0  0  0  0
 54 57  1  0  0  0  0
 55 54  1  0  0  0  0
 55 53  1  0  0  0  0
 57 52  1  0  0  0  0
 57 51  1  1  0  0  0
 59 58  1  0  0  0  0
M  END
>  <MODEL>
8

>  <REMARK>
 VINA RESULT:      -6.3      3.675     10.324
  Name = 
  24 active torsions:
  status: ('A' for Active; 'I' for Inactive)
    1  A    between atoms: C_3  and  C_17
    2  A    between atoms: C_6  and  N_24
    3  A    between atoms: C_6  and  C_48
    4  A    between atoms: C_7  and  C_56
    5  A    between atoms: N_10  and  C_43
    6  A    between atoms: C_12  and  C_16
    7  A    between atoms: C_13  and  C_32
    8  A    between atoms: C_14  and  N_24
    9  A    between atoms: C_14  and  C_55
   10  A    between atoms: O_15  and  C_48
   11  A    between atoms: O_15  and  C_52
   12  A    between atoms: C_16  and  O_29
   13  A    between atoms: C_16  and  N_34
   14  A    between atoms: C_21  and  C_33
   15  A    between atoms: C_21  and  C_46
   16  A    between atoms: O_23  and  C_31
   17  A    between atoms: O_23  and  C_40
   18  A    between atoms: O_29  and  C_33
   19  A    between atoms: C_31  and  C_46
   20  A    between atoms: C_32  and  C_58
   21  A    between atoms: C_33  and  C_35
   22  A    between atoms: C_38  and  C_43
   23  A    between atoms: C_43  and  C_55
   24  A    between atoms: C_45  and  O_49
                            x       y       z     vdW  Elec       q    Type
                         _______ _______ _______ _____ _____    ______ ____

>  <TORSDO>
F 24

$$$$
=
 OpenBabel10232409513D

 59 62  0  0  1  0  0  0  0  0999 V2000
  189.4600  178.0190  137.9520 C   0  0  0  0  0  2  0  0  0  0  0  0
  190.3090  176.5120  136.1350 C   0  0  0  0  0  3  0  0  0  0  0  0
  191.2590  176.2190  138.3570 C   0  0  0  0  0  2  0  0  0  0  0  0
  191.3460  176.0820  136.8600 C   0  0  0  0  0  0  0  0  0  0  0  0
  189.0860  177.0500  136.8210 C   0  0  2  0  0  3  0  0  0  0  0  0
  190.7260  177.6110  138.7350 C   0  0  2  0  0  3  0  0  0  0  0  0
  192.5880  175.5540  136.2290 C   0  0  0  0  0  0  0  0  0  0  0  0
  191.6200  173.2240  135.8370 C   0  0  0  0  0  1  0  0  0  0  0  0
  193.6870  176.4200  136.1380 C   0  0  0  0  0  3  0  0  0  0  0  0
  194.0700  172.5380  134.6230 O   0  0  0  0  0  1  0  0  0  0  0  0
  192.7200  174.2340  135.7190 C   0  0  0  0  0  0  0  0  0  0  0  0
  193.9310  173.8300  135.1260 C   0  0  0  0  0  0  0  0  0  0  0  0
  196.1990  174.3100  134.4520 O   0  0  0  0  0  1  0  0  0  0  0  0
  195.0080  174.7200  135.0400 C   0  0  0  0  0  0  0  0  0  0  0  0
  194.8930  176.0170  135.5500 C   0  0  0  0  0  0  0  0  0  0  0  0
  195.9510  178.0880  134.6990 C   0  0  0  0  0  1  0  0  0  0  0  0
  195.9840  176.8880  135.4630 O   0  0  0  0  0  0  0  0  0  0  0  0
  190.4750  177.6750  140.1060 O   0  0  0  0  0  0  0  0  0  0  0  0
  191.5240  176.9620  140.6990 C   0  0  0  0  0  2  0  0  0  0  0  0
  191.7810  177.4770  142.1050 C   0  0  0  0  0  2  0  0  0  0  0  0
  190.6890  177.0860  142.9820 N   0  0  0  0  0  2  0  0  0  0  0  0
  189.4550  177.4760  142.3190 C   0  0  0  0  0  2  0  0  0  0  0  0
  188.2930  176.7870  142.9660 C   0  0  0  0  0  0  0  0  0  0  0  0
  188.2600  175.5670  143.0080 O   0  0  0  0  0  0  0  0  0  0  0  0
  187.1610  177.5690  143.5610 C   0  0  1  0  0  3  0  0  0  0  0  0
  187.5070  178.0580  144.8900 N   0  0  0  0  0  2  0  0  0  0  0  0
  186.7500  177.7250  146.0570 C   0  0  0  0  0  0  0  0  0  0  0  0
  185.7650  176.9440  145.9850 O   0  0  0  0  0  0  0  0  0  0  0  0
  187.1540  178.2790  147.3810 C   0  0  0  0  0  2  0  0  0  0  0  0
  188.9730  176.5720  147.4410 C   0  0  0  0  0  1  0  0  0  0  0  0
  188.9680  178.4400  149.0590 C   0  0  0  0  0  1  0  0  0  0  0  0
  188.6360  178.0400  147.6370 C   0  0  0  0  0  3  0  0  0  0  0  0
  186.7940  178.7200  142.6700 C   0  0  0  0  0  3  0  0  0  0  0  0
  185.5290  179.1290  142.4880 C   0  0  0  0  0  3  0  0  0  0  0  0
  184.3510  178.4690  143.1400 C   0  0  1  0  0  3  0  0  0  0  0  0
  183.9000  179.2830  144.3140 C   0  0  0  0  0  2  0  0  0  0  0  0
  182.5240  179.6450  144.0260 N   0  0  0  0  0  2  0  0  0  0  0  0
  182.0960  178.7810  143.0020 N   0  0  0  0  0  2  0  0  0  0  0  0
  183.2250  178.4530  142.2280 N   0  0  0  0  0  2  0  0  0  0  0  0
  188.2610  177.6900  135.8950 O   0  0  0  0  0  0  0  0  0  0  0  0
  187.4240  176.6820  135.4060 C   0  0  0  0  0  2  0  0  0  0  0  0
  185.4730  177.7650  134.5920 O   0  0  0  0  0  1  0  0  0  0  0  0
  185.9690  177.0420  135.6790 C   0  0  1  0  0  3  0  0  0  0  0  0
  185.1210  175.7850  135.9010 C   0  0  1  0  0  3  0  0  0  0  0  0
  185.8770  174.8170  136.5700 O   0  0  0  0  0  1  0  0  0  0  0  0
  183.8630  176.0910  136.7230 C   0  0  2  0  0  3  0  0  0  0  0  0
  182.9400  175.7860  134.5220 O   0  0  0  0  0  1  0  0  0  0  0  0
  182.6070  176.0270  135.8570 C   0  0  0  0  0  2  0  0  0  0  0  0
  183.9470  177.3500  137.3330 O   0  0  0  0  0  0  0  0  0  0  0  0
  182.6540  177.6200  137.7990 C   0  0  2  0  0  3  0  0  0  0  0  0
  183.8190  180.0750  139.0900 O   0  0  0  0  0  1  0  0  0  0  0  0
  181.7210  181.1590  138.7570 C   0  0  0  0  0  2  0  0  0  0  0  0
  180.5090  180.6010  136.9460 C   0  0  0  0  0  2  0  0  0  0  0  0
  182.3290  179.0420  137.5990 N   0  0  0  0  0  0  0  0  0  0  0  0
  180.9710  179.1370  137.0480 C   0  0  0  0  0  2  0  0  0  0  0  0
  181.4920  181.4940  137.4120 O   0  0  0  0  0  0  0  0  0  0  0  0
  182.4700  179.8230  138.8460 C   0  0  1  0  0  3  0  0  0  0  0  0
  182.5170  177.1450  139.2490 C   0  0  0  0  0  2  0  0  0  0  0  0
  182.9180  175.8130  139.3660 O   0  0  0  0  0  1  0  0  0  0  0  0
  1  6  1  0  0  0  0
  2  5  1  0  0  0  0
  2  4  2  0  0  0  0
  3  6  1  0  0  0  0
  4  3  1  0  0  0  0
  5 40  1  6  0  0  0
  5  1  1  0  0  0  0
  6 18  1  1  0  0  0
  7  4  1  0  0  0  0
  9  7  1  0  0  0  0
 10 12  1  0  0  0  0
 11  8  1  0  0  0  0
 11  7  2  0  0  0  0
 12 11  1  0  0  0  0
 13 14  1  0  0  0  0
 14 12  2  0  0  0  0
 14 15  1  0  0  0  0
 15  9  2  0  0  0  0
 16 17  1  0  0  0  0
 17 15  1  0  0  0  0
 18 19  1  0  0  0  0
 19 20  1  0  0  0  0
 20 21  1  0  0  0  0
 22 23  1  0  0  0  0
 22 21  1  0  0  0  0
 23 24  2  0  0  0  0
 23 25  1  0  0  0  0
 25 33  1  6  0  0  0
 25 26  1  0  0  0  0
 26 27  1  0  0  0  0
 27 29  1  0  0  0  0
 28 27  2  0  0  0  0
 29 32  1  0  0  0  0
 30 32  1  0  0  0  0
 32 31  1  0  0  0  0
 34 33  2  0  0  0  0
 35 34  1  6  0  0  0
 35 36  1  0  0  0  0
 37 36  1  0  0  0  0
 38 37  1  0  0  0  0
 39 38  1  0  0  0  0
 39 35  1  0  0  0  0
 41 43  1  0  0  0  0
 41 40  1  0  0  0  0
 43 42  1  6  0  0  0
 43 44  1  0  0  0  0
 44 45  1  1  0  0  0
 44 46  1  0  0  0  0
 46 48  1  6  0  0  0
 46 49  1  0  0  0  0
 47 48  1  0  0  0  0
 49 50  1  0  0  0  0
 50 58  1  1  0  0  0
 52 57  1  0  0  0  0
 53 55  1  0  0  0  0
 53 56  1  0  0  0  0
 54 50  1  0  0  0  0
 54 57  1  0  0  0  0
 55 54  1  0  0  0  0
 56 52  1  0  0  0  0
 57 51  1  6  0  0  0
 58 59  1  0  0  0  0
M  END
>  <MODEL>
9

>  <REMARK>
 VINA RESULT:      -6.3      2.682     10.984
  Name = 
  24 active torsions:
  status: ('A' for Active; 'I' for Inactive)
    1  A    between atoms: C_3  and  C_17
    2  A    between atoms: C_6  and  N_24
    3  A    between atoms: C_6  and  C_48
    4  A    between atoms: C_7  and  C_56
    5  A    between atoms: N_10  and  C_43
    6  A    between atoms: C_12  and  C_16
    7  A    between atoms: C_13  and  C_32
    8  A    between atoms: C_14  and  N_24
    9  A    between atoms: C_14  and  C_55
   10  A    between atoms: O_15  and  C_48
   11  A    between atoms: O_15  and  C_52
   12  A    between atoms: C_16  and  O_29
   13  A    between atoms: C_16  and  N_34
   14  A    between atoms: C_21  and  C_33
   15  A    between atoms: C_21  and  C_46
   16  A    between atoms: O_23  and  C_31
   17  A    between atoms: O_23  and  C_40
   18  A    between atoms: O_29  and  C_33
   19  A    between atoms: C_31  and  C_46
   20  A    between atoms: C_32  and  C_58
   21  A    between atoms: C_33  and  C_35
   22  A    between atoms: C_38  and  C_43
   23  A    between atoms: C_43  and  C_55
   24  A    between atoms: C_45  and  O_49
                            x       y       z     vdW  Elec       q    Type
                         _______ _______ _______ _____ _____    ______ ____

>  <TORSDO>
F 24

$$$$
