=
 OpenBabel10232411413D

 52 54  0  0  1  0  0  0  0  0999 V2000
  190.3920  176.5570  138.1860 C   0  0  0  0  0  3  0  0  0  0  0  0
  191.7600  176.6300  138.4750 C   0  0  0  0  0  0  0  0  0  0  0  0
  193.5970  177.1100  140.1690 C   0  0  0  0  0  1  0  0  0  0  0  0
  189.8120  177.2950  140.4230 C   0  0  0  0  0  0  0  0  0  0  0  0
  189.4340  176.8810  139.1430 C   0  0  0  0  0  3  0  0  0  0  0  0
  191.1850  177.3660  140.7380 C   0  0  0  0  0  0  0  0  0  0  0  0
  192.1560  177.0370  139.7740 C   0  0  0  0  0  0  0  0  0  0  0  0
  191.5870  177.7360  141.9830 F   0  0  0  0  0  0  0  0  0  0  0  0
  188.7580  177.6540  141.3970 C   0  0  0  0  0  0  0  0  0  0  0  0
  188.3530  176.7260  142.4090 N   0  0  0  0  0  2  0  0  0  0  0  0
  188.2350  178.8010  141.3590 O   0  0  0  0  0  0  0  0  0  0  0  0
  187.3240  177.0390  143.3900 C   0  0  0  0  0  2  0  0  0  0  0  0
  189.2720  176.9000  144.9230 C   0  0  0  0  0  3  0  0  0  0  0  0
  187.2220  177.8860  145.7950 C   0  0  0  0  0  0  0  0  0  0  0  0
  189.1860  177.6500  147.2140 C   0  0  0  0  0  3  0  0  0  0  0  0
  187.9430  177.2950  144.7290 C   0  0  0  0  0  0  0  0  0  0  0  0
  189.9060  177.0800  146.1580 C   0  0  0  0  0  0  0  0  0  0  0  0
  187.8600  178.0460  147.0330 C   0  0  0  0  0  3  0  0  0  0  0  0
  184.8420  178.3580  146.6360 C   0  0  0  0  0  3  0  0  0  0  0  0
  185.8160  178.3500  145.6550 C   0  0  0  0  0  0  0  0  0  0  0  0
  183.6760  178.8020  146.1190 N   0  0  0  0  0  2  0  0  0  0  0  0
  185.1990  178.8010  144.5070 C   0  0  0  0  0  0  0  0  0  0  0  0
  183.8840  179.0770  144.8170 C   0  0  0  0  0  3  0  0  0  0  0  0
  185.8110  178.9630  143.2610 O   0  0  0  0  0  0  0  0  0  0  0  0
  185.1460  179.5720  142.1600 C   0  0  0  0  0  2  0  0  0  0  0  0
  184.4120  179.9220  139.3940 N   0  0  0  0  0  2  0  0  0  0  0  0
  184.2570  178.7560  139.9310 C   0  0  0  0  0  0  0  0  0  0  0  0
  184.5360  178.5500  141.3190 N   0  0  0  0  0  2  0  0  0  0  0  0
  184.3640  177.5890  137.7570 C   0  0  0  0  0  1  0  0  0  0  0  0
  183.6850  177.6480  139.1120 C   0  0  2  0  0  3  0  0  0  0  0  0
  182.3140  177.8400  138.9400 O   0  0  0  0  0  1  0  0  0  0  0  0
  191.9140  176.9310  147.4960 O   0  0  0  0  0  1  0  0  0  0  0  0
  191.9880  175.9550  145.2900 C   0  0  0  0  0  1  0  0  0  0  0  0
  191.2760  176.6800  146.3290 N   0  0  0  0  0  0  0  0  0  0  0  0
  192.7430  176.3140  137.3980 C   0  0  0  0  0  0  0  0  0  0  0  0
  193.8050  176.9880  137.3100 O   0  0  0  0  0  0  0  0  0  0  0  0
  192.5080  175.2460  136.4000 C   0  0  0  0  0  0  0  0  0  0  0  0
  192.4890  175.5100  135.1660 O   0  0  0  0  0  0  0  0  0  0  0  0
  192.3110  173.8320  136.8560 C   0  0  1  0  0  3  0  0  0  0  0  0
  191.0460  173.3110  136.3600 N   0  0  0  0  0  2  0  0  0  0  0  0
  190.1370  173.4670  137.3510 O   0  0  0  0  0  0  0  0  0  0  0  0
  188.9240  173.0770  136.7790 C   0  0  0  0  0  2  0  0  0  0  0  0
  187.9970  174.2710  136.6960 C   0  0  0  0  0  1  0  0  0  0  0  0
  193.4690  172.9750  136.3690 C   0  0  0  0  0  2  0  0  0  0  0  0
  194.7960  173.5580  136.8270 C   0  0  0  0  0  2  0  0  0  0  0  0
  194.9650  173.3860  138.3290 C   0  0  0  0  0  2  0  0  0  0  0  0
  198.6600  175.6390  139.1800 N   0  0  0  0  0  2  0  0  0  0  0  0
  196.1780  174.1000  138.8210 C   0  0  0  0  0  0  0  0  0  0  0  0
  199.9180  174.1170  137.8150 C   0  0  0  0  0  1  0  0  0  0  0  0
  196.0780  174.8920  139.7960 O   0  0  0  0  0  0  0  0  0  0  0  0
  198.6590  174.5610  138.4680 C   0  0  0  0  0  0  0  0  0  0  0  0
  197.4440  173.8490  138.2000 N   0  0  0  0  0  2  0  0  0  0  0  0
  1  2  2  0  0  0  0
  1  5  1  0  0  0  0
  2  7  1  0  0  0  0
  4  6  1  0  0  0  0
  4  9  1  0  0  0  0
  5  4  2  0  0  0  0
  6  8  1  0  0  0  0
  7  3  1  0  0  0  0
  7  6  2  0  0  0  0
  9 10  1  0  0  0  0
 10 12  1  0  0  0  0
 11  9  2  0  0  0  0
 12 16  1  0  0  0  0
 13 17  1  0  0  0  0
 14 18  2  0  0  0  0
 16 13  2  0  0  0  0
 16 14  1  0  0  0  0
 17 34  1  0  0  0  0
 17 15  2  0  0  0  0
 18 15  1  0  0  0  0
 20 14  1  0  0  0  0
 20 19  2  0  0  0  0
 21 19  1  0  0  0  0
 22 23  2  0  0  0  0
 22 20  1  0  0  0  0
 23 21  1  0  0  0  0
 24 22  1  0  0  0  0
 25 24  1  0  0  0  0
 26 27  2  0  0  0  0
 27 28  1  0  0  0  0
 28 25  1  0  0  0  0
 30 29  1  6  0  0  0
 30 27  1  0  0  0  0
 31 30  1  0  0  0  0
 33 34  1  0  0  0  0
 34 32  1  0  0  0  0
 35  2  1  0  0  0  0
 36 35  2  0  0  0  0
 37 39  1  0  0  0  0
 37 35  1  0  0  0  0
 38 37  2  0  0  0  0
 39 44  1  6  0  0  0
 40 39  1  0  0  0  0
 40 41  1  0  0  0  0
 42 41  1  0  0  0  0
 43 42  1  0  0  0  0
 44 45  1  0  0  0  0
 45 46  1  0  0  0  0
 46 48  1  0  0  0  0
 48 50  2  0  0  0  0
 49 51  1  0  0  0  0
 51 47  2  0  0  0  0
 52 51  1  0  0  0  0
 52 48  1  0  0  0  0
M  END
>  <MODEL>
1

>  <REMARK>
 VINA RESULT:      -9.0      0.000      0.000
  Name = 
  19 active torsions:
  status: ('A' for Active; 'I' for Inactive)
    1  A    between atoms: O_1  and  C_20
    2  A    between atoms: O_1  and  C_36
    3  A    between atoms: C_2  and  C_23
    4  A    between atoms: C_2  and  C_25
    5  A    between atoms: C_3  and  C_9
    6  A    between atoms: C_3  and  C_18
    7  A    between atoms: C_5  and  C_12
    8  A    between atoms: O_6  and  N_21
    9  A    between atoms: O_6  and  C_35
   10  A    between atoms: C_9  and  C_23
   11  A    between atoms: C_13  and  C_16
   12  A    between atoms: C_17  and  C_22
   13  A    between atoms: C_17  and  C_25
   14  A    between atoms: N_21  and  C_23
   15  A    between atoms: C_27  and  C_28
   16  A    between atoms: N_31  and  C_43
   17  A    between atoms: C_32  and  C_43
   18  A    between atoms: C_34  and  N_49
   19  A    between atoms: C_36  and  N_37
                            x       y       z     vdW  Elec       q    Type
                         _______ _______ _______ _____ _____    ______ ____

>  <TORSDO>
F 19

$$$$
=
 OpenBabel10232411413D

 52 54  0  0  1  0  0  0  0  0999 V2000
  186.4100  178.6020  142.9770 C   0  0  0  0  0  3  0  0  0  0  0  0
  185.4420  178.6540  143.9890 C   0  0  0  0  0  0  0  0  0  0  0  0
  182.9870  178.8080  144.6350 C   0  0  0  0  0  1  0  0  0  0  0  0
  184.7160  178.8080  141.2540 C   0  0  0  0  0  0  0  0  0  0  0  0
  186.0530  178.6750  141.6330 C   0  0  0  0  0  3  0  0  0  0  0  0
  183.7240  178.8530  142.2560 C   0  0  0  0  0  0  0  0  0  0  0  0
  184.0810  178.7770  143.6150 C   0  0  0  0  0  0  0  0  0  0  0  0
  182.4100  178.9520  141.9210 F   0  0  0  0  0  0  0  0  0  0  0  0
  184.3890  178.9090  139.8140 C   0  0  0  0  0  0  0  0  0  0  0  0
  183.9860  177.7510  139.0750 N   0  0  0  0  0  2  0  0  0  0  0  0
  184.4310  180.0310  139.2400 O   0  0  0  0  0  0  0  0  0  0  0  0
  183.6510  177.8050  137.6590 C   0  0  0  0  0  2  0  0  0  0  0  0
  182.3270  175.7070  137.5890 C   0  0  0  0  0  3  0  0  0  0  0  0
  184.3220  175.8260  136.1960 C   0  0  0  0  0  0  0  0  0  0  0  0
  182.9670  173.8050  136.2500 C   0  0  0  0  0  3  0  0  0  0  0  0
  183.4340  176.4250  137.1230 C   0  0  0  0  0  0  0  0  0  0  0  0
  182.0790  174.3990  137.1540 C   0  0  0  0  0  0  0  0  0  0  0  0
  184.0750  174.5100  135.7800 C   0  0  0  0  0  3  0  0  0  0  0  0
  185.5170  177.4430  134.5970 C   0  0  0  0  0  3  0  0  0  0  0  0
  185.5040  176.5360  135.6410 C   0  0  2  0  0  3  0  0  0  0  0  0
  186.7840  177.8360  134.3460 N   0  0  0  0  0  0  0  0  0  0  0  0
  186.8220  176.3790  136.0190 C   0  0  0  0  0  0  0  0  0  0  0  0
  187.5900  177.1910  135.2120 C   0  0  0  0  0  3  0  0  0  0  0  0
  187.2830  175.5560  137.0490 O   0  0  0  0  0  0  0  0  0  0  0  0
  187.5450  174.1700  136.8580 C   0  0  0  0  0  2  0  0  0  0  0  0
  190.3420  173.6600  137.3310 N   0  0  0  0  0  2  0  0  0  0  0  0
  189.9150  173.6710  136.1110 C   0  0  0  0  0  0  0  0  0  0  0  0
  188.5520  173.9930  135.8190 N   0  0  0  0  0  2  0  0  0  0  0  0
  191.6590  172.1620  135.2270 C   0  0  0  0  0  1  0  0  0  0  0  0
  190.8820  173.4440  134.9980 C   0  0  2  0  0  3  0  0  0  0  0  0
  191.7680  174.5170  134.9100 O   0  0  0  0  0  1  0  0  0  0  0  0
  180.7150  172.4050  137.2550 O   0  0  0  0  0  1  0  0  0  0  0  0
  180.0010  174.2940  138.5780 C   0  0  0  0  0  1  0  0  0  0  0  0
  180.9280  173.6870  137.6370 N   0  0  0  0  0  0  0  0  0  0  0  0
  185.8850  178.6160  145.4130 C   0  0  0  0  0  0  0  0  0  0  0  0
  185.3700  179.4120  146.2440 O   0  0  0  0  0  0  0  0  0  0  0  0
  186.9350  177.6880  145.8910 C   0  0  0  0  0  0  0  0  0  0  0  0
  186.6380  176.5280  146.2880 O   0  0  0  0  0  0  0  0  0  0  0  0
  188.3700  178.1210  145.8840 C   0  0  1  0  0  3  0  0  0  0  0  0
  189.0190  177.7430  147.1310 N   0  0  0  0  0  2  0  0  0  0  0  0
  189.6740  176.5810  146.9010 O   0  0  0  0  0  0  0  0  0  0  0  0
  190.9170  176.7520  147.5130 C   0  0  0  0  0  2  0  0  0  0  0  0
  191.9780  176.0250  146.7140 C   0  0  0  0  0  1  0  0  0  0  0  0
  189.0850  177.4930  144.6980 C   0  0  0  0  0  2  0  0  0  0  0  0
  190.1790  178.4140  144.1830 C   0  0  0  0  0  2  0  0  0  0  0  0
  191.2260  177.6230  143.4150 C   0  0  0  0  0  2  0  0  0  0  0  0
  189.8950  176.3180  139.4170 N   0  0  0  0  0  2  0  0  0  0  0  0
  190.6540  177.0410  142.1660 C   0  0  0  0  0  0  0  0  0  0  0  0
  189.0460  178.5180  138.9670 C   0  0  0  0  0  1  0  0  0  0  0  0
  190.6220  175.7900  142.0240 O   0  0  0  0  0  0  0  0  0  0  0  0
  189.6720  177.5100  139.8630 C   0  0  0  0  0  0  0  0  0  0  0  0
  190.1190  177.9130  141.1630 N   0  0  0  0  0  2  0  0  0  0  0  0
  1  2  1  0  0  0  0
  2 35  1  0  0  0  0
  4  5  1  0  0  0  0
  4  6  2  0  0  0  0
  5  1  2  0  0  0  0
  6  7  1  0  0  0  0
  7  2  2  0  0  0  0
  7  3  1  0  0  0  0
  8  6  1  0  0  0  0
  9  4  1  0  0  0  0
 10  9  1  0  0  0  0
 11  9  2  0  0  0  0
 12 10  1  0  0  0  0
 14 16  1  0  0  0  0
 15 17  2  0  0  0  0
 16 13  2  0  0  0  0
 16 12  1  0  0  0  0
 17 13  1  0  0  0  0
 17 34  1  0  0  0  0
 18 14  2  0  0  0  0
 18 15  1  0  0  0  0
 19 20  1  0  0  0  0
 20 22  1  0  0  0  0
 20 14  1  6  0  0  0
 21 19  2  0  0  0  0
 21 23  1  0  0  0  0
 22 24  1  0  0  0  0
 23 22  2  0  0  0  0
 25 24  1  0  0  0  0
 27 26  2  0  0  0  0
 28 27  1  0  0  0  0
 28 25  1  0  0  0  0
 30 29  1  1  0  0  0
 30 27  1  0  0  0  0
 31 30  1  0  0  0  0
 32 34  1  0  0  0  0
 34 33  1  0  0  0  0
 35 37  1  0  0  0  0
 35 36  2  0  0  0  0
 37 38  2  0  0  0  0
 39 44  1  6  0  0  0
 39 37  1  0  0  0  0
 39 40  1  0  0  0  0
 41 40  1  0  0  0  0
 41 42  1  0  0  0  0
 43 42  1  0  0  0  0
 45 44  1  0  0  0  0
 46 45  1  0  0  0  0
 47 51  2  0  0  0  0
 48 46  1  0  0  0  0
 49 51  1  0  0  0  0
 50 48  2  0  0  0  0
 51 52  1  0  0  0  0
 52 48  1  0  0  0  0
M  END
>  <MODEL>
2

>  <REMARK>
 VINA RESULT:      -8.4      3.635      9.973
  Name = 
  19 active torsions:
  status: ('A' for Active; 'I' for Inactive)
    1  A    between atoms: O_1  and  C_20
    2  A    between atoms: O_1  and  C_36
    3  A    between atoms: C_2  and  C_23
    4  A    between atoms: C_2  and  C_25
    5  A    between atoms: C_3  and  C_9
    6  A    between atoms: C_3  and  C_18
    7  A    between atoms: C_5  and  C_12
    8  A    between atoms: O_6  and  N_21
    9  A    between atoms: O_6  and  C_35
   10  A    between atoms: C_9  and  C_23
   11  A    between atoms: C_13  and  C_16
   12  A    between atoms: C_17  and  C_22
   13  A    between atoms: C_17  and  C_25
   14  A    between atoms: N_21  and  C_23
   15  A    between atoms: C_27  and  C_28
   16  A    between atoms: N_31  and  C_43
   17  A    between atoms: C_32  and  C_43
   18  A    between atoms: C_34  and  N_49
   19  A    between atoms: C_36  and  N_37
                            x       y       z     vdW  Elec       q    Type
                         _______ _______ _______ _____ _____    ______ ____

>  <TORSDO>
F 19

$$$$
=
 OpenBabel10232411413D

 52 54  0  0  1  0  0  0  0  0999 V2000
  189.1880  178.1750  140.8570 C   0  0  0  0  0  3  0  0  0  0  0  0
  190.4300  177.6190  140.5260 C   0  0  0  0  0  0  0  0  0  0  0  0
  191.9630  176.6360  138.7490 C   0  0  0  0  0  1  0  0  0  0  0  0
  188.3900  177.9120  138.5820 C   0  0  0  0  0  0  0  0  0  0  0  0
  188.1860  178.3220  139.9010 C   0  0  0  0  0  3  0  0  0  0  0  0
  189.6370  177.3580  138.2250 C   0  0  0  0  0  0  0  0  0  0  0  0
  190.6530  177.2100  139.1880 C   0  0  0  0  0  0  0  0  0  0  0  0
  189.8790  176.9760  136.9430 F   0  0  0  0  0  0  0  0  0  0  0  0
  187.2850  178.0640  137.6080 C   0  0  0  0  0  0  0  0  0  0  0  0
  186.3420  177.0070  137.4040 N   0  0  0  0  0  2  0  0  0  0  0  0
  187.1520  179.1480  136.9780 O   0  0  0  0  0  0  0  0  0  0  0  0
  185.2380  177.1160  136.4620 C   0  0  0  0  0  2  0  0  0  0  0  0
  185.9540  174.8780  135.6600 C   0  0  0  0  0  3  0  0  0  0  0  0
  183.5760  175.3980  135.5710 C   0  0  0  0  0  0  0  0  0  0  0  0
  184.4080  173.2550  134.7690 C   0  0  0  0  0  3  0  0  0  0  0  0
  184.9030  175.7710  135.8960 C   0  0  0  0  0  0  0  0  0  0  0  0
  185.7180  173.6150  135.1050 C   0  0  0  0  0  0  0  0  0  0  0  0
  183.3520  174.1370  134.9990 C   0  0  0  0  0  3  0  0  0  0  0  0
  181.9210  177.2680  134.9750 C   0  0  0  0  0  3  0  0  0  0  0  0
  182.4080  176.2840  135.8140 C   0  0  2  0  0  3  0  0  0  0  0  0
  180.8790  177.8970  135.5600 N   0  0  0  0  0  0  0  0  0  0  0  0
  181.6260  176.3380  136.9500 C   0  0  0  0  0  0  0  0  0  0  0  0
  180.6900  177.3340  136.7690 C   0  0  0  0  0  3  0  0  0  0  0  0
  181.7560  175.5130  138.0700 O   0  0  0  0  0  0  0  0  0  0  0  0
  181.9200  176.0330  139.3840 C   0  0  0  0  0  2  0  0  0  0  0  0
  182.1160  178.8790  139.8000 N   0  0  0  0  0  2  0  0  0  0  0  0
  183.2070  178.1870  139.7490 C   0  0  0  0  0  0  0  0  0  0  0  0
  183.1670  176.7840  139.4710 N   0  0  0  0  0  2  0  0  0  0  0  0
  184.8370  179.1350  141.3430 C   0  0  0  0  0  1  0  0  0  0  0  0
  184.5190  178.8840  139.8820 C   0  0  2  0  0  3  0  0  0  0  0  0
  184.4860  180.0980  139.1960 O   0  0  0  0  0  1  0  0  0  0  0  0
  188.0760  173.0840  135.1990 O   0  0  0  0  0  1  0  0  0  0  0  0
  186.5930  171.3660  134.3760 C   0  0  0  0  0  1  0  0  0  0  0  0
  186.8130  172.7100  134.8840 N   0  0  0  0  0  0  0  0  0  0  0  0
  191.4510  177.4450  141.6000 C   0  0  0  0  0  0  0  0  0  0  0  0
  192.5560  176.9030  141.3250 O   0  0  0  0  0  0  0  0  0  0  0  0
  191.2080  177.8640  142.9990 C   0  0  0  0  0  0  0  0  0  0  0  0
  191.4500  179.0450  143.3690 O   0  0  0  0  0  0  0  0  0  0  0  0
  190.6460  176.8820  143.9830 C   0  0  1  0  0  3  0  0  0  0  0  0
  191.5260  176.7630  145.1360 N   0  0  0  0  0  2  0  0  0  0  0  0
  190.7530  176.4130  146.1910 O   0  0  0  0  0  0  0  0  0  0  0  0
  191.4950  176.7920  147.3110 C   0  0  0  0  0  2  0  0  0  0  0  0
  192.3990  175.6510  147.7280 C   0  0  0  0  0  1  0  0  0  0  0  0
  189.2590  177.3310  144.4140 C   0  0  0  0  0  2  0  0  0  0  0  0
  188.1930  176.4360  143.8030 C   0  0  0  0  0  2  0  0  0  0  0  0
  186.9240  177.2270  143.5270 C   0  0  0  0  0  2  0  0  0  0  0  0
  185.7660  179.1740  147.3120 N   0  0  0  0  0  2  0  0  0  0  0  0
  186.3480  177.7810  144.7870 C   0  0  0  0  0  0  0  0  0  0  0  0
  187.6100  178.1220  148.4320 C   0  0  0  0  0  1  0  0  0  0  0  0
  185.1820  178.2580  144.7780 O   0  0  0  0  0  0  0  0  0  0  0  0
  186.7560  178.3470  147.2370 C   0  0  0  0  0  0  0  0  0  0  0  0
  187.1170  177.7310  145.9940 N   0  0  0  0  0  2  0  0  0  0  0  0
  2  1  1  0  0  0  0
  2 35  1  0  0  0  0
  3  7  1  0  0  0  0
  4  5  1  0  0  0  0
  5  1  2  0  0  0  0
  6  4  2  0  0  0  0
  6  7  1  0  0  0  0
  7  2  2  0  0  0  0
  8  6  1  0  0  0  0
  9  4  1  0  0  0  0
 10  9  1  0  0  0  0
 11  9  2  0  0  0  0
 12 10  1  0  0  0  0
 13 16  1  0  0  0  0
 14 16  2  0  0  0  0
 15 18  2  0  0  0  0
 15 17  1  0  0  0  0
 16 12  1  0  0  0  0
 17 13  2  0  0  0  0
 18 14  1  0  0  0  0
 19 21  2  0  0  0  0
 19 20  1  0  0  0  0
 20 14  1  1  0  0  0
 20 22  1  0  0  0  0
 21 23  1  0  0  0  0
 22 24  1  0  0  0  0
 23 22  2  0  0  0  0
 24 25  1  0  0  0  0
 25 28  1  0  0  0  0
 27 26  2  0  0  0  0
 27 30  1  0  0  0  0
 28 27  1  0  0  0  0
 30 29  1  1  0  0  0
 31 30  1  0  0  0  0
 33 34  1  0  0  0  0
 34 17  1  0  0  0  0
 34 32  1  0  0  0  0
 35 37  1  0  0  0  0
 36 35  2  0  0  0  0
 37 38  2  0  0  0  0
 37 39  1  0  0  0  0
 39 44  1  1  0  0  0
 39 40  1  0  0  0  0
 40 41  1  0  0  0  0
 41 42  1  0  0  0  0
 42 43  1  0  0  0  0
 45 44  1  0  0  0  0
 46 45  1  0  0  0  0
 46 48  1  0  0  0  0
 48 52  1  0  0  0  0
 50 48  2  0  0  0  0
 51 47  2  0  0  0  0
 51 49  1  0  0  0  0
 52 51  1  0  0  0  0
M  END
>  <MODEL>
3

>  <REMARK>
 VINA RESULT:      -8.2      3.562      9.251
  Name = 
  19 active torsions:
  status: ('A' for Active; 'I' for Inactive)
    1  A    between atoms: O_1  and  C_20
    2  A    between atoms: O_1  and  C_36
    3  A    between atoms: C_2  and  C_23
    4  A    between atoms: C_2  and  C_25
    5  A    between atoms: C_3  and  C_9
    6  A    between atoms: C_3  and  C_18
    7  A    between atoms: C_5  and  C_12
    8  A    between atoms: O_6  and  N_21
    9  A    between atoms: O_6  and  C_35
   10  A    between atoms: C_9  and  C_23
   11  A    between atoms: C_13  and  C_16
   12  A    between atoms: C_17  and  C_22
   13  A    between atoms: C_17  and  C_25
   14  A    between atoms: N_21  and  C_23
   15  A    between atoms: C_27  and  C_28
   16  A    between atoms: N_31  and  C_43
   17  A    between atoms: C_32  and  C_43
   18  A    between atoms: C_34  and  N_49
   19  A    between atoms: C_36  and  N_37
                            x       y       z     vdW  Elec       q    Type
                         _______ _______ _______ _____ _____    ______ ____

>  <TORSDO>
F 19

$$$$
=
 OpenBabel10232411413D

 52 54  0  0  1  0  0  0  0  0999 V2000
  188.0780  178.2940  141.8400 C   0  0  0  0  0  3  0  0  0  0  0  0
  186.7900  178.5740  141.3660 C   0  0  0  0  0  0  0  0  0  0  0  0
  185.1660  178.6410  139.4100 C   0  0  0  0  0  1  0  0  0  0  0  0
  188.8330  177.6810  139.6190 C   0  0  0  0  0  0  0  0  0  0  0  0
  189.0820  177.8520  140.9820 C   0  0  0  0  0  3  0  0  0  0  0  0
  187.5410  177.9480  139.1220 C   0  0  0  0  0  0  0  0  0  0  0  0
  186.5230  178.3930  139.9860 C   0  0  0  0  0  0  0  0  0  0  0  0
  187.2570  177.7630  137.8060 F   0  0  0  0  0  0  0  0  0  0  0  0
  189.9400  177.2350  138.7430 C   0  0  0  0  0  0  0  0  0  0  0  0
  190.6970  176.0630  139.0620 N   0  0  0  0  0  2  0  0  0  0  0  0
  190.1970  177.8730  137.6850 O   0  0  0  0  0  0  0  0  0  0  0  0
  191.7890  175.5860  138.2270 C   0  0  0  0  0  2  0  0  0  0  0  0
  189.9660  174.2080  137.2580 C   0  0  0  0  0  3  0  0  0  0  0  0
  192.0380  174.3870  135.9880 C   0  0  0  0  0  0  0  0  0  0  0  0
  190.1930  173.0270  135.1670 C   0  0  0  0  0  3  0  0  0  0  0  0
  191.2620  174.7200  137.1250 C   0  0  0  0  0  0  0  0  0  0  0  0
  189.4180  173.3680  136.2810 C   0  0  0  0  0  0  0  0  0  0  0  0
  191.4870  173.5300  135.0240 C   0  0  0  0  0  3  0  0  0  0  0  0
  193.7630  176.0760  135.1150 C   0  0  0  0  0  3  0  0  0  0  0  0
  193.4110  174.9110  135.7700 C   0  0  2  0  0  3  0  0  0  0  0  0
  195.1080  176.1910  135.0730 N   0  0  0  0  0  0  0  0  0  0  0  0
  194.5990  174.3050  136.1250 C   0  0  0  0  0  0  0  0  0  0  0  0
  195.6290  175.1120  135.6890 C   0  0  0  0  0  3  0  0  0  0  0  0
  194.7250  173.0980  136.8170 O   0  0  0  0  0  0  0  0  0  0  0  0
  194.7830  173.0370  138.2370 C   0  0  0  0  0  2  0  0  0  0  0  0
  195.4080  175.4540  139.6790 N   0  0  0  0  0  2  0  0  0  0  0  0
  196.3540  174.5970  139.4720 C   0  0  0  0  0  0  0  0  0  0  0  0
  196.1120  173.4180  138.6980 N   0  0  0  0  0  2  0  0  0  0  0  0
  197.6710  175.5540  141.3290 C   0  0  0  0  0  1  0  0  0  0  0  0
  197.7300  174.8990  139.9620 C   0  0  2  0  0  3  0  0  0  0  0  0
  198.3810  175.7460  139.0660 O   0  0  0  0  0  1  0  0  0  0  0  0
  187.7930  171.9900  137.4250 O   0  0  0  0  0  1  0  0  0  0  0  0
  187.0000  173.3170  135.5700 C   0  0  0  0  0  1  0  0  0  0  0  0
  188.0800  172.8650  136.4320 N   0  0  0  0  0  0  0  0  0  0  0  0
  185.7660  179.0870  142.3220 C   0  0  0  0  0  0  0  0  0  0  0  0
  185.3050  180.2510  142.1730 O   0  0  0  0  0  0  0  0  0  0  0  0
  185.2800  178.2850  143.4680 C   0  0  0  0  0  0  0  0  0  0  0  0
  185.7200  177.1190  143.6700 O   0  0  0  0  0  0  0  0  0  0  0  0
  184.2740  178.8680  144.4120 C   0  0  1  0  0  3  0  0  0  0  0  0
  182.9380  178.3900  144.0870 N   0  0  0  0  0  2  0  0  0  0  0  0
  182.6290  178.8770  142.8620 O   0  0  0  0  0  0  0  0  0  0  0  0
  181.3460  179.4080  143.0080 C   0  0  0  0  0  2  0  0  0  0  0  0
  180.4870  178.4430  143.7980 C   0  0  0  0  0  1  0  0  0  0  0  0
  184.6410  178.4970  145.8400 C   0  0  0  0  0  2  0  0  0  0  0  0
  185.9330  179.1810  146.2550 C   0  0  0  0  0  2  0  0  0  0  0  0
  186.3700  178.7070  147.6330 C   0  0  0  0  0  2  0  0  0  0  0  0
  190.3750  176.9410  147.0860 N   0  0  0  0  0  2  0  0  0  0  0  0
  187.6500  177.9450  147.5610 C   0  0  0  0  0  0  0  0  0  0  0  0
  190.0770  176.9720  144.7040 C   0  0  0  0  0  1  0  0  0  0  0  0
  188.1340  177.4460  148.6120 O   0  0  0  0  0  0  0  0  0  0  0  0
  189.5870  177.1850  146.0910 C   0  0  0  0  0  0  0  0  0  0  0  0
  188.2920  177.7640  146.2940 N   0  0  0  0  0  2  0  0  0  0  0  0
  2  1  1  0  0  0  0
  2 35  1  0  0  0  0
  3  7  1  0  0  0  0
  4  5  1  0  0  0  0
  5  1  2  0  0  0  0
  6  4  2  0  0  0  0
  6  7  1  0  0  0  0
  7  2  2  0  0  0  0
  8  6  1  0  0  0  0
  9 10  1  0  0  0  0
  9  4  1  0  0  0  0
 11  9  2  0  0  0  0
 12 10  1  0  0  0  0
 14 16  2  0  0  0  0
 15 17  1  0  0  0  0
 16 13  1  0  0  0  0
 16 12  1  0  0  0  0
 17 34  1  0  0  0  0
 17 13  2  0  0  0  0
 18 15  2  0  0  0  0
 18 14  1  0  0  0  0
 19 20  1  0  0  0  0
 20 14  1  6  0  0  0
 20 22  1  0  0  0  0
 21 19  2  0  0  0  0
 21 23  1  0  0  0  0
 22 24  1  0  0  0  0
 23 22  2  0  0  0  0
 24 25  1  0  0  0  0
 25 28  1  0  0  0  0
 27 26  2  0  0  0  0
 27 30  1  0  0  0  0
 28 27  1  0  0  0  0
 30 29  1  1  0  0  0
 31 30  1  0  0  0  0
 33 34  1  0  0  0  0
 34 32  1  0  0  0  0
 35 37  1  0  0  0  0
 36 35  2  0  0  0  0
 37 38  2  0  0  0  0
 37 39  1  0  0  0  0
 39 44  1  1  0  0  0
 40 39  1  0  0  0  0
 41 42  1  0  0  0  0
 41 40  1  0  0  0  0
 42 43  1  0  0  0  0
 44 45  1  0  0  0  0
 45 46  1  0  0  0  0
 48 46  1  0  0  0  0
 48 50  2  0  0  0  0
 49 51  1  0  0  0  0
 51 52  1  0  0  0  0
 51 47  2  0  0  0  0
 52 48  1  0  0  0  0
M  END
>  <MODEL>
4

>  <REMARK>
 VINA RESULT:      -8.2      2.353     11.205
  Name = 
  19 active torsions:
  status: ('A' for Active; 'I' for Inactive)
    1  A    between atoms: O_1  and  C_20
    2  A    between atoms: O_1  and  C_36
    3  A    between atoms: C_2  and  C_23
    4  A    between atoms: C_2  and  C_25
    5  A    between atoms: C_3  and  C_9
    6  A    between atoms: C_3  and  C_18
    7  A    between atoms: C_5  and  C_12
    8  A    between atoms: O_6  and  N_21
    9  A    between atoms: O_6  and  C_35
   10  A    between atoms: C_9  and  C_23
   11  A    between atoms: C_13  and  C_16
   12  A    between atoms: C_17  and  C_22
   13  A    between atoms: C_17  and  C_25
   14  A    between atoms: N_21  and  C_23
   15  A    between atoms: C_27  and  C_28
   16  A    between atoms: N_31  and  C_43
   17  A    between atoms: C_32  and  C_43
   18  A    between atoms: C_34  and  N_49
   19  A    between atoms: C_36  and  N_37
                            x       y       z     vdW  Elec       q    Type
                         _______ _______ _______ _____ _____    ______ ____

>  <TORSDO>
F 19

$$$$
=
 OpenBabel10232411413D

 52 54  0  0  1  0  0  0  0  0999 V2000
  188.8280  177.9270  141.6130 C   0  0  0  0  0  3  0  0  0  0  0  0
  190.1790  177.6380  141.3820 C   0  0  0  0  0  0  0  0  0  0  0  0
  192.0590  177.2440  139.7130 C   0  0  0  0  0  1  0  0  0  0  0  0
  188.3610  177.9640  139.2330 C   0  0  0  0  0  0  0  0  0  0  0  0
  187.9350  178.0900  140.5570 C   0  0  0  0  0  3  0  0  0  0  0  0
  189.7190  177.6830  138.9780 C   0  0  0  0  0  0  0  0  0  0  0  0
  190.6260  177.5200  140.0420 C   0  0  0  0  0  0  0  0  0  0  0  0
  190.1740  177.5840  137.7000 F   0  0  0  0  0  0  0  0  0  0  0  0
  187.3690  178.1200  138.1460 C   0  0  0  0  0  0  0  0  0  0  0  0
  186.2450  177.2380  138.0520 N   0  0  0  0  0  2  0  0  0  0  0  0
  187.4940  179.0590  137.3140 O   0  0  0  0  0  0  0  0  0  0  0  0
  185.2430  177.3580  137.0030 C   0  0  0  0  0  2  0  0  0  0  0  0
  186.2860  175.2270  136.2760 C   0  0  0  0  0  3  0  0  0  0  0  0
  184.1520  175.8360  135.2710 C   0  0  0  0  0  0  0  0  0  0  0  0
  185.2980  173.7940  134.6060 C   0  0  0  0  0  3  0  0  0  0  0  0
  185.2100  176.1150  136.1700 C   0  0  0  0  0  0  0  0  0  0  0  0
  186.3370  174.0590  135.5060 C   0  0  0  0  0  0  0  0  0  0  0  0
  184.2210  174.6720  134.4900 C   0  0  0  0  0  3  0  0  0  0  0  0
  182.8750  177.8640  134.3490 C   0  0  0  0  0  3  0  0  0  0  0  0
  182.9680  176.7210  135.1220 C   0  0  2  0  0  3  0  0  0  0  0  0
  181.6590  178.4280  134.5080 N   0  0  0  0  0  0  0  0  0  0  0  0
  181.7570  176.6080  135.7740 C   0  0  0  0  0  0  0  0  0  0  0  0
  180.9670  177.6670  135.3780 C   0  0  0  0  0  3  0  0  0  0  0  0
  181.3990  175.5900  136.6610 O   0  0  0  0  0  0  0  0  0  0  0  0
  180.6400  175.8380  137.8380 C   0  0  0  0  0  2  0  0  0  0  0  0
  182.8290  176.2110  139.6760 N   0  0  0  0  0  2  0  0  0  0  0  0
  182.1730  177.2520  139.2790 C   0  0  0  0  0  0  0  0  0  0  0  0
  181.0330  177.1120  138.4260 N   0  0  0  0  0  2  0  0  0  0  0  0
  181.3380  179.3140  140.3510 C   0  0  0  0  0  1  0  0  0  0  0  0
  182.5550  178.5970  139.7990 C   0  0  2  0  0  3  0  0  0  0  0  0
  183.1240  179.3590  138.7800 O   0  0  0  0  0  1  0  0  0  0  0  0
  188.3420  173.3270  136.6420 O   0  0  0  0  0  1  0  0  0  0  0  0
  187.6050  172.0130  134.7560 C   0  0  0  0  0  1  0  0  0  0  0  0
  187.4460  173.1550  135.6420 N   0  0  0  0  0  0  0  0  0  0  0  0
  191.0820  177.4300  142.5510 C   0  0  0  0  0  0  0  0  0  0  0  0
  192.0210  176.5930  142.4690 O   0  0  0  0  0  0  0  0  0  0  0  0
  190.9030  178.1560  143.8290 C   0  0  0  0  0  0  0  0  0  0  0  0
  191.0900  179.4030  143.8930 O   0  0  0  0  0  0  0  0  0  0  0  0
  190.4730  177.4100  145.0550 C   0  0  1  0  0  3  0  0  0  0  0  0
  191.6050  177.2050  145.9460 N   0  0  0  0  0  2  0  0  0  0  0  0
  192.0750  175.9580  145.7110 O   0  0  0  0  0  0  0  0  0  0  0  0
  191.9610  175.3030  146.9380 C   0  0  0  0  0  2  0  0  0  0  0  0
  192.3200  176.2580  148.0570 C   0  0  0  0  0  1  0  0  0  0  0  0
  189.3710  178.1840  145.7610 C   0  0  0  0  0  2  0  0  0  0  0  0
  188.1880  177.2780  146.0600 C   0  0  0  0  0  2  0  0  0  0  0  0
  187.2960  177.8980  147.1250 C   0  0  0  0  0  2  0  0  0  0  0  0
  183.5780  179.1920  145.1350 N   0  0  0  0  0  2  0  0  0  0  0  0
  186.0900  178.5320  146.5170 C   0  0  0  0  0  0  0  0  0  0  0  0
  184.4080  178.3860  143.0320 C   0  0  0  0  0  1  0  0  0  0  0  0
  185.3960  179.3280  147.2030 O   0  0  0  0  0  0  0  0  0  0  0  0
  184.5630  178.6690  144.4830 C   0  0  0  0  0  0  0  0  0  0  0  0
  185.7590  178.2510  145.1520 N   0  0  0  0  0  2  0  0  0  0  0  0
  2  1  1  0  0  0  0
  2 35  1  0  0  0  0
  3  7  1  0  0  0  0
  4  5  1  0  0  0  0
  5  1  2  0  0  0  0
  6  4  2  0  0  0  0
  6  7  1  0  0  0  0
  7  2  2  0  0  0  0
  8  6  1  0  0  0  0
  9  4  1  0  0  0  0
 10  9  1  0  0  0  0
 11  9  2  0  0  0  0
 12 10  1  0  0  0  0
 14 16  2  0  0  0  0
 15 17  1  0  0  0  0
 16 13  1  0  0  0  0
 16 12  1  0  0  0  0
 17 34  1  0  0  0  0
 17 13  2  0  0  0  0
 18 15  2  0  0  0  0
 18 14  1  0  0  0  0
 19 21  2  0  0  0  0
 19 20  1  0  0  0  0
 20 14  1  1  0  0  0
 20 22  1  0  0  0  0
 21 23  1  0  0  0  0
 22 24  1  0  0  0  0
 23 22  2  0  0  0  0
 24 25  1  0  0  0  0
 25 28  1  0  0  0  0
 27 26  2  0  0  0  0
 27 30  1  0  0  0  0
 28 27  1  0  0  0  0
 30 29  1  6  0  0  0
 31 30  1  0  0  0  0
 33 34  1  0  0  0  0
 34 32  1  0  0  0  0
 35 37  1  0  0  0  0
 36 35  2  0  0  0  0
 37 38  2  0  0  0  0
 37 39  1  0  0  0  0
 39 44  1  1  0  0  0
 39 40  1  0  0  0  0
 41 40  1  0  0  0  0
 41 42  1  0  0  0  0
 42 43  1  0  0  0  0
 44 45  1  0  0  0  0
 45 46  1  0  0  0  0
 48 46  1  0  0  0  0
 48 50  2  0  0  0  0
 49 51  1  0  0  0  0
 51 47  2  0  0  0  0
 51 52  1  0  0  0  0
 52 48  1  0  0  0  0
M  END
>  <MODEL>
5

>  <REMARK>
 VINA RESULT:      -8.1      3.763      9.589
  Name = 
  19 active torsions:
  status: ('A' for Active; 'I' for Inactive)
    1  A    between atoms: O_1  and  C_20
    2  A    between atoms: O_1  and  C_36
    3  A    between atoms: C_2  and  C_23
    4  A    between atoms: C_2  and  C_25
    5  A    between atoms: C_3  and  C_9
    6  A    between atoms: C_3  and  C_18
    7  A    between atoms: C_5  and  C_12
    8  A    between atoms: O_6  and  N_21
    9  A    between atoms: O_6  and  C_35
   10  A    between atoms: C_9  and  C_23
   11  A    between atoms: C_13  and  C_16
   12  A    between atoms: C_17  and  C_22
   13  A    between atoms: C_17  and  C_25
   14  A    between atoms: N_21  and  C_23
   15  A    between atoms: C_27  and  C_28
   16  A    between atoms: N_31  and  C_43
   17  A    between atoms: C_32  and  C_43
   18  A    between atoms: C_34  and  N_49
   19  A    between atoms: C_36  and  N_37
                            x       y       z     vdW  Elec       q    Type
                         _______ _______ _______ _____ _____    ______ ____

>  <TORSDO>
F 19

$$$$
=
 OpenBabel10232411413D

 52 54  0  0  1  0  0  0  0  0999 V2000
  185.1060  179.0790  141.8930 C   0  0  0  0  0  3  0  0  0  0  0  0
  184.1710  179.1240  142.9340 C   0  0  0  0  0  0  0  0  0  0  0  0
  181.7660  178.8150  143.7050 C   0  0  0  0  0  1  0  0  0  0  0  0
  183.3930  178.4600  140.2920 C   0  0  0  0  0  0  0  0  0  0  0  0
  184.7250  178.7500  140.5940 C   0  0  0  0  0  3  0  0  0  0  0  0
  182.4360  178.4900  141.3280 C   0  0  0  0  0  0  0  0  0  0  0  0
  182.8180  178.8190  142.6410 C   0  0  0  0  0  0  0  0  0  0  0  0
  181.1360  178.1830  141.0740 F   0  0  0  0  0  0  0  0  0  0  0  0
  183.0320  178.1420  138.8920 C   0  0  0  0  0  0  0  0  0  0  0  0
  183.4420  176.9080  138.2950 N   0  0  0  0  0  2  0  0  0  0  0  0
  182.3260  178.9500  138.2290 O   0  0  0  0  0  0  0  0  0  0  0  0
  183.1050  176.5530  136.9240 C   0  0  0  0  0  2  0  0  0  0  0  0
  183.1080  174.0770  136.7510 C   0  0  0  0  0  3  0  0  0  0  0  0
  185.0960  175.2600  135.9890 C   0  0  0  0  0  0  0  0  0  0  0  0
  184.9950  172.8290  135.9140 C   0  0  0  0  0  3  0  0  0  0  0  0
  183.7890  175.2800  136.5340 C   0  0  0  0  0  0  0  0  0  0  0  0
  183.6970  172.8460  136.4380 C   0  0  0  0  0  0  0  0  0  0  0  0
  185.6850  174.0210  135.6950 C   0  0  0  0  0  3  0  0  0  0  0  0
  185.8830  177.2240  134.5330 C   0  0  0  0  0  3  0  0  0  0  0  0
  185.8700  176.4980  135.7100 C   0  0  2  0  0  3  0  0  0  0  0  0
  186.7460  178.2570  134.6420 N   0  0  0  0  0  0  0  0  0  0  0  0
  186.7680  177.1240  136.5490 C   0  0  0  0  0  0  0  0  0  0  0  0
  187.2920  178.2060  135.8720 C   0  0  0  0  0  3  0  0  0  0  0  0
  187.0730  176.7350  137.8550 O   0  0  0  0  0  0  0  0  0  0  0  0
  188.1440  177.3140  138.5930 C   0  0  0  0  0  2  0  0  0  0  0  0
  190.6680  177.6620  139.9400 N   0  0  0  0  0  2  0  0  0  0  0  0
  190.6260  176.8960  138.9000 C   0  0  0  0  0  0  0  0  0  0  0  0
  189.4140  176.7490  138.1530 N   0  0  0  0  0  2  0  0  0  0  0  0
  193.0900  176.8990  139.0590 C   0  0  0  0  0  1  0  0  0  0  0  0
  191.8790  176.2430  138.4230 C   0  0  2  0  0  3  0  0  0  0  0  0
  191.9700  176.3420  137.0350 O   0  0  0  0  0  1  0  0  0  0  0  0
  183.5930  170.4310  136.5010 O   0  0  0  0  0  1  0  0  0  0  0  0
  181.5880  171.6340  137.1000 C   0  0  0  0  0  1  0  0  0  0  0  0
  182.9730  171.6240  136.6570 N   0  0  0  0  0  0  0  0  0  0  0  0
  184.6270  179.5250  144.2970 C   0  0  0  0  0  0  0  0  0  0  0  0
  184.9840  180.7160  144.5060 O   0  0  0  0  0  0  0  0  0  0  0  0
  184.7030  178.5640  145.4210 C   0  0  0  0  0  0  0  0  0  0  0  0
  183.7280  178.4170  146.2090 O   0  0  0  0  0  0  0  0  0  0  0  0
  185.9400  177.7410  145.6150 C   0  0  1  0  0  3  0  0  0  0  0  0
  186.4920  177.3470  144.3280 N   0  0  0  0  0  2  0  0  0  0  0  0
  187.6440  178.0380  144.1610 O   0  0  0  0  0  0  0  0  0  0  0  0
  188.1630  177.5690  142.9530 C   0  0  0  0  0  2  0  0  0  0  0  0
  188.5200  176.1040  143.0910 C   0  0  0  0  0  1  0  0  0  0  0  0
  186.9600  178.5380  146.4130 C   0  0  0  0  0  2  0  0  0  0  0  0
  187.4210  177.7500  147.6290 C   0  0  0  0  0  2  0  0  0  0  0  0
  188.8750  178.0640  147.9490 C   0  0  0  0  0  2  0  0  0  0  0  0
  191.9870  176.1600  145.4700 N   0  0  0  0  0  2  0  0  0  0  0  0
  189.8000  177.2490  147.1100 C   0  0  0  0  0  0  0  0  0  0  0  0
  191.7010  177.8500  143.7890 C   0  0  0  0  0  1  0  0  0  0  0  0
  190.0840  176.0730  147.4630 O   0  0  0  0  0  0  0  0  0  0  0  0
  191.3290  177.1990  145.0730 C   0  0  0  0  0  0  0  0  0  0  0  0
  190.3260  177.8030  145.8980 N   0  0  0  0  0  2  0  0  0  0  0  0
  1  2  1  0  0  0  0
  2 35  1  0  0  0  0
  4  5  1  0  0  0  0
  4  6  2  0  0  0  0
  5  1  2  0  0  0  0
  6  7  1  0  0  0  0
  7  2  2  0  0  0  0
  7  3  1  0  0  0  0
  8  6  1  0  0  0  0
  9  4  1  0  0  0  0
 10  9  1  0  0  0  0
 11  9  2  0  0  0  0
 12 10  1  0  0  0  0
 14 16  2  0  0  0  0
 15 17  1  0  0  0  0
 16 13  1  0  0  0  0
 16 12  1  0  0  0  0
 17 34  1  0  0  0  0
 17 13  2  0  0  0  0
 18 15  2  0  0  0  0
 18 14  1  0  0  0  0
 19 21  2  0  0  0  0
 19 20  1  0  0  0  0
 20 14  1  6  0  0  0
 20 22  1  0  0  0  0
 21 23  1  0  0  0  0
 22 24  1  0  0  0  0
 23 22  2  0  0  0  0
 24 25  1  0  0  0  0
 27 26  2  0  0  0  0
 28 25  1  0  0  0  0
 28 27  1  0  0  0  0
 30 27  1  0  0  0  0
 30 29  1  1  0  0  0
 31 30  1  0  0  0  0
 32 34  1  0  0  0  0
 34 33  1  0  0  0  0
 35 36  2  0  0  0  0
 35 37  1  0  0  0  0
 37 39  1  0  0  0  0
 37 38  2  0  0  0  0
 39 44  1  6  0  0  0
 40 39  1  0  0  0  0
 41 40  1  0  0  0  0
 42 43  1  0  0  0  0
 42 41  1  0  0  0  0
 44 45  1  0  0  0  0
 45 46  1  0  0  0  0
 48 50  2  0  0  0  0
 48 46  1  0  0  0  0
 49 51  1  0  0  0  0
 51 47  2  0  0  0  0
 51 52  1  0  0  0  0
 52 48  1  0  0  0  0
M  END
>  <MODEL>
6

>  <REMARK>
 VINA RESULT:      -8.0      3.418     10.200
  Name = 
  19 active torsions:
  status: ('A' for Active; 'I' for Inactive)
    1  A    between atoms: O_1  and  C_20
    2  A    between atoms: O_1  and  C_36
    3  A    between atoms: C_2  and  C_23
    4  A    between atoms: C_2  and  C_25
    5  A    between atoms: C_3  and  C_9
    6  A    between atoms: C_3  and  C_18
    7  A    between atoms: C_5  and  C_12
    8  A    between atoms: O_6  and  N_21
    9  A    between atoms: O_6  and  C_35
   10  A    between atoms: C_9  and  C_23
   11  A    between atoms: C_13  and  C_16
   12  A    between atoms: C_17  and  C_22
   13  A    between atoms: C_17  and  C_25
   14  A    between atoms: N_21  and  C_23
   15  A    between atoms: C_27  and  C_28
   16  A    between atoms: N_31  and  C_43
   17  A    between atoms: C_32  and  C_43
   18  A    between atoms: C_34  and  N_49
   19  A    between atoms: C_36  and  N_37
                            x       y       z     vdW  Elec       q    Type
                         _______ _______ _______ _____ _____    ______ ____

>  <TORSDO>
F 19

$$$$
=
 OpenBabel10232411413D

 52 54  0  0  1  0  0  0  0  0999 V2000
  186.2620  178.6230  142.8720 C   0  0  0  0  0  3  0  0  0  0  0  0
  185.4050  178.6710  143.9790 C   0  0  0  0  0  0  0  0  0  0  0  0
  183.0280  178.7770  144.8800 C   0  0  0  0  0  1  0  0  0  0  0  0
  184.3890  178.7520  141.3350 C   0  0  0  0  0  0  0  0  0  0  0  0
  185.7630  178.6600  141.5720 C   0  0  0  0  0  3  0  0  0  0  0  0
  183.5090  178.7920  142.4360 C   0  0  0  0  0  0  0  0  0  0  0  0
  184.0090  178.7530  143.7500 C   0  0  0  0  0  0  0  0  0  0  0  0
  182.1650  178.8510  142.2400 F   0  0  0  0  0  0  0  0  0  0  0  0
  183.9090  178.8150  139.9360 C   0  0  0  0  0  0  0  0  0  0  0  0
  183.8500  177.6330  139.1310 N   0  0  0  0  0  2  0  0  0  0  0  0
  183.5150  179.9140  139.4590 O   0  0  0  0  0  0  0  0  0  0  0  0
  183.3800  177.6480  137.7540 C   0  0  0  0  0  2  0  0  0  0  0  0
  185.8020  177.7730  137.2260 C   0  0  0  0  0  3  0  0  0  0  0  0
  184.3270  176.8380  135.5270 C   0  0  0  0  0  0  0  0  0  0  0  0
  186.7150  177.0580  135.1110 C   0  0  0  0  0  3  0  0  0  0  0  0
  184.5180  177.4010  136.8130 C   0  0  0  0  0  0  0  0  0  0  0  0
  186.9090  177.5990  136.3870 C   0  0  0  0  0  0  0  0  0  0  0  0
  185.4400  176.6840  134.6870 C   0  0  0  0  0  3  0  0  0  0  0  0
  181.8790  177.1890  134.8360 C   0  0  0  0  0  3  0  0  0  0  0  0
  182.9960  176.3990  135.0310 C   0  0  2  0  0  3  0  0  0  0  0  0
  180.8430  176.4260  134.4250 N   0  0  0  0  0  0  0  0  0  0  0  0
  182.6040  175.1110  134.7300 C   0  0  0  0  0  0  0  0  0  0  0  0
  181.2780  175.1520  134.3560 C   0  0  0  0  0  3  0  0  0  0  0  0
  183.4180  173.9770  134.7810 O   0  0  0  0  0  0  0  0  0  0  0  0
  183.3790  173.0590  135.8670 C   0  0  0  0  0  2  0  0  0  0  0  0
  185.9090  173.9240  136.9450 N   0  0  0  0  0  2  0  0  0  0  0  0
  185.8090  172.7140  136.5010 C   0  0  0  0  0  0  0  0  0  0  0  0
  184.5980  172.2600  135.8890 N   0  0  0  0  0  2  0  0  0  0  0  0
  188.2770  172.6410  136.4260 C   0  0  0  0  0  1  0  0  0  0  0  0
  187.0050  171.8220  136.5390 C   0  0  2  0  0  3  0  0  0  0  0  0
  186.9470  170.9010  135.4940 O   0  0  0  0  0  1  0  0  0  0  0  0
  189.2820  177.8650  136.0040 O   0  0  0  0  0  1  0  0  0  0  0  0
  188.4350  178.5310  138.1640 C   0  0  0  0  0  1  0  0  0  0  0  0
  188.2210  177.9760  136.8380 N   0  0  0  0  0  0  0  0  0  0  0  0
  185.9970  178.6740  145.3480 C   0  0  0  0  0  0  0  0  0  0  0  0
  185.6610  179.5700  146.1690 O   0  0  0  0  0  0  0  0  0  0  0  0
  186.9950  177.6690  145.7810 C   0  0  0  0  0  0  0  0  0  0  0  0
  186.6270  176.5710  146.2830 O   0  0  0  0  0  0  0  0  0  0  0  0
  188.4570  177.9470  145.6020 C   0  0  1  0  0  3  0  0  0  0  0  0
  189.1810  177.6550  146.8310 N   0  0  0  0  0  2  0  0  0  0  0  0
  190.4940  177.5820  146.5100 O   0  0  0  0  0  0  0  0  0  0  0  0
  191.0550  176.7800  147.5060 C   0  0  0  0  0  2  0  0  0  0  0  0
  191.9900  175.7710  146.8750 C   0  0  0  0  0  1  0  0  0  0  0  0
  188.9960  177.1100  144.4530 C   0  0  0  0  0  2  0  0  0  0  0  0
  189.7250  177.9880  143.4490 C   0  0  0  0  0  2  0  0  0  0  0  0
  189.6080  177.4090  142.0480 C   0  0  0  0  0  2  0  0  0  0  0  0
  193.3830  177.2900  139.7690 N   0  0  0  0  0  2  0  0  0  0  0  0
  190.9510  177.2290  141.4240 C   0  0  0  0  0  0  0  0  0  0  0  0
  192.2030  176.5100  137.8300 C   0  0  0  0  0  1  0  0  0  0  0  0
  191.9820  177.2890  142.1440 O   0  0  0  0  0  0  0  0  0  0  0  0
  192.2590  176.9040  139.2620 C   0  0  0  0  0  0  0  0  0  0  0  0
  191.0440  176.9570  140.0200 N   0  0  0  0  0  2  0  0  0  0  0  0
  1  2  1  0  0  0  0
  2 35  1  0  0  0  0
  4  5  1  0  0  0  0
  4  6  2  0  0  0  0
  5  1  2  0  0  0  0
  6  7  1  0  0  0  0
  7  2  2  0  0  0  0
  7  3  1  0  0  0  0
  8  6  1  0  0  0  0
  9  4  1  0  0  0  0
 10  9  1  0  0  0  0
 11  9  2  0  0  0  0
 12 10  1  0  0  0  0
 14 16  2  0  0  0  0
 15 17  1  0  0  0  0
 16 13  1  0  0  0  0
 16 12  1  0  0  0  0
 17 34  1  0  0  0  0
 17 13  2  0  0  0  0
 18 15  2  0  0  0  0
 18 14  1  0  0  0  0
 19 20  1  0  0  0  0
 20 14  1  1  0  0  0
 21 19  2  0  0  0  0
 22 24  1  0  0  0  0
 22 20  1  0  0  0  0
 23 21  1  0  0  0  0
 23 22  2  0  0  0  0
 24 25  1  0  0  0  0
 25 28  1  0  0  0  0
 27 30  1  0  0  0  0
 27 26  2  0  0  0  0
 28 27  1  0  0  0  0
 30 29  1  6  0  0  0
 31 30  1  0  0  0  0
 32 34  1  0  0  0  0
 34 33  1  0  0  0  0
 35 37  1  0  0  0  0
 35 36  2  0  0  0  0
 37 38  2  0  0  0  0
 39 44  1  6  0  0  0
 39 37  1  0  0  0  0
 39 40  1  0  0  0  0
 41 40  1  0  0  0  0
 41 42  1  0  0  0  0
 43 42  1  0  0  0  0
 45 44  1  0  0  0  0
 46 45  1  0  0  0  0
 48 46  1  0  0  0  0
 48 50  2  0  0  0  0
 49 51  1  0  0  0  0
 51 47  2  0  0  0  0
 51 52  1  0  0  0  0
 52 48  1  0  0  0  0
M  END
>  <MODEL>
7

>  <REMARK>
 VINA RESULT:      -7.8      3.412      9.340
  Name = 
  19 active torsions:
  status: ('A' for Active; 'I' for Inactive)
    1  A    between atoms: O_1  and  C_20
    2  A    between atoms: O_1  and  C_36
    3  A    between atoms: C_2  and  C_23
    4  A    between atoms: C_2  and  C_25
    5  A    between atoms: C_3  and  C_9
    6  A    between atoms: C_3  and  C_18
    7  A    between atoms: C_5  and  C_12
    8  A    between atoms: O_6  and  N_21
    9  A    between atoms: O_6  and  C_35
   10  A    between atoms: C_9  and  C_23
   11  A    between atoms: C_13  and  C_16
   12  A    between atoms: C_17  and  C_22
   13  A    between atoms: C_17  and  C_25
   14  A    between atoms: N_21  and  C_23
   15  A    between atoms: C_27  and  C_28
   16  A    between atoms: N_31  and  C_43
   17  A    between atoms: C_32  and  C_43
   18  A    between atoms: C_34  and  N_49
   19  A    between atoms: C_36  and  N_37
                            x       y       z     vdW  Elec       q    Type
                         _______ _______ _______ _____ _____    ______ ____

>  <TORSDO>
F 19

$$$$
=
 OpenBabel10232411413D

 52 54  0  0  1  0  0  0  0  0999 V2000
  187.1780  178.4920  140.2950 C   0  0  0  0  0  3  0  0  0  0  0  0
  186.1710  178.3370  139.3330 C   0  0  0  0  0  0  0  0  0  0  0  0
  185.4380  177.3730  137.0960 C   0  0  0  0  0  1  0  0  0  0  0  0
  188.7540  177.2410  138.9420 C   0  0  0  0  0  0  0  0  0  0  0  0
  188.4470  177.9520  140.1040 C   0  0  0  0  0  3  0  0  0  0  0  0
  187.7530  177.0660  137.9650 C   0  0  0  0  0  0  0  0  0  0  0  0
  186.4690  177.6080  138.1550 C   0  0  0  0  0  0  0  0  0  0  0  0
  188.0100  176.3540  136.8350 F   0  0  0  0  0  0  0  0  0  0  0  0
  190.1250  176.7090  138.7730 C   0  0  0  0  0  0  0  0  0  0  0  0
  190.7840  176.7790  137.5040 N   0  0  0  0  0  2  0  0  0  0  0  0
  190.7330  176.2190  139.7640 O   0  0  0  0  0  0  0  0  0  0  0  0
  192.1330  176.2730  137.2950 C   0  0  0  0  0  2  0  0  0  0  0  0
  190.9170  174.3490  136.3040 C   0  0  0  0  0  3  0  0  0  0  0  0
  193.2430  174.6670  135.6530 C   0  0  0  0  0  0  0  0  0  0  0  0
  191.9580  172.7900  134.7860 C   0  0  0  0  0  3  0  0  0  0  0  0
  192.1070  175.0820  136.3890 C   0  0  0  0  0  0  0  0  0  0  0  0
  190.8290  173.2070  135.5000 C   0  0  0  0  0  0  0  0  0  0  0  0
  193.1500  173.5110  134.8640 C   0  0  0  0  0  3  0  0  0  0  0  0
  194.7410  176.7250  135.3130 C   0  0  0  0  0  3  0  0  0  0  0  0
  194.5320  175.4080  135.6770 C   0  0  2  0  0  3  0  0  0  0  0  0
  196.0530  177.0280  135.4210 N   0  0  0  0  0  0  0  0  0  0  0  0
  195.7740  174.9060  136.0070 C   0  0  0  0  0  0  0  0  0  0  0  0
  196.6930  175.9210  135.8460 C   0  0  0  0  0  3  0  0  0  0  0  0
  196.0400  173.6060  136.4420 O   0  0  0  0  0  0  0  0  0  0  0  0
  196.0410  173.2490  137.8200 C   0  0  0  0  0  2  0  0  0  0  0  0
  197.2120  170.6830  137.2260 N   0  0  0  0  0  2  0  0  0  0  0  0
  196.0340  170.7140  137.7570 C   0  0  0  0  0  0  0  0  0  0  0  0
  195.3790  171.9630  138.0020 N   0  0  0  0  0  2  0  0  0  0  0  0
  194.1620  169.2670  137.0510 C   0  0  0  0  0  1  0  0  0  0  0  0
  195.3180  169.4330  138.0190 C   0  0  2  0  0  3  0  0  0  0  0  0
  194.8370  169.4140  139.3280 O   0  0  0  0  0  1  0  0  0  0  0  0
  188.4660  172.9910  135.9670 O   0  0  0  0  0  1  0  0  0  0  0  0
  189.5040  171.2140  134.7060 C   0  0  0  0  0  1  0  0  0  0  0  0
  189.5920  172.4780  135.4180 N   0  0  0  0  0  0  0  0  0  0  0  0
  184.8440  178.9750  139.5700 C   0  0  0  0  0  0  0  0  0  0  0  0
  184.5880  180.0910  139.0420 O   0  0  0  0  0  0  0  0  0  0  0  0
  183.8100  178.3560  140.4310 C   0  0  0  0  0  0  0  0  0  0  0  0
  183.3390  177.2190  140.1560 O   0  0  0  0  0  0  0  0  0  0  0  0
  183.3330  179.0760  141.6560 C   0  0  1  0  0  3  0  0  0  0  0  0
  181.8780  179.1290  141.6770 N   0  0  0  0  0  2  0  0  0  0  0  0
  181.4880  178.8350  142.9390 O   0  0  0  0  0  0  0  0  0  0  0  0
  180.1610  178.4190  142.8080 C   0  0  0  0  0  2  0  0  0  0  0  0
  179.9840  177.7050  141.4850 C   0  0  0  0  0  1  0  0  0  0  0  0
  183.8590  178.3730  142.8970 C   0  0  0  0  0  2  0  0  0  0  0  0
  184.5670  179.3610  143.8110 C   0  0  0  0  0  2  0  0  0  0  0  0
  184.7180  178.7800  145.2090 C   0  0  0  0  0  2  0  0  0  0  0  0
  188.6240  177.1260  146.4160 N   0  0  0  0  0  2  0  0  0  0  0  0
  186.1210  178.3430  145.4630 C   0  0  0  0  0  0  0  0  0  0  0  0
  188.3370  178.0250  148.6230 C   0  0  0  0  0  1  0  0  0  0  0  0
  186.8450  177.9920  144.4950 O   0  0  0  0  0  0  0  0  0  0  0  0
  187.9010  177.8400  147.2140 C   0  0  0  0  0  0  0  0  0  0  0  0
  186.6330  178.3620  146.8010 N   0  0  0  0  0  2  0  0  0  0  0  0
  2 35  1  0  0  0  0
  2  1  2  0  0  0  0
  3  7  1  0  0  0  0
  4  5  2  0  0  0  0
  5  1  1  0  0  0  0
  6  7  2  0  0  0  0
  6  4  1  0  0  0  0
  7  2  1  0  0  0  0
  8  6  1  0  0  0  0
  9  4  1  0  0  0  0
  9 11  2  0  0  0  0
 10  9  1  0  0  0  0
 12 10  1  0  0  0  0
 13 16  1  0  0  0  0
 14 16  2  0  0  0  0
 15 18  2  0  0  0  0
 15 17  1  0  0  0  0
 16 12  1  0  0  0  0
 17 13  2  0  0  0  0
 18 14  1  0  0  0  0
 19 21  2  0  0  0  0
 19 20  1  0  0  0  0
 20 14  1  6  0  0  0
 20 22  1  0  0  0  0
 21 23  1  0  0  0  0
 22 24  1  0  0  0  0
 23 22  2  0  0  0  0
 24 25  1  0  0  0  0
 25 28  1  0  0  0  0
 26 27  2  0  0  0  0
 27 28  1  0  0  0  0
 27 30  1  0  0  0  0
 30 29  1  6  0  0  0
 30 31  1  0  0  0  0
 33 34  1  0  0  0  0
 34 17  1  0  0  0  0
 34 32  1  0  0  0  0
 35 37  1  0  0  0  0
 36 35  2  0  0  0  0
 37 39  1  0  0  0  0
 38 37  2  0  0  0  0
 39 40  1  0  0  0  0
 39 44  1  1  0  0  0
 40 41  1  0  0  0  0
 42 41  1  0  0  0  0
 43 42  1  0  0  0  0
 44 45  1  0  0  0  0
 45 46  1  0  0  0  0
 46 48  1  0  0  0  0
 47 51  2  0  0  0  0
 48 52  1  0  0  0  0
 50 48  2  0  0  0  0
 51 49  1  0  0  0  0
 52 51  1  0  0  0  0
M  END
>  <MODEL>
8

>  <REMARK>
 VINA RESULT:      -7.6      2.716     11.634
  Name = 
  19 active torsions:
  status: ('A' for Active; 'I' for Inactive)
    1  A    between atoms: O_1  and  C_20
    2  A    between atoms: O_1  and  C_36
    3  A    between atoms: C_2  and  C_23
    4  A    between atoms: C_2  and  C_25
    5  A    between atoms: C_3  and  C_9
    6  A    between atoms: C_3  and  C_18
    7  A    between atoms: C_5  and  C_12
    8  A    between atoms: O_6  and  N_21
    9  A    between atoms: O_6  and  C_35
   10  A    between atoms: C_9  and  C_23
   11  A    between atoms: C_13  and  C_16
   12  A    between atoms: C_17  and  C_22
   13  A    between atoms: C_17  and  C_25
   14  A    between atoms: N_21  and  C_23
   15  A    between atoms: C_27  and  C_28
   16  A    between atoms: N_31  and  C_43
   17  A    between atoms: C_32  and  C_43
   18  A    between atoms: C_34  and  N_49
   19  A    between atoms: C_36  and  N_37
                            x       y       z     vdW  Elec       q    Type
                         _______ _______ _______ _____ _____    ______ ____

>  <TORSDO>
F 19

$$$$
=
 OpenBabel10232411413D

 52 54  0  0  1  0  0  0  0  0999 V2000
  187.4590  178.1860  141.5590 C   0  0  0  0  0  3  0  0  0  0  0  0
  187.4400  177.8390  142.9160 C   0  0  0  0  0  0  0  0  0  0  0  0
  188.6600  176.8590  144.9210 C   0  0  0  0  0  1  0  0  0  0  0  0
  189.7140  177.3290  141.3030 C   0  0  0  0  0  0  0  0  0  0  0  0
  188.5770  177.9380  140.7660 C   0  0  0  0  0  3  0  0  0  0  0  0
  189.7190  176.9800  142.6690 C   0  0  0  0  0  0  0  0  0  0  0  0
  188.5920  177.2310  143.4740 C   0  0  0  0  0  0  0  0  0  0  0  0
  190.8190  176.4120  143.2310 F   0  0  0  0  0  0  0  0  0  0  0  0
  190.8670  177.0620  140.4150 C   0  0  0  0  0  0  0  0  0  0  0  0
  190.7420  176.1640  139.3070 N   0  0  0  0  0  2  0  0  0  0  0  0
  191.9610  177.6570  140.6130 O   0  0  0  0  0  0  0  0  0  0  0  0
  191.8480  175.8760  138.4060 C   0  0  0  0  0  2  0  0  0  0  0  0
  190.1190  174.3930  137.4210 C   0  0  0  0  0  3  0  0  0  0  0  0
  192.3380  174.3560  136.4160 C   0  0  0  0  0  0  0  0  0  0  0  0
  190.5700  172.9120  135.5710 C   0  0  0  0  0  3  0  0  0  0  0  0
  191.4360  174.8640  137.3830 C   0  0  0  0  0  0  0  0  0  0  0  0
  189.6720  173.4230  136.5150 C   0  0  0  0  0  0  0  0  0  0  0  0
  191.8860  173.3720  135.5240 C   0  0  0  0  0  3  0  0  0  0  0  0
  194.1740  176.0710  135.8830 C   0  0  0  0  0  3  0  0  0  0  0  0
  193.7430  174.8260  136.3020 C   0  0  2  0  0  3  0  0  0  0  0  0
  195.5240  176.1070  135.8630 N   0  0  0  0  0  0  0  0  0  0  0  0
  194.8880  174.0900  136.5330 C   0  0  0  0  0  0  0  0  0  0  0  0
  195.9700  174.9000  136.2600 C   0  0  0  0  0  3  0  0  0  0  0  0
  194.9310  172.7670  136.9800 O   0  0  0  0  0  0  0  0  0  0  0  0
  195.4840  171.7160  136.1960 C   0  0  0  0  0  2  0  0  0  0  0  0
  193.5730  169.5800  136.5060 N   0  0  0  0  0  2  0  0  0  0  0  0
  194.7240  169.4650  137.0820 C   0  0  0  0  0  0  0  0  0  0  0  0
  195.6790  170.5300  137.0210 N   0  0  0  0  0  2  0  0  0  0  0  0
  193.8740  167.9870  138.8690 C   0  0  0  0  0  1  0  0  0  0  0  0
  195.0120  168.2520  137.9010 C   0  0  2  0  0  3  0  0  0  0  0  0
  196.1990  168.4260  138.6110 O   0  0  0  0  0  1  0  0  0  0  0  0
  187.4060  173.6090  137.3400 O   0  0  0  0  0  1  0  0  0  0  0  0
  187.8580  171.8470  135.7530 C   0  0  0  0  0  1  0  0  0  0  0  0
  188.3110  172.9650  136.5640 N   0  0  0  0  0  0  0  0  0  0  0  0
  186.2000  178.0880  143.7060 C   0  0  0  0  0  0  0  0  0  0  0  0
  186.0910  177.5970  144.8620 O   0  0  0  0  0  0  0  0  0  0  0  0
  185.0650  178.8760  143.1720 C   0  0  0  0  0  0  0  0  0  0  0  0
  185.0880  180.1370  143.1980 O   0  0  0  0  0  0  0  0  0  0  0  0
  183.8860  178.1710  142.5730 C   0  0  1  0  0  3  0  0  0  0  0  0
  182.6860  178.9820  142.7160 N   0  0  0  0  0  2  0  0  0  0  0  0
  182.2330  178.8020  143.9790 O   0  0  0  0  0  0  0  0  0  0  0  0
  180.8430  178.7720  143.8530 C   0  0  0  0  0  2  0  0  0  0  0  0
  180.4170  179.6970  142.7320 C   0  0  0  0  0  1  0  0  0  0  0  0
  184.1600  177.8770  141.1060 C   0  0  0  0  0  2  0  0  0  0  0  0
  184.2130  179.1670  140.3030 C   0  0  0  0  0  2  0  0  0  0  0  0
  183.8850  178.9000  138.8420 C   0  0  0  0  0  2  0  0  0  0  0  0
  187.4840  176.8330  137.3490 N   0  0  0  0  0  2  0  0  0  0  0  0
  184.9810  178.1410  138.1730 C   0  0  0  0  0  0  0  0  0  0  0  0
  188.6600  178.9240  137.2490 C   0  0  0  0  0  1  0  0  0  0  0  0
  184.7610  176.9720  137.7590 O   0  0  0  0  0  0  0  0  0  0  0  0
  187.4350  178.1170  137.4890 C   0  0  0  0  0  0  0  0  0  0  0  0
  186.2560  178.7650  137.9820 N   0  0  0  0  0  2  0  0  0  0  0  0
  1  2  1  0  0  0  0
  2  7  2  0  0  0  0
  2 35  1  0  0  0  0
  4  6  2  0  0  0  0
  5  4  1  0  0  0  0
  5  1  2  0  0  0  0
  6  8  1  0  0  0  0
  6  7  1  0  0  0  0
  7  3  1  0  0  0  0
  9 11  2  0  0  0  0
  9  4  1  0  0  0  0
 10  9  1  0  0  0  0
 12 10  1  0  0  0  0
 14 16  2  0  0  0  0
 15 17  1  0  0  0  0
 16 13  1  0  0  0  0
 16 12  1  0  0  0  0
 17 34  1  0  0  0  0
 17 13  2  0  0  0  0
 18 15  2  0  0  0  0
 18 14  1  0  0  0  0
 19 20  1  0  0  0  0
 20 14  1  6  0  0  0
 20 22  1  0  0  0  0
 21 19  2  0  0  0  0
 21 23  1  0  0  0  0
 22 24  1  0  0  0  0
 23 22  2  0  0  0  0
 25 24  1  0  0  0  0
 25 28  1  0  0  0  0
 26 27  2  0  0  0  0
 27 30  1  0  0  0  0
 28 27  1  0  0  0  0
 30 31  1  0  0  0  0
 30 29  1  1  0  0  0
 33 34  1  0  0  0  0
 34 32  1  0  0  0  0
 35 36  2  0  0  0  0
 37 38  2  0  0  0  0
 37 35  1  0  0  0  0
 39 44  1  6  0  0  0
 39 40  1  0  0  0  0
 39 37  1  0  0  0  0
 40 41  1  0  0  0  0
 42 41  1  0  0  0  0
 43 42  1  0  0  0  0
 45 44  1  0  0  0  0
 46 45  1  0  0  0  0
 47 51  2  0  0  0  0
 48 46  1  0  0  0  0
 49 51  1  0  0  0  0
 50 48  2  0  0  0  0
 51 52  1  0  0  0  0
 52 48  1  0  0  0  0
M  END
>  <MODEL>
9

>  <REMARK>
 VINA RESULT:      -7.6      2.731     11.118
  Name = 
  19 active torsions:
  status: ('A' for Active; 'I' for Inactive)
    1  A    between atoms: O_1  and  C_20
    2  A    between atoms: O_1  and  C_36
    3  A    between atoms: C_2  and  C_23
    4  A    between atoms: C_2  and  C_25
    5  A    between atoms: C_3  and  C_9
    6  A    between atoms: C_3  and  C_18
    7  A    between atoms: C_5  and  C_12
    8  A    between atoms: O_6  and  N_21
    9  A    between atoms: O_6  and  C_35
   10  A    between atoms: C_9  and  C_23
   11  A    between atoms: C_13  and  C_16
   12  A    between atoms: C_17  and  C_22
   13  A    between atoms: C_17  and  C_25
   14  A    between atoms: N_21  and  C_23
   15  A    between atoms: C_27  and  C_28
   16  A    between atoms: N_31  and  C_43
   17  A    between atoms: C_32  and  C_43
   18  A    between atoms: C_34  and  N_49
   19  A    between atoms: C_36  and  N_37
                            x       y       z     vdW  Elec       q    Type
                         _______ _______ _______ _____ _____    ______ ____

>  <TORSDO>
F 19

$$$$
