=
 OpenBabel10232407483D

 32 35  0  0  1  0  0  0  0  0999 V2000
  190.4830  178.3690  144.4390 C   0  0  0  0  0  2  0  0  0  0  0  0
  190.7010  176.1720  138.9090 C   0  0  0  0  0  3  0  0  0  0  0  0
  190.6510  176.2670  141.3050 O   0  0  0  0  0  0  0  0  0  0  0  0
  188.8450  178.0470  142.3900 C   0  0  0  0  0  2  0  0  0  0  0  0
  190.3750  176.6730  137.6450 C   0  0  0  0  0  0  0  0  0  0  0  0
  189.1210  178.4590  138.7000 C   0  0  0  0  0  3  0  0  0  0  0  0
  189.5920  177.8290  137.5470 C   0  0  0  0  0  3  0  0  0  0  0  0
  189.4260  177.9520  139.9660 C   0  0  0  0  0  0  0  0  0  0  0  0
  191.2680  178.3880  142.1410 O   0  0  0  0  0  0  0  0  0  0  0  0
  191.2100  176.9990  142.4070 C   0  0  1  0  0  3  0  0  0  0  0  0
  190.2570  176.8100  140.0730 C   0  0  0  0  0  0  0  0  0  0  0  0
  190.2420  177.9500  142.9980 C   0  0  1  0  0  0  0  0  0  0  0  0
  188.8710  178.5990  141.0780 O   0  0  0  0  0  0  0  0  0  0  0  0
  192.2190  175.9770  136.1370 O   0  0  0  0  0  1  0  0  0  0  0  0
  190.0530  175.4230  135.6520 O   0  0  0  0  0  0  0  0  0  0  0  0
  190.8610  175.9940  136.4330 C   0  0  0  0  0  0  0  0  0  0  0  0
  190.0670  177.2670  145.4140 C   0  0  1  0  0  3  0  0  0  0  0  0
  191.2790  176.5040  145.9250 C   0  0  0  0  0  2  0  0  0  0  0  0
  191.1240  176.1860  147.4020 C   0  0  0  0  0  2  0  0  0  0  0  0
  192.4540  176.2160  148.0650 C   0  0  0  0  0  0  0  0  0  0  0  0
  193.2990  175.3170  147.8100 O   0  0  0  0  0  0  0  0  0  0  0  0
  192.7450  177.2200  148.9840 O   0  0  0  0  0  0  0  0  0  0  0  0
  193.8850  177.1970  149.6870 O   0  0  0  0  0  1  0  0  0  0  0  0
  189.2150  177.8060  146.5700 C   0  0  0  0  0  2  0  0  0  0  0  0
  185.1320  178.6250  145.5020 C   0  0  0  0  0  0  0  0  0  0  0  0
  185.7920  177.4710  144.7930 C   0  0  0  0  0  2  0  0  0  0  0  0
  187.2720  177.4360  145.0860 C   0  0  0  0  0  3  0  0  0  0  0  0
  186.7970  178.3820  147.3220 C   0  0  0  0  0  2  0  0  0  0  0  0
  187.7430  177.8440  146.2770 C   0  0  0  0  0  0  0  0  0  0  0  0
  185.6020  179.0480  146.6870 C   0  0  0  0  0  3  0  0  0  0  0  0
  183.9170  179.2550  144.9100 C   0  0  0  0  0  2  0  0  0  0  0  0
  183.2050  178.3190  144.1830 F   0  0  0  0  0  0  0  0  0  0  0  0
  2 11  1  0  0  0  0
  4 12  1  0  0  0  0
  5  2  2  0  0  0  0
  6  8  1  0  0  0  0
  7  5  1  0  0  0  0
  7  6  2  0  0  0  0
  8 11  2  0  0  0  0
  8 13  1  0  0  0  0
  9 10  1  0  0  0  0
  9 12  1  0  0  0  0
 10  3  1  6  0  0  0
 10 12  1  0  0  0  0
 11  3  1  0  0  0  0
 12  1  1  1  0  0  0
 13  4  1  0  0  0  0
 14 16  1  0  0  0  0
 15 16  2  0  0  0  0
 16  5  1  0  0  0  0
 17  1  1  6  0  0  0
 17 18  1  0  0  0  0
 17 24  1  0  0  0  0
 18 19  1  0  0  0  0
 19 20  1  0  0  0  0
 20 22  1  0  0  0  0
 21 20  2  0  0  0  0
 22 23  1  0  0  0  0
 25 30  2  0  0  0  0
 26 27  1  0  0  0  0
 26 25  1  0  0  0  0
 27 29  2  0  0  0  0
 29 24  1  0  0  0  0
 29 28  1  0  0  0  0
 30 28  1  0  0  0  0
 31 25  1  0  0  0  0
 32 31  1  0  0  0  0
M  END
>  <MODEL>
1

>  <REMARK>
 VINA RESULT:      -8.9      0.000      0.000
  Name = 
  10 active torsions:
  status: ('A' for Active; 'I' for Inactive)
    1  A    between atoms: O_2  and  C_12
    2  A    between atoms: C_4  and  C_5
    3  A    between atoms: C_4  and  C_30
    4  A    between atoms: C_5  and  C_8
    5  A    between atoms: C_5  and  C_15
    6  A    between atoms: C_7  and  C_25
    7  A    between atoms: C_8  and  C_32
    8  A    between atoms: C_12  and  C_32
    9  A    between atoms: C_13  and  C_22
   10  A    between atoms: C_15  and  C_19
                            x       y       z     vdW  Elec       q    Type
                         _______ _______ _______ _____ _____    ______ ____

>  <TORSDO>
F 10

$$$$
=
 OpenBabel10232407483D

 32 35  0  0  1  0  0  0  0  0999 V2000
  188.6850  178.5330  140.6750 C   0  0  0  0  0  2  0  0  0  0  0  0
  182.9720  178.6540  142.3470 C   0  0  0  0  0  3  0  0  0  0  0  0
  184.9550  178.1320  141.1020 O   0  0  0  0  0  0  0  0  0  0  0  0
  187.1860  177.5350  142.6090 C   0  0  0  0  0  2  0  0  0  0  0  0
  182.3080  178.9810  143.5340 C   0  0  0  0  0  0  0  0  0  0  0  0
  184.4110  178.8230  144.7300 C   0  0  0  0  0  3  0  0  0  0  0  0
  183.0380  179.0770  144.7240 C   0  0  0  0  0  3  0  0  0  0  0  0
  185.0770  178.4760  143.5510 C   0  0  0  0  0  0  0  0  0  0  0  0
  186.7020  179.6720  141.4910 O   0  0  0  0  0  0  0  0  0  0  0  0
  186.1400  178.7480  140.5770 C   0  0  1  0  0  3  0  0  0  0  0  0
  184.3530  178.4230  142.3350 C   0  0  0  0  0  0  0  0  0  0  0  0
  187.3420  178.4240  141.3780 C   0  0  1  0  0  0  0  0  0  0  0  0
  186.4430  178.1750  143.6390 O   0  0  0  0  0  0  0  0  0  0  0  0
  179.9890  178.3340  144.1340 O   0  0  0  0  0  1  0  0  0  0  0  0
  180.3900  180.2580  142.9630 O   0  0  0  0  0  0  0  0  0  0  0  0
  180.8580  179.2310  143.5240 C   0  0  0  0  0  0  0  0  0  0  0  0
  189.5300  177.2790  140.8950 C   0  0  1  0  0  3  0  0  0  0  0  0
  189.6300  176.4560  139.6190 C   0  0  0  0  0  2  0  0  0  0  0  0
  190.6090  177.0950  138.6490 C   0  0  0  0  0  2  0  0  0  0  0  0
  191.6580  176.1100  138.2740 C   0  0  0  0  0  0  0  0  0  0  0  0
  191.3580  174.8920  138.1570 O   0  0  0  0  0  0  0  0  0  0  0  0
  192.9690  176.5370  138.0850 O   0  0  0  0  0  0  0  0  0  0  0  0
  193.6820  177.0330  139.1050 O   0  0  0  0  0  1  0  0  0  0  0  0
  190.9180  177.6050  141.4610 C   0  0  0  0  0  2  0  0  0  0  0  0
  190.4230  177.1980  145.7130 C   0  0  0  0  0  0  0  0  0  0  0  0
  191.5500  176.4150  145.0900 C   0  0  0  0  0  2  0  0  0  0  0  0
  191.4710  176.4640  143.5850 C   0  0  0  0  0  3  0  0  0  0  0  0
  190.4890  178.7280  143.7640 C   0  0  0  0  0  2  0  0  0  0  0  0
  190.9930  177.5540  142.9600 C   0  0  0  0  0  0  0  0  0  0  0  0
  189.9290  178.2810  145.0910 C   0  0  0  0  0  3  0  0  0  0  0  0
  189.8990  176.7970  147.0500 C   0  0  0  0  0  2  0  0  0  0  0  0
  188.5220  176.9220  147.0750 F   0  0  0  0  0  0  0  0  0  0  0  0
  1 17  1  0  0  0  0
  2  5  1  0  0  0  0
  3 11  1  0  0  0  0
  4 13  1  0  0  0  0
  5  7  2  0  0  0  0
  7  6  1  0  0  0  0
  8 13  1  0  0  0  0
  8  6  2  0  0  0  0
 10  3  1  1  0  0  0
 10 12  1  0  0  0  0
 10  9  1  0  0  0  0
 11  2  2  0  0  0  0
 11  8  1  0  0  0  0
 12  1  1  6  0  0  0
 12  9  1  0  0  0  0
 12  4  1  0  0  0  0
 15 16  2  0  0  0  0
 16  5  1  0  0  0  0
 16 14  1  0  0  0  0
 17 18  1  6  0  0  0
 17 24  1  0  0  0  0
 19 18  1  0  0  0  0
 20 19  1  0  0  0  0
 21 20  2  0  0  0  0
 22 20  1  0  0  0  0
 22 23  1  0  0  0  0
 24 29  1  0  0  0  0
 25 31  1  0  0  0  0
 26 25  1  0  0  0  0
 27 26  1  0  0  0  0
 28 30  1  0  0  0  0
 29 27  2  0  0  0  0
 29 28  1  0  0  0  0
 30 25  2  0  0  0  0
 31 32  1  0  0  0  0
M  END
>  <MODEL>
2

>  <REMARK>
 VINA RESULT:      -8.8      3.486      7.772
  Name = 
  10 active torsions:
  status: ('A' for Active; 'I' for Inactive)
    1  A    between atoms: O_2  and  C_12
    2  A    between atoms: C_4  and  C_5
    3  A    between atoms: C_4  and  C_30
    4  A    between atoms: C_5  and  C_8
    5  A    between atoms: C_5  and  C_15
    6  A    between atoms: C_7  and  C_25
    7  A    between atoms: C_8  and  C_32
    8  A    between atoms: C_12  and  C_32
    9  A    between atoms: C_13  and  C_22
   10  A    between atoms: C_15  and  C_19
                            x       y       z     vdW  Elec       q    Type
                         _______ _______ _______ _____ _____    ______ ____

>  <TORSDO>
F 10

$$$$
=
 OpenBabel10232407483D

 32 35  0  0  1  0  0  0  0  0999 V2000
  189.8540  178.2520  142.9900 C   0  0  0  0  0  2  0  0  0  0  0  0
  188.4180  177.5210  137.2580 C   0  0  0  0  0  3  0  0  0  0  0  0
  188.9530  178.5890  139.3380 O   0  0  0  0  0  0  0  0  0  0  0  0
  191.0290  177.4580  140.7600 C   0  0  0  0  0  2  0  0  0  0  0  0
  188.5090  176.4550  136.3560 C   0  0  0  0  0  0  0  0  0  0  0  0
  190.0380  175.3340  137.8660 C   0  0  0  0  0  3  0  0  0  0  0  0
  189.3140  175.3550  136.6730 C   0  0  0  0  0  3  0  0  0  0  0  0
  189.9680  176.4050  138.7630 C   0  0  0  0  0  0  0  0  0  0  0  0
  188.6250  177.1700  141.1970 O   0  0  0  0  0  0  0  0  0  0  0  0
  188.6650  178.5100  140.7420 C   0  0  1  0  0  3  0  0  0  0  0  0
  189.1190  177.5000  138.4700 C   0  0  0  0  0  0  0  0  0  0  0  0
  189.7790  177.9110  141.5110 C   0  0  1  0  0  0  0  0  0  0  0  0
  190.7680  176.3450  139.9110 O   0  0  0  0  0  0  0  0  0  0  0  0
  186.9790  175.4040  134.7090 O   0  0  0  0  0  1  0  0  0  0  0  0
  187.8060  177.5060  134.3460 O   0  0  0  0  0  0  0  0  0  0  0  0
  187.7560  176.4910  135.0930 C   0  0  0  0  0  0  0  0  0  0  0  0
  189.3830  177.0810  143.8530 C   0  0  1  0  0  3  0  0  0  0  0  0
  190.5450  176.1690  144.2180 C   0  0  0  0  0  2  0  0  0  0  0  0
  191.6060  176.9400  144.9830 C   0  0  0  0  0  2  0  0  0  0  0  0
  191.8920  176.2560  146.2720 C   0  0  0  0  0  0  0  0  0  0  0  0
  192.2850  175.0590  146.2700 O   0  0  0  0  0  0  0  0  0  0  0  0
  191.6950  176.9350  147.4720 O   0  0  0  0  0  0  0  0  0  0  0  0
  192.5770  176.8250  148.4740 O   0  0  0  0  0  1  0  0  0  0  0  0
  188.6240  177.5480  145.1020 C   0  0  0  0  0  2  0  0  0  0  0  0
  184.5180  178.7110  144.5770 C   0  0  0  0  0  0  0  0  0  0  0  0
  185.1440  177.9320  143.4500 C   0  0  0  0  0  2  0  0  0  0  0  0
  186.6310  177.7880  143.6570 C   0  0  0  0  0  3  0  0  0  0  0  0
  186.2370  177.7760  146.0990 C   0  0  0  0  0  2  0  0  0  0  0  0
  187.1440  177.6950  144.8960 C   0  0  0  0  0  0  0  0  0  0  0  0
  185.0300  178.6350  145.8170 C   0  0  0  0  0  3  0  0  0  0  0  0
  183.2930  179.5210  144.3210 C   0  0  0  0  0  2  0  0  0  0  0  0
  182.1670  178.7310  144.4590 F   0  0  0  0  0  0  0  0  0  0  0  0
  2 11  1  0  0  0  0
  4 12  1  0  0  0  0
  5  7  1  0  0  0  0
  5  2  2  0  0  0  0
  6  8  1  0  0  0  0
  7  6  2  0  0  0  0
  8 13  1  0  0  0  0
  9 12  1  0  0  0  0
 10  3  1  6  0  0  0
 10  9  1  0  0  0  0
 10 12  1  0  0  0  0
 11  8  2  0  0  0  0
 11  3  1  0  0  0  0
 12  1  1  1  0  0  0
 13  4  1  0  0  0  0
 14 16  1  0  0  0  0
 15 16  2  0  0  0  0
 16  5  1  0  0  0  0
 17  1  1  1  0  0  0
 17 18  1  0  0  0  0
 17 24  1  0  0  0  0
 18 19  1  0  0  0  0
 19 20  1  0  0  0  0
 20 22  1  0  0  0  0
 21 20  2  0  0  0  0
 22 23  1  0  0  0  0
 25 30  2  0  0  0  0
 26 27  1  0  0  0  0
 26 25  1  0  0  0  0
 27 29  2  0  0  0  0
 29 24  1  0  0  0  0
 29 28  1  0  0  0  0
 30 28  1  0  0  0  0
 31 32  1  0  0  0  0
 31 25  1  0  0  0  0
M  END
>  <MODEL>
3

>  <REMARK>
 VINA RESULT:      -8.5      1.631      2.460
  Name = 
  10 active torsions:
  status: ('A' for Active; 'I' for Inactive)
    1  A    between atoms: O_2  and  C_12
    2  A    between atoms: C_4  and  C_5
    3  A    between atoms: C_4  and  C_30
    4  A    between atoms: C_5  and  C_8
    5  A    between atoms: C_5  and  C_15
    6  A    between atoms: C_7  and  C_25
    7  A    between atoms: C_8  and  C_32
    8  A    between atoms: C_12  and  C_32
    9  A    between atoms: C_13  and  C_22
   10  A    between atoms: C_15  and  C_19
                            x       y       z     vdW  Elec       q    Type
                         _______ _______ _______ _____ _____    ______ ____

>  <TORSDO>
F 10

$$$$
=
 OpenBabel10232407483D

 32 35  0  0  1  0  0  0  0  0999 V2000
  188.6720  176.8590  144.8180 C   0  0  0  0  0  2  0  0  0  0  0  0
  183.1680  179.0420  144.1900 C   0  0  0  0  0  3  0  0  0  0  0  0
  185.3950  178.7250  145.0240 O   0  0  0  0  0  0  0  0  0  0  0  0
  187.3470  178.3750  143.1060 C   0  0  0  0  0  2  0  0  0  0  0  0
  182.2150  179.0080  143.1670 C   0  0  0  0  0  0  0  0  0  0  0  0
  183.9370  178.3080  141.6120 C   0  0  0  0  0  3  0  0  0  0  0  0
  182.6040  178.6270  141.8780 C   0  0  0  0  0  3  0  0  0  0  0  0
  184.8990  178.3590  142.6250 C   0  0  0  0  0  0  0  0  0  0  0  0
  186.2840  176.6120  144.4540 O   0  0  0  0  0  0  0  0  0  0  0  0
  186.3180  177.6840  145.3780 C   0  0  1  0  0  3  0  0  0  0  0  0
  184.5020  178.6990  143.9420 C   0  0  0  0  0  0  0  0  0  0  0  0
  187.3730  177.4980  144.3560 C   0  0  1  0  0  0  0  0  0  0  0  0
  186.2280  178.0860  142.2750 O   0  0  0  0  0  0  0  0  0  0  0  0
  180.2490  180.4970  142.8820 O   0  0  0  0  0  0  0  0  0  0  0  0
  180.1150  178.6410  144.2120 O   0  0  0  0  0  1  0  0  0  0  0  0
  180.8150  179.3620  143.4510 C   0  0  0  0  0  0  0  0  0  0  0  0
  189.8650  177.3920  144.0250 C   0  0  1  0  0  3  0  0  0  0  0  0
  190.9800  177.8470  144.9550 C   0  0  0  0  0  2  0  0  0  0  0  0
  191.5700  176.6610  145.6980 C   0  0  0  0  0  2  0  0  0  0  0  0
  191.3620  176.8320  147.1610 C   0  0  0  0  0  0  0  0  0  0  0  0
  190.2660  177.2850  147.5880 O   0  0  0  0  0  0  0  0  0  0  0  0
  192.3900  176.5180  148.0460 O   0  0  0  0  0  0  0  0  0  0  0  0
  193.2150  175.4910  147.8000 O   0  0  0  0  0  1  0  0  0  0  0  0
  190.3750  176.3790  142.9920 C   0  0  0  0  0  2  0  0  0  0  0  0
  190.5430  177.1550  138.7670 C   0  0  0  0  0  0  0  0  0  0  0  0
  189.2840  177.5790  139.4770 C   0  0  0  0  0  2  0  0  0  0  0  0
  189.2600  177.0500  140.8890 C   0  0  0  0  0  3  0  0  0  0  0  0
  191.7260  177.2300  140.9430 C   0  0  0  0  0  2  0  0  0  0  0  0
  190.4000  176.9030  141.5850 C   0  0  0  0  0  0  0  0  0  0  0  0
  191.6850  176.9940  139.4540 C   0  0  0  0  0  3  0  0  0  0  0  0
  190.5270  176.9720  137.2870 C   0  0  0  0  0  2  0  0  0  0  0  0
  189.2890  177.3190  136.7800 F   0  0  0  0  0  0  0  0  0  0  0  0
  3 10  1  0  0  0  0
  4 12  1  0  0  0  0
  5 16  1  0  0  0  0
  5  2  2  0  0  0  0
  6  7  2  0  0  0  0
  6  8  1  0  0  0  0
  7  5  1  0  0  0  0
  8 11  2  0  0  0  0
 10  9  1  6  0  0  0
 11  2  1  0  0  0  0
 11  3  1  0  0  0  0
 12  9  1  0  0  0  0
 12  1  1  1  0  0  0
 12 10  1  0  0  0  0
 13  8  1  0  0  0  0
 13  4  1  0  0  0  0
 14 16  2  0  0  0  0
 16 15  1  0  0  0  0
 17 24  1  6  0  0  0
 17  1  1  0  0  0  0
 17 18  1  0  0  0  0
 18 19  1  0  0  0  0
 19 20  1  0  0  0  0
 20 21  2  0  0  0  0
 20 22  1  0  0  0  0
 23 22  1  0  0  0  0
 25 30  2  0  0  0  0
 25 26  1  0  0  0  0
 26 27  1  0  0  0  0
 27 29  2  0  0  0  0
 28 29  1  0  0  0  0
 29 24  1  0  0  0  0
 30 28  1  0  0  0  0
 31 25  1  0  0  0  0
 32 31  1  0  0  0  0
M  END
>  <MODEL>
4

>  <REMARK>
 VINA RESULT:      -8.1      3.528      7.181
  Name = 
  10 active torsions:
  status: ('A' for Active; 'I' for Inactive)
    1  A    between atoms: O_2  and  C_12
    2  A    between atoms: C_4  and  C_5
    3  A    between atoms: C_4  and  C_30
    4  A    between atoms: C_5  and  C_8
    5  A    between atoms: C_5  and  C_15
    6  A    between atoms: C_7  and  C_25
    7  A    between atoms: C_8  and  C_32
    8  A    between atoms: C_12  and  C_32
    9  A    between atoms: C_13  and  C_22
   10  A    between atoms: C_15  and  C_19
                            x       y       z     vdW  Elec       q    Type
                         _______ _______ _______ _____ _____    ______ ____

>  <TORSDO>
F 10

$$$$
=
 OpenBabel10232407483D

 32 35  0  0  1  0  0  0  0  0999 V2000
  186.6190  177.1890  145.2290 C   0  0  0  0  0  2  0  0  0  0  0  0
  190.1080  177.3750  140.4080 C   0  0  0  0  0  3  0  0  0  0  0  0
  188.2250  177.7210  141.8520 O   0  0  0  0  0  0  0  0  0  0  0  0
  188.8290  178.4140  144.4530 C   0  0  0  0  0  2  0  0  0  0  0  0
  191.4760  177.1860  140.1830 C   0  0  0  0  0  0  0  0  0  0  0  0
  191.8770  177.4130  142.5630 C   0  0  0  0  0  3  0  0  0  0  0  0
  192.3570  177.1930  141.2710 C   0  0  0  0  0  3  0  0  0  0  0  0
  190.5140  177.6240  142.7920 C   0  0  0  0  0  0  0  0  0  0  0  0
  188.1640  176.1870  143.6470 O   0  0  0  0  0  0  0  0  0  0  0  0
  187.4010  177.0260  142.8000 C   0  0  1  0  0  3  0  0  0  0  0  0
  189.6110  177.5700  141.7010 C   0  0  0  0  0  0  0  0  0  0  0  0
  187.7150  177.4010  144.1970 C   0  0  1  0  0  0  0  0  0  0  0  0
  190.1090  177.8990  144.1050 O   0  0  0  0  0  0  0  0  0  0  0  0
  193.3400  176.8290  138.5850 O   0  0  0  0  0  1  0  0  0  0  0  0
  191.1780  176.9130  137.8440 O   0  0  0  0  0  0  0  0  0  0  0  0
  191.9770  176.9710  138.8170 C   0  0  0  0  0  0  0  0  0  0  0  0
  186.2700  178.4940  145.9430 C   0  0  1  0  0  3  0  0  0  0  0  0
  184.8430  178.9200  145.6370 C   0  0  0  0  0  2  0  0  0  0  0  0
  184.7940  179.7320  144.3550 C   0  0  0  0  0  2  0  0  0  0  0  0
  183.8980  179.0670  143.3720 C   0  0  0  0  0  0  0  0  0  0  0  0
  182.7120  178.7890  143.6960 O   0  0  0  0  0  0  0  0  0  0  0  0
  184.3850  178.7280  142.1130 O   0  0  0  0  0  0  0  0  0  0  0  0
  185.2320  179.5380  141.4650 O   0  0  0  0  0  1  0  0  0  0  0  0
  186.5190  178.4130  147.4550 C   0  0  0  0  0  2  0  0  0  0  0  0
  190.5360  176.9130  147.7620 C   0  0  0  0  0  0  0  0  0  0  0  0
  190.2480  178.2110  148.4720 C   0  0  0  0  0  2  0  0  0  0  0  0
  188.8840  178.7360  148.0990 C   0  0  0  0  0  3  0  0  0  0  0  0
  188.1130  176.4000  147.8430 C   0  0  0  0  0  2  0  0  0  0  0  0
  187.8770  177.8900  147.8230 C   0  0  0  0  0  0  0  0  0  0  0  0
  189.5360  176.0660  147.4710 C   0  0  0  0  0  3  0  0  0  0  0  0
  191.9450  176.5490  147.4380 C   0  0  0  0  0  2  0  0  0  0  0  0
  192.1040  176.4440  146.0690 F   0  0  0  0  0  0  0  0  0  0  0  0
  2 11  1  0  0  0  0
  5  2  2  0  0  0  0
  5  7  1  0  0  0  0
  6  8  1  0  0  0  0
  7  6  2  0  0  0  0
  8 13  1  0  0  0  0
  9 12  1  0  0  0  0
 10  3  1  6  0  0  0
 10  9  1  0  0  0  0
 10 12  1  0  0  0  0
 11  3  1  0  0  0  0
 11  8  2  0  0  0  0
 12  4  1  0  0  0  0
 12  1  1  1  0  0  0
 13  4  1  0  0  0  0
 14 16  1  0  0  0  0
 15 16  2  0  0  0  0
 16  5  1  0  0  0  0
 17  1  1  6  0  0  0
 17 24  1  0  0  0  0
 18 17  1  0  0  0  0
 19 18  1  0  0  0  0
 20 21  2  0  0  0  0
 20 19  1  0  0  0  0
 22 20  1  0  0  0  0
 23 22  1  0  0  0  0
 24 29  1  0  0  0  0
 25 26  1  0  0  0  0
 27 26  1  0  0  0  0
 29 28  1  0  0  0  0
 29 27  2  0  0  0  0
 30 25  2  0  0  0  0
 30 28  1  0  0  0  0
 31 25  1  0  0  0  0
 32 31  1  0  0  0  0
M  END
>  <MODEL>
5

>  <REMARK>
 VINA RESULT:      -8.0      2.928      5.871
  Name = 
  10 active torsions:
  status: ('A' for Active; 'I' for Inactive)
    1  A    between atoms: O_2  and  C_12
    2  A    between atoms: C_4  and  C_5
    3  A    between atoms: C_4  and  C_30
    4  A    between atoms: C_5  and  C_8
    5  A    between atoms: C_5  and  C_15
    6  A    between atoms: C_7  and  C_25
    7  A    between atoms: C_8  and  C_32
    8  A    between atoms: C_12  and  C_32
    9  A    between atoms: C_13  and  C_22
   10  A    between atoms: C_15  and  C_19
                            x       y       z     vdW  Elec       q    Type
                         _______ _______ _______ _____ _____    ______ ____

>  <TORSDO>
F 10

$$$$
=
 OpenBabel10232407483D

 32 35  0  0  1  0  0  0  0  0999 V2000
  189.0940  178.2830  139.2830 C   0  0  0  0  0  2  0  0  0  0  0  0
  187.4820  177.7080  144.9850 C   0  0  0  0  0  3  0  0  0  0  0  0
  187.3950  177.6220  142.5900 O   0  0  0  0  0  0  0  0  0  0  0  0
  189.6930  176.7420  141.3440 C   0  0  0  0  0  2  0  0  0  0  0  0
  188.1770  177.6780  146.1990 C   0  0  0  0  0  0  0  0  0  0  0  0
  190.2400  177.2980  144.9850 C   0  0  0  0  0  3  0  0  0  0  0  0
  189.5630  177.4850  146.1910 C   0  0  0  0  0  3  0  0  0  0  0  0
  189.5490  177.3060  143.7700 C   0  0  0  0  0  0  0  0  0  0  0  0
  188.9530  179.0770  141.5730 O   0  0  0  0  0  0  0  0  0  0  0  0
  187.7140  178.4060  141.4310 C   0  0  1  0  0  3  0  0  0  0  0  0
  188.1530  177.5480  143.7680 C   0  0  0  0  0  0  0  0  0  0  0  0
  188.9420  177.9330  140.7540 C   0  0  1  0  0  0  0  0  0  0  0  0
  190.2810  177.0520  142.6030 O   0  0  0  0  0  0  0  0  0  0  0  0
  188.0510  177.5010  148.6710 O   0  0  0  0  0  1  0  0  0  0  0  0
  186.2890  178.3380  147.4780 O   0  0  0  0  0  0  0  0  0  0  0  0
  187.4540  177.8590  147.4680 C   0  0  0  0  0  0  0  0  0  0  0  0
  189.1020  177.0270  138.4110 C   0  0  1  0  0  3  0  0  0  0  0  0
  187.7300  176.7750  137.8060 C   0  0  0  0  0  2  0  0  0  0  0  0
  187.0410  178.0890  137.4800 C   0  0  0  0  0  2  0  0  0  0  0  0
  185.6590  178.0820  138.0280 C   0  0  0  0  0  0  0  0  0  0  0  0
  184.7790  177.3570  137.4920 O   0  0  0  0  0  0  0  0  0  0  0  0
  185.3410  178.8990  139.1100 O   0  0  0  0  0  0  0  0  0  0  0  0
  184.4900  179.9240  138.9670 O   0  0  0  0  0  1  0  0  0  0  0  0
  190.1910  177.0750  137.3320 C   0  0  0  0  0  2  0  0  0  0  0  0
  193.5050  174.3380  137.2160 C   0  0  0  0  0  0  0  0  0  0  0  0
  193.6680  175.5540  138.0920 C   0  0  0  0  0  2  0  0  0  0  0  0
  192.5440  176.5330  137.8670 C   0  0  0  0  0  3  0  0  0  0  0  0
  191.0480  174.6240  137.3820 C   0  0  0  0  0  2  0  0  0  0  0  0
  191.3110  176.1000  137.5530 C   0  0  0  0  0  0  0  0  0  0  0  0
  192.2780  173.9030  136.8870 C   0  0  0  0  0  3  0  0  0  0  0  0
  194.7120  173.5870  136.7670 C   0  0  0  0  0  2  0  0  0  0  0  0
  195.8330  174.3900  136.8660 F   0  0  0  0  0  0  0  0  0  0  0  0
  2  5  1  0  0  0  0
  3 11  1  0  0  0  0
  4 13  1  0  0  0  0
  5 16  1  0  0  0  0
  6  7  1  0  0  0  0
  7  5  2  0  0  0  0
  8  6  2  0  0  0  0
 10  9  1  1  0  0  0
 10  3  1  0  0  0  0
 11  8  1  0  0  0  0
 11  2  2  0  0  0  0
 12  1  1  6  0  0  0
 12  4  1  0  0  0  0
 12 10  1  0  0  0  0
 12  9  1  0  0  0  0
 13  8  1  0  0  0  0
 16 15  2  0  0  0  0
 16 14  1  0  0  0  0
 17 24  1  6  0  0  0
 17  1  1  0  0  0  0
 18 17  1  0  0  0  0
 19 18  1  0  0  0  0
 19 20  1  0  0  0  0
 20 22  1  0  0  0  0
 21 20  2  0  0  0  0
 23 22  1  0  0  0  0
 24 29  1  0  0  0  0
 25 26  1  0  0  0  0
 27 26  1  0  0  0  0
 28 29  1  0  0  0  0
 29 27  2  0  0  0  0
 30 25  2  0  0  0  0
 30 28  1  0  0  0  0
 31 32  1  0  0  0  0
 31 25  1  0  0  0  0
M  END
>  <MODEL>
6

>  <REMARK>
 VINA RESULT:      -8.0      3.859      9.765
  Name = 
  10 active torsions:
  status: ('A' for Active; 'I' for Inactive)
    1  A    between atoms: O_2  and  C_12
    2  A    between atoms: C_4  and  C_5
    3  A    between atoms: C_4  and  C_30
    4  A    between atoms: C_5  and  C_8
    5  A    between atoms: C_5  and  C_15
    6  A    between atoms: C_7  and  C_25
    7  A    between atoms: C_8  and  C_32
    8  A    between atoms: C_12  and  C_32
    9  A    between atoms: C_13  and  C_22
   10  A    between atoms: C_15  and  C_19
                            x       y       z     vdW  Elec       q    Type
                         _______ _______ _______ _____ _____    ______ ____

>  <TORSDO>
F 10

$$$$
=
 OpenBabel10232407483D

 32 35  0  0  1  0  0  0  0  0999 V2000
  190.5280  176.9180  139.6000 C   0  0  0  0  0  2  0  0  0  0  0  0
  189.6620  177.8990  145.4080 C   0  0  0  0  0  3  0  0  0  0  0  0
  190.5730  178.0710  143.1960 O   0  0  0  0  0  0  0  0  0  0  0  0
  188.7280  178.0820  141.1450 C   0  0  0  0  0  2  0  0  0  0  0  0
  188.6120  177.6430  146.2970 C   0  0  0  0  0  0  0  0  0  0  0  0
  187.1340  177.2740  144.4120 C   0  0  0  0  0  3  0  0  0  0  0  0
  187.3490  177.3180  145.7900 C   0  0  0  0  0  3  0  0  0  0  0  0
  188.1740  177.5490  143.5180 C   0  0  0  0  0  0  0  0  0  0  0  0
  190.1000  176.1740  141.8710 O   0  0  0  0  0  0  0  0  0  0  0  0
  190.9890  177.2530  142.0920 C   0  0  1  0  0  3  0  0  0  0  0  0
  189.4660  177.8330  144.0240 C   0  0  0  0  0  0  0  0  0  0  0  0
  190.0060  177.2620  140.9850 C   0  0  1  0  0  0  0  0  0  0  0  0
  187.8730  177.5480  142.1500 O   0  0  0  0  0  0  0  0  0  0  0  0
  190.1360  177.6810  148.2560 O   0  0  0  0  0  0  0  0  0  0  0  0
  187.8700  177.7860  148.5470 O   0  0  0  0  0  1  0  0  0  0  0  0
  188.8420  177.7070  147.7490 C   0  0  0  0  0  0  0  0  0  0  0  0
  189.4000  176.9030  138.5700 C   0  0  1  0  0  3  0  0  0  0  0  0
  189.2210  178.2740  137.9360 C   0  0  0  0  0  2  0  0  0  0  0  0
  188.1080  178.2410  136.9030 C   0  0  0  0  0  2  0  0  0  0  0  0
  186.7990  178.0410  137.5800 C   0  0  0  0  0  0  0  0  0  0  0  0
  185.9740  177.2130  137.1110 O   0  0  0  0  0  0  0  0  0  0  0  0
  186.4840  178.7930  138.7080 O   0  0  0  0  0  0  0  0  0  0  0  0
  185.2170  179.1430  138.9660 O   0  0  0  0  0  1  0  0  0  0  0  0
  189.5980  175.8160  137.5060 C   0  0  0  0  0  2  0  0  0  0  0  0
  193.7840  174.8420  137.6020 C   0  0  0  0  0  0  0  0  0  0  0  0
  192.8570  173.7700  137.0900 C   0  0  0  0  0  2  0  0  0  0  0  0
  191.4160  174.1500  137.3220 C   0  0  0  0  0  3  0  0  0  0  0  0
  192.0530  176.5240  137.0400 C   0  0  0  0  0  2  0  0  0  0  0  0
  191.0330  175.4380  137.2790 C   0  0  0  0  0  0  0  0  0  0  0  0
  193.4070  176.1300  137.5750 C   0  0  0  0  0  3  0  0  0  0  0  0
  195.1460  174.4700  138.0830 C   0  0  0  0  0  2  0  0  0  0  0  0
  195.0810  173.3130  138.8380 F   0  0  0  0  0  0  0  0  0  0  0  0
  2  5  1  0  0  0  0
  3 11  1  0  0  0  0
  4 13  1  0  0  0  0
  5 16  1  0  0  0  0
  6  7  1  0  0  0  0
  7  5  2  0  0  0  0
  8 11  1  0  0  0  0
  8  6  2  0  0  0  0
 10  9  1  1  0  0  0
 10  3  1  0  0  0  0
 11  2  2  0  0  0  0
 12  1  1  6  0  0  0
 12  4  1  0  0  0  0
 12  9  1  0  0  0  0
 12 10  1  0  0  0  0
 13  8  1  0  0  0  0
 16 14  2  0  0  0  0
 16 15  1  0  0  0  0
 17 24  1  6  0  0  0
 17  1  1  0  0  0  0
 18 17  1  0  0  0  0
 19 20  1  0  0  0  0
 19 18  1  0  0  0  0
 20 22  1  0  0  0  0
 21 20  2  0  0  0  0
 22 23  1  0  0  0  0
 25 31  1  0  0  0  0
 26 27  1  0  0  0  0
 26 25  1  0  0  0  0
 28 29  1  0  0  0  0
 28 30  1  0  0  0  0
 29 27  2  0  0  0  0
 29 24  1  0  0  0  0
 30 25  2  0  0  0  0
 31 32  1  0  0  0  0
M  END
>  <MODEL>
7

>  <REMARK>
 VINA RESULT:      -7.8      3.423      9.534
  Name = 
  10 active torsions:
  status: ('A' for Active; 'I' for Inactive)
    1  A    between atoms: O_2  and  C_12
    2  A    between atoms: C_4  and  C_5
    3  A    between atoms: C_4  and  C_30
    4  A    between atoms: C_5  and  C_8
    5  A    between atoms: C_5  and  C_15
    6  A    between atoms: C_7  and  C_25
    7  A    between atoms: C_8  and  C_32
    8  A    between atoms: C_12  and  C_32
    9  A    between atoms: C_13  and  C_22
   10  A    between atoms: C_15  and  C_19
                            x       y       z     vdW  Elec       q    Type
                         _______ _______ _______ _____ _____    ______ ____

>  <TORSDO>
F 10

$$$$
=
 OpenBabel10232407483D

 32 35  0  0  1  0  0  0  0  0999 V2000
  184.6140  179.1200  142.9640 C   0  0  0  0  0  2  0  0  0  0  0  0
  186.3370  178.1280  137.3520 C   0  0  0  0  0  3  0  0  0  0  0  0
  185.2650  179.1400  139.2450 O   0  0  0  0  0  0  0  0  0  0  0  0
  186.8130  179.3540  141.5180 C   0  0  0  0  0  2  0  0  0  0  0  0
  187.3750  177.3990  136.7630 C   0  0  0  0  0  0  0  0  0  0  0  0
  188.4910  177.2900  138.9130 C   0  0  0  0  0  3  0  0  0  0  0  0
  188.4480  176.9700  137.5550 C   0  0  0  0  0  3  0  0  0  0  0  0
  187.4670  178.0360  139.5030 C   0  0  0  0  0  0  0  0  0  0  0  0
  185.0810  177.6630  141.0790 O   0  0  0  0  0  0  0  0  0  0  0  0
  184.5330  178.7960  140.4300 C   0  0  1  0  0  3  0  0  0  0  0  0
  186.3570  178.4330  138.7180 C   0  0  0  0  0  0  0  0  0  0  0  0
  185.3570  178.9180  141.6540 C   0  0  1  0  0  0  0  0  0  0  0  0
  187.6050  178.3740  140.8560 O   0  0  0  0  0  0  0  0  0  0  0  0
  186.8990  178.0300  134.4110 O   0  0  0  0  0  0  0  0  0  0  0  0
  187.6830  175.9420  134.9150 O   0  0  0  0  0  1  0  0  0  0  0  0
  187.3310  177.0790  135.3280 C   0  0  0  0  0  0  0  0  0  0  0  0
  185.5110  178.8130  144.1630 C   0  0  1  0  0  3  0  0  0  0  0  0
  184.8190  179.1720  145.4690 C   0  0  0  0  0  2  0  0  0  0  0  0
  185.1710  178.1670  146.5520 C   0  0  0  0  0  2  0  0  0  0  0  0
  186.1040  178.7870  147.5300 C   0  0  0  0  0  0  0  0  0  0  0  0
  185.9830  180.0070  147.8210 O   0  0  0  0  0  0  0  0  0  0  0  0
  187.1230  178.0230  148.0930 O   0  0  0  0  0  0  0  0  0  0  0  0
  188.2890  178.5850  148.4390 O   0  0  0  0  0  1  0  0  0  0  0  0
  185.9970  177.3580  144.1680 C   0  0  0  0  0  2  0  0  0  0  0  0
  190.2660  177.4080  143.6550 C   0  0  0  0  0  0  0  0  0  0  0  0
  189.7440  177.8930  144.9820 C   0  0  0  0  0  2  0  0  0  0  0  0
  188.2430  178.0390  144.9490 C   0  0  0  0  0  3  0  0  0  0  0  0
  188.1490  176.1570  143.3470 C   0  0  0  0  0  2  0  0  0  0  0  0
  187.4920  177.2150  144.1980 C   0  0  0  0  0  0  0  0  0  0  0  0
  189.5190  176.5940  142.8920 C   0  0  0  0  0  3  0  0  0  0  0  0
  191.6400  177.7900  143.2200 C   0  0  0  0  0  2  0  0  0  0  0  0
  192.0600  178.9120  143.9100 F   0  0  0  0  0  0  0  0  0  0  0  0
  2 11  1  0  0  0  0
  4 12  1  0  0  0  0
  5  2  2  0  0  0  0
  5  7  1  0  0  0  0
  6  8  1  0  0  0  0
  7  6  2  0  0  0  0
  8 13  1  0  0  0  0
  9 12  1  0  0  0  0
 10  3  1  6  0  0  0
 10  9  1  0  0  0  0
 10 12  1  0  0  0  0
 11  3  1  0  0  0  0
 11  8  2  0  0  0  0
 12  1  1  1  0  0  0
 13  4  1  0  0  0  0
 14 16  2  0  0  0  0
 15 16  1  0  0  0  0
 16  5  1  0  0  0  0
 17  1  1  6  0  0  0
 17 24  1  0  0  0  0
 17 18  1  0  0  0  0
 18 19  1  0  0  0  0
 19 20  1  0  0  0  0
 20 21  2  0  0  0  0
 20 22  1  0  0  0  0
 22 23  1  0  0  0  0
 24 29  1  0  0  0  0
 25 26  1  0  0  0  0
 27 26  1  0  0  0  0
 28 29  1  0  0  0  0
 29 27  2  0  0  0  0
 30 28  1  0  0  0  0
 30 25  2  0  0  0  0
 31 25  1  0  0  0  0
 31 32  1  0  0  0  0
M  END
>  <MODEL>
8

>  <REMARK>
 VINA RESULT:      -7.6      3.301      5.306
  Name = 
  10 active torsions:
  status: ('A' for Active; 'I' for Inactive)
    1  A    between atoms: O_2  and  C_12
    2  A    between atoms: C_4  and  C_5
    3  A    between atoms: C_4  and  C_30
    4  A    between atoms: C_5  and  C_8
    5  A    between atoms: C_5  and  C_15
    6  A    between atoms: C_7  and  C_25
    7  A    between atoms: C_8  and  C_32
    8  A    between atoms: C_12  and  C_32
    9  A    between atoms: C_13  and  C_22
   10  A    between atoms: C_15  and  C_19
                            x       y       z     vdW  Elec       q    Type
                         _______ _______ _______ _____ _____    ______ ____

>  <TORSDO>
F 10

$$$$
=
 OpenBabel10232407483D

 32 35  0  0  1  0  0  0  0  0999 V2000
  188.4350  178.3280  141.8310 C   0  0  0  0  0  2  0  0  0  0  0  0
  183.1880  179.3700  139.2170 C   0  0  0  0  0  3  0  0  0  0  0  0
  185.2350  179.7440  140.4100 O   0  0  0  0  0  0  0  0  0  0  0  0
  187.4620  178.4830  139.3790 C   0  0  0  0  0  2  0  0  0  0  0  0
  182.4140  178.6880  138.2720 C   0  0  0  0  0  0  0  0  0  0  0  0
  184.3430  177.3360  137.6990 C   0  0  0  0  0  3  0  0  0  0  0  0
  182.9970  177.6590  137.5220 C   0  0  0  0  0  3  0  0  0  0  0  0
  185.1270  178.0280  138.6270 C   0  0  0  0  0  0  0  0  0  0  0  0
  186.1320  177.7560  141.3170 O   0  0  0  0  0  0  0  0  0  0  0  0
  186.0510  179.1640  141.4390 C   0  0  1  0  0  3  0  0  0  0  0  0
  184.5320  179.0380  139.4220 C   0  0  0  0  0  0  0  0  0  0  0  0
  187.2520  178.4940  140.8910 C   0  0  1  0  0  0  0  0  0  0  0  0
  186.4850  177.6930  138.7100 O   0  0  0  0  0  0  0  0  0  0  0  0
  180.3010  179.7060  139.0820 O   0  0  0  0  0  1  0  0  0  0  0  0
  180.4080  178.7550  137.0050 O   0  0  0  0  0  0  0  0  0  0  0  0
  181.0000  179.0450  138.0790 C   0  0  0  0  0  0  0  0  0  0  0  0
  188.9910  176.9060  141.7780 C   0  0  1  0  0  3  0  0  0  0  0  0
  190.4910  176.9150  141.5260 C   0  0  0  0  0  2  0  0  0  0  0  0
  190.8080  177.6480  140.2340 C   0  0  0  0  0  2  0  0  0  0  0  0
  192.0080  177.0450  139.5950 C   0  0  0  0  0  0  0  0  0  0  0  0
  193.1530  177.2880  140.0610 O   0  0  0  0  0  0  0  0  0  0  0  0
  191.8580  176.2400  138.4690 O   0  0  0  0  0  0  0  0  0  0  0  0
  191.0080  175.2050  138.4740 O   0  0  0  0  0  1  0  0  0  0  0  0
  188.6390  176.0970  143.0330 C   0  0  0  0  0  2  0  0  0  0  0  0
  188.2130  177.8010  146.9570 C   0  0  0  0  0  0  0  0  0  0  0  0
  189.5350  178.0210  146.2700 C   0  0  0  0  0  2  0  0  0  0  0  0
  189.6340  177.1890  145.0160 C   0  0  0  0  0  3  0  0  0  0  0  0
  187.1870  177.4200  144.7330 C   0  0  0  0  0  2  0  0  0  0  0  0
  188.5390  176.9220  144.2830 C   0  0  0  0  0  0  0  0  0  0  0  0
  187.1150  177.5210  146.2360 C   0  0  0  0  0  3  0  0  0  0  0  0
  188.1180  177.9520  148.4370 C   0  0  0  0  0  2  0  0  0  0  0  0
  189.3190  178.4130  148.9440 F   0  0  0  0  0  0  0  0  0  0  0  0
  2 11  1  0  0  0  0
  4 12  1  0  0  0  0
  5  2  2  0  0  0  0
  6  8  1  0  0  0  0
  7  6  2  0  0  0  0
  7  5  1  0  0  0  0
  8 13  1  0  0  0  0
  8 11  2  0  0  0  0
  9 10  1  0  0  0  0
 10  3  1  6  0  0  0
 11  3  1  0  0  0  0
 12  9  1  0  0  0  0
 12 10  1  0  0  0  0
 12  1  1  1  0  0  0
 13  4  1  0  0  0  0
 15 16  2  0  0  0  0
 16  5  1  0  0  0  0
 16 14  1  0  0  0  0
 17 18  1  1  0  0  0
 17  1  1  0  0  0  0
 17 24  1  0  0  0  0
 19 18  1  0  0  0  0
 20 21  2  0  0  0  0
 20 19  1  0  0  0  0
 22 23  1  0  0  0  0
 22 20  1  0  0  0  0
 24 29  1  0  0  0  0
 25 31  1  0  0  0  0
 26 25  1  0  0  0  0
 27 26  1  0  0  0  0
 28 30  1  0  0  0  0
 29 28  1  0  0  0  0
 29 27  2  0  0  0  0
 30 25  2  0  0  0  0
 31 32  1  0  0  0  0
M  END
>  <MODEL>
9

>  <REMARK>
 VINA RESULT:      -7.6      4.175      6.677
  Name = 
  10 active torsions:
  status: ('A' for Active; 'I' for Inactive)
    1  A    between atoms: O_2  and  C_12
    2  A    between atoms: C_4  and  C_5
    3  A    between atoms: C_4  and  C_30
    4  A    between atoms: C_5  and  C_8
    5  A    between atoms: C_5  and  C_15
    6  A    between atoms: C_7  and  C_25
    7  A    between atoms: C_8  and  C_32
    8  A    between atoms: C_12  and  C_32
    9  A    between atoms: C_13  and  C_22
   10  A    between atoms: C_15  and  C_19
                            x       y       z     vdW  Elec       q    Type
                         _______ _______ _______ _____ _____    ______ ____

>  <TORSDO>
F 10

$$$$
