=
 OpenBabel10232408563D

 56 62  0  0  1  0  0  0  0  0999 V2000
  189.1500  177.7700  137.1330 C   0  0  1  0  0  0  0  0  0  0  0  0
  190.5480  177.0690  137.1380 C   0  0  0  0  0  2  0  0  0  0  0  0
  186.0610  179.2380  141.3470 N   0  0  0  0  0  2  0  0  0  0  0  0
  190.9620  176.7860  138.5030 C   0  0  0  0  0  0  0  0  0  0  0  0
  188.7230  177.6030  138.6330 C   0  0  0  0  0  0  0  0  0  0  0  0
  189.9330  176.9170  140.6390 C   0  0  0  0  0  3  0  0  0  0  0  0
  185.4340  179.0720  140.0260 N   0  0  0  0  0  0  0  0  0  0  0  0
  186.9970  177.9550  143.0700 O   0  0  0  0  0  0  0  0  0  0  0  0
  192.1900  176.5030  138.9130 C   0  0  0  0  0  3  0  0  0  0  0  0
  187.7620  177.7030  140.7880 C   0  0  0  0  0  0  0  0  0  0  0  0
  189.4650  179.2390  136.8760 C   0  0  0  0  0  1  0  0  0  0  0  0
  187.5470  177.8550  139.3900 C   0  0  0  0  0  0  0  0  0  0  0  0
  189.8430  177.0370  139.2870 C   0  0  0  0  0  0  0  0  0  0  0  0
  186.2470  178.4300  138.9240 C   0  0  0  0  0  2  0  0  0  0  0  0
  186.9170  178.2810  141.8700 C   0  0  0  0  0  0  0  0  0  0  0  0
  188.8930  177.3160  141.3570 C   0  0  0  0  0  3  0  0  0  0  0  0
  187.1710  174.6460  136.6100 C   0  0  1  0  0  3  0  0  0  0  0  0
  189.4360  176.3360  134.7430 C   0  0  0  0  0  2  0  0  0  0  0  0
  189.8170  173.3080  135.2140 C   0  0  0  0  0  2  0  0  0  0  0  0
  191.5790  174.9870  134.3470 C   0  0  0  0  0  3  0  0  0  0  0  0
  191.0030  176.2610  134.9530 C   0  0  0  0  0  2  0  0  0  0  0  0
  187.3050  176.1030  135.9640 C   0  0  0  0  0  0  0  0  0  0  0  0
  191.0810  173.7210  134.4920 C   0  0  0  0  0  3  0  0  0  0  0  0
  188.3490  173.8630  137.3000 C   0  0  0  0  0  2  0  0  0  0  0  0
  189.7610  173.9880  136.6480 C   0  0  0  0  0  2  0  0  0  0  0  0
  188.5630  177.0850  135.8310 C   0  0  1  0  0  3  0  0  0  0  0  0
  186.2770  176.5820  135.4490 O   0  0  0  0  0  0  0  0  0  0  0  0
  185.9300  174.4660  137.5480 C   0  0  0  0  0  2  0  0  0  0  0  0
  185.5540  172.9940  137.5640 C   0  0  0  0  0  2  0  0  0  0  0  0
  184.1560  172.6530  137.1270 C   0  0  0  0  0  1  0  0  0  0  0  0
  183.0530  178.8080  140.7310 C   0  0  0  0  0  3  0  0  0  0  0  0
  182.4330  180.4630  138.5050 C   0  0  0  0  0  3  0  0  0  0  0  0
  181.4130  179.8770  139.2190 C   0  0  0  0  0  0  0  0  0  0  0  0
  181.7320  179.0870  140.3550 C   0  0  0  0  0  3  0  0  0  0  0  0
  183.7440  180.1990  138.8790 C   0  0  0  0  0  3  0  0  0  0  0  0
  184.0830  179.3620  139.9240 C   0  0  0  0  0  0  0  0  0  0  0  0
  180.0040  179.8940  138.7150 C   0  0  0  0  0  2  0  0  0  0  0  0
  180.6890  178.3270  137.0060 O   0  0  0  0  0  1  0  0  0  0  0  0
  180.3090  180.7180  135.9760 C   0  0  0  0  0  1  0  0  0  0  0  0
  179.9890  179.5040  137.1360 C   0  0  2  0  0  3  0  0  0  0  0  0
  193.8390  175.0850  137.8370 C   0  0  1  0  0  3  0  0  0  0  0  0
  194.4920  176.0720  138.5990 O   0  0  0  0  0  0  0  0  0  0  0  0
  193.2110  176.3870  137.8890 C   0  0  2  0  0  3  0  0  0  0  0  0
  194.5810  174.8250  136.6060 C   0  0  0  0  0  2  0  0  0  0  0  0
  195.5890  173.6530  136.5550 C   0  0  2  0  0  3  0  0  0  0  0  0
  196.3910  174.7670  134.5830 O   0  0  0  0  0  1  0  0  0  0  0  0
  196.0580  173.5250  135.0580 C   0  0  0  0  0  2  0  0  0  0  0  0
  194.8560  172.4610  137.1460 C   0  0  0  0  0  2  0  0  0  0  0  0
  195.5950  170.0720  136.7190 C   0  0  2  0  0  3  0  0  0  0  0  0
  193.1880  169.8930  135.4950 C   0  0  0  0  0  2  0  0  0  0  0  0
  195.4180  168.7950  135.8740 C   0  0  0  0  0  2  0  0  0  0  0  0
  193.6020  171.2250  135.6340 O   0  0  0  0  0  0  0  0  0  0  0  0
  194.2770  168.9860  134.9170 C   0  0  0  0  0  2  0  0  0  0  0  0
  194.9110  171.3390  136.1830 C   0  0  1  0  0  3  0  0  0  0  0  0
  196.7800  170.2390  137.4540 O   0  0  0  0  0  0  0  0  0  0  0  0
  197.8080  170.0930  136.5070 C   0  0  0  0  0  1  0  0  0  0  0  0
  1 11  1  6  0  0  0
  1  2  1  0  0  0  0
  1  5  1  0  0  0  0
  2  4  1  0  0  0  0
  3 15  1  0  0  0  0
  4  9  2  0  0  0  0
  4 13  1  0  0  0  0
  5 13  2  0  0  0  0
  5 12  1  0  0  0  0
  6 16  2  0  0  0  0
  7  3  1  0  0  0  0
 10 16  1  0  0  0  0
 10 15  1  0  0  0  0
 12 10  2  0  0  0  0
 13  6  1  0  0  0  0
 14 12  1  0  0  0  0
 14  7  1  0  0  0  0
 15  8  2  0  0  0  0
 17 24  1  0  0  0  0
 17 28  1  1  0  0  0
 18 21  1  0  0  0  0
 19 25  1  0  0  0  0
 20 23  2  0  0  0  0
 20 21  1  0  0  0  0
 22 17  1  0  0  0  0
 23 19  1  0  0  0  0
 25 24  1  0  0  0  0
 26 18  1  1  0  0  0
 26 22  1  0  0  0  0
 26  1  1  0  0  0  0
 27 22  2  0  0  0  0
 28 29  1  0  0  0  0
 30 29  1  0  0  0  0
 32 35  2  0  0  0  0
 32 33  1  0  0  0  0
 33 34  2  0  0  0  0
 34 31  1  0  0  0  0
 35 36  1  0  0  0  0
 36  7  1  0  0  0  0
 36 31  2  0  0  0  0
 37 33  1  0  0  0  0
 38 40  1  0  0  0  0
 40 39  1  6  0  0  0
 40 37  1  0  0  0  0
 41 44  1  6  0  0  0
 41 43  1  0  0  0  0
 41 42  1  0  0  0  0
 43 42  1  0  0  0  0
 43  9  1  1  0  0  0
 45 47  1  6  0  0  0
 45 44  1  0  0  0  0
 45 48  1  0  0  0  0
 46 47  1  0  0  0  0
 49 55  1  6  0  0  0
 50 52  1  0  0  0  0
 51 49  1  0  0  0  0
 52 54  1  0  0  0  0
 53 50  1  0  0  0  0
 53 51  1  0  0  0  0
 54 49  1  0  0  0  0
 54 48  1  1  0  0  0
 56 55  1  0  0  0  0
M  END
>  <MODEL>
1

>  <REMARK>
 VINA RESULT:      -5.9      0.000      0.000
  Name = 
  13 active torsions:
  status: ('A' for Active; 'I' for Inactive)
    1  A    between atoms: C_1  and  O_45
    2  A    between atoms: C_2  and  C_47
    3  A    between atoms: C_3  and  C_31
    4  A    between atoms: C_5  and  C_31
    5  A    between atoms: C_7  and  C_30
    6  A    between atoms: C_18  and  C_37
    7  A    between atoms: C_19  and  C_36
    8  A    between atoms: C_19  and  C_39
    9  A    between atoms: C_23  and  C_32
   10  A    between atoms: C_23  and  C_56
   11  A    between atoms: N_28  and  C_44
   12  A    between atoms: C_30  and  C_32
   13  A    between atoms: C_32  and  C_46
                            x       y       z     vdW  Elec       q    Type
                         _______ _______ _______ _____ _____    ______ ____

>  <TORSDO>
F 13

$$$$
=
 OpenBabel10232408563D

 56 62  0  0  1  0  0  0  0  0999 V2000
  185.4180  177.1750  137.6230 C   0  0  1  0  0  0  0  0  0  0  0  0
  184.0940  177.9620  137.8960 C   0  0  0  0  0  2  0  0  0  0  0  0
  189.7870  176.6590  140.8010 N   0  0  0  0  0  2  0  0  0  0  0  0
  184.1670  178.6380  139.1810 C   0  0  0  0  0  0  0  0  0  0  0  0
  186.3290  177.7070  138.7840 C   0  0  0  0  0  0  0  0  0  0  0  0
  185.8680  179.0070  140.7980 C   0  0  0  0  0  3  0  0  0  0  0  0
  189.9210  176.4090  139.3570 N   0  0  0  0  0  0  0  0  0  0  0  0
  189.4760  178.4330  142.3000 O   0  0  0  0  0  0  0  0  0  0  0  0
  183.1490  179.1200  139.8790 C   0  0  0  0  0  3  0  0  0  0  0  0
  187.9720  178.1170  140.4300 C   0  0  0  0  0  0  0  0  0  0  0  0
  185.0580  175.7220  137.9130 C   0  0  0  0  0  1  0  0  0  0  0  0
  187.6970  177.5750  139.1440 C   0  0  0  0  0  0  0  0  0  0  0  0
  185.4910  178.5190  139.5850 C   0  0  0  0  0  0  0  0  0  0  0  0
  188.7690  176.7920  138.4540 C   0  0  0  0  0  2  0  0  0  0  0  0
  189.1460  177.7880  141.2850 C   0  0  0  0  0  0  0  0  0  0  0  0
  187.0980  178.7350  141.2100 C   0  0  0  0  0  3  0  0  0  0  0  0
  185.8800  174.8690  134.7220 C   0  0  1  0  0  3  0  0  0  0  0  0
  186.7580  178.0820  135.3370 C   0  0  0  0  0  2  0  0  0  0  0  0
  188.8980  176.0890  134.3470 C   0  0  0  0  0  2  0  0  0  0  0  0
  189.2990  178.4020  135.4250 C   0  0  0  0  0  3  0  0  0  0  0  0
  188.0010  178.5180  136.2140 C   0  0  0  0  0  2  0  0  0  0  0  0
  185.1360  176.2450  135.0540 C   0  0  0  0  0  0  0  0  0  0  0  0
  189.6890  177.3420  134.6530 C   0  0  0  0  0  3  0  0  0  0  0  0
  187.2180  174.3910  135.3990 C   0  0  0  0  0  2  0  0  0  0  0  0
  188.2970  175.4820  135.6850 C   0  0  0  0  0  2  0  0  0  0  0  0
  185.5110  177.4300  136.0630 C   0  0  1  0  0  3  0  0  0  0  0  0
  184.0870  176.4790  134.4220 O   0  0  0  0  0  0  0  0  0  0  0  0
  184.9410  173.6160  134.6970 C   0  0  0  0  0  2  0  0  0  0  0  0
  185.5170  172.5710  135.6380 C   0  0  0  0  0  2  0  0  0  0  0  0
  184.7130  172.2630  136.8720 C   0  0  0  0  0  1  0  0  0  0  0  0
  192.4090  176.5830  139.2310 C   0  0  0  0  0  3  0  0  0  0  0  0
  192.2400  174.5390  137.2620 C   0  0  0  0  0  3  0  0  0  0  0  0
  193.4500  175.1460  137.5070 C   0  0  0  0  0  0  0  0  0  0  0  0
  193.5320  176.1350  138.5220 C   0  0  0  0  0  3  0  0  0  0  0  0
  191.1240  174.9700  137.9690 C   0  0  0  0  0  3  0  0  0  0  0  0
  191.1610  175.9930  138.8960 C   0  0  0  0  0  0  0  0  0  0  0  0
  194.6230  174.9280  136.6050 C   0  0  0  0  0  2  0  0  0  0  0  0
  196.9300  175.5460  136.9860 O   0  0  0  0  0  1  0  0  0  0  0  0
  196.4550  173.1210  137.8910 C   0  0  0  0  0  1  0  0  0  0  0  0
  195.9630  174.7110  137.5000 C   0  0  2  0  0  3  0  0  0  0  0  0
  181.6060  180.0350  138.2450 C   0  0  1  0  0  3  0  0  0  0  0  0
  181.1540  180.3400  139.5430 O   0  0  0  0  0  0  0  0  0  0  0  0
  181.8370  179.0360  139.2660 C   0  0  2  0  0  3  0  0  0  0  0  0
  180.4720  179.7470  137.3700 C   0  0  0  0  0  2  0  0  0  0  0  0
  180.6790  178.8560  136.1230 C   0  0  2  0  0  3  0  0  0  0  0  0
  181.1020  180.4660  134.3890 O   0  0  0  0  0  1  0  0  0  0  0  0
  180.1130  179.6620  134.8940 C   0  0  0  0  0  2  0  0  0  0  0  0
  179.9970  177.5380  136.4470 C   0  0  0  0  0  2  0  0  0  0  0  0
  181.0910  175.3590  137.1460 C   0  0  2  0  0  3  0  0  0  0  0  0
  180.4700  174.6160  134.6190 C   0  0  0  0  0  2  0  0  0  0  0  0
  181.7680  174.0490  136.6970 C   0  0  0  0  0  2  0  0  0  0  0  0
  180.4700  176.0100  134.7660 O   0  0  0  0  0  0  0  0  0  0  0  0
  181.7220  173.9540  135.1990 C   0  0  0  0  0  2  0  0  0  0  0  0
  180.8930  176.4260  136.0600 C   0  0  1  0  0  3  0  0  0  0  0  0
  181.2880  175.8060  138.4630 O   0  0  0  0  0  0  0  0  0  0  0  0
  180.3910  175.0470  139.2330 C   0  0  0  0  0  1  0  0  0  0  0  0
  1  2  1  0  0  0  0
  1 11  1  1  0  0  0
  1  5  1  0  0  0  0
  2  4  1  0  0  0  0
  3 15  1  0  0  0  0
  4 13  1  0  0  0  0
  4  9  2  0  0  0  0
  5 12  2  0  0  0  0
  5 13  1  0  0  0  0
  6 16  1  0  0  0  0
  7  3  1  0  0  0  0
 10 16  2  0  0  0  0
 10 15  1  0  0  0  0
 12 10  1  0  0  0  0
 13  6  2  0  0  0  0
 14 12  1  0  0  0  0
 14  7  1  0  0  0  0
 15  8  2  0  0  0  0
 17 28  1  1  0  0  0
 17 22  1  0  0  0  0
 17 24  1  0  0  0  0
 18 21  1  0  0  0  0
 19 23  1  0  0  0  0
 19 25  1  0  0  0  0
 20 21  1  0  0  0  0
 22 26  1  0  0  0  0
 23 20  2  0  0  0  0
 24 25  1  0  0  0  0
 26 18  1  1  0  0  0
 26  1  1  0  0  0  0
 27 22  2  0  0  0  0
 28 29  1  0  0  0  0
 29 30  1  0  0  0  0
 32 33  2  0  0  0  0
 32 35  1  0  0  0  0
 33 34  1  0  0  0  0
 34 31  2  0  0  0  0
 35 36  2  0  0  0  0
 36 31  1  0  0  0  0
 36  7  1  0  0  0  0
 37 40  1  0  0  0  0
 37 33  1  0  0  0  0
 38 40  1  0  0  0  0
 40 39  1  6  0  0  0
 41 44  1  6  0  0  0
 41 43  1  0  0  0  0
 41 42  1  0  0  0  0
 43 42  1  0  0  0  0
 43  9  1  1  0  0  0
 45 47  1  6  0  0  0
 45 48  1  0  0  0  0
 45 44  1  0  0  0  0
 46 47  1  0  0  0  0
 49 55  1  1  0  0  0
 50 52  1  0  0  0  0
 50 53  1  0  0  0  0
 51 49  1  0  0  0  0
 52 54  1  0  0  0  0
 53 51  1  0  0  0  0
 54 48  1  1  0  0  0
 54 49  1  0  0  0  0
 55 56  1  0  0  0  0
M  END
>  <MODEL>
2

>  <REMARK>
 VINA RESULT:      -5.5      2.491     10.279
  Name = 
  13 active torsions:
  status: ('A' for Active; 'I' for Inactive)
    1  A    between atoms: C_1  and  O_45
    2  A    between atoms: C_2  and  C_47
    3  A    between atoms: C_3  and  C_31
    4  A    between atoms: C_5  and  C_31
    5  A    between atoms: C_7  and  C_30
    6  A    between atoms: C_18  and  C_37
    7  A    between atoms: C_19  and  C_36
    8  A    between atoms: C_19  and  C_39
    9  A    between atoms: C_23  and  C_32
   10  A    between atoms: C_23  and  C_56
   11  A    between atoms: N_28  and  C_44
   12  A    between atoms: C_30  and  C_32
   13  A    between atoms: C_32  and  C_46
                            x       y       z     vdW  Elec       q    Type
                         _______ _______ _______ _____ _____    ______ ____

>  <TORSDO>
F 13

$$$$
=
 OpenBabel10232408563D

 56 62  0  0  1  0  0  0  0  0999 V2000
  188.8720  177.1400  136.2050 C   0  0  1  0  0  0  0  0  0  0  0  0
  190.2940  176.4900  136.1510 C   0  0  0  0  0  2  0  0  0  0  0  0
  186.1780  179.0820  140.4980 N   0  0  0  0  0  2  0  0  0  0  0  0
  190.8610  176.4120  137.4870 C   0  0  0  0  0  0  0  0  0  0  0  0
  188.6130  177.1700  137.7520 C   0  0  0  0  0  0  0  0  0  0  0  0
  190.0560  176.8070  139.6870 C   0  0  0  0  0  3  0  0  0  0  0  0
  185.4240  178.7150  139.2880 N   0  0  0  0  0  0  0  0  0  0  0  0
  187.3470  178.0800  142.2640 O   0  0  0  0  0  0  0  0  0  0  0  0
  192.1360  176.2280  137.7940 C   0  0  0  0  0  3  0  0  0  0  0  0
  187.8790  177.5380  139.9660 C   0  0  0  0  0  0  0  0  0  0  0  0
  189.0910  178.5690  135.7200 C   0  0  0  0  0  1  0  0  0  0  0  0
  187.5120  177.4880  138.5920 C   0  0  0  0  0  0  0  0  0  0  0  0
  189.8200  176.7350  138.3490 C   0  0  0  0  0  0  0  0  0  0  0  0
  186.1450  177.9520  138.1990 C   0  0  0  0  0  2  0  0  0  0  0  0
  187.1260  178.2340  141.0470 C   0  0  0  0  0  0  0  0  0  0  0  0
  189.0800  177.2690  140.4540 C   0  0  0  0  0  3  0  0  0  0  0  0
  185.9340  174.8350  136.2590 C   0  0  1  0  0  3  0  0  0  0  0  0
  188.8070  174.9420  134.4690 C   0  0  0  0  0  2  0  0  0  0  0  0
  188.0080  172.3250  135.8980 C   0  0  0  0  0  2  0  0  0  0  0  0
  190.3290  172.9350  134.9400 C   0  0  0  0  0  3  0  0  0  0  0  0
  190.2140  174.4530  135.0040 C   0  0  0  0  0  2  0  0  0  0  0  0
  186.6470  175.8460  135.2450 C   0  0  0  0  0  0  0  0  0  0  0  0
  189.3900  172.0310  135.3570 C   0  0  0  0  0  3  0  0  0  0  0  0
  186.6800  174.0170  137.3770 C   0  0  0  0  0  2  0  0  0  0  0  0
  188.0880  173.4470  137.0180 C   0  0  0  0  0  2  0  0  0  0  0  0
  188.1840  176.2640  135.0800 C   0  0  1  0  0  3  0  0  0  0  0  0
  185.9130  176.4120  134.4120 O   0  0  0  0  0  0  0  0  0  0  0  0
  184.6400  175.4040  136.9360 C   0  0  0  0  0  2  0  0  0  0  0  0
  183.8950  174.2480  137.5820 C   0  0  0  0  0  2  0  0  0  0  0  0
  182.3990  174.2390  137.4170 C   0  0  0  0  0  1  0  0  0  0  0  0
  183.0530  177.9620  139.5030 C   0  0  0  0  0  3  0  0  0  0  0  0
  182.3650  180.6230  138.7760 C   0  0  0  0  0  3  0  0  0  0  0  0
  181.3750  179.6740  138.8890 C   0  0  0  0  0  0  0  0  0  0  0  0
  181.7240  178.3590  139.2940 C   0  0  0  0  0  3  0  0  0  0  0  0
  183.6830  180.2400  138.9910 C   0  0  0  0  0  3  0  0  0  0  0  0
  184.0570  178.9460  139.2970 C   0  0  0  0  0  0  0  0  0  0  0  0
  179.9830  179.9450  138.4120 C   0  0  0  0  0  2  0  0  0  0  0  0
  180.8030  179.1530  136.2790 O   0  0  0  0  0  1  0  0  0  0  0  0
  180.1850  181.7080  136.1480 C   0  0  0  0  0  1  0  0  0  0  0  0
  179.9920  180.1380  136.7970 C   0  0  2  0  0  3  0  0  0  0  0  0
  194.2380  175.2630  137.0560 C   0  0  1  0  0  3  0  0  0  0  0  0
  194.3390  176.6670  137.0600 O   0  0  0  0  0  0  0  0  0  0  0  0
  193.0500  176.0030  136.6890 C   0  0  2  0  0  3  0  0  0  0  0  0
  194.9730  174.7080  135.9220 C   0  0  0  0  0  2  0  0  0  0  0  0
  195.5030  173.2560  135.9950 C   0  0  2  0  0  3  0  0  0  0  0  0
  193.6210  173.0920  134.5090 O   0  0  0  0  0  1  0  0  0  0  0  0
  194.3950  172.3390  135.3540 C   0  0  0  0  0  2  0  0  0  0  0  0
  195.8270  173.0140  137.4590 C   0  0  0  0  0  2  0  0  0  0  0  0
  197.9400  171.8120  136.7350 C   0  0  2  0  0  3  0  0  0  0  0  0
  198.9870  174.3070  136.7940 C   0  0  0  0  0  2  0  0  0  0  0  0
  199.4780  171.8460  136.6380 C   0  0  0  0  0  2  0  0  0  0  0  0
  197.8070  174.2210  137.5450 O   0  0  0  0  0  0  0  0  0  0  0  0
  199.9770  173.1820  137.1060 C   0  0  0  0  0  2  0  0  0  0  0  0
  197.2940  172.8950  137.6120 C   0  0  1  0  0  3  0  0  0  0  0  0
  197.2830  170.5740  136.6470 O   0  0  0  0  0  0  0  0  0  0  0  0
  198.3180  169.6250  136.6030 C   0  0  0  0  0  1  0  0  0  0  0  0
  1 11  1  6  0  0  0
  1  5  1  0  0  0  0
  2  1  1  0  0  0  0
  2  4  1  0  0  0  0
  3 15  1  0  0  0  0
  4  9  2  0  0  0  0
  4 13  1  0  0  0  0
  5 13  2  0  0  0  0
  5 12  1  0  0  0  0
  6 16  2  0  0  0  0
  7 36  1  0  0  0  0
  7  3  1  0  0  0  0
 10 16  1  0  0  0  0
 10 15  1  0  0  0  0
 12 10  2  0  0  0  0
 13  6  1  0  0  0  0
 14 12  1  0  0  0  0
 14  7  1  0  0  0  0
 15  8  2  0  0  0  0
 17 28  1  1  0  0  0
 17 24  1  0  0  0  0
 18 21  1  0  0  0  0
 19 25  1  0  0  0  0
 20 21  1  0  0  0  0
 20 23  2  0  0  0  0
 22 17  1  0  0  0  0
 23 19  1  0  0  0  0
 25 24  1  0  0  0  0
 26 18  1  1  0  0  0
 26 22  1  0  0  0  0
 26  1  1  0  0  0  0
 27 22  2  0  0  0  0
 28 29  1  0  0  0  0
 30 29  1  0  0  0  0
 32 33  2  0  0  0  0
 32 35  1  0  0  0  0
 33 34  1  0  0  0  0
 34 31  2  0  0  0  0
 35 36  2  0  0  0  0
 36 31  1  0  0  0  0
 37 33  1  0  0  0  0
 38 40  1  0  0  0  0
 40 39  1  1  0  0  0
 40 37  1  0  0  0  0
 41 44  1  6  0  0  0
 41 42  1  0  0  0  0
 43 41  1  0  0  0  0
 43 42  1  0  0  0  0
 43  9  1  1  0  0  0
 44 45  1  0  0  0  0
 45 47  1  1  0  0  0
 45 48  1  0  0  0  0
 46 47  1  0  0  0  0
 49 55  1  1  0  0  0
 49 54  1  0  0  0  0
 50 53  1  0  0  0  0
 50 52  1  0  0  0  0
 51 49  1  0  0  0  0
 51 53  1  0  0  0  0
 52 54  1  0  0  0  0
 54 48  1  6  0  0  0
 56 55  1  0  0  0  0
M  END
>  <MODEL>
3

>  <REMARK>
 VINA RESULT:      -5.5      1.441      2.238
  Name = 
  13 active torsions:
  status: ('A' for Active; 'I' for Inactive)
    1  A    between atoms: C_1  and  O_45
    2  A    between atoms: C_2  and  C_47
    3  A    between atoms: C_3  and  C_31
    4  A    between atoms: C_5  and  C_31
    5  A    between atoms: C_7  and  C_30
    6  A    between atoms: C_18  and  C_37
    7  A    between atoms: C_19  and  C_36
    8  A    between atoms: C_19  and  C_39
    9  A    between atoms: C_23  and  C_32
   10  A    between atoms: C_23  and  C_56
   11  A    between atoms: N_28  and  C_44
   12  A    between atoms: C_30  and  C_32
   13  A    between atoms: C_32  and  C_46
                            x       y       z     vdW  Elec       q    Type
                         _______ _______ _______ _____ _____    ______ ____

>  <TORSDO>
F 13

$$$$
=
 OpenBabel10232408563D

 56 62  0  0  1  0  0  0  0  0999 V2000
  189.3500  173.7520  135.8070 C   0  0  1  0  0  0  0  0  0  0  0  0
  190.6950  173.1650  135.2650 C   0  0  0  0  0  2  0  0  0  0  0  0
  184.4680  171.3970  136.0700 N   0  0  0  0  0  2  0  0  0  0  0  0
  190.4860  171.8200  134.7550 C   0  0  0  0  0  0  0  0  0  0  0  0
  188.3250  172.6790  135.2980 C   0  0  0  0  0  0  0  0  0  0  0  0
  188.5910  170.4470  134.3460 C   0  0  0  0  0  3  0  0  0  0  0  0
  184.5550  172.8650  136.1130 N   0  0  0  0  0  0  0  0  0  0  0  0
  184.7350  169.6190  134.5660 O   0  0  0  0  0  0  0  0  0  0  0  0
  191.4200  170.9100  134.5210 C   0  0  0  0  0  3  0  0  0  0  0  0
  186.4880  171.2620  134.8610 C   0  0  0  0  0  0  0  0  0  0  0  0
  189.4700  173.6320  137.3220 C   0  0  0  0  0  1  0  0  0  0  0  0
  186.9100  172.5570  135.2700 C   0  0  0  0  0  0  0  0  0  0  0  0
  189.1070  171.6470  134.7270 C   0  0  0  0  0  0  0  0  0  0  0  0
  185.8840  173.5130  135.7930 C   0  0  0  0  0  2  0  0  0  0  0  0
  185.1520  170.6560  135.1190 C   0  0  0  0  0  0  0  0  0  0  0  0
  187.2840  170.2740  134.4840 C   0  0  0  0  0  3  0  0  0  0  0  0
  191.8640  176.3470  136.7550 C   0  0  1  0  0  3  0  0  0  0  0  0
  188.6250  176.4590  135.7690 C   0  0  0  0  0  2  0  0  0  0  0  0
  189.4830  177.9520  138.3320 C   0  0  0  0  0  2  0  0  0  0  0  0
  187.0770  177.3610  137.6000 C   0  0  0  0  0  3  0  0  0  0  0  0
  187.3920  176.1620  136.7140 C   0  0  0  0  0  2  0  0  0  0  0  0
  191.0130  175.9130  135.4720 C   0  0  0  0  0  0  0  0  0  0  0  0
  187.9770  178.1010  138.3150 C   0  0  0  0  0  3  0  0  0  0  0  0
  191.3880  176.1700  138.2440 C   0  0  0  0  0  2  0  0  0  0  0  0
  189.8770  176.4280  138.5410 C   0  0  0  0  0  2  0  0  0  0  0  0
  189.5600  175.2520  135.3450 C   0  0  1  0  0  3  0  0  0  0  0  0
  191.5310  176.1290  134.3600 O   0  0  0  0  0  0  0  0  0  0  0  0
  193.3600  175.8820  136.7260 C   0  0  0  0  0  2  0  0  0  0  0  0
  193.4200  174.4430  137.2100 C   0  0  0  0  0  2  0  0  0  0  0  0
  194.7790  173.9200  137.5910 C   0  0  0  0  0  1  0  0  0  0  0  0
  182.1920  173.3960  135.5060 C   0  0  0  0  0  3  0  0  0  0  0  0
  182.3960  175.4910  137.4170 C   0  0  0  0  0  3  0  0  0  0  0  0
  181.2720  175.4000  136.6290 C   0  0  0  0  0  0  0  0  0  0  0  0
  181.1610  174.3250  135.7080 C   0  0  0  0  0  3  0  0  0  0  0  0
  183.4170  174.5670  137.2310 C   0  0  0  0  0  3  0  0  0  0  0  0
  183.3720  173.5670  136.2790 C   0  0  0  0  0  0  0  0  0  0  0  0
  180.2650  176.5060  136.5830 C   0  0  0  0  0  2  0  0  0  0  0  0
  180.5410  178.5340  137.8690 O   0  0  0  0  0  1  0  0  0  0  0  0
  181.1870  178.9350  135.3490 C   0  0  0  0  0  1  0  0  0  0  0  0
  181.0240  177.9360  136.7280 C   0  0  2  0  0  3  0  0  0  0  0  0
  193.7020  170.2200  134.9740 C   0  0  1  0  0  3  0  0  0  0  0  0
  193.1780  170.8820  136.1000 O   0  0  0  0  0  0  0  0  0  0  0  0
  192.7970  171.3200  134.7190 C   0  0  2  0  0  3  0  0  0  0  0  0
  195.1140  170.5540  134.8050 C   0  0  0  0  0  2  0  0  0  0  0  0
  196.1750  169.8430  135.6780 C   0  0  2  0  0  3  0  0  0  0  0  0
  195.4360  167.9230  136.9210 O   0  0  0  0  0  1  0  0  0  0  0  0
  195.8190  168.3090  135.6620 C   0  0  0  0  0  2  0  0  0  0  0  0
  196.1280  170.5420  137.0250 C   0  0  0  0  0  2  0  0  0  0  0  0
  198.5610  170.0350  137.5330 C   0  0  2  0  0  3  0  0  0  0  0  0
  199.0020  172.1300  135.8780 C   0  0  0  0  0  2  0  0  0  0  0  0
  200.0120  170.5540  137.5560 C   0  0  0  0  0  2  0  0  0  0  0  0
  197.6910  172.1280  136.3750 O   0  0  0  0  0  0  0  0  0  0  0  0
  200.0550  171.9360  136.9700 C   0  0  0  0  0  2  0  0  0  0  0  0
  197.4670  171.0930  137.3270 C   0  0  1  0  0  3  0  0  0  0  0  0
  198.2320  168.9080  138.3030 O   0  0  0  0  0  0  0  0  0  0  0  0
  199.3160  168.0310  138.1280 C   0  0  0  0  0  1  0  0  0  0  0  0
  1 11  1  1  0  0  0
  2  1  1  0  0  0  0
  3  7  1  0  0  0  0
  4  2  1  0  0  0  0
  5  1  1  0  0  0  0
  6 16  2  0  0  0  0
  6 13  1  0  0  0  0
  7 36  1  0  0  0  0
  8 15  2  0  0  0  0
  9  4  2  0  0  0  0
 10 15  1  0  0  0  0
 10 12  2  0  0  0  0
 12  5  1  0  0  0  0
 12 14  1  0  0  0  0
 13  4  1  0  0  0  0
 13  5  2  0  0  0  0
 14  7  1  0  0  0  0
 15  3  1  0  0  0  0
 16 10  1  0  0  0  0
 17 28  1  1  0  0  0
 17 24  1  0  0  0  0
 18 21  1  0  0  0  0
 19 25  1  0  0  0  0
 20 23  2  0  0  0  0
 21 20  1  0  0  0  0
 22 17  1  0  0  0  0
 23 19  1  0  0  0  0
 24 25  1  0  0  0  0
 26 22  1  0  0  0  0
 26 18  1  1  0  0  0
 26  1  1  0  0  0  0
 27 22  2  0  0  0  0
 28 29  1  0  0  0  0
 29 30  1  0  0  0  0
 31 34  2  0  0  0  0
 31 36  1  0  0  0  0
 33 32  2  0  0  0  0
 34 33  1  0  0  0  0
 35 32  1  0  0  0  0
 36 35  2  0  0  0  0
 37 33  1  0  0  0  0
 37 40  1  0  0  0  0
 40 39  1  6  0  0  0
 40 38  1  0  0  0  0
 41 44  1  6  0  0  0
 41 42  1  0  0  0  0
 43  9  1  1  0  0  0
 43 41  1  0  0  0  0
 43 42  1  0  0  0  0
 45 44  1  6  0  0  0
 45 48  1  0  0  0  0
 47 45  1  0  0  0  0
 47 46  1  0  0  0  0
 49 51  1  0  0  0  0
 49 55  1  1  0  0  0
 50 52  1  0  0  0  0
 50 53  1  0  0  0  0
 52 54  1  0  0  0  0
 53 51  1  0  0  0  0
 54 48  1  6  0  0  0
 54 49  1  0  0  0  0
 56 55  1  0  0  0  0
M  END
>  <MODEL>
4

>  <REMARK>
 VINA RESULT:      -4.8      2.909      6.120
  Name = 
  13 active torsions:
  status: ('A' for Active; 'I' for Inactive)
    1  A    between atoms: C_1  and  O_45
    2  A    between atoms: C_2  and  C_47
    3  A    between atoms: C_3  and  C_31
    4  A    between atoms: C_5  and  C_31
    5  A    between atoms: C_7  and  C_30
    6  A    between atoms: C_18  and  C_37
    7  A    between atoms: C_19  and  C_36
    8  A    between atoms: C_19  and  C_39
    9  A    between atoms: C_23  and  C_32
   10  A    between atoms: C_23  and  C_56
   11  A    between atoms: N_28  and  C_44
   12  A    between atoms: C_30  and  C_32
   13  A    between atoms: C_32  and  C_46
                            x       y       z     vdW  Elec       q    Type
                         _______ _______ _______ _____ _____    ______ ____

>  <TORSDO>
F 13

$$$$
=
 OpenBabel10232408563D

 56 62  0  0  1  0  0  0  0  0999 V2000
  187.1530  176.5830  135.8560 C   0  0  1  0  0  0  0  0  0  0  0  0
  185.8050  177.0020  136.5290 C   0  0  0  0  0  2  0  0  0  0  0  0
  189.1830  171.6040  135.1130 N   0  0  0  0  0  2  0  0  0  0  0  0
  185.1010  175.8270  137.0170 C   0  0  0  0  0  0  0  0  0  0  0  0
  187.2350  175.0690  136.2620 C   0  0  0  0  0  0  0  0  0  0  0  0
  185.6200  173.5200  137.2370 C   0  0  0  0  0  3  0  0  0  0  0  0
  190.0950  172.7590  135.0790 N   0  0  0  0  0  0  0  0  0  0  0  0
  187.9120  170.3590  136.6370 O   0  0  0  0  0  0  0  0  0  0  0  0
  183.8190  175.7540  137.3430 C   0  0  0  0  0  3  0  0  0  0  0  0
  187.6850  172.7660  136.5160 C   0  0  0  0  0  0  0  0  0  0  0  0
  186.8720  176.6710  134.3600 C   0  0  0  0  0  1  0  0  0  0  0  0
  188.2050  174.0380  136.1500 C   0  0  0  0  0  0  0  0  0  0  0  0
  186.0090  174.7820  136.9080 C   0  0  0  0  0  0  0  0  0  0  0  0
  189.5650  174.1030  135.5280 C   0  0  0  0  0  2  0  0  0  0  0  0
  188.2530  171.4440  136.1280 C   0  0  0  0  0  0  0  0  0  0  0  0
  186.4640  172.5330  136.9710 C   0  0  0  0  0  3  0  0  0  0  0  0
  190.6370  176.8130  137.1820 C   0  0  1  0  0  3  0  0  0  0  0  0
  187.8040  178.5980  137.6910 C   0  0  0  0  0  2  0  0  0  0  0  0
  189.3770  177.5270  140.1220 C   0  0  0  0  0  2  0  0  0  0  0  0
  186.9510  178.4150  140.1000 C   0  0  0  0  0  3  0  0  0  0  0  0
  186.6190  178.1460  138.6370 C   0  0  0  0  0  2  0  0  0  0  0  0
  189.6290  177.6880  136.3020 C   0  0  0  0  0  0  0  0  0  0  0  0
  188.1250  178.1150  140.7350 C   0  0  0  0  0  3  0  0  0  0  0  0
  190.1980  175.8220  138.3230 C   0  0  0  0  0  2  0  0  0  0  0  0
  189.0070  176.2670  139.2290 C   0  0  0  0  0  2  0  0  0  0  0  0
  188.0320  177.8090  136.3360 C   0  0  1  0  0  3  0  0  0  0  0  0
  190.1390  178.4300  135.4410 O   0  0  0  0  0  0  0  0  0  0  0  0
  191.7280  176.0540  136.3530 C   0  0  0  0  0  2  0  0  0  0  0  0
  193.0360  176.1090  137.1240 C   0  0  0  0  0  2  0  0  0  0  0  0
  193.5070  174.8190  137.7390 C   0  0  0  0  0  1  0  0  0  0  0  0
  192.0710  171.2450  134.8880 C   0  0  0  0  0  3  0  0  0  0  0  0
  193.5600  173.6050  134.3460 C   0  0  0  0  0  3  0  0  0  0  0  0
  194.2210  172.4090  134.5080 C   0  0  0  0  0  0  0  0  0  0  0  0
  193.4640  171.2290  134.7360 C   0  0  0  0  0  3  0  0  0  0  0  0
  192.1780  173.6260  134.4850 C   0  0  0  0  0  3  0  0  0  0  0  0
  191.4280  172.5080  134.7960 C   0  0  0  0  0  0  0  0  0  0  0  0
  195.7100  172.3580  134.6430 C   0  0  0  0  0  2  0  0  0  0  0  0
  196.9950  174.2320  135.4680 O   0  0  0  0  0  1  0  0  0  0  0  0
  196.6660  172.4280  137.3560 C   0  0  0  0  0  1  0  0  0  0  0  0
  196.1670  173.2360  135.9330 C   0  0  2  0  0  3  0  0  0  0  0  0
  181.7120  176.8670  137.8050 C   0  0  1  0  0  3  0  0  0  0  0  0
  181.8670  176.7090  136.4150 O   0  0  0  0  0  0  0  0  0  0  0  0
  183.0560  176.9860  137.2810 C   0  0  2  0  0  3  0  0  0  0  0  0
  181.0670  178.1440  138.0990 C   0  0  0  0  0  2  0  0  0  0  0  0
  180.5930  178.4450  139.5400 C   0  0  2  0  0  3  0  0  0  0  0  0
  180.3390  180.6240  138.5580 O   0  0  0  0  0  1  0  0  0  0  0  0
  180.6900  180.0050  139.7300 C   0  0  0  0  0  2  0  0  0  0  0  0
  181.4680  177.5920  140.4420 C   0  0  0  0  0  2  0  0  0  0  0  0
  181.6080  178.5940  142.7680 C   0  0  2  0  0  3  0  0  0  0  0  0
  184.2480  178.0750  142.4770 C   0  0  0  0  0  2  0  0  0  0  0  0
  182.4960  179.2570  143.8390 C   0  0  0  0  0  2  0  0  0  0  0  0
  183.5850  178.1040  141.2420 O   0  0  0  0  0  0  0  0  0  0  0  0
  183.9190  179.2800  143.3600 C   0  0  0  0  0  2  0  0  0  0  0  0
  182.2150  178.4760  141.3630 C   0  0  1  0  0  3  0  0  0  0  0  0
  180.2140  178.7400  142.8590 O   0  0  0  0  0  0  0  0  0  0  0  0
  179.9920  179.2250  144.1590 C   0  0  0  0  0  1  0  0  0  0  0  0
  1 11  1  6  0  0  0
  1  5  1  0  0  0  0
  1 26  1  0  0  0  0
  1  2  1  0  0  0  0
  2  4  1  0  0  0  0
  3 15  1  0  0  0  0
  4  9  2  0  0  0  0
  5 13  1  0  0  0  0
  7  3  1  0  0  0  0
  7 14  1  0  0  0  0
 10 16  2  0  0  0  0
 12  5  2  0  0  0  0
 12 10  1  0  0  0  0
 13  4  1  0  0  0  0
 13  6  2  0  0  0  0
 14 12  1  0  0  0  0
 15 10  1  0  0  0  0
 15  8  2  0  0  0  0
 16  6  1  0  0  0  0
 17 28  1  6  0  0  0
 17 24  1  0  0  0  0
 18 21  1  0  0  0  0
 19 23  1  0  0  0  0
 20 23  2  0  0  0  0
 21 20  1  0  0  0  0
 22 26  1  0  0  0  0
 22 17  1  0  0  0  0
 24 25  1  0  0  0  0
 25 19  1  0  0  0  0
 26 18  1  1  0  0  0
 27 22  2  0  0  0  0
 28 29  1  0  0  0  0
 29 30  1  0  0  0  0
 32 35  1  0  0  0  0
 32 33  2  0  0  0  0
 33 37  1  0  0  0  0
 33 34  1  0  0  0  0
 34 31  2  0  0  0  0
 35 36  2  0  0  0  0
 36 31  1  0  0  0  0
 36  7  1  0  0  0  0
 37 40  1  0  0  0  0
 38 40  1  0  0  0  0
 40 39  1  1  0  0  0
 41 44  1  6  0  0  0
 42 43  1  0  0  0  0
 42 41  1  0  0  0  0
 43  9  1  1  0  0  0
 43 41  1  0  0  0  0
 45 44  1  6  0  0  0
 45 47  1  0  0  0  0
 45 48  1  0  0  0  0
 46 47  1  0  0  0  0
 49 55  1  6  0  0  0
 49 51  1  0  0  0  0
 50 53  1  0  0  0  0
 52 54  1  0  0  0  0
 52 50  1  0  0  0  0
 53 51  1  0  0  0  0
 54 48  1  6  0  0  0
 54 49  1  0  0  0  0
 55 56  1  0  0  0  0
M  END
>  <MODEL>
5

>  <REMARK>
 VINA RESULT:      -4.6      2.819     11.708
  Name = 
  13 active torsions:
  status: ('A' for Active; 'I' for Inactive)
    1  A    between atoms: C_1  and  O_45
    2  A    between atoms: C_2  and  C_47
    3  A    between atoms: C_3  and  C_31
    4  A    between atoms: C_5  and  C_31
    5  A    between atoms: C_7  and  C_30
    6  A    between atoms: C_18  and  C_37
    7  A    between atoms: C_19  and  C_36
    8  A    between atoms: C_19  and  C_39
    9  A    between atoms: C_23  and  C_32
   10  A    between atoms: C_23  and  C_56
   11  A    between atoms: N_28  and  C_44
   12  A    between atoms: C_30  and  C_32
   13  A    between atoms: C_32  and  C_46
                            x       y       z     vdW  Elec       q    Type
                         _______ _______ _______ _____ _____    ______ ____

>  <TORSDO>
F 13

$$$$
=
 OpenBabel10232408563D

 56 62  0  0  1  0  0  0  0  0999 V2000
  189.0820  177.1970  141.2130 C   0  0  1  0  0  0  0  0  0  0  0  0
  187.6030  177.7030  141.2320 C   0  0  0  0  0  2  0  0  0  0  0  0
  192.4100  176.5710  136.9710 N   0  0  0  0  0  2  0  0  0  0  0  0
  187.1480  177.9790  139.8790 C   0  0  0  0  0  0  0  0  0  0  0  0
  189.3040  176.9740  139.6760 C   0  0  0  0  0  0  0  0  0  0  0  0
  188.0230  177.6170  137.7000 C   0  0  0  0  0  3  0  0  0  0  0  0
  192.6950  175.8390  138.2160 N   0  0  0  0  0  0  0  0  0  0  0  0
  190.8870  176.5700  135.1900 O   0  0  0  0  0  0  0  0  0  0  0  0
  186.0980  178.7070  139.5320 C   0  0  0  0  0  3  0  0  0  0  0  0
  190.1090  176.6410  137.4810 C   0  0  0  0  0  0  0  0  0  0  0  0
  189.9010  178.4050  141.6530 C   0  0  0  0  0  1  0  0  0  0  0  0
  190.3290  176.4120  138.8670 C   0  0  0  0  0  0  0  0  0  0  0  0
  188.1330  177.4610  139.0470 C   0  0  0  0  0  0  0  0  0  0  0  0
  191.6370  175.8270  139.2970 C   0  0  0  0  0  2  0  0  0  0  0  0
  191.1430  176.5830  136.4100 C   0  0  0  0  0  0  0  0  0  0  0  0
  189.0560  177.2490  136.9570 C   0  0  0  0  0  3  0  0  0  0  0  0
  187.5450  177.3610  144.6120 C   0  0  1  0  0  3  0  0  0  0  0  0
  190.1800  175.6850  143.3010 C   0  0  0  0  0  2  0  0  0  0  0  0
  190.5650  177.3330  145.8830 C   0  0  0  0  0  2  0  0  0  0  0  0
  192.4120  176.4130  144.3290 C   0  0  0  0  0  3  0  0  0  0  0  0
  191.6050  176.3210  143.0390 C   0  0  0  0  0  2  0  0  0  0  0  0
  187.7910  176.2820  143.4580 C   0  0  0  0  0  0  0  0  0  0  0  0
  191.9650  176.8790  145.5350 C   0  0  0  0  0  3  0  0  0  0  0  0
  188.4910  178.5830  144.9090 C   0  0  0  0  0  2  0  0  0  0  0  0
  190.0270  178.3390  144.7780 C   0  0  0  0  0  2  0  0  0  0  0  0
  188.9700  176.1370  142.3840 C   0  0  1  0  0  3  0  0  0  0  0  0
  186.9490  175.3680  143.3590 O   0  0  0  0  0  0  0  0  0  0  0  0
  186.0850  177.9260  144.6670 C   0  0  0  0  0  2  0  0  0  0  0  0
  185.8840  178.5930  146.0180 C   0  0  0  0  0  2  0  0  0  0  0  0
  184.5400  178.4020  146.6670 C   0  0  0  0  0  1  0  0  0  0  0  0
  194.8390  175.1080  139.2650 C   0  0  0  0  0  3  0  0  0  0  0  0
  195.2190  173.5630  136.9080 C   0  0  0  0  0  3  0  0  0  0  0  0
  196.2320  173.6450  137.8360 C   0  0  0  0  0  0  0  0  0  0  0  0
  196.0170  174.3840  139.0290 C   0  0  0  0  0  3  0  0  0  0  0  0
  194.0450  174.2690  137.1410 C   0  0  0  0  0  3  0  0  0  0  0  0
  193.8460  175.0680  138.2500 C   0  0  0  0  0  0  0  0  0  0  0  0
  197.6070  173.1410  137.5280 C   0  0  0  0  0  2  0  0  0  0  0  0
  198.0170  175.4510  136.9430 O   0  0  0  0  0  1  0  0  0  0  0  0
  198.3150  173.8920  134.8430 C   0  0  0  0  0  1  0  0  0  0  0  0
  198.3540  174.1830  136.5280 C   0  0  2  0  0  3  0  0  0  0  0  0
  183.9260  178.6840  140.6140 C   0  0  1  0  0  3  0  0  0  0  0  0
  184.1150  179.9170  139.9620 O   0  0  0  0  0  0  0  0  0  0  0  0
  185.2710  179.2180  140.6090 C   0  0  2  0  0  3  0  0  0  0  0  0
  183.2070  178.8830  141.8710 C   0  0  0  0  0  2  0  0  0  0  0  0
  181.6740  179.0910  141.8480 C   0  0  2  0  0  3  0  0  0  0  0  0
  182.1990  178.6870  144.1590 O   0  0  0  0  0  1  0  0  0  0  0  0
  181.2090  179.1830  143.3500 C   0  0  0  0  0  2  0  0  0  0  0  0
  181.1190  177.9370  141.0310 C   0  0  0  0  0  2  0  0  0  0  0  0
  180.6060  177.2300  138.6500 C   0  0  2  0  0  3  0  0  0  0  0  0
  180.0020  179.8510  138.3500 C   0  0  0  0  0  2  0  0  0  0  0  0
  180.4260  177.6650  137.1820 C   0  0  0  0  0  2  0  0  0  0  0  0
  180.8090  179.6290  139.4750 O   0  0  0  0  0  0  0  0  0  0  0  0
  180.5300  179.1600  137.0910 C   0  0  0  0  0  2  0  0  0  0  0  0
  181.2240  178.2720  139.5940 C   0  0  1  0  0  3  0  0  0  0  0  0
  180.8560  175.8770  138.9300 O   0  0  0  0  0  0  0  0  0  0  0  0
  182.1370  175.6370  138.4050 C   0  0  0  0  0  1  0  0  0  0  0  0
  1  2  1  0  0  0  0
  1 11  1  1  0  0  0
  1 26  1  0  0  0  0
  3  7  1  0  0  0  0
  4  2  1  0  0  0  0
  5  1  1  0  0  0  0
  6 13  2  0  0  0  0
  7 36  1  0  0  0  0
  7 14  1  0  0  0  0
  8 15  2  0  0  0  0
  9  4  2  0  0  0  0
 10 12  1  0  0  0  0
 12 14  1  0  0  0  0
 12  5  2  0  0  0  0
 13  5  1  0  0  0  0
 13  4  1  0  0  0  0
 15  3  1  0  0  0  0
 15 10  1  0  0  0  0
 16 10  2  0  0  0  0
 16  6  1  0  0  0  0
 17 28  1  6  0  0  0
 17 24  1  0  0  0  0
 20 23  2  0  0  0  0
 21 18  1  0  0  0  0
 21 20  1  0  0  0  0
 22 17  1  0  0  0  0
 23 19  1  0  0  0  0
 25 24  1  0  0  0  0
 25 19  1  0  0  0  0
 26 18  1  1  0  0  0
 26 22  1  0  0  0  0
 27 22  2  0  0  0  0
 28 29  1  0  0  0  0
 29 30  1  0  0  0  0
 32 35  2  0  0  0  0
 32 33  1  0  0  0  0
 33 34  2  0  0  0  0
 34 31  1  0  0  0  0
 35 36  1  0  0  0  0
 36 31  2  0  0  0  0
 37 33  1  0  0  0  0
 40 39  1  6  0  0  0
 40 38  1  0  0  0  0
 40 37  1  0  0  0  0
 41 44  1  1  0  0  0
 42 43  1  0  0  0  0
 42 41  1  0  0  0  0
 43  9  1  6  0  0  0
 43 41  1  0  0  0  0
 45 48  1  1  0  0  0
 45 44  1  0  0  0  0
 45 47  1  0  0  0  0
 47 46  1  0  0  0  0
 49 55  1  6  0  0  0
 49 54  1  0  0  0  0
 50 52  1  0  0  0  0
 51 49  1  0  0  0  0
 52 54  1  0  0  0  0
 53 51  1  0  0  0  0
 53 50  1  0  0  0  0
 54 48  1  1  0  0  0
 56 55  1  0  0  0  0
M  END
>  <MODEL>
6

>  <REMARK>
 VINA RESULT:      -4.5      3.046     11.986
  Name = 
  13 active torsions:
  status: ('A' for Active; 'I' for Inactive)
    1  A    between atoms: C_1  and  O_45
    2  A    between atoms: C_2  and  C_47
    3  A    between atoms: C_3  and  C_31
    4  A    between atoms: C_5  and  C_31
    5  A    between atoms: C_7  and  C_30
    6  A    between atoms: C_18  and  C_37
    7  A    between atoms: C_19  and  C_36
    8  A    between atoms: C_19  and  C_39
    9  A    between atoms: C_23  and  C_32
   10  A    between atoms: C_23  and  C_56
   11  A    between atoms: N_28  and  C_44
   12  A    between atoms: C_30  and  C_32
   13  A    between atoms: C_32  and  C_46
                            x       y       z     vdW  Elec       q    Type
                         _______ _______ _______ _____ _____    ______ ____

>  <TORSDO>
F 13

$$$$
=
 OpenBabel10232408563D

 56 62  0  0  1  0  0  0  0  0999 V2000
  187.2310  177.9940  139.5750 C   0  0  1  0  0  0  0  0  0  0  0  0
  186.1010  178.5050  138.6210 C   0  0  0  0  0  2  0  0  0  0  0  0
  187.0180  177.0720  144.9190 N   0  0  0  0  0  2  0  0  0  0  0  0
  184.8890  178.7720  139.3780 C   0  0  0  0  0  0  0  0  0  0  0  0
  186.5840  178.2600  140.9790 C   0  0  0  0  0  0  0  0  0  0  0  0
  184.3200  178.8410  141.6830 C   0  0  0  0  0  3  0  0  0  0  0  0
  188.3280  177.2800  144.2820 N   0  0  0  0  0  0  0  0  0  0  0  0
  185.0950  178.2720  145.5140 O   0  0  0  0  0  0  0  0  0  0  0  0
  183.6650  178.9030  138.8880 C   0  0  0  0  0  3  0  0  0  0  0  0
  185.9490  178.3520  143.2510 C   0  0  0  0  0  0  0  0  0  0  0  0
  187.2750  176.4890  139.3350 C   0  0  0  0  0  1  0  0  0  0  0  0
  187.0200  178.1890  142.3290 C   0  0  0  0  0  0  0  0  0  0  0  0
  185.2630  178.6940  140.7140 C   0  0  0  0  0  0  0  0  0  0  0  0
  188.3590  177.7760  142.8530 C   0  0  0  0  0  2  0  0  0  0  0  0
  185.9510  177.9230  144.6780 C   0  0  0  0  0  0  0  0  0  0  0  0
  184.6890  178.6040  142.9340 C   0  0  0  0  0  3  0  0  0  0  0  0
  188.7440  177.6320  136.1800 C   0  0  1  0  0  3  0  0  0  0  0  0
  189.9750  178.4420  139.2290 C   0  0  0  0  0  2  0  0  0  0  0  0
  191.3430  176.2150  137.5850 C   0  0  0  0  0  2  0  0  0  0  0  0
  191.6430  176.7040  140.1040 C   0  0  0  0  0  3  0  0  0  0  0  0
  190.3100  177.3940  140.3670 C   0  0  0  0  0  2  0  0  0  0  0  0
  188.5100  178.7760  137.2730 C   0  0  0  0  0  0  0  0  0  0  0  0
  192.0620  176.1730  138.9150 C   0  0  0  0  0  3  0  0  0  0  0  0
  188.9650  176.1100  136.5130 C   0  0  0  0  0  2  0  0  0  0  0  0
  189.8280  175.7780  137.7700 C   0  0  0  0  0  2  0  0  0  0  0  0
  188.4560  178.7110  138.8720 C   0  0  1  0  0  3  0  0  0  0  0  0
  188.3580  179.9360  136.8430 O   0  0  0  0  0  0  0  0  0  0  0  0
  187.7350  177.6660  134.9820 C   0  0  0  0  0  2  0  0  0  0  0  0
  186.4660  176.9480  135.4090 C   0  0  0  0  0  2  0  0  0  0  0  0
  185.7950  176.0940  134.3670 C   0  0  0  0  0  1  0  0  0  0  0  0
  190.7980  177.2220  144.6420 C   0  0  0  0  0  3  0  0  0  0  0  0
  190.1770  176.5740  147.3390 C   0  0  0  0  0  3  0  0  0  0  0  0
  191.4860  176.5400  146.9180 C   0  0  0  0  0  0  0  0  0  0  0  0
  191.7900  176.9070  145.5810 C   0  0  0  0  0  3  0  0  0  0  0  0
  189.1890  176.8960  146.4160 C   0  0  0  0  0  3  0  0  0  0  0  0
  189.4510  177.1680  145.0870 C   0  0  0  0  0  0  0  0  0  0  0  0
  192.5600  175.9440  147.7730 C   0  0  0  0  0  2  0  0  0  0  0  0
  192.1910  178.0390  148.9240 O   0  0  0  0  0  1  0  0  0  0  0  0
  194.0830  176.6470  150.1100 C   0  0  0  0  0  1  0  0  0  0  0  0
  192.6590  176.7680  149.1720 C   0  0  2  0  0  3  0  0  0  0  0  0
  182.5520  177.8900  136.9840 C   0  0  1  0  0  3  0  0  0  0  0  0
  183.8910  177.4600  137.0310 O   0  0  0  0  0  0  0  0  0  0  0  0
  183.5290  178.8520  137.4440 C   0  0  2  0  0  3  0  0  0  0  0  0
  182.1300  178.0790  135.5980 C   0  0  0  0  0  2  0  0  0  0  0  0
  180.6810  177.7270  135.1870 C   0  0  2  0  0  3  0  0  0  0  0  0
  180.7900  180.1270  135.1290 O   0  0  0  0  0  1  0  0  0  0  0  0
  179.9950  179.0750  134.7510 C   0  0  0  0  0  2  0  0  0  0  0  0
  180.0810  177.0110  136.3850 C   0  0  0  0  0  2  0  0  0  0  0  0
  180.0530  174.7750  137.5820 C   0  0  2  0  0  3  0  0  0  0  0  0
  179.9980  173.7950  135.0600 C   0  0  0  0  0  2  0  0  0  0  0  0
  180.3160  173.2590  137.4960 C   0  0  0  0  0  2  0  0  0  0  0  0
  180.4550  175.1200  135.0930 O   0  0  0  0  0  0  0  0  0  0  0  0
  180.6920  172.8990  136.0880 C   0  0  0  0  0  2  0  0  0  0  0  0
  180.5900  175.6220  136.4190 C   0  0  1  0  0  3  0  0  0  0  0  0
  179.9920  175.3810  138.8480 O   0  0  0  0  0  0  0  0  0  0  0  0
  181.3350  175.5440  139.2280 C   0  0  0  0  0  1  0  0  0  0  0  0
  1 11  1  6  0  0  0
  1  5  1  0  0  0  0
  2  4  1  0  0  0  0
  2  1  1  0  0  0  0
  4 13  1  0  0  0  0
  5 12  1  0  0  0  0
  6 16  2  0  0  0  0
  7  3  1  0  0  0  0
  7 36  1  0  0  0  0
  9  4  2  0  0  0  0
 10 15  1  0  0  0  0
 12 14  1  0  0  0  0
 12 10  2  0  0  0  0
 13  5  2  0  0  0  0
 13  6  1  0  0  0  0
 14  7  1  0  0  0  0
 15  3  1  0  0  0  0
 15  8  2  0  0  0  0
 16 10  1  0  0  0  0
 17 28  1  6  0  0  0
 17 24  1  0  0  0  0
 17 22  1  0  0  0  0
 18 21  1  0  0  0  0
 19 25  1  0  0  0  0
 19 23  1  0  0  0  0
 20 21  1  0  0  0  0
 22 26  1  0  0  0  0
 23 20  2  0  0  0  0
 24 25  1  0  0  0  0
 26 18  1  6  0  0  0
 26  1  1  0  0  0  0
 27 22  2  0  0  0  0
 28 29  1  0  0  0  0
 30 29  1  0  0  0  0
 31 36  2  0  0  0  0
 31 34  1  0  0  0  0
 33 32  1  0  0  0  0
 33 37  1  0  0  0  0
 34 33  2  0  0  0  0
 35 32  2  0  0  0  0
 36 35  1  0  0  0  0
 37 40  1  0  0  0  0
 38 40  1  0  0  0  0
 40 39  1  6  0  0  0
 41 44  1  6  0  0  0
 41 42  1  0  0  0  0
 41 43  1  0  0  0  0
 42 43  1  0  0  0  0
 43  9  1  1  0  0  0
 45 47  1  1  0  0  0
 45 44  1  0  0  0  0
 45 48  1  0  0  0  0
 47 46  1  0  0  0  0
 49 55  1  1  0  0  0
 50 52  1  0  0  0  0
 50 53  1  0  0  0  0
 51 49  1  0  0  0  0
 52 54  1  0  0  0  0
 53 51  1  0  0  0  0
 54 48  1  6  0  0  0
 54 49  1  0  0  0  0
 55 56  1  0  0  0  0
M  END
>  <MODEL>
7

>  <REMARK>
 VINA RESULT:      -4.2      4.481     10.413
  Name = 
  13 active torsions:
  status: ('A' for Active; 'I' for Inactive)
    1  A    between atoms: C_1  and  O_45
    2  A    between atoms: C_2  and  C_47
    3  A    between atoms: C_3  and  C_31
    4  A    between atoms: C_5  and  C_31
    5  A    between atoms: C_7  and  C_30
    6  A    between atoms: C_18  and  C_37
    7  A    between atoms: C_19  and  C_36
    8  A    between atoms: C_19  and  C_39
    9  A    between atoms: C_23  and  C_32
   10  A    between atoms: C_23  and  C_56
   11  A    between atoms: N_28  and  C_44
   12  A    between atoms: C_30  and  C_32
   13  A    between atoms: C_32  and  C_46
                            x       y       z     vdW  Elec       q    Type
                         _______ _______ _______ _____ _____    ______ ____

>  <TORSDO>
F 13

$$$$
=
 OpenBabel10232408563D

 56 62  0  0  1  0  0  0  0  0999 V2000
  186.8270  178.0450  139.3380 C   0  0  1  0  0  0  0  0  0  0  0  0
  185.7060  178.3980  138.3050 C   0  0  0  0  0  2  0  0  0  0  0  0
  186.4410  177.4900  144.7230 N   0  0  0  0  0  2  0  0  0  0  0  0
  184.4450  178.6240  138.9910 C   0  0  0  0  0  0  0  0  0  0  0  0
  186.0990  178.3590  140.6920 C   0  0  0  0  0  0  0  0  0  0  0  0
  183.7690  178.8120  141.2610 C   0  0  0  0  0  3  0  0  0  0  0  0
  187.7600  177.7520  144.1250 N   0  0  0  0  0  0  0  0  0  0  0  0
  184.4100  178.5770  145.1510 O   0  0  0  0  0  0  0  0  0  0  0  0
  183.2380  178.6260  138.4450 C   0  0  0  0  0  3  0  0  0  0  0  0
  185.3580  178.5620  142.9240 C   0  0  0  0  0  0  0  0  0  0  0  0
  186.9920  176.5350  139.2120 C   0  0  0  0  0  1  0  0  0  0  0  0
  186.4780  178.4170  142.0600 C   0  0  0  0  0  0  0  0  0  0  0  0
  184.7630  178.6700  140.3430 C   0  0  0  0  0  0  0  0  0  0  0  0
  187.8190  178.1470  142.6650 C   0  0  0  0  0  2  0  0  0  0  0  0
  185.3270  178.2370  144.3770 C   0  0  0  0  0  0  0  0  0  0  0  0
  184.0980  178.6940  142.5390 C   0  0  0  0  0  3  0  0  0  0  0  0
  188.4010  177.6740  135.9710 C   0  0  1  0  0  3  0  0  0  0  0  0
  189.5510  178.6140  139.0150 C   0  0  0  0  0  2  0  0  0  0  0  0
  191.0440  176.4160  137.4430 C   0  0  0  0  0  2  0  0  0  0  0  0
  191.2870  176.9780  139.9530 C   0  0  0  0  0  3  0  0  0  0  0  0
  189.9190  177.6100  140.1820 C   0  0  0  0  0  2  0  0  0  0  0  0
  188.0990  178.8310  137.0330 C   0  0  0  0  0  0  0  0  0  0  0  0
  191.7470  176.4400  138.7830 C   0  0  0  0  0  3  0  0  0  0  0  0
  188.6890  176.1730  136.3440 C   0  0  0  0  0  2  0  0  0  0  0  0
  189.5490  175.9120  137.6200 C   0  0  0  0  0  2  0  0  0  0  0  0
  188.0260  178.8020  138.6330 C   0  0  1  0  0  3  0  0  0  0  0  0
  187.8980  179.9720  136.5740 O   0  0  0  0  0  0  0  0  0  0  0  0
  187.4070  177.6320  134.7610 C   0  0  0  0  0  2  0  0  0  0  0  0
  187.2250  176.1810  134.3460 C   0  0  0  0  0  2  0  0  0  0  0  0
  185.8190  175.6470  134.3790 C   0  0  0  0  0  1  0  0  0  0  0  0
  190.2100  177.8980  144.5840 C   0  0  0  0  0  3  0  0  0  0  0  0
  189.5130  177.4210  147.2990 C   0  0  0  0  0  3  0  0  0  0  0  0
  190.8400  177.4480  146.9340 C   0  0  0  0  0  0  0  0  0  0  0  0
  191.1780  177.7290  145.5850 C   0  0  0  0  0  3  0  0  0  0  0  0
  188.5490  177.5990  146.3150 C   0  0  0  0  0  3  0  0  0  0  0  0
  188.8500  177.7830  144.9800 C   0  0  0  0  0  0  0  0  0  0  0  0
  191.9120  176.9990  147.8760 C   0  0  0  0  0  2  0  0  0  0  0  0
  192.8240  174.9680  148.8190 O   0  0  0  0  0  1  0  0  0  0  0  0
  192.7320  174.8160  146.1930 C   0  0  0  0  0  1  0  0  0  0  0  0
  192.1610  175.4030  147.6940 C   0  0  2  0  0  3  0  0  0  0  0  0
  182.7670  177.1380  136.5860 C   0  0  1  0  0  3  0  0  0  0  0  0
  184.1500  177.3860  136.6520 O   0  0  0  0  0  0  0  0  0  0  0  0
  183.1710  178.4630  137.0040 C   0  0  2  0  0  3  0  0  0  0  0  0
  182.3350  177.0560  135.1920 C   0  0  0  0  0  2  0  0  0  0  0  0
  181.3000  175.9830  134.7770 C   0  0  2  0  0  3  0  0  0  0  0  0
  180.0830  178.0560  134.8090 O   0  0  0  0  0  1  0  0  0  0  0  0
  179.9820  176.7540  134.3900 C   0  0  0  0  0  2  0  0  0  0  0  0
  181.2110  175.0260  135.9540 C   0  0  0  0  0  2  0  0  0  0  0  0
  182.3850  172.8500  136.5210 C   0  0  2  0  0  3  0  0  0  0  0  0
  180.2360  171.7530  135.2970 C   0  0  0  0  0  2  0  0  0  0  0  0
  182.5400  171.3480  136.2170 C   0  0  0  0  0  2  0  0  0  0  0  0
  180.4020  173.1000  134.9460 O   0  0  0  0  0  0  0  0  0  0  0  0
  181.5290  170.9430  135.1840 C   0  0  0  0  0  2  0  0  0  0  0  0
  181.5840  173.6700  135.4980 C   0  0  1  0  0  3  0  0  0  0  0  0
  183.4110  173.5110  137.2150 O   0  0  0  0  0  0  0  0  0  0  0  0
  184.5980  172.9680  136.6940 C   0  0  0  0  0  1  0  0  0  0  0  0
  1 11  1  6  0  0  0
  1  5  1  0  0  0  0
  2  4  1  0  0  0  0
  2  1  1  0  0  0  0
  4 13  1  0  0  0  0
  5 12  1  0  0  0  0
  6 16  2  0  0  0  0
  7  3  1  0  0  0  0
  7 36  1  0  0  0  0
  9  4  2  0  0  0  0
 10 15  1  0  0  0  0
 12 14  1  0  0  0  0
 12 10  2  0  0  0  0
 13  5  2  0  0  0  0
 13  6  1  0  0  0  0
 14  7  1  0  0  0  0
 15  3  1  0  0  0  0
 15  8  2  0  0  0  0
 16 10  1  0  0  0  0
 17 28  1  6  0  0  0
 17 24  1  0  0  0  0
 17 22  1  0  0  0  0
 18 21  1  0  0  0  0
 19 25  1  0  0  0  0
 19 23  1  0  0  0  0
 20 21  1  0  0  0  0
 22 26  1  0  0  0  0
 23 20  2  0  0  0  0
 24 25  1  0  0  0  0
 26 18  1  1  0  0  0
 26  1  1  0  0  0  0
 27 22  2  0  0  0  0
 29 30  1  0  0  0  0
 29 28  1  0  0  0  0
 31 36  2  0  0  0  0
 31 34  1  0  0  0  0
 33 32  1  0  0  0  0
 33 37  1  0  0  0  0
 34 33  2  0  0  0  0
 35 32  2  0  0  0  0
 36 35  1  0  0  0  0
 40 39  1  6  0  0  0
 40 37  1  0  0  0  0
 40 38  1  0  0  0  0
 41 44  1  6  0  0  0
 41 42  1  0  0  0  0
 41 43  1  0  0  0  0
 42 43  1  0  0  0  0
 43  9  1  1  0  0  0
 45 47  1  1  0  0  0
 45 44  1  0  0  0  0
 45 48  1  0  0  0  0
 47 46  1  0  0  0  0
 49 55  1  6  0  0  0
 51 49  1  0  0  0  0
 52 50  1  0  0  0  0
 52 54  1  0  0  0  0
 53 50  1  0  0  0  0
 53 51  1  0  0  0  0
 54 48  1  1  0  0  0
 54 49  1  0  0  0  0
 56 55  1  0  0  0  0
M  END
>  <MODEL>
8

>  <REMARK>
 VINA RESULT:      -3.9      4.543      9.674
  Name = 
  13 active torsions:
  status: ('A' for Active; 'I' for Inactive)
    1  A    between atoms: C_1  and  O_45
    2  A    between atoms: C_2  and  C_47
    3  A    between atoms: C_3  and  C_31
    4  A    between atoms: C_5  and  C_31
    5  A    between atoms: C_7  and  C_30
    6  A    between atoms: C_18  and  C_37
    7  A    between atoms: C_19  and  C_36
    8  A    between atoms: C_19  and  C_39
    9  A    between atoms: C_23  and  C_32
   10  A    between atoms: C_23  and  C_56
   11  A    between atoms: N_28  and  C_44
   12  A    between atoms: C_30  and  C_32
   13  A    between atoms: C_32  and  C_46
                            x       y       z     vdW  Elec       q    Type
                         _______ _______ _______ _____ _____    ______ ____

>  <TORSDO>
F 13

$$$$
=
 OpenBabel10232408563D

 56 62  0  0  1  0  0  0  0  0999 V2000
  189.4920  173.4220  135.4920 C   0  0  1  0  0  0  0  0  0  0  0  0
  190.8470  172.7750  135.0550 C   0  0  0  0  0  2  0  0  0  0  0  0
  184.5820  171.1350  135.8340 N   0  0  0  0  0  2  0  0  0  0  0  0
  190.6410  171.3870  134.6760 C   0  0  0  0  0  0  0  0  0  0  0  0
  188.4730  172.3090  135.0610 C   0  0  0  0  0  0  0  0  0  0  0  0
  188.7470  169.9910  134.3460 C   0  0  0  0  0  3  0  0  0  0  0  0
  184.6810  172.6000  135.7320 N   0  0  0  0  0  0  0  0  0  0  0  0
  184.8790  169.2140  134.5250 O   0  0  0  0  0  0  0  0  0  0  0  0
  191.5730  170.4520  134.5650 C   0  0  0  0  0  3  0  0  0  0  0  0
  186.6370  170.8670  134.7100 C   0  0  0  0  0  0  0  0  0  0  0  0
  189.5630  173.4540  137.0150 C   0  0  0  0  0  1  0  0  0  0  0  0
  187.0590  172.1940  135.0000 C   0  0  0  0  0  0  0  0  0  0  0  0
  189.2630  171.2200  134.6220 C   0  0  0  0  0  0  0  0  0  0  0  0
  186.0260  173.2040  135.3910 C   0  0  0  0  0  2  0  0  0  0  0  0
  185.2880  170.2980  134.9840 C   0  0  0  0  0  0  0  0  0  0  0  0
  187.4360  169.8410  134.4590 C   0  0  0  0  0  3  0  0  0  0  0  0
  190.6320  176.6300  137.0260 C   0  0  1  0  0  3  0  0  0  0  0  0
  188.5720  175.8560  134.4510 C   0  0  0  0  0  2  0  0  0  0  0  0
  187.5910  177.7910  136.6480 C   0  0  0  0  0  2  0  0  0  0  0  0
  186.1490  176.5640  134.8900 C   0  0  0  0  0  3  0  0  0  0  0  0
  187.0720  175.3820  134.6170 C   0  0  0  0  0  2  0  0  0  0  0  0
  190.7420  175.8650  135.6270 C   0  0  0  0  0  0  0  0  0  0  0  0
  186.3660  177.5740  135.7860 C   0  0  0  0  0  3  0  0  0  0  0  0
  189.4130  176.5150  138.0150 C   0  0  0  0  0  2  0  0  0  0  0  0
  187.9900  176.4380  137.3790 C   0  0  0  0  0  2  0  0  0  0  0  0
  189.7300  174.8670  134.8890 C   0  0  1  0  0  3  0  0  0  0  0  0
  191.7720  176.0700  134.9570 O   0  0  0  0  0  0  0  0  0  0  0  0
  191.9170  176.5350  137.9180 C   0  0  0  0  0  2  0  0  0  0  0  0
  191.7750  177.5220  139.0640 C   0  0  0  0  0  2  0  0  0  0  0  0
  192.3740  177.1110  140.3810 C   0  0  0  0  0  1  0  0  0  0  0  0
  183.2670  174.5790  135.1680 C   0  0  0  0  0  3  0  0  0  0  0  0
  181.3430  173.4370  136.9230 C   0  0  0  0  0  3  0  0  0  0  0  0
  181.1250  174.6920  136.4010 C   0  0  0  0  0  0  0  0  0  0  0  0
  182.0710  175.2350  135.4920 C   0  0  0  0  0  3  0  0  0  0  0  0
  182.5220  172.7770  136.5980 C   0  0  0  0  0  3  0  0  0  0  0  0
  183.5000  173.3220  135.7880 C   0  0  0  0  0  0  0  0  0  0  0  0
  180.0240  175.5640  136.9150 C   0  0  0  0  0  2  0  0  0  0  0  0
  181.6790  177.1380  137.7090 O   0  0  0  0  0  1  0  0  0  0  0  0
  180.7000  175.7310  139.7060 C   0  0  0  0  0  1  0  0  0  0  0  0
  180.5740  176.4530  138.1610 C   0  0  2  0  0  3  0  0  0  0  0  0
  193.8100  169.8230  135.2650 C   0  0  1  0  0  3  0  0  0  0  0  0
  193.2420  170.6860  136.2210 O   0  0  0  0  0  0  0  0  0  0  0  0
  192.9480  170.8720  134.7640 C   0  0  2  0  0  3  0  0  0  0  0  0
  195.2370  170.1000  135.1200 C   0  0  0  0  0  2  0  0  0  0  0  0
  196.1140  170.2650  136.3840 C   0  0  2  0  0  3  0  0  0  0  0  0
  197.3040  168.2460  136.9150 O   0  0  0  0  0  1  0  0  0  0  0  0
  196.1040  168.8760  137.1250 C   0  0  0  0  0  2  0  0  0  0  0  0
  195.5240  171.4450  137.1370 C   0  0  0  0  0  2  0  0  0  0  0  0
  196.7640  173.4250  138.1250 C   0  0  2  0  0  3  0  0  0  0  0  0
  198.6140  172.7800  136.2590 C   0  0  0  0  0  2  0  0  0  0  0  0
  197.8520  174.4990  137.9280 C   0  0  0  0  0  2  0  0  0  0  0  0
  197.3580  172.2340  135.9560 O   0  0  0  0  0  0  0  0  0  0  0  0
  198.5480  174.2660  136.6190 C   0  0  0  0  0  2  0  0  0  0  0  0
  196.3460  172.6450  136.8700 C   0  0  1  0  0  3  0  0  0  0  0  0
  195.7880  173.6230  139.1160 O   0  0  0  0  0  0  0  0  0  0  0  0
  196.0040  174.9360  139.5690 C   0  0  0  0  0  1  0  0  0  0  0  0
  1 11  1  1  0  0  0
  2  1  1  0  0  0  0
  4  2  1  0  0  0  0
  5  1  1  0  0  0  0
  6 16  2  0  0  0  0
  6 13  1  0  0  0  0
  7 36  1  0  0  0  0
  7  3  1  0  0  0  0
  8 15  2  0  0  0  0
  9  4  2  0  0  0  0
 10 15  1  0  0  0  0
 10 12  2  0  0  0  0
 12  5  1  0  0  0  0
 12 14  1  0  0  0  0
 13  4  1  0  0  0  0
 13  5  2  0  0  0  0
 14  7  1  0  0  0  0
 15  3  1  0  0  0  0
 16 10  1  0  0  0  0
 17 28  1  1  0  0  0
 17 24  1  0  0  0  0
 18 21  1  0  0  0  0
 19 25  1  0  0  0  0
 20 23  2  0  0  0  0
 21 20  1  0  0  0  0
 22 17  1  0  0  0  0
 23 19  1  0  0  0  0
 25 24  1  0  0  0  0
 26 18  1  1  0  0  0
 26  1  1  0  0  0  0
 26 22  1  0  0  0  0
 27 22  2  0  0  0  0
 28 29  1  0  0  0  0
 29 30  1  0  0  0  0
 31 34  2  0  0  0  0
 31 36  1  0  0  0  0
 33 37  1  0  0  0  0
 33 32  2  0  0  0  0
 34 33  1  0  0  0  0
 35 32  1  0  0  0  0
 36 35  2  0  0  0  0
 37 40  1  0  0  0  0
 38 40  1  0  0  0  0
 40 39  1  1  0  0  0
 41 44  1  6  0  0  0
 41 42  1  0  0  0  0
 43  9  1  1  0  0  0
 43 41  1  0  0  0  0
 43 42  1  0  0  0  0
 45 44  1  6  0  0  0
 45 47  1  0  0  0  0
 45 48  1  0  0  0  0
 46 47  1  0  0  0  0
 49 55  1  6  0  0  0
 50 53  1  0  0  0  0
 51 49  1  0  0  0  0
 52 50  1  0  0  0  0
 52 54  1  0  0  0  0
 53 51  1  0  0  0  0
 54 48  1  1  0  0  0
 54 49  1  0  0  0  0
 55 56  1  0  0  0  0
M  END
>  <MODEL>
9

>  <REMARK>
 VINA RESULT:      -3.1      3.129      6.376
  Name = 
  13 active torsions:
  status: ('A' for Active; 'I' for Inactive)
    1  A    between atoms: C_1  and  O_45
    2  A    between atoms: C_2  and  C_47
    3  A    between atoms: C_3  and  C_31
    4  A    between atoms: C_5  and  C_31
    5  A    between atoms: C_7  and  C_30
    6  A    between atoms: C_18  and  C_37
    7  A    between atoms: C_19  and  C_36
    8  A    between atoms: C_19  and  C_39
    9  A    between atoms: C_23  and  C_32
   10  A    between atoms: C_23  and  C_56
   11  A    between atoms: N_28  and  C_44
   12  A    between atoms: C_30  and  C_32
   13  A    between atoms: C_32  and  C_46
                            x       y       z     vdW  Elec       q    Type
                         _______ _______ _______ _____ _____    ______ ____

>  <TORSDO>
F 13

$$$$
