=
 OpenBabel10232409383D

 35 37  0  0  1  0  0  0  0  0999 V2000
  189.4060  177.1110  145.4410 C   0  0  2  0  0  3  0  0  0  0  0  0
  185.5370  178.2950  147.0550 C   0  0  0  0  0  3  0  0  0  0  0  0
  186.5690  178.0760  147.8860 C   0  0  0  0  0  3  0  0  0  0  0  0
  183.7150  178.7390  144.3040 N   0  0  0  0  0  0  0  0  0  0  0  0
  188.0060  177.8540  147.4150 C   0  0  1  0  0  3  0  0  0  0  0  0
  185.7850  178.2000  143.4500 C   0  0  0  0  0  0  0  0  0  0  0  0
  188.1350  177.6120  145.9610 N   0  0  0  0  0  0  0  0  0  0  0  0
  185.0130  178.4340  144.5180 C   0  0  0  0  0  0  0  0  0  0  0  0
  187.0180  177.8810  143.7740 O   0  0  0  0  0  0  0  0  0  0  0  0
  187.0270  177.9130  145.1020 C   0  0  0  0  0  0  0  0  0  0  0  0
  185.7970  178.2600  145.6210 C   0  0  0  0  0  0  0  0  0  0  0  0
  188.8140  179.0020  147.7910 N   0  0  0  0  0  1  0  0  0  0  0  0
  184.9150  178.3610  142.0330 S   0  0  0  0  0  0  0  0  0  0  0  0
  183.5100  178.7430  142.9540 C   0  0  0  0  0  0  0  0  0  0  0  0
  182.1830  179.0290  142.3450 C   0  0  0  0  0  2  0  0  0  0  0  0
  181.2460  179.2690  143.3500 O   0  0  0  0  0  1  0  0  0  0  0  0
  190.2050  176.4380  146.5520 C   0  0  0  0  0  2  0  0  0  0  0  0
  192.2440  175.8270  147.1530 C   0  0  0  0  0  1  0  0  0  0  0  0
  191.5450  176.8170  146.4620 O   0  0  0  0  0  0  0  0  0  0  0  0
  190.1840  178.2420  144.7690 C   0  0  0  0  0  2  0  0  0  0  0  0
  190.4270  177.9690  143.2950 C   0  0  0  0  0  2  0  0  0  0  0  0
  190.1140  176.5810  142.9970 N   0  0  0  0  0  2  0  0  0  0  0  0
  189.3630  176.5870  141.8670 O   0  0  0  0  0  0  0  0  0  0  0  0
  190.0830  177.3900  140.9800 C   0  0  0  0  0  2  0  0  0  0  0  0
  190.0290  176.8000  139.5790 C   0  0  1  0  0  3  0  0  0  0  0  0
  188.2300  176.8460  137.9350 C   0  0  0  0  0  3  0  0  0  0  0  0
  188.8950  178.9210  138.9080 O   0  0  0  0  0  1  0  0  0  0  0  0
  189.0070  177.5400  138.7730 C   0  0  0  0  0  0  0  0  0  0  0  0
  187.1750  177.4020  137.1320 N   0  0  0  0  0  0  0  0  0  0  0  0
  187.5460  178.0850  135.9060 C   0  0  0  0  0  1  0  0  0  0  0  0
  185.3010  178.4260  138.3120 C   0  0  0  0  0  1  0  0  0  0  0  0
  185.7540  177.2720  137.4410 C   0  0  0  0  0  2  0  0  0  0  0  0
  191.4020  176.8870  138.9260 C   0  0  0  0  0  2  0  0  0  0  0  0
  191.1240  174.6680  138.2050 O   0  0  0  0  0  0  0  0  0  0  0  0
  191.6000  175.7630  137.9640 C   0  0  0  0  0  3  0  0  0  0  0  0
  1 20  1  1  0  0  0
  1  7  1  0  0  0  0
  1 17  1  0  0  0  0
  2  3  2  0  0  0  0
  4  8  1  0  0  0  0
  5 12  1  6  0  0  0
  5  3  1  0  0  0  0
  6  9  1  0  0  0  0
  6  8  2  0  0  0  0
  7  5  1  0  0  0  0
  8 11  1  0  0  0  0
  9 10  1  0  0  0  0
 10 11  2  0  0  0  0
 10  7  1  0  0  0  0
 11  2  1  0  0  0  0
 13 14  1  0  0  0  0
 13  6  1  0  0  0  0
 14  4  2  0  0  0  0
 15 14  1  0  0  0  0
 15 16  1  0  0  0  0
 19 17  1  0  0  0  0
 19 18  1  0  0  0  0
 21 20  1  0  0  0  0
 22 21  1  0  0  0  0
 23 22  1  0  0  0  0
 24 23  1  0  0  0  0
 25 33  1  6  0  0  0
 25 24  1  0  0  0  0
 26 28  2  0  0  0  0
 28 27  1  0  0  0  0
 28 25  1  0  0  0  0
 29 32  1  0  0  0  0
 29 26  1  0  0  0  0
 30 29  1  0  0  0  0
 32 31  1  0  0  0  0
 35 34  2  0  0  0  0
 35 33  1  0  0  0  0
M  END
>  <MODEL>
1

>  <REMARK>
 VINA RESULT:      -6.7      0.000      0.000
  Name = 
  15 active torsions:
  status: ('A' for Active; 'I' for Inactive)
    1  A    between atoms: N_3  and  C_25
    2  A    between atoms: N_3  and  O_34
    3  A    between atoms: C_6  and  N_10
    4  A    between atoms: C_8  and  C_16
    5  A    between atoms: C_8  and  O_17
    6  A    between atoms: C_9  and  C_35
    7  A    between atoms: N_10  and  C_30
    8  A    between atoms: C_12  and  C_15
    9  A    between atoms: C_15  and  C_21
   10  A    between atoms: C_16  and  N_18
   11  A    between atoms: C_16  and  C_32
   12  A    between atoms: C_21  and  C_29
   13  A    between atoms: C_21  and  C_31
   14  A    between atoms: C_25  and  C_32
   15  A    between atoms: C_31  and  O_34
                            x       y       z     vdW  Elec       q    Type
                         _______ _______ _______ _____ _____    ______ ____

>  <TORSDO>
F 15

$$$$
=
 OpenBabel10232409383D

 35 37  0  0  1  0  0  0  0  0999 V2000
  190.0540  176.9500  145.7430 C   0  0  2  0  0  3  0  0  0  0  0  0
  185.8990  177.9540  146.5760 C   0  0  0  0  0  3  0  0  0  0  0  0
  186.7470  177.7210  147.5910 C   0  0  0  0  0  3  0  0  0  0  0  0
  184.6620  178.4860  143.5310 N   0  0  0  0  0  0  0  0  0  0  0  0
  188.2560  177.5600  147.4160 C   0  0  1  0  0  3  0  0  0  0  0  0
  186.8800  178.0420  143.0980 C   0  0  0  0  0  0  0  0  0  0  0  0
  188.6870  177.3930  146.0110 N   0  0  0  0  0  0  0  0  0  0  0  0
  185.8990  178.2040  143.9940 C   0  0  0  0  0  0  0  0  0  0  0  0
  188.0310  177.7400  143.6550 O   0  0  0  0  0  0  0  0  0  0  0  0
  187.7680  177.7070  144.9560 C   0  0  0  0  0  0  0  0  0  0  0  0
  186.4470  177.9960  145.2260 C   0  0  0  0  0  0  0  0  0  0  0  0
  188.9300  178.7080  147.9990 N   0  0  0  0  0  1  0  0  0  0  0  0
  186.3130  178.2510  141.5410 S   0  0  0  0  0  0  0  0  0  0  0  0
  184.7370  178.5500  142.1690 C   0  0  0  0  0  0  0  0  0  0  0  0
  183.5530  178.8310  141.3130 C   0  0  0  0  0  2  0  0  0  0  0  0
  182.3920  178.7800  142.0840 O   0  0  0  0  0  1  0  0  0  0  0  0
  190.6800  176.3640  147.0040 C   0  0  0  0  0  2  0  0  0  0  0  0
  192.6500  175.7500  147.8000 C   0  0  0  0  0  1  0  0  0  0  0  0
  192.0110  176.7740  147.1020 O   0  0  0  0  0  0  0  0  0  0  0  0
  190.8780  178.1020  145.1660 C   0  0  0  0  0  2  0  0  0  0  0  0
  191.5650  177.7170  143.8670 C   0  0  0  0  0  2  0  0  0  0  0  0
  191.1380  176.3870  143.4650 N   0  0  0  0  0  2  0  0  0  0  0  0
  190.7740  176.4750  142.1610 O   0  0  0  0  0  0  0  0  0  0  0  0
  191.7080  177.3500  141.6020 C   0  0  0  0  0  2  0  0  0  0  0  0
  191.4860  177.4640  140.1010 C   0  0  1  0  0  3  0  0  0  0  0  0
  192.4780  176.1490  138.3050 C   0  0  0  0  0  3  0  0  0  0  0  0
  193.9560  177.2010  139.8550 O   0  0  0  0  0  1  0  0  0  0  0  0
  192.6780  176.9130  139.3840 C   0  0  0  0  0  0  0  0  0  0  0  0
  193.5150  175.5870  137.4840 N   0  0  0  0  0  0  0  0  0  0  0  0
  193.8980  176.3130  136.2870 C   0  0  0  0  0  1  0  0  0  0  0  0
  195.6770  174.4690  137.3190 C   0  0  0  0  0  1  0  0  0  0  0  0
  194.2460  174.3660  137.8080 C   0  0  0  0  0  2  0  0  0  0  0  0
  190.2200  176.7150  139.7060 C   0  0  0  0  0  2  0  0  0  0  0  0
  188.2030  177.2200  138.6110 O   0  0  0  0  0  0  0  0  0  0  0  0
  189.2000  177.6570  139.1580 C   0  0  0  0  0  3  0  0  0  0  0  0
  1 20  1  1  0  0  0
  1  7  1  0  0  0  0
  1 17  1  0  0  0  0
  2  3  2  0  0  0  0
  4  8  1  0  0  0  0
  5  3  1  0  0  0  0
  5 12  1  6  0  0  0
  6  9  1  0  0  0  0
  6  8  2  0  0  0  0
  7  5  1  0  0  0  0
  8 11  1  0  0  0  0
  9 10  1  0  0  0  0
 10 11  2  0  0  0  0
 10  7  1  0  0  0  0
 11  2  1  0  0  0  0
 13 14  1  0  0  0  0
 13  6  1  0  0  0  0
 14  4  2  0  0  0  0
 15 16  1  0  0  0  0
 15 14  1  0  0  0  0
 17 19  1  0  0  0  0
 19 18  1  0  0  0  0
 21 20  1  0  0  0  0
 22 21  1  0  0  0  0
 23 22  1  0  0  0  0
 24 23  1  0  0  0  0
 25 33  1  6  0  0  0
 25 24  1  0  0  0  0
 26 28  2  0  0  0  0
 28 27  1  0  0  0  0
 28 25  1  0  0  0  0
 29 32  1  0  0  0  0
 29 26  1  0  0  0  0
 30 29  1  0  0  0  0
 31 32  1  0  0  0  0
 34 35  2  0  0  0  0
 35 33  1  0  0  0  0
M  END
>  <MODEL>
2

>  <REMARK>
 VINA RESULT:      -6.6      1.971      3.442
  Name = 
  15 active torsions:
  status: ('A' for Active; 'I' for Inactive)
    1  A    between atoms: N_3  and  C_25
    2  A    between atoms: N_3  and  O_34
    3  A    between atoms: C_6  and  N_10
    4  A    between atoms: C_8  and  C_16
    5  A    between atoms: C_8  and  O_17
    6  A    between atoms: C_9  and  C_35
    7  A    between atoms: N_10  and  C_30
    8  A    between atoms: C_12  and  C_15
    9  A    between atoms: C_15  and  C_21
   10  A    between atoms: C_16  and  N_18
   11  A    between atoms: C_16  and  C_32
   12  A    between atoms: C_21  and  C_29
   13  A    between atoms: C_21  and  C_31
   14  A    between atoms: C_25  and  C_32
   15  A    between atoms: C_31  and  O_34
                            x       y       z     vdW  Elec       q    Type
                         _______ _______ _______ _____ _____    ______ ____

>  <TORSDO>
F 15

$$$$
=
 OpenBabel10232409383D

 35 37  0  0  1  0  0  0  0  0999 V2000
  188.7140  176.6690  142.6880 C   0  0  2  0  0  3  0  0  0  0  0  0
  186.1270  177.9530  145.9480 C   0  0  0  0  0  3  0  0  0  0  0  0
  187.3860  177.5650  146.2080 C   0  0  0  0  0  3  0  0  0  0  0  0
  183.3420  178.8380  144.3520 N   0  0  0  0  0  0  0  0  0  0  0  0
  188.4290  177.2900  145.1250 C   0  0  1  0  0  3  0  0  0  0  0  0
  184.7410  178.2430  142.6230 C   0  0  0  0  0  0  0  0  0  0  0  0
  187.8720  177.2030  143.7570 N   0  0  0  0  0  0  0  0  0  0  0  0
  184.5550  178.4140  143.9370 C   0  0  0  0  0  0  0  0  0  0  0  0
  185.9430  177.7990  142.3330 O   0  0  0  0  0  0  0  0  0  0  0  0
  186.5420  177.6810  143.5130 C   0  0  0  0  0  0  0  0  0  0  0  0
  185.7190  178.0590  144.5530 C   0  0  0  0  0  0  0  0  0  0  0  0
  189.4490  178.3250  145.1710 N   0  0  0  0  0  1  0  0  0  0  0  0
  183.3600  178.6270  141.7650 S   0  0  0  0  0  0  0  0  0  0  0  0
  182.5630  179.0080  143.2440 C   0  0  0  0  0  0  0  0  0  0  0  0
  181.1470  179.4590  143.3200 C   0  0  0  0  0  2  0  0  0  0  0  0
  180.4300  178.6170  144.1710 O   0  0  0  0  0  1  0  0  0  0  0  0
  189.7580  175.7170  143.2600 C   0  0  0  0  0  2  0  0  0  0  0  0
  191.8210  175.8070  144.0540 C   0  0  0  0  0  1  0  0  0  0  0  0
  191.0380  176.1910  142.9660 O   0  0  0  0  0  0  0  0  0  0  0  0
  189.3440  177.8120  141.8910 C   0  0  0  0  0  2  0  0  0  0  0  0
  189.1070  177.6640  140.3980 C   0  0  0  0  0  2  0  0  0  0  0  0
  188.2990  178.7740  139.9200 N   0  0  0  0  0  2  0  0  0  0  0  0
  188.6910  179.0170  138.6440 O   0  0  0  0  0  0  0  0  0  0  0  0
  188.6940  177.7580  138.0400 C   0  0  0  0  0  2  0  0  0  0  0  0
  189.1350  177.8740  136.5890 C   0  0  1  0  0  3  0  0  0  0  0  0
  190.3230  175.8360  137.2000 C   0  0  0  0  0  3  0  0  0  0  0  0
  190.3410  176.4820  134.9030 O   0  0  0  0  0  1  0  0  0  0  0  0
  189.9630  176.6810  136.2290 C   0  0  0  0  0  0  0  0  0  0  0  0
  191.0740  174.6250  137.0090 N   0  0  0  0  0  0  0  0  0  0  0  0
  192.4330  174.5830  137.5160 C   0  0  0  0  0  1  0  0  0  0  0  0
  189.1000  173.2020  136.8260 C   0  0  0  0  0  1  0  0  0  0  0  0
  190.5360  173.4160  136.3910 C   0  0  0  0  0  2  0  0  0  0  0  0
  187.9160  177.9820  135.6830 C   0  0  0  0  0  2  0  0  0  0  0  0
  186.5240  176.1880  135.0790 O   0  0  0  0  0  0  0  0  0  0  0  0
  186.9400  176.8920  135.9810 C   0  0  0  0  0  3  0  0  0  0  0  0
  1 20  1  1  0  0  0
  1 17  1  0  0  0  0
  1  7  1  0  0  0  0
  2  3  2  0  0  0  0
  5 12  1  6  0  0  0
  5  3  1  0  0  0  0
  6  8  2  0  0  0  0
  7  5  1  0  0  0  0
  8  4  1  0  0  0  0
  8 11  1  0  0  0  0
  9  6  1  0  0  0  0
  9 10  1  0  0  0  0
 10  7  1  0  0  0  0
 10 11  2  0  0  0  0
 11  2  1  0  0  0  0
 13  6  1  0  0  0  0
 13 14  1  0  0  0  0
 14 15  1  0  0  0  0
 14  4  2  0  0  0  0
 15 16  1  0  0  0  0
 19 17  1  0  0  0  0
 19 18  1  0  0  0  0
 21 20  1  0  0  0  0
 22 21  1  0  0  0  0
 23 22  1  0  0  0  0
 24 23  1  0  0  0  0
 25 33  1  6  0  0  0
 25 24  1  0  0  0  0
 27 28  1  0  0  0  0
 28 25  1  0  0  0  0
 28 26  2  0  0  0  0
 29 26  1  0  0  0  0
 29 30  1  0  0  0  0
 32 31  1  0  0  0  0
 32 29  1  0  0  0  0
 33 35  1  0  0  0  0
 34 35  2  0  0  0  0
M  END
>  <MODEL>
3

>  <REMARK>
 VINA RESULT:      -6.6      2.179      3.488
  Name = 
  15 active torsions:
  status: ('A' for Active; 'I' for Inactive)
    1  A    between atoms: N_3  and  C_25
    2  A    between atoms: N_3  and  O_34
    3  A    between atoms: C_6  and  N_10
    4  A    between atoms: C_8  and  C_16
    5  A    between atoms: C_8  and  O_17
    6  A    between atoms: C_9  and  C_35
    7  A    between atoms: N_10  and  C_30
    8  A    between atoms: C_12  and  C_15
    9  A    between atoms: C_15  and  C_21
   10  A    between atoms: C_16  and  N_18
   11  A    between atoms: C_16  and  C_32
   12  A    between atoms: C_21  and  C_29
   13  A    between atoms: C_21  and  C_31
   14  A    between atoms: C_25  and  C_32
   15  A    between atoms: C_31  and  O_34
                            x       y       z     vdW  Elec       q    Type
                         _______ _______ _______ _____ _____    ______ ____

>  <TORSDO>
F 15

$$$$
=
 OpenBabel10232409383D

 35 37  0  0  1  0  0  0  0  0999 V2000
  188.6630  176.7690  142.5470 C   0  0  2  0  0  3  0  0  0  0  0  0
  186.1660  177.9390  145.9180 C   0  0  0  0  0  3  0  0  0  0  0  0
  187.4380  177.5650  146.1270 C   0  0  0  0  0  3  0  0  0  0  0  0
  183.3180  178.8170  144.4340 N   0  0  0  0  0  0  0  0  0  0  0  0
  188.4490  177.3310  145.0050 C   0  0  1  0  0  3  0  0  0  0  0  0
  184.6680  178.2830  142.6470 C   0  0  0  0  0  0  0  0  0  0  0  0
  187.8490  177.2660  143.6550 N   0  0  0  0  0  0  0  0  0  0  0  0
  184.5220  178.4210  143.9690 C   0  0  0  0  0  0  0  0  0  0  0  0
  185.8660  177.8640  142.3080 O   0  0  0  0  0  0  0  0  0  0  0  0
  186.5050  177.7290  143.4640 C   0  0  0  0  0  0  0  0  0  0  0  0
  185.7110  178.0700  144.5390 C   0  0  0  0  0  0  0  0  0  0  0  0
  189.4550  178.3790  145.0420 N   0  0  0  0  0  1  0  0  0  0  0  0
  183.2540  178.6650  141.8430 S   0  0  0  0  0  0  0  0  0  0  0  0
  182.5000  179.0000  143.3550 C   0  0  0  0  0  0  0  0  0  0  0  0
  181.0810  179.4270  143.4880 C   0  0  0  0  0  2  0  0  0  0  0  0
  180.3070  178.3560  143.9330 O   0  0  0  0  0  1  0  0  0  0  0  0
  189.6730  175.7420  143.0480 C   0  0  0  0  0  2  0  0  0  0  0  0
  191.7180  175.8250  143.8860 C   0  0  0  0  0  1  0  0  0  0  0  0
  190.9680  176.1800  142.7660 O   0  0  0  0  0  0  0  0  0  0  0  0
  189.3330  177.9360  141.8190 C   0  0  0  0  0  2  0  0  0  0  0  0
  188.7250  178.1760  140.4480 C   0  0  0  0  0  2  0  0  0  0  0  0
  189.7210  177.9150  139.4210 N   0  0  0  0  0  2  0  0  0  0  0  0
  189.0840  177.2480  138.4260 O   0  0  0  0  0  0  0  0  0  0  0  0
  188.2390  178.2030  137.8570 C   0  0  0  0  0  2  0  0  0  0  0  0
  187.1580  177.5210  137.0330 C   0  0  1  0  0  3  0  0  0  0  0  0
  184.7780  177.0380  137.2430 C   0  0  0  0  0  3  0  0  0  0  0  0
  185.7210  178.6320  138.7460 O   0  0  0  0  0  1  0  0  0  0  0  0
  185.8310  177.7290  137.6920 C   0  0  0  0  0  0  0  0  0  0  0  0
  183.4540  177.0900  137.7990 N   0  0  0  0  0  0  0  0  0  0  0  0
  182.5210  178.0490  137.2380 C   0  0  0  0  0  1  0  0  0  0  0  0
  181.5460  176.5570  139.2240 C   0  0  0  0  0  1  0  0  0  0  0  0
  182.9710  176.1990  138.8500 C   0  0  0  0  0  2  0  0  0  0  0  0
  187.1540  178.0830  135.6170 C   0  0  0  0  0  2  0  0  0  0  0  0
  189.1800  177.6910  134.4930 O   0  0  0  0  0  0  0  0  0  0  0  0
  188.0560  177.2870  134.7330 C   0  0  0  0  0  3  0  0  0  0  0  0
  1 20  1  1  0  0  0
  1 17  1  0  0  0  0
  1  7  1  0  0  0  0
  2  3  2  0  0  0  0
  5 12  1  6  0  0  0
  5  3  1  0  0  0  0
  6  8  2  0  0  0  0
  7  5  1  0  0  0  0
  8  4  1  0  0  0  0
  8 11  1  0  0  0  0
  9  6  1  0  0  0  0
  9 10  1  0  0  0  0
 10  7  1  0  0  0  0
 10 11  2  0  0  0  0
 11  2  1  0  0  0  0
 13  6  1  0  0  0  0
 13 14  1  0  0  0  0
 14 15  1  0  0  0  0
 14  4  2  0  0  0  0
 15 16  1  0  0  0  0
 19 17  1  0  0  0  0
 19 18  1  0  0  0  0
 21 20  1  0  0  0  0
 22 21  1  0  0  0  0
 23 22  1  0  0  0  0
 24 23  1  0  0  0  0
 25 33  1  6  0  0  0
 25 28  1  0  0  0  0
 25 24  1  0  0  0  0
 26 28  2  0  0  0  0
 26 29  1  0  0  0  0
 28 27  1  0  0  0  0
 29 32  1  0  0  0  0
 30 29  1  0  0  0  0
 32 31  1  0  0  0  0
 34 35  2  0  0  0  0
 35 33  1  0  0  0  0
M  END
>  <MODEL>
4

>  <REMARK>
 VINA RESULT:      -6.6      2.114      3.191
  Name = 
  15 active torsions:
  status: ('A' for Active; 'I' for Inactive)
    1  A    between atoms: N_3  and  C_25
    2  A    between atoms: N_3  and  O_34
    3  A    between atoms: C_6  and  N_10
    4  A    between atoms: C_8  and  C_16
    5  A    between atoms: C_8  and  O_17
    6  A    between atoms: C_9  and  C_35
    7  A    between atoms: N_10  and  C_30
    8  A    between atoms: C_12  and  C_15
    9  A    between atoms: C_15  and  C_21
   10  A    between atoms: C_16  and  N_18
   11  A    between atoms: C_16  and  C_32
   12  A    between atoms: C_21  and  C_29
   13  A    between atoms: C_21  and  C_31
   14  A    between atoms: C_25  and  C_32
   15  A    between atoms: C_31  and  O_34
                            x       y       z     vdW  Elec       q    Type
                         _______ _______ _______ _____ _____    ______ ____

>  <TORSDO>
F 15

$$$$
=
 OpenBabel10232409383D

 35 37  0  0  1  0  0  0  0  0999 V2000
  182.9840  178.3420  139.4980 C   0  0  2  0  0  3  0  0  0  0  0  0
  181.2710  179.5020  143.3310 C   0  0  0  0  0  3  0  0  0  0  0  0
  180.5090  179.5220  142.2250 C   0  0  0  0  0  3  0  0  0  0  0  0
  183.8050  179.0010  145.4320 N   0  0  0  0  0  0  0  0  0  0  0  0
  180.9520  178.9480  140.8790 C   0  0  1  0  0  3  0  0  0  0  0  0
  184.6810  178.3050  143.4200 C   0  0  0  0  0  0  0  0  0  0  0  0
  182.3930  178.6250  140.8050 N   0  0  0  0  0  0  0  0  0  0  0  0
  183.6380  178.7800  144.1100 C   0  0  0  0  0  0  0  0  0  0  0  0
  184.4180  178.1580  142.1400 O   0  0  0  0  0  0  0  0  0  0  0  0
  183.1590  178.5590  142.0160 C   0  0  0  0  0  0  0  0  0  0  0  0
  182.6180  178.9550  143.2210 C   0  0  0  0  0  0  0  0  0  0  0  0
  180.1700  177.7580  140.5880 N   0  0  0  0  0  1  0  0  0  0  0  0
  186.0050  178.0750  144.4110 S   0  0  0  0  0  0  0  0  0  0  0  0
  185.0840  178.6460  145.7510 C   0  0  0  0  0  0  0  0  0  0  0  0
  185.6310  178.7670  147.1300 C   0  0  0  0  0  2  0  0  0  0  0  0
  186.7840  177.9920  147.2490 O   0  0  0  0  0  1  0  0  0  0  0  0
  183.2840  176.8530  139.3610 C   0  0  0  0  0  2  0  0  0  0  0  0
  181.9020  175.3540  138.5050 C   0  0  0  0  0  1  0  0  0  0  0  0
  182.7760  176.3810  138.1510 O   0  0  0  0  0  0  0  0  0  0  0  0
  184.2260  179.2080  139.2820 C   0  0  0  0  0  2  0  0  0  0  0  0
  185.4820  178.3700  139.1160 C   0  0  0  0  0  2  0  0  0  0  0  0
  186.0040  178.5340  137.7700 N   0  0  0  0  0  2  0  0  0  0  0  0
  187.2970  178.9230  137.9010 O   0  0  0  0  0  0  0  0  0  0  0  0
  187.8860  177.9110  138.6610 C   0  0  0  0  0  2  0  0  0  0  0  0
  189.3940  178.1010  138.7080 C   0  0  1  0  0  3  0  0  0  0  0  0
  189.0560  177.8310  141.1060 C   0  0  0  0  0  3  0  0  0  0  0  0
  191.2120  177.3120  140.2270 O   0  0  0  0  0  1  0  0  0  0  0  0
  189.8950  177.7350  140.0700 C   0  0  0  0  0  0  0  0  0  0  0  0
  189.3700  177.4720  142.4620 N   0  0  0  0  0  0  0  0  0  0  0  0
  189.0080  176.1410  142.9110 C   0  0  0  0  0  1  0  0  0  0  0  0
  189.6990  177.9970  144.8230 C   0  0  0  0  0  1  0  0  0  0  0  0
  190.0800  178.3410  143.3960 C   0  0  0  0  0  2  0  0  0  0  0  0
  190.0590  177.2450  137.6370 C   0  0  0  0  0  2  0  0  0  0  0  0
  190.1670  174.9190  137.9500 O   0  0  0  0  0  0  0  0  0  0  0  0
  189.4780  175.8700  137.6280 C   0  0  0  0  0  3  0  0  0  0  0  0
  1 20  1  1  0  0  0
  1  7  1  0  0  0  0
  3  2  2  0  0  0  0
  4 14  2  0  0  0  0
  5 12  1  1  0  0  0
  5  3  1  0  0  0  0
  6  8  2  0  0  0  0
  6 13  1  0  0  0  0
  7  5  1  0  0  0  0
  7 10  1  0  0  0  0
  8  4  1  0  0  0  0
  9  6  1  0  0  0  0
 10  9  1  0  0  0  0
 10 11  2  0  0  0  0
 11  2  1  0  0  0  0
 11  8  1  0  0  0  0
 13 14  1  0  0  0  0
 14 15  1  0  0  0  0
 15 16  1  0  0  0  0
 17  1  1  0  0  0  0
 19 18  1  0  0  0  0
 19 17  1  0  0  0  0
 21 20  1  0  0  0  0
 22 23  1  0  0  0  0
 22 21  1  0  0  0  0
 23 24  1  0  0  0  0
 24 25  1  0  0  0  0
 25 33  1  6  0  0  0
 25 28  1  0  0  0  0
 26 29  1  0  0  0  0
 28 27  1  0  0  0  0
 28 26  2  0  0  0  0
 29 30  1  0  0  0  0
 29 32  1  0  0  0  0
 32 31  1  0  0  0  0
 35 33  1  0  0  0  0
 35 34  2  0  0  0  0
M  END
>  <MODEL>
5

>  <REMARK>
 VINA RESULT:      -6.5      2.341      6.507
  Name = 
  15 active torsions:
  status: ('A' for Active; 'I' for Inactive)
    1  A    between atoms: N_3  and  C_25
    2  A    between atoms: N_3  and  O_34
    3  A    between atoms: C_6  and  N_10
    4  A    between atoms: C_8  and  C_16
    5  A    between atoms: C_8  and  O_17
    6  A    between atoms: C_9  and  C_35
    7  A    between atoms: N_10  and  C_30
    8  A    between atoms: C_12  and  C_15
    9  A    between atoms: C_15  and  C_21
   10  A    between atoms: C_16  and  N_18
   11  A    between atoms: C_16  and  C_32
   12  A    between atoms: C_21  and  C_29
   13  A    between atoms: C_21  and  C_31
   14  A    between atoms: C_25  and  C_32
   15  A    between atoms: C_31  and  O_34
                            x       y       z     vdW  Elec       q    Type
                         _______ _______ _______ _____ _____    ______ ____

>  <TORSDO>
F 15

$$$$
=
 OpenBabel10232409383D

 35 37  0  0  1  0  0  0  0  0999 V2000
  189.5590  177.1130  139.7040 C   0  0  2  0  0  3  0  0  0  0  0  0
  189.0760  176.7640  144.0180 C   0  0  0  0  0  3  0  0  0  0  0  0
  190.2330  176.3950  143.4430 C   0  0  0  0  0  3  0  0  0  0  0  0
  186.0330  178.0240  144.5060 N   0  0  0  0  0  0  0  0  0  0  0  0
  190.5740  176.6620  141.9780 C   0  0  1  0  0  3  0  0  0  0  0  0
  186.3260  178.2900  142.2380 C   0  0  0  0  0  0  0  0  0  0  0  0
  189.4240  177.1020  141.1590 N   0  0  0  0  0  0  0  0  0  0  0  0
  186.8200  177.8950  143.4160 C   0  0  0  0  0  0  0  0  0  0  0  0
  187.1610  178.0890  141.2430 O   0  0  0  0  0  0  0  0  0  0  0  0
  188.2270  177.5420  141.8150 C   0  0  0  0  0  0  0  0  0  0  0  0
  188.0700  177.4020  143.1780 C   0  0  0  0  0  0  0  0  0  0  0  0
  191.6310  177.6560  141.9070 N   0  0  0  0  0  1  0  0  0  0  0  0
  184.7770  178.8920  142.4070 S   0  0  0  0  0  0  0  0  0  0  0  0
  184.8530  178.5770  144.0990 C   0  0  0  0  0  0  0  0  0  0  0  0
  183.7320  178.8560  145.0360 C   0  0  0  0  0  2  0  0  0  0  0  0
  184.1890  178.7830  146.3520 O   0  0  0  0  0  1  0  0  0  0  0  0
  190.8210  176.3670  139.2820 C   0  0  0  0  0  2  0  0  0  0  0  0
  191.0160  175.6380  137.2030 C   0  0  0  0  0  1  0  0  0  0  0  0
  190.4810  175.3030  138.4460 O   0  0  0  0  0  0  0  0  0  0  0  0
  189.5320  178.5500  139.1820 C   0  0  0  0  0  2  0  0  0  0  0  0
  188.7660  178.6670  137.8750 C   0  0  0  0  0  2  0  0  0  0  0  0
  187.7680  177.6130  137.7980 N   0  0  0  0  0  2  0  0  0  0  0  0
  186.5570  178.2260  137.8040 O   0  0  0  0  0  0  0  0  0  0  0  0
  185.7810  177.4610  136.9300 C   0  0  0  0  0  2  0  0  0  0  0  0
  184.3110  177.5690  137.3050 C   0  0  1  0  0  3  0  0  0  0  0  0
  184.2900  175.3260  136.3520 C   0  0  0  0  0  3  0  0  0  0  0  0
  182.3800  176.0150  137.6050 O   0  0  0  0  0  1  0  0  0  0  0  0
  183.6460  176.2490  137.0740 C   0  0  0  0  0  0  0  0  0  0  0  0
  183.8080  173.9990  136.0830 N   0  0  0  0  0  0  0  0  0  0  0  0
  183.1550  173.7610  134.8100 C   0  0  0  0  0  1  0  0  0  0  0  0
  185.3070  172.9820  137.7190 C   0  0  0  0  0  1  0  0  0  0  0  0
  183.9860  172.8640  136.9840 C   0  0  0  0  0  2  0  0  0  0  0  0
  184.1770  177.9970  138.7610 C   0  0  0  0  0  2  0  0  0  0  0  0
  184.2210  180.3310  139.0230 O   0  0  0  0  0  0  0  0  0  0  0  0
  183.5330  179.3400  138.8580 C   0  0  0  0  0  3  0  0  0  0  0  0
  1 20  1  1  0  0  0
  1  7  1  0  0  0  0
  3  2  2  0  0  0  0
  5 12  1  1  0  0  0
  5  3  1  0  0  0  0
  6 13  1  0  0  0  0
  6  8  2  0  0  0  0
  7 10  1  0  0  0  0
  7  5  1  0  0  0  0
  8  4  1  0  0  0  0
  9 10  1  0  0  0  0
  9  6  1  0  0  0  0
 10 11  2  0  0  0  0
 11  8  1  0  0  0  0
 11  2  1  0  0  0  0
 13 14  1  0  0  0  0
 14  4  2  0  0  0  0
 14 15  1  0  0  0  0
 15 16  1  0  0  0  0
 17  1  1  0  0  0  0
 18 19  1  0  0  0  0
 19 17  1  0  0  0  0
 21 20  1  0  0  0  0
 22 23  1  0  0  0  0
 22 21  1  0  0  0  0
 24 23  1  0  0  0  0
 25 24  1  1  0  0  0
 25 33  1  0  0  0  0
 26 28  2  0  0  0  0
 28 25  1  0  0  0  0
 28 27  1  0  0  0  0
 29 26  1  0  0  0  0
 29 32  1  0  0  0  0
 30 29  1  0  0  0  0
 32 31  1  0  0  0  0
 33 35  1  0  0  0  0
 35 34  2  0  0  0  0
M  END
>  <MODEL>
6

>  <REMARK>
 VINA RESULT:      -6.4      2.693      5.679
  Name = 
  15 active torsions:
  status: ('A' for Active; 'I' for Inactive)
    1  A    between atoms: N_3  and  C_25
    2  A    between atoms: N_3  and  O_34
    3  A    between atoms: C_6  and  N_10
    4  A    between atoms: C_8  and  C_16
    5  A    between atoms: C_8  and  O_17
    6  A    between atoms: C_9  and  C_35
    7  A    between atoms: N_10  and  C_30
    8  A    between atoms: C_12  and  C_15
    9  A    between atoms: C_15  and  C_21
   10  A    between atoms: C_16  and  N_18
   11  A    between atoms: C_16  and  C_32
   12  A    between atoms: C_21  and  C_29
   13  A    between atoms: C_21  and  C_31
   14  A    between atoms: C_25  and  C_32
   15  A    between atoms: C_31  and  O_34
                            x       y       z     vdW  Elec       q    Type
                         _______ _______ _______ _____ _____    ______ ____

>  <TORSDO>
F 15

$$$$
=
 OpenBabel10232409383D

 35 37  0  0  1  0  0  0  0  0999 V2000
  188.6350  176.8700  142.5090 C   0  0  2  0  0  3  0  0  0  0  0  0
  186.0650  177.9520  145.8550 C   0  0  0  0  0  3  0  0  0  0  0  0
  187.3330  177.5720  146.0820 C   0  0  0  0  0  3  0  0  0  0  0  0
  183.2510  178.8730  144.3320 N   0  0  0  0  0  0  0  0  0  0  0  0
  188.3680  177.3660  144.9760 C   0  0  1  0  0  3  0  0  0  0  0  0
  184.6400  178.3850  142.5610 C   0  0  0  0  0  0  0  0  0  0  0  0
  187.7980  177.3380  143.6120 N   0  0  0  0  0  0  0  0  0  0  0  0
  184.4650  178.4880  143.8840 C   0  0  0  0  0  0  0  0  0  0  0  0
  185.8450  177.9740  142.2380 O   0  0  0  0  0  0  0  0  0  0  0  0
  186.4580  177.8070  143.4040 C   0  0  0  0  0  0  0  0  0  0  0  0
  185.6410  178.1210  144.4700 C   0  0  0  0  0  0  0  0  0  0  0  0
  189.3730  178.4130  145.0630 N   0  0  0  0  0  1  0  0  0  0  0  0
  183.2440  178.7900  141.7370 S   0  0  0  0  0  0  0  0  0  0  0  0
  182.4580  179.0850  143.2410 C   0  0  0  0  0  0  0  0  0  0  0  0
  181.0360  179.5100  143.3540 C   0  0  0  0  0  2  0  0  0  0  0  0
  180.2630  178.4480  143.8220 O   0  0  0  0  0  1  0  0  0  0  0  0
  189.6300  175.8250  143.0040 C   0  0  0  0  0  2  0  0  0  0  0  0
  191.6570  176.1280  143.8340 C   0  0  0  0  0  1  0  0  0  0  0  0
  190.9250  176.2040  142.6500 O   0  0  0  0  0  0  0  0  0  0  0  0
  189.3260  178.0540  141.8310 C   0  0  0  0  0  2  0  0  0  0  0  0
  188.9100  178.2000  140.3780 C   0  0  0  0  0  2  0  0  0  0  0  0
  189.3280  177.0260  139.6300 N   0  0  0  0  0  2  0  0  0  0  0  0
  190.4360  177.3850  138.9330 O   0  0  0  0  0  0  0  0  0  0  0  0
  191.1270  176.1860  138.7450 C   0  0  0  0  0  2  0  0  0  0  0  0
  191.6810  176.1190  137.3300 C   0  0  1  0  0  3  0  0  0  0  0  0
  193.6080  174.7130  137.8300 C   0  0  0  0  0  3  0  0  0  0  0  0
  194.0260  176.9100  136.9980 O   0  0  0  0  0  1  0  0  0  0  0  0
  193.1590  175.8930  137.3910 C   0  0  0  0  0  0  0  0  0  0  0  0
  194.9910  174.3260  137.9010 N   0  0  0  0  0  0  0  0  0  0  0  0
  195.6330  174.3480  139.2020 C   0  0  0  0  0  1  0  0  0  0  0  0
  197.1930  174.3750  136.8520 C   0  0  0  0  0  1  0  0  0  0  0  0
  195.7710  173.8590  136.7600 C   0  0  0  0  0  2  0  0  0  0  0  0
  190.9930  175.0020  136.5560 C   0  0  0  0  0  2  0  0  0  0  0  0
  188.6880  174.5920  136.7570 O   0  0  0  0  0  0  0  0  0  0  0  0
  189.7830  174.5240  137.2860 C   0  0  0  0  0  3  0  0  0  0  0  0
  1 20  1  1  0  0  0
  1 17  1  0  0  0  0
  1  7  1  0  0  0  0
  2  3  2  0  0  0  0
  5 12  1  6  0  0  0
  5  3  1  0  0  0  0
  6  8  2  0  0  0  0
  7  5  1  0  0  0  0
  8  4  1  0  0  0  0
  8 11  1  0  0  0  0
  9  6  1  0  0  0  0
  9 10  1  0  0  0  0
 10  7  1  0  0  0  0
 10 11  2  0  0  0  0
 11  2  1  0  0  0  0
 13  6  1  0  0  0  0
 13 14  1  0  0  0  0
 14 15  1  0  0  0  0
 14  4  2  0  0  0  0
 15 16  1  0  0  0  0
 19 17  1  0  0  0  0
 19 18  1  0  0  0  0
 21 20  1  0  0  0  0
 22 21  1  0  0  0  0
 23 22  1  0  0  0  0
 24 23  1  0  0  0  0
 25 33  1  6  0  0  0
 25 28  1  0  0  0  0
 25 24  1  0  0  0  0
 26 29  1  0  0  0  0
 27 28  1  0  0  0  0
 28 26  2  0  0  0  0
 29 30  1  0  0  0  0
 32 31  1  0  0  0  0
 32 29  1  0  0  0  0
 33 35  1  0  0  0  0
 34 35  2  0  0  0  0
M  END
>  <MODEL>
7

>  <REMARK>
 VINA RESULT:      -6.4      2.604      4.472
  Name = 
  15 active torsions:
  status: ('A' for Active; 'I' for Inactive)
    1  A    between atoms: N_3  and  C_25
    2  A    between atoms: N_3  and  O_34
    3  A    between atoms: C_6  and  N_10
    4  A    between atoms: C_8  and  C_16
    5  A    between atoms: C_8  and  O_17
    6  A    between atoms: C_9  and  C_35
    7  A    between atoms: N_10  and  C_30
    8  A    between atoms: C_12  and  C_15
    9  A    between atoms: C_15  and  C_21
   10  A    between atoms: C_16  and  N_18
   11  A    between atoms: C_16  and  C_32
   12  A    between atoms: C_21  and  C_29
   13  A    between atoms: C_21  and  C_31
   14  A    between atoms: C_25  and  C_32
   15  A    between atoms: C_31  and  O_34
                            x       y       z     vdW  Elec       q    Type
                         _______ _______ _______ _____ _____    ______ ____

>  <TORSDO>
F 15

$$$$
=
 OpenBabel10232409383D

 35 37  0  0  1  0  0  0  0  0999 V2000
  187.5210  176.1030  137.5090 C   0  0  2  0  0  3  0  0  0  0  0  0
  191.7590  176.3670  138.4800 C   0  0  0  0  0  3  0  0  0  0  0  0
  191.3780  175.9760  137.2520 C   0  0  0  0  0  3  0  0  0  0  0  0
  191.7110  177.5290  141.5990 N   0  0  0  0  0  0  0  0  0  0  0  0
  189.9350  176.0420  136.7510 C   0  0  1  0  0  3  0  0  0  0  0  0
  189.4750  177.4730  141.0540 C   0  0  0  0  0  0  0  0  0  0  0  0
  188.9380  176.2990  137.8120 N   0  0  0  0  0  0  0  0  0  0  0  0
  190.7480  177.2810  140.6870 C   0  0  0  0  0  0  0  0  0  0  0  0
  188.6210  177.1710  140.1020 O   0  0  0  0  0  0  0  0  0  0  0  0
  189.3830  176.7690  139.0920 C   0  0  0  0  0  0  0  0  0  0  0  0
  190.7260  176.8230  139.4020 C   0  0  0  0  0  0  0  0  0  0  0  0
  189.8320  177.0680  135.7270 N   0  0  0  0  0  1  0  0  0  0  0  0
  189.3790  178.0130  142.6310 S   0  0  0  0  0  0  0  0  0  0  0  0
  191.0980  177.9550  142.7420 C   0  0  0  0  0  0  0  0  0  0  0  0
  191.8530  178.3110  143.9740 C   0  0  0  0  0  2  0  0  0  0  0  0
  191.3430  177.6000  145.0600 O   0  0  0  0  0  1  0  0  0  0  0  0
  187.3220  174.8190  136.7100 C   0  0  0  0  0  2  0  0  0  0  0  0
  186.2640  172.9160  137.1000 C   0  0  0  0  0  1  0  0  0  0  0  0
  186.0590  174.2900  136.9780 O   0  0  0  0  0  0  0  0  0  0  0  0
  186.9620  177.3290  136.7870 C   0  0  0  0  0  2  0  0  0  0  0  0
  186.1400  178.2090  137.7130 C   0  0  0  0  0  2  0  0  0  0  0  0
  184.8880  177.5440  138.0350 N   0  0  0  0  0  2  0  0  0  0  0  0
  183.9530  178.5190  138.1600 O   0  0  0  0  0  0  0  0  0  0  0  0
  184.3030  179.1810  139.3390 C   0  0  0  0  0  2  0  0  0  0  0  0
  183.8410  178.3800  140.5470 C   0  0  1  0  0  3  0  0  0  0  0  0
  184.4360  178.1450  142.8980 C   0  0  0  0  0  3  0  0  0  0  0  0
  185.7760  179.5930  141.5570 O   0  0  0  0  0  1  0  0  0  0  0  0
  184.7110  178.7100  141.7180 C   0  0  0  0  0  0  0  0  0  0  0  0
  185.2020  178.3220  144.1010 N   0  0  0  0  0  0  0  0  0  0  0  0
  184.7820  179.3590  145.0250 C   0  0  0  0  0  1  0  0  0  0  0  0
  187.0110  178.0490  145.7170 C   0  0  0  0  0  1  0  0  0  0  0  0
  186.3390  177.4880  144.4790 C   0  0  0  0  0  2  0  0  0  0  0  0
  182.3810  178.6930  140.8490 C   0  0  0  0  0  2  0  0  0  0  0  0
  180.3070  177.6050  140.6630 O   0  0  0  0  0  0  0  0  0  0  0  0
  181.5030  177.5590  140.4370 C   0  0  0  0  0  3  0  0  0  0  0  0
  1 17  1  6  0  0  0
  1  7  1  0  0  0  0
  2 11  1  0  0  0  0
  3  2  2  0  0  0  0
  4 14  2  0  0  0  0
  5 12  1  6  0  0  0
  5  3  1  0  0  0  0
  5  7  1  0  0  0  0
  6 13  1  0  0  0  0
  7 10  1  0  0  0  0
  8  6  2  0  0  0  0
  8  4  1  0  0  0  0
  9  6  1  0  0  0  0
 10 11  2  0  0  0  0
 10  9  1  0  0  0  0
 11  8  1  0  0  0  0
 13 14  1  0  0  0  0
 14 15  1  0  0  0  0
 15 16  1  0  0  0  0
 17 19  1  0  0  0  0
 19 18  1  0  0  0  0
 20  1  1  0  0  0  0
 20 21  1  0  0  0  0
 21 22  1  0  0  0  0
 22 23  1  0  0  0  0
 23 24  1  0  0  0  0
 25 24  1  6  0  0  0
 25 33  1  0  0  0  0
 25 28  1  0  0  0  0
 26 29  1  0  0  0  0
 27 28  1  0  0  0  0
 28 26  2  0  0  0  0
 29 32  1  0  0  0  0
 29 30  1  0  0  0  0
 32 31  1  0  0  0  0
 35 34  2  0  0  0  0
 35 33  1  0  0  0  0
M  END
>  <MODEL>
8

>  <REMARK>
 VINA RESULT:      -5.9      2.345      8.567
  Name = 
  15 active torsions:
  status: ('A' for Active; 'I' for Inactive)
    1  A    between atoms: N_3  and  C_25
    2  A    between atoms: N_3  and  O_34
    3  A    between atoms: C_6  and  N_10
    4  A    between atoms: C_8  and  C_16
    5  A    between atoms: C_8  and  O_17
    6  A    between atoms: C_9  and  C_35
    7  A    between atoms: N_10  and  C_30
    8  A    between atoms: C_12  and  C_15
    9  A    between atoms: C_15  and  C_21
   10  A    between atoms: C_16  and  N_18
   11  A    between atoms: C_16  and  C_32
   12  A    between atoms: C_21  and  C_29
   13  A    between atoms: C_21  and  C_31
   14  A    between atoms: C_25  and  C_32
   15  A    between atoms: C_31  and  O_34
                            x       y       z     vdW  Elec       q    Type
                         _______ _______ _______ _____ _____    ______ ____

>  <TORSDO>
F 15

$$$$
=
 OpenBabel10232409383D

 35 37  0  0  1  0  0  0  0  0999 V2000
  189.4690  177.0960  139.6200 C   0  0  2  0  0  3  0  0  0  0  0  0
  189.0120  176.7070  143.9340 C   0  0  0  0  0  3  0  0  0  0  0  0
  190.1390  176.2820  143.3410 C   0  0  0  0  0  3  0  0  0  0  0  0
  186.0510  178.1320  144.4750 N   0  0  0  0  0  0  0  0  0  0  0  0
  190.4800  176.5520  141.8750 C   0  0  1  0  0  3  0  0  0  0  0  0
  186.3350  178.4160  142.2080 C   0  0  0  0  0  0  0  0  0  0  0  0
  189.3480  177.0700  141.0770 N   0  0  0  0  0  0  0  0  0  0  0  0
  186.8180  177.9750  143.3750 C   0  0  0  0  0  0  0  0  0  0  0  0
  187.1460  178.1830  141.2010 O   0  0  0  0  0  0  0  0  0  0  0  0
  188.1860  177.5670  141.7530 C   0  0  0  0  0  0  0  0  0  0  0  0
  188.0350  177.4150  143.1150 C   0  0  0  0  0  0  0  0  0  0  0  0
  191.5920  177.4850  141.8080 N   0  0  0  0  0  1  0  0  0  0  0  0
  184.8240  179.1020  142.4040 S   0  0  0  0  0  0  0  0  0  0  0  0
  184.9010  178.7570  144.0900 C   0  0  0  0  0  0  0  0  0  0  0  0
  183.8070  179.0840  145.0440 C   0  0  0  0  0  2  0  0  0  0  0  0
  184.1830  178.7160  146.3360 O   0  0  0  0  0  1  0  0  0  0  0  0
  190.5870  176.1650  139.1630 C   0  0  0  0  0  2  0  0  0  0  0  0
  192.6690  176.1260  138.4180 C   0  0  0  0  0  1  0  0  0  0  0  0
  191.4920  176.8720  138.3690 O   0  0  0  0  0  0  0  0  0  0  0  0
  189.6720  178.5310  139.1330 C   0  0  0  0  0  2  0  0  0  0  0  0
  188.9180  178.8060  137.8430 C   0  0  0  0  0  2  0  0  0  0  0  0
  187.4930  178.6190  138.0610 N   0  0  0  0  0  2  0  0  0  0  0  0
  186.8690  179.0620  136.9400 O   0  0  0  0  0  0  0  0  0  0  0  0
  186.5180  177.8950  136.2580 C   0  0  0  0  0  2  0  0  0  0  0  0
  185.9990  176.8530  137.2380 C   0  0  1  0  0  3  0  0  0  0  0  0
  184.0720  177.5470  138.5600 C   0  0  0  0  0  3  0  0  0  0  0  0
  183.6600  176.6580  136.3840 O   0  0  0  0  0  1  0  0  0  0  0  0
  184.5230  177.0330  137.4110 C   0  0  0  0  0  0  0  0  0  0  0  0
  182.6940  177.8250  138.8590 N   0  0  0  0  0  0  0  0  0  0  0  0
  181.8950  176.7540  139.4250 C   0  0  0  0  0  1  0  0  0  0  0  0
  181.3520  179.5410  139.9580 C   0  0  0  0  0  1  0  0  0  0  0  0
  182.0650  179.1310  138.6850 C   0  0  0  0  0  2  0  0  0  0  0  0
  186.3190  175.4540  136.7260 C   0  0  0  0  0  2  0  0  0  0  0  0
  188.4850  174.9020  136.0050 O   0  0  0  0  0  0  0  0  0  0  0  0
  187.7570  175.1270  136.9540 C   0  0  0  0  0  3  0  0  0  0  0  0
  1 20  1  1  0  0  0
  1  7  1  0  0  0  0
  3  2  2  0  0  0  0
  5 12  1  1  0  0  0
  5  3  1  0  0  0  0
  6 13  1  0  0  0  0
  6  8  2  0  0  0  0
  7 10  1  0  0  0  0
  7  5  1  0  0  0  0
  8  4  1  0  0  0  0
  9 10  1  0  0  0  0
  9  6  1  0  0  0  0
 10 11  2  0  0  0  0
 11  8  1  0  0  0  0
 11  2  1  0  0  0  0
 13 14  1  0  0  0  0
 14  4  2  0  0  0  0
 14 15  1  0  0  0  0
 15 16  1  0  0  0  0
 17  1  1  0  0  0  0
 19 18  1  0  0  0  0
 19 17  1  0  0  0  0
 21 22  1  0  0  0  0
 21 20  1  0  0  0  0
 23 22  1  0  0  0  0
 24 23  1  0  0  0  0
 25 24  1  6  0  0  0
 25 28  1  0  0  0  0
 26 29  1  0  0  0  0
 27 28  1  0  0  0  0
 28 26  2  0  0  0  0
 29 30  1  0  0  0  0
 32 29  1  0  0  0  0
 32 31  1  0  0  0  0
 33 35  1  0  0  0  0
 33 25  1  0  0  0  0
 34 35  2  0  0  0  0
M  END
>  <MODEL>
9

>  <REMARK>
 VINA RESULT:      -5.9      2.629      5.123
  Name = 
  15 active torsions:
  status: ('A' for Active; 'I' for Inactive)
    1  A    between atoms: N_3  and  C_25
    2  A    between atoms: N_3  and  O_34
    3  A    between atoms: C_6  and  N_10
    4  A    between atoms: C_8  and  C_16
    5  A    between atoms: C_8  and  O_17
    6  A    between atoms: C_9  and  C_35
    7  A    between atoms: N_10  and  C_30
    8  A    between atoms: C_12  and  C_15
    9  A    between atoms: C_15  and  C_21
   10  A    between atoms: C_16  and  N_18
   11  A    between atoms: C_16  and  C_32
   12  A    between atoms: C_21  and  C_29
   13  A    between atoms: C_21  and  C_31
   14  A    between atoms: C_25  and  C_32
   15  A    between atoms: C_31  and  O_34
                            x       y       z     vdW  Elec       q    Type
                         _______ _______ _______ _____ _____    ______ ____

>  <TORSDO>
F 15

$$$$
