=
 OpenBabel10232410253D

 33 36  0  0  1  0  0  0  0  0999 V2000
  190.5630  177.2510  140.0480 C   0  0  0  0  0  1  0  0  0  0  0  0
  189.2660  177.7850  140.5570 C   0  0  0  0  0  0  0  0  0  0  0  0
  189.3890  178.0290  137.2690 S   0  0  0  0  0  0  0  0  0  0  0  0
  188.1260  177.7670  138.2820 C   0  0  0  0  0  0  0  0  0  0  0  0
  186.8580  178.3590  140.1460 C   0  0  0  0  0  0  0  0  0  0  0  0
  186.0130  178.3720  139.0600 C   0  0  0  0  0  0  0  0  0  0  0  0
  185.1270  179.0650  141.5840 C   0  0  0  0  0  0  0  0  0  0  0  0
  184.6520  179.4170  142.9470 C   0  0  0  0  0  1  0  0  0  0  0  0
  188.2020  177.9670  139.7460 C   0  0  0  0  0  0  0  0  0  0  0  0
  186.4250  178.6930  141.3900 N   0  0  0  0  0  0  0  0  0  0  0  0
  184.6830  178.7690  139.2160 C   0  0  0  0  0  3  0  0  0  0  0  0
  186.7030  177.9520  137.7950 C   0  0  2  0  0  3  0  0  0  0  0  0
  184.2350  179.1170  140.4980 C   0  0  0  0  0  3  0  0  0  0  0  0
  187.1410  175.5300  137.3020 C   0  0  0  0  0  3  0  0  0  0  0  0
  186.8470  174.2690  136.9930 C   0  0  0  0  0  3  0  0  0  0  0  0
  186.1250  176.6280  137.2590 C   0  0  2  0  0  3  0  0  0  0  0  0
  185.6280  176.7910  135.8580 C   0  0  0  0  0  3  0  0  0  0  0  0
  185.1460  172.4050  136.7960 C   0  0  0  0  0  1  0  0  0  0  0  0
  184.7460  174.5140  135.6770 C   0  0  0  0  0  3  0  0  0  0  0  0
  185.5370  173.8080  136.4970 C   0  0  0  0  0  0  0  0  0  0  0  0
  185.0020  175.8510  135.2150 N   0  0  0  0  0  0  0  0  0  0  0  0
  189.1890  178.0940  142.0160 C   0  0  0  0  0  2  0  0  0  0  0  0
  188.9570  176.8140  142.8000 C   0  0  0  0  0  2  0  0  0  0  0  0
  189.5100  177.2160  145.3310 C   0  0  0  0  0  0  0  0  0  0  0  0
  188.7540  177.5920  146.5560 C   0  0  0  0  0  2  0  0  0  0  0  0
  187.3960  177.7030  146.0330 N   0  0  0  0  0  0  0  0  0  0  0  0
  190.7810  176.9770  145.2680 N   0  0  0  0  0  0  0  0  0  0  0  0
  187.3730  177.4220  144.6350 C   0  0  0  0  0  3  0  0  0  0  0  0
  188.5900  177.1320  144.2100 C   0  0  0  0  0  0  0  0  0  0  0  0
  192.0560  175.8960  147.0140 C   0  0  0  0  0  1  0  0  0  0  0  0
  191.5790  177.0710  146.3850 O   0  0  0  0  0  0  0  0  0  0  0  0
  186.2110  178.0600  146.7990 C   0  0  0  0  0  2  0  0  0  0  0  0
  185.7340  179.3150  146.4130 O   0  0  0  0  0  1  0  0  0  0  0  0
  1  2  1  0  0  0  0
  2 22  1  0  0  0  0
  3  4  2  0  0  0  0
  4  9  1  0  0  0  0
  5 10  1  0  0  0  0
  6 11  1  0  0  0  0
  6  5  2  0  0  0  0
  7  8  1  0  0  0  0
  9  5  1  0  0  0  0
  9  2  2  0  0  0  0
 10  7  2  0  0  0  0
 11 13  2  0  0  0  0
 12  4  1  1  0  0  0
 12  6  1  0  0  0  0
 13  7  1  0  0  0  0
 15 14  2  0  0  0  0
 16 17  1  6  0  0  0
 16 14  1  0  0  0  0
 16 12  1  0  0  0  0
 19 20  2  0  0  0  0
 20 18  1  0  0  0  0
 20 15  1  0  0  0  0
 21 19  1  0  0  0  0
 21 17  2  0  0  0  0
 22 23  1  0  0  0  0
 23 29  1  0  0  0  0
 24 25  1  0  0  0  0
 26 25  1  0  0  0  0
 26 32  1  0  0  0  0
 27 24  2  0  0  0  0
 27 31  1  0  0  0  0
 28 26  1  0  0  0  0
 29 28  2  0  0  0  0
 29 24  1  0  0  0  0
 31 30  1  0  0  0  0
 33 32  1  0  0  0  0
M  END
>  <MODEL>
1

>  <REMARK>
 VINA RESULT:      -8.6      0.000      0.000
  Name = 
  6 active torsions:
  status: ('A' for Active; 'I' for Inactive)
    1  A    between atoms: C_2  and  C_22
    2  A    between atoms: C_10  and  N_18
    3  A    between atoms: C_11  and  C_32
    4  A    between atoms: N_19  and  O_25
    5  A    between atoms: C_22  and  C_28
    6  A    between atoms: C_28  and  C_30
                            x       y       z     vdW  Elec       q    Type
                         _______ _______ _______ _____ _____    ______ ____

>  <TORSDO>
F 6

$$$$
=
 OpenBabel10232410253D

 33 36  0  0  1  0  0  0  0  0999 V2000
  190.2710  177.5960  139.8640 C   0  0  0  0  0  1  0  0  0  0  0  0
  188.9420  178.0070  140.4050 C   0  0  0  0  0  0  0  0  0  0  0  0
  189.0260  178.4410  137.1350 S   0  0  0  0  0  0  0  0  0  0  0  0
  187.7920  178.0330  138.1350 C   0  0  0  0  0  0  0  0  0  0  0  0
  186.4970  178.4280  140.0330 C   0  0  0  0  0  0  0  0  0  0  0  0
  185.6460  178.4410  138.9520 C   0  0  0  0  0  0  0  0  0  0  0  0
  184.7300  178.9290  141.5130 C   0  0  0  0  0  0  0  0  0  0  0  0
  184.2410  179.1700  142.8940 C   0  0  0  0  0  1  0  0  0  0  0  0
  187.8630  178.1560  139.6090 C   0  0  0  0  0  0  0  0  0  0  0  0
  186.0500  178.6620  141.2950 N   0  0  0  0  0  0  0  0  0  0  0  0
  184.2920  178.7330  139.1330 C   0  0  0  0  0  3  0  0  0  0  0  0
  186.3560  178.1420  137.6630 C   0  0  2  0  0  3  0  0  0  0  0  0
  183.8300  178.9770  140.4340 C   0  0  0  0  0  3  0  0  0  0  0  0
  186.8650  175.7160  137.2740 C   0  0  0  0  0  3  0  0  0  0  0  0
  186.6240  174.4500  136.9360 C   0  0  0  0  0  3  0  0  0  0  0  0
  185.8710  176.8120  137.0570 C   0  0  2  0  0  3  0  0  0  0  0  0
  185.6050  176.9590  135.5920 C   0  0  0  0  0  3  0  0  0  0  0  0
  184.9750  172.5830  136.4890 C   0  0  0  0  0  1  0  0  0  0  0  0
  184.7620  174.6790  135.2970 C   0  0  0  0  0  3  0  0  0  0  0  0
  185.4100  173.9830  136.2410 C   0  0  0  0  0  0  0  0  0  0  0  0
  185.0890  176.0110  134.8670 N   0  0  0  0  0  0  0  0  0  0  0  0
  188.8540  178.2280  141.8790 C   0  0  0  0  0  2  0  0  0  0  0  0
  188.6650  176.8980  142.5880 C   0  0  0  0  0  2  0  0  0  0  0  0
  188.5190  177.4330  145.1510 C   0  0  0  0  0  0  0  0  0  0  0  0
  189.4130  177.3050  146.3330 C   0  0  0  0  0  2  0  0  0  0  0  0
  190.6180  176.7510  145.7250 N   0  0  0  0  0  0  0  0  0  0  0  0
  187.3130  177.9040  145.1580 N   0  0  0  0  0  0  0  0  0  0  0  0
  190.4340  176.5700  144.3220 C   0  0  0  0  0  3  0  0  0  0  0  0
  189.2230  176.9650  143.9690 C   0  0  0  0  0  0  0  0  0  0  0  0
  185.3150  178.3270  146.4510 C   0  0  0  0  0  1  0  0  0  0  0  0
  186.7250  178.3350  146.3250 O   0  0  0  0  0  0  0  0  0  0  0  0
  191.8490  176.4070  146.4230 C   0  0  0  0  0  2  0  0  0  0  0  0
  191.8540  176.9530  147.7090 O   0  0  0  0  0  1  0  0  0  0  0  0
  1  2  1  0  0  0  0
  2 22  1  0  0  0  0
  3  4  2  0  0  0  0
  4  9  1  0  0  0  0
  5 10  1  0  0  0  0
  6 11  1  0  0  0  0
  6  5  2  0  0  0  0
  7  8  1  0  0  0  0
  9  5  1  0  0  0  0
  9  2  2  0  0  0  0
 10  7  2  0  0  0  0
 11 13  2  0  0  0  0
 12  4  1  1  0  0  0
 12  6  1  0  0  0  0
 13  7  1  0  0  0  0
 15 14  2  0  0  0  0
 16 17  1  6  0  0  0
 16 14  1  0  0  0  0
 16 12  1  0  0  0  0
 19 20  2  0  0  0  0
 20 18  1  0  0  0  0
 20 15  1  0  0  0  0
 21 19  1  0  0  0  0
 21 17  2  0  0  0  0
 22 23  1  0  0  0  0
 23 29  1  0  0  0  0
 24 27  2  0  0  0  0
 24 25  1  0  0  0  0
 26 25  1  0  0  0  0
 26 32  1  0  0  0  0
 27 31  1  0  0  0  0
 28 26  1  0  0  0  0
 29 28  2  0  0  0  0
 29 24  1  0  0  0  0
 31 30  1  0  0  0  0
 32 33  1  0  0  0  0
M  END
>  <MODEL>
2

>  <REMARK>
 VINA RESULT:      -8.3      0.667      2.441
  Name = 
  6 active torsions:
  status: ('A' for Active; 'I' for Inactive)
    1  A    between atoms: C_2  and  C_22
    2  A    between atoms: C_10  and  N_18
    3  A    between atoms: C_11  and  C_32
    4  A    between atoms: N_19  and  O_25
    5  A    between atoms: C_22  and  C_28
    6  A    between atoms: C_28  and  C_30
                            x       y       z     vdW  Elec       q    Type
                         _______ _______ _______ _____ _____    ______ ____

>  <TORSDO>
F 6

$$$$
=
 OpenBabel10232410253D

 33 36  0  0  1  0  0  0  0  0999 V2000
  182.9800  179.1780  143.4020 C   0  0  0  0  0  1  0  0  0  0  0  0
  184.0900  178.9210  142.4390 C   0  0  0  0  0  0  0  0  0  0  0  0
  181.2320  177.8350  141.2000 S   0  0  0  0  0  0  0  0  0  0  0  0
  182.5530  178.4690  140.4630 C   0  0  0  0  0  0  0  0  0  0  0  0
  184.8530  178.5010  140.0870 C   0  0  0  0  0  0  0  0  0  0  0  0
  184.2460  178.2940  138.8690 C   0  0  0  0  0  0  0  0  0  0  0  0
  186.9970  178.3580  139.1140 C   0  0  0  0  0  0  0  0  0  0  0  0
  188.4750  178.4140  139.2500 C   0  0  0  0  0  1  0  0  0  0  0  0
  183.8570  178.6440  141.1400 C   0  0  0  0  0  0  0  0  0  0  0  0
  186.2060  178.5390  140.2110 N   0  0  0  0  0  0  0  0  0  0  0  0
  185.0230  178.0810  137.7290 C   0  0  0  0  0  3  0  0  0  0  0  0
  182.7480  178.3060  138.9690 C   0  0  2  0  0  3  0  0  0  0  0  0
  186.4190  178.1180  137.8550 C   0  0  0  0  0  3  0  0  0  0  0  0
  181.5010  180.4790  139.1260 C   0  0  0  0  0  3  0  0  0  0  0  0
  181.0090  181.6440  138.7090 C   0  0  0  0  0  3  0  0  0  0  0  0
  182.1500  179.5000  138.2000 C   0  0  2  0  0  3  0  0  0  0  0  0
  181.1500  179.0350  137.1880 C   0  0  0  0  0  3  0  0  0  0  0  0
  181.0040  183.5410  137.0340 C   0  0  0  0  0  1  0  0  0  0  0  0
  180.7310  181.2630  136.2630 C   0  0  0  0  0  3  0  0  0  0  0  0
  180.9600  182.0800  137.3010 C   0  0  0  0  0  0  0  0  0  0  0  0
  180.5780  179.8360  136.3390 N   0  0  0  0  0  0  0  0  0  0  0  0
  185.4810  179.0050  142.9770 C   0  0  0  0  0  2  0  0  0  0  0  0
  185.6430  178.0380  144.1370 C   0  0  0  0  0  2  0  0  0  0  0  0
  187.7570  177.3710  145.5380 C   0  0  0  0  0  0  0  0  0  0  0  0
  189.1620  176.9780  145.2510 C   0  0  0  0  0  2  0  0  0  0  0  0
  189.1920  177.0560  143.7950 N   0  0  0  0  0  0  0  0  0  0  0  0
  187.2230  177.4760  146.7130 N   0  0  0  0  0  0  0  0  0  0  0  0
  187.9190  177.4530  143.2880 C   0  0  0  0  0  3  0  0  0  0  0  0
  187.0740  177.6450  144.2850 C   0  0  0  0  0  0  0  0  0  0  0  0
  188.5190  178.2660  148.5940 C   0  0  0  0  0  1  0  0  0  0  0  0
  187.9480  177.2060  147.8500 O   0  0  0  0  0  0  0  0  0  0  0  0
  190.3390  176.7650  142.9450 C   0  0  0  0  0  2  0  0  0  0  0  0
  190.3640  175.4130  142.5970 O   0  0  0  0  0  1  0  0  0  0  0  0
  2 22  1  0  0  0  0
  2  1  1  0  0  0  0
  4  9  1  0  0  0  0
  4  3  2  0  0  0  0
  5 10  1  0  0  0  0
  5  9  1  0  0  0  0
  6  5  2  0  0  0  0
  7  8  1  0  0  0  0
  7 10  2  0  0  0  0
  9  2  2  0  0  0  0
 11 13  2  0  0  0  0
 11  6  1  0  0  0  0
 12  6  1  1  0  0  0
 12  4  1  0  0  0  0
 13  7  1  0  0  0  0
 15 14  2  0  0  0  0
 16 17  1  6  0  0  0
 16 12  1  0  0  0  0
 16 14  1  0  0  0  0
 18 20  1  0  0  0  0
 19 21  1  0  0  0  0
 19 20  2  0  0  0  0
 20 15  1  0  0  0  0
 21 17  2  0  0  0  0
 22 23  1  0  0  0  0
 23 29  1  0  0  0  0
 24 27  2  0  0  0  0
 25 24  1  0  0  0  0
 26 25  1  0  0  0  0
 27 31  1  0  0  0  0
 28 26  1  0  0  0  0
 28 29  2  0  0  0  0
 29 24  1  0  0  0  0
 31 30  1  0  0  0  0
 32 26  1  0  0  0  0
 33 32  1  0  0  0  0
M  END
>  <MODEL>
3

>  <REMARK>
 VINA RESULT:      -8.0      3.224      5.618
  Name = 
  6 active torsions:
  status: ('A' for Active; 'I' for Inactive)
    1  A    between atoms: C_2  and  C_22
    2  A    between atoms: C_10  and  N_18
    3  A    between atoms: C_11  and  C_32
    4  A    between atoms: N_19  and  O_25
    5  A    between atoms: C_22  and  C_28
    6  A    between atoms: C_28  and  C_30
                            x       y       z     vdW  Elec       q    Type
                         _______ _______ _______ _____ _____    ______ ____

>  <TORSDO>
F 6

$$$$
=
 OpenBabel10232410253D

 33 36  0  0  1  0  0  0  0  0999 V2000
  190.8740  176.5430  142.5760 C   0  0  0  0  0  1  0  0  0  0  0  0
  189.8120  177.0650  141.6680 C   0  0  0  0  0  0  0  0  0  0  0  0
  192.7670  177.3010  140.2220 S   0  0  0  0  0  0  0  0  0  0  0  0
  191.2790  177.0290  139.5890 C   0  0  0  0  0  0  0  0  0  0  0  0
  189.0350  177.6130  139.3470 C   0  0  0  0  0  0  0  0  0  0  0  0
  189.5930  177.6150  138.0880 C   0  0  0  0  0  0  0  0  0  0  0  0
  186.9480  178.3070  138.4930 C   0  0  0  0  0  0  0  0  0  0  0  0
  185.5220  178.6580  138.7150 C   0  0  0  0  0  1  0  0  0  0  0  0
  190.0230  177.2340  140.3460 C   0  0  0  0  0  0  0  0  0  0  0  0
  187.7330  177.9480  139.5490 N   0  0  0  0  0  0  0  0  0  0  0  0
  188.8260  177.9990  136.9860 C   0  0  0  0  0  3  0  0  0  0  0  0
  191.0350  177.1980  138.1030 C   0  0  2  0  0  3  0  0  0  0  0  0
  187.4840  178.3470  137.1940 C   0  0  0  0  0  3  0  0  0  0  0  0
  190.1170  174.9130  137.6230 C   0  0  0  0  0  3  0  0  0  0  0  0
  190.0110  173.7380  137.0050 C   0  0  0  0  0  3  0  0  0  0  0  0
  191.2370  175.8670  137.3550 C   0  0  2  0  0  3  0  0  0  0  0  0
  192.5350  175.2310  137.7380 C   0  0  0  0  0  3  0  0  0  0  0  0
  190.5100  172.2660  135.0080 C   0  0  0  0  0  1  0  0  0  0  0  0
  192.3280  173.3610  136.1720 C   0  0  0  0  0  3  0  0  0  0  0  0
  191.0030  173.1940  136.0590 C   0  0  0  0  0  0  0  0  0  0  0  0
  192.9890  174.1520  137.1730 N   0  0  0  0  0  0  0  0  0  0  0  0
  188.4890  177.3770  142.2870 C   0  0  0  0  0  2  0  0  0  0  0  0
  188.1660  176.3470  143.3560 C   0  0  0  0  0  2  0  0  0  0  0  0
  188.5370  177.2560  145.7870 C   0  0  0  0  0  0  0  0  0  0  0  0
  187.7330  177.9930  146.7990 C   0  0  0  0  0  2  0  0  0  0  0  0
  186.4590  178.1400  146.1030 N   0  0  0  0  0  0  0  0  0  0  0  0
  189.7610  176.8600  145.9320 N   0  0  0  0  0  0  0  0  0  0  0  0
  186.5240  177.5470  144.8070 C   0  0  0  0  0  3  0  0  0  0  0  0
  187.7210  177.0240  144.6070 C   0  0  0  0  0  0  0  0  0  0  0  0
  191.7350  176.5360  147.2880 C   0  0  0  0  0  1  0  0  0  0  0  0
  190.4580  177.1150  147.0900 O   0  0  0  0  0  0  0  0  0  0  0  0
  185.2710  178.8030  146.6240 C   0  0  0  0  0  2  0  0  0  0  0  0
  184.2620  178.8330  145.6590 O   0  0  0  0  0  1  0  0  0  0  0  0
  2 22  1  0  0  0  0
  2  1  1  0  0  0  0
  4  3  2  0  0  0  0
  4  9  1  0  0  0  0
  5 10  1  0  0  0  0
  5  9  1  0  0  0  0
  6  5  2  0  0  0  0
  7  8  1  0  0  0  0
  7 10  2  0  0  0  0
  9  2  2  0  0  0  0
 11 13  2  0  0  0  0
 11  6  1  0  0  0  0
 12  6  1  1  0  0  0
 12  4  1  0  0  0  0
 13  7  1  0  0  0  0
 15 14  2  0  0  0  0
 16 14  1  1  0  0  0
 16 17  1  0  0  0  0
 16 12  1  0  0  0  0
 18 20  1  0  0  0  0
 19 21  1  0  0  0  0
 20 19  2  0  0  0  0
 20 15  1  0  0  0  0
 21 17  2  0  0  0  0
 22 23  1  0  0  0  0
 23 29  1  0  0  0  0
 24 27  2  0  0  0  0
 24 25  1  0  0  0  0
 26 32  1  0  0  0  0
 26 25  1  0  0  0  0
 27 31  1  0  0  0  0
 28 26  1  0  0  0  0
 29 28  2  0  0  0  0
 29 24  1  0  0  0  0
 31 30  1  0  0  0  0
 33 32  1  0  0  0  0
M  END
>  <MODEL>
4

>  <REMARK>
 VINA RESULT:      -8.0      2.720      3.801
  Name = 
  6 active torsions:
  status: ('A' for Active; 'I' for Inactive)
    1  A    between atoms: C_2  and  C_22
    2  A    between atoms: C_10  and  N_18
    3  A    between atoms: C_11  and  C_32
    4  A    between atoms: N_19  and  O_25
    5  A    between atoms: C_22  and  C_28
    6  A    between atoms: C_28  and  C_30
                            x       y       z     vdW  Elec       q    Type
                         _______ _______ _______ _____ _____    ______ ____

>  <TORSDO>
F 6

$$$$
=
 OpenBabel10232410253D

 33 36  0  0  1  0  0  0  0  0999 V2000
  190.8730  176.6870  142.3560 C   0  0  0  0  0  1  0  0  0  0  0  0
  189.7730  177.1510  141.4610 C   0  0  0  0  0  0  0  0  0  0  0  0
  192.6760  177.3630  139.9070 S   0  0  0  0  0  0  0  0  0  0  0  0
  191.1720  177.0400  139.3380 C   0  0  0  0  0  0  0  0  0  0  0  0
  188.9120  177.5780  139.1430 C   0  0  0  0  0  0  0  0  0  0  0  0
  189.4290  177.5290  137.8680 C   0  0  0  0  0  0  0  0  0  0  0  0
  186.7880  178.1990  138.3290 C   0  0  0  0  0  0  0  0  0  0  0  0
  185.3640  178.5380  138.5820 C   0  0  0  0  0  1  0  0  0  0  0  0
  189.9390  177.2600  140.1260 C   0  0  0  0  0  0  0  0  0  0  0  0
  187.6120  177.9010  139.3740 N   0  0  0  0  0  0  0  0  0  0  0  0
  188.6200  177.8500  136.7760 C   0  0  0  0  0  3  0  0  0  0  0  0
  190.8780  177.1360  137.8550 C   0  0  2  0  0  3  0  0  0  0  0  0
  187.2800  178.1870  137.0120 C   0  0  0  0  0  3  0  0  0  0  0  0
  189.9380  174.8460  137.4400 C   0  0  0  0  0  3  0  0  0  0  0  0
  189.8290  173.6500  136.8640 C   0  0  0  0  0  3  0  0  0  0  0  0
  191.0770  175.7750  137.1620 C   0  0  2  0  0  3  0  0  0  0  0  0
  192.3570  175.1360  137.5990 C   0  0  0  0  0  3  0  0  0  0  0  0
  190.3520  172.0970  134.9360 C   0  0  0  0  0  1  0  0  0  0  0  0
  192.1590  173.2100  136.1000 C   0  0  0  0  0  3  0  0  0  0  0  0
  190.8340  173.0570  135.9630 C   0  0  0  0  0  0  0  0  0  0  0  0
  192.8080  174.0310  137.0860 N   0  0  0  0  0  0  0  0  0  0  0  0
  188.4660  177.4710  142.1080 C   0  0  0  0  0  2  0  0  0  0  0  0
  188.1380  176.4170  143.1520 C   0  0  0  0  0  2  0  0  0  0  0  0
  186.7550  177.7300  144.9520 C   0  0  0  0  0  0  0  0  0  0  0  0
  186.9660  178.1920  146.3500 C   0  0  0  0  0  2  0  0  0  0  0  0
  188.3270  177.7320  146.6040 N   0  0  0  0  0  0  0  0  0  0  0  0
  185.6860  177.9130  144.2450 N   0  0  0  0  0  0  0  0  0  0  0  0
  188.8510  177.0620  145.4590 C   0  0  0  0  0  3  0  0  0  0  0  0
  187.9550  177.0540  144.4880 C   0  0  0  0  0  0  0  0  0  0  0  0
  183.5270  178.9490  143.9130 C   0  0  0  0  0  1  0  0  0  0  0  0
  184.5960  178.5740  144.7630 O   0  0  0  0  0  0  0  0  0  0  0  0
  189.0720  177.9060  147.8430 C   0  0  0  0  0  2  0  0  0  0  0  0
  188.2020  178.0970  148.9180 O   0  0  0  0  0  1  0  0  0  0  0  0
  2 22  1  0  0  0  0
  2  1  1  0  0  0  0
  4  3  2  0  0  0  0
  4  9  1  0  0  0  0
  5 10  1  0  0  0  0
  5  9  1  0  0  0  0
  6  5  2  0  0  0  0
  7  8  1  0  0  0  0
  7 10  2  0  0  0  0
  9  2  2  0  0  0  0
 11 13  2  0  0  0  0
 11  6  1  0  0  0  0
 12  6  1  1  0  0  0
 12  4  1  0  0  0  0
 13  7  1  0  0  0  0
 15 14  2  0  0  0  0
 16 14  1  1  0  0  0
 16 17  1  0  0  0  0
 16 12  1  0  0  0  0
 18 20  1  0  0  0  0
 19 21  1  0  0  0  0
 20 19  2  0  0  0  0
 20 15  1  0  0  0  0
 21 17  2  0  0  0  0
 22 23  1  0  0  0  0
 23 29  1  0  0  0  0
 24 25  1  0  0  0  0
 25 26  1  0  0  0  0
 26 32  1  0  0  0  0
 27 31  1  0  0  0  0
 27 24  2  0  0  0  0
 28 26  1  0  0  0  0
 29 24  1  0  0  0  0
 29 28  2  0  0  0  0
 30 31  1  0  0  0  0
 32 33  1  0  0  0  0
M  END
>  <MODEL>
5

>  <REMARK>
 VINA RESULT:      -7.9      2.792      4.457
  Name = 
  6 active torsions:
  status: ('A' for Active; 'I' for Inactive)
    1  A    between atoms: C_2  and  C_22
    2  A    between atoms: C_10  and  N_18
    3  A    between atoms: C_11  and  C_32
    4  A    between atoms: N_19  and  O_25
    5  A    between atoms: C_22  and  C_28
    6  A    between atoms: C_28  and  C_30
                            x       y       z     vdW  Elec       q    Type
                         _______ _______ _______ _____ _____    ______ ____

>  <TORSDO>
F 6

$$$$
=
 OpenBabel10232410253D

 33 36  0  0  1  0  0  0  0  0999 V2000
  190.6490  176.8900  141.4590 C   0  0  0  0  0  1  0  0  0  0  0  0
  189.3130  177.4510  141.1040 C   0  0  0  0  0  0  0  0  0  0  0  0
  191.2180  177.2550  138.4180 S   0  0  0  0  0  0  0  0  0  0  0  0
  189.5960  177.0950  138.6000 C   0  0  0  0  0  0  0  0  0  0  0  0
  187.5490  177.8940  139.3770 C   0  0  0  0  0  0  0  0  0  0  0  0
  187.4320  177.7370  138.0150 C   0  0  0  0  0  0  0  0  0  0  0  0
  185.3510  178.7370  139.5330 C   0  0  0  0  0  0  0  0  0  0  0  0
  184.2290  179.2550  140.3570 C   0  0  0  0  0  1  0  0  0  0  0  0
  188.8720  177.4910  139.8300 C   0  0  0  0  0  0  0  0  0  0  0  0
  186.5250  178.3800  140.1280 N   0  0  0  0  0  0  0  0  0  0  0  0
  186.2540  178.1130  137.3670 C   0  0  0  0  0  3  0  0  0  0  0  0
  188.6790  177.1720  137.3970 C   0  0  2  0  0  3  0  0  0  0  0  0
  185.1980  178.6170  138.1400 C   0  0  0  0  0  3  0  0  0  0  0  0
  189.4480  174.7860  137.2670 C   0  0  0  0  0  3  0  0  0  0  0  0
  189.3770  173.4880  136.9790 C   0  0  0  0  0  3  0  0  0  0  0  0
  188.4210  175.7720  136.8080 C   0  0  2  0  0  3  0  0  0  0  0  0
  188.4080  175.8170  135.3120 C   0  0  0  0  0  3  0  0  0  0  0  0
  187.9940  171.4540  136.3820 C   0  0  0  0  0  1  0  0  0  0  0  0
  187.8220  173.4560  135.0320 C   0  0  0  0  0  3  0  0  0  0  0  0
  188.3490  172.8730  136.1190 C   0  0  0  0  0  0  0  0  0  0  0  0
  188.1090  174.7880  134.5760 N   0  0  0  0  0  0  0  0  0  0  0  0
  188.4700  177.9490  142.2320 C   0  0  0  0  0  2  0  0  0  0  0  0
  188.0240  176.7820  143.0960 C   0  0  0  0  0  2  0  0  0  0  0  0
  188.7420  177.3570  145.5510 C   0  0  0  0  0  0  0  0  0  0  0  0
  188.0810  177.8880  146.7740 C   0  0  0  0  0  2  0  0  0  0  0  0
  186.7070  178.0510  146.3100 N   0  0  0  0  0  0  0  0  0  0  0  0
  189.9880  177.0240  145.4470 N   0  0  0  0  0  0  0  0  0  0  0  0
  186.5880  177.6550  144.9450 C   0  0  0  0  0  3  0  0  0  0  0  0
  187.7580  177.2440  144.4880 C   0  0  0  0  0  0  0  0  0  0  0  0
  191.7420  176.1020  146.8330 C   0  0  0  0  0  1  0  0  0  0  0  0
  190.8510  177.1550  146.5110 O   0  0  0  0  0  0  0  0  0  0  0  0
  185.5910  178.5550  147.0990 C   0  0  0  0  0  2  0  0  0  0  0  0
  184.4590  178.7250  146.2990 O   0  0  0  0  0  1  0  0  0  0  0  0
  2  1  1  0  0  0  0
  2 22  1  0  0  0  0
  3  4  2  0  0  0  0
  4  9  1  0  0  0  0
  5  9  1  0  0  0  0
  5 10  1  0  0  0  0
  6  5  2  0  0  0  0
  7 10  2  0  0  0  0
  7  8  1  0  0  0  0
  9  2  2  0  0  0  0
 11  6  1  0  0  0  0
 11 13  2  0  0  0  0
 12  6  1  1  0  0  0
 12  4  1  0  0  0  0
 13  7  1  0  0  0  0
 15 14  2  0  0  0  0
 16 17  1  6  0  0  0
 16 14  1  0  0  0  0
 16 12  1  0  0  0  0
 19 20  2  0  0  0  0
 20 18  1  0  0  0  0
 20 15  1  0  0  0  0
 21 19  1  0  0  0  0
 21 17  2  0  0  0  0
 22 23  1  0  0  0  0
 23 29  1  0  0  0  0
 24 25  1  0  0  0  0
 26 25  1  0  0  0  0
 26 32  1  0  0  0  0
 27 24  2  0  0  0  0
 27 31  1  0  0  0  0
 28 26  1  0  0  0  0
 29 28  2  0  0  0  0
 29 24  1  0  0  0  0
 31 30  1  0  0  0  0
 33 32  1  0  0  0  0
M  END
>  <MODEL>
6

>  <REMARK>
 VINA RESULT:      -7.8      1.593      1.940
  Name = 
  6 active torsions:
  status: ('A' for Active; 'I' for Inactive)
    1  A    between atoms: C_2  and  C_22
    2  A    between atoms: C_10  and  N_18
    3  A    between atoms: C_11  and  C_32
    4  A    between atoms: N_19  and  O_25
    5  A    between atoms: C_22  and  C_28
    6  A    between atoms: C_28  and  C_30
                            x       y       z     vdW  Elec       q    Type
                         _______ _______ _______ _____ _____    ______ ____

>  <TORSDO>
F 6

$$$$
=
 OpenBabel10232410253D

 33 36  0  0  1  0  0  0  0  0999 V2000
  183.0780  179.0830  143.3530 C   0  0  0  0  0  1  0  0  0  0  0  0
  184.1590  178.8310  142.3560 C   0  0  0  0  0  0  0  0  0  0  0  0
  181.2450  177.8640  141.1490 S   0  0  0  0  0  0  0  0  0  0  0  0
  182.5650  178.4890  140.4020 C   0  0  0  0  0  0  0  0  0  0  0  0
  184.8560  178.4730  139.9730 C   0  0  0  0  0  0  0  0  0  0  0  0
  184.2160  178.3250  138.7630 C   0  0  0  0  0  0  0  0  0  0  0  0
  186.9730  178.3090  138.9460 C   0  0  0  0  0  0  0  0  0  0  0  0
  188.4550  178.3220  139.0480 C   0  0  0  0  0  1  0  0  0  0  0  0
  183.8900  178.6060  141.0530 C   0  0  0  0  0  0  0  0  0  0  0  0
  186.2130  178.4720  140.0660 N   0  0  0  0  0  0  0  0  0  0  0  0
  184.9620  178.1330  137.5990 C   0  0  0  0  0  3  0  0  0  0  0  0
  182.7220  178.3730  138.9000 C   0  0  2  0  0  3  0  0  0  0  0  0
  186.3600  178.1280  137.6930 C   0  0  0  0  0  3  0  0  0  0  0  0
  181.4090  180.4990  139.1410 C   0  0  0  0  0  3  0  0  0  0  0  0
  180.9110  181.6810  138.7830 C   0  0  0  0  0  3  0  0  0  0  0  0
  182.1390  179.6080  138.1860 C   0  0  2  0  0  3  0  0  0  0  0  0
  181.2140  179.2000  137.0830 C   0  0  0  0  0  3  0  0  0  0  0  0
  180.9550  183.7000  137.2580 C   0  0  0  0  0  1  0  0  0  0  0  0
  180.7910  181.4820  136.3030 C   0  0  0  0  0  3  0  0  0  0  0  0
  180.9350  182.2220  137.4110 C   0  0  0  0  0  0  0  0  0  0  0  0
  180.6720  180.0500  136.2630 N   0  0  0  0  0  0  0  0  0  0  0  0
  185.5640  178.8590  142.8630 C   0  0  0  0  0  2  0  0  0  0  0  0
  185.9340  177.4990  143.4280 C   0  0  0  0  0  2  0  0  0  0  0  0
  188.5080  177.7510  143.8620 C   0  0  0  0  0  0  0  0  0  0  0  0
  189.3960  177.8740  145.0490 C   0  0  0  0  0  2  0  0  0  0  0  0
  188.4310  177.7970  146.1400 N   0  0  0  0  0  0  0  0  0  0  0  0
  188.8910  177.7440  142.6250 N   0  0  0  0  0  0  0  0  0  0  0  0
  187.1070  177.6480  145.6290 C   0  0  0  0  0  3  0  0  0  0  0  0
  187.1320  177.6150  144.3080 C   0  0  0  0  0  0  0  0  0  0  0  0
  190.8400  176.8890  141.4790 C   0  0  0  0  0  1  0  0  0  0  0  0
  190.2200  177.8690  142.2920 O   0  0  0  0  0  0  0  0  0  0  0  0
  188.7380  177.8690  147.5620 C   0  0  0  0  0  2  0  0  0  0  0  0
  187.5750  178.0700  148.3080 O   0  0  0  0  0  1  0  0  0  0  0  0
  2 22  1  0  0  0  0
  2  1  1  0  0  0  0
  4  9  1  0  0  0  0
  4  3  2  0  0  0  0
  5 10  1  0  0  0  0
  5  9  1  0  0  0  0
  6  5  2  0  0  0  0
  7  8  1  0  0  0  0
  7 10  2  0  0  0  0
  9  2  2  0  0  0  0
 11 13  2  0  0  0  0
 11  6  1  0  0  0  0
 12  6  1  1  0  0  0
 12  4  1  0  0  0  0
 13  7  1  0  0  0  0
 15 14  2  0  0  0  0
 16 17  1  6  0  0  0
 16 12  1  0  0  0  0
 16 14  1  0  0  0  0
 18 20  1  0  0  0  0
 19 20  2  0  0  0  0
 20 15  1  0  0  0  0
 21 19  1  0  0  0  0
 21 17  2  0  0  0  0
 22 23  1  0  0  0  0
 23 29  1  0  0  0  0
 24 29  1  0  0  0  0
 24 25  1  0  0  0  0
 25 26  1  0  0  0  0
 26 32  1  0  0  0  0
 27 24  2  0  0  0  0
 28 26  1  0  0  0  0
 29 28  2  0  0  0  0
 30 31  1  0  0  0  0
 31 27  1  0  0  0  0
 32 33  1  0  0  0  0
M  END
>  <MODEL>
7

>  <REMARK>
 VINA RESULT:      -7.6      3.237      5.462
  Name = 
  6 active torsions:
  status: ('A' for Active; 'I' for Inactive)
    1  A    between atoms: C_2  and  C_22
    2  A    between atoms: C_10  and  N_18
    3  A    between atoms: C_11  and  C_32
    4  A    between atoms: N_19  and  O_25
    5  A    between atoms: C_22  and  C_28
    6  A    between atoms: C_28  and  C_30
                            x       y       z     vdW  Elec       q    Type
                         _______ _______ _______ _____ _____    ______ ____

>  <TORSDO>
F 6

$$$$
=
 OpenBabel10232410253D

 33 36  0  0  1  0  0  0  0  0999 V2000
  190.8160  176.8570  141.2530 C   0  0  0  0  0  1  0  0  0  0  0  0
  189.4860  177.4240  140.8840 C   0  0  0  0  0  0  0  0  0  0  0  0
  191.4030  177.1800  138.2100 S   0  0  0  0  0  0  0  0  0  0  0  0
  189.7790  177.0360  138.3860 C   0  0  0  0  0  0  0  0  0  0  0  0
  187.7340  177.8610  139.1430 C   0  0  0  0  0  0  0  0  0  0  0  0
  187.6230  177.6880  137.7820 C   0  0  0  0  0  0  0  0  0  0  0  0
  185.5430  178.7230  139.2770 C   0  0  0  0  0  0  0  0  0  0  0  0
  184.4210  179.2600  140.0900 C   0  0  0  0  0  1  0  0  0  0  0  0
  189.0520  177.4520  139.6070 C   0  0  0  0  0  0  0  0  0  0  0  0
  186.7110  178.3640  139.8830 N   0  0  0  0  0  0  0  0  0  0  0  0
  186.4510  178.0660  137.1240 C   0  0  0  0  0  3  0  0  0  0  0  0
  188.8680  177.1050  137.1780 C   0  0  2  0  0  3  0  0  0  0  0  0
  185.3960  178.5880  137.8850 C   0  0  0  0  0  3  0  0  0  0  0  0
  189.5010  174.6770  137.2210 C   0  0  0  0  0  3  0  0  0  0  0  0
  189.3880  173.3750  136.9670 C   0  0  0  0  0  3  0  0  0  0  0  0
  188.6020  175.7010  136.6040 C   0  0  2  0  0  3  0  0  0  0  0  0
  188.7810  175.6880  135.1190 C   0  0  0  0  0  3  0  0  0  0  0  0
  187.9700  171.4010  136.2620 C   0  0  0  0  0  1  0  0  0  0  0  0
  188.0930  173.3550  134.8390 C   0  0  0  0  0  3  0  0  0  0  0  0
  188.4410  172.7860  136.0020 C   0  0  0  0  0  0  0  0  0  0  0  0
  188.5160  174.6510  134.3820 N   0  0  0  0  0  0  0  0  0  0  0  0
  188.6410  177.9430  142.0010 C   0  0  0  0  0  2  0  0  0  0  0  0
  188.1470  176.7860  142.8530 C   0  0  0  0  0  2  0  0  0  0  0  0
  187.4350  177.6170  145.2360 C   0  0  0  0  0  0  0  0  0  0  0  0
  188.0640  177.7050  146.5810 C   0  0  0  0  0  2  0  0  0  0  0  0
  189.3970  177.1760  146.3120 N   0  0  0  0  0  0  0  0  0  0  0  0
  186.2330  177.9900  144.9340 N   0  0  0  0  0  0  0  0  0  0  0  0
  189.5240  176.8120  144.9380 C   0  0  0  0  0  3  0  0  0  0  0  0
  188.3970  177.0650  144.2960 C   0  0  0  0  0  0  0  0  0  0  0  0
  184.0620  178.8590  145.5430 C   0  0  0  0  0  1  0  0  0  0  0  0
  185.3900  178.5130  145.8880 O   0  0  0  0  0  0  0  0  0  0  0  0
  190.4680  177.0170  147.2860 C   0  0  0  0  0  2  0  0  0  0  0  0
  191.7120  176.9970  146.6510 O   0  0  0  0  0  1  0  0  0  0  0  0
  2  1  1  0  0  0  0
  2 22  1  0  0  0  0
  3  4  2  0  0  0  0
  4  9  1  0  0  0  0
  5  9  1  0  0  0  0
  5 10  1  0  0  0  0
  6  5  2  0  0  0  0
  7 10  2  0  0  0  0
  7  8  1  0  0  0  0
  9  2  2  0  0  0  0
 11  6  1  0  0  0  0
 11 13  2  0  0  0  0
 12  6  1  1  0  0  0
 12  4  1  0  0  0  0
 13  7  1  0  0  0  0
 15 14  2  0  0  0  0
 16 17  1  6  0  0  0
 16 12  1  0  0  0  0
 16 14  1  0  0  0  0
 19 20  2  0  0  0  0
 20 18  1  0  0  0  0
 20 15  1  0  0  0  0
 21 19  1  0  0  0  0
 21 17  2  0  0  0  0
 22 23  1  0  0  0  0
 23 29  1  0  0  0  0
 24 25  1  0  0  0  0
 26 25  1  0  0  0  0
 26 32  1  0  0  0  0
 27 24  2  0  0  0  0
 27 31  1  0  0  0  0
 28 26  1  0  0  0  0
 29 28  2  0  0  0  0
 29 24  1  0  0  0  0
 30 31  1  0  0  0  0
 33 32  1  0  0  0  0
M  END
>  <MODEL>
8

>  <REMARK>
 VINA RESULT:      -7.5      1.761      3.256
  Name = 
  6 active torsions:
  status: ('A' for Active; 'I' for Inactive)
    1  A    between atoms: C_2  and  C_22
    2  A    between atoms: C_10  and  N_18
    3  A    between atoms: C_11  and  C_32
    4  A    between atoms: N_19  and  O_25
    5  A    between atoms: C_22  and  C_28
    6  A    between atoms: C_28  and  C_30
                            x       y       z     vdW  Elec       q    Type
                         _______ _______ _______ _____ _____    ______ ____

>  <TORSDO>
F 6

$$$$
=
 OpenBabel10232410253D

 33 36  0  0  1  0  0  0  0  0999 V2000
  182.5050  179.1630  142.3390 C   0  0  0  0  0  1  0  0  0  0  0  0
  183.1860  178.5430  141.1650 C   0  0  0  0  0  0  0  0  0  0  0  0
  179.9820  178.9910  140.5200 S   0  0  0  0  0  0  0  0  0  0  0  0
  181.2940  179.0430  139.5380 C   0  0  0  0  0  0  0  0  0  0  0  0
  183.2460  178.0830  138.7000 C   0  0  0  0  0  0  0  0  0  0  0  0
  182.4100  178.3030  137.6290 C   0  0  0  0  0  0  0  0  0  0  0  0
  184.8780  177.1030  137.3070 C   0  0  0  0  0  0  0  0  0  0  0  0
  186.2150  176.4770  137.1380 C   0  0  0  0  0  1  0  0  0  0  0  0
  182.6290  178.5420  139.9360 C   0  0  0  0  0  0  0  0  0  0  0  0
  184.4640  177.4990  138.5450 N   0  0  0  0  0  0  0  0  0  0  0  0
  182.7910  177.8910  136.3500 C   0  0  0  0  0  3  0  0  0  0  0  0
  181.1290  178.9740  138.0340 C   0  0  2  0  0  3  0  0  0  0  0  0
  184.0450  177.2850  136.1890 C   0  0  0  0  0  3  0  0  0  0  0  0
  180.4600  181.3640  138.4030 C   0  0  0  0  0  3  0  0  0  0  0  0
  180.3730  182.6680  138.1450 C   0  0  0  0  0  3  0  0  0  0  0  0
  181.0230  180.3840  137.4230 C   0  0  2  0  0  3  0  0  0  0  0  0
  180.1730  180.3690  136.1920 C   0  0  0  0  0  3  0  0  0  0  0  0
  181.1930  184.7070  136.8900 C   0  0  0  0  0  1  0  0  0  0  0  0
  180.5270  182.7320  135.6590 C   0  0  0  0  0  3  0  0  0  0  0  0
  180.7300  183.2950  136.8590 C   0  0  0  0  0  0  0  0  0  0  0  0
  180.0100  181.4110  135.4320 N   0  0  0  0  0  0  0  0  0  0  0  0
  184.5300  177.9370  141.4080 C   0  0  0  0  0  2  0  0  0  0  0  0
  185.5720  179.0340  141.5390 C   0  0  0  0  0  2  0  0  0  0  0  0
  188.0840  178.3890  141.1540 C   0  0  0  0  0  0  0  0  0  0  0  0
  189.1760  177.7730  141.9550 C   0  0  0  0  0  2  0  0  0  0  0  0
  188.4970  177.5180  143.2200 N   0  0  0  0  0  0  0  0  0  0  0  0
  188.1750  178.7850  139.9250 N   0  0  0  0  0  0  0  0  0  0  0  0
  187.1390  177.9510  143.1570 C   0  0  0  0  0  3  0  0  0  0  0  0
  186.8790  178.4550  141.9630 C   0  0  0  0  0  0  0  0  0  0  0  0
  189.5460  177.6040  138.3220 C   0  0  0  0  0  1  0  0  0  0  0  0
  189.3560  178.6760  139.2280 O   0  0  0  0  0  0  0  0  0  0  0  0
  189.0930  176.9190  144.4060 C   0  0  0  0  0  2  0  0  0  0  0  0
  188.7360  177.6340  145.5520 O   0  0  0  0  0  1  0  0  0  0  0  0
  2 22  1  0  0  0  0
  2  1  1  0  0  0  0
  4  9  1  0  0  0  0
  4  3  2  0  0  0  0
  5  9  1  0  0  0  0
  6  5  2  0  0  0  0
  7 10  2  0  0  0  0
  8  7  1  0  0  0  0
  9  2  2  0  0  0  0
 10  5  1  0  0  0  0
 11  6  1  0  0  0  0
 12  6  1  6  0  0  0
 12  4  1  0  0  0  0
 13 11  2  0  0  0  0
 13  7  1  0  0  0  0
 15 14  2  0  0  0  0
 16 17  1  6  0  0  0
 16 12  1  0  0  0  0
 16 14  1  0  0  0  0
 19 20  2  0  0  0  0
 20 18  1  0  0  0  0
 20 15  1  0  0  0  0
 21 19  1  0  0  0  0
 21 17  2  0  0  0  0
 22 23  1  0  0  0  0
 23 29  1  0  0  0  0
 24 25  1  0  0  0  0
 24 29  1  0  0  0  0
 25 26  1  0  0  0  0
 26 32  1  0  0  0  0
 27 24  2  0  0  0  0
 28 26  1  0  0  0  0
 29 28  2  0  0  0  0
 30 31  1  0  0  0  0
 31 27  1  0  0  0  0
 32 33  1  0  0  0  0
M  END
>  <MODEL>
9

>  <REMARK>
 VINA RESULT:      -6.6      4.158      6.702
  Name = 
  6 active torsions:
  status: ('A' for Active; 'I' for Inactive)
    1  A    between atoms: C_2  and  C_22
    2  A    between atoms: C_10  and  N_18
    3  A    between atoms: C_11  and  C_32
    4  A    between atoms: N_19  and  O_25
    5  A    between atoms: C_22  and  C_28
    6  A    between atoms: C_28  and  C_30
                            x       y       z     vdW  Elec       q    Type
                         _______ _______ _______ _____ _____    ______ ____

>  <TORSDO>
F 6

$$$$
