=
 OpenBabel10232412173D

 48 54  0  0  1  0  0  0  0  0999 V2000
  180.4130  172.5950  137.4690 C   0  0  0  0  0  2  0  0  0  0  0  0
  182.9900  174.0640  137.1880 C   0  0  0  0  0  0  0  0  0  0  0  0
  185.3490  172.5980  137.1360 C   0  0  0  0  0  3  0  0  0  0  0  0
  181.9430  175.0930  137.1620 C   0  0  0  0  0  0  0  0  0  0  0  0
  182.9080  172.6640  137.1120 C   0  0  0  0  0  0  0  0  0  0  0  0
  184.1070  171.9360  137.0630 C   0  0  0  0  0  3  0  0  0  0  0  0
  181.6610  171.9660  137.0820 N   0  0  0  0  0  2  0  0  0  0  0  0
  180.7570  174.9300  136.5450 C   0  0  2  0  0  3  0  0  0  0  0  0
  180.0910  173.6610  136.5350 N   0  0  0  0  0  2  0  0  0  0  0  0
  182.6520  176.3760  137.4060 C   0  0  0  0  0  0  0  0  0  0  0  0
  184.2090  174.7060  137.2510 C   0  0  0  0  0  0  0  0  0  0  0  0
  183.9720  176.1420  137.4050 C   0  0  0  0  0  0  0  0  0  0  0  0
  185.4060  173.9960  137.2460 C   0  0  0  0  0  2  0  0  0  0  0  0
  181.7330  177.8370  139.2600 C   0  0  0  0  0  0  0  0  0  0  0  0
  181.4590  177.9500  140.6290 C   0  0  2  0  0  0  0  0  0  0  0  0
  180.2820  177.3530  141.0790 O   0  0  0  0  0  1  0  0  0  0  0  0
  181.1040  180.2780  139.1770 C   0  0  0  0  0  3  0  0  0  0  0  0
  182.0320  177.6120  137.9510 C   0  0  0  0  0  0  0  0  0  0  0  0
  181.8370  178.8230  137.2000 C   0  0  0  0  0  3  0  0  0  0  0  0
  181.2920  179.1040  139.8470 C   0  0  0  0  0  0  0  0  0  0  0  0
  181.2390  181.1940  136.9350 O   0  0  0  0  0  1  0  0  0  0  0  0
  181.3840  180.0960  137.7760 C   0  0  0  0  0  0  0  0  0  0  0  0
  182.5920  177.9760  141.5360 N   0  0  0  0  0  0  0  0  0  0  0  0
  183.5590  178.7720  141.3050 N   0  0  0  0  0  0  0  0  0  0  0  0
  184.6640  178.8050  142.1650 N   0  0  0  0  0  2  0  0  0  0  0  0
  183.8930  179.6070  144.3180 C   0  0  0  0  0  1  0  0  0  0  0  0
  184.5140  178.4480  143.5650 C   0  0  2  0  0  3  0  0  0  0  0  0
  185.8110  178.1270  144.1420 N   0  0  0  0  0  2  0  0  0  0  0  0
  186.6560  177.6570  143.0570 C   0  0  0  0  0  2  0  0  0  0  0  0
  187.4880  176.4770  143.5210 C   0  0  0  0  0  2  0  0  0  0  0  0
  188.8940  176.6360  142.9870 C   0  0  0  0  0  2  0  0  0  0  0  0
  189.2850  178.0390  143.0360 N   0  0  0  0  0  2  0  0  0  0  0  0
  191.1380  179.4170  144.0130 C   0  0  0  0  0  2  0  0  0  0  0  0
  191.6830  178.0210  143.7040 C   0  0  0  0  0  2  0  0  0  0  0  0
  189.8990  177.7070  145.5130 C   0  0  0  0  0  1  0  0  0  0  0  0
  190.2430  178.2050  144.1220 C   0  0  0  0  0  0  0  0  0  0  0  0
  180.1260  176.0640  135.8530 C   0  0  0  0  0  3  0  0  0  0  0  0
  180.4320  176.3950  134.6040 C   0  0  0  0  0  2  0  0  0  0  0  0
  184.9450  177.1270  137.5820 O   0  0  0  0  0  0  0  0  0  0  0  0
  185.5810  177.7840  136.4990 C   0  0  0  0  0  2  0  0  0  0  0  0
  186.8670  177.0580  136.1540 C   0  0  0  0  0  2  0  0  0  0  0  0
  188.0350  177.5680  136.9890 C   0  0  0  0  0  2  0  0  0  0  0  0
  188.4170  176.5570  138.0830 C   0  0  1  0  0  3  0  0  0  0  0  0
  190.1150  177.7230  139.1970 C   0  0  0  0  0  2  0  0  0  0  0  0
  190.9610  176.6770  138.4960 C   0  0  0  0  0  2  0  0  0  0  0  0
  187.8680  178.2580  139.7280 C   0  0  0  0  0  1  0  0  0  0  0  0
  189.8570  175.5990  137.5310 S   0  0  0  0  0  0  0  0  0  0  0  0
  188.7780  177.1790  139.3620 N   0  0  0  0  0  0  0  0  0  0  0  0
  2 11  1  0  0  0  0
  3 13  1  0  0  0  0
  4  2  1  0  0  0  0
  4 10  2  0  0  0  0
  5  2  2  0  0  0  0
  6  5  1  0  0  0  0
  6  3  2  0  0  0  0
  7  5  1  0  0  0  0
  7  1  1  0  0  0  0
  8 37  1  6  0  0  0
  8  4  1  0  0  0  0
  9  8  1  0  0  0  0
  9  1  1  0  0  0  0
 10 18  1  0  0  0  0
 11 12  2  0  0  0  0
 12 10  1  0  0  0  0
 12 39  1  0  0  0  0
 13 11  1  0  0  0  0
 14 20  1  0  0  0  0
 14 15  1  0  0  0  0
 15 16  1  1  0  0  0
 15 23  1  0  0  0  0
 17 20  2  0  0  0  0
 18 14  2  0  0  0  0
 19 22  2  0  0  0  0
 19 18  1  0  0  0  0
 20 15  1  0  0  0  0
 21 22  1  0  0  0  0
 22 17  1  0  0  0  0
 24 23  2  0  0  0  0
 24 25  1  0  0  0  0
 25 27  1  0  0  0  0
 27 28  1  0  0  0  0
 27 26  1  1  0  0  0
 29 30  1  0  0  0  0
 29 28  1  0  0  0  0
 31 32  1  0  0  0  0
 31 30  1  0  0  0  0
 32 36  1  0  0  0  0
 33 36  1  0  0  0  0
 34 33  1  0  0  0  0
 34 36  1  0  0  0  0
 36 35  1  0  0  0  0
 38 37  2  0  0  0  0
 40 39  1  0  0  0  0
 41 40  1  0  0  0  0
 41 42  1  0  0  0  0
 43 42  1  6  0  0  0
 43 48  1  0  0  0  0
 44 48  1  0  0  0  0
 45 44  1  0  0  0  0
 47 43  1  0  0  0  0
 47 45  1  0  0  0  0
 48 46  1  0  0  0  0
M  END
>  <MODEL>
1

>  <REMARK>
 VINA RESULT:      -6.5      0.000      0.000
  Name = 
  16 active torsions:
  status: ('A' for Active; 'I' for Inactive)
    1  A    between atoms: C_6  and  C_13
    2  A    between atoms: C_6  and  C_16
    3  A    between atoms: N_7  and  C_41
    4  A    between atoms: N_7  and  N_44
    5  A    between atoms: C_9  and  C_33
    6  A    between atoms: C_9  and  C_35
    7  A    between atoms: C_12  and  N_28
    8  A    between atoms: C_16  and  C_36
    9  A    between atoms: C_20  and  C_34
   10  A    between atoms: N_22  and  C_24
   11  A    between atoms: N_22  and  C_35
   12  A    between atoms: C_25  and  C_27
   13  A    between atoms: C_33  and  N_40
   14  A    between atoms: C_36  and  O_42
   15  A    between atoms: C_39  and  O_42
   16  A    between atoms: N_40  and  C_41
                            x       y       z     vdW  Elec       q    Type
                         _______ _______ _______ _____ _____    ______ ____

>  <TORSDO>
F 16

$$$$
=
 OpenBabel10232412173D

 48 54  0  0  1  0  0  0  0  0999 V2000
  183.0550  171.6240  136.6460 C   0  0  0  0  0  2  0  0  0  0  0  0
  185.1250  173.7340  136.2720 C   0  0  0  0  0  0  0  0  0  0  0  0
  187.8000  172.9900  136.3510 C   0  0  0  0  0  3  0  0  0  0  0  0
  183.8330  174.4230  136.1600 C   0  0  0  0  0  0  0  0  0  0  0  0
  185.4390  172.3660  136.3040 C   0  0  0  0  0  0  0  0  0  0  0  0
  186.7950  172.0030  136.3200 C   0  0  0  0  0  3  0  0  0  0  0  0
  184.4390  171.3460  136.3180 N   0  0  0  0  0  2  0  0  0  0  0  0
  182.7580  173.8900  135.5490 C   0  0  2  0  0  3  0  0  0  0  0  0
  182.4740  172.4870  135.6310 N   0  0  0  0  0  2  0  0  0  0  0  0
  184.1480  175.8680  136.3090 C   0  0  0  0  0  0  0  0  0  0  0  0
  186.1130  174.6960  136.2950 C   0  0  0  0  0  0  0  0  0  0  0  0
  185.4800  176.0150  136.3370 C   0  0  0  0  0  0  0  0  0  0  0  0
  187.4610  174.3520  136.3530 C   0  0  0  0  0  2  0  0  0  0  0  0
  183.0820  177.4010  138.0200 C   0  0  0  0  0  0  0  0  0  0  0  0
  183.0520  177.8150  139.3580 C   0  0  2  0  0  0  0  0  0  0  0  0
  182.3330  177.0110  140.2420 O   0  0  0  0  0  1  0  0  0  0  0  0
  181.5040  179.3320  137.6400 C   0  0  0  0  0  3  0  0  0  0  0  0
  183.1920  176.9160  136.7530 C   0  0  0  0  0  0  0  0  0  0  0  0
  182.3770  177.7030  135.8660 C   0  0  0  0  0  3  0  0  0  0  0  0
  182.2810  178.5520  138.4460 C   0  0  0  0  0  0  0  0  0  0  0  0
  180.8220  179.5260  135.3200 O   0  0  0  0  0  1  0  0  0  0  0  0
  181.5620  178.8510  136.2840 C   0  0  0  0  0  0  0  0  0  0  0  0
  184.2240  178.5000  139.8720 N   0  0  0  0  0  0  0  0  0  0  0  0
  184.2630  178.8360  141.1000 N   0  0  0  0  0  0  0  0  0  0  0  0
  185.3830  179.5050  141.6110 N   0  0  0  0  0  2  0  0  0  0  0  0
  187.2370  178.0040  142.0390 C   0  0  0  0  0  1  0  0  0  0  0  0
  186.1840  178.8990  142.6600 C   0  0  2  0  0  3  0  0  0  0  0  0
  185.3380  178.1180  143.5500 N   0  0  0  0  0  2  0  0  0  0  0  0
  185.6770  178.5060  144.9090 C   0  0  0  0  0  2  0  0  0  0  0  0
  186.5040  177.4180  145.5680 C   0  0  0  0  0  2  0  0  0  0  0  0
  187.8620  177.9860  145.9160 C   0  0  0  0  0  2  0  0  0  0  0  0
  188.7600  176.9100  146.3130 N   0  0  0  0  0  2  0  0  0  0  0  0
  190.1020  178.3070  144.7220 C   0  0  0  0  0  2  0  0  0  0  0  0
  190.0800  176.8670  144.2040 C   0  0  0  0  0  2  0  0  0  0  0  0
  191.3280  176.8040  146.4380 C   0  0  0  0  0  1  0  0  0  0  0  0
  190.0550  177.1470  145.6870 C   0  0  0  0  0  0  0  0  0  0  0  0
  181.8550  174.7480  134.7670 C   0  0  0  0  0  3  0  0  0  0  0  0
  180.5870  174.4270  134.5400 C   0  0  0  0  0  2  0  0  0  0  0  0
  186.1330  177.2440  136.4440 O   0  0  0  0  0  0  0  0  0  0  0  0
  186.9530  177.5850  137.5490 C   0  0  0  0  0  2  0  0  0  0  0  0
  188.2630  178.1610  137.0450 C   0  0  0  0  0  2  0  0  0  0  0  0
  189.3870  177.9510  138.0520 C   0  0  0  0  0  2  0  0  0  0  0  0
  189.8360  176.4800  138.0820 C   0  0  1  0  0  3  0  0  0  0  0  0
  192.0570  176.7060  138.7900 C   0  0  0  0  0  2  0  0  0  0  0  0
  192.3040  176.3350  137.3400 C   0  0  0  0  0  2  0  0  0  0  0  0
  190.3530  176.7730  140.4360 C   0  0  0  0  0  1  0  0  0  0  0  0
  190.6930  176.0900  136.5290 S   0  0  0  0  0  0  0  0  0  0  0  0
  190.7630  176.1680  139.1750 N   0  0  0  0  0  0  0  0  0  0  0  0
  2 11  1  0  0  0  0
  2  5  2  0  0  0  0
  3 13  1  0  0  0  0
  4  2  1  0  0  0  0
  4 10  2  0  0  0  0
  5  7  1  0  0  0  0
  5  6  1  0  0  0  0
  6  3  2  0  0  0  0
  7  1  1  0  0  0  0
  8 37  1  6  0  0  0
  8  9  1  0  0  0  0
  8  4  1  0  0  0  0
  9  1  1  0  0  0  0
 10 12  1  0  0  0  0
 10 18  1  0  0  0  0
 11 12  2  0  0  0  0
 11 13  1  0  0  0  0
 12 39  1  0  0  0  0
 14 20  1  0  0  0  0
 14 15  1  0  0  0  0
 15 23  1  0  0  0  0
 15 16  1  1  0  0  0
 17 20  2  0  0  0  0
 18 14  2  0  0  0  0
 19 22  2  0  0  0  0
 19 18  1  0  0  0  0
 20 15  1  0  0  0  0
 21 22  1  0  0  0  0
 22 17  1  0  0  0  0
 23 24  2  0  0  0  0
 24 25  1  0  0  0  0
 25 27  1  0  0  0  0
 27 26  1  6  0  0  0
 27 28  1  0  0  0  0
 28 29  1  0  0  0  0
 29 30  1  0  0  0  0
 30 31  1  0  0  0  0
 31 32  1  0  0  0  0
 33 36  1  0  0  0  0
 34 33  1  0  0  0  0
 34 36  1  0  0  0  0
 36 32  1  0  0  0  0
 36 35  1  0  0  0  0
 38 37  2  0  0  0  0
 39 40  1  0  0  0  0
 41 40  1  0  0  0  0
 41 42  1  0  0  0  0
 43 42  1  6  0  0  0
 43 48  1  0  0  0  0
 44 48  1  0  0  0  0
 45 44  1  0  0  0  0
 47 45  1  0  0  0  0
 47 43  1  0  0  0  0
 48 46  1  0  0  0  0
M  END
>  <MODEL>
2

>  <REMARK>
 VINA RESULT:      -6.2      1.712      2.257
  Name = 
  16 active torsions:
  status: ('A' for Active; 'I' for Inactive)
    1  A    between atoms: C_6  and  C_13
    2  A    between atoms: C_6  and  C_16
    3  A    between atoms: N_7  and  C_41
    4  A    between atoms: N_7  and  N_44
    5  A    between atoms: C_9  and  C_33
    6  A    between atoms: C_9  and  C_35
    7  A    between atoms: C_12  and  N_28
    8  A    between atoms: C_16  and  C_36
    9  A    between atoms: C_20  and  C_34
   10  A    between atoms: N_22  and  C_24
   11  A    between atoms: N_22  and  C_35
   12  A    between atoms: C_25  and  C_27
   13  A    between atoms: C_33  and  N_40
   14  A    between atoms: C_36  and  O_42
   15  A    between atoms: C_39  and  O_42
   16  A    between atoms: N_40  and  C_41
                            x       y       z     vdW  Elec       q    Type
                         _______ _______ _______ _____ _____    ______ ____

>  <TORSDO>
F 16

$$$$
=
 OpenBabel10232412173D

 48 54  0  0  1  0  0  0  0  0999 V2000
  182.3560  178.1780  144.4450 C   0  0  0  0  0  2  0  0  0  0  0  0
  184.4130  178.7230  142.3590 C   0  0  0  0  0  0  0  0  0  0  0  0
  183.5720  179.0810  139.7350 C   0  0  0  0  0  3  0  0  0  0  0  0
  185.1520  178.6040  143.6220 C   0  0  2  0  0  3  0  0  0  0  0  0
  183.0360  178.8200  142.1040 C   0  0  0  0  0  0  0  0  0  0  0  0
  182.6240  179.0240  140.7770 C   0  0  0  0  0  3  0  0  0  0  0  0
  182.0520  178.7210  143.1360 N   0  0  0  0  0  2  0  0  0  0  0  0
  184.6970  179.0830  144.7960 C   0  0  2  0  0  3  0  0  0  0  0  0
  183.3030  179.0440  145.1270 N   0  0  0  0  0  2  0  0  0  0  0  0
  186.5720  178.4160  143.2260 C   0  0  0  0  0  0  0  0  0  0  0  0
  185.3350  178.7880  141.3360 C   0  0  0  0  0  0  0  0  0  0  0  0
  186.6700  178.5750  141.8990 C   0  0  0  0  0  0  0  0  0  0  0  0
  184.9420  178.9470  140.0100 C   0  0  0  0  0  3  0  0  0  0  0  0
  188.6840  177.0670  143.5900 C   0  0  0  0  0  0  0  0  0  0  0  0
  189.7280  176.3510  142.9920 C   0  0  2  0  0  0  0  0  0  0  0  0
  189.4480  175.0360  142.6200 O   0  0  0  0  0  1  0  0  0  0  0  0
  190.0090  176.7560  145.7140 C   0  0  0  0  0  3  0  0  0  0  0  0
  187.6210  177.7750  144.0610 C   0  0  0  0  0  0  0  0  0  0  0  0
  187.7680  177.9750  145.4780 C   0  0  0  0  0  3  0  0  0  0  0  0
  189.8230  176.5820  144.3740 C   0  0  0  0  0  0  0  0  0  0  0  0
  188.9170  177.7490  147.6400 O   0  0  0  0  0  1  0  0  0  0  0  0
  188.8990  177.4830  146.2750 C   0  0  0  0  0  0  0  0  0  0  0  0
  190.6680  177.0970  142.1750 N   0  0  0  0  0  0  0  0  0  0  0  0
  191.0280  176.6250  141.0490 N   0  0  0  0  0  0  0  0  0  0  0  0
  191.9400  177.3270  140.2510 N   0  0  0  0  0  2  0  0  0  0  0  0
  191.3400  175.7140  138.5450 C   0  0  0  0  0  1  0  0  0  0  0  0
  192.0960  176.9920  138.8460 C   0  0  2  0  0  3  0  0  0  0  0  0
  193.5040  176.8170  138.5240 N   0  0  0  0  0  2  0  0  0  0  0  0
  193.6130  175.6080  137.7260 C   0  0  0  0  0  2  0  0  0  0  0  0
  194.3100  175.9130  136.4140 C   0  0  0  0  0  2  0  0  0  0  0  0
  195.1790  174.7320  136.0410 C   0  0  0  0  0  2  0  0  0  0  0  0
  195.4320  173.9140  137.2190 N   0  0  0  0  0  2  0  0  0  0  0  0
  197.6440  174.5690  138.2020 C   0  0  0  0  0  2  0  0  0  0  0  0
  197.7180  174.7390  136.6830 C   0  0  0  0  0  2  0  0  0  0  0  0
  197.3810  172.2370  137.1060 C   0  0  0  0  0  1  0  0  0  0  0  0
  196.8650  173.6510  137.2900 C   0  0  0  0  0  0  0  0  0  0  0  0
  185.6370  179.6720  145.7630 C   0  0  0  0  0  3  0  0  0  0  0  0
  185.6750  179.2980  147.0360 C   0  0  0  0  0  2  0  0  0  0  0  0
  187.8660  178.4900  141.1830 O   0  0  0  0  0  0  0  0  0  0  0  0
  187.9700  177.8310  139.9320 C   0  0  0  0  0  2  0  0  0  0  0  0
  188.7950  178.6790  138.9830 C   0  0  0  0  0  2  0  0  0  0  0  0
  188.2750  178.5810  137.5550 C   0  0  0  0  0  2  0  0  0  0  0  0
  187.8200  177.1480  137.2280 C   0  0  1  0  0  3  0  0  0  0  0  0
  187.5790  177.2740  134.9020 C   0  0  0  0  0  2  0  0  0  0  0  0
  186.1150  177.2210  135.2930 C   0  0  0  0  0  2  0  0  0  0  0  0
  189.7580  176.9530  135.7780 C   0  0  0  0  0  1  0  0  0  0  0  0
  186.0090  177.1120  137.1060 S   0  0  0  0  0  0  0  0  0  0  0  0
  188.3470  176.6360  135.9580 N   0  0  0  0  0  0  0  0  0  0  0  0
  1  9  1  0  0  0  0
  3 13  2  0  0  0  0
  3  6  1  0  0  0  0
  4  2  1  6  0  0  0
  4  8  1  0  0  0  0
  5  2  1  0  0  0  0
  5  7  1  0  0  0  0
  6  5  2  0  0  0  0
  7  1  1  0  0  0  0
  8  9  1  0  0  0  0
  8 37  1  6  0  0  0
 10  4  1  0  0  0  0
 10 18  1  0  0  0  0
 11 12  1  0  0  0  0
 11  2  2  0  0  0  0
 12 10  2  0  0  0  0
 13 11  1  0  0  0  0
 14 18  2  0  0  0  0
 14 20  1  0  0  0  0
 15 16  1  6  0  0  0
 15 14  1  0  0  0  0
 15 20  1  0  0  0  0
 17 22  1  0  0  0  0
 18 19  1  0  0  0  0
 19 22  2  0  0  0  0
 20 17  2  0  0  0  0
 22 21  1  0  0  0  0
 23 15  1  0  0  0  0
 24 23  2  0  0  0  0
 25 24  1  0  0  0  0
 27 26  1  1  0  0  0
 27 25  1  0  0  0  0
 28 27  1  0  0  0  0
 29 28  1  0  0  0  0
 30 29  1  0  0  0  0
 31 30  1  0  0  0  0
 31 32  1  0  0  0  0
 32 36  1  0  0  0  0
 34 36  1  0  0  0  0
 34 33  1  0  0  0  0
 35 36  1  0  0  0  0
 36 33  1  0  0  0  0
 37 38  2  0  0  0  0
 39 12  1  0  0  0  0
 40 39  1  0  0  0  0
 41 40  1  0  0  0  0
 42 41  1  0  0  0  0
 43 42  1  6  0  0  0
 44 45  1  0  0  0  0
 44 48  1  0  0  0  0
 45 47  1  0  0  0  0
 46 48  1  0  0  0  0
 47 43  1  0  0  0  0
 48 43  1  0  0  0  0
M  END
>  <MODEL>
3

>  <REMARK>
 VINA RESULT:      -5.9      4.032      8.635
  Name = 
  16 active torsions:
  status: ('A' for Active; 'I' for Inactive)
    1  A    between atoms: C_6  and  C_13
    2  A    between atoms: C_6  and  C_16
    3  A    between atoms: N_7  and  C_41
    4  A    between atoms: N_7  and  N_44
    5  A    between atoms: C_9  and  C_33
    6  A    between atoms: C_9  and  C_35
    7  A    between atoms: C_12  and  N_28
    8  A    between atoms: C_16  and  C_36
    9  A    between atoms: C_20  and  C_34
   10  A    between atoms: N_22  and  C_24
   11  A    between atoms: N_22  and  C_35
   12  A    between atoms: C_25  and  C_27
   13  A    between atoms: C_33  and  N_40
   14  A    between atoms: C_36  and  O_42
   15  A    between atoms: C_39  and  O_42
   16  A    between atoms: N_40  and  C_41
                            x       y       z     vdW  Elec       q    Type
                         _______ _______ _______ _____ _____    ______ ____

>  <TORSDO>
F 16

$$$$
=
 OpenBabel10232412173D

 48 54  0  0  1  0  0  0  0  0999 V2000
  190.8430  178.7160  144.8300 C   0  0  0  0  0  2  0  0  0  0  0  0
  189.8810  177.7960  142.1650 C   0  0  0  0  0  0  0  0  0  0  0  0
  191.7560  177.3580  140.1610 C   0  0  0  0  0  3  0  0  0  0  0  0
  188.6790  177.9150  143.0000 C   0  0  2  0  0  3  0  0  0  0  0  0
  191.2440  177.8410  142.5010 C   0  0  0  0  0  0  0  0  0  0  0  0
  192.1810  177.5950  141.4840 C   0  0  0  0  0  3  0  0  0  0  0  0
  191.7020  178.1240  143.8240 N   0  0  0  0  0  2  0  0  0  0  0  0
  188.6430  177.5740  144.3020 C   0  0  2  0  0  3  0  0  0  0  0  0
  189.7690  177.7960  145.1620 N   0  0  0  0  0  2  0  0  0  0  0  0
  187.5400  177.9100  142.0460 C   0  0  0  0  0  0  0  0  0  0  0  0
  189.4720  177.5550  140.8700 C   0  0  0  0  0  0  0  0  0  0  0  0
  188.0120  177.6510  140.8180 C   0  0  0  0  0  0  0  0  0  0  0  0
  190.3890  177.3510  139.8430 C   0  0  0  0  0  3  0  0  0  0  0  0
  185.2200  178.6750  141.3780 C   0  0  0  0  0  0  0  0  0  0  0  0
  184.3010  178.8390  140.3330 C   0  0  2  0  0  0  0  0  0  0  0  0
  184.4540  179.9780  139.5430 O   0  0  0  0  0  1  0  0  0  0  0  0
  183.2790  179.3030  142.8610 C   0  0  0  0  0  3  0  0  0  0  0  0
  186.1930  178.4810  142.3090 C   0  0  0  0  0  0  0  0  0  0  0  0
  185.6590  178.7330  143.6210 C   0  0  0  0  0  3  0  0  0  0  0  0
  183.8310  179.0650  141.6370 C   0  0  0  0  0  0  0  0  0  0  0  0
  183.8850  179.3440  145.2100 O   0  0  0  0  0  1  0  0  0  0  0  0
  184.2720  179.1350  143.8910 C   0  0  0  0  0  0  0  0  0  0  0  0
  183.7960  177.6380  139.6930 N   0  0  0  0  0  0  0  0  0  0  0  0
  182.7060  177.1240  140.1030 N   0  0  0  0  0  0  0  0  0  0  0  0
  182.2070  175.9600  139.5040 N   0  0  0  0  0  2  0  0  0  0  0  0
  180.1550  174.8350  140.1310 C   0  0  0  0  0  1  0  0  0  0  0  0
  180.7930  175.8410  139.1960 C   0  0  2  0  0  3  0  0  0  0  0  0
  180.6130  175.4130  137.8170 N   0  0  0  0  0  2  0  0  0  0  0  0
  181.9310  175.0900  137.2960 C   0  0  0  0  0  2  0  0  0  0  0  0
  181.8610  174.8930  135.7940 C   0  0  0  0  0  2  0  0  0  0  0  0
  181.7730  173.4110  135.5030 C   0  0  0  0  0  2  0  0  0  0  0  0
  183.0520  172.9300  134.9980 N   0  0  0  0  0  2  0  0  0  0  0  0
  184.1880  172.1160  137.0800 C   0  0  0  0  0  2  0  0  0  0  0  0
  184.9490  171.5730  135.8670 C   0  0  0  0  0  2  0  0  0  0  0  0
  182.6180  170.5170  135.7800 C   0  0  0  0  0  1  0  0  0  0  0  0
  183.4550  171.7820  135.8020 C   0  0  0  0  0  0  0  0  0  0  0  0
  187.4370  176.9480  144.8650 C   0  0  0  0  0  3  0  0  0  0  0  0
  187.0230  177.1880  146.1040 C   0  0  0  0  0  2  0  0  0  0  0  0
  187.2160  177.5470  139.6750 O   0  0  0  0  0  0  0  0  0  0  0  0
  187.4520  178.3070  138.5020 C   0  0  0  0  0  2  0  0  0  0  0  0
  187.2830  177.4170  137.2840 C   0  0  0  0  0  2  0  0  0  0  0  0
  187.9790  176.0760  137.4750 C   0  0  0  0  0  2  0  0  0  0  0  0
  187.0280  174.9090  137.1580 C   0  0  1  0  0  3  0  0  0  0  0  0
  187.6730  174.3890  134.9670 C   0  0  0  0  0  2  0  0  0  0  0  0
  186.3320  175.0350  134.6760 C   0  0  0  0  0  2  0  0  0  0  0  0
  188.9870  173.5350  136.7450 C   0  0  0  0  0  1  0  0  0  0  0  0
  185.5870  175.5460  136.2560 S   0  0  0  0  0  0  0  0  0  0  0  0
  187.6320  173.8650  136.3220 N   0  0  0  0  0  0  0  0  0  0  0  0
  1  9  1  0  0  0  0
  2  5  1  0  0  0  0
  2  4  1  0  0  0  0
  3  6  1  0  0  0  0
  4 10  1  6  0  0  0
  4  8  1  0  0  0  0
  5  7  1  0  0  0  0
  6  5  2  0  0  0  0
  7  1  1  0  0  0  0
  8 37  1  6  0  0  0
  8  9  1  0  0  0  0
 10 18  1  0  0  0  0
 11  2  2  0  0  0  0
 12 11  1  0  0  0  0
 12 10  2  0  0  0  0
 13  3  2  0  0  0  0
 13 11  1  0  0  0  0
 14 20  2  0  0  0  0
 14 18  1  0  0  0  0
 15 16  1  6  0  0  0
 15 14  1  0  0  0  0
 15 20  1  0  0  0  0
 17 22  2  0  0  0  0
 18 19  2  0  0  0  0
 19 22  1  0  0  0  0
 20 17  1  0  0  0  0
 22 21  1  0  0  0  0
 23 24  2  0  0  0  0
 23 15  1  0  0  0  0
 25 24  1  0  0  0  0
 27 25  1  0  0  0  0
 27 26  1  1  0  0  0
 28 27  1  0  0  0  0
 29 28  1  0  0  0  0
 30 29  1  0  0  0  0
 31 30  1  0  0  0  0
 32 31  1  0  0  0  0
 32 36  1  0  0  0  0
 34 33  1  0  0  0  0
 35 36  1  0  0  0  0
 36 34  1  0  0  0  0
 36 33  1  0  0  0  0
 37 38  2  0  0  0  0
 39 12  1  0  0  0  0
 40 39  1  0  0  0  0
 41 42  1  0  0  0  0
 41 40  1  0  0  0  0
 43 42  1  6  0  0  0
 44 48  1  0  0  0  0
 45 44  1  0  0  0  0
 45 47  1  0  0  0  0
 47 43  1  0  0  0  0
 48 46  1  0  0  0  0
 48 43  1  0  0  0  0
M  END
>  <MODEL>
4

>  <REMARK>
 VINA RESULT:      -5.9      2.421      8.417
  Name = 
  16 active torsions:
  status: ('A' for Active; 'I' for Inactive)
    1  A    between atoms: C_6  and  C_13
    2  A    between atoms: C_6  and  C_16
    3  A    between atoms: N_7  and  C_41
    4  A    between atoms: N_7  and  N_44
    5  A    between atoms: C_9  and  C_33
    6  A    between atoms: C_9  and  C_35
    7  A    between atoms: C_12  and  N_28
    8  A    between atoms: C_16  and  C_36
    9  A    between atoms: C_20  and  C_34
   10  A    between atoms: N_22  and  C_24
   11  A    between atoms: N_22  and  C_35
   12  A    between atoms: C_25  and  C_27
   13  A    between atoms: C_33  and  N_40
   14  A    between atoms: C_36  and  O_42
   15  A    between atoms: C_39  and  O_42
   16  A    between atoms: N_40  and  C_41
                            x       y       z     vdW  Elec       q    Type
                         _______ _______ _______ _____ _____    ______ ____

>  <TORSDO>
F 16

$$$$
=
 OpenBabel10232412173D

 48 54  0  0  1  0  0  0  0  0999 V2000
  188.5660  176.8630  145.3520 C   0  0  0  0  0  2  0  0  0  0  0  0
  187.5750  178.0640  142.8110 C   0  0  0  0  0  0  0  0  0  0  0  0
  184.8770  178.6930  142.6090 C   0  0  0  0  0  3  0  0  0  0  0  0
  189.0180  177.8680  142.6200 C   0  0  2  0  0  3  0  0  0  0  0  0
  186.7790  177.9730  143.9630 C   0  0  0  0  0  0  0  0  0  0  0  0
  185.4220  178.3160  143.8540 C   0  0  0  0  0  3  0  0  0  0  0  0
  187.2960  177.5510  145.2270 N   0  0  0  0  0  2  0  0  0  0  0  0
  189.9300  178.0720  143.5900 C   0  0  2  0  0  3  0  0  0  0  0  0
  189.6460  177.7530  144.9580 N   0  0  0  0  0  2  0  0  0  0  0  0
  189.2360  177.9800  141.1550 C   0  0  0  0  0  0  0  0  0  0  0  0
  187.0390  178.4410  141.5980 C   0  0  0  0  0  0  0  0  0  0  0  0
  188.0870  178.3620  140.5800 C   0  0  0  0  0  0  0  0  0  0  0  0
  185.6860  178.7430  141.4640 C   0  0  0  0  0  3  0  0  0  0  0  0
  190.2910  176.7210  139.2270 C   0  0  0  0  0  0  0  0  0  0  0  0
  190.0770  176.0360  138.0240 C   0  0  2  0  0  0  0  0  0  0  0  0
  189.6720  174.7060  138.1290 O   0  0  0  0  0  1  0  0  0  0  0  0
  192.7340  176.4980  138.6390 C   0  0  0  0  0  3  0  0  0  0  0  0
  190.3790  177.3950  140.4060 C   0  0  0  0  0  0  0  0  0  0  0  0
  191.7630  177.6240  140.7250 C   0  0  0  0  0  3  0  0  0  0  0  0
  191.4100  176.2940  138.3820 C   0  0  0  0  0  0  0  0  0  0  0  0
  194.1840  177.4790  140.3190 O   0  0  0  0  0  1  0  0  0  0  0  0
  192.8920  177.1900  139.8920 C   0  0  0  0  0  0  0  0  0  0  0  0
  189.5800  176.8050  136.8970 N   0  0  0  0  0  0  0  0  0  0  0  0
  189.2550  176.2010  135.8240 N   0  0  0  0  0  0  0  0  0  0  0  0
  188.7820  176.9270  134.7240 N   0  0  0  0  0  2  0  0  0  0  0  0
  186.7010  178.1690  134.6870 C   0  0  0  0  0  1  0  0  0  0  0  0
  187.3810  176.8580  134.3460 C   0  0  2  0  0  3  0  0  0  0  0  0
  186.7250  175.7670  135.0500 N   0  0  0  0  0  2  0  0  0  0  0  0
  185.3040  175.8640  134.7580 C   0  0  0  0  0  2  0  0  0  0  0  0
  184.6500  174.5040  134.9100 C   0  0  0  0  0  2  0  0  0  0  0  0
  185.3610  173.7440  136.0080 C   0  0  0  0  0  2  0  0  0  0  0  0
  184.8050  172.4030  136.1200 N   0  0  0  0  0  2  0  0  0  0  0  0
  187.1380  171.4850  136.0530 C   0  0  0  0  0  2  0  0  0  0  0  0
  186.8350  172.1420  134.7040 C   0  0  0  0  0  2  0  0  0  0  0  0
  185.2210  170.1670  134.9160 C   0  0  0  0  0  1  0  0  0  0  0  0
  185.7350  171.4720  135.4920 C   0  0  0  0  0  0  0  0  0  0  0  0
  191.2430  178.6450  143.2560 C   0  0  0  0  0  3  0  0  0  0  0  0
  191.8920  179.4620  144.0770 C   0  0  0  0  0  2  0  0  0  0  0  0
  187.9300  178.5900  139.2110 O   0  0  0  0  0  0  0  0  0  0  0  0
  187.0950  177.7930  138.3890 C   0  0  0  0  0  2  0  0  0  0  0  0
  185.7290  178.4440  138.2760 C   0  0  0  0  0  2  0  0  0  0  0  0
  184.6500  177.4200  137.9490 C   0  0  0  0  0  2  0  0  0  0  0  0
  183.4190  177.6060  138.8520 C   0  0  1  0  0  3  0  0  0  0  0  0
  181.6870  177.4650  137.2830 C   0  0  0  0  0  2  0  0  0  0  0  0
  181.6270  178.9530  137.5740 C   0  0  0  0  0  2  0  0  0  0  0  0
  182.6300  175.4430  138.0800 C   0  0  0  0  0  1  0  0  0  0  0  0
  182.9060  179.3470  138.8070 S   0  0  0  0  0  0  0  0  0  0  0  0
  182.2600  176.8050  138.4430 N   0  0  0  0  0  0  0  0  0  0  0  0
  2  5  1  0  0  0  0
  3  6  1  0  0  0  0
  4 10  1  6  0  0  0
  4  2  1  0  0  0  0
  4  8  1  0  0  0  0
  5  7  1  0  0  0  0
  6  5  2  0  0  0  0
  7  1  1  0  0  0  0
  8 37  1  1  0  0  0
  8  9  1  0  0  0  0
  9  1  1  0  0  0  0
 11  2  2  0  0  0  0
 12 10  2  0  0  0  0
 12 11  1  0  0  0  0
 13 11  1  0  0  0  0
 13  3  2  0  0  0  0
 14 18  1  0  0  0  0
 15 16  1  1  0  0  0
 15 20  1  0  0  0  0
 15 14  1  0  0  0  0
 17 22  2  0  0  0  0
 18 19  2  0  0  0  0
 18 10  1  0  0  0  0
 20 17  1  0  0  0  0
 20 14  2  0  0  0  0
 22 21  1  0  0  0  0
 22 19  1  0  0  0  0
 23 15  1  0  0  0  0
 24 23  2  0  0  0  0
 25 24  1  0  0  0  0
 27 26  1  1  0  0  0
 27 25  1  0  0  0  0
 27 28  1  0  0  0  0
 29 30  1  0  0  0  0
 29 28  1  0  0  0  0
 30 31  1  0  0  0  0
 31 32  1  0  0  0  0
 34 36  1  0  0  0  0
 34 33  1  0  0  0  0
 35 36  1  0  0  0  0
 36 33  1  0  0  0  0
 36 32  1  0  0  0  0
 37 38  2  0  0  0  0
 39 12  1  0  0  0  0
 40 39  1  0  0  0  0
 41 40  1  0  0  0  0
 42 41  1  0  0  0  0
 43 42  1  6  0  0  0
 44 45  1  0  0  0  0
 44 48  1  0  0  0  0
 45 47  1  0  0  0  0
 46 48  1  0  0  0  0
 47 43  1  0  0  0  0
 48 43  1  0  0  0  0
M  END
>  <MODEL>
5

>  <REMARK>
 VINA RESULT:      -5.7      2.893      9.647
  Name = 
  16 active torsions:
  status: ('A' for Active; 'I' for Inactive)
    1  A    between atoms: C_6  and  C_13
    2  A    between atoms: C_6  and  C_16
    3  A    between atoms: N_7  and  C_41
    4  A    between atoms: N_7  and  N_44
    5  A    between atoms: C_9  and  C_33
    6  A    between atoms: C_9  and  C_35
    7  A    between atoms: C_12  and  N_28
    8  A    between atoms: C_16  and  C_36
    9  A    between atoms: C_20  and  C_34
   10  A    between atoms: N_22  and  C_24
   11  A    between atoms: N_22  and  C_35
   12  A    between atoms: C_25  and  C_27
   13  A    between atoms: C_33  and  N_40
   14  A    between atoms: C_36  and  O_42
   15  A    between atoms: C_39  and  O_42
   16  A    between atoms: N_40  and  C_41
                            x       y       z     vdW  Elec       q    Type
                         _______ _______ _______ _____ _____    ______ ____

>  <TORSDO>
F 16

$$$$
=
 OpenBabel10232412173D

 48 54  0  0  1  0  0  0  0  0999 V2000
  188.7380  178.7110  136.5570 C   0  0  0  0  0  2  0  0  0  0  0  0
  187.6840  175.9560  136.9780 C   0  0  0  0  0  0  0  0  0  0  0  0
  189.3660  173.8050  136.4690 C   0  0  0  0  0  3  0  0  0  0  0  0
  186.5870  176.8610  137.3460 C   0  0  0  0  0  0  0  0  0  0  0  0
  189.0380  176.2130  136.7120 C   0  0  0  0  0  0  0  0  0  0  0  0
  189.8830  175.1170  136.4790 C   0  0  0  0  0  3  0  0  0  0  0  0
  189.5780  177.5360  136.6710 N   0  0  0  0  0  2  0  0  0  0  0  0
  186.7700  178.0240  137.9990 C   0  0  2  0  0  3  0  0  0  0  0  0
  187.9170  178.8460  137.7490 N   0  0  0  0  0  2  0  0  0  0  0  0
  185.3710  176.0070  137.3700 C   0  0  0  0  0  0  0  0  0  0  0  0
  187.1860  174.6710  136.9760 C   0  0  0  0  0  0  0  0  0  0  0  0
  185.7410  174.7290  137.2030 C   0  0  0  0  0  0  0  0  0  0  0  0
  188.0020  173.5750  136.7050 C   0  0  0  0  0  2  0  0  0  0  0  0
  183.0360  176.5520  138.1850 C   0  0  0  0  0  0  0  0  0  0  0  0
  182.1510  176.5590  139.2710 C   0  0  2  0  0  0  0  0  0  0  0  0
  181.5260  175.3500  139.5730 O   0  0  0  0  0  1  0  0  0  0  0  0
  181.2090  177.8230  136.9980 C   0  0  0  0  0  3  0  0  0  0  0  0
  183.9750  176.4900  137.2020 C   0  0  0  0  0  0  0  0  0  0  0  0
  183.4760  177.1400  136.0200 C   0  0  0  0  0  3  0  0  0  0  0  0
  181.7180  177.1870  138.0920 C   0  0  0  0  0  0  0  0  0  0  0  0
  181.7970  178.3670  134.7080 O   0  0  0  0  0  1  0  0  0  0  0  0
  182.1530  177.7700  135.9120 C   0  0  0  0  0  0  0  0  0  0  0  0
  182.4540  177.4550  140.3730 N   0  0  0  0  0  0  0  0  0  0  0  0
  181.6620  178.4190  140.6290 N   0  0  0  0  0  0  0  0  0  0  0  0
  181.9420  179.2980  141.6830 N   0  0  0  0  0  2  0  0  0  0  0  0
  181.0780  178.4150  143.7680 C   0  0  0  0  0  1  0  0  0  0  0  0
  182.3230  178.7830  142.9870 C   0  0  2  0  0  3  0  0  0  0  0  0
  183.0850  179.7840  143.7190 N   0  0  0  0  0  2  0  0  0  0  0  0
  184.4440  179.2820  143.8370 C   0  0  0  0  0  2  0  0  0  0  0  0
  184.6150  178.5530  145.1570 C   0  0  0  0  0  2  0  0  0  0  0  0
  185.9950  177.9380  145.1950 C   0  0  0  0  0  2  0  0  0  0  0  0
  186.6670  178.1520  143.9200 N   0  0  0  0  0  2  0  0  0  0  0  0
  188.6970  177.3790  142.6680 C   0  0  0  0  0  2  0  0  0  0  0  0
  188.0530  176.1660  143.3450 C   0  0  0  0  0  2  0  0  0  0  0  0
  188.8350  177.7080  145.2330 C   0  0  0  0  0  1  0  0  0  0  0  0
  187.9840  177.5300  143.9910 C   0  0  0  0  0  0  0  0  0  0  0  0
  185.7880  178.4670  139.0010 C   0  0  0  0  0  3  0  0  0  0  0  0
  186.1010  178.6260  140.2810 C   0  0  0  0  0  2  0  0  0  0  0  0
  184.8580  173.6480  137.1960 O   0  0  0  0  0  0  0  0  0  0  0  0
  185.1570  172.4130  136.5670 C   0  0  0  0  0  2  0  0  0  0  0  0
  184.8830  172.5260  135.0790 C   0  0  0  0  0  2  0  0  0  0  0  0
  183.7670  171.5840  134.6470 C   0  0  0  0  0  2  0  0  0  0  0  0
  183.1760  170.8350  135.8540 C   0  0  1  0  0  3  0  0  0  0  0  0
  182.1730  169.0030  134.7950 C   0  0  0  0  0  2  0  0  0  0  0  0
  180.9240  169.7760  135.1730 C   0  0  0  0  0  2  0  0  0  0  0  0
  184.5050  168.9090  135.2010 C   0  0  0  0  0  1  0  0  0  0  0  0
  181.4300  171.2930  136.0410 S   0  0  0  0  0  0  0  0  0  0  0  0
  183.2270  169.3740  135.7240 N   0  0  0  0  0  0  0  0  0  0  0  0
  1  7  1  0  0  0  0
  1  9  1  0  0  0  0
  2  4  1  0  0  0  0
  3  6  2  0  0  0  0
  3 13  1  0  0  0  0
  4 10  2  0  0  0  0
  4  8  1  0  0  0  0
  5  2  2  0  0  0  0
  6  5  1  0  0  0  0
  7  5  1  0  0  0  0
  8 37  1  1  0  0  0
  9  8  1  0  0  0  0
 11  2  1  0  0  0  0
 11 12  2  0  0  0  0
 12 10  1  0  0  0  0
 13 11  1  0  0  0  0
 14 15  1  0  0  0  0
 15 16  1  1  0  0  0
 15 23  1  0  0  0  0
 17 20  2  0  0  0  0
 18 10  1  0  0  0  0
 18 14  2  0  0  0  0
 19 18  1  0  0  0  0
 20 14  1  0  0  0  0
 20 15  1  0  0  0  0
 21 22  1  0  0  0  0
 22 19  2  0  0  0  0
 22 17  1  0  0  0  0
 23 24  2  0  0  0  0
 24 25  1  0  0  0  0
 25 27  1  0  0  0  0
 27 28  1  0  0  0  0
 27 26  1  1  0  0  0
 28 29  1  0  0  0  0
 29 30  1  0  0  0  0
 30 31  1  0  0  0  0
 32 36  1  0  0  0  0
 32 31  1  0  0  0  0
 33 34  1  0  0  0  0
 33 36  1  0  0  0  0
 34 36  1  0  0  0  0
 36 35  1  0  0  0  0
 37 38  2  0  0  0  0
 39 12  1  0  0  0  0
 40 39  1  0  0  0  0
 41 40  1  0  0  0  0
 42 41  1  0  0  0  0
 43 42  1  6  0  0  0
 43 47  1  0  0  0  0
 44 45  1  0  0  0  0
 44 48  1  0  0  0  0
 45 47  1  0  0  0  0
 46 48  1  0  0  0  0
 48 43  1  0  0  0  0
M  END
>  <MODEL>
6

>  <REMARK>
 VINA RESULT:      -5.5      2.646      5.886
  Name = 
  16 active torsions:
  status: ('A' for Active; 'I' for Inactive)
    1  A    between atoms: C_6  and  C_13
    2  A    between atoms: C_6  and  C_16
    3  A    between atoms: N_7  and  C_41
    4  A    between atoms: N_7  and  N_44
    5  A    between atoms: C_9  and  C_33
    6  A    between atoms: C_9  and  C_35
    7  A    between atoms: C_12  and  N_28
    8  A    between atoms: C_16  and  C_36
    9  A    between atoms: C_20  and  C_34
   10  A    between atoms: N_22  and  C_24
   11  A    between atoms: N_22  and  C_35
   12  A    between atoms: C_25  and  C_27
   13  A    between atoms: C_33  and  N_40
   14  A    between atoms: C_36  and  O_42
   15  A    between atoms: C_39  and  O_42
   16  A    between atoms: N_40  and  C_41
                            x       y       z     vdW  Elec       q    Type
                         _______ _______ _______ _____ _____    ______ ____

>  <TORSDO>
F 16

$$$$
=
 OpenBabel10232412173D

 48 54  0  0  1  0  0  0  0  0999 V2000
  190.4510  175.5580  142.8900 C   0  0  0  0  0  2  0  0  0  0  0  0
  188.4880  177.3870  141.5940 C   0  0  0  0  0  0  0  0  0  0  0  0
  186.2510  178.1680  143.0440 C   0  0  0  0  0  3  0  0  0  0  0  0
  189.5490  177.1770  140.6010 C   0  0  0  0  0  0  0  0  0  0  0  0
  188.4230  177.0540  142.9560 C   0  0  0  0  0  0  0  0  0  0  0  0
  187.2980  177.4740  143.6840 C   0  0  0  0  0  3  0  0  0  0  0  0
  189.4500  176.3120  143.6180 N   0  0  0  0  0  2  0  0  0  0  0  0
  190.8560  177.0970  140.9170 C   0  0  2  0  0  3  0  0  0  0  0  0
  191.2920  176.4660  142.1290 N   0  0  0  0  0  2  0  0  0  0  0  0
  188.9710  177.6350  139.3110 C   0  0  0  0  0  0  0  0  0  0  0  0
  187.4640  178.0730  140.9760 C   0  0  1  0  0  3  0  0  0  0  0  0
  187.7790  178.1980  139.5520 C   0  0  0  0  0  0  0  0  0  0  0  0
  186.3230  178.4600  141.6740 C   0  0  0  0  0  3  0  0  0  0  0  0
  189.8090  175.9380  137.6280 C   0  0  0  0  0  0  0  0  0  0  0  0
  190.1970  174.6110  137.4030 C   0  0  2  0  0  0  0  0  0  0  0  0
  191.4980  174.2720  137.7710 O   0  0  0  0  0  1  0  0  0  0  0  0
  189.9980  176.1640  135.1230 C   0  0  0  0  0  3  0  0  0  0  0  0
  189.4210  177.1990  137.9630 C   0  0  0  0  0  0  0  0  0  0  0  0
  189.3290  178.0040  136.7750 C   0  0  0  0  0  3  0  0  0  0  0  0
  190.0830  175.4410  136.2770 C   0  0  0  0  0  0  0  0  0  0  0  0
  189.4810  178.4060  134.3540 O   0  0  0  0  0  1  0  0  0  0  0  0
  189.6120  177.5200  135.4170 C   0  0  0  0  0  0  0  0  0  0  0  0
  189.1740  173.5870  137.5220 N   0  0  0  0  0  0  0  0  0  0  0  0
  188.9270  172.8320  136.5260 N   0  0  0  0  0  0  0  0  0  0  0  0
  187.9390  171.8450  136.6200 N   0  0  0  0  0  2  0  0  0  0  0  0
  187.0870  172.8140  134.5680 C   0  0  0  0  0  1  0  0  0  0  0  0
  186.9860  171.6550  135.5390 C   0  0  2  0  0  3  0  0  0  0  0  0
  185.6340  171.5760  136.0710 N   0  0  0  0  0  2  0  0  0  0  0  0
  184.8590  170.7670  135.1440 C   0  0  0  0  0  2  0  0  0  0  0  0
  183.4930  171.3920  134.9290 C   0  0  0  0  0  2  0  0  0  0  0  0
  182.5420  170.8470  135.9710 C   0  0  0  0  0  2  0  0  0  0  0  0
  182.2410  171.8800  136.9520 N   0  0  0  0  0  2  0  0  0  0  0  0
  181.1440  174.0510  136.3440 C   0  0  0  0  0  2  0  0  0  0  0  0
  180.4460  173.4840  137.5830 C   0  0  0  0  0  2  0  0  0  0  0  0
  180.0000  171.8220  135.6880 C   0  0  0  0  0  1  0  0  0  0  0  0
  181.0190  172.5580  136.5370 C   0  0  0  0  0  0  0  0  0  0  0  0
  191.8670  177.6730  140.0180 C   0  0  0  0  0  3  0  0  0  0  0  0
  192.8600  176.9540  139.5090 C   0  0  0  0  0  2  0  0  0  0  0  0
  186.9610  178.7600  138.5690 O   0  0  0  0  0  0  0  0  0  0  0  0
  185.7910  178.1230  138.0850 C   0  0  0  0  0  2  0  0  0  0  0  0
  184.5680  178.8090  138.6630 C   0  0  0  0  0  2  0  0  0  0  0  0
  183.4990  177.7990  139.0580 C   0  0  0  0  0  2  0  0  0  0  0  0
  182.2060  178.5050  139.5000 C   0  0  1  0  0  3  0  0  0  0  0  0
  180.6700  177.6300  137.9650 C   0  0  0  0  0  2  0  0  0  0  0  0
  180.7790  179.0400  137.4180 C   0  0  0  0  0  2  0  0  0  0  0  0
  181.2270  176.3110  139.8530 C   0  0  0  0  0  1  0  0  0  0  0  0
  181.9450  179.9710  138.4610 S   0  0  0  0  0  0  0  0  0  0  0  0
  181.0050  177.6710  139.3780 N   0  0  0  0  0  0  0  0  0  0  0  0
  1  7  1  0  0  0  0
  2  5  1  0  0  0  0
  3  6  1  0  0  0  0
  4  8  1  0  0  0  0
  4  2  2  0  0  0  0
  5  7  1  0  0  0  0
  5  6  2  0  0  0  0
  8 37  1  1  0  0  0
  8  9  1  0  0  0  0
  9  1  1  0  0  0  0
 10 12  2  0  0  0  0
 10  4  1  0  0  0  0
 11  2  1  0  0  0  0
 11 13  1  6  0  0  0
 12 11  1  0  0  0  0
 13  3  2  0  0  0  0
 14 18  1  0  0  0  0
 15 23  1  0  0  0  0
 15 14  1  0  0  0  0
 15 16  1  1  0  0  0
 17 22  2  0  0  0  0
 17 20  1  0  0  0  0
 18 10  1  0  0  0  0
 19 18  2  0  0  0  0
 20 15  1  0  0  0  0
 20 14  2  0  0  0  0
 21 22  1  0  0  0  0
 22 19  1  0  0  0  0
 24 25  1  0  0  0  0
 24 23  2  0  0  0  0
 27 26  1  6  0  0  0
 27 28  1  0  0  0  0
 27 25  1  0  0  0  0
 29 28  1  0  0  0  0
 30 29  1  0  0  0  0
 30 31  1  0  0  0  0
 31 32  1  0  0  0  0
 33 36  1  0  0  0  0
 33 34  1  0  0  0  0
 35 36  1  0  0  0  0
 36 32  1  0  0  0  0
 36 34  1  0  0  0  0
 38 37  2  0  0  0  0
 39 12  1  0  0  0  0
 40 39  1  0  0  0  0
 40 41  1  0  0  0  0
 41 42  1  0  0  0  0
 43 42  1  6  0  0  0
 44 48  1  0  0  0  0
 45 44  1  0  0  0  0
 45 47  1  0  0  0  0
 47 43  1  0  0  0  0
 48 43  1  0  0  0  0
 48 46  1  0  0  0  0
M  END
>  <MODEL>
7

>  <REMARK>
 VINA RESULT:      -5.4      2.959      9.767
  Name = 
  16 active torsions:
  status: ('A' for Active; 'I' for Inactive)
    1  A    between atoms: C_6  and  C_13
    2  A    between atoms: C_6  and  C_16
    3  A    between atoms: N_7  and  C_41
    4  A    between atoms: N_7  and  N_44
    5  A    between atoms: C_9  and  C_33
    6  A    between atoms: C_9  and  C_35
    7  A    between atoms: C_12  and  N_28
    8  A    between atoms: C_16  and  C_36
    9  A    between atoms: C_20  and  C_34
   10  A    between atoms: N_22  and  C_24
   11  A    between atoms: N_22  and  C_35
   12  A    between atoms: C_25  and  C_27
   13  A    between atoms: C_33  and  N_40
   14  A    between atoms: C_36  and  O_42
   15  A    between atoms: C_39  and  O_42
   16  A    between atoms: N_40  and  C_41
                            x       y       z     vdW  Elec       q    Type
                         _______ _______ _______ _____ _____    ______ ____

>  <TORSDO>
F 16

$$$$
=
 OpenBabel10232412173D

 48 54  0  0  1  0  0  0  0  0999 V2000
  189.9780  175.6780  142.8640 C   0  0  0  0  0  2  0  0  0  0  0  0
  188.0620  177.5640  141.5790 C   0  0  0  0  0  0  0  0  0  0  0  0
  186.0420  178.6620  143.1380 C   0  0  0  0  0  3  0  0  0  0  0  0
  189.0070  177.1790  140.5230 C   0  0  0  0  0  0  0  0  0  0  0  0
  188.0960  177.3520  142.9660 C   0  0  0  0  0  0  0  0  0  0  0  0
  187.0820  177.9310  143.7460 C   0  0  0  0  0  3  0  0  0  0  0  0
  189.1150  176.5770  143.6030 N   0  0  0  0  0  2  0  0  0  0  0  0
  190.3260  177.0070  140.7330 C   0  0  2  0  0  3  0  0  0  0  0  0
  190.8180  176.4410  141.9550 N   0  0  0  0  0  2  0  0  0  0  0  0
  188.3520  177.5790  139.2500 C   0  0  0  0  0  0  0  0  0  0  0  0
  187.0460  178.2870  140.9910 C   0  0  1  0  0  3  0  0  0  0  0  0
  187.2380  178.2660  139.5400 C   0  0  0  0  0  0  0  0  0  0  0  0
  186.0110  178.8320  141.7450 C   0  0  0  0  0  3  0  0  0  0  0  0
  188.0120  175.9140  137.3720 C   0  0  0  0  0  0  0  0  0  0  0  0
  187.3090  174.7890  136.9240 C   0  0  2  0  0  0  0  0  0  0  0  0
  187.7570  173.5510  137.3830 O   0  0  0  0  0  1  0  0  0  0  0  0
  188.9260  175.9810  135.0230 C   0  0  0  0  0  3  0  0  0  0  0  0
  188.6380  176.9950  137.9140 C   0  0  0  0  0  0  0  0  0  0  0  0
  189.4840  177.6040  136.9230 C   0  0  0  0  0  3  0  0  0  0  0  0
  188.1460  175.4290  135.9960 C   0  0  0  0  0  0  0  0  0  0  0  0
  190.4870  177.8080  134.6880 O   0  0  0  0  0  1  0  0  0  0  0  0
  189.6350  177.1200  135.5450 C   0  0  0  0  0  0  0  0  0  0  0  0
  185.8860  174.9430  136.6820 N   0  0  0  0  0  0  0  0  0  0  0  0
  185.2380  173.9920  136.1370 N   0  0  0  0  0  0  0  0  0  0  0  0
  183.8660  174.1260  135.8890 N   0  0  0  0  0  2  0  0  0  0  0  0
  183.6470  171.9980  137.0280 C   0  0  0  0  0  1  0  0  0  0  0  0
  182.9630  173.0160  136.1380 C   0  0  2  0  0  3  0  0  0  0  0  0
  182.5780  172.3900  134.8820 N   0  0  0  0  0  2  0  0  0  0  0  0
  181.3340  173.0120  134.4600 C   0  0  0  0  0  2  0  0  0  0  0  0
  180.7610  173.8440  135.5910 C   0  0  0  0  0  2  0  0  0  0  0  0
  180.2960  175.1700  135.0300 C   0  0  0  0  0  2  0  0  0  0  0  0
  180.3880  176.2000  136.0550 N   0  0  0  0  0  2  0  0  0  0  0  0
  180.4710  178.6910  135.7780 C   0  0  0  0  0  2  0  0  0  0  0  0
  180.3240  178.0530  134.3950 C   0  0  0  0  0  2  0  0  0  0  0  0
  182.5940  177.2880  135.2970 C   0  0  0  0  0  1  0  0  0  0  0  0
  181.0900  177.3440  135.4860 C   0  0  0  0  0  0  0  0  0  0  0  0
  191.2940  177.4130  139.7030 C   0  0  0  0  0  3  0  0  0  0  0  0
  192.6060  177.3210  139.8840 C   0  0  0  0  0  2  0  0  0  0  0  0
  186.3830  178.8170  138.5840 O   0  0  0  0  0  0  0  0  0  0  0  0
  185.1190  178.2570  138.2670 C   0  0  0  0  0  2  0  0  0  0  0  0
  184.0220  179.1590  138.8010 C   0  0  0  0  0  2  0  0  0  0  0  0
  182.6800  178.4380  138.8390 C   0  0  0  0  0  2  0  0  0  0  0  0
  182.5060  177.6620  140.1560 C   0  0  1  0  0  3  0  0  0  0  0  0
  180.5450  176.4620  139.7120 C   0  0  0  0  0  2  0  0  0  0  0  0
  179.9910  177.4710  140.6990 C   0  0  0  0  0  2  0  0  0  0  0  0
  182.5850  175.6100  138.8600 C   0  0  0  0  0  1  0  0  0  0  0  0
  181.3490  178.5620  141.2270 S   0  0  0  0  0  0  0  0  0  0  0  0
  181.9650  176.3100  139.9780 N   0  0  0  0  0  0  0  0  0  0  0  0
  1  7  1  0  0  0  0
  2  5  1  0  0  0  0
  3  6  1  0  0  0  0
  4  8  1  0  0  0  0
  4  2  2  0  0  0  0
  5  7  1  0  0  0  0
  5  6  2  0  0  0  0
  8 37  1  1  0  0  0
  8  9  1  0  0  0  0
  9  1  1  0  0  0  0
 10 12  2  0  0  0  0
 10  4  1  0  0  0  0
 11  2  1  0  0  0  0
 11 13  1  6  0  0  0
 12 11  1  0  0  0  0
 13  3  2  0  0  0  0
 14 18  1  0  0  0  0
 15 14  1  0  0  0  0
 15 16  1  1  0  0  0
 17 22  2  0  0  0  0
 17 20  1  0  0  0  0
 18 10  1  0  0  0  0
 19 18  2  0  0  0  0
 20 15  1  0  0  0  0
 20 14  2  0  0  0  0
 21 22  1  0  0  0  0
 22 19  1  0  0  0  0
 23 15  1  0  0  0  0
 24 23  2  0  0  0  0
 25 24  1  0  0  0  0
 25 27  1  0  0  0  0
 27 26  1  1  0  0  0
 28 27  1  0  0  0  0
 29 28  1  0  0  0  0
 29 30  1  0  0  0  0
 31 30  1  0  0  0  0
 31 32  1  0  0  0  0
 34 36  1  0  0  0  0
 34 33  1  0  0  0  0
 35 36  1  0  0  0  0
 36 33  1  0  0  0  0
 36 32  1  0  0  0  0
 37 38  2  0  0  0  0
 39 12  1  0  0  0  0
 40 39  1  0  0  0  0
 40 41  1  0  0  0  0
 41 42  1  0  0  0  0
 43 42  1  6  0  0  0
 43 47  1  0  0  0  0
 44 48  1  0  0  0  0
 44 45  1  0  0  0  0
 45 47  1  0  0  0  0
 46 48  1  0  0  0  0
 48 43  1  0  0  0  0
M  END
>  <MODEL>
8

>  <REMARK>
 VINA RESULT:      -5.3      2.826      9.350
  Name = 
  16 active torsions:
  status: ('A' for Active; 'I' for Inactive)
    1  A    between atoms: C_6  and  C_13
    2  A    between atoms: C_6  and  C_16
    3  A    between atoms: N_7  and  C_41
    4  A    between atoms: N_7  and  N_44
    5  A    between atoms: C_9  and  C_33
    6  A    between atoms: C_9  and  C_35
    7  A    between atoms: C_12  and  N_28
    8  A    between atoms: C_16  and  C_36
    9  A    between atoms: C_20  and  C_34
   10  A    between atoms: N_22  and  C_24
   11  A    between atoms: N_22  and  C_35
   12  A    between atoms: C_25  and  C_27
   13  A    between atoms: C_33  and  N_40
   14  A    between atoms: C_36  and  O_42
   15  A    between atoms: C_39  and  O_42
   16  A    between atoms: N_40  and  C_41
                            x       y       z     vdW  Elec       q    Type
                         _______ _______ _______ _____ _____    ______ ____

>  <TORSDO>
F 16

$$$$
=
 OpenBabel10232412173D

 48 54  0  0  1  0  0  0  0  0999 V2000
  190.1260  175.4900  142.8980 C   0  0  0  0  0  2  0  0  0  0  0  0
  188.2610  177.4300  141.6190 C   0  0  0  0  0  0  0  0  0  0  0  0
  186.2230  178.5180  143.1620 C   0  0  0  0  0  3  0  0  0  0  0  0
  189.2220  177.0570  140.5740 C   0  0  0  0  0  0  0  0  0  0  0  0
  188.2630  177.1860  143.0020 C   0  0  0  0  0  0  0  0  0  0  0  0
  187.2410  177.7600  143.7740 C   0  0  0  0  0  3  0  0  0  0  0  0
  189.2590  176.3830  143.6400 N   0  0  0  0  0  2  0  0  0  0  0  0
  190.5340  176.8620  140.8060 C   0  0  2  0  0  3  0  0  0  0  0  0
  190.9930  176.2620  142.0240 N   0  0  0  0  0  2  0  0  0  0  0  0
  188.5990  177.4950  139.2980 C   0  0  0  0  0  0  0  0  0  0  0  0
  187.2660  178.1800  141.0280 C   0  0  1  0  0  3  0  0  0  0  0  0
  187.4880  178.1900  139.5810 C   0  0  0  0  0  0  0  0  0  0  0  0
  186.2230  178.7210  141.7730 C   0  0  0  0  0  3  0  0  0  0  0  0
  188.7280  175.6420  137.5750 C   0  0  0  0  0  0  0  0  0  0  0  0
  188.5150  174.2850  137.3040 C   0  0  2  0  0  0  0  0  0  0  0  0
  189.5120  173.4030  137.7200 O   0  0  0  0  0  1  0  0  0  0  0  0
  189.1650  175.8220  135.0980 C   0  0  0  0  0  3  0  0  0  0  0  0
  188.9040  176.9380  137.9540 C   0  0  0  0  0  0  0  0  0  0  0  0
  189.2510  177.7300  136.8040 C   0  0  0  0  0  3  0  0  0  0  0  0
  188.8490  175.1080  136.2170 C   0  0  0  0  0  0  0  0  0  0  0  0
  189.7260  178.0820  134.4180 O   0  0  0  0  0  1  0  0  0  0  0  0
  189.3870  177.2030  135.4400 C   0  0  0  0  0  0  0  0  0  0  0  0
  187.1440  173.8080  137.3190 N   0  0  0  0  0  0  0  0  0  0  0  0
  186.2230  174.5380  136.8300 N   0  0  0  0  0  0  0  0  0  0  0  0
  184.8930  174.0980  136.8430 N   0  0  0  0  0  2  0  0  0  0  0  0
  184.4280  175.7270  135.1110 C   0  0  0  0  0  1  0  0  0  0  0  0
  184.0040  174.4160  135.7400 C   0  0  2  0  0  3  0  0  0  0  0  0
  182.6320  174.5210  136.2150 N   0  0  0  0  0  2  0  0  0  0  0  0
  181.9510  173.2980  135.8240 C   0  0  0  0  0  2  0  0  0  0  0  0
  182.8760  172.4350  134.9870 C   0  0  0  0  0  2  0  0  0  0  0  0
  182.2080  171.0990  134.7490 C   0  0  0  0  0  2  0  0  0  0  0  0
  182.5600  170.1730  135.8170 N   0  0  0  0  0  2  0  0  0  0  0  0
  184.2500  168.3210  135.7720 C   0  0  0  0  0  2  0  0  0  0  0  0
  184.2610  169.0210  134.4110 C   0  0  0  0  0  2  0  0  0  0  0  0
  181.9420  167.9630  134.6520 C   0  0  0  0  0  1  0  0  0  0  0  0
  182.9820  168.9170  135.2070 C   0  0  0  0  0  0  0  0  0  0  0  0
  191.5280  177.2800  139.8060 C   0  0  0  0  0  3  0  0  0  0  0  0
  192.8230  177.3740  140.0850 C   0  0  0  0  0  2  0  0  0  0  0  0
  186.6590  178.7740  138.6200 O   0  0  0  0  0  0  0  0  0  0  0  0
  185.8200  178.0170  137.7640 C   0  0  0  0  0  2  0  0  0  0  0  0
  184.5310  177.6820  138.4900 C   0  0  0  0  0  2  0  0  0  0  0  0
  183.5810  178.8710  138.5130 C   0  0  0  0  0  2  0  0  0  0  0  0
  182.1150  178.4110  138.4220 C   0  0  1  0  0  3  0  0  0  0  0  0
  181.2330  179.3390  140.3830 C   0  0  0  0  0  2  0  0  0  0  0  0
  181.2470  177.8790  140.7930 C   0  0  0  0  0  2  0  0  0  0  0  0
  181.4640  180.7500  138.4930 C   0  0  0  0  0  1  0  0  0  0  0  0
  181.9050  176.9010  139.4070 S   0  0  0  0  0  0  0  0  0  0  0  0
  181.1540  179.3960  138.9330 N   0  0  0  0  0  0  0  0  0  0  0  0
  1  7  1  0  0  0  0
  2  5  1  0  0  0  0
  3  6  1  0  0  0  0
  4  8  1  0  0  0  0
  4  2  2  0  0  0  0
  5  7  1  0  0  0  0
  5  6  2  0  0  0  0
  8 37  1  1  0  0  0
  8  9  1  0  0  0  0
  9  1  1  0  0  0  0
 10 12  2  0  0  0  0
 10  4  1  0  0  0  0
 11  2  1  0  0  0  0
 11 13  1  6  0  0  0
 12 11  1  0  0  0  0
 13  3  2  0  0  0  0
 14 18  1  0  0  0  0
 15 23  1  0  0  0  0
 15 14  1  0  0  0  0
 15 16  1  1  0  0  0
 17 22  2  0  0  0  0
 17 20  1  0  0  0  0
 18 10  1  0  0  0  0
 19 18  2  0  0  0  0
 20 15  1  0  0  0  0
 20 14  2  0  0  0  0
 21 22  1  0  0  0  0
 22 19  1  0  0  0  0
 24 25  1  0  0  0  0
 24 23  2  0  0  0  0
 27 26  1  1  0  0  0
 27 28  1  0  0  0  0
 27 25  1  0  0  0  0
 29 28  1  0  0  0  0
 30 29  1  0  0  0  0
 31 30  1  0  0  0  0
 31 32  1  0  0  0  0
 34 36  1  0  0  0  0
 34 33  1  0  0  0  0
 35 36  1  0  0  0  0
 36 33  1  0  0  0  0
 36 32  1  0  0  0  0
 37 38  2  0  0  0  0
 39 12  1  0  0  0  0
 40 41  1  0  0  0  0
 40 39  1  0  0  0  0
 41 42  1  0  0  0  0
 43 42  1  1  0  0  0
 43 48  1  0  0  0  0
 43 47  1  0  0  0  0
 44 45  1  0  0  0  0
 46 48  1  0  0  0  0
 47 45  1  0  0  0  0
 48 44  1  0  0  0  0
M  END
>  <MODEL>
9

>  <REMARK>
 VINA RESULT:      -5.3      2.884      9.573
  Name = 
  16 active torsions:
  status: ('A' for Active; 'I' for Inactive)
    1  A    between atoms: C_6  and  C_13
    2  A    between atoms: C_6  and  C_16
    3  A    between atoms: N_7  and  C_41
    4  A    between atoms: N_7  and  N_44
    5  A    between atoms: C_9  and  C_33
    6  A    between atoms: C_9  and  C_35
    7  A    between atoms: C_12  and  N_28
    8  A    between atoms: C_16  and  C_36
    9  A    between atoms: C_20  and  C_34
   10  A    between atoms: N_22  and  C_24
   11  A    between atoms: N_22  and  C_35
   12  A    between atoms: C_25  and  C_27
   13  A    between atoms: C_33  and  N_40
   14  A    between atoms: C_36  and  O_42
   15  A    between atoms: C_39  and  O_42
   16  A    between atoms: N_40  and  C_41
                            x       y       z     vdW  Elec       q    Type
                         _______ _______ _______ _____ _____    ______ ____

>  <TORSDO>
F 16

$$$$
