=
 OpenBabel10222421363D

 43 46  0  0  1  0  0  0  0  0999 V2000
  188.5230  176.9910  143.4990 C   0  0  2  0  0  3  0  0  0  0  0  0
  189.3420  176.9900  141.6640 C   0  0  1  0  0  3  0  0  0  0  0  0
  189.4330  177.9800  142.8010 C   0  0  2  0  0  3  0  0  0  0  0  0
  188.4760  176.1400  142.3820 O   0  0  0  0  0  0  0  0  0  0  0  0
  186.6930  177.7210  145.1050 C   0  0  0  0  0  3  0  0  0  0  0  0
  184.6420  178.6880  144.2610 C   0  0  0  0  0  3  0  0  0  0  0  0
  185.4370  178.2820  145.3390 C   0  0  0  0  0  0  0  0  0  0  0  0
  185.1010  178.5370  142.9500 C   0  0  0  0  0  0  0  0  0  0  0  0
  184.9520  178.4620  146.7340 C   0  0  0  0  0  1  0  0  0  0  0  0
  186.3650  177.9750  142.7230 C   0  0  0  0  0  3  0  0  0  0  0  0
  187.1620  177.5560  143.7910 C   0  0  0  0  0  0  0  0  0  0  0  0
  184.2760  178.9750  141.8640 N   0  0  0  0  0  2  0  0  0  0  0  0
  184.5740  179.0580  139.4480 C   0  0  0  0  0  1  0  0  0  0  0  0
  184.1020  178.2230  140.6260 C   0  0  2  0  0  3  0  0  0  0  0  0
  182.6730  177.7960  140.4430 C   0  0  0  0  0  0  0  0  0  0  0  0
  182.3860  176.6360  139.8530 C   0  0  0  0  0  2  0  0  0  0  0  0
  181.5910  178.6930  140.8880 C   0  0  0  0  0  0  0  0  0  0  0  0
  181.2710  179.7030  140.2050 O   0  0  0  0  0  0  0  0  0  0  0  0
  180.9200  178.4360  142.0780 O   0  0  0  0  0  1  0  0  0  0  0  0
  190.8030  177.9630  143.4120 C   0  0  0  0  0  0  0  0  0  0  0  0
  191.8200  178.0880  142.6730 O   0  0  0  0  0  0  0  0  0  0  0  0
  190.9500  177.7290  144.8170 N   0  0  0  0  0  0  0  0  0  0  0  0
  191.5270  176.6710  145.2850 C   0  0  0  0  0  3  0  0  0  0  0  0
  191.6510  176.4790  146.7530 C   0  0  0  0  0  1  0  0  0  0  0  0
  188.6140  177.6290  140.4830 C   0  0  0  0  0  2  0  0  0  0  0  0
  189.5880  177.9470  139.3620 C   0  0  2  0  0  3  0  0  0  0  0  0
  189.0440  179.0020  138.4130 C   0  0  0  0  0  1  0  0  0  0  0  0
  191.7250  175.0980  137.9730 N   0  0  0  0  0  0  0  0  0  0  0  0
  187.4310  175.3540  136.7820 C   0  0  0  0  0  0  0  0  0  0  0  0
  187.8550  176.3050  137.6470 N   0  0  0  0  0  2  0  0  0  0  0  0
  191.2210  173.2630  136.4790 N   0  0  0  0  0  1  0  0  0  0  0  0
  189.1420  175.9910  137.8710 C   0  0  0  0  0  0  0  0  0  0  0  0
  190.8200  174.4140  137.2150 C   0  0  0  0  0  0  0  0  0  0  0  0
  190.0490  176.6930  138.6710 C   0  0  0  0  0  0  0  0  0  0  0  0
  188.4270  174.4410  136.4400 C   0  0  0  0  0  3  0  0  0  0  0  0
  191.3860  176.2190  138.6860 C   0  0  0  0  0  0  0  0  0  0  0  0
  189.5140  174.8860  137.1630 C   0  0  0  0  0  0  0  0  0  0  0  0
  192.4600  176.9260  139.4440 C   0  0  0  0  0  1  0  0  0  0  0  0
  186.0610  175.3590  136.2000 C   0  0  0  0  0  2  0  0  0  0  0  0
  185.0540  175.7300  137.2750 C   0  0  0  0  0  2  0  0  0  0  0  0
  184.0680  174.5930  137.4930 C   0  0  0  0  0  2  0  0  0  0  0  0
  184.7850  173.2930  137.6690 C   0  0  0  0  0  3  0  0  0  0  0  0
  184.3470  172.1770  137.0870 C   0  0  0  0  0  2  0  0  0  0  0  0
  1 11  1  6  0  0  0
  2 25  1  6  0  0  0
  2  4  1  0  0  0  0
  2  3  1  0  0  0  0
  3 20  1  1  0  0  0
  3  1  1  0  0  0  0
  4  1  1  0  0  0  0
  5  7  1  0  0  0  0
  6  7  2  0  0  0  0
  7  9  1  0  0  0  0
  8  6  1  0  0  0  0
 10  8  2  0  0  0  0
 10 11  1  0  0  0  0
 11  5  2  0  0  0  0
 12  8  1  0  0  0  0
 14 13  1  6  0  0  0
 14 12  1  0  0  0  0
 15 14  1  0  0  0  0
 15 17  1  0  0  0  0
 16 15  2  0  0  0  0
 17 19  1  0  0  0  0
 18 17  2  0  0  0  0
 20 22  1  0  0  0  0
 21 20  2  0  0  0  0
 22 23  2  0  0  0  0
 23 24  1  0  0  0  0
 26 27  1  6  0  0  0
 26 25  1  0  0  0  0
 28 36  1  0  0  0  0
 29 30  1  0  0  0  0
 30 32  1  0  0  0  0
 31 33  1  0  0  0  0
 32 34  1  0  0  0  0
 33 28  2  0  0  0  0
 34 36  2  0  0  0  0
 34 26  1  0  0  0  0
 35 29  2  0  0  0  0
 35 37  1  0  0  0  0
 36 38  1  0  0  0  0
 37 33  1  0  0  0  0
 37 32  2  0  0  0  0
 39 29  1  0  0  0  0
 39 40  1  0  0  0  0
 40 41  1  0  0  0  0
 41 42  1  0  0  0  0
 43 42  2  0  0  0  0
M  END
>  <MODEL>
1

>  <REMARK>
 VINA RESULT:      -8.3      0.000      0.000
  Name = 
  14 active torsions:
  status: ('A' for Active; 'I' for Inactive)
    1  A    between atoms: N_2  and  C_3
    2  A    between atoms: C_3  and  C_24
    3  A    between atoms: C_4  and  C_16
    4  A    between atoms: C_4  and  C_34
    5  A    between atoms: C_5  and  C_10
    6  A    between atoms: C_5  and  C_18
    7  A    between atoms: C_7  and  C_41
    8  A    between atoms: C_8  and  C_13
    9  A    between atoms: C_8  and  C_39
   10  A    between atoms: C_9  and  C_11
   11  A    between atoms: C_9  and  C_39
   12  A    between atoms: C_18  and  N_43
   13  A    between atoms: C_26  and  C_34
   14  A    between atoms: C_33  and  N_43
                            x       y       z     vdW  Elec       q    Type
                         _______ _______ _______ _____ _____    ______ ____

>  <TORSDO>
F 14

$$$$
=
 OpenBabel10222421363D

 43 46  0  0  1  0  0  0  0  0999 V2000
  185.4760  179.1970  142.5210 C   0  0  2  0  0  3  0  0  0  0  0  0
  183.7450  178.6840  141.6400 C   0  0  1  0  0  3  0  0  0  0  0  0
  184.3690  178.2550  142.9470 C   0  0  2  0  0  3  0  0  0  0  0  0
  184.8330  179.5190  141.3140 O   0  0  0  0  0  0  0  0  0  0  0  0
  187.3180  178.3930  140.9650 C   0  0  0  0  0  3  0  0  0  0  0  0
  189.2390  177.2170  141.8510 C   0  0  0  0  0  3  0  0  0  0  0  0
  188.5440  177.7570  140.7620 C   0  0  0  0  0  0  0  0  0  0  0  0
  188.7120  177.3140  143.1410 C   0  0  0  0  0  0  0  0  0  0  0  0
  189.1170  177.6680  139.3920 C   0  0  0  0  0  1  0  0  0  0  0  0
  187.4810  177.9560  143.3380 C   0  0  0  0  0  3  0  0  0  0  0  0
  186.7750  178.4880  142.2560 C   0  0  0  0  0  0  0  0  0  0  0  0
  189.4500  176.7680  144.2410 N   0  0  0  0  0  2  0  0  0  0  0  0
  191.6070  177.8190  144.6580 C   0  0  0  0  0  1  0  0  0  0  0  0
  190.2060  177.5790  145.1900 C   0  0  2  0  0  3  0  0  0  0  0  0
  190.2500  176.9320  146.5460 C   0  0  0  0  0  0  0  0  0  0  0  0
  189.1430  176.8350  147.2830 C   0  0  0  0  0  2  0  0  0  0  0  0
  191.5370  176.4430  147.0690 C   0  0  0  0  0  0  0  0  0  0  0  0
  192.1060  177.0280  148.0300 O   0  0  0  0  0  1  0  0  0  0  0  0
  192.1440  175.3310  146.4950 O   0  0  0  0  0  0  0  0  0  0  0  0
  183.6090  178.8220  144.1100 C   0  0  0  0  0  0  0  0  0  0  0  0
  182.3590  178.9830  144.0230 O   0  0  0  0  0  0  0  0  0  0  0  0
  184.3170  179.2470  145.2800 N   0  0  0  0  0  0  0  0  0  0  0  0
  185.0670  178.4460  145.9630 C   0  0  0  0  0  3  0  0  0  0  0  0
  185.7780  178.9410  147.1710 C   0  0  0  0  0  1  0  0  0  0  0  0
  183.6750  177.4920  140.6880 C   0  0  0  0  0  2  0  0  0  0  0  0
  183.3490  177.9500  139.2770 C   0  0  2  0  0  3  0  0  0  0  0  0
  181.9860  178.6150  139.1920 C   0  0  0  0  0  1  0  0  0  0  0  0
  183.0260  174.6700  137.3400 N   0  0  0  0  0  0  0  0  0  0  0  0
  186.4210  177.4100  136.3950 C   0  0  0  0  0  0  0  0  0  0  0  0
  185.5650  177.8470  137.3480 N   0  0  0  0  0  2  0  0  0  0  0  0
  184.3580  173.6800  135.5790 N   0  0  0  0  0  1  0  0  0  0  0  0
  184.6340  176.8810  137.4190 C   0  0  0  0  0  0  0  0  0  0  0  0
  184.0870  174.7440  136.4860 C   0  0  0  0  0  0  0  0  0  0  0  0
  183.5390  176.8340  138.2870 C   0  0  0  0  0  0  0  0  0  0  0  0
  186.0600  176.1750  135.8590 C   0  0  0  0  0  3  0  0  0  0  0  0
  182.7360  175.6640  138.2380 C   0  0  0  0  0  0  0  0  0  0  0  0
  184.9030  175.8680  136.5440 C   0  0  0  0  0  0  0  0  0  0  0  0
  181.5840  175.4650  139.1660 C   0  0  0  0  0  1  0  0  0  0  0  0
  187.6630  178.1480  136.0390 C   0  0  0  0  0  2  0  0  0  0  0  0
  188.5180  177.2890  135.1240 C   0  0  0  0  0  2  0  0  0  0  0  0
  189.7830  176.8450  135.8420 C   0  0  0  0  0  2  0  0  0  0  0  0
  189.8250  175.3570  135.9760 C   0  0  0  0  0  3  0  0  0  0  0  0
  189.2860  174.7410  137.0280 C   0  0  0  0  0  2  0  0  0  0  0  0
  1 11  1  6  0  0  0
  1  3  1  0  0  0  0
  2 25  1  6  0  0  0
  2  3  1  0  0  0  0
  3 20  1  1  0  0  0
  4  2  1  0  0  0  0
  4  1  1  0  0  0  0
  5 11  1  0  0  0  0
  6  8  2  0  0  0  0
  7  5  2  0  0  0  0
  7  6  1  0  0  0  0
  8 10  1  0  0  0  0
  8 12  1  0  0  0  0
  9  7  1  0  0  0  0
 11 10  2  0  0  0  0
 12 14  1  0  0  0  0
 14 13  1  6  0  0  0
 14 15  1  0  0  0  0
 15 17  1  0  0  0  0
 15 16  2  0  0  0  0
 17 18  1  0  0  0  0
 19 17  2  0  0  0  0
 20 22  1  0  0  0  0
 21 20  2  0  0  0  0
 22 23  2  0  0  0  0
 23 24  1  0  0  0  0
 26 27  1  1  0  0  0
 26 25  1  0  0  0  0
 28 36  1  0  0  0  0
 29 30  1  0  0  0  0
 30 32  1  0  0  0  0
 31 33  1  0  0  0  0
 32 34  1  0  0  0  0
 33 37  1  0  0  0  0
 33 28  2  0  0  0  0
 34 26  1  0  0  0  0
 35 29  2  0  0  0  0
 35 37  1  0  0  0  0
 36 34  2  0  0  0  0
 36 38  1  0  0  0  0
 37 32  2  0  0  0  0
 39 29  1  0  0  0  0
 40 41  1  0  0  0  0
 40 39  1  0  0  0  0
 41 42  1  0  0  0  0
 42 43  2  0  0  0  0
M  END
>  <MODEL>
2

>  <REMARK>
 VINA RESULT:      -8.2      2.442      7.027
  Name = 
  14 active torsions:
  status: ('A' for Active; 'I' for Inactive)
    1  A    between atoms: N_2  and  C_3
    2  A    between atoms: C_3  and  C_24
    3  A    between atoms: C_4  and  C_16
    4  A    between atoms: C_4  and  C_34
    5  A    between atoms: C_5  and  C_10
    6  A    between atoms: C_5  and  C_18
    7  A    between atoms: C_7  and  C_41
    8  A    between atoms: C_8  and  C_13
    9  A    between atoms: C_8  and  C_39
   10  A    between atoms: C_9  and  C_11
   11  A    between atoms: C_9  and  C_39
   12  A    between atoms: C_18  and  N_43
   13  A    between atoms: C_26  and  C_34
   14  A    between atoms: C_33  and  N_43
                            x       y       z     vdW  Elec       q    Type
                         _______ _______ _______ _____ _____    ______ ____

>  <TORSDO>
F 14

$$$$
=
 OpenBabel10222421363D

 43 46  0  0  1  0  0  0  0  0999 V2000
  189.0690  177.8290  138.1850 C   0  0  2  0  0  3  0  0  0  0  0  0
  189.0130  178.1280  140.1710 C   0  0  1  0  0  3  0  0  0  0  0  0
  189.5720  176.9950  139.3450 C   0  0  2  0  0  3  0  0  0  0  0  0
  188.5560  178.8240  139.0340 O   0  0  0  0  0  0  0  0  0  0  0  0
  188.1870  176.0320  136.6190 C   0  0  0  0  0  3  0  0  0  0  0  0
  185.8280  175.9210  136.0930 C   0  0  0  0  0  3  0  0  0  0  0  0
  187.1260  175.4160  135.9530 C   0  0  0  0  0  0  0  0  0  0  0  0
  185.5880  177.0370  136.8980 C   0  0  0  0  0  0  0  0  0  0  0  0
  187.3750  174.2160  135.1100 C   0  0  0  0  0  1  0  0  0  0  0  0
  186.6580  177.6490  137.5650 C   0  0  0  0  0  3  0  0  0  0  0  0
  187.9590  177.1600  137.4230 C   0  0  0  0  0  0  0  0  0  0  0  0
  184.2480  177.5240  137.0380 N   0  0  0  0  0  2  0  0  0  0  0  0
  183.0210  176.4860  138.8690 C   0  0  0  0  0  1  0  0  0  0  0  0
  183.6100  177.7760  138.3260 C   0  0  2  0  0  3  0  0  0  0  0  0
  182.5560  178.8420  138.2120 C   0  0  0  0  0  0  0  0  0  0  0  0
  181.3680  178.5610  137.6760 C   0  0  0  0  0  2  0  0  0  0  0  0
  182.8630  180.2100  138.6650 C   0  0  0  0  0  0  0  0  0  0  0  0
  184.0440  180.5420  138.9550 O   0  0  0  0  0  1  0  0  0  0  0  0
  181.8440  181.1480  138.7860 O   0  0  0  0  0  0  0  0  0  0  0  0
  191.0710  176.9950  139.3870 C   0  0  0  0  0  0  0  0  0  0  0  0
  191.6690  177.3190  140.4520 O   0  0  0  0  0  0  0  0  0  0  0  0
  191.8140  176.7030  138.1980 N   0  0  0  0  0  0  0  0  0  0  0  0
  192.1880  175.5030  137.8940 C   0  0  0  0  0  3  0  0  0  0  0  0
  192.9590  175.2570  136.6470 C   0  0  0  0  0  1  0  0  0  0  0  0
  187.8370  177.6250  141.0050 C   0  0  0  0  0  2  0  0  0  0  0  0
  188.1870  177.6270  142.4830 C   0  0  2  0  0  3  0  0  0  0  0  0
  188.8980  176.3530  142.9050 C   0  0  0  0  0  1  0  0  0  0  0  0
  184.7540  178.8240  143.6680 N   0  0  0  0  0  0  0  0  0  0  0  0
  187.7500  177.5090  146.7050 C   0  0  0  0  0  0  0  0  0  0  0  0
  188.1470  177.4160  145.4150 N   0  0  0  0  0  0  0  0  0  0  0  0
  183.7760  179.0380  145.8700 N   0  0  0  0  0  1  0  0  0  0  0  0
  187.0770  177.8270  144.7140 C   0  0  0  0  0  0  0  0  0  0  0  0
  184.8570  178.6710  145.0200 C   0  0  2  0  0  3  0  0  0  0  0  0
  186.9840  177.9560  143.3250 C   0  0  0  0  0  0  0  0  0  0  0  0
  186.4460  177.9820  146.8450 C   0  0  0  0  0  3  0  0  0  0  0  0
  185.7750  178.4960  142.8130 C   0  0  0  0  0  0  0  0  0  0  0  0
  186.0470  178.1750  145.5390 C   0  0  0  0  0  0  0  0  0  0  0  0
  185.5850  178.7480  141.3550 C   0  0  0  0  0  1  0  0  0  0  0  0
  188.6620  177.2170  147.8440 C   0  0  0  0  0  2  0  0  0  0  0  0
  190.0800  177.6190  147.4740 C   0  0  0  0  0  2  0  0  0  0  0  0
  190.9620  176.3870  147.3400 C   0  0  0  0  0  2  0  0  0  0  0  0
  191.6850  176.3900  146.0310 C   0  0  0  0  0  3  0  0  0  0  0  0
  191.5690  177.4070  145.1780 C   0  0  0  0  0  2  0  0  0  0  0  0
  1 11  1  1  0  0  0
  1  4  1  0  0  0  0
  1  3  1  0  0  0  0
  2 25  1  1  0  0  0
  3 20  1  6  0  0  0
  3  2  1  0  0  0  0
  4  2  1  0  0  0  0
  5 11  1  0  0  0  0
  6  8  2  0  0  0  0
  7  6  1  0  0  0  0
  7  5  2  0  0  0  0
  8 12  1  0  0  0  0
  8 10  1  0  0  0  0
  9  7  1  0  0  0  0
 11 10  2  0  0  0  0
 12 14  1  0  0  0  0
 14 13  1  6  0  0  0
 15 14  1  0  0  0  0
 15 17  1  0  0  0  0
 16 15  2  0  0  0  0
 17 19  2  0  0  0  0
 17 18  1  0  0  0  0
 20 21  2  0  0  0  0
 22 20  1  0  0  0  0
 23 22  2  0  0  0  0
 24 23  1  0  0  0  0
 25 26  1  0  0  0  0
 26 27  1  1  0  0  0
 26 34  1  0  0  0  0
 28 33  1  0  0  0  0
 29 35  1  0  0  0  0
 29 39  1  0  0  0  0
 30 29  2  0  0  0  0
 32 30  1  0  0  0  0
 32 37  1  0  0  0  0
 33 37  1  0  0  0  0
 33 31  1  1  0  0  0
 34 32  2  0  0  0  0
 36 34  1  0  0  0  0
 36 28  2  0  0  0  0
 37 35  2  0  0  0  0
 38 36  1  0  0  0  0
 40 39  1  0  0  0  0
 41 40  1  0  0  0  0
 42 41  1  0  0  0  0
 43 42  2  0  0  0  0
M  END
>  <MODEL>
3

>  <REMARK>
 VINA RESULT:      -8.2      2.051      7.789
  Name = 
  14 active torsions:
  status: ('A' for Active; 'I' for Inactive)
    1  A    between atoms: N_2  and  C_3
    2  A    between atoms: C_3  and  C_24
    3  A    between atoms: C_4  and  C_16
    4  A    between atoms: C_4  and  C_34
    5  A    between atoms: C_5  and  C_10
    6  A    between atoms: C_5  and  C_18
    7  A    between atoms: C_7  and  C_41
    8  A    between atoms: C_8  and  C_13
    9  A    between atoms: C_8  and  C_39
   10  A    between atoms: C_9  and  C_11
   11  A    between atoms: C_9  and  C_39
   12  A    between atoms: C_18  and  N_43
   13  A    between atoms: C_26  and  C_34
   14  A    between atoms: C_33  and  N_43
                            x       y       z     vdW  Elec       q    Type
                         _______ _______ _______ _____ _____    ______ ____

>  <TORSDO>
F 14

$$$$
=
 OpenBabel10222421363D

 43 46  0  0  1  0  0  0  0  0999 V2000
  189.7350  177.8590  138.9070 C   0  0  2  0  0  3  0  0  0  0  0  0
  190.0140  177.9060  140.8970 C   0  0  1  0  0  3  0  0  0  0  0  0
  190.5440  176.9740  139.8330 C   0  0  2  0  0  3  0  0  0  0  0  0
  189.2710  178.6590  139.9650 O   0  0  0  0  0  0  0  0  0  0  0  0
  188.6950  175.7840  137.8700 C   0  0  0  0  0  3  0  0  0  0  0  0
  186.3980  175.8190  137.1110 C   0  0  0  0  0  3  0  0  0  0  0  0
  187.6030  175.1310  137.2980 C   0  0  0  0  0  0  0  0  0  0  0  0
  186.2820  177.1560  137.4980 C   0  0  0  0  0  0  0  0  0  0  0  0
  187.7160  173.7010  136.9020 C   0  0  0  0  0  1  0  0  0  0  0  0
  187.3830  177.8050  138.0750 C   0  0  0  0  0  3  0  0  0  0  0  0
  188.5940  177.1310  138.2540 C   0  0  0  0  0  0  0  0  0  0  0  0
  185.0330  177.8330  137.3120 N   0  0  0  0  0  2  0  0  0  0  0  0
  182.6130  177.7760  137.0480 C   0  0  0  0  0  1  0  0  0  0  0  0
  183.7850  177.4150  137.9420 C   0  0  2  0  0  3  0  0  0  0  0  0
  183.6300  178.0300  139.3050 C   0  0  0  0  0  0  0  0  0  0  0  0
  182.9790  177.3780  140.2680 C   0  0  0  0  0  2  0  0  0  0  0  0
  184.1720  179.3770  139.5530 C   0  0  0  0  0  0  0  0  0  0  0  0
  185.1770  179.5400  140.2960 O   0  0  0  0  0  1  0  0  0  0  0  0
  183.5670  180.4880  138.9760 O   0  0  0  0  0  0  0  0  0  0  0  0
  192.0130  177.1890  139.6220 C   0  0  0  0  0  0  0  0  0  0  0  0
  192.7210  177.6500  140.5620 O   0  0  0  0  0  0  0  0  0  0  0  0
  192.5880  176.9430  138.3330 N   0  0  0  0  0  0  0  0  0  0  0  0
  193.1880  175.8340  138.0450 C   0  0  0  0  0  3  0  0  0  0  0  0
  193.7680  175.6330  136.6910 C   0  0  0  0  0  1  0  0  0  0  0  0
  189.0840  177.1390  141.8340 C   0  0  0  0  0  2  0  0  0  0  0  0
  189.8670  176.5290  142.9850 C   0  0  2  0  0  3  0  0  0  0  0  0
  189.9160  175.0130  142.9020 C   0  0  0  0  0  1  0  0  0  0  0  0
  189.5790  177.4500  146.6840 N   0  0  0  0  0  0  0  0  0  0  0  0
  186.0280  178.0080  144.0380 C   0  0  0  0  0  0  0  0  0  0  0  0
  187.1430  177.5410  143.4280 N   0  0  0  0  0  0  0  0  0  0  0  0
  187.7560  178.3390  148.0040 N   0  0  0  0  0  1  0  0  0  0  0  0
  188.0580  177.4980  144.4110 C   0  0  0  0  0  0  0  0  0  0  0  0
  188.2960  177.9070  146.7590 C   0  0  2  0  0  3  0  0  0  0  0  0
  189.3770  177.0460  144.3090 C   0  0  0  0  0  0  0  0  0  0  0  0
  186.2090  178.2550  145.3970 C   0  0  0  0  0  3  0  0  0  0  0  0
  190.1340  177.0120  145.5090 C   0  0  0  0  0  0  0  0  0  0  0  0
  187.5300  177.9150  145.5990 C   0  0  0  0  0  0  0  0  0  0  0  0
  191.5290  176.4820  145.5410 C   0  0  0  0  0  1  0  0  0  0  0  0
  184.7280  178.1450  143.3260 C   0  0  0  0  0  2  0  0  0  0  0  0
  183.9780  179.3500  143.8680 C   0  0  0  0  0  2  0  0  0  0  0  0
  182.6660  178.9170  144.5010 C   0  0  0  0  0  2  0  0  0  0  0  0
  181.5840  178.8220  143.4740 C   0  0  0  0  0  3  0  0  0  0  0  0
  180.3250  178.5510  143.8170 C   0  0  0  0  0  2  0  0  0  0  0  0
  1 11  1  1  0  0  0
  1  3  1  0  0  0  0
  1  4  1  0  0  0  0
  2 25  1  1  0  0  0
  3 20  1  6  0  0  0
  3  2  1  0  0  0  0
  4  2  1  0  0  0  0
  5 11  1  0  0  0  0
  6  7  1  0  0  0  0
  6  8  2  0  0  0  0
  7  5  2  0  0  0  0
  8 10  1  0  0  0  0
  9  7  1  0  0  0  0
 10 11  2  0  0  0  0
 12  8  1  0  0  0  0
 12 14  1  0  0  0  0
 14 13  1  6  0  0  0
 14 15  1  0  0  0  0
 15 17  1  0  0  0  0
 15 16  2  0  0  0  0
 17 18  1  0  0  0  0
 19 17  2  0  0  0  0
 20 21  2  0  0  0  0
 22 20  1  0  0  0  0
 23 22  2  0  0  0  0
 24 23  1  0  0  0  0
 25 26  1  0  0  0  0
 26 27  1  1  0  0  0
 26 34  1  0  0  0  0
 28 33  1  0  0  0  0
 29 35  1  0  0  0  0
 30 29  2  0  0  0  0
 30 32  1  0  0  0  0
 32 37  1  0  0  0  0
 33 31  1  1  0  0  0
 34 32  2  0  0  0  0
 34 36  1  0  0  0  0
 35 37  2  0  0  0  0
 36 38  1  0  0  0  0
 36 28  2  0  0  0  0
 37 33  1  0  0  0  0
 39 40  1  0  0  0  0
 39 29  1  0  0  0  0
 40 41  1  0  0  0  0
 42 43  2  0  0  0  0
 42 41  1  0  0  0  0
M  END
>  <MODEL>
4

>  <REMARK>
 VINA RESULT:      -8.1      2.076      6.850
  Name = 
  14 active torsions:
  status: ('A' for Active; 'I' for Inactive)
    1  A    between atoms: N_2  and  C_3
    2  A    between atoms: C_3  and  C_24
    3  A    between atoms: C_4  and  C_16
    4  A    between atoms: C_4  and  C_34
    5  A    between atoms: C_5  and  C_10
    6  A    between atoms: C_5  and  C_18
    7  A    between atoms: C_7  and  C_41
    8  A    between atoms: C_8  and  C_13
    9  A    between atoms: C_8  and  C_39
   10  A    between atoms: C_9  and  C_11
   11  A    between atoms: C_9  and  C_39
   12  A    between atoms: C_18  and  N_43
   13  A    between atoms: C_26  and  C_34
   14  A    between atoms: C_33  and  N_43
                            x       y       z     vdW  Elec       q    Type
                         _______ _______ _______ _____ _____    ______ ____

>  <TORSDO>
F 14

$$$$
=
 OpenBabel10222421363D

 43 46  0  0  1  0  0  0  0  0999 V2000
  188.5050  177.1840  143.7650 C   0  0  2  0  0  3  0  0  0  0  0  0
  189.7920  176.6240  142.3280 C   0  0  1  0  0  3  0  0  0  0  0  0
  189.6470  177.9180  143.0930 C   0  0  2  0  0  3  0  0  0  0  0  0
  188.6980  176.0290  142.9890 O   0  0  0  0  0  0  0  0  0  0  0  0
  186.2140  178.0170  144.4850 C   0  0  0  0  0  3  0  0  0  0  0  0
  184.7170  179.0200  142.8690 C   0  0  0  0  0  3  0  0  0  0  0  0
  184.9930  178.6220  144.1830 C   0  0  0  0  0  0  0  0  0  0  0  0
  185.6590  178.8170  141.8580 C   0  0  0  0  0  0  0  0  0  0  0  0
  183.9940  178.8580  145.2610 C   0  0  0  0  0  1  0  0  0  0  0  0
  186.8840  178.2100  142.1690 C   0  0  0  0  0  3  0  0  0  0  0  0
  187.1650  177.7990  143.4750 C   0  0  0  0  0  0  0  0  0  0  0  0
  185.3600  179.2480  140.5250 N   0  0  0  0  0  2  0  0  0  0  0  0
  185.2910  178.3790  138.2510 C   0  0  0  0  0  1  0  0  0  0  0  0
  184.5660  178.4670  139.5820 C   0  0  2  0  0  3  0  0  0  0  0  0
  183.1930  179.0550  139.4080 C   0  0  0  0  0  0  0  0  0  0  0  0
  183.0350  180.2290  138.7980 C   0  0  0  0  0  2  0  0  0  0  0  0
  182.0280  178.3370  139.9540 C   0  0  0  0  0  0  0  0  0  0  0  0
  181.7040  178.4620  141.1650 O   0  0  0  0  0  1  0  0  0  0  0  0
  181.2790  177.5010  139.1330 O   0  0  0  0  0  0  0  0  0  0  0  0
  190.7910  178.1040  144.0450 C   0  0  0  0  0  0  0  0  0  0  0  0
  191.3300  179.2400  144.1620 O   0  0  0  0  0  0  0  0  0  0  0  0
  191.3120  176.9750  144.7560 N   0  0  0  0  0  0  0  0  0  0  0  0
  191.5560  177.0110  146.0260 C   0  0  0  0  0  3  0  0  0  0  0  0
  192.0990  175.8090  146.7130 C   0  0  0  0  0  1  0  0  0  0  0  0
  189.4690  176.8600  140.8540 C   0  0  0  0  0  2  0  0  0  0  0  0
  190.6950  176.6180  139.9910 C   0  0  2  0  0  3  0  0  0  0  0  0
  191.9020  177.4030  140.4770 C   0  0  0  0  0  1  0  0  0  0  0  0
  189.2550  177.9260  136.6990 N   0  0  0  0  0  0  0  0  0  0  0  0
  191.7860  174.2490  136.6390 C   0  0  0  0  0  0  0  0  0  0  0  0
  191.6210  174.8250  137.8530 N   0  0  0  0  0  2  0  0  0  0  0  0
  189.4310  177.1390  134.4180 N   0  0  0  0  0  1  0  0  0  0  0  0
  190.8690  175.9090  137.6000 C   0  0  0  0  0  0  0  0  0  0  0  0
  189.7560  177.0310  135.8000 C   0  0  0  0  0  0  0  0  0  0  0  0
  190.3830  176.8290  138.5350 C   0  0  0  0  0  0  0  0  0  0  0  0
  191.1440  174.9400  135.6130 C   0  0  0  0  0  3  0  0  0  0  0  0
  189.5310  177.8510  138.0400 C   0  0  0  0  0  0  0  0  0  0  0  0
  190.5650  176.0040  136.2730 C   0  0  0  0  0  0  0  0  0  0  0  0
  188.8940  178.8480  138.9500 C   0  0  0  0  0  1  0  0  0  0  0  0
  192.5060  172.9600  136.4590 C   0  0  0  0  0  2  0  0  0  0  0  0
  193.9950  173.2260  136.3120 C   0  0  0  0  0  2  0  0  0  0  0  0
  194.7950  172.2460  137.1550 C   0  0  0  0  0  2  0  0  0  0  0  0
  195.4520  172.9430  138.3030 C   0  0  0  0  0  3  0  0  0  0  0  0
  195.2010  174.2240  138.5700 C   0  0  0  0  0  2  0  0  0  0  0  0
  1 11  1  6  0  0  0
  2 25  1  6  0  0  0
  2  4  1  0  0  0  0
  2  3  1  0  0  0  0
  3  1  1  0  0  0  0
  3 20  1  1  0  0  0
  4  1  1  0  0  0  0
  6  7  2  0  0  0  0
  7  5  1  0  0  0  0
  7  9  1  0  0  0  0
  8 10  2  0  0  0  0
  8  6  1  0  0  0  0
 10 11  1  0  0  0  0
 11  5  2  0  0  0  0
 12  8  1  0  0  0  0
 14 13  1  6  0  0  0
 14 12  1  0  0  0  0
 15 14  1  0  0  0  0
 15 17  1  0  0  0  0
 16 15  2  0  0  0  0
 17 18  1  0  0  0  0
 19 17  2  0  0  0  0
 20 21  2  0  0  0  0
 20 22  1  0  0  0  0
 22 23  2  0  0  0  0
 23 24  1  0  0  0  0
 26 27  1  1  0  0  0
 26 25  1  0  0  0  0
 28 36  1  0  0  0  0
 29 30  1  0  0  0  0
 31 33  1  0  0  0  0
 32 30  1  0  0  0  0
 32 34  1  0  0  0  0
 33 37  1  0  0  0  0
 33 28  2  0  0  0  0
 34 26  1  0  0  0  0
 35 37  1  0  0  0  0
 35 29  2  0  0  0  0
 36 34  2  0  0  0  0
 36 38  1  0  0  0  0
 37 32  2  0  0  0  0
 39 29  1  0  0  0  0
 40 39  1  0  0  0  0
 40 41  1  0  0  0  0
 41 42  1  0  0  0  0
 42 43  2  0  0  0  0
M  END
>  <MODEL>
5

>  <REMARK>
 VINA RESULT:      -8.0      2.009      4.010
  Name = 
  14 active torsions:
  status: ('A' for Active; 'I' for Inactive)
    1  A    between atoms: N_2  and  C_3
    2  A    between atoms: C_3  and  C_24
    3  A    between atoms: C_4  and  C_16
    4  A    between atoms: C_4  and  C_34
    5  A    between atoms: C_5  and  C_10
    6  A    between atoms: C_5  and  C_18
    7  A    between atoms: C_7  and  C_41
    8  A    between atoms: C_8  and  C_13
    9  A    between atoms: C_8  and  C_39
   10  A    between atoms: C_9  and  C_11
   11  A    between atoms: C_9  and  C_39
   12  A    between atoms: C_18  and  N_43
   13  A    between atoms: C_26  and  C_34
   14  A    between atoms: C_33  and  N_43
                            x       y       z     vdW  Elec       q    Type
                         _______ _______ _______ _____ _____    ______ ____

>  <TORSDO>
F 14

$$$$
=
 OpenBabel10222421363D

 43 46  0  0  1  0  0  0  0  0999 V2000
  184.4270  179.1180  141.6640 C   0  0  2  0  0  3  0  0  0  0  0  0
  184.9060  178.8220  139.7350 C   0  0  1  0  0  3  0  0  0  0  0  0
  184.0600  178.0160  140.6920 C   0  0  2  0  0  3  0  0  0  0  0  0
  185.2150  179.7880  140.7130 O   0  0  0  0  0  0  0  0  0  0  0  0
  184.8690  178.7690  144.1430 C   0  0  0  0  0  3  0  0  0  0  0  0
  186.8740  177.6300  144.8770 C   0  0  0  0  0  3  0  0  0  0  0  0
  185.6660  178.2730  145.1750 C   0  0  0  0  0  0  0  0  0  0  0  0
  187.2830  177.4790  143.5500 C   0  0  0  0  0  0  0  0  0  0  0  0
  185.2240  178.4150  146.5890 C   0  0  0  0  0  1  0  0  0  0  0  0
  186.4760  177.9780  142.5180 C   0  0  0  0  0  3  0  0  0  0  0  0
  185.2750  178.6310  142.8050 C   0  0  0  0  0  0  0  0  0  0  0  0
  188.5150  176.8030  143.2700 N   0  0  0  0  0  2  0  0  0  0  0  0
  190.5790  176.5630  142.0010 C   0  0  0  0  0  1  0  0  0  0  0  0
  189.7390  177.4860  142.8660 C   0  0  2  0  0  3  0  0  0  0  0  0
  190.5190  177.9600  144.0600 C   0  0  0  0  0  0  0  0  0  0  0  0
  191.0210  179.1950  144.0900 C   0  0  0  0  0  2  0  0  0  0  0  0
  190.7540  177.0340  145.1810 C   0  0  0  0  0  0  0  0  0  0  0  0
  189.9860  177.0250  146.1800 O   0  0  0  0  0  1  0  0  0  0  0  0
  191.8390  176.1640  145.1490 O   0  0  0  0  0  0  0  0  0  0  0  0
  182.6100  178.0980  140.3190 C   0  0  0  0  0  0  0  0  0  0  0  0
  181.8330  178.8420  140.9830 O   0  0  0  0  0  0  0  0  0  0  0  0
  182.1010  177.2760  139.2620 N   0  0  0  0  0  0  0  0  0  0  0  0
  182.2940  175.9980  139.2280 C   0  0  0  0  0  3  0  0  0  0  0  0
  181.7440  175.1930  138.1060 C   0  0  0  0  0  1  0  0  0  0  0  0
  186.1510  178.0240  139.3520 C   0  0  0  0  0  2  0  0  0  0  0  0
  186.3510  178.0310  137.8470 C   0  0  2  0  0  3  0  0  0  0  0  0
  185.1310  177.5120  137.1050 C   0  0  0  0  0  1  0  0  0  0  0  0
  189.9560  177.2960  136.8080 N   0  0  0  0  0  0  0  0  0  0  0  0
  187.0300  173.9300  136.9820 C   0  0  0  0  0  0  0  0  0  0  0  0
  186.5470  175.1430  137.3400 N   0  0  0  0  0  2  0  0  0  0  0  0
  191.0840  175.2500  136.1800 N   0  0  0  0  0  1  0  0  0  0  0  0
  187.6090  175.9590  137.2400 C   0  0  0  0  0  0  0  0  0  0  0  0
  189.9210  175.9460  136.6140 C   0  0  0  0  0  0  0  0  0  0  0  0
  187.6300  177.3390  137.4660 C   0  0  0  0  0  0  0  0  0  0  0  0
  188.3820  173.9560  136.6460 C   0  0  0  0  0  3  0  0  0  0  0  0
  188.8560  178.0080  137.2120 C   0  0  0  0  0  0  0  0  0  0  0  0
  188.7180  175.2810  136.8250 C   0  0  0  0  0  0  0  0  0  0  0  0
  188.9830  179.4890  137.3470 C   0  0  0  0  0  1  0  0  0  0  0  0
  186.1630  172.7250  136.8790 C   0  0  0  0  0  2  0  0  0  0  0  0
  184.8130  173.0140  137.5140 C   0  0  0  0  0  2  0  0  0  0  0  0
  183.6900  172.4870  136.6350 C   0  0  0  0  0  2  0  0  0  0  0  0
  183.7640  170.9990  136.5100 C   0  0  0  0  0  3  0  0  0  0  0  0
  182.8270  170.3120  135.8600 C   0  0  0  0  0  2  0  0  0  0  0  0
  1 11  1  1  0  0  0
  2 25  1  1  0  0  0
  2  3  1  0  0  0  0
  2  4  1  0  0  0  0
  3 20  1  6  0  0  0
  3  1  1  0  0  0  0
  4  1  1  0  0  0  0
  5  7  1  0  0  0  0
  6  7  2  0  0  0  0
  7  9  1  0  0  0  0
  8  6  1  0  0  0  0
 10 11  1  0  0  0  0
 10  8  2  0  0  0  0
 11  5  2  0  0  0  0
 12  8  1  0  0  0  0
 14 13  1  1  0  0  0
 14 12  1  0  0  0  0
 14 15  1  0  0  0  0
 15 16  2  0  0  0  0
 15 17  1  0  0  0  0
 17 18  1  0  0  0  0
 19 17  2  0  0  0  0
 20 21  2  0  0  0  0
 22 20  1  0  0  0  0
 23 22  2  0  0  0  0
 24 23  1  0  0  0  0
 26 27  1  6  0  0  0
 26 25  1  0  0  0  0
 28 36  1  0  0  0  0
 29 30  1  0  0  0  0
 31 33  1  0  0  0  0
 32 30  1  0  0  0  0
 32 34  1  0  0  0  0
 33 28  2  0  0  0  0
 33 37  1  0  0  0  0
 34 26  1  0  0  0  0
 35 37  1  0  0  0  0
 35 29  2  0  0  0  0
 36 38  1  0  0  0  0
 36 34  2  0  0  0  0
 37 32  2  0  0  0  0
 39 29  1  0  0  0  0
 39 40  1  0  0  0  0
 41 40  1  0  0  0  0
 42 41  1  0  0  0  0
 43 42  2  0  0  0  0
M  END
>  <MODEL>
6

>  <REMARK>
 VINA RESULT:      -7.8      1.776      5.921
  Name = 
  14 active torsions:
  status: ('A' for Active; 'I' for Inactive)
    1  A    between atoms: N_2  and  C_3
    2  A    between atoms: C_3  and  C_24
    3  A    between atoms: C_4  and  C_16
    4  A    between atoms: C_4  and  C_34
    5  A    between atoms: C_5  and  C_10
    6  A    between atoms: C_5  and  C_18
    7  A    between atoms: C_7  and  C_41
    8  A    between atoms: C_8  and  C_13
    9  A    between atoms: C_8  and  C_39
   10  A    between atoms: C_9  and  C_11
   11  A    between atoms: C_9  and  C_39
   12  A    between atoms: C_18  and  N_43
   13  A    between atoms: C_26  and  C_34
   14  A    between atoms: C_33  and  N_43
                            x       y       z     vdW  Elec       q    Type
                         _______ _______ _______ _____ _____    ______ ____

>  <TORSDO>
F 14

$$$$
=
 OpenBabel10222421363D

 43 46  0  0  1  0  0  0  0  0999 V2000
  191.2690  176.3480  140.9760 C   0  0  2  0  0  3  0  0  0  0  0  0
  190.5670  176.8200  139.1530 C   0  0  1  0  0  3  0  0  0  0  0  0
  191.7360  177.3560  139.9460 C   0  0  2  0  0  3  0  0  0  0  0  0
  190.1910  175.9300  140.1780 O   0  0  0  0  0  0  0  0  0  0  0  0
  191.3890  178.1330  142.7820 C   0  0  0  0  0  3  0  0  0  0  0  0
  189.7460  178.1860  144.5580 C   0  0  0  0  0  3  0  0  0  0  0  0
  190.8800  178.7250  143.9390 C   0  0  0  0  0  0  0  0  0  0  0  0
  189.1190  177.0580  144.0220 C   0  0  0  0  0  0  0  0  0  0  0  0
  191.5340  179.9370  144.5020 C   0  0  0  0  0  1  0  0  0  0  0  0
  189.6360  176.4700  142.8580 C   0  0  0  0  0  3  0  0  0  0  0  0
  190.7730  176.9930  142.2390 C   0  0  0  0  0  0  0  0  0  0  0  0
  187.9500  176.5350  144.6640 N   0  0  0  0  0  2  0  0  0  0  0  0
  186.6540  178.4140  143.8150 C   0  0  0  0  0  1  0  0  0  0  0  0
  186.7160  177.2930  144.8370 C   0  0  2  0  0  3  0  0  0  0  0  0
  186.5990  177.8340  146.2350 C   0  0  0  0  0  0  0  0  0  0  0  0
  187.4530  177.4440  147.1810 C   0  0  0  0  0  2  0  0  0  0  0  0
  185.5080  178.7700  146.5560 C   0  0  0  0  0  0  0  0  0  0  0  0
  185.6690  179.6750  147.4190 O   0  0  0  0  0  1  0  0  0  0  0  0
  184.2800  178.6540  145.9140 O   0  0  0  0  0  0  0  0  0  0  0  0
  193.0360  176.9250  139.3340 C   0  0  0  0  0  0  0  0  0  0  0  0
  194.1110  177.0600  139.9850 O   0  0  0  0  0  0  0  0  0  0  0  0
  193.0590  176.4350  137.9880 N   0  0  0  0  0  0  0  0  0  0  0  0
  193.4470  175.2360  137.6960 C   0  0  0  0  0  3  0  0  0  0  0  0
  193.4510  174.7800  136.2810 C   0  0  0  0  0  1  0  0  0  0  0  0
  189.5190  177.9170  138.9790 C   0  0  0  0  0  2  0  0  0  0  0  0
  189.1590  178.0870  137.5130 C   0  0  2  0  0  3  0  0  0  0  0  0
  188.9810  179.5470  137.1330 C   0  0  0  0  0  1  0  0  0  0  0  0
  186.9220  175.4540  135.8750 N   0  0  0  0  0  0  0  0  0  0  0  0
  185.0800  178.4350  138.6400 C   0  0  0  0  0  0  0  0  0  0  0  0
  186.4200  178.5370  138.4800 N   0  0  0  0  0  0  0  0  0  0  0  0
  184.5470  175.0150  136.0230 N   0  0  0  0  0  1  0  0  0  0  0  0
  186.7270  177.5270  137.6490 C   0  0  0  0  0  0  0  0  0  0  0  0
  185.7020  175.7580  136.4020 C   0  0  2  0  0  3  0  0  0  0  0  0
  187.9910  177.2180  137.1370 C   0  0  0  0  0  0  0  0  0  0  0  0
  184.5200  177.3820  137.9180 C   0  0  0  0  0  3  0  0  0  0  0  0
  188.0570  176.1510  136.2020 C   0  0  0  0  0  0  0  0  0  0  0  0
  185.6140  176.8210  137.2940 C   0  0  0  0  0  0  0  0  0  0  0  0
  189.3360  175.7750  135.5320 C   0  0  0  0  0  1  0  0  0  0  0  0
  184.2950  179.4160  139.4380 C   0  0  0  0  0  2  0  0  0  0  0  0
  183.2040  178.6880  140.2050 C   0  0  0  0  0  2  0  0  0  0  0  0
  183.7690  178.0760  141.4780 C   0  0  0  0  0  2  0  0  0  0  0  0
  183.1800  178.7270  142.6890 C   0  0  0  0  0  3  0  0  0  0  0  0
  181.8630  178.8810  142.8200 C   0  0  0  0  0  2  0  0  0  0  0  0
  1 11  1  1  0  0  0
  2 25  1  1  0  0  0
  2  3  1  0  0  0  0
  2  4  1  0  0  0  0
  3 20  1  6  0  0  0
  3  1  1  0  0  0  0
  4  1  1  0  0  0  0
  5  7  1  0  0  0  0
  7  9  1  0  0  0  0
  7  6  2  0  0  0  0
  8  6  1  0  0  0  0
  8 12  1  0  0  0  0
 10  8  2  0  0  0  0
 11  5  2  0  0  0  0
 11 10  1  0  0  0  0
 12 14  1  0  0  0  0
 14 13  1  6  0  0  0
 14 15  1  0  0  0  0
 15 17  1  0  0  0  0
 15 16  2  0  0  0  0
 17 18  1  0  0  0  0
 19 17  2  0  0  0  0
 20 21  2  0  0  0  0
 22 20  1  0  0  0  0
 23 22  2  0  0  0  0
 24 23  1  0  0  0  0
 26 27  1  1  0  0  0
 26 25  1  0  0  0  0
 28 36  2  0  0  0  0
 28 33  1  0  0  0  0
 29 39  1  0  0  0  0
 30 29  2  0  0  0  0
 32 30  1  0  0  0  0
 33 31  1  6  0  0  0
 33 37  1  0  0  0  0
 34 26  1  0  0  0  0
 34 32  2  0  0  0  0
 35 29  1  0  0  0  0
 36 34  1  0  0  0  0
 37 32  1  0  0  0  0
 37 35  2  0  0  0  0
 38 36  1  0  0  0  0
 39 40  1  0  0  0  0
 40 41  1  0  0  0  0
 41 42  1  0  0  0  0
 42 43  2  0  0  0  0
M  END
>  <MODEL>
7

>  <REMARK>
 VINA RESULT:      -7.7      2.373      5.519
  Name = 
  14 active torsions:
  status: ('A' for Active; 'I' for Inactive)
    1  A    between atoms: N_2  and  C_3
    2  A    between atoms: C_3  and  C_24
    3  A    between atoms: C_4  and  C_16
    4  A    between atoms: C_4  and  C_34
    5  A    between atoms: C_5  and  C_10
    6  A    between atoms: C_5  and  C_18
    7  A    between atoms: C_7  and  C_41
    8  A    between atoms: C_8  and  C_13
    9  A    between atoms: C_8  and  C_39
   10  A    between atoms: C_9  and  C_11
   11  A    between atoms: C_9  and  C_39
   12  A    between atoms: C_18  and  N_43
   13  A    between atoms: C_26  and  C_34
   14  A    between atoms: C_33  and  N_43
                            x       y       z     vdW  Elec       q    Type
                         _______ _______ _______ _____ _____    ______ ____

>  <TORSDO>
F 14

$$$$
=
 OpenBabel10222421363D

 43 46  0  0  1  0  0  0  0  0999 V2000
  186.1340  179.0460  142.2000 C   0  0  2  0  0  3  0  0  0  0  0  0
  184.2730  178.7260  141.5120 C   0  0  1  0  0  3  0  0  0  0  0  0
  185.0340  178.1140  142.6650 C   0  0  2  0  0  3  0  0  0  0  0  0
  185.3600  179.5400  141.1370 O   0  0  0  0  0  0  0  0  0  0  0  0
  187.7860  178.4630  140.3590 C   0  0  0  0  0  3  0  0  0  0  0  0
  189.6390  176.9730  140.8090 C   0  0  0  0  0  3  0  0  0  0  0  0
  188.9300  177.7930  139.9230 C   0  0  0  0  0  0  0  0  0  0  0  0
  189.2090  176.8240  142.1290 C   0  0  0  0  0  0  0  0  0  0  0  0
  189.4020  177.9640  138.5220 C   0  0  0  0  0  1  0  0  0  0  0  0
  188.0600  177.5020  142.5610 C   0  0  0  0  0  3  0  0  0  0  0  0
  187.3390  178.3130  141.6820 C   0  0  0  0  0  0  0  0  0  0  0  0
  189.9610  175.9930  143.0210 N   0  0  0  0  0  2  0  0  0  0  0  0
  191.9490  175.0850  144.0960 C   0  0  0  0  0  1  0  0  0  0  0  0
  191.3030  176.3190  143.4920 C   0  0  2  0  0  3  0  0  0  0  0  0
  191.2730  177.4490  144.4830 C   0  0  0  0  0  0  0  0  0  0  0  0
  191.5640  178.6910  144.0970 C   0  0  0  0  0  2  0  0  0  0  0  0
  190.9570  177.1620  145.8930 C   0  0  0  0  0  0  0  0  0  0  0  0
  189.7630  177.1570  146.2960 O   0  0  0  0  0  0  0  0  0  0  0  0
  191.9810  176.9050  146.7980 O   0  0  0  0  0  1  0  0  0  0  0  0
  184.4700  178.5730  143.9770 C   0  0  0  0  0  0  0  0  0  0  0  0
  183.2300  178.7890  144.0850 O   0  0  0  0  0  0  0  0  0  0  0  0
  185.3520  178.8360  145.0750 N   0  0  0  0  0  0  0  0  0  0  0  0
  185.0670  178.4910  146.2880 C   0  0  0  0  0  3  0  0  0  0  0  0
  186.0190  178.7910  147.3890 C   0  0  0  0  0  1  0  0  0  0  0  0
  184.0050  177.6600  140.4520 C   0  0  0  0  0  2  0  0  0  0  0  0
  183.1770  178.2330  139.3140 C   0  0  2  0  0  3  0  0  0  0  0  0
  182.0790  179.1560  139.8130 C   0  0  0  0  0  1  0  0  0  0  0  0
  181.2640  175.2700  137.8380 N   0  0  0  0  0  0  0  0  0  0  0  0
  184.7950  176.8760  135.6290 C   0  0  0  0  0  0  0  0  0  0  0  0
  184.4790  177.5220  136.7760 N   0  0  0  0  0  2  0  0  0  0  0  0
  181.5690  173.9800  135.8140 N   0  0  0  0  0  1  0  0  0  0  0  0
  183.3840  176.8840  137.2200 C   0  0  0  0  0  0  0  0  0  0  0  0
  181.9470  175.0460  136.6790 C   0  0  0  0  0  0  0  0  0  0  0  0
  182.6830  177.1440  138.4010 C   0  0  0  0  0  0  0  0  0  0  0  0
  183.9250  175.8270  135.3340 C   0  0  0  0  0  3  0  0  0  0  0  0
  181.6010  176.2760  138.7060 C   0  0  0  0  0  0  0  0  0  0  0  0
  183.0300  175.8660  136.3830 C   0  0  0  0  0  0  0  0  0  0  0  0
  180.8240  176.4080  139.9730 C   0  0  0  0  0  1  0  0  0  0  0  0
  186.0040  177.2120  134.8310 C   0  0  0  0  0  2  0  0  0  0  0  0
  187.2500  176.9410  135.6580 C   0  0  0  0  0  2  0  0  0  0  0  0
  187.5950  175.4610  135.6270 C   0  0  0  0  0  2  0  0  0  0  0  0
  188.1970  175.0270  136.9260 C   0  0  0  0  0  3  0  0  0  0  0  0
  189.3990  174.4550  136.9750 C   0  0  0  0  0  2  0  0  0  0  0  0
  1 11  1  6  0  0  0
  1  3  1  0  0  0  0
  2 25  1  6  0  0  0
  2  3  1  0  0  0  0
  3 20  1  1  0  0  0
  4  2  1  0  0  0  0
  4  1  1  0  0  0  0
  5 11  1  0  0  0  0
  6  8  2  0  0  0  0
  7  5  2  0  0  0  0
  7  6  1  0  0  0  0
  8 10  1  0  0  0  0
  8 12  1  0  0  0  0
  9  7  1  0  0  0  0
 11 10  2  0  0  0  0
 12 14  1  0  0  0  0
 14 13  1  1  0  0  0
 14 15  1  0  0  0  0
 15 17  1  0  0  0  0
 16 15  2  0  0  0  0
 17 18  2  0  0  0  0
 17 19  1  0  0  0  0
 20 21  2  0  0  0  0
 20 22  1  0  0  0  0
 22 23  2  0  0  0  0
 23 24  1  0  0  0  0
 26 27  1  1  0  0  0
 26 25  1  0  0  0  0
 28 36  1  0  0  0  0
 29 30  1  0  0  0  0
 30 32  1  0  0  0  0
 31 33  1  0  0  0  0
 32 34  1  0  0  0  0
 33 28  2  0  0  0  0
 34 36  2  0  0  0  0
 34 26  1  0  0  0  0
 35 29  2  0  0  0  0
 35 37  1  0  0  0  0
 36 38  1  0  0  0  0
 37 33  1  0  0  0  0
 37 32  2  0  0  0  0
 39 29  1  0  0  0  0
 39 40  1  0  0  0  0
 41 40  1  0  0  0  0
 41 42  1  0  0  0  0
 42 43  2  0  0  0  0
M  END
>  <MODEL>
8

>  <REMARK>
 VINA RESULT:      -7.7      2.492      7.145
  Name = 
  14 active torsions:
  status: ('A' for Active; 'I' for Inactive)
    1  A    between atoms: N_2  and  C_3
    2  A    between atoms: C_3  and  C_24
    3  A    between atoms: C_4  and  C_16
    4  A    between atoms: C_4  and  C_34
    5  A    between atoms: C_5  and  C_10
    6  A    between atoms: C_5  and  C_18
    7  A    between atoms: C_7  and  C_41
    8  A    between atoms: C_8  and  C_13
    9  A    between atoms: C_8  and  C_39
   10  A    between atoms: C_9  and  C_11
   11  A    between atoms: C_9  and  C_39
   12  A    between atoms: C_18  and  N_43
   13  A    between atoms: C_26  and  C_34
   14  A    between atoms: C_33  and  N_43
                            x       y       z     vdW  Elec       q    Type
                         _______ _______ _______ _____ _____    ______ ____

>  <TORSDO>
F 14

$$$$
=
 OpenBabel10222421363D

 43 46  0  0  1  0  0  0  0  0999 V2000
  185.4810  179.2600  141.8660 C   0  0  2  0  0  3  0  0  0  0  0  0
  183.6910  178.6400  141.1970 C   0  0  1  0  0  3  0  0  0  0  0  0
  184.4910  178.2550  142.4190 C   0  0  2  0  0  3  0  0  0  0  0  0
  184.6800  179.5370  140.7460 O   0  0  0  0  0  0  0  0  0  0  0  0
  187.0960  178.4150  140.0950 C   0  0  0  0  0  3  0  0  0  0  0  0
  189.2510  177.5180  140.7350 C   0  0  0  0  0  3  0  0  0  0  0  0
  188.3260  177.8580  139.7400 C   0  0  0  0  0  0  0  0  0  0  0  0
  188.9500  177.7360  142.0820 C   0  0  0  0  0  0  0  0  0  0  0  0
  188.6580  177.6430  138.3060 C   0  0  0  0  0  1  0  0  0  0  0  0
  187.7130  178.2970  142.4300 C   0  0  0  0  0  3  0  0  0  0  0  0
  186.7790  178.6290  141.4460 C   0  0  0  0  0  0  0  0  0  0  0  0
  189.9190  177.3950  143.0800 N   0  0  0  0  0  2  0  0  0  0  0  0
  191.4110  179.0300  144.0960 C   0  0  0  0  0  1  0  0  0  0  0  0
  190.1590  178.1910  144.2790 C   0  0  2  0  0  3  0  0  0  0  0  0
  190.2710  177.3190  145.4980 C   0  0  0  0  0  0  0  0  0  0  0  0
  189.2880  177.2900  146.3980 C   0  0  0  0  0  2  0  0  0  0  0  0
  191.4950  176.5260  145.7070 C   0  0  0  0  0  0  0  0  0  0  0  0
  191.9670  175.8150  144.7800 O   0  0  0  0  0  0  0  0  0  0  0  0
  192.1360  176.5490  146.9410 O   0  0  0  0  0  1  0  0  0  0  0  0
  183.8430  178.7800  143.6660 C   0  0  0  0  0  0  0  0  0  0  0  0
  182.8470  179.5520  143.5770 O   0  0  0  0  0  0  0  0  0  0  0  0
  184.4060  178.4640  144.9440 N   0  0  0  0  0  0  0  0  0  0  0  0
  185.3600  179.1610  145.4710 C   0  0  0  0  0  3  0  0  0  0  0  0
  185.9080  178.7880  146.8010 C   0  0  0  0  0  1  0  0  0  0  0  0
  183.5800  177.4410  140.2580 C   0  0  0  0  0  2  0  0  0  0  0  0
  182.1340  177.2090  139.8520 C   0  0  2  0  0  3  0  0  0  0  0  0
  181.8400  175.7400  139.5970 C   0  0  0  0  0  1  0  0  0  0  0  0
  180.5150  179.9550  137.7420 N   0  0  0  0  0  0  0  0  0  0  0  0
  182.9900  176.8460  135.7090 C   0  0  0  0  0  0  0  0  0  0  0  0
  182.9060  176.7370  137.0550 N   0  0  0  0  0  2  0  0  0  0  0  0
  180.5420  180.4130  135.3660 N   0  0  0  0  0  1  0  0  0  0  0  0
  182.1540  177.7890  137.4210 C   0  0  0  0  0  0  0  0  0  0  0  0
  180.9490  179.6360  136.4890 C   0  0  0  0  0  0  0  0  0  0  0  0
  181.7380  178.1110  138.7160 C   0  0  0  0  0  0  0  0  0  0  0  0
  182.2950  177.9440  135.2030 C   0  0  0  0  0  3  0  0  0  0  0  0
  180.8710  179.2280  138.8480 C   0  0  0  0  0  0  0  0  0  0  0  0
  181.7720  178.5260  136.3380 C   0  0  0  0  0  0  0  0  0  0  0  0
  180.3020  179.6260  140.1700 C   0  0  0  0  0  1  0  0  0  0  0  0
  183.6810  175.8310  134.8680 C   0  0  0  0  0  2  0  0  0  0  0  0
  183.3880  174.4410  135.4060 C   0  0  0  0  0  2  0  0  0  0  0  0
  184.6090  173.5470  135.2590 C   0  0  0  0  0  2  0  0  0  0  0  0
  184.9790  172.9300  136.5700 C   0  0  0  0  0  3  0  0  0  0  0  0
  184.4900  173.3990  137.7180 C   0  0  0  0  0  2  0  0  0  0  0  0
  1 11  1  6  0  0  0
  1  3  1  0  0  0  0
  2 25  1  6  0  0  0
  2  3  1  0  0  0  0
  3 20  1  1  0  0  0
  4  2  1  0  0  0  0
  4  1  1  0  0  0  0
  5 11  1  0  0  0  0
  6  8  2  0  0  0  0
  7  5  2  0  0  0  0
  7  6  1  0  0  0  0
  8 10  1  0  0  0  0
  8 12  1  0  0  0  0
  9  7  1  0  0  0  0
 11 10  2  0  0  0  0
 12 14  1  0  0  0  0
 14 13  1  6  0  0  0
 14 15  1  0  0  0  0
 15 17  1  0  0  0  0
 15 16  2  0  0  0  0
 17 19  1  0  0  0  0
 18 17  2  0  0  0  0
 20 22  1  0  0  0  0
 21 20  2  0  0  0  0
 22 23  2  0  0  0  0
 23 24  1  0  0  0  0
 26 27  1  6  0  0  0
 26 25  1  0  0  0  0
 28 36  1  0  0  0  0
 29 30  1  0  0  0  0
 30 32  1  0  0  0  0
 31 33  1  0  0  0  0
 32 34  1  0  0  0  0
 33 28  2  0  0  0  0
 34 36  2  0  0  0  0
 34 26  1  0  0  0  0
 35 29  2  0  0  0  0
 35 37  1  0  0  0  0
 36 38  1  0  0  0  0
 37 33  1  0  0  0  0
 37 32  2  0  0  0  0
 39 40  1  0  0  0  0
 39 29  1  0  0  0  0
 41 40  1  0  0  0  0
 41 42  1  0  0  0  0
 42 43  2  0  0  0  0
M  END
>  <MODEL>
9

>  <REMARK>
 VINA RESULT:      -7.7      2.687      7.651
  Name = 
  14 active torsions:
  status: ('A' for Active; 'I' for Inactive)
    1  A    between atoms: N_2  and  C_3
    2  A    between atoms: C_3  and  C_24
    3  A    between atoms: C_4  and  C_16
    4  A    between atoms: C_4  and  C_34
    5  A    between atoms: C_5  and  C_10
    6  A    between atoms: C_5  and  C_18
    7  A    between atoms: C_7  and  C_41
    8  A    between atoms: C_8  and  C_13
    9  A    between atoms: C_8  and  C_39
   10  A    between atoms: C_9  and  C_11
   11  A    between atoms: C_9  and  C_39
   12  A    between atoms: C_18  and  N_43
   13  A    between atoms: C_26  and  C_34
   14  A    between atoms: C_33  and  N_43
                            x       y       z     vdW  Elec       q    Type
                         _______ _______ _______ _____ _____    ______ ____

>  <TORSDO>
F 14

$$$$
