=
 OpenBabel10232411453D

 27 29  0  0  0  0  0  0  0  0999 V2000
  189.1370  177.7790  141.4450 C   0  0  0  0  0  0  0  0  0  0  0  0
  190.4990  177.1960  139.4610 C   0  0  0  0  0  0  0  0  0  0  0  0
  192.4540  176.7250  138.2330 N   0  0  0  0  0  0  0  0  0  0  0  0
  191.2540  177.3240  140.6110 C   0  0  0  0  0  0  0  0  0  0  0  0
  193.2000  176.8540  139.3710 C   0  0  0  0  0  3  0  0  0  0  0  0
  188.8820  177.4760  139.7950 S   0  0  0  0  0  0  0  0  0  0  0  0
  191.1020  176.8930  138.2510 C   0  0  0  0  0  3  0  0  0  0  0  0
  190.5020  177.6530  141.7580 C   0  0  0  0  0  0  0  0  0  0  0  0
  192.6010  177.1570  140.5590 N   0  0  0  0  0  0  0  0  0  0  0  0
  187.8260  175.9390  143.3340 O   0  0  0  0  0  0  0  0  0  0  0  0
  188.1120  178.0750  142.4040 N   0  0  0  0  0  2  0  0  0  0  0  0
  187.4930  177.1530  143.3070 C   0  0  0  0  0  0  0  0  0  0  0  0
  186.4390  177.6410  144.2420 C   0  0  0  0  0  2  0  0  0  0  0  0
  185.2120  177.9380  143.5170 N   0  0  0  0  0  0  0  0  0  0  0  0
  184.2130  178.5130  144.1050 C   0  0  0  0  0  3  0  0  0  0  0  0
  182.9810  178.8120  143.3740 C   0  0  0  0  0  0  0  0  0  0  0  0
  181.8960  178.9870  143.9890 O   0  0  0  0  0  1  0  0  0  0  0  0
  183.0090  178.9010  141.9890 O   0  0  0  0  0  0  0  0  0  0  0  0
  191.2030  179.3590  143.7700 S   0  0  0  0  0  0  0  0  0  0  0  0
  191.0680  177.8620  143.1190 C   0  0  0  0  0  0  0  0  0  0  0  0
  191.5690  176.7110  143.9280 C   0  0  0  0  0  2  0  0  0  0  0  0
  190.7240  176.5460  145.1790 C   0  0  0  0  0  2  0  0  0  0  0  0
  191.6120  176.5260  146.4090 C   0  0  0  0  0  2  0  0  0  0  0  0
  190.8360  176.8720  147.5880 N   0  0  0  0  0  2  0  0  0  0  0  0
  188.9660  178.2590  148.2500 C   0  0  0  0  0  2  0  0  0  0  0  0
  188.4370  176.8920  147.8750 C   0  0  0  0  0  2  0  0  0  0  0  0
  189.6090  177.4840  147.1160 C   0  0  0  0  0  3  0  0  0  0  0  0
  1  8  2  0  0  0  0
  1 11  1  0  0  0  0
  2  6  1  0  0  0  0
  2  4  1  0  0  0  0
  3  7  1  0  0  0  0
  3  5  2  0  0  0  0
  4  8  1  0  0  0  0
  5  9  1  0  0  0  0
  6  1  1  0  0  0  0
  7  2  2  0  0  0  0
  8 20  1  0  0  0  0
  9  4  2  0  0  0  0
 11 12  1  0  0  0  0
 12 10  2  0  0  0  0
 12 13  1  0  0  0  0
 14 15  2  0  0  0  0
 14 13  1  0  0  0  0
 16 17  1  0  0  0  0
 16 15  1  0  0  0  0
 18 16  2  0  0  0  0
 20 19  2  0  0  0  0
 20 21  1  0  0  0  0
 21 22  1  0  0  0  0
 22 23  1  0  0  0  0
 23 24  1  0  0  0  0
 26 25  1  0  0  0  0
 27 24  1  0  0  0  0
 27 26  1  0  0  0  0
 27 25  1  0  0  0  0
M  END
>  <MODEL>
1

>  <REMARK>
 VINA RESULT:      -6.5      0.000      0.000
  Name = 
  10 active torsions:
  status: ('A' for Active; 'I' for Inactive)
    1  A    between atoms: C_1  and  N_17
    2  A    between atoms: C_2  and  C_11
    3  A    between atoms: C_5  and  C_13
    4  A    between atoms: C_5  and  C_16
    5  A    between atoms: N_9  and  C_10
    6  A    between atoms: C_10  and  C_23
    7  A    between atoms: C_13  and  C_19
    8  A    between atoms: C_16  and  N_25
    9  A    between atoms: C_18  and  N_25
   10  A    between atoms: C_19  and  C_26
                            x       y       z     vdW  Elec       q    Type
                         _______ _______ _______ _____ _____    ______ ____

>  <TORSDO>
F 10

$$$$
=
 OpenBabel10232411453D

 27 29  0  0  0  0  0  0  0  0999 V2000
  186.5860  177.7750  143.8970 C   0  0  0  0  0  0  0  0  0  0  0  0
  187.1830  177.9450  146.2940 C   0  0  0  0  0  0  0  0  0  0  0  0
  188.5720  177.8570  148.1960 N   0  0  0  0  0  0  0  0  0  0  0  0
  188.2650  177.6350  145.4920 C   0  0  0  0  0  0  0  0  0  0  0  0
  189.6400  177.5490  147.4020 C   0  0  0  0  0  3  0  0  0  0  0  0
  185.8020  178.1120  145.3640 S   0  0  0  0  0  0  0  0  0  0  0  0
  187.3330  178.0590  147.6670 C   0  0  0  0  0  3  0  0  0  0  0  0
  187.9530  177.5350  144.1210 C   0  0  0  0  0  0  0  0  0  0  0  0
  189.4870  177.4330  146.0510 N   0  0  0  0  0  0  0  0  0  0  0  0
  185.5390  180.0750  142.3850 O   0  0  0  0  0  0  0  0  0  0  0  0
  185.9670  177.7770  142.6030 N   0  0  0  0  0  2  0  0  0  0  0  0
  185.4640  178.9160  141.8970 C   0  0  0  0  0  0  0  0  0  0  0  0
  184.8490  178.7300  140.5510 C   0  0  0  0  0  2  0  0  0  0  0  0
  185.8640  178.8140  139.5110 N   0  0  0  0  0  0  0  0  0  0  0  0
  185.7150  178.1960  138.3840 C   0  0  0  0  0  3  0  0  0  0  0  0
  186.7360  178.2820  137.3390 C   0  0  0  0  0  0  0  0  0  0  0  0
  186.5830  177.6850  136.2410 O   0  0  0  0  0  0  0  0  0  0  0  0
  187.8850  179.0290  137.5620 O   0  0  0  0  0  1  0  0  0  0  0  0
  189.7120  175.7630  143.0180 S   0  0  0  0  0  0  0  0  0  0  0  0
  188.9270  177.2000  143.0460 C   0  0  0  0  0  0  0  0  0  0  0  0
  189.2520  178.1830  141.9700 C   0  0  0  0  0  2  0  0  0  0  0  0
  189.0100  177.5610  140.6050 C   0  0  0  0  0  2  0  0  0  0  0  0
  190.2990  177.5390  139.8060 C   0  0  0  0  0  2  0  0  0  0  0  0
  190.6150  176.1780  139.4080 N   0  0  0  0  0  2  0  0  0  0  0  0
  191.9270  175.0550  137.7120 C   0  0  0  0  0  2  0  0  0  0  0  0
  192.5230  176.4250  137.9470 C   0  0  0  0  0  2  0  0  0  0  0  0
  191.0220  176.2320  138.0170 C   0  0  0  0  0  3  0  0  0  0  0  0
  1  8  2  0  0  0  0
  1  6  1  0  0  0  0
  2  7  1  0  0  0  0
  4  9  1  0  0  0  0
  4  2  2  0  0  0  0
  5  3  1  0  0  0  0
  6  2  1  0  0  0  0
  7  3  2  0  0  0  0
  8  4  1  0  0  0  0
  9  5  2  0  0  0  0
 11  1  1  0  0  0  0
 12 10  2  0  0  0  0
 12 11  1  0  0  0  0
 13 12  1  0  0  0  0
 14 13  1  0  0  0  0
 15 14  2  0  0  0  0
 16 18  1  0  0  0  0
 16 15  1  0  0  0  0
 17 16  2  0  0  0  0
 19 20  2  0  0  0  0
 20  8  1  0  0  0  0
 21 20  1  0  0  0  0
 22 21  1  0  0  0  0
 23 22  1  0  0  0  0
 24 23  1  0  0  0  0
 25 26  1  0  0  0  0
 25 27  1  0  0  0  0
 26 27  1  0  0  0  0
 27 24  1  0  0  0  0
M  END
>  <MODEL>
2

>  <REMARK>
 VINA RESULT:      -6.5      3.103      6.889
  Name = 
  10 active torsions:
  status: ('A' for Active; 'I' for Inactive)
    1  A    between atoms: C_1  and  N_17
    2  A    between atoms: C_2  and  C_11
    3  A    between atoms: C_5  and  C_13
    4  A    between atoms: C_5  and  C_16
    5  A    between atoms: N_9  and  C_10
    6  A    between atoms: C_10  and  C_23
    7  A    between atoms: C_13  and  C_19
    8  A    between atoms: C_16  and  N_25
    9  A    between atoms: C_18  and  N_25
   10  A    between atoms: C_19  and  C_26
                            x       y       z     vdW  Elec       q    Type
                         _______ _______ _______ _____ _____    ______ ____

>  <TORSDO>
F 10

$$$$
=
 OpenBabel10232411453D

 27 29  0  0  0  0  0  0  0  0999 V2000
  187.8030  178.2110  140.6680 C   0  0  0  0  0  0  0  0  0  0  0  0
  189.1570  177.6630  138.6690 C   0  0  0  0  0  0  0  0  0  0  0  0
  191.0160  176.8660  137.4590 N   0  0  0  0  0  0  0  0  0  0  0  0
  189.7700  177.2910  139.8500 C   0  0  0  0  0  0  0  0  0  0  0  0
  191.6210  176.5000  138.6280 C   0  0  0  0  0  3  0  0  0  0  0  0
  187.6720  178.3690  138.9830 S   0  0  0  0  0  0  0  0  0  0  0  0
  189.7850  177.4500  137.4520 C   0  0  0  0  0  3  0  0  0  0  0  0
  189.0170  177.5890  141.0050 C   0  0  0  0  0  0  0  0  0  0  0  0
  191.0010  176.7160  139.8240 N   0  0  0  0  0  0  0  0  0  0  0  0
  184.9140  178.5820  140.2280 O   0  0  0  0  0  0  0  0  0  0  0  0
  186.8050  178.6070  141.6200 N   0  0  0  0  0  2  0  0  0  0  0  0
  185.4070  178.7820  141.3700 C   0  0  0  0  0  0  0  0  0  0  0  0
  184.5110  179.1990  142.4880 C   0  0  0  0  0  2  0  0  0  0  0  0
  184.9600  178.6180  143.7440 N   0  0  0  0  0  0  0  0  0  0  0  0
  185.0920  179.3470  144.8060 C   0  0  0  0  0  3  0  0  0  0  0  0
  185.5420  178.7620  146.0690 C   0  0  0  0  0  0  0  0  0  0  0  0
  185.5900  179.4570  147.1180 O   0  0  0  0  0  1  0  0  0  0  0  0
  185.9230  177.4270  146.1100 O   0  0  0  0  0  0  0  0  0  0  0  0
  188.7760  176.1000  143.2800 S   0  0  0  0  0  0  0  0  0  0  0  0
  189.4500  177.3070  142.4020 C   0  0  0  0  0  0  0  0  0  0  0  0
  190.4930  178.1430  143.0660 C   0  0  0  0  0  2  0  0  0  0  0  0
  190.2220  178.2270  144.5590 C   0  0  0  0  0  2  0  0  0  0  0  0
  191.3010  177.4890  145.3270 C   0  0  0  0  0  2  0  0  0  0  0  0
  190.7990  177.0910  146.6310 N   0  0  0  0  0  2  0  0  0  0  0  0
  189.1760  178.0680  148.1390 C   0  0  0  0  0  2  0  0  0  0  0  0
  188.6610  176.7170  147.6920 C   0  0  0  0  0  2  0  0  0  0  0  0
  189.4390  177.5870  146.7250 C   0  0  0  0  0  3  0  0  0  0  0  0
  1  8  2  0  0  0  0
  1 11  1  0  0  0  0
  2  6  1  0  0  0  0
  2  4  1  0  0  0  0
  3  5  2  0  0  0  0
  4  8  1  0  0  0  0
  5  9  1  0  0  0  0
  6  1  1  0  0  0  0
  7  3  1  0  0  0  0
  7  2  2  0  0  0  0
  8 20  1  0  0  0  0
  9  4  2  0  0  0  0
 10 12  2  0  0  0  0
 12 11  1  0  0  0  0
 12 13  1  0  0  0  0
 13 14  1  0  0  0  0
 14 15  2  0  0  0  0
 15 16  1  0  0  0  0
 16 18  2  0  0  0  0
 16 17  1  0  0  0  0
 20 21  1  0  0  0  0
 20 19  2  0  0  0  0
 21 22  1  0  0  0  0
 22 23  1  0  0  0  0
 23 24  1  0  0  0  0
 24 27  1  0  0  0  0
 26 25  1  0  0  0  0
 27 26  1  0  0  0  0
 27 25  1  0  0  0  0
M  END
>  <MODEL>
3

>  <REMARK>
 VINA RESULT:      -6.4      1.984      2.524
  Name = 
  10 active torsions:
  status: ('A' for Active; 'I' for Inactive)
    1  A    between atoms: C_1  and  N_17
    2  A    between atoms: C_2  and  C_11
    3  A    between atoms: C_5  and  C_13
    4  A    between atoms: C_5  and  C_16
    5  A    between atoms: N_9  and  C_10
    6  A    between atoms: C_10  and  C_23
    7  A    between atoms: C_13  and  C_19
    8  A    between atoms: C_16  and  N_25
    9  A    between atoms: C_18  and  N_25
   10  A    between atoms: C_19  and  C_26
                            x       y       z     vdW  Elec       q    Type
                         _______ _______ _______ _____ _____    ______ ____

>  <TORSDO>
F 10

$$$$
=
 OpenBabel10232411453D

 27 29  0  0  0  0  0  0  0  0999 V2000
  185.3740  178.6340  142.1950 C   0  0  0  0  0  0  0  0  0  0  0  0
  184.7820  178.7350  144.5970 C   0  0  0  0  0  0  0  0  0  0  0  0
  185.0700  178.4410  146.9180 N   0  0  0  0  0  0  0  0  0  0  0  0
  186.0510  178.2360  144.3780 C   0  0  0  0  0  0  0  0  0  0  0  0
  186.3250  177.9470  146.7000 C   0  0  0  0  0  3  0  0  0  0  0  0
  184.0510  179.1190  143.1410 S   0  0  0  0  0  0  0  0  0  0  0  0
  184.2770  178.8410  145.8840 C   0  0  0  0  0  3  0  0  0  0  0  0
  186.4160  178.1710  143.0180 C   0  0  0  0  0  0  0  0  0  0  0  0
  186.8150  177.8400  145.4300 N   0  0  0  0  0  0  0  0  0  0  0  0
  183.5010  177.5440  140.2020 O   0  0  0  0  0  0  0  0  0  0  0  0
  185.4510  178.7230  140.7660 N   0  0  0  0  0  2  0  0  0  0  0  0
  184.5220  178.1760  139.8240 C   0  0  0  0  0  0  0  0  0  0  0  0
  184.7620  178.3670  138.3640 C   0  0  0  0  0  2  0  0  0  0  0  0
  186.1440  178.7530  138.1210 N   0  0  0  0  0  0  0  0  0  0  0  0
  186.9800  177.9300  137.5750 C   0  0  0  0  0  3  0  0  0  0  0  0
  188.3690  178.3200  137.3300 C   0  0  0  0  0  0  0  0  0  0  0  0
  189.2420  177.4520  137.0630 O   0  0  0  0  0  0  0  0  0  0  0  0
  188.7270  179.6590  137.3960 O   0  0  0  0  0  1  0  0  0  0  0  0
  188.4400  178.3240  141.1920 S   0  0  0  0  0  0  0  0  0  0  0  0
  187.7180  177.6630  142.5060 C   0  0  0  0  0  0  0  0  0  0  0  0
  188.3990  176.5030  143.1560 C   0  0  0  0  0  2  0  0  0  0  0  0
  189.7990  176.3380  142.5910 C   0  0  0  0  0  2  0  0  0  0  0  0
  190.7980  177.0970  143.4440 C   0  0  0  0  0  2  0  0  0  0  0  0
  191.3120  176.2350  144.4940 N   0  0  0  0  0  2  0  0  0  0  0  0
  191.6560  176.2050  146.8900 C   0  0  0  0  0  2  0  0  0  0  0  0
  190.3590  176.9280  146.6030 C   0  0  0  0  0  2  0  0  0  0  0  0
  191.5320  177.0760  145.6560 C   0  0  0  0  0  3  0  0  0  0  0  0
  1  8  2  0  0  0  0
  1  6  1  0  0  0  0
  2  7  1  0  0  0  0
  4  2  2  0  0  0  0
  4  9  1  0  0  0  0
  5  3  1  0  0  0  0
  6  2  1  0  0  0  0
  7  3  2  0  0  0  0
  8  4  1  0  0  0  0
  9  5  2  0  0  0  0
 11  1  1  0  0  0  0
 12 10  2  0  0  0  0
 12 11  1  0  0  0  0
 13 12  1  0  0  0  0
 14 13  1  0  0  0  0
 15 14  2  0  0  0  0
 16 18  1  0  0  0  0
 16 15  1  0  0  0  0
 17 16  2  0  0  0  0
 19 20  2  0  0  0  0
 20  8  1  0  0  0  0
 20 21  1  0  0  0  0
 22 21  1  0  0  0  0
 22 23  1  0  0  0  0
 23 24  1  0  0  0  0
 24 27  1  0  0  0  0
 26 25  1  0  0  0  0
 27 26  1  0  0  0  0
 27 25  1  0  0  0  0
M  END
>  <MODEL>
4

>  <REMARK>
 VINA RESULT:      -6.4      3.302      6.304
  Name = 
  10 active torsions:
  status: ('A' for Active; 'I' for Inactive)
    1  A    between atoms: C_1  and  N_17
    2  A    between atoms: C_2  and  C_11
    3  A    between atoms: C_5  and  C_13
    4  A    between atoms: C_5  and  C_16
    5  A    between atoms: N_9  and  C_10
    6  A    between atoms: C_10  and  C_23
    7  A    between atoms: C_13  and  C_19
    8  A    between atoms: C_16  and  N_25
    9  A    between atoms: C_18  and  N_25
   10  A    between atoms: C_19  and  C_26
                            x       y       z     vdW  Elec       q    Type
                         _______ _______ _______ _____ _____    ______ ____

>  <TORSDO>
F 10

$$$$
=
 OpenBabel10232411453D

 27 29  0  0  0  0  0  0  0  0999 V2000
  190.3750  176.5100  142.5760 C   0  0  0  0  0  0  0  0  0  0  0  0
  190.8970  176.5930  144.9950 C   0  0  0  0  0  0  0  0  0  0  0  0
  190.5670  177.1130  147.2700 N   0  0  0  0  0  0  0  0  0  0  0  0
  189.6670  177.1440  144.6920 C   0  0  0  0  0  0  0  0  0  0  0  0
  189.3510  177.6590  146.9690 C   0  0  0  0  0  3  0  0  0  0  0  0
  191.6400  176.0360  143.6020 S   0  0  0  0  0  0  0  0  0  0  0  0
  191.3600  176.5750  146.3010 C   0  0  0  0  0  3  0  0  0  0  0  0
  189.3430  177.1060  143.3210 C   0  0  0  0  0  0  0  0  0  0  0  0
  188.9020  177.6780  145.6800 N   0  0  0  0  0  0  0  0  0  0  0  0
  192.0670  177.7330  140.4990 O   0  0  0  0  0  0  0  0  0  0  0  0
  190.3300  176.2970  141.1580 N   0  0  0  0  0  2  0  0  0  0  0  0
  191.1670  176.9130  140.1740 C   0  0  0  0  0  0  0  0  0  0  0  0
  190.9790  176.5700  138.7350 C   0  0  0  0  0  2  0  0  0  0  0  0
  189.8950  177.3540  138.1610 N   0  0  0  0  0  0  0  0  0  0  0  0
  188.7440  176.8180  137.9130 C   0  0  0  0  0  3  0  0  0  0  0  0
  187.6540  177.6080  137.3370 C   0  0  0  0  0  0  0  0  0  0  0  0
  187.5040  178.8180  137.6520 O   0  0  0  0  0  1  0  0  0  0  0  0
  186.7790  177.0160  136.4370 O   0  0  0  0  0  0  0  0  0  0  0  0
  188.1160  178.6930  141.4680 S   0  0  0  0  0  0  0  0  0  0  0  0
  188.0880  177.6420  142.7250 C   0  0  0  0  0  0  0  0  0  0  0  0
  186.7530  177.2670  143.2790 C   0  0  0  0  0  2  0  0  0  0  0  0
  185.6720  178.1490  142.6780 C   0  0  0  0  0  2  0  0  0  0  0  0
  184.5720  178.3910  143.6950 C   0  0  0  0  0  2  0  0  0  0  0  0
  185.0100  179.3680  144.6780 N   0  0  0  0  0  2  0  0  0  0  0  0
  185.7140  179.1820  146.9870 C   0  0  0  0  0  2  0  0  0  0  0  0
  185.6260  177.7900  146.4010 C   0  0  0  0  0  2  0  0  0  0  0  0
  184.6300  178.8510  145.9790 C   0  0  0  0  0  3  0  0  0  0  0  0
  1  8  2  0  0  0  0
  1  6  1  0  0  0  0
  2  7  1  0  0  0  0
  4  2  2  0  0  0  0
  4  9  1  0  0  0  0
  5  3  1  0  0  0  0
  6  2  1  0  0  0  0
  7  3  2  0  0  0  0
  8  4  1  0  0  0  0
  9  5  2  0  0  0  0
 11  1  1  0  0  0  0
 12 10  2  0  0  0  0
 12 11  1  0  0  0  0
 13 12  1  0  0  0  0
 14 13  1  0  0  0  0
 15 14  2  0  0  0  0
 16 17  1  0  0  0  0
 16 15  1  0  0  0  0
 18 16  2  0  0  0  0
 19 20  2  0  0  0  0
 20 21  1  0  0  0  0
 20  8  1  0  0  0  0
 22 21  1  0  0  0  0
 22 23  1  0  0  0  0
 23 24  1  0  0  0  0
 24 27  1  0  0  0  0
 26 25  1  0  0  0  0
 27 26  1  0  0  0  0
 27 25  1  0  0  0  0
M  END
>  <MODEL>
5

>  <REMARK>
 VINA RESULT:      -6.4      2.782      6.078
  Name = 
  10 active torsions:
  status: ('A' for Active; 'I' for Inactive)
    1  A    between atoms: C_1  and  N_17
    2  A    between atoms: C_2  and  C_11
    3  A    between atoms: C_5  and  C_13
    4  A    between atoms: C_5  and  C_16
    5  A    between atoms: N_9  and  C_10
    6  A    between atoms: C_10  and  C_23
    7  A    between atoms: C_13  and  C_19
    8  A    between atoms: C_16  and  N_25
    9  A    between atoms: C_18  and  N_25
   10  A    between atoms: C_19  and  C_26
                            x       y       z     vdW  Elec       q    Type
                         _______ _______ _______ _____ _____    ______ ____

>  <TORSDO>
F 10

$$$$
=
 OpenBabel10232411453D

 27 29  0  0  0  0  0  0  0  0999 V2000
  185.5510  178.2410  144.8660 C   0  0  0  0  0  0  0  0  0  0  0  0
  183.4910  178.7120  143.5760 C   0  0  0  0  0  0  0  0  0  0  0  0
  182.1460  178.9960  141.6620 N   0  0  0  0  0  0  0  0  0  0  0  0
  184.5620  178.3750  142.7710 C   0  0  0  0  0  0  0  0  0  0  0  0
  183.2060  178.6640  140.8670 C   0  0  0  0  0  3  0  0  0  0  0  0
  183.9450  178.6850  145.1870 S   0  0  0  0  0  0  0  0  0  0  0  0
  182.2620  179.0290  143.0190 C   0  0  0  0  0  3  0  0  0  0  0  0
  185.7480  178.0980  143.4810 C   0  0  0  0  0  0  0  0  0  0  0  0
  184.4150  178.3570  141.4210 N   0  0  0  0  0  0  0  0  0  0  0  0
  185.9000  179.5650  147.4730 O   0  0  0  0  0  0  0  0  0  0  0  0
  186.5600  177.9960  145.8560 N   0  0  0  0  0  2  0  0  0  0  0  0
  186.7030  178.6640  147.1140 C   0  0  0  0  0  0  0  0  0  0  0  0
  187.8190  178.2760  148.0250 C   0  0  0  0  0  2  0  0  0  0  0  0
  188.8900  177.6380  147.2750 N   0  0  0  0  0  0  0  0  0  0  0  0
  190.0100  177.3290  147.8450 C   0  0  0  0  0  3  0  0  0  0  0  0
  191.0860  176.6860  147.0890 C   0  0  0  0  0  0  0  0  0  0  0  0
  191.6260  177.2730  146.1150 O   0  0  0  0  0  0  0  0  0  0  0  0
  191.5130  175.4150  147.4510 O   0  0  0  0  0  1  0  0  0  0  0  0
  187.6760  178.5760  141.6090 S   0  0  0  0  0  0  0  0  0  0  0  0
  187.0480  177.7240  142.8590 C   0  0  0  0  0  0  0  0  0  0  0  0
  187.8110  176.5300  143.3310 C   0  0  0  0  0  2  0  0  0  0  0  0
  189.2120  176.9400  143.7500 C   0  0  0  0  0  2  0  0  0  0  0  0
  190.2080  175.8630  143.3610 C   0  0  0  0  0  2  0  0  0  0  0  0
  190.4730  175.9230  141.9340 N   0  0  0  0  0  2  0  0  0  0  0  0
  190.8480  177.5000  140.1360 C   0  0  0  0  0  2  0  0  0  0  0  0
  192.1580  177.2820  140.8600 C   0  0  0  0  0  2  0  0  0  0  0  0
  190.8570  177.2900  141.6370 C   0  0  0  0  0  3  0  0  0  0  0  0
  1  6  1  0  0  0  0
  1 11  1  0  0  0  0
  2  6  1  0  0  0  0
  3  7  2  0  0  0  0
  4  8  1  0  0  0  0
  4  2  2  0  0  0  0
  5  9  2  0  0  0  0
  5  3  1  0  0  0  0
  7  2  1  0  0  0  0
  8  1  2  0  0  0  0
  9  4  1  0  0  0  0
 11 12  1  0  0  0  0
 12 10  2  0  0  0  0
 12 13  1  0  0  0  0
 14 15  2  0  0  0  0
 14 13  1  0  0  0  0
 16 18  1  0  0  0  0
 16 15  1  0  0  0  0
 17 16  2  0  0  0  0
 19 20  2  0  0  0  0
 20 21  1  0  0  0  0
 20  8  1  0  0  0  0
 21 22  1  0  0  0  0
 23 22  1  0  0  0  0
 24 23  1  0  0  0  0
 25 26  1  0  0  0  0
 25 27  1  0  0  0  0
 26 27  1  0  0  0  0
 27 24  1  0  0  0  0
M  END
>  <MODEL>
6

>  <REMARK>
 VINA RESULT:      -6.4      2.811      7.070
  Name = 
  10 active torsions:
  status: ('A' for Active; 'I' for Inactive)
    1  A    between atoms: C_1  and  N_17
    2  A    between atoms: C_2  and  C_11
    3  A    between atoms: C_5  and  C_13
    4  A    between atoms: C_5  and  C_16
    5  A    between atoms: N_9  and  C_10
    6  A    between atoms: C_10  and  C_23
    7  A    between atoms: C_13  and  C_19
    8  A    between atoms: C_16  and  N_25
    9  A    between atoms: C_18  and  N_25
   10  A    between atoms: C_19  and  C_26
                            x       y       z     vdW  Elec       q    Type
                         _______ _______ _______ _____ _____    ______ ____

>  <TORSDO>
F 10

$$$$
=
 OpenBabel10232411453D

 27 29  0  0  0  0  0  0  0  0999 V2000
  190.7440  177.4140  142.0720 C   0  0  0  0  0  0  0  0  0  0  0  0
  190.8310  177.2200  139.6050 C   0  0  0  0  0  0  0  0  0  0  0  0
  189.9900  177.0090  137.4140 N   0  0  0  0  0  0  0  0  0  0  0  0
  189.5400  177.2630  140.0950 C   0  0  0  0  0  0  0  0  0  0  0  0
  188.7130  177.0500  137.8990 C   0  0  0  0  0  3  0  0  0  0  0  0
  191.9320  177.3220  140.8630 S   0  0  0  0  0  0  0  0  0  0  0  0
  191.0660  177.0910  138.2450 C   0  0  0  0  0  3  0  0  0  0  0  0
  189.4620  177.3770  141.4980 C   0  0  0  0  0  0  0  0  0  0  0  0
  188.4880  177.1720  139.2400 N   0  0  0  0  0  0  0  0  0  0  0  0
  191.7400  175.3840  143.9580 O   0  0  0  0  0  0  0  0  0  0  0  0
  190.9980  177.5580  143.4760 N   0  0  0  0  0  2  0  0  0  0  0  0
  191.4790  176.5460  144.3670 C   0  0  0  0  0  0  0  0  0  0  0  0
  191.6870  176.8770  145.8060 C   0  0  0  0  0  2  0  0  0  0  0  0
  190.4960  177.5010  146.3630 N   0  0  0  0  0  0  0  0  0  0  0  0
  189.6290  176.8080  147.0280 C   0  0  0  0  0  3  0  0  0  0  0  0
  188.4320  177.4370  147.5870 C   0  0  0  0  0  0  0  0  0  0  0  0
  187.3310  177.3790  146.9790 O   0  0  0  0  0  0  0  0  0  0  0  0
  188.5130  178.1070  148.8010 O   0  0  0  0  0  1  0  0  0  0  0  0
  187.8770  176.3460  143.4670 S   0  0  0  0  0  0  0  0  0  0  0  0
  188.1960  177.4300  142.2810 C   0  0  0  0  0  0  0  0  0  0  0  0
  187.1530  178.4560  141.9860 C   0  0  0  0  0  2  0  0  0  0  0  0
  186.0030  178.3290  142.9700 C   0  0  0  0  0  2  0  0  0  0  0  0
  184.6790  178.4940  142.2490 C   0  0  0  0  0  2  0  0  0  0  0  0
  184.8610  179.3010  141.0550 N   0  0  0  0  0  2  0  0  0  0  0  0
  184.7560  178.7260  138.7050 C   0  0  0  0  0  2  0  0  0  0  0  0
  183.7110  179.7830  138.9850 C   0  0  0  0  0  2  0  0  0  0  0  0
  184.0140  178.7260  140.0270 C   0  0  0  0  0  3  0  0  0  0  0  0
  1 11  1  0  0  0  0
  2  4  1  0  0  0  0
  2  6  1  0  0  0  0
  3  5  2  0  0  0  0
  3  7  1  0  0  0  0
  4  8  1  0  0  0  0
  5  9  1  0  0  0  0
  6  1  1  0  0  0  0
  7  2  2  0  0  0  0
  8  1  2  0  0  0  0
  8 20  1  0  0  0  0
  9  4  2  0  0  0  0
 10 12  2  0  0  0  0
 11 12  1  0  0  0  0
 12 13  1  0  0  0  0
 13 14  1  0  0  0  0
 14 15  2  0  0  0  0
 15 16  1  0  0  0  0
 16 18  1  0  0  0  0
 17 16  2  0  0  0  0
 20 19  2  0  0  0  0
 21 20  1  0  0  0  0
 21 22  1  0  0  0  0
 23 22  1  0  0  0  0
 24 23  1  0  0  0  0
 25 26  1  0  0  0  0
 25 27  1  0  0  0  0
 26 27  1  0  0  0  0
 27 24  1  0  0  0  0
M  END
>  <MODEL>
7

>  <REMARK>
 VINA RESULT:      -6.3      2.781      5.856
  Name = 
  10 active torsions:
  status: ('A' for Active; 'I' for Inactive)
    1  A    between atoms: C_1  and  N_17
    2  A    between atoms: C_2  and  C_11
    3  A    between atoms: C_5  and  C_13
    4  A    between atoms: C_5  and  C_16
    5  A    between atoms: N_9  and  C_10
    6  A    between atoms: C_10  and  C_23
    7  A    between atoms: C_13  and  C_19
    8  A    between atoms: C_16  and  N_25
    9  A    between atoms: C_18  and  N_25
   10  A    between atoms: C_19  and  C_26
                            x       y       z     vdW  Elec       q    Type
                         _______ _______ _______ _____ _____    ______ ____

>  <TORSDO>
F 10

$$$$
=
 OpenBabel10232411453D

 27 29  0  0  0  0  0  0  0  0999 V2000
  185.8160  178.1700  144.5440 C   0  0  0  0  0  0  0  0  0  0  0  0
  183.8820  178.6600  143.0780 C   0  0  0  0  0  0  0  0  0  0  0  0
  182.7160  178.9630  141.0530 N   0  0  0  0  0  0  0  0  0  0  0  0
  185.0200  178.3240  142.3700 C   0  0  0  0  0  0  0  0  0  0  0  0
  183.8420  178.6320  140.3540 C   0  0  0  0  0  3  0  0  0  0  0  0
  184.1890  178.6180  144.7230 S   0  0  0  0  0  0  0  0  0  0  0  0
  182.7090  178.9860  142.4150 C   0  0  0  0  0  3  0  0  0  0  0  0
  186.1360  178.0360  143.1820 C   0  0  0  0  0  0  0  0  0  0  0  0
  184.9960  178.3160  141.0120 N   0  0  0  0  0  0  0  0  0  0  0  0
  185.6980  179.1720  147.3110 O   0  0  0  0  0  0  0  0  0  0  0  0
  186.7310  177.9140  145.6190 N   0  0  0  0  0  2  0  0  0  0  0  0
  186.6450  178.4220  146.9550 C   0  0  0  0  0  0  0  0  0  0  0  0
  187.6920  178.0480  147.9480 C   0  0  0  0  0  2  0  0  0  0  0  0
  189.0030  178.0080  147.3170 N   0  0  0  0  0  0  0  0  0  0  0  0
  189.7500  176.9550  147.3970 C   0  0  0  0  0  3  0  0  0  0  0  0
  191.0670  176.9160  146.7600 C   0  0  0  0  0  0  0  0  0  0  0  0
  191.2130  177.2840  145.5650 O   0  0  0  0  0  0  0  0  0  0  0  0
  192.1650  176.4670  147.4820 O   0  0  0  0  0  1  0  0  0  0  0  0
  188.3260  176.4130  143.3230 S   0  0  0  0  0  0  0  0  0  0  0  0
  187.4850  177.6610  142.6760 C   0  0  0  0  0  0  0  0  0  0  0  0
  188.1380  178.4370  141.5800 C   0  0  0  0  0  2  0  0  0  0  0  0
  189.1630  177.5710  140.8670 C   0  0  0  0  0  2  0  0  0  0  0  0
  189.4380  178.1230  139.4810 C   0  0  0  0  0  2  0  0  0  0  0  0
  188.2210  178.6840  138.9190 N   0  0  0  0  0  2  0  0  0  0  0  0
  187.3740  178.6030  136.6530 C   0  0  0  0  0  2  0  0  0  0  0  0
  186.3270  178.0190  137.5760 C   0  0  0  0  0  2  0  0  0  0  0  0
  187.7980  177.7890  137.8600 C   0  0  0  0  0  3  0  0  0  0  0  0
  1  6  1  0  0  0  0
  1 11  1  0  0  0  0
  2  6  1  0  0  0  0
  3  7  2  0  0  0  0
  4  2  2  0  0  0  0
  4  8  1  0  0  0  0
  5  9  2  0  0  0  0
  5  3  1  0  0  0  0
  7  2  1  0  0  0  0
  8  1  2  0  0  0  0
  9  4  1  0  0  0  0
 11 12  1  0  0  0  0
 12 10  2  0  0  0  0
 12 13  1  0  0  0  0
 14 15  2  0  0  0  0
 14 13  1  0  0  0  0
 16 15  1  0  0  0  0
 16 18  1  0  0  0  0
 17 16  2  0  0  0  0
 20  8  1  0  0  0  0
 20 19  2  0  0  0  0
 21 20  1  0  0  0  0
 22 21  1  0  0  0  0
 23 22  1  0  0  0  0
 24 23  1  0  0  0  0
 25 26  1  0  0  0  0
 25 27  1  0  0  0  0
 26 27  1  0  0  0  0
 27 24  1  0  0  0  0
M  END
>  <MODEL>
8

>  <REMARK>
 VINA RESULT:      -6.3      3.150      7.536
  Name = 
  10 active torsions:
  status: ('A' for Active; 'I' for Inactive)
    1  A    between atoms: C_1  and  N_17
    2  A    between atoms: C_2  and  C_11
    3  A    between atoms: C_5  and  C_13
    4  A    between atoms: C_5  and  C_16
    5  A    between atoms: N_9  and  C_10
    6  A    between atoms: C_10  and  C_23
    7  A    between atoms: C_13  and  C_19
    8  A    between atoms: C_16  and  N_25
    9  A    between atoms: C_18  and  N_25
   10  A    between atoms: C_19  and  C_26
                            x       y       z     vdW  Elec       q    Type
                         _______ _______ _______ _____ _____    ______ ____

>  <TORSDO>
F 10

$$$$
=
 OpenBabel10232411453D

 27 29  0  0  0  0  0  0  0  0999 V2000
  190.8510  177.4780  141.9200 C   0  0  0  0  0  0  0  0  0  0  0  0
  190.9470  177.1260  139.4710 C   0  0  0  0  0  0  0  0  0  0  0  0
  190.1140  176.8370  137.2860 N   0  0  0  0  0  0  0  0  0  0  0  0
  189.6570  177.2850  139.9400 C   0  0  0  0  0  0  0  0  0  0  0  0
  188.8390  176.9920  137.7510 C   0  0  0  0  0  3  0  0  0  0  0  0
  192.0400  177.2320  140.7350 S   0  0  0  0  0  0  0  0  0  0  0  0
  191.1860  176.8980  138.1250 C   0  0  0  0  0  3  0  0  0  0  0  0
  189.5740  177.4900  141.3320 C   0  0  0  0  0  0  0  0  0  0  0  0
  188.6100  177.2120  139.0780 N   0  0  0  0  0  0  0  0  0  0  0  0
  191.5750  175.4860  143.9640 O   0  0  0  0  0  0  0  0  0  0  0  0
  191.1000  177.6920  143.3160 N   0  0  0  0  0  2  0  0  0  0  0  0
  191.4470  176.6970  144.2850 C   0  0  0  0  0  0  0  0  0  0  0  0
  191.6720  177.1030  145.7030 C   0  0  0  0  0  2  0  0  0  0  0  0
  190.4710  176.8810  146.4930 N   0  0  0  0  0  0  0  0  0  0  0  0
  189.5390  177.7770  146.5550 C   0  0  0  0  0  3  0  0  0  0  0  0
  188.3310  177.5520  147.3500 C   0  0  0  0  0  0  0  0  0  0  0  0
  188.3720  177.5980  148.6080 O   0  0  0  0  0  1  0  0  0  0  0  0
  187.1290  177.2840  146.7090 O   0  0  0  0  0  0  0  0  0  0  0  0
  187.7830  176.5580  143.1690 S   0  0  0  0  0  0  0  0  0  0  0  0
  188.3080  177.6760  142.0930 C   0  0  0  0  0  0  0  0  0  0  0  0
  187.4490  178.8770  141.8740 C   0  0  0  0  0  2  0  0  0  0  0  0
  186.3790  178.5720  140.8400 C   0  0  0  0  0  2  0  0  0  0  0  0
  185.0010  178.6950  141.4630 C   0  0  0  0  0  2  0  0  0  0  0  0
  185.0990  179.3360  142.7630 N   0  0  0  0  0  2  0  0  0  0  0  0
  183.3260  179.1920  144.4060 C   0  0  0  0  0  2  0  0  0  0  0  0
  184.6500  179.0020  145.1140 C   0  0  0  0  0  2  0  0  0  0  0  0
  184.4550  178.4510  143.7150 C   0  0  0  0  0  3  0  0  0  0  0  0
  1 11  1  0  0  0  0
  2  4  1  0  0  0  0
  2  6  1  0  0  0  0
  3  5  2  0  0  0  0
  3  7  1  0  0  0  0
  4  8  1  0  0  0  0
  5  9  1  0  0  0  0
  6  1  1  0  0  0  0
  7  2  2  0  0  0  0
  8  1  2  0  0  0  0
  8 20  1  0  0  0  0
  9  4  2  0  0  0  0
 10 12  2  0  0  0  0
 11 12  1  0  0  0  0
 12 13  1  0  0  0  0
 13 14  1  0  0  0  0
 14 15  2  0  0  0  0
 15 16  1  0  0  0  0
 16 17  1  0  0  0  0
 18 16  2  0  0  0  0
 20 19  2  0  0  0  0
 21 20  1  0  0  0  0
 22 23  1  0  0  0  0
 22 21  1  0  0  0  0
 23 24  1  0  0  0  0
 24 27  1  0  0  0  0
 25 26  1  0  0  0  0
 27 25  1  0  0  0  0
 27 26  1  0  0  0  0
M  END
>  <MODEL>
9

>  <REMARK>
 VINA RESULT:      -6.3      2.522      5.113
  Name = 
  10 active torsions:
  status: ('A' for Active; 'I' for Inactive)
    1  A    between atoms: C_1  and  N_17
    2  A    between atoms: C_2  and  C_11
    3  A    between atoms: C_5  and  C_13
    4  A    between atoms: C_5  and  C_16
    5  A    between atoms: N_9  and  C_10
    6  A    between atoms: C_10  and  C_23
    7  A    between atoms: C_13  and  C_19
    8  A    between atoms: C_16  and  N_25
    9  A    between atoms: C_18  and  N_25
   10  A    between atoms: C_19  and  C_26
                            x       y       z     vdW  Elec       q    Type
                         _______ _______ _______ _____ _____    ______ ____

>  <TORSDO>
F 10

$$$$
