=
 OpenBabel10232411043D

 39 46  0  0  1  0  0  0  0  0999 V2000
  187.1740  177.9980  138.9090 C   0  0  1  0  0  3  0  0  0  0  0  0
  188.1080  178.1070  137.7970 C   0  0  2  0  0  3  0  0  0  0  0  0
  188.3720  176.7820  137.2520 C   0  0  2  0  0  0  0  0  0  0  0  0
  188.1590  176.9230  138.7020 N   0  0  2  0  0  0  0  0  0  0  0  0
  189.7960  176.4790  136.8830 C   0  0  0  0  0  0  0  0  0  0  0  0
  193.2070  176.5010  138.1110 N   0  0  0  0  0  0  0  0  0  0  0  0
  194.5380  175.3020  134.9770 C   0  0  0  0  0  1  0  0  0  0  0  0
  192.0730  176.3920  137.4020 C   0  0  0  0  0  0  0  0  0  0  0  0
  190.8060  176.6660  137.7930 N   0  0  0  0  0  0  0  0  0  0  0  0
  194.2260  176.1270  137.3410 N   0  0  0  0  0  0  0  0  0  0  0  0
  192.3580  175.9440  136.1590 C   0  0  0  0  0  0  0  0  0  0  0  0
  190.1070  176.0230  135.5720 C   0  0  0  0  0  3  0  0  0  0  0  0
  193.3380  176.9480  139.4870 C   0  0  0  0  0  1  0  0  0  0  0  0
  193.7240  175.7790  136.1260 C   0  0  0  0  0  0  0  0  0  0  0  0
  191.4020  175.7540  135.2200 N   0  0  0  0  0  0  0  0  0  0  0  0
  187.2220  176.0550  136.5610 C   0  0  0  0  0  2  0  0  0  0  0  0
  186.0010  172.7690  137.6180 O   0  0  0  0  0  0  0  0  0  0  0  0
  184.6590  174.6970  137.2600 C   0  0  0  0  0  1  0  0  0  0  0  0
  185.9690  173.9870  137.2980 C   0  0  0  0  0  0  0  0  0  0  0  0
  187.1860  174.6640  136.9870 N   0  0  0  0  0  2  0  0  0  0  0  0
  187.6010  178.8300  139.9760 O   0  0  0  0  0  0  0  0  0  0  0  0
  183.9300  179.6590  144.0310 C   0  0  0  0  0  1  0  0  0  0  0  0
  184.5210  178.4260  143.3790 C   0  0  1  0  0  3  0  0  0  0  0  0
  186.8350  177.9240  143.4770 C   0  0  0  0  0  0  0  0  0  0  0  0
  189.2390  177.5480  143.1100 C   0  0  0  0  0  3  0  0  0  0  0  0
  186.7170  178.3510  142.1060 C   0  0  0  0  0  0  0  0  0  0  0  0
  187.7820  178.3860  141.2940 C   0  0  0  0  0  0  0  0  0  0  0  0
  185.0590  178.8300  141.6670 S   0  0  0  0  0  0  0  0  0  0  0  0
  185.7090  177.9610  144.1650 C   0  0  0  0  0  3  0  0  0  0  0  0
  190.2480  177.9510  141.0320 O   0  0  0  0  0  1  0  0  0  0  0  0
  188.1080  177.5180  143.9980 N   0  0  0  0  0  0  0  0  0  0  0  0
  189.1140  177.9540  141.8360 C   0  0  0  0  0  0  0  0  0  0  0  0
  189.1990  178.1200  147.7570 C   0  0  1  0  0  3  0  0  0  0  0  0
  189.9640  176.9010  147.2780 C   0  0  0  0  0  2  0  0  0  0  0  0
  187.5460  177.9050  146.2680 O   0  0  0  0  0  0  0  0  0  0  0  0
  188.2570  177.0480  145.3710 C   0  0  2  0  0  3  0  0  0  0  0  0
  189.7760  176.8770  145.7340 C   0  0  0  0  0  2  0  0  0  0  0  0
  187.8900  177.4080  147.5260 C   0  0  2  0  0  3  0  0  0  0  0  0
  188.0550  178.2760  148.5810 O   0  0  0  0  0  0  0  0  0  0  0  0
  1 21  1  1  0  0  0
  2  4  1  0  0  0  0
  2  1  1  0  0  0  0
  3  2  1  0  0  0  0
  3  4  1  0  0  0  0
  4  1  1  0  0  0  0
  5  3  1  0  0  0  0
  5  9  1  0  0  0  0
  6 13  1  0  0  0  0
  7 14  1  0  0  0  0
  8  9  2  0  0  0  0
  8  6  1  0  0  0  0
 10  6  1  0  0  0  0
 11  8  1  0  0  0  0
 12  5  2  0  0  0  0
 14 11  1  0  0  0  0
 14 10  2  0  0  0  0
 15 12  1  0  0  0  0
 15 11  2  0  0  0  0
 16 20  1  0  0  0  0
 16  3  1  0  0  0  0
 18 19  1  0  0  0  0
 19 17  2  0  0  0  0
 20 19  1  0  0  0  0
 21 27  1  0  0  0  0
 23 22  1  0  0  0  0
 23 29  1  0  0  0  0
 24 31  1  0  0  0  0
 24 29  2  0  0  0  0
 25 31  1  0  0  0  0
 26 24  1  0  0  0  0
 27 32  1  0  0  0  0
 27 26  2  0  0  0  0
 28 26  1  0  0  0  0
 28 23  1  0  0  0  0
 30 32  1  0  0  0  0
 31 36  1  0  0  0  0
 32 25  2  0  0  0  0
 33 39  1  0  0  0  0
 34 33  1  0  0  0  0
 35 38  1  0  0  0  0
 36 37  1  0  0  0  0
 36 35  1  0  0  0  0
 37 34  1  0  0  0  0
 38 33  1  0  0  0  0
 38 39  1  0  0  0  0
M  END
>  <MODEL>
1

>  <REMARK>
 VINA RESULT:      -9.3      0.000      0.000
  Name = 
  6 active torsions:
  status: ('A' for Active; 'I' for Inactive)
    1  A    between atoms: C_1  and  C_15
    2  A    between atoms: C_5  and  O_32
    3  A    between atoms: C_15  and  C_22
    4  A    between atoms: C_21  and  O_32
    5  A    between atoms: C_22  and  N_36
    6  A    between atoms: C_23  and  N_38
                            x       y       z     vdW  Elec       q    Type
                         _______ _______ _______ _____ _____    ______ ____

>  <TORSDO>
F 6

$$$$
=
 OpenBabel10232411043D

 39 46  0  0  1  0  0  0  0  0999 V2000
  191.1850  177.2870  141.5540 C   0  0  1  0  0  3  0  0  0  0  0  0
  190.4840  178.0850  142.5510 C   0  0  2  0  0  3  0  0  0  0  0  0
  189.8280  177.2030  143.5060 C   0  0  2  0  0  0  0  0  0  0  0  0
  189.9100  176.7840  142.0970 N   0  0  2  0  0  0  0  0  0  0  0  0
  188.4410  177.5900  143.9340 C   0  0  0  0  0  0  0  0  0  0  0  0
  186.4000  178.4730  146.7970 N   0  0  0  0  0  0  0  0  0  0  0  0
  183.4170  178.8230  144.7960 C   0  0  0  0  0  1  0  0  0  0  0  0
  186.8960  178.1820  145.5850 C   0  0  0  0  0  0  0  0  0  0  0  0
  188.1670  177.8530  145.2530 N   0  0  0  0  0  0  0  0  0  0  0  0
  185.1020  178.7400  146.6720 N   0  0  0  0  0  0  0  0  0  0  0  0
  185.9110  178.2570  144.6630 C   0  0  0  0  0  0  0  0  0  0  0  0
  187.3950  177.6560  142.9730 C   0  0  0  0  0  3  0  0  0  0  0  0
  187.1270  178.5040  148.0550 C   0  0  0  0  0  1  0  0  0  0  0  0
  184.7770  178.6100  145.3570 C   0  0  0  0  0  0  0  0  0  0  0  0
  186.1240  177.9970  143.3520 N   0  0  0  0  0  0  0  0  0  0  0  0
  190.7120  176.3570  144.4190 C   0  0  0  0  0  2  0  0  0  0  0  0
  191.8730  177.1490  147.7990 O   0  0  0  0  0  0  0  0  0  0  0  0
  192.3350  175.1450  146.6090 C   0  0  0  0  0  1  0  0  0  0  0  0
  191.7050  176.4900  146.7390 C   0  0  0  0  0  0  0  0  0  0  0  0
  190.9090  177.0380  145.6900 N   0  0  0  0  0  2  0  0  0  0  0  0
  190.9660  177.8320  140.2630 O   0  0  0  0  0  0  0  0  0  0  0  0
  192.5450  174.7680  135.9350 C   0  0  0  0  0  1  0  0  0  0  0  0
  191.6580  174.5180  137.1380 C   0  0  1  0  0  3  0  0  0  0  0  0
  189.6590  175.7330  137.5160 C   0  0  0  0  0  0  0  0  0  0  0  0
  187.8440  177.2220  138.2540 C   0  0  0  0  0  3  0  0  0  0  0  0
  190.5140  176.3180  138.5160 C   0  0  0  0  0  0  0  0  0  0  0  0
  190.0750  177.2930  139.3230 C   0  0  0  0  0  0  0  0  0  0  0  0
  192.1570  175.6300  138.5160 S   0  0  0  0  0  0  0  0  0  0  0  0
  190.2320  174.7990  136.7780 C   0  0  0  0  0  3  0  0  0  0  0  0
  188.1420  178.7560  140.0030 O   0  0  0  0  0  1  0  0  0  0  0  0
  188.3060  176.1850  137.3710 N   0  0  0  0  0  0  0  0  0  0  0  0
  188.6560  177.7620  139.1790 C   0  0  0  0  0  0  0  0  0  0  0  0
  184.6570  175.5890  135.9490 C   0  0  1  0  0  3  0  0  0  0  0  0
  185.2470  174.2160  136.2090 C   0  0  0  0  0  2  0  0  0  0  0  0
  186.6360  176.6100  135.7430 O   0  0  0  0  0  0  0  0  0  0  0  0
  187.4020  175.5910  136.3910 C   0  0  2  0  0  3  0  0  0  0  0  0
  186.5260  174.4690  137.0560 C   0  0  0  0  0  2  0  0  0  0  0  0
  185.7470  175.8830  134.9480 C   0  0  2  0  0  3  0  0  0  0  0  0
  184.4630  176.3440  134.7650 O   0  0  0  0  0  0  0  0  0  0  0  0
  1 21  1  6  0  0  0
  1  4  1  0  0  0  0
  1  2  1  0  0  0  0
  2  3  1  0  0  0  0
  3  5  1  0  0  0  0
  3 16  1  0  0  0  0
  4  2  1  0  0  0  0
  4  3  1  0  0  0  0
  5  9  1  0  0  0  0
  6 13  1  0  0  0  0
  7 14  1  0  0  0  0
  8  6  1  0  0  0  0
  9  8  2  0  0  0  0
 10  6  1  0  0  0  0
 11 14  1  0  0  0  0
 11  8  1  0  0  0  0
 12 15  1  0  0  0  0
 12  5  2  0  0  0  0
 14 10  2  0  0  0  0
 15 11  2  0  0  0  0
 16 20  1  0  0  0  0
 18 19  1  0  0  0  0
 19 17  2  0  0  0  0
 20 19  1  0  0  0  0
 22 23  1  0  0  0  0
 23 28  1  0  0  0  0
 24 26  1  0  0  0  0
 25 32  2  0  0  0  0
 26 27  2  0  0  0  0
 27 21  1  0  0  0  0
 28 26  1  0  0  0  0
 29 23  1  0  0  0  0
 29 24  2  0  0  0  0
 31 24  1  0  0  0  0
 31 25  1  0  0  0  0
 32 27  1  0  0  0  0
 32 30  1  0  0  0  0
 33 34  1  0  0  0  0
 34 37  1  0  0  0  0
 35 36  1  0  0  0  0
 36 37  1  0  0  0  0
 36 31  1  0  0  0  0
 38 35  1  0  0  0  0
 38 33  1  0  0  0  0
 39 38  1  0  0  0  0
 39 33  1  0  0  0  0
M  END
>  <MODEL>
2

>  <REMARK>
 VINA RESULT:      -9.1      2.675      9.635
  Name = 
  6 active torsions:
  status: ('A' for Active; 'I' for Inactive)
    1  A    between atoms: C_1  and  C_15
    2  A    between atoms: C_5  and  O_32
    3  A    between atoms: C_15  and  C_22
    4  A    between atoms: C_21  and  O_32
    5  A    between atoms: C_22  and  N_36
    6  A    between atoms: C_23  and  N_38
                            x       y       z     vdW  Elec       q    Type
                         _______ _______ _______ _____ _____    ______ ____

>  <TORSDO>
F 6

$$$$
=
 OpenBabel10232411043D

 39 46  0  0  1  0  0  0  0  0999 V2000
  191.5020  177.2880  141.9160 C   0  0  1  0  0  3  0  0  0  0  0  0
  190.7500  178.0880  142.8720 C   0  0  2  0  0  3  0  0  0  0  0  0
  190.0610  177.2070  143.8060 C   0  0  2  0  0  0  0  0  0  0  0  0
  190.2110  176.7760  142.4070 N   0  0  2  0  0  0  0  0  0  0  0  0
  188.6530  177.5830  144.1690 C   0  0  0  0  0  0  0  0  0  0  0  0
  186.4630  178.4050  146.9390 N   0  0  0  0  0  0  0  0  0  0  0  0
  183.5870  178.7880  144.7910 C   0  0  0  0  0  1  0  0  0  0  0  0
  187.0220  178.1390  145.7490 C   0  0  0  0  0  0  0  0  0  0  0  0
  188.3100  177.8190  145.4770 N   0  0  0  0  0  0  0  0  0  0  0  0
  185.1720  178.6720  146.7510 N   0  0  0  0  0  0  0  0  0  0  0  0
  186.0860  178.2300  144.7780 C   0  0  0  0  0  0  0  0  0  0  0  0
  187.6580  177.6660  143.1560 C   0  0  0  0  0  3  0  0  0  0  0  0
  187.1230  178.4130  148.2330 C   0  0  0  0  0  1  0  0  0  0  0  0
  184.9160  178.5670  145.4190 C   0  0  0  0  0  0  0  0  0  0  0  0
  186.3680  177.9960  143.4750 N   0  0  0  0  0  0  0  0  0  0  0  0
  190.9130  176.3810  144.7660 C   0  0  0  0  0  2  0  0  0  0  0  0
  191.9210  177.2200  148.1840 O   0  0  0  0  0  0  0  0  0  0  0  0
  192.3560  175.1640  147.0760 C   0  0  0  0  0  1  0  0  0  0  0  0
  191.7820  176.5380  147.1340 C   0  0  0  0  0  0  0  0  0  0  0  0
  191.0710  177.0890  146.0270 N   0  0  0  0  0  2  0  0  0  0  0  0
  191.3350  177.8180  140.6100 O   0  0  0  0  0  0  0  0  0  0  0  0
  187.5730  175.4180  137.3400 C   0  0  0  0  0  1  0  0  0  0  0  0
  188.5940  176.5190  137.1420 C   0  0  1  0  0  3  0  0  0  0  0  0
  190.9250  176.1390  137.3430 C   0  0  0  0  0  0  0  0  0  0  0  0
  193.2970  175.9820  137.9780 C   0  0  0  0  0  3  0  0  0  0  0  0
  190.6710  176.8650  138.5610 C   0  0  0  0  0  0  0  0  0  0  0  0
  191.6540  177.1240  139.4340 C   0  0  0  0  0  0  0  0  0  0  0  0
  188.9610  177.3200  138.7570 S   0  0  0  0  0  0  0  0  0  0  0  0
  189.8590  175.9380  136.5890 C   0  0  0  0  0  3  0  0  0  0  0  0
  194.1040  176.9140  139.9730 O   0  0  0  0  0  1  0  0  0  0  0  0
  192.2500  175.6850  137.0380 N   0  0  0  0  0  0  0  0  0  0  0  0
  193.0440  176.6550  139.1130 C   0  0  0  0  0  0  0  0  0  0  0  0
  194.2100  172.8790  135.0450 C   0  0  1  0  0  3  0  0  0  0  0  0
  194.5100  174.1910  134.3460 C   0  0  0  0  0  2  0  0  0  0  0  0
  192.2900  173.5790  135.9500 O   0  0  0  0  0  0  0  0  0  0  0  0
  192.5490  174.9770  135.7970 C   0  0  2  0  0  3  0  0  0  0  0  0
  194.0090  175.2990  135.3160 C   0  0  0  0  0  2  0  0  0  0  0  0
  192.7410  173.0370  134.7440 C   0  0  2  0  0  3  0  0  0  0  0  0
  193.3430  171.8000  134.7360 O   0  0  0  0  0  0  0  0  0  0  0  0
  1 21  1  6  0  0  0
  1  4  1  0  0  0  0
  1  2  1  0  0  0  0
  2  3  1  0  0  0  0
  3  5  1  0  0  0  0
  3 16  1  0  0  0  0
  4  2  1  0  0  0  0
  4  3  1  0  0  0  0
  5  9  1  0  0  0  0
  6 13  1  0  0  0  0
  7 14  1  0  0  0  0
  8  6  1  0  0  0  0
  9  8  2  0  0  0  0
 10  6  1  0  0  0  0
 11 14  1  0  0  0  0
 11  8  1  0  0  0  0
 12 15  1  0  0  0  0
 12  5  2  0  0  0  0
 14 10  2  0  0  0  0
 15 11  2  0  0  0  0
 16 20  1  0  0  0  0
 18 19  1  0  0  0  0
 19 17  2  0  0  0  0
 20 19  1  0  0  0  0
 23 22  1  0  0  0  0
 23 28  1  0  0  0  0
 24 26  1  0  0  0  0
 25 32  2  0  0  0  0
 26 28  1  0  0  0  0
 26 27  2  0  0  0  0
 27 21  1  0  0  0  0
 29 23  1  0  0  0  0
 29 24  2  0  0  0  0
 31 24  1  0  0  0  0
 31 25  1  0  0  0  0
 32 27  1  0  0  0  0
 32 30  1  0  0  0  0
 34 33  1  0  0  0  0
 34 37  1  0  0  0  0
 36 35  1  0  0  0  0
 36 31  1  0  0  0  0
 37 36  1  0  0  0  0
 38 33  1  0  0  0  0
 38 35  1  0  0  0  0
 39 38  1  0  0  0  0
 39 33  1  0  0  0  0
M  END
>  <MODEL>
3

>  <REMARK>
 VINA RESULT:      -8.9      2.734      9.975
  Name = 
  6 active torsions:
  status: ('A' for Active; 'I' for Inactive)
    1  A    between atoms: C_1  and  C_15
    2  A    between atoms: C_5  and  O_32
    3  A    between atoms: C_15  and  C_22
    4  A    between atoms: C_21  and  O_32
    5  A    between atoms: C_22  and  N_36
    6  A    between atoms: C_23  and  N_38
                            x       y       z     vdW  Elec       q    Type
                         _______ _______ _______ _____ _____    ______ ____

>  <TORSDO>
F 6

$$$$
=
 OpenBabel10232411043D

 39 46  0  0  1  0  0  0  0  0999 V2000
  187.8310  178.5320  140.5390 C   0  0  1  0  0  3  0  0  0  0  0  0
  188.2010  177.4260  141.4110 C   0  0  2  0  0  3  0  0  0  0  0  0
  187.7370  177.6990  142.7650 C   0  0  2  0  0  0  0  0  0  0  0  0
  188.2010  178.8230  141.9350 N   0  0  2  0  0  0  0  0  0  0  0  0
  188.6800  177.3510  143.8810 C   0  0  0  0  0  0  0  0  0  0  0  0
  189.2570  177.7010  147.4430 N   0  0  0  0  0  0  0  0  0  0  0  0
  192.3730  175.8840  147.3040 C   0  0  0  0  0  1  0  0  0  0  0  0
  189.3060  177.4210  146.1320 C   0  0  0  0  0  0  0  0  0  0  0  0
  188.4140  177.7480  145.1670 N   0  0  0  0  0  0  0  0  0  0  0  0
  190.3390  177.1900  148.0270 N   0  0  0  0  0  0  0  0  0  0  0  0
  190.4310  176.7230  145.8600 C   0  0  0  0  0  0  0  0  0  0  0  0
  189.8740  176.6310  143.6010 C   0  0  0  0  0  3  0  0  0  0  0  0
  188.2160  178.4350  148.1420 C   0  0  0  0  0  1  0  0  0  0  0  0
  191.0820  176.5810  147.0640 C   0  0  0  0  0  0  0  0  0  0  0  0
  190.7480  176.3170  144.6080 N   0  0  0  0  0  0  0  0  0  0  0  0
  186.2310  177.7350  143.0080 C   0  0  0  0  0  2  0  0  0  0  0  0
  184.5310  179.0460  145.9740 O   0  0  0  0  0  0  0  0  0  0  0  0
  183.6610  179.0490  143.7630 C   0  0  0  0  0  1  0  0  0  0  0  0
  184.7240  178.7520  144.7650 C   0  0  0  0  0  0  0  0  0  0  0  0
  185.9570  178.1480  144.3760 N   0  0  0  0  0  2  0  0  0  0  0  0
  188.9190  178.8540  139.6860 O   0  0  0  0  0  0  0  0  0  0  0  0
  186.5970  176.5460  135.2260 C   0  0  0  0  0  1  0  0  0  0  0  0
  187.8120  177.4220  135.4490 C   0  0  1  0  0  3  0  0  0  0  0  0
  189.6590  176.7220  136.7590 C   0  0  0  0  0  0  0  0  0  0  0  0
  191.3960  176.3060  138.4520 C   0  0  0  0  0  3  0  0  0  0  0  0
  189.0520  177.6770  137.6500 C   0  0  0  0  0  0  0  0  0  0  0  0
  189.5700  177.9260  138.8600 C   0  0  0  0  0  0  0  0  0  0  0  0
  187.5820  178.4220  136.9750 S   0  0  0  0  0  0  0  0  0  0  0  0
  189.0290  176.5630  135.6090 C   0  0  0  0  0  3  0  0  0  0  0  0
  191.4060  177.4300  140.5100 O   0  0  0  0  0  1  0  0  0  0  0  0
  190.8440  176.0190  137.1550 N   0  0  0  0  0  0  0  0  0  0  0  0
  190.8160  177.1960  139.2740 C   0  0  0  0  0  0  0  0  0  0  0  0
  193.7970  173.5010  136.3610 C   0  0  1  0  0  3  0  0  0  0  0  0
  193.7860  174.5190  135.2370 C   0  0  0  0  0  2  0  0  0  0  0  0
  191.6510  173.8030  136.9110 O   0  0  0  0  0  0  0  0  0  0  0  0
  191.5040  175.0700  136.2640 C   0  0  2  0  0  3  0  0  0  0  0  0
  192.8550  175.6640  135.7260 C   0  0  0  0  0  2  0  0  0  0  0  0
  192.4010  173.0620  135.9960 C   0  0  2  0  0  3  0  0  0  0  0  0
  193.3370  172.1620  136.4510 O   0  0  0  0  0  0  0  0  0  0  0  0
  1 21  1  6  0  0  0
  1  2  1  0  0  0  0
  1  4  1  0  0  0  0
  2  4  1  0  0  0  0
  2  3  1  0  0  0  0
  3 16  1  0  0  0  0
  3  5  1  0  0  0  0
  4  3  1  0  0  0  0
  5  9  1  0  0  0  0
  6 10  1  0  0  0  0
  6 13  1  0  0  0  0
  8  6  1  0  0  0  0
  9  8  2  0  0  0  0
 11  8  1  0  0  0  0
 11 14  1  0  0  0  0
 12  5  2  0  0  0  0
 12 15  1  0  0  0  0
 14  7  1  0  0  0  0
 14 10  2  0  0  0  0
 15 11  2  0  0  0  0
 16 20  1  0  0  0  0
 18 19  1  0  0  0  0
 19 17  2  0  0  0  0
 20 19  1  0  0  0  0
 22 23  1  0  0  0  0
 23 29  1  0  0  0  0
 23 28  1  0  0  0  0
 24 31  1  0  0  0  0
 24 26  1  0  0  0  0
 25 32  2  0  0  0  0
 26 27  2  0  0  0  0
 27 32  1  0  0  0  0
 27 21  1  0  0  0  0
 28 26  1  0  0  0  0
 29 24  2  0  0  0  0
 31 25  1  0  0  0  0
 32 30  1  0  0  0  0
 33 39  1  0  0  0  0
 34 37  1  0  0  0  0
 34 33  1  0  0  0  0
 36 35  1  0  0  0  0
 36 31  1  0  0  0  0
 37 36  1  0  0  0  0
 38 33  1  0  0  0  0
 38 39  1  0  0  0  0
 38 35  1  0  0  0  0
M  END
>  <MODEL>
4

>  <REMARK>
 VINA RESULT:      -8.9      2.500      8.807
  Name = 
  6 active torsions:
  status: ('A' for Active; 'I' for Inactive)
    1  A    between atoms: C_1  and  C_15
    2  A    between atoms: C_5  and  O_32
    3  A    between atoms: C_15  and  C_22
    4  A    between atoms: C_21  and  O_32
    5  A    between atoms: C_22  and  N_36
    6  A    between atoms: C_23  and  N_38
                            x       y       z     vdW  Elec       q    Type
                         _______ _______ _______ _____ _____    ______ ____

>  <TORSDO>
F 6

$$$$
=
 OpenBabel10232411043D

 39 46  0  0  1  0  0  0  0  0999 V2000
  188.8760  178.3530  138.9650 C   0  0  1  0  0  3  0  0  0  0  0  0
  188.1980  177.1180  138.5950 C   0  0  2  0  0  3  0  0  0  0  0  0
  188.0660  177.0510  137.1460 C   0  0  2  0  0  0  0  0  0  0  0  0
  187.9650  178.3630  137.8070 N   0  0  2  0  0  0  0  0  0  0  0  0
  186.7540  176.5480  136.6130 C   0  0  0  0  0  0  0  0  0  0  0  0
  184.3920  173.8030  136.7670 N   0  0  0  0  0  0  0  0  0  0  0  0
  182.1860  175.3230  134.3480 C   0  0  0  0  0  1  0  0  0  0  0  0
  185.0690  174.9320  136.5100 C   0  0  0  0  0  0  0  0  0  0  0  0
  186.2470  175.3450  137.0350 N   0  0  0  0  0  0  0  0  0  0  0  0
  183.2810  173.7980  136.0330 N   0  0  0  0  0  0  0  0  0  0  0  0
  184.3940  175.6670  135.5990 C   0  0  0  0  0  0  0  0  0  0  0  0
  186.0450  177.3090  135.6430 C   0  0  0  0  0  3  0  0  0  0  0  0
  184.7750  172.7430  137.6840 C   0  0  0  0  0  1  0  0  0  0  0  0
  183.2620  174.9440  135.3000 C   0  0  0  0  0  0  0  0  0  0  0  0
  184.8540  176.8550  135.1420 N   0  0  0  0  0  0  0  0  0  0  0  0
  189.3410  176.9100  136.3200 C   0  0  0  0  0  2  0  0  0  0  0  0
  191.2960  173.9430  137.2030 O   0  0  0  0  0  0  0  0  0  0  0  0
  191.7500  176.1640  137.9140 C   0  0  0  0  0  1  0  0  0  0  0  0
  190.9550  175.1540  137.1580 C   0  0  0  0  0  0  0  0  0  0  0  0
  189.8230  175.5380  136.3800 N   0  0  0  0  0  2  0  0  0  0  0  0
  188.2260  178.9400  140.0810 O   0  0  0  0  0  0  0  0  0  0  0  0
  184.3150  179.6340  143.9330 C   0  0  0  0  0  1  0  0  0  0  0  0
  184.9520  178.4240  143.2810 C   0  0  1  0  0  3  0  0  0  0  0  0
  187.2590  177.9290  143.5020 C   0  0  0  0  0  0  0  0  0  0  0  0
  189.6830  177.5730  143.2690 C   0  0  0  0  0  3  0  0  0  0  0  0
  187.2200  178.3950  142.1400 C   0  0  0  0  0  0  0  0  0  0  0  0
  188.3310  178.4580  141.3940 C   0  0  0  0  0  0  0  0  0  0  0  0
  185.5880  178.8800  141.6160 S   0  0  0  0  0  0  0  0  0  0  0  0
  186.0930  177.9410  144.1230 C   0  0  0  0  0  3  0  0  0  0  0  0
  190.8110  178.0410  141.2670 O   0  0  0  0  0  1  0  0  0  0  0  0
  188.5010  177.5120  144.0860 N   0  0  0  0  0  0  0  0  0  0  0  0
  189.6310  178.0150  142.0020 C   0  0  0  0  0  0  0  0  0  0  0  0
  189.2510  178.0440  147.9390 C   0  0  1  0  0  3  0  0  0  0  0  0
  190.1270  176.8920  147.4850 C   0  0  0  0  0  2  0  0  0  0  0  0
  187.7370  177.7820  146.3140 O   0  0  0  0  0  0  0  0  0  0  0  0
  188.5700  177.0030  145.4520 C   0  0  2  0  0  3  0  0  0  0  0  0
  190.0640  176.9120  145.9310 C   0  0  0  0  0  2  0  0  0  0  0  0
  188.0120  177.2610  147.5800 C   0  0  2  0  0  3  0  0  0  0  0  0
  188.0380  178.0990  148.6710 O   0  0  0  0  0  0  0  0  0  0  0  0
  1 21  1  1  0  0  0
  2  1  1  0  0  0  0
  3  4  1  0  0  0  0
  3  2  1  0  0  0  0
  4  2  1  0  0  0  0
  4  1  1  0  0  0  0
  5  9  1  0  0  0  0
  5  3  1  0  0  0  0
  6 13  1  0  0  0  0
  7 14  1  0  0  0  0
  8  6  1  0  0  0  0
  8  9  2  0  0  0  0
 10  6  1  0  0  0  0
 11  8  1  0  0  0  0
 12  5  2  0  0  0  0
 14 11  1  0  0  0  0
 14 10  2  0  0  0  0
 15 11  2  0  0  0  0
 15 12  1  0  0  0  0
 16 20  1  0  0  0  0
 16  3  1  0  0  0  0
 19 17  2  0  0  0  0
 19 18  1  0  0  0  0
 20 19  1  0  0  0  0
 21 27  1  0  0  0  0
 23 22  1  0  0  0  0
 23 29  1  0  0  0  0
 24 31  1  0  0  0  0
 24 29  2  0  0  0  0
 25 31  1  0  0  0  0
 26 24  1  0  0  0  0
 27 32  1  0  0  0  0
 27 26  2  0  0  0  0
 28 26  1  0  0  0  0
 28 23  1  0  0  0  0
 30 32  1  0  0  0  0
 31 36  1  0  0  0  0
 32 25  2  0  0  0  0
 33 39  1  0  0  0  0
 34 33  1  0  0  0  0
 35 38  1  0  0  0  0
 36 37  1  0  0  0  0
 36 35  1  0  0  0  0
 37 34  1  0  0  0  0
 38 33  1  0  0  0  0
 38 39  1  0  0  0  0
M  END
>  <MODEL>
5

>  <REMARK>
 VINA RESULT:      -8.9      1.792      4.845
  Name = 
  6 active torsions:
  status: ('A' for Active; 'I' for Inactive)
    1  A    between atoms: C_1  and  C_15
    2  A    between atoms: C_5  and  O_32
    3  A    between atoms: C_15  and  C_22
    4  A    between atoms: C_21  and  O_32
    5  A    between atoms: C_22  and  N_36
    6  A    between atoms: C_23  and  N_38
                            x       y       z     vdW  Elec       q    Type
                         _______ _______ _______ _____ _____    ______ ____

>  <TORSDO>
F 6

$$$$
=
 OpenBabel10232411043D

 39 46  0  0  1  0  0  0  0  0999 V2000
  184.1570  178.9620  139.8550 C   0  0  1  0  0  3  0  0  0  0  0  0
  184.5640  178.6680  138.4880 C   0  0  2  0  0  3  0  0  0  0  0  0
  184.0940  177.3410  138.1160 C   0  0  2  0  0  0  0  0  0  0  0  0
  184.5180  177.5780  139.5050 N   0  0  2  0  0  0  0  0  0  0  0  0
  185.0500  176.4840  137.3360 C   0  0  0  0  0  0  0  0  0  0  0  0
  188.3000  176.4370  135.7310 N   0  0  0  0  0  0  0  0  0  0  0  0
  187.8990  173.0310  134.6040 C   0  0  0  0  0  1  0  0  0  0  0  0
  187.0810  176.1690  136.2240 C   0  0  0  0  0  0  0  0  0  0  0  0
  186.2650  176.9810  136.9380 N   0  0  0  0  0  0  0  0  0  0  0  0
  188.7460  175.3570  135.0950 N   0  0  0  0  0  0  0  0  0  0  0  0
  186.7310  174.9040  135.9030 C   0  0  0  0  0  0  0  0  0  0  0  0
  184.6830  175.1560  136.9810 C   0  0  0  0  0  3  0  0  0  0  0  0
  189.0370  177.6830  135.8520 C   0  0  0  0  0  1  0  0  0  0  0  0
  187.7890  174.3950  135.1870 C   0  0  0  0  0  0  0  0  0  0  0  0
  185.5400  174.3690  136.2610 N   0  0  0  0  0  0  0  0  0  0  0  0
  182.5870  177.1280  137.9940 C   0  0  0  0  0  2  0  0  0  0  0  0
  181.1070  179.0980  135.2870 O   0  0  0  0  0  0  0  0  0  0  0  0
  181.0870  179.6750  137.5910 C   0  0  0  0  0  1  0  0  0  0  0  0
  181.4370  178.7720  136.4580 C   0  0  0  0  0  0  0  0  0  0  0  0
  182.1300  177.5450  136.6770 N   0  0  0  0  0  2  0  0  0  0  0  0
  185.2310  179.5680  140.5560 O   0  0  0  0  0  0  0  0  0  0  0  0
  185.0450  179.1620  146.0700 C   0  0  0  0  0  1  0  0  0  0  0  0
  184.9890  178.1600  144.9360 C   0  0  1  0  0  3  0  0  0  0  0  0
  186.7920  177.8460  143.4300 C   0  0  0  0  0  0  0  0  0  0  0  0
  188.3790  177.7640  141.5510 C   0  0  0  0  0  3  0  0  0  0  0  0
  185.8650  178.5550  142.5850 C   0  0  0  0  0  0  0  0  0  0  0  0
  186.1720  178.8590  141.3170 C   0  0  0  0  0  0  0  0  0  0  0  0
  184.3490  178.9780  143.4180 S   0  0  0  0  0  0  0  0  0  0  0  0
  186.3650  177.6330  144.6610 C   0  0  0  0  0  3  0  0  0  0  0  0
  187.8680  178.7030  139.4630 O   0  0  0  0  0  1  0  0  0  0  0  0
  188.0690  177.4420  142.9180 N   0  0  0  0  0  0  0  0  0  0  0  0
  187.5060  178.4310  140.7770 C   0  0  0  0  0  0  0  0  0  0  0  0
  191.6530  177.0340  144.5530 C   0  0  1  0  0  3  0  0  0  0  0  0
  191.4160  175.7880  143.7210 C   0  0  0  0  0  2  0  0  0  0  0  0
  189.4830  177.5010  144.8190 O   0  0  0  0  0  0  0  0  0  0  0  0
  189.0180  176.6930  143.7350 C   0  0  2  0  0  3  0  0  0  0  0  0
  190.1730  176.1080  142.8440 C   0  0  0  0  0  2  0  0  0  0  0  0
  190.4620  176.7020  145.4160 C   0  0  2  0  0  3  0  0  0  0  0  0
  191.5880  177.2870  145.9470 O   0  0  0  0  0  0  0  0  0  0  0  0
  1 21  1  1  0  0  0
  2  4  1  0  0  0  0
  2  1  1  0  0  0  0
  3  2  1  0  0  0  0
  3  4  1  0  0  0  0
  4  1  1  0  0  0  0
  5  3  1  0  0  0  0
  6 13  1  0  0  0  0
  6  8  1  0  0  0  0
  7 14  1  0  0  0  0
  8  9  1  0  0  0  0
  9  5  2  0  0  0  0
 10 14  2  0  0  0  0
 10  6  1  0  0  0  0
 11  8  2  0  0  0  0
 11 15  1  0  0  0  0
 12  5  1  0  0  0  0
 14 11  1  0  0  0  0
 15 12  2  0  0  0  0
 16  3  1  0  0  0  0
 17 19  2  0  0  0  0
 19 20  1  0  0  0  0
 19 18  1  0  0  0  0
 20 16  1  0  0  0  0
 21 27  1  0  0  0  0
 23 22  1  0  0  0  0
 24 29  2  0  0  0  0
 25 31  1  0  0  0  0
 26 28  1  0  0  0  0
 26 24  1  0  0  0  0
 27 26  2  0  0  0  0
 28 23  1  0  0  0  0
 29 23  1  0  0  0  0
 30 32  1  0  0  0  0
 31 24  1  0  0  0  0
 31 36  1  0  0  0  0
 32 27  1  0  0  0  0
 32 25  2  0  0  0  0
 33 38  1  0  0  0  0
 33 39  1  0  0  0  0
 34 33  1  0  0  0  0
 35 38  1  0  0  0  0
 36 35  1  0  0  0  0
 37 34  1  0  0  0  0
 37 36  1  0  0  0  0
 38 39  1  0  0  0  0
M  END
>  <MODEL>
6

>  <REMARK>
 VINA RESULT:      -8.9      2.970      4.385
  Name = 
  6 active torsions:
  status: ('A' for Active; 'I' for Inactive)
    1  A    between atoms: C_1  and  C_15
    2  A    between atoms: C_5  and  O_32
    3  A    between atoms: C_15  and  C_22
    4  A    between atoms: C_21  and  O_32
    5  A    between atoms: C_22  and  N_36
    6  A    between atoms: C_23  and  N_38
                            x       y       z     vdW  Elec       q    Type
                         _______ _______ _______ _____ _____    ______ ____

>  <TORSDO>
F 6

$$$$
=
 OpenBabel10232411043D

 39 46  0  0  1  0  0  0  0  0999 V2000
  191.4450  177.3330  141.9900 C   0  0  1  0  0  3  0  0  0  0  0  0
  190.5410  178.0930  142.8420 C   0  0  2  0  0  3  0  0  0  0  0  0
  189.6880  177.1760  143.5860 C   0  0  2  0  0  0  0  0  0  0  0  0
  190.0820  176.8210  142.2120 N   0  0  2  0  0  0  0  0  0  0  0  0
  188.2410  177.5580  143.7140 C   0  0  0  0  0  0  0  0  0  0  0  0
  185.3270  178.6540  141.8560 N   0  0  0  0  0  0  0  0  0  0  0  0
  183.2770  178.8370  144.8220 C   0  0  0  0  0  1  0  0  0  0  0  0
  186.2190  178.2680  142.7810 C   0  0  0  0  0  0  0  0  0  0  0  0
  187.5150  177.9180  142.6060 N   0  0  0  0  0  0  0  0  0  0  0  0
  184.1690  178.9040  142.4620 N   0  0  0  0  0  0  0  0  0  0  0  0
  185.6360  178.2690  144.0000 C   0  0  0  0  0  0  0  0  0  0  0  0
  187.6240  177.5760  144.9950 C   0  0  0  0  0  3  0  0  0  0  0  0
  185.5520  178.7880  140.4270 C   0  0  0  0  0  1  0  0  0  0  0  0
  184.3370  178.6730  143.7920 C   0  0  0  0  0  0  0  0  0  0  0  0
  186.3090  177.9330  145.1260 N   0  0  0  0  0  0  0  0  0  0  0  0
  190.3470  176.2800  144.6310 C   0  0  0  0  0  2  0  0  0  0  0  0
  191.6450  177.3290  147.8900 O   0  0  0  0  0  0  0  0  0  0  0  0
  192.2790  175.3650  146.7120 C   0  0  0  0  0  1  0  0  0  0  0  0
  191.4870  176.6190  146.8620 C   0  0  0  0  0  0  0  0  0  0  0  0
  190.5480  177.0220  145.8670 N   0  0  0  0  0  2  0  0  0  0  0  0
  191.5180  177.9390  140.7090 O   0  0  0  0  0  0  0  0  0  0  0  0
  187.6500  175.7730  137.3990 C   0  0  0  0  0  1  0  0  0  0  0  0
  188.7280  176.8220  137.2170 C   0  0  1  0  0  3  0  0  0  0  0  0
  191.0350  176.3190  137.4220 C   0  0  0  0  0  0  0  0  0  0  0  0
  193.3930  176.0320  138.0630 C   0  0  0  0  0  3  0  0  0  0  0  0
  190.8140  177.0440  138.6470 C   0  0  0  0  0  0  0  0  0  0  0  0
  191.8060  177.2420  139.5260 C   0  0  0  0  0  0  0  0  0  0  0  0
  189.1290  177.5850  138.8410 S   0  0  0  0  0  0  0  0  0  0  0  0
  189.9640  176.1820  136.6610 C   0  0  0  0  0  3  0  0  0  0  0  0
  194.2400  176.8990  140.0710 O   0  0  0  0  0  1  0  0  0  0  0  0
  192.3360  175.8000  137.1160 N   0  0  0  0  0  0  0  0  0  0  0  0
  193.1710  176.7050  139.2040 C   0  0  0  0  0  0  0  0  0  0  0  0
  194.2830  173.0270  135.0640 C   0  0  1  0  0  3  0  0  0  0  0  0
  194.5230  174.3410  134.3460 C   0  0  0  0  0  2  0  0  0  0  0  0
  192.3830  173.6880  136.0400 O   0  0  0  0  0  0  0  0  0  0  0  0
  192.6020  175.0910  135.8690 C   0  0  2  0  0  3  0  0  0  0  0  0
  194.0350  175.4430  135.3280 C   0  0  0  0  0  2  0  0  0  0  0  0
  192.7990  173.1490  134.8210 C   0  0  2  0  0  3  0  0  0  0  0  0
  193.4300  171.9260  134.7960 O   0  0  0  0  0  0  0  0  0  0  0  0
  1 21  1  6  0  0  0
  1  4  1  0  0  0  0
  1  2  1  0  0  0  0
  2  3  1  0  0  0  0
  3  5  1  0  0  0  0
  3 16  1  0  0  0  0
  4  2  1  0  0  0  0
  4  3  1  0  0  0  0
  5 12  1  0  0  0  0
  6 10  1  0  0  0  0
  6  8  1  0  0  0  0
  8 11  2  0  0  0  0
  9  8  1  0  0  0  0
  9  5  2  0  0  0  0
 10 14  2  0  0  0  0
 11 15  1  0  0  0  0
 12 15  2  0  0  0  0
 13  6  1  0  0  0  0
 14 11  1  0  0  0  0
 14  7  1  0  0  0  0
 16 20  1  0  0  0  0
 18 19  1  0  0  0  0
 19 17  2  0  0  0  0
 20 19  1  0  0  0  0
 23 22  1  0  0  0  0
 23 28  1  0  0  0  0
 24 26  1  0  0  0  0
 25 32  2  0  0  0  0
 26 28  1  0  0  0  0
 26 27  2  0  0  0  0
 27 21  1  0  0  0  0
 29 23  1  0  0  0  0
 29 24  2  0  0  0  0
 31 24  1  0  0  0  0
 31 25  1  0  0  0  0
 32 27  1  0  0  0  0
 32 30  1  0  0  0  0
 34 33  1  0  0  0  0
 34 37  1  0  0  0  0
 36 35  1  0  0  0  0
 36 31  1  0  0  0  0
 37 36  1  0  0  0  0
 38 33  1  0  0  0  0
 38 35  1  0  0  0  0
 39 38  1  0  0  0  0
 39 33  1  0  0  0  0
M  END
>  <MODEL>
7

>  <REMARK>
 VINA RESULT:      -8.9      2.702      9.687
  Name = 
  6 active torsions:
  status: ('A' for Active; 'I' for Inactive)
    1  A    between atoms: C_1  and  C_15
    2  A    between atoms: C_5  and  O_32
    3  A    between atoms: C_15  and  C_22
    4  A    between atoms: C_21  and  O_32
    5  A    between atoms: C_22  and  N_36
    6  A    between atoms: C_23  and  N_38
                            x       y       z     vdW  Elec       q    Type
                         _______ _______ _______ _____ _____    ______ ____

>  <TORSDO>
F 6

$$$$
=
 OpenBabel10232411043D

 39 46  0  0  1  0  0  0  0  0999 V2000
  184.4530  179.0600  141.0930 C   0  0  1  0  0  3  0  0  0  0  0  0
  184.9850  178.0920  142.0420 C   0  0  2  0  0  3  0  0  0  0  0  0
  184.4450  178.3620  143.3670 C   0  0  2  0  0  0  0  0  0  0  0  0
  184.7280  179.4970  142.4730 N   0  0  2  0  0  0  0  0  0  0  0  0
  185.4040  178.2550  144.5190 C   0  0  0  0  0  0  0  0  0  0  0  0
  188.7890  177.3330  145.4340 N   0  0  0  0  0  0  0  0  0  0  0  0
  188.2320  178.0380  148.9300 C   0  0  0  0  0  1  0  0  0  0  0  0
  187.5070  177.7300  145.3910 C   0  0  0  0  0  0  0  0  0  0  0  0
  186.6910  177.8230  144.3150 N   0  0  0  0  0  0  0  0  0  0  0  0
  189.2100  177.3940  146.6950 N   0  0  0  0  0  0  0  0  0  0  0  0
  187.0910  178.0480  146.6370 C   0  0  0  0  0  0  0  0  0  0  0  0
  184.9690  178.5730  145.8350 C   0  0  0  0  0  3  0  0  0  0  0  0
  189.6090  176.9050  144.3130 C   0  0  0  0  0  1  0  0  0  0  0  0
  188.1730  177.8330  147.4580 C   0  0  0  0  0  0  0  0  0  0  0  0
  185.8300  178.4680  146.8940 N   0  0  0  0  0  0  0  0  0  0  0  0
  182.9490  178.1490  143.5840 C   0  0  0  0  0  2  0  0  0  0  0  0
  180.3590  180.6620  142.9690 O   0  0  0  0  0  0  0  0  0  0  0  0
  180.2140  178.3570  142.4120 C   0  0  0  0  0  1  0  0  0  0  0  0
  180.9290  179.5390  142.9720 C   0  0  0  0  0  0  0  0  0  0  0  0
  182.2480  179.4210  143.5020 N   0  0  0  0  0  2  0  0  0  0  0  0
  185.4900  179.5140  140.2380 O   0  0  0  0  0  0  0  0  0  0  0  0
  183.7900  175.8040  136.5020 C   0  0  0  0  0  1  0  0  0  0  0  0
  184.6990  177.0150  136.4500 C   0  0  1  0  0  3  0  0  0  0  0  0
  186.7180  177.1410  137.6840 C   0  0  0  0  0  0  0  0  0  0  0  0
  188.5630  177.5800  139.2520 C   0  0  0  0  0  3  0  0  0  0  0  0
  185.8900  178.0430  138.4420 C   0  0  0  0  0  0  0  0  0  0  0  0
  186.3560  178.6630  139.5350 C   0  0  0  0  0  0  0  0  0  0  0  0
  184.2410  178.1910  137.7870 S   0  0  0  0  0  0  0  0  0  0  0  0
  186.1210  176.5850  136.6450 C   0  0  0  0  0  3  0  0  0  0  0  0
  188.3170  179.0470  141.0660 O   0  0  0  0  0  1  0  0  0  0  0  0
  188.0730  176.8970  138.0850 N   0  0  0  0  0  0  0  0  0  0  0  0
  187.7760  178.4140  139.9530 C   0  0  0  0  0  0  0  0  0  0  0  0
  191.6900  175.5790  137.1550 C   0  0  1  0  0  3  0  0  0  0  0  0
  191.0540  176.0400  135.8580 C   0  0  0  0  0  2  0  0  0  0  0  0
  189.7480  175.2230  138.2040 O   0  0  0  0  0  0  0  0  0  0  0  0
  188.9490  176.0160  137.3210 C   0  0  2  0  0  3  0  0  0  0  0  0
  189.7900  176.8400  136.2800 C   0  0  0  0  0  2  0  0  0  0  0  0
  190.6070  174.5450  137.3360 C   0  0  2  0  0  3  0  0  0  0  0  0
  191.9040  174.2950  137.7190 O   0  0  0  0  0  0  0  0  0  0  0  0
  1 21  1  6  0  0  0
  1  2  1  0  0  0  0
  1  4  1  0  0  0  0
  2  4  1  0  0  0  0
  2  3  1  0  0  0  0
  3 16  1  0  0  0  0
  3  5  1  0  0  0  0
  4  3  1  0  0  0  0
  5 12  1  0  0  0  0
  6 10  1  0  0  0  0
  8  6  1  0  0  0  0
  8 11  2  0  0  0  0
  9  5  2  0  0  0  0
  9  8  1  0  0  0  0
 10 14  2  0  0  0  0
 11 15  1  0  0  0  0
 11 14  1  0  0  0  0
 12 15  2  0  0  0  0
 13  6  1  0  0  0  0
 14  7  1  0  0  0  0
 17 19  2  0  0  0  0
 18 19  1  0  0  0  0
 19 20  1  0  0  0  0
 20 16  1  0  0  0  0
 23 22  1  0  0  0  0
 23 29  1  0  0  0  0
 23 28  1  0  0  0  0
 24 31  1  0  0  0  0
 24 26  1  0  0  0  0
 25 32  2  0  0  0  0
 26 27  2  0  0  0  0
 27 32  1  0  0  0  0
 27 21  1  0  0  0  0
 28 26  1  0  0  0  0
 29 24  2  0  0  0  0
 31 25  1  0  0  0  0
 32 30  1  0  0  0  0
 33 38  1  0  0  0  0
 33 39  1  0  0  0  0
 34 37  1  0  0  0  0
 34 33  1  0  0  0  0
 36 31  1  0  0  0  0
 36 35  1  0  0  0  0
 37 36  1  0  0  0  0
 38 39  1  0  0  0  0
 38 35  1  0  0  0  0
M  END
>  <MODEL>
8

>  <REMARK>
 VINA RESULT:      -8.7      2.810      8.696
  Name = 
  6 active torsions:
  status: ('A' for Active; 'I' for Inactive)
    1  A    between atoms: C_1  and  C_15
    2  A    between atoms: C_5  and  O_32
    3  A    between atoms: C_15  and  C_22
    4  A    between atoms: C_21  and  O_32
    5  A    between atoms: C_22  and  N_36
    6  A    between atoms: C_23  and  N_38
                            x       y       z     vdW  Elec       q    Type
                         _______ _______ _______ _____ _____    ______ ____

>  <TORSDO>
F 6

$$$$
=
 OpenBabel10232411043D

 39 46  0  0  1  0  0  0  0  0999 V2000
  188.3980  178.2600  137.9250 C   0  0  1  0  0  3  0  0  0  0  0  0
  188.9130  178.7680  139.1890 C   0  0  2  0  0  3  0  0  0  0  0  0
  189.6400  177.7100  139.8770 C   0  0  2  0  0  0  0  0  0  0  0  0
  188.4520  177.3530  139.0850 N   0  0  2  0  0  0  0  0  0  0  0  0
  189.4240  177.6020  141.3600 C   0  0  0  0  0  0  0  0  0  0  0  0
  186.9190  177.7810  143.9750 N   0  0  0  0  0  0  0  0  0  0  0  0
  189.3360  177.1740  146.5860 C   0  0  0  0  0  1  0  0  0  0  0  0
  188.0350  177.6630  143.2380 C   0  0  0  0  0  0  0  0  0  0  0  0
  188.1690  177.7550  141.8940 N   0  0  0  0  0  0  0  0  0  0  0  0
  187.2380  177.6200  145.2570 N   0  0  0  0  0  0  0  0  0  0  0  0
  189.0890  177.4270  144.0500 C   0  0  0  0  0  0  0  0  0  0  0  0
  190.5310  177.3690  142.2220 C   0  0  0  0  0  3  0  0  0  0  0  0
  185.5740  178.0380  143.4890 C   0  0  0  0  0  1  0  0  0  0  0  0
  188.5790  177.4020  145.3270 C   0  0  0  0  0  0  0  0  0  0  0  0
  190.3490  177.2790  143.5760 N   0  0  0  0  0  0  0  0  0  0  0  0
  190.9360  177.2090  139.2460 C   0  0  0  0  0  2  0  0  0  0  0  0
  190.8930  173.9420  137.5920 O   0  0  0  0  0  0  0  0  0  0  0  0
  191.0170  176.0480  136.4990 C   0  0  0  0  0  1  0  0  0  0  0  0
  190.9220  175.1950  137.7180 C   0  0  0  0  0  0  0  0  0  0  0  0
  190.8560  175.7740  139.0200 N   0  0  0  0  0  2  0  0  0  0  0  0
  187.0640  178.7070  137.7370 O   0  0  0  0  0  0  0  0  0  0  0  0
  182.7190  178.0380  141.0960 C   0  0  0  0  0  1  0  0  0  0  0  0
  182.8880  178.5380  139.6760 C   0  0  1  0  0  3  0  0  0  0  0  0
  183.7140  177.1590  137.9350 C   0  0  0  0  0  0  0  0  0  0  0  0
  184.9810  175.9900  136.1780 C   0  0  0  0  0  3  0  0  0  0  0  0
  184.8550  178.0090  138.1600 C   0  0  0  0  0  0  0  0  0  0  0  0
  185.9840  177.8580  137.4540 C   0  0  0  0  0  0  0  0  0  0  0  0
  184.5880  179.2040  139.4530 S   0  0  0  0  0  0  0  0  0  0  0  0
  182.6780  177.4070  138.7160 C   0  0  0  0  0  3  0  0  0  0  0  0
  187.1780  176.6010  135.6290 O   0  0  0  0  0  1  0  0  0  0  0  0
  183.7670  176.1310  136.9360 N   0  0  0  0  0  0  0  0  0  0  0  0
  186.0380  176.7880  136.4030 C   0  0  0  0  0  0  0  0  0  0  0  0
  182.2390  172.6730  135.7540 C   0  0  1  0  0  3  0  0  0  0  0  0
  181.6360  173.7380  134.8580 C   0  0  0  0  0  2  0  0  0  0  0  0
  182.6960  174.0750  137.4340 O   0  0  0  0  0  0  0  0  0  0  0  0
  182.6180  175.2740  136.6590 C   0  0  2  0  0  3  0  0  0  0  0  0
  182.4790  175.0190  135.1150 C   0  0  0  0  0  2  0  0  0  0  0  0
  181.6180  173.3210  136.9660 C   0  0  2  0  0  3  0  0  0  0  0  0
  181.7340  171.9540  136.8670 O   0  0  0  0  0  0  0  0  0  0  0  0
  1 21  1  1  0  0  0
  1  4  1  0  0  0  0
  1  2  1  0  0  0  0
  2  3  1  0  0  0  0
  3  5  1  0  0  0  0
  4  2  1  0  0  0  0
  4  3  1  0  0  0  0
  5  9  2  0  0  0  0
  5 12  1  0  0  0  0
  6 10  1  0  0  0  0
  8  6  1  0  0  0  0
  8 11  2  0  0  0  0
  9  8  1  0  0  0  0
 10 14  2  0  0  0  0
 11 14  1  0  0  0  0
 12 15  2  0  0  0  0
 13  6  1  0  0  0  0
 14  7  1  0  0  0  0
 15 11  1  0  0  0  0
 16  3  1  0  0  0  0
 17 19  2  0  0  0  0
 18 19  1  0  0  0  0
 19 20  1  0  0  0  0
 20 16  1  0  0  0  0
 23 22  1  0  0  0  0
 24 26  1  0  0  0  0
 24 29  2  0  0  0  0
 25 32  2  0  0  0  0
 25 31  1  0  0  0  0
 26 28  1  0  0  0  0
 27 21  1  0  0  0  0
 27 26  2  0  0  0  0
 28 23  1  0  0  0  0
 29 23  1  0  0  0  0
 30 32  1  0  0  0  0
 31 24  1  0  0  0  0
 32 27  1  0  0  0  0
 33 39  1  0  0  0  0
 33 38  1  0  0  0  0
 34 37  1  0  0  0  0
 34 33  1  0  0  0  0
 36 31  1  0  0  0  0
 36 35  1  0  0  0  0
 37 36  1  0  0  0  0
 38 35  1  0  0  0  0
 39 38  1  0  0  0  0
M  END
>  <MODEL>
9

>  <REMARK>
 VINA RESULT:      -8.6      3.070      8.171
  Name = 
  6 active torsions:
  status: ('A' for Active; 'I' for Inactive)
    1  A    between atoms: C_1  and  C_15
    2  A    between atoms: C_5  and  O_32
    3  A    between atoms: C_15  and  C_22
    4  A    between atoms: C_21  and  O_32
    5  A    between atoms: C_22  and  N_36
    6  A    between atoms: C_23  and  N_38
                            x       y       z     vdW  Elec       q    Type
                         _______ _______ _______ _____ _____    ______ ____

>  <TORSDO>
F 6

$$$$
