=
 OpenBabel10232411153D

 33 36  0  0  1  0  0  0  0  0999 V2000
  186.2500  178.6260  140.5710 N   0  0  0  0  0  0  0  0  0  0  0  0
  188.2300  177.7120  139.7300 O   0  0  0  0  0  0  0  0  0  0  0  0
  187.0760  178.1590  139.4940 C   0  0  0  0  0  0  0  0  0  0  0  0
  183.9050  178.7280  141.2210 C   0  0  0  0  0  2  0  0  0  0  0  0
  184.3380  178.8190  142.6850 C   0  0  2  0  0  3  0  0  0  0  0  0
  184.9830  179.3010  140.3100 C   0  0  0  0  0  2  0  0  0  0  0  0
  186.7510  178.6110  141.9430 C   0  0  0  0  0  2  0  0  0  0  0  0
  185.6740  178.0810  142.8910 C   0  0  1  0  0  3  0  0  0  0  0  0
  187.6460  177.5080  146.0960 C   0  0  0  0  0  0  0  0  0  0  0  0
  188.6510  176.8990  146.8200 C   0  0  0  0  0  3  0  0  0  0  0  0
  187.2580  177.3770  144.7480 C   0  0  0  0  0  0  0  0  0  0  0  0
  186.1570  178.1610  144.3150 C   0  0  0  0  0  0  0  0  0  0  0  0
  188.6140  177.3640  148.0920 N   0  0  0  0  0  2  0  0  0  0  0  0
  185.9180  179.1300  146.5580 C   0  0  0  0  0  3  0  0  0  0  0  0
  187.6000  178.2570  148.1860 C   0  0  0  0  0  3  0  0  0  0  0  0
  185.5010  179.0290  145.2230 C   0  0  0  0  0  3  0  0  0  0  0  0
  186.9980  178.3510  146.9550 C   0  0  0  0  0  0  0  0  0  0  0  0
  187.9380  176.4730  143.7900 C   0  0  0  0  0  3  0  0  0  0  0  0
  189.2170  176.5710  143.4480 C   0  0  0  0  0  2  0  0  0  0  0  0
  186.5860  178.1770  138.0800 C   0  0  0  0  0  2  0  0  0  0  0  0
  187.7320  178.4230  137.1010 C   0  0  0  0  0  2  0  0  0  0  0  0
  189.5840  176.9650  136.0460 C   0  0  2  0  0  3  0  0  0  0  0  0
  188.2680  174.9740  136.1600 C   0  0  0  0  0  2  0  0  0  0  0  0
  188.0990  177.1990  136.2520 C   0  0  1  0  0  3  0  0  0  0  0  0
  187.5100  176.0170  136.7210 O   0  0  0  0  0  0  0  0  0  0  0  0
  189.6260  175.5020  135.7290 C   0  0  0  0  0  2  0  0  0  0  0  0
  190.3050  177.1860  137.2230 O   0  0  0  0  0  1  0  0  0  0  0  0
  183.2490  178.2140  143.5680 C   0  0  0  0  0  2  0  0  0  0  0  0
  182.1410  179.2190  143.8360 C   0  0  0  0  0  2  0  0  0  0  0  0
  180.7850  178.5350  143.8380 C   0  0  0  0  0  2  0  0  0  0  0  0
  180.3860  178.2190  141.5090 O   0  0  0  0  0  1  0  0  0  0  0  0
  180.2030  180.3690  142.3670 N   0  0  0  0  0  1  0  0  0  0  0  0
  179.9830  178.9580  142.6220 C   0  0  2  0  0  3  0  0  0  0  0  0
  1  7  1  0  0  0  0
  3  2  2  0  0  0  0
  3  1  1  0  0  0  0
  4  5  1  0  0  0  0
  5  8  1  0  0  0  0
  5 28  1  1  0  0  0
  6  1  1  0  0  0  0
  6  4  1  0  0  0  0
  7  8  1  0  0  0  0
  8 12  1  1  0  0  0
  9 10  2  0  0  0  0
  9 17  1  0  0  0  0
 10 13  1  0  0  0  0
 11  9  1  0  0  0  0
 12 11  2  0  0  0  0
 12 16  1  0  0  0  0
 13 15  1  0  0  0  0
 14 17  1  0  0  0  0
 16 14  2  0  0  0  0
 17 15  2  0  0  0  0
 18 11  1  0  0  0  0
 19 18  2  0  0  0  0
 20  3  1  0  0  0  0
 21 20  1  0  0  0  0
 22 24  1  0  0  0  0
 22 27  1  1  0  0  0
 23 25  1  0  0  0  0
 24 25  1  0  0  0  0
 24 21  1  1  0  0  0
 26 22  1  0  0  0  0
 26 23  1  0  0  0  0
 28 29  1  0  0  0  0
 29 30  1  0  0  0  0
 32 33  1  0  0  0  0
 33 31  1  6  0  0  0
 33 30  1  0  0  0  0
M  END
>  <MODEL>
1

>  <REMARK>
 VINA RESULT:      -8.3      0.000      0.000
  Name = 
  9 active torsions:
  status: ('A' for Active; 'I' for Inactive)
    1  A    between atoms: C_7  and  C_8
    2  A    between atoms: C_7  and  C_24
    3  A    between atoms: C_9  and  C_24
    4  A    between atoms: C_10  and  C_11
    5  A    between atoms: C_14  and  C_33
    6  A    between atoms: C_17  and  C_27
    7  A    between atoms: C_20  and  C_32
    8  A    between atoms: C_31  and  C_32
    9  A    between atoms: C_31  and  C_33
                            x       y       z     vdW  Elec       q    Type
                         _______ _______ _______ _____ _____    ______ ____

>  <TORSDO>
F 9

$$$$
=
 OpenBabel10232411153D

 33 36  0  0  1  0  0  0  0  0999 V2000
  189.3230  177.0920  140.2680 N   0  0  0  0  0  0  0  0  0  0  0  0
  187.8400  177.3800  138.4830 O   0  0  0  0  0  0  0  0  0  0  0  0
  189.0250  177.1850  138.8670 C   0  0  0  0  0  0  0  0  0  0  0  0
  191.0960  177.6400  141.8440 C   0  0  0  0  0  2  0  0  0  0  0  0
  190.0580  177.6700  142.9670 C   0  0  2  0  0  3  0  0  0  0  0  0
  190.6500  176.7010  140.7310 C   0  0  0  0  0  2  0  0  0  0  0  0
  188.2520  177.1930  141.2560 C   0  0  0  0  0  2  0  0  0  0  0  0
  188.6870  178.0960  142.4110 C   0  0  1  0  0  3  0  0  0  0  0  0
  185.4220  178.7050  144.2720 C   0  0  0  0  0  0  0  0  0  0  0  0
  184.1350  179.1970  144.3530 C   0  0  0  0  0  3  0  0  0  0  0  0
  186.3620  178.7230  143.2230 C   0  0  0  0  0  0  0  0  0  0  0  0
  187.6210  178.1180  143.4760 C   0  0  0  0  0  0  0  0  0  0  0  0
  183.6430  178.9280  145.5860 N   0  0  0  0  0  2  0  0  0  0  0  0
  186.9230  177.5310  145.7550 C   0  0  0  0  0  3  0  0  0  0  0  0
  184.5970  178.2720  146.2880 C   0  0  0  0  0  3  0  0  0  0  0  0
  187.8870  177.5290  144.7360 C   0  0  0  0  0  3  0  0  0  0  0  0
  185.7000  178.1300  145.4810 C   0  0  0  0  0  0  0  0  0  0  0  0
  186.0940  179.3370  141.9010 C   0  0  0  0  0  3  0  0  0  0  0  0
  185.1550  178.9220  141.0600 C   0  0  0  0  0  2  0  0  0  0  0  0
  190.1050  177.0720  137.8370 C   0  0  0  0  0  2  0  0  0  0  0  0
  190.2370  175.6380  137.3300 C   0  0  0  0  0  2  0  0  0  0  0  0
  192.0220  173.8580  136.7720 C   0  0  2  0  0  3  0  0  0  0  0  0
  193.7920  175.1290  137.7520 C   0  0  0  0  0  2  0  0  0  0  0  0
  191.5650  174.9650  137.7020 C   0  0  1  0  0  3  0  0  0  0  0  0
  192.6100  175.8830  137.8690 O   0  0  0  0  0  0  0  0  0  0  0  0
  193.4980  173.8260  137.0300 C   0  0  0  0  0  2  0  0  0  0  0  0
  191.8130  174.1950  135.4320 O   0  0  0  0  0  1  0  0  0  0  0  0
  190.5220  178.6380  144.0520 C   0  0  0  0  0  2  0  0  0  0  0  0
  191.7310  178.0910  144.7930 C   0  0  0  0  0  2  0  0  0  0  0  0
  191.4500  176.6960  145.3230 C   0  0  0  0  0  2  0  0  0  0  0  0
  192.3000  175.6110  147.2690 O   0  0  0  0  0  1  0  0  0  0  0  0
  190.1810  176.5560  147.3820 N   0  0  0  0  0  1  0  0  0  0  0  0
  191.5210  176.6860  146.8380 C   0  0  2  0  0  3  0  0  0  0  0  0
  1  6  1  0  0  0  0
  1  7  1  0  0  0  0
  2  3  2  0  0  0  0
  3  1  1  0  0  0  0
  4  5  1  0  0  0  0
  5 28  1  1  0  0  0
  6  4  1  0  0  0  0
  7  8  1  0  0  0  0
  8  5  1  0  0  0  0
  8 12  1  1  0  0  0
  9 10  2  0  0  0  0
  9 17  1  0  0  0  0
 10 13  1  0  0  0  0
 11 12  2  0  0  0  0
 11  9  1  0  0  0  0
 12 16  1  0  0  0  0
 13 15  1  0  0  0  0
 16 14  2  0  0  0  0
 17 14  1  0  0  0  0
 17 15  2  0  0  0  0
 18 11  1  0  0  0  0
 19 18  2  0  0  0  0
 20  3  1  0  0  0  0
 21 20  1  0  0  0  0
 22 27  1  6  0  0  0
 22 26  1  0  0  0  0
 22 24  1  0  0  0  0
 23 25  1  0  0  0  0
 24 21  1  6  0  0  0
 24 25  1  0  0  0  0
 26 23  1  0  0  0  0
 28 29  1  0  0  0  0
 29 30  1  0  0  0  0
 30 33  1  0  0  0  0
 33 31  1  6  0  0  0
 33 32  1  0  0  0  0
M  END
>  <MODEL>
2

>  <REMARK>
 VINA RESULT:      -8.3      2.939      6.068
  Name = 
  9 active torsions:
  status: ('A' for Active; 'I' for Inactive)
    1  A    between atoms: C_7  and  C_8
    2  A    between atoms: C_7  and  C_24
    3  A    between atoms: C_9  and  C_24
    4  A    between atoms: C_10  and  C_11
    5  A    between atoms: C_14  and  C_33
    6  A    between atoms: C_17  and  C_27
    7  A    between atoms: C_20  and  C_32
    8  A    between atoms: C_31  and  C_32
    9  A    between atoms: C_31  and  C_33
                            x       y       z     vdW  Elec       q    Type
                         _______ _______ _______ _____ _____    ______ ____

>  <TORSDO>
F 9

$$$$
=
 OpenBabel10232411153D

 33 36  0  0  1  0  0  0  0  0999 V2000
  186.3270  178.6270  140.5180 N   0  0  0  0  0  0  0  0  0  0  0  0
  188.3110  177.7060  139.6920 O   0  0  0  0  0  0  0  0  0  0  0  0
  187.1630  178.1630  139.4460 C   0  0  0  0  0  0  0  0  0  0  0  0
  183.9760  178.7400  141.1420 C   0  0  0  0  0  2  0  0  0  0  0  0
  184.3930  178.8170  142.6120 C   0  0  2  0  0  3  0  0  0  0  0  0
  185.0680  179.3130  140.2470 C   0  0  0  0  0  2  0  0  0  0  0  0
  186.8130  178.5990  141.8940 C   0  0  0  0  0  2  0  0  0  0  0  0
  185.7210  178.0680  142.8260 C   0  0  1  0  0  3  0  0  0  0  0  0
  187.6500  177.4540  146.0500 C   0  0  0  0  0  0  0  0  0  0  0  0
  188.6400  176.8310  146.7820 C   0  0  0  0  0  3  0  0  0  0  0  0
  187.2760  177.3360  144.6970 C   0  0  0  0  0  0  0  0  0  0  0  0
  186.1890  178.1350  144.2560 C   0  0  0  0  0  0  0  0  0  0  0  0
  188.5930  177.2870  148.0560 N   0  0  0  0  0  2  0  0  0  0  0  0
  185.9350  179.0930  146.5030 C   0  0  0  0  0  3  0  0  0  0  0  0
  187.5890  178.1910  148.1450 C   0  0  0  0  0  3  0  0  0  0  0  0
  185.5320  179.0040  145.1620 C   0  0  0  0  0  3  0  0  0  0  0  0
  187.0010  178.2990  146.9070 C   0  0  0  0  0  0  0  0  0  0  0  0
  187.9570  176.4300  143.7420 C   0  0  0  0  0  3  0  0  0  0  0  0
  189.2300  176.5440  143.3800 C   0  0  0  0  0  2  0  0  0  0  0  0
  186.6890  178.1950  138.0270 C   0  0  0  0  0  2  0  0  0  0  0  0
  186.5680  176.7860  137.4520 C   0  0  0  0  0  2  0  0  0  0  0  0
  184.9470  174.9690  136.5920 C   0  0  2  0  0  3  0  0  0  0  0  0
  183.0510  175.9700  137.6440 C   0  0  0  0  0  2  0  0  0  0  0  0
  185.1460  176.4130  137.0110 C   0  0  1  0  0  3  0  0  0  0  0  0
  184.1770  176.7510  137.9650 O   0  0  0  0  0  0  0  0  0  0  0  0
  183.4720  174.7900  136.7870 C   0  0  0  0  0  2  0  0  0  0  0  0
  185.6190  174.0900  137.4450 O   0  0  0  0  0  1  0  0  0  0  0  0
  183.2910  178.2130  143.4770 C   0  0  0  0  0  2  0  0  0  0  0  0
  182.2240  179.2450  143.8030 C   0  0  0  0  0  2  0  0  0  0  0  0
  180.8530  178.5950  143.8790 C   0  0  0  0  0  2  0  0  0  0  0  0
  180.3400  178.3950  141.5590 O   0  0  0  0  0  1  0  0  0  0  0  0
  180.1720  180.4940  142.5380 N   0  0  0  0  0  1  0  0  0  0  0  0
  179.9850  179.0670  142.7280 C   0  0  2  0  0  3  0  0  0  0  0  0
  1  7  1  0  0  0  0
  3  2  2  0  0  0  0
  3  1  1  0  0  0  0
  4  5  1  0  0  0  0
  5  8  1  0  0  0  0
  5 28  1  1  0  0  0
  6  1  1  0  0  0  0
  6  4  1  0  0  0  0
  7  8  1  0  0  0  0
  8 12  1  1  0  0  0
  9 10  2  0  0  0  0
  9 17  1  0  0  0  0
 10 13  1  0  0  0  0
 11  9  1  0  0  0  0
 12 11  2  0  0  0  0
 12 16  1  0  0  0  0
 13 15  1  0  0  0  0
 14 17  1  0  0  0  0
 16 14  2  0  0  0  0
 17 15  2  0  0  0  0
 18 11  1  0  0  0  0
 19 18  2  0  0  0  0
 20  3  1  0  0  0  0
 21 20  1  0  0  0  0
 22 26  1  0  0  0  0
 22 24  1  0  0  0  0
 22 27  1  1  0  0  0
 23 25  1  0  0  0  0
 24 21  1  1  0  0  0
 24 25  1  0  0  0  0
 26 23  1  0  0  0  0
 28 29  1  0  0  0  0
 29 30  1  0  0  0  0
 32 33  1  0  0  0  0
 33 31  1  6  0  0  0
 33 30  1  0  0  0  0
M  END
>  <MODEL>
3

>  <REMARK>
 VINA RESULT:      -8.1      1.572      2.166
  Name = 
  9 active torsions:
  status: ('A' for Active; 'I' for Inactive)
    1  A    between atoms: C_7  and  C_8
    2  A    between atoms: C_7  and  C_24
    3  A    between atoms: C_9  and  C_24
    4  A    between atoms: C_10  and  C_11
    5  A    between atoms: C_14  and  C_33
    6  A    between atoms: C_17  and  C_27
    7  A    between atoms: C_20  and  C_32
    8  A    between atoms: C_31  and  C_32
    9  A    between atoms: C_31  and  C_33
                            x       y       z     vdW  Elec       q    Type
                         _______ _______ _______ _____ _____    ______ ____

>  <TORSDO>
F 9

$$$$
=
 OpenBabel10232411153D

 33 36  0  0  1  0  0  0  0  0999 V2000
  189.2890  177.1720  140.4060 N   0  0  0  0  0  0  0  0  0  0  0  0
  187.9110  177.7830  138.6180 O   0  0  0  0  0  0  0  0  0  0  0  0
  189.0540  177.4270  139.0120 C   0  0  0  0  0  0  0  0  0  0  0  0
  191.0520  177.3770  142.0730 C   0  0  0  0  0  2  0  0  0  0  0  0
  189.9830  177.4160  143.1660 C   0  0  2  0  0  3  0  0  0  0  0  0
  190.5500  176.5980  140.8630 C   0  0  0  0  0  2  0  0  0  0  0  0
  188.2010  177.2980  141.3700 C   0  0  0  0  0  2  0  0  0  0  0  0
  188.6860  178.0390  142.6180 C   0  0  1  0  0  3  0  0  0  0  0  0
  185.3820  178.7070  144.3870 C   0  0  0  0  0  0  0  0  0  0  0  0
  184.1050  179.2260  144.4340 C   0  0  0  0  0  3  0  0  0  0  0  0
  186.3530  178.7110  143.3660 C   0  0  0  0  0  0  0  0  0  0  0  0
  187.5910  178.0780  143.6510 C   0  0  0  0  0  0  0  0  0  0  0  0
  183.5710  178.9620  145.6500 N   0  0  0  0  0  2  0  0  0  0  0  0
  186.8150  177.4950  145.9060 C   0  0  0  0  0  3  0  0  0  0  0  0
  184.4910  178.2830  146.3770 C   0  0  0  0  0  3  0  0  0  0  0  0
  187.8080  177.4770  144.9160 C   0  0  0  0  0  3  0  0  0  0  0  0
  185.6130  178.1220  145.6010 C   0  0  0  0  0  0  0  0  0  0  0  0
  186.1360  179.3360  142.0400 C   0  0  0  0  0  3  0  0  0  0  0  0
  185.1320  179.0330  141.2250 C   0  0  0  0  0  2  0  0  0  0  0  0
  190.1530  177.2910  138.0050 C   0  0  0  0  0  2  0  0  0  0  0  0
  190.0530  175.9670  137.2520 C   0  0  0  0  0  2  0  0  0  0  0  0
  188.2390  175.2310  135.5680 C   0  0  2  0  0  3  0  0  0  0  0  0
  188.2450  177.3350  134.4360 C   0  0  0  0  0  2  0  0  0  0  0  0
  189.4550  176.0950  135.8450 C   0  0  1  0  0  3  0  0  0  0  0  0
  189.1640  177.4210  135.4970 O   0  0  0  0  0  0  0  0  0  0  0  0
  187.5900  175.9650  134.4340 C   0  0  0  0  0  2  0  0  0  0  0  0
  187.3600  175.2210  136.6540 O   0  0  0  0  0  1  0  0  0  0  0  0
  190.5080  178.2240  144.3500 C   0  0  0  0  0  2  0  0  0  0  0  0
  191.3860  177.3700  145.2490 C   0  0  0  0  0  2  0  0  0  0  0  0
  190.6960  177.0990  146.5740 C   0  0  0  0  0  2  0  0  0  0  0  0
  192.3690  176.9720  148.2680 O   0  0  0  0  0  1  0  0  0  0  0  0
  192.3890  175.3670  146.5900 N   0  0  0  0  0  1  0  0  0  0  0  0
  191.5560  176.1980  147.4400 C   0  0  2  0  0  3  0  0  0  0  0  0
  1  6  1  0  0  0  0
  1  7  1  0  0  0  0
  2  3  2  0  0  0  0
  3  1  1  0  0  0  0
  4  5  1  0  0  0  0
  5 28  1  1  0  0  0
  6  4  1  0  0  0  0
  7  8  1  0  0  0  0
  8  5  1  0  0  0  0
  8 12  1  1  0  0  0
  9 10  2  0  0  0  0
  9 17  1  0  0  0  0
 10 13  1  0  0  0  0
 11 12  2  0  0  0  0
 11  9  1  0  0  0  0
 12 16  1  0  0  0  0
 13 15  1  0  0  0  0
 16 14  2  0  0  0  0
 17 14  1  0  0  0  0
 17 15  2  0  0  0  0
 18 11  1  0  0  0  0
 19 18  2  0  0  0  0
 20  3  1  0  0  0  0
 21 20  1  0  0  0  0
 22 24  1  0  0  0  0
 22 27  1  1  0  0  0
 23 25  1  0  0  0  0
 24 21  1  1  0  0  0
 25 24  1  0  0  0  0
 26 23  1  0  0  0  0
 26 22  1  0  0  0  0
 28 29  1  0  0  0  0
 29 30  1  0  0  0  0
 30 33  1  0  0  0  0
 33 32  1  6  0  0  0
 33 31  1  0  0  0  0
M  END
>  <MODEL>
4

>  <REMARK>
 VINA RESULT:      -7.9      2.677      5.969
  Name = 
  9 active torsions:
  status: ('A' for Active; 'I' for Inactive)
    1  A    between atoms: C_7  and  C_8
    2  A    between atoms: C_7  and  C_24
    3  A    between atoms: C_9  and  C_24
    4  A    between atoms: C_10  and  C_11
    5  A    between atoms: C_14  and  C_33
    6  A    between atoms: C_17  and  C_27
    7  A    between atoms: C_20  and  C_32
    8  A    between atoms: C_31  and  C_32
    9  A    between atoms: C_31  and  C_33
                            x       y       z     vdW  Elec       q    Type
                         _______ _______ _______ _____ _____    ______ ____

>  <TORSDO>
F 9

$$$$
=
 OpenBabel10232411153D

 33 36  0  0  1  0  0  0  0  0999 V2000
  189.2950  177.5130  140.2000 N   0  0  0  0  0  0  0  0  0  0  0  0
  191.0840  176.0810  139.7340 O   0  0  0  0  0  0  0  0  0  0  0  0
  190.1320  176.7790  139.2930 C   0  0  0  0  0  0  0  0  0  0  0  0
  186.9820  178.2350  140.4430 C   0  0  0  0  0  2  0  0  0  0  0  0
  187.1940  178.3260  141.9550 C   0  0  2  0  0  3  0  0  0  0  0  0
  188.2980  178.4570  139.7070 C   0  0  0  0  0  2  0  0  0  0  0  0
  189.5590  177.4790  141.6350 C   0  0  0  0  0  2  0  0  0  0  0  0
  188.2500  177.3010  142.4070 C   0  0  1  0  0  3  0  0  0  0  0  0
  189.9610  177.1390  145.8040 C   0  0  0  0  0  0  0  0  0  0  0  0
  191.0550  176.9040  146.6100 C   0  0  0  0  0  3  0  0  0  0  0  0
  189.7980  177.0560  144.4070 C   0  0  0  0  0  0  0  0  0  0  0  0
  188.5130  177.3680  143.8880 C   0  0  0  0  0  0  0  0  0  0  0  0
  190.7010  177.1210  147.8990 N   0  0  0  0  0  2  0  0  0  0  0  0
  187.6680  177.8130  146.1490 C   0  0  0  0  0  3  0  0  0  0  0  0
  189.3980  177.4900  147.9230 C   0  0  0  0  0  3  0  0  0  0  0  0
  187.4650  177.7430  144.7630 C   0  0  0  0  0  3  0  0  0  0  0  0
  188.9340  177.5030  146.6300 C   0  0  0  0  0  0  0  0  0  0  0  0
  190.8880  176.6650  143.4820 C   0  0  0  0  0  3  0  0  0  0  0  0
  191.6560  175.5940  143.6440 C   0  0  0  0  0  2  0  0  0  0  0  0
  189.8860  176.8110  137.8170 C   0  0  0  0  0  2  0  0  0  0  0  0
  191.1670  176.5260  137.0360 C   0  0  0  0  0  2  0  0  0  0  0  0
  192.3150  174.3360  136.2920 C   0  0  2  0  0  3  0  0  0  0  0  0
  190.2380  173.2080  135.9420 C   0  0  0  0  0  2  0  0  0  0  0  0
  191.1090  175.2500  136.1870 C   0  0  1  0  0  3  0  0  0  0  0  0
  189.9460  174.5020  136.4120 O   0  0  0  0  0  0  0  0  0  0  0  0
  191.7430  173.0180  135.8660 C   0  0  0  0  0  2  0  0  0  0  0  0
  192.7580  174.2230  137.6120 O   0  0  0  0  0  1  0  0  0  0  0  0
  185.8650  178.0740  142.6620 C   0  0  0  0  0  2  0  0  0  0  0  0
  184.9200  179.2520  142.4880 C   0  0  0  0  0  2  0  0  0  0  0  0
  184.4900  179.8000  143.8370 C   0  0  0  0  0  2  0  0  0  0  0  0
  182.4300  178.7730  144.4590 O   0  0  0  0  0  1  0  0  0  0  0  0
  184.1080  178.9150  146.0590 N   0  0  0  0  0  1  0  0  0  0  0  0
  183.8110  178.7160  144.6520 C   0  0  2  0  0  3  0  0  0  0  0  0
  1  7  1  0  0  0  0
  3  2  2  0  0  0  0
  3  1  1  0  0  0  0
  4  5  1  0  0  0  0
  5  8  1  0  0  0  0
  5 28  1  1  0  0  0
  6  1  1  0  0  0  0
  6  4  1  0  0  0  0
  7  8  1  0  0  0  0
  8 12  1  1  0  0  0
  9 10  2  0  0  0  0
  9 17  1  0  0  0  0
 10 13  1  0  0  0  0
 11  9  1  0  0  0  0
 12 11  2  0  0  0  0
 12 16  1  0  0  0  0
 13 15  1  0  0  0  0
 14 17  1  0  0  0  0
 16 14  2  0  0  0  0
 17 15  2  0  0  0  0
 18 19  2  0  0  0  0
 18 11  1  0  0  0  0
 20  3  1  0  0  0  0
 21 20  1  0  0  0  0
 22 27  1  1  0  0  0
 23 25  1  0  0  0  0
 24 22  1  0  0  0  0
 24 25  1  0  0  0  0
 24 21  1  1  0  0  0
 26 23  1  0  0  0  0
 26 22  1  0  0  0  0
 29 28  1  0  0  0  0
 29 30  1  0  0  0  0
 30 33  1  0  0  0  0
 33 31  1  1  0  0  0
 33 32  1  0  0  0  0
M  END
>  <MODEL>
5

>  <REMARK>
 VINA RESULT:      -7.6      2.337      3.194
  Name = 
  9 active torsions:
  status: ('A' for Active; 'I' for Inactive)
    1  A    between atoms: C_7  and  C_8
    2  A    between atoms: C_7  and  C_24
    3  A    between atoms: C_9  and  C_24
    4  A    between atoms: C_10  and  C_11
    5  A    between atoms: C_14  and  C_33
    6  A    between atoms: C_17  and  C_27
    7  A    between atoms: C_20  and  C_32
    8  A    between atoms: C_31  and  C_32
    9  A    between atoms: C_31  and  C_33
                            x       y       z     vdW  Elec       q    Type
                         _______ _______ _______ _____ _____    ______ ____

>  <TORSDO>
F 9

$$$$
=
 OpenBabel10232411153D

 33 36  0  0  1  0  0  0  0  0999 V2000
  189.6530  177.3350  142.2950 N   0  0  0  0  0  0  0  0  0  0  0  0
  191.2980  176.7200  143.8390 O   0  0  0  0  0  0  0  0  0  0  0  0
  190.2440  177.3690  143.6030 C   0  0  0  0  0  0  0  0  0  0  0  0
  188.4110  178.7660  140.7650 C   0  0  0  0  0  2  0  0  0  0  0  0
  188.9120  177.9140  139.5970 C   0  0  2  0  0  3  0  0  0  0  0  0
  188.3490  177.9370  142.0420 C   0  0  0  0  0  2  0  0  0  0  0  0
  190.2550  176.5270  141.2370 C   0  0  0  0  0  2  0  0  0  0  0  0
  190.2920  177.3180  139.9280 C   0  0  1  0  0  3  0  0  0  0  0  0
  192.6070  175.6390  137.4150 C   0  0  0  0  0  0  0  0  0  0  0  0
  193.8440  175.4380  136.8390 C   0  0  0  0  0  3  0  0  0  0  0  0
  192.1950  176.4800  138.4670 C   0  0  0  0  0  0  0  0  0  0  0  0
  190.8190  176.4480  138.8170 C   0  0  0  0  0  0  0  0  0  0  0  0
  193.7200  174.5200  135.8510 N   0  0  0  0  0  0  0  0  0  0  0  0
  190.3790  174.7730  137.0780 C   0  0  0  0  0  2  0  0  0  0  0  0
  192.4230  174.1360  135.7900 C   0  0  0  0  0  3  0  0  0  0  0  0
  189.9280  175.5950  138.1210 C   0  0  0  0  0  3  0  0  0  0  0  0
  191.7290  174.8250  136.7560 C   0  0  0  0  0  0  0  0  0  0  0  0
  193.1190  177.3760  139.2020 C   0  0  0  0  0  3  0  0  0  0  0  0
  193.8520  177.0020  140.2440 C   0  0  0  0  0  2  0  0  0  0  0  0
  189.6360  178.1800  144.7040 C   0  0  0  0  0  2  0  0  0  0  0  0
  189.0220  177.2850  145.7780 C   0  0  0  0  0  2  0  0  0  0  0  0
  187.0320  177.7630  147.3510 C   0  0  2  0  0  3  0  0  0  0  0  0
  185.7340  178.7780  145.6220 C   0  0  0  0  0  2  0  0  0  0  0  0
  187.5070  177.4600  145.9430 C   0  0  1  0  0  3  0  0  0  0  0  0
  186.9720  178.4110  145.0640 O   0  0  0  0  0  0  0  0  0  0  0  0
  185.7090  178.4190  147.0970 C   0  0  0  0  0  2  0  0  0  0  0  0
  187.8690  178.6820  147.9880 O   0  0  0  0  0  1  0  0  0  0  0  0
  188.9880  178.7790  138.3430 C   0  0  0  0  0  2  0  0  0  0  0  0
  187.9910  178.3120  137.2940 C   0  0  0  0  0  2  0  0  0  0  0  0
  186.8440  177.5580  137.9430 C   0  0  0  0  0  2  0  0  0  0  0  0
  185.4680  179.1580  139.0530 O   0  0  0  0  0  1  0  0  0  0  0  0
  184.4260  177.5080  137.7940 N   0  0  0  0  0  1  0  0  0  0  0  0
  185.5760  178.3890  137.8940 C   0  0  2  0  0  3  0  0  0  0  0  0
  1  3  1  0  0  0  0
  3  2  2  0  0  0  0
  3 20  1  0  0  0  0
  4  6  1  0  0  0  0
  5 28  1  6  0  0  0
  5  8  1  0  0  0  0
  5  4  1  0  0  0  0
  6  1  1  0  0  0  0
  7  1  1  0  0  0  0
  8 12  1  6  0  0  0
  8  7  1  0  0  0  0
  9 11  2  0  0  0  0
 10  9  1  0  0  0  0
 11 12  1  0  0  0  0
 11 18  1  0  0  0  0
 13 10  2  0  0  0  0
 14 16  1  0  0  0  0
 15 13  1  0  0  0  0
 15 17  2  0  0  0  0
 16 12  2  0  0  0  0
 17 14  1  0  0  0  0
 17  9  1  0  0  0  0
 18 19  2  0  0  0  0
 20 21  1  0  0  0  0
 22 27  1  6  0  0  0
 23 26  1  0  0  0  0
 24 21  1  1  0  0  0
 24 22  1  0  0  0  0
 25 23  1  0  0  0  0
 25 24  1  0  0  0  0
 26 22  1  0  0  0  0
 29 30  1  0  0  0  0
 29 28  1  0  0  0  0
 33 32  1  1  0  0  0
 33 30  1  0  0  0  0
 33 31  1  0  0  0  0
M  END
>  <MODEL>
6

>  <REMARK>
 VINA RESULT:      -7.6      3.628      8.730
  Name = 
  9 active torsions:
  status: ('A' for Active; 'I' for Inactive)
    1  A    between atoms: C_7  and  C_8
    2  A    between atoms: C_7  and  C_24
    3  A    between atoms: C_9  and  C_24
    4  A    between atoms: C_10  and  C_11
    5  A    between atoms: C_14  and  C_33
    6  A    between atoms: C_17  and  C_27
    7  A    between atoms: C_20  and  C_32
    8  A    between atoms: C_31  and  C_32
    9  A    between atoms: C_31  and  C_33
                            x       y       z     vdW  Elec       q    Type
                         _______ _______ _______ _____ _____    ______ ____

>  <TORSDO>
F 9

$$$$
=
 OpenBabel10232411153D

 33 36  0  0  1  0  0  0  0  0999 V2000
  189.3650  177.7560  140.1290 N   0  0  0  0  0  0  0  0  0  0  0  0
  191.2380  176.4400  139.6580 O   0  0  0  0  0  0  0  0  0  0  0  0
  190.2620  177.1040  139.2180 C   0  0  0  0  0  0  0  0  0  0  0  0
  187.0110  178.3460  140.3370 C   0  0  0  0  0  2  0  0  0  0  0  0
  187.1790  178.3870  141.8570 C   0  0  2  0  0  3  0  0  0  0  0  0
  188.3310  178.6660  139.6460 C   0  0  0  0  0  2  0  0  0  0  0  0
  189.5940  177.6780  141.5690 C   0  0  0  0  0  2  0  0  0  0  0  0
  188.2760  177.4010  142.2970 C   0  0  1  0  0  3  0  0  0  0  0  0
  189.8970  177.1550  145.7320 C   0  0  0  0  0  0  0  0  0  0  0  0
  190.9740  176.9150  146.5610 C   0  0  0  0  0  3  0  0  0  0  0  0
  189.7740  177.1180  144.3300 C   0  0  0  0  0  0  0  0  0  0  0  0
  188.4980  177.4210  143.7860 C   0  0  0  0  0  0  0  0  0  0  0  0
  190.5800  177.0790  147.8460 N   0  0  0  0  0  2  0  0  0  0  0  0
  187.5820  177.7710  146.0370 C   0  0  0  0  0  3  0  0  0  0  0  0
  189.2690  177.4200  147.8460 C   0  0  0  0  0  3  0  0  0  0  0  0
  187.4180  177.7440  144.6440 C   0  0  0  0  0  3  0  0  0  0  0  0
  188.8410  177.4690  146.5420 C   0  0  0  0  0  0  0  0  0  0  0  0
  190.8970  176.7810  143.4230 C   0  0  0  0  0  3  0  0  0  0  0  0
  191.6040  175.6590  143.4940 C   0  0  0  0  0  2  0  0  0  0  0  0
  190.0530  177.1820  137.7380 C   0  0  0  0  0  2  0  0  0  0  0  0
  189.3050  175.9570  137.2190 C   0  0  0  0  0  2  0  0  0  0  0  0
  187.2360  176.8430  135.9530 C   0  0  2  0  0  3  0  0  0  0  0  0
  185.8000  175.1540  136.8420 C   0  0  0  0  0  2  0  0  0  0  0  0
  187.7810  176.1290  137.1750 C   0  0  1  0  0  3  0  0  0  0  0  0
  187.0930  174.9200  137.3450 O   0  0  0  0  0  0  0  0  0  0  0  0
  185.8190  176.3570  135.9160 C   0  0  0  0  0  2  0  0  0  0  0  0
  187.8800  176.4240  134.7860 O   0  0  0  0  0  1  0  0  0  0  0  0
  185.8480  178.0370  142.5170 C   0  0  0  0  0  2  0  0  0  0  0  0
  184.8500  179.1750  142.3720 C   0  0  0  0  0  2  0  0  0  0  0  0
  184.4930  179.7530  143.7300 C   0  0  0  0  0  2  0  0  0  0  0  0
  182.4150  178.7950  144.3990 O   0  0  0  0  0  1  0  0  0  0  0  0
  184.1130  178.9310  145.9760 N   0  0  0  0  0  1  0  0  0  0  0  0
  183.7950  178.7060  144.5780 C   0  0  2  0  0  3  0  0  0  0  0  0
  1  7  1  0  0  0  0
  3  2  2  0  0  0  0
  3  1  1  0  0  0  0
  4  5  1  0  0  0  0
  5  8  1  0  0  0  0
  5 28  1  1  0  0  0
  6  1  1  0  0  0  0
  6  4  1  0  0  0  0
  7  8  1  0  0  0  0
  8 12  1  1  0  0  0
  9 17  1  0  0  0  0
  9 10  2  0  0  0  0
 10 13  1  0  0  0  0
 11  9  1  0  0  0  0
 12 11  2  0  0  0  0
 12 16  1  0  0  0  0
 14 17  1  0  0  0  0
 15 13  1  0  0  0  0
 16 14  2  0  0  0  0
 17 15  2  0  0  0  0
 18 19  2  0  0  0  0
 18 11  1  0  0  0  0
 20  3  1  0  0  0  0
 21 20  1  0  0  0  0
 22 27  1  6  0  0  0
 22 24  1  0  0  0  0
 23 25  1  0  0  0  0
 24 21  1  6  0  0  0
 24 25  1  0  0  0  0
 26 22  1  0  0  0  0
 26 23  1  0  0  0  0
 29 28  1  0  0  0  0
 29 30  1  0  0  0  0
 30 33  1  0  0  0  0
 33 31  1  1  0  0  0
 33 32  1  0  0  0  0
M  END
>  <MODEL>
7

>  <REMARK>
 VINA RESULT:      -7.6      2.172      3.026
  Name = 
  9 active torsions:
  status: ('A' for Active; 'I' for Inactive)
    1  A    between atoms: C_7  and  C_8
    2  A    between atoms: C_7  and  C_24
    3  A    between atoms: C_9  and  C_24
    4  A    between atoms: C_10  and  C_11
    5  A    between atoms: C_14  and  C_33
    6  A    between atoms: C_17  and  C_27
    7  A    between atoms: C_20  and  C_32
    8  A    between atoms: C_31  and  C_32
    9  A    between atoms: C_31  and  C_33
                            x       y       z     vdW  Elec       q    Type
                         _______ _______ _______ _____ _____    ______ ____

>  <TORSDO>
F 9

$$$$
=
 OpenBabel10232411153D

 33 36  0  0  1  0  0  0  0  0999 V2000
  187.9860  178.0590  140.8790 N   0  0  0  0  0  0  0  0  0  0  0  0
  190.0230  176.9730  140.5080 O   0  0  0  0  0  0  0  0  0  0  0  0
  188.9730  177.4690  140.0190 C   0  0  0  0  0  0  0  0  0  0  0  0
  185.5730  178.3430  141.0360 C   0  0  0  0  0  2  0  0  0  0  0  0
  185.7140  178.5120  142.5500 C   0  0  2  0  0  3  0  0  0  0  0  0
  186.8470  178.7860  140.3290 C   0  0  0  0  0  2  0  0  0  0  0  0
  188.2050  178.1130  142.3210 C   0  0  0  0  0  2  0  0  0  0  0  0
  186.9270  177.7150  143.0620 C   0  0  1  0  0  3  0  0  0  0  0  0
  188.4290  177.6030  146.5580 C   0  0  0  0  0  0  0  0  0  0  0  0
  189.4380  177.2870  147.4450 C   0  0  0  0  0  3  0  0  0  0  0  0
  188.3240  177.4270  145.1650 C   0  0  0  0  0  0  0  0  0  0  0  0
  187.1250  177.8690  144.5470 C   0  0  0  0  0  0  0  0  0  0  0  0
  189.0570  177.6590  148.6900 N   0  0  0  0  0  2  0  0  0  0  0  0
  186.2440  178.6170  146.7130 C   0  0  0  0  0  3  0  0  0  0  0  0
  187.8210  178.2060  148.6070 C   0  0  0  0  0  3  0  0  0  0  0  0
  186.1000  178.4590  145.3270 C   0  0  0  0  0  3  0  0  0  0  0  0
  187.4270  178.1750  147.2910 C   0  0  0  0  0  0  0  0  0  0  0  0
  189.3910  176.8100  144.3400 C   0  0  0  0  0  3  0  0  0  0  0  0
  190.6320  177.2740  144.2550 C   0  0  0  0  0  2  0  0  0  0  0  0
  188.7740  177.4150  138.5370 C   0  0  0  0  0  2  0  0  0  0  0  0
  190.0910  177.6280  137.7930 C   0  0  0  0  0  2  0  0  0  0  0  0
  192.1570  176.1680  137.2770 C   0  0  2  0  0  3  0  0  0  0  0  0
  190.8980  174.1390  137.2990 C   0  0  0  0  0  2  0  0  0  0  0  0
  190.6570  176.3540  137.1530 C   0  0  1  0  0  3  0  0  0  0  0  0
  190.0140  175.1910  137.5970 O   0  0  0  0  0  0  0  0  0  0  0  0
  192.3010  174.6860  137.1090 C   0  0  0  0  0  2  0  0  0  0  0  0
  192.6140  176.5180  138.5500 O   0  0  0  0  0  1  0  0  0  0  0  0
  184.4330  178.0360  143.2280 C   0  0  0  0  0  2  0  0  0  0  0  0
  183.2210  178.7860  142.6980 C   0  0  0  0  0  2  0  0  0  0  0  0
  182.2000  179.0030  143.8000 C   0  0  0  0  0  2  0  0  0  0  0  0
  179.9830  178.1470  143.9920 O   0  0  0  0  0  1  0  0  0  0  0  0
  180.8410  178.4880  141.8610 N   0  0  0  0  0  1  0  0  0  0  0  0
  180.7960  178.9820  143.2250 C   0  0  2  0  0  3  0  0  0  0  0  0
  1  7  1  0  0  0  0
  3  2  2  0  0  0  0
  3  1  1  0  0  0  0
  4  5  1  0  0  0  0
  5  8  1  0  0  0  0
  5 28  1  1  0  0  0
  6  1  1  0  0  0  0
  6  4  1  0  0  0  0
  7  8  1  0  0  0  0
  8 12  1  1  0  0  0
  9 17  1  0  0  0  0
  9 10  2  0  0  0  0
 10 13  1  0  0  0  0
 11  9  1  0  0  0  0
 12 11  2  0  0  0  0
 12 16  1  0  0  0  0
 14 17  1  0  0  0  0
 15 13  1  0  0  0  0
 16 14  2  0  0  0  0
 17 15  2  0  0  0  0
 18 11  1  0  0  0  0
 19 18  2  0  0  0  0
 20  3  1  0  0  0  0
 21 20  1  0  0  0  0
 22 27  1  1  0  0  0
 23 25  1  0  0  0  0
 24 22  1  0  0  0  0
 24 25  1  0  0  0  0
 24 21  1  1  0  0  0
 26 22  1  0  0  0  0
 26 23  1  0  0  0  0
 29 28  1  0  0  0  0
 29 30  1  0  0  0  0
 33 32  1  6  0  0  0
 33 30  1  0  0  0  0
 33 31  1  0  0  0  0
M  END
>  <MODEL>
8

>  <REMARK>
 VINA RESULT:      -7.5      1.645      1.894
  Name = 
  9 active torsions:
  status: ('A' for Active; 'I' for Inactive)
    1  A    between atoms: C_7  and  C_8
    2  A    between atoms: C_7  and  C_24
    3  A    between atoms: C_9  and  C_24
    4  A    between atoms: C_10  and  C_11
    5  A    between atoms: C_14  and  C_33
    6  A    between atoms: C_17  and  C_27
    7  A    between atoms: C_20  and  C_32
    8  A    between atoms: C_31  and  C_32
    9  A    between atoms: C_31  and  C_33
                            x       y       z     vdW  Elec       q    Type
                         _______ _______ _______ _____ _____    ______ ____

>  <TORSDO>
F 9

$$$$
=
 OpenBabel10232411153D

 33 36  0  0  1  0  0  0  0  0999 V2000
  187.1860  178.4290  141.2730 N   0  0  0  0  0  0  0  0  0  0  0  0
  185.7940  178.9420  139.4650 O   0  0  0  0  0  0  0  0  0  0  0  0
  185.9150  178.7900  140.7100 C   0  0  0  0  0  0  0  0  0  0  0  0
  188.1170  177.1300  143.1110 C   0  0  0  0  0  2  0  0  0  0  0  0
  189.4190  176.9880  142.3200 C   0  0  2  0  0  3  0  0  0  0  0  0
  187.3920  178.4110  142.7170 C   0  0  0  0  0  2  0  0  0  0  0  0
  188.3520  178.2630  140.4100 C   0  0  0  0  0  2  0  0  0  0  0  0
  189.1270  177.0060  140.8090 C   0  0  1  0  0  3  0  0  0  0  0  0
  191.5630  176.2340  137.9870 C   0  0  1  0  0  3  0  0  0  0  0  0
  191.8670  175.7300  136.7390 C   0  0  0  0  0  3  0  0  0  0  0  0
  190.3460  176.3050  138.6920 C   0  0  0  0  0  0  0  0  0  0  0  0
  190.3820  176.8930  139.9840 C   0  0  0  0  0  0  0  0  0  0  0  0
  193.1920  175.8960  136.5130 N   0  0  0  0  0  0  0  0  0  0  0  0
  192.7960  177.2880  139.7750 C   0  0  0  0  0  3  0  0  0  0  0  0
  193.7340  176.4960  137.5990 C   0  0  0  0  0  3  0  0  0  0  0  0
  191.6050  177.3780  140.5100 C   0  0  0  0  0  3  0  0  0  0  0  0
  192.7320  176.7080  138.5150 C   0  0  0  0  0  0  0  0  0  0  0  0
  189.0620  175.8000  138.1510 C   0  0  0  0  0  3  0  0  0  0  0  0
  188.3370  176.4300  137.2340 C   0  0  0  0  0  2  0  0  0  0  0  0
  184.7110  178.9770  141.5790 C   0  0  0  0  0  2  0  0  0  0  0  0
  183.7060  177.8440  141.3840 C   0  0  0  0  0  2  0  0  0  0  0  0
  181.1930  178.4260  141.4720 C   0  0  2  0  0  3  0  0  0  0  0  0
  181.3310  179.9030  139.6000 C   0  0  0  0  0  2  0  0  0  0  0  0
  182.4390  178.2580  140.6250 C   0  0  1  0  0  3  0  0  0  0  0  0
  182.6240  179.4100  139.8480 O   0  0  0  0  0  0  0  0  0  0  0  0
  180.3610  179.3380  140.6220 C   0  0  0  0  0  2  0  0  0  0  0  0
  181.4750  179.0760  142.6770 O   0  0  0  0  0  1  0  0  0  0  0  0
  190.1060  175.6840  142.7190 C   0  0  0  0  0  2  0  0  0  0  0  0
  191.2640  175.9440  143.6680 C   0  0  0  0  0  2  0  0  0  0  0  0
  191.1780  177.3440  144.2490 C   0  0  0  0  0  2  0  0  0  0  0  0
  191.9820  176.1850  146.1710 O   0  0  0  0  0  1  0  0  0  0  0  0
  189.8830  177.1710  146.2890 N   0  0  0  0  0  1  0  0  0  0  0  0
  191.2310  177.2880  145.7640 C   0  0  2  0  0  3  0  0  0  0  0  0
  1  6  1  0  0  0  0
  2  3  2  0  0  0  0
  3  1  1  0  0  0  0
  3 20  1  0  0  0  0
  5 28  1  1  0  0  0
  5  4  1  0  0  0  0
  6  4  1  0  0  0  0
  7  8  1  0  0  0  0
  7  1  1  0  0  0  0
  8 12  1  6  0  0  0
  8  5  1  0  0  0  0
  9 10  1  1  0  0  0
  9 17  1  0  0  0  0
  9 11  1  0  0  0  0
 11 12  2  0  0  0  0
 12 16  1  0  0  0  0
 13 10  2  0  0  0  0
 13 15  1  0  0  0  0
 14 16  2  0  0  0  0
 15 17  2  0  0  0  0
 17 14  1  0  0  0  0
 18 11  1  0  0  0  0
 19 18  2  0  0  0  0
 21 20  1  0  0  0  0
 22 27  1  1  0  0  0
 23 25  1  0  0  0  0
 23 26  1  0  0  0  0
 24 21  1  1  0  0  0
 24 22  1  0  0  0  0
 25 24  1  0  0  0  0
 26 22  1  0  0  0  0
 28 29  1  0  0  0  0
 29 30  1  0  0  0  0
 30 33  1  0  0  0  0
 33 31  1  6  0  0  0
 33 32  1  0  0  0  0
M  END
>  <MODEL>
9

>  <REMARK>
 VINA RESULT:      -7.4      3.163      8.308
  Name = 
  9 active torsions:
  status: ('A' for Active; 'I' for Inactive)
    1  A    between atoms: C_7  and  C_8
    2  A    between atoms: C_7  and  C_24
    3  A    between atoms: C_9  and  C_24
    4  A    between atoms: C_10  and  C_11
    5  A    between atoms: C_14  and  C_33
    6  A    between atoms: C_17  and  C_27
    7  A    between atoms: C_20  and  C_32
    8  A    between atoms: C_31  and  C_32
    9  A    between atoms: C_31  and  C_33
                            x       y       z     vdW  Elec       q    Type
                         _______ _______ _______ _____ _____    ______ ____

>  <TORSDO>
F 9

$$$$
