=
 OpenBabel10232411253D

 36 40  0  0  1  0  0  0  0  0999 V2000
  192.0590  176.7640  138.7720 C   0  0  0  0  0  3  0  0  0  0  0  0
  190.6160  176.6550  138.4580 C   0  0  0  0  0  0  0  0  0  0  0  0
  192.2070  175.0150  136.2410 C   0  0  0  0  0  3  0  0  0  0  0  0
  188.0270  174.5320  137.0940 C   0  0  0  0  0  0  0  0  0  0  0  0
  188.6380  175.8120  137.3600 N   0  0  0  0  0  0  0  0  0  0  0  0
  194.4020  175.7580  136.1010 O   0  0  0  0  0  1  0  0  0  0  0  0
  186.5580  174.3060  137.3370 C   0  0  0  0  0  2  0  0  0  0  0  0
  188.1690  172.1790  136.3180 C   0  0  0  0  0  2  0  0  0  0  0  0
  190.8470  174.8360  136.7500 C   0  0  0  0  0  0  0  0  0  0  0  0
  186.3090  171.4660  135.0650 O   0  0  0  0  0  0  0  0  0  0  0  0
  186.7590  172.3170  135.8120 C   0  0  0  0  0  0  0  0  0  0  0  0
  185.9170  173.5150  136.1900 C   0  0  1  0  0  3  0  0  0  0  0  0
  190.0800  175.8610  137.5060 C   0  0  0  0  0  0  0  0  0  0  0  0
  188.7770  173.5210  136.6160 C   0  0  0  0  0  0  0  0  0  0  0  0
  186.7700  177.1750  137.7440 O   0  0  0  0  0  0  0  0  0  0  0  0
  193.1300  176.3920  138.0770 C   0  0  0  0  0  3  0  0  0  0  0  0
  193.1940  175.7200  136.7800 C   0  0  0  0  0  0  0  0  0  0  0  0
  190.2060  173.7400  136.3370 C   0  0  0  0  0  3  0  0  0  0  0  0
  187.8750  177.0160  137.1590 C   0  0  0  0  0  0  0  0  0  0  0  0
  182.1120  172.7800  136.1480 C   0  0  0  0  0  1  0  0  0  0  0  0
  184.5740  173.0960  136.5700 N   0  0  0  0  0  2  0  0  0  0  0  0
  183.4550  173.2160  135.6900 C   0  0  0  0  0  0  0  0  0  0  0  0
  183.5980  173.6830  134.5300 O   0  0  0  0  0  0  0  0  0  0  0  0
  189.7310  177.3960  139.2560 O   0  0  0  0  0  0  0  0  0  0  0  0
  188.3080  178.0370  140.9580 C   0  0  0  0  0  2  0  0  0  0  0  0
  189.0810  177.4860  143.0800 C   0  0  0  0  0  1  0  0  0  0  0  0
  189.2190  176.9440  140.5060 C   0  0  1  0  0  0  0  0  0  0  0  0
  190.3240  176.7100  141.3270 O   0  0  0  0  0  0  0  0  0  0  0  0
  189.5920  177.8440  141.7030 C   0  0  1  0  0  0  0  0  0  0  0  0
  188.3600  178.0690  136.2170 C   0  0  0  0  0  2  0  0  0  0  0  0
  188.0920  177.6670  134.7770 C   0  0  0  0  0  2  0  0  0  0  0  0
  186.7630  178.1030  134.3810 N   0  0  0  0  0  2  0  0  0  0  0  0
  185.9090  176.9220  134.3460 C   0  0  0  0  0  2  0  0  0  0  0  0
  184.5380  177.2930  134.6550 N   0  0  0  0  0  2  0  0  0  0  0  0
  183.9490  176.9230  135.8730 C   0  0  0  0  0  0  0  0  0  0  0  0
  183.4640  176.6190  136.8790 N   0  0  0  0  0  0  0  0  0  0  0  0
  2  1  1  0  0  0  0
  2 24  1  0  0  0  0
  3  9  1  0  0  0  0
  3 17  2  0  0  0  0
  4  7  1  0  0  0  0
  4  5  1  0  0  0  0
  5 13  1  0  0  0  0
  6 17  1  0  0  0  0
  8 14  1  0  0  0  0
  9 13  1  0  0  0  0
 10 11  2  0  0  0  0
 11 12  1  0  0  0  0
 11  8  1  0  0  0  0
 12 21  1  1  0  0  0
 12  7  1  0  0  0  0
 13  2  2  0  0  0  0
 14  4  2  0  0  0  0
 16  1  2  0  0  0  0
 17 16  1  0  0  0  0
 18 14  1  0  0  0  0
 18  9  2  0  0  0  0
 19  5  1  0  0  0  0
 19 15  2  0  0  0  0
 22 20  1  0  0  0  0
 22 21  1  0  0  0  0
 23 22  2  0  0  0  0
 25 29  1  0  0  0  0
 27 24  1  6  0  0  0
 27 25  1  0  0  0  0
 27 28  1  0  0  0  0
 27 29  1  0  0  0  0
 28 29  1  0  0  0  0
 29 26  1  1  0  0  0
 30 19  1  0  0  0  0
 31 30  1  0  0  0  0
 32 31  1  0  0  0  0
 33 32  1  0  0  0  0
 33 34  1  0  0  0  0
 34 35  1  0  0  0  0
 35 36  3  0  0  0  0
M  END
>  <MODEL>
1

>  <REMARK>
 VINA RESULT:      -4.9      0.000      0.000
  Name = 
  9 active torsions:
  status: ('A' for Active; 'I' for Inactive)
    1  A    between atoms: C_3  and  O_5
    2  A    between atoms: O_5  and  C_21
    3  A    between atoms: C_6  and  N_24
    4  A    between atoms: C_8  and  C_13
    5  A    between atoms: C_8  and  N_29
    6  A    between atoms: C_13  and  C_36
    7  A    between atoms: N_18  and  C_25
    8  A    between atoms: N_24  and  C_32
    9  A    between atoms: N_29  and  C_32
                            x       y       z     vdW  Elec       q    Type
                         _______ _______ _______ _____ _____    ______ ____

>  <TORSDO>
F 9

$$$$
=
 OpenBabel10232411253D

 36 40  0  0  1  0  0  0  0  0999 V2000
  182.2900  178.1200  142.7400 C   0  0  0  0  0  3  0  0  0  0  0  0
  182.7000  178.2580  141.3240 C   0  0  0  0  0  0  0  0  0  0  0  0
  184.9690  179.5920  143.1160 C   0  0  0  0  0  3  0  0  0  0  0  0
  185.5030  178.3490  139.0410 C   0  0  0  0  0  0  0  0  0  0  0  0
  184.1800  178.7290  139.4750 N   0  0  0  0  0  0  0  0  0  0  0  0
  184.1180  180.1920  145.1900 O   0  0  0  0  0  1  0  0  0  0  0  0
  185.7660  177.9370  137.6160 C   0  0  0  0  0  2  0  0  0  0  0  0
  187.9150  177.9860  139.4970 C   0  0  0  0  0  2  0  0  0  0  0  0
  185.0570  178.9720  141.7930 C   0  0  0  0  0  0  0  0  0  0  0  0
  189.3370  178.6610  137.7460 O   0  0  0  0  0  0  0  0  0  0  0  0
  188.1910  178.4100  138.0800 C   0  0  0  0  0  0  0  0  0  0  0  0
  187.0630  178.5590  137.0850 C   0  0  1  0  0  3  0  0  0  0  0  0
  183.8990  178.7130  140.8970 C   0  0  0  0  0  0  0  0  0  0  0  0
  186.5230  178.3660  139.9190 C   0  0  0  0  0  0  0  0  0  0  0  0
  183.0240  178.8830  137.4410 O   0  0  0  0  0  0  0  0  0  0  0  0
  182.8090  178.6390  143.8500 C   0  0  0  0  0  3  0  0  0  0  0  0
  183.9850  179.4940  144.0000 C   0  0  0  0  0  0  0  0  0  0  0  0
  186.2880  178.8040  141.3050 C   0  0  0  0  0  3  0  0  0  0  0  0
  183.3000  179.4030  138.5560 C   0  0  0  0  0  0  0  0  0  0  0  0
  188.0530  175.9960  134.3510 C   0  0  0  0  0  1  0  0  0  0  0  0
  187.4180  177.9470  135.8110 N   0  0  0  0  0  2  0  0  0  0  0  0
  187.6850  176.5500  135.6780 C   0  0  0  0  0  0  0  0  0  0  0  0
  187.6050  175.7840  136.6740 O   0  0  0  0  0  0  0  0  0  0  0  0
  181.7890  177.8250  140.3490 O   0  0  0  0  0  0  0  0  0  0  0  0
  182.3830  175.9010  139.2210 C   0  0  0  0  0  2  0  0  0  0  0  0
  180.5690  174.6880  138.4210 C   0  0  0  0  0  1  0  0  0  0  0  0
  181.3900  176.4700  140.1790 C   0  0  1  0  0  0  0  0  0  0  0  0
  180.0700  176.4970  139.7240 O   0  0  0  0  0  0  0  0  0  0  0  0
  180.9830  176.1080  138.7350 C   0  0  1  0  0  0  0  0  0  0  0  0
  182.7430  180.7470  138.8920 C   0  0  0  0  0  2  0  0  0  0  0  0
  181.2250  180.7020  138.9460 C   0  0  0  0  0  2  0  0  0  0  0  0
  180.6740  181.9240  138.3830 N   0  0  0  0  0  2  0  0  0  0  0  0
  180.7550  181.8100  136.9320 C   0  0  0  0  0  2  0  0  0  0  0  0
  180.7330  183.1330  136.3300 N   0  0  0  0  0  2  0  0  0  0  0  0
  181.3490  184.2230  136.9650 C   0  0  0  0  0  0  0  0  0  0  0  0
  181.8550  185.1220  137.4890 N   0  0  0  0  0  0  0  0  0  0  0  0
  1 16  2  0  0  0  0
  2  1  1  0  0  0  0
  3 17  2  0  0  0  0
  4  5  1  0  0  0  0
  4 14  2  0  0  0  0
  5 13  1  0  0  0  0
  7  4  1  0  0  0  0
  8 14  1  0  0  0  0
  9  3  1  0  0  0  0
 10 11  2  0  0  0  0
 11  8  1  0  0  0  0
 12 21  1  6  0  0  0
 12  7  1  0  0  0  0
 12 11  1  0  0  0  0
 13  2  2  0  0  0  0
 13  9  1  0  0  0  0
 14 18  1  0  0  0  0
 15 19  2  0  0  0  0
 16 17  1  0  0  0  0
 17  6  1  0  0  0  0
 18  9  2  0  0  0  0
 19 30  1  0  0  0  0
 19  5  1  0  0  0  0
 20 22  1  0  0  0  0
 22 21  1  0  0  0  0
 22 23  2  0  0  0  0
 24  2  1  0  0  0  0
 25 27  1  0  0  0  0
 27 24  1  6  0  0  0
 28 27  1  0  0  0  0
 29 26  1  1  0  0  0
 29 25  1  0  0  0  0
 29 28  1  0  0  0  0
 29 27  1  0  0  0  0
 30 31  1  0  0  0  0
 32 31  1  0  0  0  0
 33 32  1  0  0  0  0
 34 33  1  0  0  0  0
 34 35  1  0  0  0  0
 35 36  3  0  0  0  0
M  END
>  <MODEL>
2

>  <REMARK>
 VINA RESULT:      -4.7      4.749      8.136
  Name = 
  9 active torsions:
  status: ('A' for Active; 'I' for Inactive)
    1  A    between atoms: C_3  and  O_5
    2  A    between atoms: O_5  and  C_21
    3  A    between atoms: C_6  and  N_24
    4  A    between atoms: C_8  and  C_13
    5  A    between atoms: C_8  and  N_29
    6  A    between atoms: C_13  and  C_36
    7  A    between atoms: N_18  and  C_25
    8  A    between atoms: N_24  and  C_32
    9  A    between atoms: N_29  and  C_32
                            x       y       z     vdW  Elec       q    Type
                         _______ _______ _______ _____ _____    ______ ____

>  <TORSDO>
F 9

$$$$
=
 OpenBabel10232411253D

 36 40  0  0  1  0  0  0  0  0999 V2000
  191.1610  177.4940  138.9330 C   0  0  0  0  0  3  0  0  0  0  0  0
  189.8220  177.3280  138.3220 C   0  0  0  0  0  0  0  0  0  0  0  0
  189.4630  177.1800  141.4830 C   0  0  0  0  0  3  0  0  0  0  0  0
  186.2850  177.9730  138.7060 C   0  0  0  0  0  0  0  0  0  0  0  0
  187.4120  177.1930  138.2550 N   0  0  0  0  0  0  0  0  0  0  0  0
  191.4640  176.5930  142.5010 O   0  0  0  0  0  1  0  0  0  0  0  0
  185.1200  178.2560  137.7940 C   0  0  0  0  0  2  0  0  0  0  0  0
  185.1030  179.2580  140.4690 C   0  0  0  0  0  2  0  0  0  0  0  0
  188.5210  177.6050  140.4470 C   0  0  0  0  0  0  0  0  0  0  0  0
  182.7720  178.9270  140.5010 O   0  0  0  0  0  0  0  0  0  0  0  0
  183.8060  178.7800  139.8730 C   0  0  0  0  0  0  0  0  0  0  0  0
  183.7840  178.0920  138.5270 C   0  0  1  0  0  3  0  0  0  0  0  0
  188.6530  177.2950  138.9980 C   0  0  0  0  0  0  0  0  0  0  0  0
  186.2660  178.4520  139.9640 C   0  0  0  0  0  0  0  0  0  0  0  0
  186.6360  176.3500  136.2100 O   0  0  0  0  0  0  0  0  0  0  0  0
  191.5650  177.3580  140.1920 C   0  0  0  0  0  3  0  0  0  0  0  0
  190.7760  177.0260  141.3780 C   0  0  0  0  0  0  0  0  0  0  0  0
  187.3800  178.1480  140.8780 C   0  0  0  0  0  3  0  0  0  0  0  0
  187.2020  176.1240  137.3130 C   0  0  0  0  0  0  0  0  0  0  0  0
  180.3690  178.5670  136.7560 C   0  0  0  0  0  1  0  0  0  0  0  0
  182.7010  178.6150  137.7030 N   0  0  0  0  0  2  0  0  0  0  0  0
  181.4220  177.9850  137.6260 C   0  0  0  0  0  0  0  0  0  0  0  0
  181.1770  176.9450  138.2920 O   0  0  0  0  0  0  0  0  0  0  0  0
  189.7620  177.2580  136.9230 O   0  0  0  0  0  0  0  0  0  0  0  0
  190.2500  176.7830  134.7160 C   0  0  0  0  0  2  0  0  0  0  0  0
  191.1300  174.6560  134.3910 C   0  0  0  0  0  1  0  0  0  0  0  0
  190.7380  176.6080  136.1160 C   0  0  1  0  0  0  0  0  0  0  0  0
  190.8080  175.2870  136.5630 O   0  0  0  0  0  0  0  0  0  0  0  0
  190.1950  175.4100  135.3100 C   0  0  1  0  0  0  0  0  0  0  0  0
  187.6090  174.7280  137.6520 C   0  0  0  0  0  2  0  0  0  0  0  0
  186.7140  173.7210  136.9490 C   0  0  0  0  0  2  0  0  0  0  0  0
  185.9050  173.0110  137.9270 N   0  0  0  0  0  2  0  0  0  0  0  0
  184.5420  172.9650  137.4140 C   0  0  0  0  0  2  0  0  0  0  0  0
  183.9270  174.2780  137.5240 N   0  0  0  0  0  2  0  0  0  0  0  0
  183.4130  174.9290  136.3920 C   0  0  0  0  0  0  0  0  0  0  0  0
  182.9880  175.4640  135.4580 N   0  0  0  0  0  0  0  0  0  0  0  0
  1 16  2  0  0  0  0
  2  1  1  0  0  0  0
  2 13  2  0  0  0  0
  4 14  2  0  0  0  0
  5  4  1  0  0  0  0
  5 13  1  0  0  0  0
  7 12  1  0  0  0  0
  7  4  1  0  0  0  0
  9 18  2  0  0  0  0
  9  3  1  0  0  0  0
 11  8  1  0  0  0  0
 11 10  2  0  0  0  0
 12 21  1  6  0  0  0
 12 11  1  0  0  0  0
 13  9  1  0  0  0  0
 14  8  1  0  0  0  0
 14 18  1  0  0  0  0
 15 19  2  0  0  0  0
 16 17  1  0  0  0  0
 17  3  2  0  0  0  0
 17  6  1  0  0  0  0
 19 30  1  0  0  0  0
 19  5  1  0  0  0  0
 20 22  1  0  0  0  0
 22 21  1  0  0  0  0
 22 23  2  0  0  0  0
 24  2  1  0  0  0  0
 25 29  1  0  0  0  0
 25 27  1  0  0  0  0
 27 28  1  0  0  0  0
 27 24  1  1  0  0  0
 29 26  1  6  0  0  0
 29 27  1  0  0  0  0
 29 28  1  0  0  0  0
 31 30  1  0  0  0  0
 31 32  1  0  0  0  0
 33 34  1  0  0  0  0
 33 32  1  0  0  0  0
 35 34  1  0  0  0  0
 36 35  3  0  0  0  0
M  END
>  <MODEL>
3

>  <REMARK>
 VINA RESULT:      -4.7      2.487      5.429
  Name = 
  9 active torsions:
  status: ('A' for Active; 'I' for Inactive)
    1  A    between atoms: C_3  and  O_5
    2  A    between atoms: O_5  and  C_21
    3  A    between atoms: C_6  and  N_24
    4  A    between atoms: C_8  and  C_13
    5  A    between atoms: C_8  and  N_29
    6  A    between atoms: C_13  and  C_36
    7  A    between atoms: N_18  and  C_25
    8  A    between atoms: N_24  and  C_32
    9  A    between atoms: N_29  and  C_32
                            x       y       z     vdW  Elec       q    Type
                         _______ _______ _______ _____ _____    ______ ____

>  <TORSDO>
F 9

$$$$
=
 OpenBabel10232411253D

 36 40  0  0  1  0  0  0  0  0999 V2000
  180.2770  177.6350  141.4990 C   0  0  0  0  0  3  0  0  0  0  0  0
  181.4410  177.9240  140.6300 C   0  0  0  0  0  0  0  0  0  0  0  0
  182.0630  179.1420  143.5050 C   0  0  0  0  0  3  0  0  0  0  0  0
  185.0330  178.3220  140.5140 C   0  0  0  0  0  0  0  0  0  0  0  0
  183.6880  178.6180  140.0830 N   0  0  0  0  0  0  0  0  0  0  0  0
  180.0920  179.5090  144.6760 O   0  0  0  0  0  1  0  0  0  0  0  0
  186.1300  178.0610  139.5150 C   0  0  0  0  0  2  0  0  0  0  0  0
  186.7110  177.9890  142.3110 C   0  0  0  0  0  2  0  0  0  0  0  0
  182.9760  178.6580  142.4690 C   0  0  0  0  0  0  0  0  0  0  0  0
  188.8360  178.8750  141.8190 O   0  0  0  0  0  0  0  0  0  0  0  0
  187.7440  178.5580  141.3770 C   0  0  0  0  0  0  0  0  0  0  0  0
  187.4290  178.7710  139.9140 C   0  0  1  0  0  3  0  0  0  0  0  0
  182.6130  178.4540  141.0420 C   0  0  0  0  0  0  0  0  0  0  0  0
  185.3180  178.2840  141.8290 C   0  0  0  0  0  0  0  0  0  0  0  0
  183.9720  178.9380  137.7780 O   0  0  0  0  0  0  0  0  0  0  0  0
  179.9820  178.0570  142.7250 C   0  0  0  0  0  3  0  0  0  0  0  0
  180.7580  178.9280  143.6070 C   0  0  0  0  0  0  0  0  0  0  0  0
  184.2640  178.5760  142.8140 C   0  0  0  0  0  3  0  0  0  0  0  0
  183.4810  179.3530  138.8620 C   0  0  0  0  0  0  0  0  0  0  0  0
  189.7240  178.0180  136.8830 C   0  0  0  0  0  1  0  0  0  0  0  0
  188.5260  178.2980  139.0800 N   0  0  0  0  0  2  0  0  0  0  0  0
  188.5800  178.5400  137.6740 C   0  0  0  0  0  0  0  0  0  0  0  0
  187.6710  179.1950  137.0990 O   0  0  0  0  0  0  0  0  0  0  0  0
  181.3340  177.5620  139.2780 O   0  0  0  0  0  0  0  0  0  0  0  0
  182.4260  175.5700  138.8640 C   0  0  0  0  0  2  0  0  0  0  0  0
  181.6730  174.4710  136.9600 C   0  0  0  0  0  1  0  0  0  0  0  0
  181.0890  176.2350  138.8270 C   0  0  1  0  0  0  0  0  0  0  0  0
  180.5130  176.3450  137.5600 O   0  0  0  0  0  0  0  0  0  0  0  0
  181.8280  175.8650  137.5240 C   0  0  1  0  0  0  0  0  0  0  0  0
  182.7240  180.6400  138.8740 C   0  0  0  0  0  2  0  0  0  0  0  0
  181.2940  180.4280  138.4060 C   0  0  0  0  0  2  0  0  0  0  0  0
  181.1910  180.7180  136.9850 N   0  0  0  0  0  2  0  0  0  0  0  0
  180.1810  181.7570  136.8250 C   0  0  0  0  0  2  0  0  0  0  0  0
  180.7420  182.8850  136.1000 N   0  0  0  0  0  2  0  0  0  0  0  0
  181.3610  183.9430  136.7840 C   0  0  0  0  0  0  0  0  0  0  0  0
  181.8720  184.8160  137.3460 N   0  0  0  0  0  0  0  0  0  0  0  0
  1 16  2  0  0  0  0
  2 13  2  0  0  0  0
  2  1  1  0  0  0  0
  3 17  2  0  0  0  0
  4 14  2  0  0  0  0
  5  4  1  0  0  0  0
  5 13  1  0  0  0  0
  7 12  1  0  0  0  0
  7  4  1  0  0  0  0
  9 18  2  0  0  0  0
  9  3  1  0  0  0  0
 11 10  2  0  0  0  0
 11  8  1  0  0  0  0
 12 21  1  6  0  0  0
 12 11  1  0  0  0  0
 13  9  1  0  0  0  0
 14  8  1  0  0  0  0
 14 18  1  0  0  0  0
 15 19  2  0  0  0  0
 16 17  1  0  0  0  0
 17  6  1  0  0  0  0
 19 30  1  0  0  0  0
 19  5  1  0  0  0  0
 20 22  1  0  0  0  0
 22 21  1  0  0  0  0
 23 22  2  0  0  0  0
 24  2  1  0  0  0  0
 27 25  1  0  0  0  0
 27 24  1  1  0  0  0
 28 27  1  0  0  0  0
 29 26  1  1  0  0  0
 29 28  1  0  0  0  0
 29 27  1  0  0  0  0
 29 25  1  0  0  0  0
 31 30  1  0  0  0  0
 32 31  1  0  0  0  0
 33 32  1  0  0  0  0
 34 35  1  0  0  0  0
 34 33  1  0  0  0  0
 35 36  3  0  0  0  0
M  END
>  <MODEL>
4

>  <REMARK>
 VINA RESULT:      -4.6      5.049      9.134
  Name = 
  9 active torsions:
  status: ('A' for Active; 'I' for Inactive)
    1  A    between atoms: C_3  and  O_5
    2  A    between atoms: O_5  and  C_21
    3  A    between atoms: C_6  and  N_24
    4  A    between atoms: C_8  and  C_13
    5  A    between atoms: C_8  and  N_29
    6  A    between atoms: C_13  and  C_36
    7  A    between atoms: N_18  and  C_25
    8  A    between atoms: N_24  and  C_32
    9  A    between atoms: N_29  and  C_32
                            x       y       z     vdW  Elec       q    Type
                         _______ _______ _______ _____ _____    ______ ____

>  <TORSDO>
F 9

$$$$
=
 OpenBabel10232411253D

 36 40  0  0  1  0  0  0  0  0999 V2000
  182.0730  177.3100  135.6240 C   0  0  0  0  0  3  0  0  0  0  0  0
  183.0800  177.3490  136.7100 C   0  0  0  0  0  0  0  0  0  0  0  0
  181.0910  179.7960  137.1540 C   0  0  0  0  0  3  0  0  0  0  0  0
  183.6720  178.1770  140.1790 C   0  0  0  0  0  0  0  0  0  0  0  0
  184.0700  178.0500  138.7980 N   0  0  0  0  0  0  0  0  0  0  0  0
  180.0300  180.3520  135.1650 O   0  0  0  0  0  1  0  0  0  0  0  0
  184.5490  177.6630  141.2910 C   0  0  0  0  0  2  0  0  0  0  0  0
  182.0650  178.9290  141.9130 C   0  0  0  0  0  2  0  0  0  0  0  0
  181.8870  179.0420  138.1220 C   0  0  0  0  0  0  0  0  0  0  0  0
  183.0780  179.8050  143.8490 O   0  0  0  0  0  0  0  0  0  0  0  0
  183.2400  179.1680  142.8220 C   0  0  0  0  0  0  0  0  0  0  0  0
  184.6150  178.6590  142.4550 C   0  0  1  0  0  3  0  0  0  0  0  0
  183.0450  178.1730  137.7800 C   0  0  0  0  0  0  0  0  0  0  0  0
  182.5030  178.7700  140.4840 C   0  0  0  0  0  0  0  0  0  0  0  0
  186.2980  177.3490  138.9920 O   0  0  0  0  0  0  0  0  0  0  0  0
  181.1330  178.1850  135.2780 C   0  0  0  0  0  3  0  0  0  0  0  0
  180.7920  179.4610  135.9060 C   0  0  0  0  0  0  0  0  0  0  0  0
  181.6560  179.3120  139.4090 C   0  0  0  0  0  3  0  0  0  0  0  0
  185.4660  178.1250  138.4520 C   0  0  0  0  0  0  0  0  0  0  0  0
  187.2340  177.1070  144.8550 C   0  0  0  0  0  1  0  0  0  0  0  0
  185.2520  178.0310  143.6060 N   0  0  0  0  0  2  0  0  0  0  0  0
  186.6540  177.7610  143.6550 C   0  0  0  0  0  0  0  0  0  0  0  0
  187.4020  178.0760  142.6920 O   0  0  0  0  0  0  0  0  0  0  0  0
  184.1230  176.4130  136.6480 O   0  0  0  0  0  0  0  0  0  0  0  0
  183.5550  174.5460  137.8820 C   0  0  0  0  0  2  0  0  0  0  0  0
  184.7680  172.6460  137.3140 C   0  0  0  0  0  1  0  0  0  0  0  0
  183.9250  175.0100  136.5130 C   0  0  1  0  0  0  0  0  0  0  0  0
  185.1180  174.4870  136.0080 O   0  0  0  0  0  0  0  0  0  0  0  0
  184.8970  174.1520  137.3490 C   0  0  1  0  0  0  0  0  0  0  0  0
  185.9500  179.1570  137.4870 C   0  0  0  0  0  2  0  0  0  0  0  0
  187.0920  178.6120  136.6460 C   0  0  0  0  0  2  0  0  0  0  0  0
  188.3520  179.1810  137.0950 N   0  0  0  0  0  2  0  0  0  0  0  0
  189.1790  178.0820  137.5770 C   0  0  0  0  0  2  0  0  0  0  0  0
  189.7280  178.4110  138.8820 N   0  0  0  0  0  2  0  0  0  0  0  0
  189.9760  177.4080  139.8320 C   0  0  0  0  0  0  0  0  0  0  0  0
  190.1810  176.5820  140.6160 N   0  0  0  0  0  0  0  0  0  0  0  0
  1  2  1  0  0  0  0
  2 13  2  0  0  0  0
  3  9  1  0  0  0  0
  4 14  2  0  0  0  0
  4  7  1  0  0  0  0
  5  4  1  0  0  0  0
  6 17  1  0  0  0  0
  7 12  1  0  0  0  0
  8 11  1  0  0  0  0
  9 18  2  0  0  0  0
 11 10  2  0  0  0  0
 12 11  1  0  0  0  0
 12 21  1  1  0  0  0
 13  9  1  0  0  0  0
 13  5  1  0  0  0  0
 14  8  1  0  0  0  0
 16  1  2  0  0  0  0
 16 17  1  0  0  0  0
 17  3  2  0  0  0  0
 18 14  1  0  0  0  0
 19  5  1  0  0  0  0
 19 15  2  0  0  0  0
 21 22  1  0  0  0  0
 22 20  1  0  0  0  0
 23 22  2  0  0  0  0
 24  2  1  0  0  0  0
 27 24  1  1  0  0  0
 27 29  1  0  0  0  0
 27 25  1  0  0  0  0
 28 27  1  0  0  0  0
 28 29  1  0  0  0  0
 29 26  1  6  0  0  0
 29 25  1  0  0  0  0
 30 19  1  0  0  0  0
 31 32  1  0  0  0  0
 31 30  1  0  0  0  0
 32 33  1  0  0  0  0
 33 34  1  0  0  0  0
 34 35  1  0  0  0  0
 35 36  3  0  0  0  0
M  END
>  <MODEL>
5

>  <REMARK>
 VINA RESULT:      -4.5      3.835      8.651
  Name = 
  9 active torsions:
  status: ('A' for Active; 'I' for Inactive)
    1  A    between atoms: C_3  and  O_5
    2  A    between atoms: O_5  and  C_21
    3  A    between atoms: C_6  and  N_24
    4  A    between atoms: C_8  and  C_13
    5  A    between atoms: C_8  and  N_29
    6  A    between atoms: C_13  and  C_36
    7  A    between atoms: N_18  and  C_25
    8  A    between atoms: N_24  and  C_32
    9  A    between atoms: N_29  and  C_32
                            x       y       z     vdW  Elec       q    Type
                         _______ _______ _______ _____ _____    ______ ____

>  <TORSDO>
F 9

$$$$
=
 OpenBabel10232411253D

 36 40  0  0  1  0  0  0  0  0999 V2000
  191.5100  177.1420  138.5370 C   0  0  0  0  0  3  0  0  0  0  0  0
  190.3030  176.7700  137.7630 C   0  0  0  0  0  0  0  0  0  0  0  0
  189.4020  177.2460  140.7790 C   0  0  0  0  0  3  0  0  0  0  0  0
  186.7370  177.2540  137.4130 C   0  0  0  0  0  0  0  0  0  0  0  0
  187.9470  176.4720  137.3290 N   0  0  0  0  0  0  0  0  0  0  0  0
  191.2100  177.0060  142.2150 O   0  0  0  0  0  1  0  0  0  0  0  0
  185.7420  177.2720  136.2820 C   0  0  0  0  0  2  0  0  0  0  0  0
  185.2300  178.7930  138.6450 C   0  0  0  0  0  2  0  0  0  0  0  0
  188.6440  177.3910  139.5360 C   0  0  0  0  0  0  0  0  0  0  0  0
  182.9400  178.3290  138.3610 O   0  0  0  0  0  0  0  0  0  0  0  0
  184.0720  178.1230  137.9570 C   0  0  0  0  0  0  0  0  0  0  0  0
  184.3030  177.1750  136.8020 C   0  0  1  0  0  3  0  0  0  0  0  0
  189.0350  176.8020  138.2280 C   0  0  0  0  0  0  0  0  0  0  0  0
  186.4860  177.9770  138.5200 C   0  0  0  0  0  0  0  0  0  0  0  0
  187.5630  175.1830  135.4080 O   0  0  0  0  0  0  0  0  0  0  0  0
  191.6910  177.2900  139.8460 C   0  0  0  0  0  3  0  0  0  0  0  0
  190.7170  177.1580  140.9280 C   0  0  0  0  0  0  0  0  0  0  0  0
  187.4310  177.9360  139.6490 C   0  0  0  0  0  3  0  0  0  0  0  0
  187.9340  175.2230  136.6120 C   0  0  0  0  0  0  0  0  0  0  0  0
  181.3020  176.9830  134.3570 C   0  0  0  0  0  1  0  0  0  0  0  0
  183.3670  177.4500  135.7200 N   0  0  0  0  0  2  0  0  0  0  0  0
  182.2060  176.6520  135.4870 C   0  0  0  0  0  0  0  0  0  0  0  0
  181.9400  175.6730  136.2330 O   0  0  0  0  0  0  0  0  0  0  0  0
  190.4900  176.4130  136.4190 O   0  0  0  0  0  0  0  0  0  0  0  0
  191.5160  175.8070  134.4420 C   0  0  0  0  0  2  0  0  0  0  0  0
  192.4860  173.6950  134.5010 C   0  0  0  0  0  1  0  0  0  0  0  0
  191.6470  175.7450  135.9270 C   0  0  1  0  0  0  0  0  0  0  0  0
  191.6270  174.4600  136.4750 O   0  0  0  0  0  0  0  0  0  0  0  0
  191.3400  174.4760  135.1040 C   0  0  1  0  0  0  0  0  0  0  0  0
  188.3130  173.9540  137.3010 C   0  0  0  0  0  2  0  0  0  0  0  0
  187.3540  172.8340  136.9330 C   0  0  0  0  0  2  0  0  0  0  0  0
  186.1360  172.9480  137.7190 N   0  0  0  0  0  2  0  0  0  0  0  0
  185.0120  172.8790  136.7940 C   0  0  0  0  0  2  0  0  0  0  0  0
  183.9630  172.0410  137.3510 N   0  0  0  0  0  2  0  0  0  0  0  0
  182.7640  171.8290  136.6530 C   0  0  0  0  0  0  0  0  0  0  0  0
  181.7770  171.6540  136.0750 N   0  0  0  0  0  0  0  0  0  0  0  0
  1 16  2  0  0  0  0
  2 13  2  0  0  0  0
  2  1  1  0  0  0  0
  3 17  2  0  0  0  0
  4 14  2  0  0  0  0
  5  4  1  0  0  0  0
  5 13  1  0  0  0  0
  7 12  1  0  0  0  0
  7  4  1  0  0  0  0
  9 18  2  0  0  0  0
  9  3  1  0  0  0  0
 11 10  2  0  0  0  0
 11  8  1  0  0  0  0
 12 21  1  6  0  0  0
 12 11  1  0  0  0  0
 13  9  1  0  0  0  0
 14  8  1  0  0  0  0
 14 18  1  0  0  0  0
 15 19  2  0  0  0  0
 16 17  1  0  0  0  0
 17  6  1  0  0  0  0
 19 30  1  0  0  0  0
 19  5  1  0  0  0  0
 20 22  1  0  0  0  0
 22 21  1  0  0  0  0
 22 23  2  0  0  0  0
 24  2  1  0  0  0  0
 25 29  1  0  0  0  0
 25 27  1  0  0  0  0
 27 24  1  1  0  0  0
 27 28  1  0  0  0  0
 29 26  1  6  0  0  0
 29 27  1  0  0  0  0
 29 28  1  0  0  0  0
 31 30  1  0  0  0  0
 31 32  1  0  0  0  0
 33 34  1  0  0  0  0
 33 32  1  0  0  0  0
 35 34  1  0  0  0  0
 36 35  3  0  0  0  0
M  END
>  <MODEL>
6

>  <REMARK>
 VINA RESULT:      -4.5      2.022      5.200
  Name = 
  9 active torsions:
  status: ('A' for Active; 'I' for Inactive)
    1  A    between atoms: C_3  and  O_5
    2  A    between atoms: O_5  and  C_21
    3  A    between atoms: C_6  and  N_24
    4  A    between atoms: C_8  and  C_13
    5  A    between atoms: C_8  and  N_29
    6  A    between atoms: C_13  and  C_36
    7  A    between atoms: N_18  and  C_25
    8  A    between atoms: N_24  and  C_32
    9  A    between atoms: N_29  and  C_32
                            x       y       z     vdW  Elec       q    Type
                         _______ _______ _______ _____ _____    ______ ____

>  <TORSDO>
F 9

$$$$
=
 OpenBabel10232411253D

 36 40  0  0  1  0  0  0  0  0999 V2000
  190.3270  178.0380  140.3500 C   0  0  0  0  0  3  0  0  0  0  0  0
  188.9680  178.1960  139.7820 C   0  0  0  0  0  0  0  0  0  0  0  0
  188.6800  176.6430  142.5470 C   0  0  0  0  0  3  0  0  0  0  0  0
  185.4680  178.6750  140.5500 C   0  0  0  0  0  0  0  0  0  0  0  0
  186.5540  178.1590  139.7530 N   0  0  0  0  0  0  0  0  0  0  0  0
  190.6830  175.6140  143.1140 O   0  0  0  0  0  1  0  0  0  0  0  0
  184.2930  179.3660  139.9090 C   0  0  0  0  0  2  0  0  0  0  0  0
  184.3770  179.0490  142.7470 C   0  0  0  0  0  2  0  0  0  0  0  0
  187.7300  177.5110  141.8510 C   0  0  0  0  0  0  0  0  0  0  0  0
  182.0370  178.7910  142.7150 O   0  0  0  0  0  0  0  0  0  0  0  0
  183.0500  178.9220  142.0490 C   0  0  0  0  0  0  0  0  0  0  0  0
  182.9690  178.9170  140.5400 C   0  0  1  0  0  3  0  0  0  0  0  0
  187.8150  177.8870  140.4140 C   0  0  0  0  0  0  0  0  0  0  0  0
  185.4970  178.5330  141.8880 C   0  0  0  0  0  0  0  0  0  0  0  0
  185.6990  178.3490  137.5790 O   0  0  0  0  0  0  0  0  0  0  0  0
  190.7560  177.3380  141.3960 C   0  0  0  0  0  3  0  0  0  0  0  0
  189.9840  176.5240  142.3340 C   0  0  0  0  0  0  0  0  0  0  0  0
  186.6210  177.8250  142.5240 C   0  0  0  0  0  3  0  0  0  0  0  0
  186.2820  177.6370  138.4390 C   0  0  0  0  0  0  0  0  0  0  0  0
  180.0570  180.4390  138.4840 C   0  0  0  0  0  1  0  0  0  0  0  0
  181.8870  179.7800  140.0820 N   0  0  0  0  0  2  0  0  0  0  0  0
  181.1390  179.5100  138.8970 C   0  0  0  0  0  0  0  0  0  0  0  0
  181.3840  178.4890  138.2010 O   0  0  0  0  0  0  0  0  0  0  0  0
  188.8720  178.7680  138.5050 O   0  0  0  0  0  0  0  0  0  0  0  0
  188.9490  178.7880  136.1970 C   0  0  0  0  0  2  0  0  0  0  0  0
  189.9920  176.9240  135.2810 C   0  0  0  0  0  1  0  0  0  0  0  0
  189.7330  178.4400  137.4200 C   0  0  1  0  0  0  0  0  0  0  0  0
  190.0510  177.0870  137.5590 O   0  0  0  0  0  0  0  0  0  0  0  0
  189.1830  177.3380  136.4890 C   0  0  1  0  0  0  0  0  0  0  0  0
  186.6450  176.2300  138.0960 C   0  0  0  0  0  2  0  0  0  0  0  0
  185.8920  175.7660  136.8600 C   0  0  0  0  0  2  0  0  0  0  0  0
  186.3020  174.4160  136.5090 N   0  0  0  0  0  2  0  0  0  0  0  0
  187.0480  174.4980  135.2590 C   0  0  0  0  0  2  0  0  0  0  0  0
  188.1900  173.6000  135.3050 N   0  0  0  0  0  2  0  0  0  0  0  0
  189.0370  173.5690  136.4240 C   0  0  0  0  0  0  0  0  0  0  0  0
  189.7360  173.5420  137.3460 N   0  0  0  0  0  0  0  0  0  0  0  0
  1 16  2  0  0  0  0
  2  1  1  0  0  0  0
  2 13  2  0  0  0  0
  4 14  2  0  0  0  0
  5 13  1  0  0  0  0
  5  4  1  0  0  0  0
  7 12  1  0  0  0  0
  7  4  1  0  0  0  0
  9 18  2  0  0  0  0
  9  3  1  0  0  0  0
 11 10  2  0  0  0  0
 11  8  1  0  0  0  0
 12 21  1  1  0  0  0
 12 11  1  0  0  0  0
 13  9  1  0  0  0  0
 14 18  1  0  0  0  0
 14  8  1  0  0  0  0
 15 19  2  0  0  0  0
 16 17  1  0  0  0  0
 17  3  2  0  0  0  0
 17  6  1  0  0  0  0
 19  5  1  0  0  0  0
 20 22  1  0  0  0  0
 22 21  1  0  0  0  0
 23 22  2  0  0  0  0
 24  2  1  0  0  0  0
 25 29  1  0  0  0  0
 25 27  1  0  0  0  0
 27 28  1  0  0  0  0
 27 24  1  1  0  0  0
 29 26  1  6  0  0  0
 29 27  1  0  0  0  0
 29 28  1  0  0  0  0
 30 19  1  0  0  0  0
 31 30  1  0  0  0  0
 32 31  1  0  0  0  0
 33 34  1  0  0  0  0
 33 32  1  0  0  0  0
 34 35  1  0  0  0  0
 35 36  3  0  0  0  0
M  END
>  <MODEL>
7

>  <REMARK>
 VINA RESULT:      -4.4      3.179      6.237
  Name = 
  9 active torsions:
  status: ('A' for Active; 'I' for Inactive)
    1  A    between atoms: C_3  and  O_5
    2  A    between atoms: O_5  and  C_21
    3  A    between atoms: C_6  and  N_24
    4  A    between atoms: C_8  and  C_13
    5  A    between atoms: C_8  and  N_29
    6  A    between atoms: C_13  and  C_36
    7  A    between atoms: N_18  and  C_25
    8  A    between atoms: N_24  and  C_32
    9  A    between atoms: N_29  and  C_32
                            x       y       z     vdW  Elec       q    Type
                         _______ _______ _______ _____ _____    ______ ____

>  <TORSDO>
F 9

$$$$
=
 OpenBabel10232411253D

 36 40  0  0  1  0  0  0  0  0999 V2000
  181.1800  177.9030  136.2450 C   0  0  0  0  0  3  0  0  0  0  0  0
  182.3860  178.1320  137.0730 C   0  0  0  0  0  0  0  0  0  0  0  0
  182.3840  175.0690  136.2040 C   0  0  0  0  0  3  0  0  0  0  0  0
  185.8370  177.1970  137.6120 C   0  0  0  0  0  0  0  0  0  0  0  0
  184.5350  177.6320  138.0550 N   0  0  0  0  0  0  0  0  0  0  0  0
  180.2360  174.3830  135.6520 O   0  0  0  0  0  1  0  0  0  0  0  0
  187.0910  177.8770  138.0970 C   0  0  0  0  0  2  0  0  0  0  0  0
  187.2810  175.6770  136.2840 C   0  0  0  0  0  2  0  0  0  0  0  0
  183.5020  175.9540  136.5320 C   0  0  0  0  0  0  0  0  0  0  0  0
  189.2690  175.0440  137.3730 O   0  0  0  0  0  0  0  0  0  0  0  0
  188.3210  175.8100  137.3630 C   0  0  0  0  0  0  0  0  0  0  0  0
  188.1800  176.8560  138.4460 C   0  0  1  0  0  3  0  0  0  0  0  0
  183.3810  177.2400  137.2700 C   0  0  0  0  0  0  0  0  0  0  0  0
  185.9390  176.1630  136.7570 C   0  0  0  0  0  0  0  0  0  0  0  0
  185.0780  179.1200  139.7840 O   0  0  0  0  0  0  0  0  0  0  0  0
  180.6490  176.7790  135.7740 C   0  0  0  0  0  3  0  0  0  0  0  0
  181.1340  175.4060  135.9160 C   0  0  0  0  0  0  0  0  0  0  0  0
  184.7230  175.4640  136.3060 C   0  0  0  0  0  3  0  0  0  0  0  0
  184.3770  178.1500  139.3900 C   0  0  0  0  0  0  0  0  0  0  0  0
  191.6400  177.8960  139.8490 C   0  0  0  0  0  1  0  0  0  0  0  0
  189.4480  177.5410  138.6630 N   0  0  0  0  0  2  0  0  0  0  0  0
  190.3720  177.1440  139.6760 C   0  0  0  0  0  0  0  0  0  0  0  0
  190.1240  176.1590  140.4210 O   0  0  0  0  0  0  0  0  0  0  0  0
  182.5330  179.4010  137.6520 O   0  0  0  0  0  0  0  0  0  0  0  0
  182.0910  181.5150  138.4700 C   0  0  0  0  0  2  0  0  0  0  0  0
  180.0130  181.7060  139.4920 C   0  0  0  0  0  1  0  0  0  0  0  0
  181.4760  180.3470  137.7740 C   0  0  1  0  0  0  0  0  0  0  0  0
  180.4500  179.7080  138.4750 O   0  0  0  0  0  0  0  0  0  0  0  0
  181.1010  180.6900  139.2320 C   0  0  1  0  0  0  0  0  0  0  0  0
  183.4160  177.5110  140.3380 C   0  0  0  0  0  2  0  0  0  0  0  0
  183.1600  178.4130  141.5340 C   0  0  0  0  0  2  0  0  0  0  0  0
  184.1160  178.1180  142.5890 N   0  0  0  0  0  2  0  0  0  0  0  0
  184.1710  179.2830  143.4640 C   0  0  0  0  0  2  0  0  0  0  0  0
  184.9260  178.9630  144.6650 N   0  0  0  0  0  2  0  0  0  0  0  0
  185.9780  178.0360  144.6280 C   0  0  0  0  0  0  0  0  0  0  0  0
  186.8470  177.2710  144.6000 N   0  0  0  0  0  0  0  0  0  0  0  0
  1  2  1  0  0  0  0
  2 13  2  0  0  0  0
  2 24  1  0  0  0  0
  3  9  1  0  0  0  0
  4  5  1  0  0  0  0
  4  7  1  0  0  0  0
  5 19  1  0  0  0  0
  6 17  1  0  0  0  0
  7 12  1  0  0  0  0
  8 14  1  0  0  0  0
  8 11  1  0  0  0  0
  9 13  1  0  0  0  0
 11 10  2  0  0  0  0
 11 12  1  0  0  0  0
 12 21  1  6  0  0  0
 13  5  1  0  0  0  0
 14  4  2  0  0  0  0
 16 17  1  0  0  0  0
 16  1  2  0  0  0  0
 17  3  2  0  0  0  0
 18  9  2  0  0  0  0
 18 14  1  0  0  0  0
 19 15  2  0  0  0  0
 19 30  1  0  0  0  0
 21 22  1  0  0  0  0
 22 20  1  0  0  0  0
 22 23  2  0  0  0  0
 25 29  1  0  0  0  0
 27 24  1  1  0  0  0
 27 25  1  0  0  0  0
 27 28  1  0  0  0  0
 27 29  1  0  0  0  0
 28 29  1  0  0  0  0
 29 26  1  6  0  0  0
 30 31  1  0  0  0  0
 31 32  1  0  0  0  0
 32 33  1  0  0  0  0
 33 34  1  0  0  0  0
 35 34  1  0  0  0  0
 36 35  3  0  0  0  0
M  END
>  <MODEL>
8

>  <REMARK>
 VINA RESULT:      -4.4      4.003      8.322
  Name = 
  9 active torsions:
  status: ('A' for Active; 'I' for Inactive)
    1  A    between atoms: C_3  and  O_5
    2  A    between atoms: O_5  and  C_21
    3  A    between atoms: C_6  and  N_24
    4  A    between atoms: C_8  and  C_13
    5  A    between atoms: C_8  and  N_29
    6  A    between atoms: C_13  and  C_36
    7  A    between atoms: N_18  and  C_25
    8  A    between atoms: N_24  and  C_32
    9  A    between atoms: N_29  and  C_32
                            x       y       z     vdW  Elec       q    Type
                         _______ _______ _______ _____ _____    ______ ____

>  <TORSDO>
F 9

$$$$
=
 OpenBabel10232411253D

 36 40  0  0  1  0  0  0  0  0999 V2000
  187.6180  175.9230  135.2350 C   0  0  0  0  0  3  0  0  0  0  0  0
  188.5570  175.8070  136.3740 C   0  0  0  0  0  0  0  0  0  0  0  0
  187.3140  178.7380  136.4460 C   0  0  0  0  0  3  0  0  0  0  0  0
  189.2350  176.8270  139.7760 C   0  0  0  0  0  0  0  0  0  0  0  0
  189.6290  176.4410  138.4430 N   0  0  0  0  0  0  0  0  0  0  0  0
  186.5200  179.3350  134.3480 O   0  0  0  0  0  1  0  0  0  0  0  0
  189.8940  176.2220  140.9880 C   0  0  0  0  0  2  0  0  0  0  0  0
  187.8400  178.1790  141.3210 C   0  0  0  0  0  2  0  0  0  0  0  0
  187.8340  177.9090  137.5330 C   0  0  0  0  0  0  0  0  0  0  0  0
  188.9890  178.9560  143.2220 O   0  0  0  0  0  0  0  0  0  0  0  0
  189.0030  178.1890  142.2760 C   0  0  0  0  0  0  0  0  0  0  0  0
  190.1940  177.2860  142.0510 C   0  0  1  0  0  3  0  0  0  0  0  0
  188.7150  176.7240  137.3540 C   0  0  0  0  0  0  0  0  0  0  0  0
  188.2670  177.7460  139.9460 C   0  0  0  0  0  0  0  0  0  0  0  0
  191.5660  175.1850  138.8490 O   0  0  0  0  0  0  0  0  0  0  0  0
  186.9720  176.9760  134.7440 C   0  0  0  0  0  3  0  0  0  0  0  0
  186.9770  178.3590  135.2200 C   0  0  0  0  0  0  0  0  0  0  0  0
  187.6420  178.3750  138.7700 C   0  0  0  0  0  3  0  0  0  0  0  0
  191.0020  176.0940  138.1830 C   0  0  0  0  0  0  0  0  0  0  0  0
  191.8490  176.5360  145.4740 C   0  0  0  0  0  1  0  0  0  0  0  0
  190.5910  176.6410  143.2960 N   0  0  0  0  0  2  0  0  0  0  0  0
  191.4790  177.2560  144.2300 C   0  0  0  0  0  0  0  0  0  0  0  0
  191.9460  178.4050  144.0100 O   0  0  0  0  0  0  0  0  0  0  0  0
  189.3000  174.6220  136.4730 O   0  0  0  0  0  0  0  0  0  0  0  0
  189.3410  172.3450  136.0900 C   0  0  0  0  0  2  0  0  0  0  0  0
  190.9010  171.6940  134.4950 C   0  0  0  0  0  1  0  0  0  0  0  0
  189.4310  173.6750  135.4180 C   0  0  1  0  0  0  0  0  0  0  0  0
  190.6490  173.9450  134.7900 O   0  0  0  0  0  0  0  0  0  0  0  0
  190.6690  172.7620  135.5400 C   0  0  1  0  0  0  0  0  0  0  0  0
  191.7880  176.8390  137.1550 C   0  0  0  0  0  2  0  0  0  0  0  0
  192.8500  175.9450  136.5380 C   0  0  0  0  0  2  0  0  0  0  0  0
  194.1470  176.6000  136.6050 N   0  0  0  0  0  2  0  0  0  0  0  0
  195.0110  175.9560  135.6230 C   0  0  0  0  0  2  0  0  0  0  0  0
  196.2230  176.7380  135.4440 N   0  0  0  0  0  2  0  0  0  0  0  0
  196.1590  178.0930  135.0850 C   0  0  0  0  0  0  0  0  0  0  0  0
  196.1050  179.2100  134.7880 N   0  0  0  0  0  0  0  0  0  0  0  0
  1  2  1  0  0  0  0
  2 24  1  0  0  0  0
  2 13  2  0  0  0  0
  3  9  1  0  0  0  0
  4 14  2  0  0  0  0
  4  7  1  0  0  0  0
  5  4  1  0  0  0  0
  6 17  1  0  0  0  0
  7 12  1  0  0  0  0
  8 11  1  0  0  0  0
  9 18  2  0  0  0  0
 11 10  2  0  0  0  0
 12 11  1  0  0  0  0
 12 21  1  1  0  0  0
 13  9  1  0  0  0  0
 13  5  1  0  0  0  0
 14  8  1  0  0  0  0
 16 17  1  0  0  0  0
 16  1  2  0  0  0  0
 17  3  2  0  0  0  0
 18 14  1  0  0  0  0
 19  5  1  0  0  0  0
 19 15  2  0  0  0  0
 21 22  1  0  0  0  0
 22 20  1  0  0  0  0
 23 22  2  0  0  0  0
 27 29  1  0  0  0  0
 27 25  1  0  0  0  0
 27 24  1  1  0  0  0
 28 27  1  0  0  0  0
 28 29  1  0  0  0  0
 29 26  1  6  0  0  0
 29 25  1  0  0  0  0
 30 19  1  0  0  0  0
 31 32  1  0  0  0  0
 31 30  1  0  0  0  0
 33 32  1  0  0  0  0
 34 33  1  0  0  0  0
 35 34  1  0  0  0  0
 36 35  3  0  0  0  0
M  END
>  <MODEL>
9

>  <REMARK>
 VINA RESULT:      -4.4      3.274      8.121
  Name = 
  9 active torsions:
  status: ('A' for Active; 'I' for Inactive)
    1  A    between atoms: C_3  and  O_5
    2  A    between atoms: O_5  and  C_21
    3  A    between atoms: C_6  and  N_24
    4  A    between atoms: C_8  and  C_13
    5  A    between atoms: C_8  and  N_29
    6  A    between atoms: C_13  and  C_36
    7  A    between atoms: N_18  and  C_25
    8  A    between atoms: N_24  and  C_32
    9  A    between atoms: N_29  and  C_32
                            x       y       z     vdW  Elec       q    Type
                         _______ _______ _______ _____ _____    ______ ____

>  <TORSDO>
F 9

$$$$
