=
 OpenBabel10232411273D

 36 38  0  0  1  0  0  0  0  0999 V2000
  189.6470  176.3350  138.2510 C   0  0  2  0  0  3  0  0  0  0  0  0
  188.5580  177.3500  138.5740 C   0  0  0  0  0  0  0  0  0  0  0  0
  189.4380  177.2050  140.8830 C   0  0  0  0  0  2  0  0  0  0  0  0
  190.9870  176.5820  138.9830 C   0  0  2  0  0  3  0  0  0  0  0  0
  190.8500  177.3340  140.3300 C   0  0  2  0  0  3  0  0  0  0  0  0
  188.4580  177.7330  139.8690 C   0  0  0  0  0  0  0  0  0  0  0  0
  187.5300  178.6210  140.2840 F   0  0  0  0  0  0  0  0  0  0  0  0
  187.5890  177.8290  137.5100 C   0  0  0  0  0  0  0  0  0  0  0  0
  187.1670  176.7980  136.7030 F   0  0  0  0  0  0  0  0  0  0  0  0
  186.4770  178.3620  138.1180 F   0  0  0  0  0  0  0  0  0  0  0  0
  188.2340  178.9060  136.6600 C   0  0  0  0  0  3  0  0  0  0  0  0
  189.3200  179.4600  137.2970 F   0  0  0  0  0  0  0  0  0  0  0  0
  187.3220  179.9000  136.3690 F   0  0  0  0  0  0  0  0  0  0  0  0
  192.0130  177.1100  138.1710 O   0  0  0  0  0  0  0  0  0  0  0  0
  193.0860  176.2140  138.1540 C   0  0  0  0  0  1  0  0  0  0  0  0
  189.7380  175.8040  136.8500 C   0  0  0  0  0  0  0  0  0  0  0  0
  190.2810  176.4900  135.9390 O   0  0  0  0  0  0  0  0  0  0  0  0
  189.1820  174.4970  136.5140 C   0  0  0  0  0  0  0  0  0  0  0  0
  187.9460  172.8150  135.4830 N   0  0  0  0  0  0  0  0  0  0  0  0
  188.5640  172.4360  136.6840 N   0  0  0  0  0  0  0  0  0  0  0  0
  189.2510  173.4800  137.2890 N   0  0  0  0  0  2  0  0  0  0  0  0
  188.4020  174.2000  135.2830 C   0  0  0  0  0  3  0  0  0  0  0  0
  191.7800  176.8480  141.2510 O   0  0  0  0  0  0  0  0  0  0  0  0
  191.5860  177.6100  142.4150 C   0  0  0  0  0  2  0  0  0  0  0  0
  191.6100  176.6950  143.6270 C   0  0  0  0  0  2  0  0  0  0  0  0
  191.1850  177.4510  144.8790 C   0  0  0  0  0  2  0  0  0  0  0  0
  190.0430  176.8500  145.4930 O   0  0  0  0  0  0  0  0  0  0  0  0
  186.8380  177.4290  143.7060 C   0  0  0  0  0  3  0  0  0  0  0  0
  186.0550  177.9770  144.7370 C   0  0  0  0  0  0  0  0  0  0  0  0
  188.7200  177.2100  145.2160 C   0  0  0  0  0  0  0  0  0  0  0  0
  185.8230  178.7010  147.1460 C   0  0  0  0  0  1  0  0  0  0  0  0
  187.9390  177.7410  146.2460 C   0  0  0  0  0  3  0  0  0  0  0  0
  186.6160  178.1260  146.0160 C   0  0  0  0  0  0  0  0  0  0  0  0
  188.1600  177.0540  143.9460 C   0  0  0  0  0  3  0  0  0  0  0  0
  184.7500  178.4190  144.5150 O   0  0  0  0  0  0  0  0  0  0  0  0
  184.4560  179.5730  143.7390 C   0  0  0  0  0  1  0  0  0  0  0  0
  1 16  1  6  0  0  0
  1  2  1  0  0  0  0
  1  4  1  0  0  0  0
  2  6  2  0  0  0  0
  4 14  1  6  0  0  0
  4  5  1  0  0  0  0
  5  3  1  0  0  0  0
  5 23  1  1  0  0  0
  6  7  1  0  0  0  0
  6  3  1  0  0  0  0
  8 10  1  0  0  0  0
  8  2  1  0  0  0  0
  9  8  1  0  0  0  0
 11 12  1  0  0  0  0
 11  8  1  0  0  0  0
 13 11  1  0  0  0  0
 15 14  1  0  0  0  0
 17 16  2  0  0  0  0
 18 16  1  0  0  0  0
 18 21  1  0  0  0  0
 19 20  2  0  0  0  0
 20 21  1  0  0  0  0
 22 19  1  0  0  0  0
 22 18  2  0  0  0  0
 23 24  1  0  0  0  0
 24 25  1  0  0  0  0
 25 26  1  0  0  0  0
 26 27  1  0  0  0  0
 28 34  2  0  0  0  0
 28 29  1  0  0  0  0
 29 33  2  0  0  0  0
 30 27  1  0  0  0  0
 30 32  2  0  0  0  0
 33 32  1  0  0  0  0
 33 31  1  0  0  0  0
 34 30  1  0  0  0  0
 35 29  1  0  0  0  0
 36 35  1  0  0  0  0
M  END
>  <MODEL>
1

>  <REMARK>
 VINA RESULT:      -7.4      0.000      0.000
  Name = 
  12 active torsions:
  status: ('A' for Active; 'I' for Inactive)
    1  A    between atoms: C_2  and  O_22
    2  A    between atoms: C_3  and  C_18
    3  A    between atoms: C_4  and  C_6
    4  A    between atoms: C_5  and  C_18
    5  A    between atoms: C_6  and  C_8
    6  A    between atoms: O_7  and  C_9
    7  A    between atoms: O_7  and  C_14
    8  A    between atoms: C_9  and  C_16
    9  A    between atoms: O_10  and  C_19
   10  A    between atoms: C_16  and  C_30
   11  A    between atoms: C_23  and  O_36
   12  A    between atoms: C_30  and  O_36
                            x       y       z     vdW  Elec       q    Type
                         _______ _______ _______ _____ _____    ______ ____

>  <TORSDO>
F 12

$$$$
=
 OpenBabel10232411273D

 36 38  0  0  1  0  0  0  0  0999 V2000
  183.5910  178.2840  139.7930 C   0  0  2  0  0  3  0  0  0  0  0  0
  182.2440  178.9930  139.7440 C   0  0  0  0  0  0  0  0  0  0  0  0
  182.1310  178.4390  142.1540 C   0  0  0  0  0  2  0  0  0  0  0  0
  184.4140  178.5640  141.0720 C   0  0  2  0  0  3  0  0  0  0  0  0
  183.5630  178.9310  142.3120 C   0  0  2  0  0  3  0  0  0  0  0  0
  181.5400  179.0270  140.9000 C   0  0  0  0  0  0  0  0  0  0  0  0
  180.3300  179.6200  140.9860 F   0  0  0  0  0  0  0  0  0  0  0  0
  181.6950  179.5500  138.4440 C   0  0  0  0  0  0  0  0  0  0  0  0
  182.2370  178.9160  137.3490 F   0  0  0  0  0  0  0  0  0  0  0  0
  180.3350  179.3520  138.4060 F   0  0  0  0  0  0  0  0  0  0  0  0
  181.9660  181.0380  138.3540 C   0  0  0  0  0  3  0  0  0  0  0  0
  183.2370  181.3410  138.7880 F   0  0  0  0  0  0  0  0  0  0  0  0
  181.0490  181.7410  139.1090 F   0  0  0  0  0  0  0  0  0  0  0  0
  185.5070  179.4380  140.8890 O   0  0  0  0  0  0  0  0  0  0  0  0
  186.6760  178.7990  141.3140 C   0  0  0  0  0  1  0  0  0  0  0  0
  184.3680  178.1330  138.5170 C   0  0  0  0  0  0  0  0  0  0  0  0
  185.0470  179.0970  138.0640 O   0  0  0  0  0  0  0  0  0  0  0  0
  184.3320  176.8800  137.7700 C   0  0  0  0  0  0  0  0  0  0  0  0
  183.7790  174.7230  137.0900 N   0  0  0  0  0  0  0  0  0  0  0  0
  184.9180  175.2590  136.4720 N   0  0  0  0  0  0  0  0  0  0  0  0
  185.2390  176.5260  136.9390 N   0  0  0  0  0  0  0  0  0  0  0  0
  183.2950  175.8260  137.9360 C   0  0  0  0  0  2  0  0  0  0  0  0
  184.1360  178.3980  143.4680 O   0  0  0  0  0  0  0  0  0  0  0  0
  183.3690  178.8990  144.5320 C   0  0  0  0  0  2  0  0  0  0  0  0
  184.1930  178.8660  145.8070 C   0  0  0  0  0  2  0  0  0  0  0  0
  185.5650  178.2580  145.5440 C   0  0  0  0  0  2  0  0  0  0  0  0
  186.3390  178.1710  146.7420 O   0  0  0  0  0  0  0  0  0  0  0  0
  189.7860  177.5250  147.9640 C   0  0  0  0  0  3  0  0  0  0  0  0
  190.4300  177.1700  146.7660 C   0  0  0  0  0  0  0  0  0  0  0  0
  187.6960  177.8380  146.7800 C   0  0  0  0  0  0  0  0  0  0  0  0
  190.3270  176.7680  144.2740 C   0  0  0  0  0  1  0  0  0  0  0  0
  188.3310  177.4720  145.5900 C   0  0  0  0  0  3  0  0  0  0  0  0
  189.6880  177.1410  145.5740 C   0  0  0  0  0  0  0  0  0  0  0  0
  188.4320  177.8590  147.9670 C   0  0  0  0  0  3  0  0  0  0  0  0
  191.7970  176.8900  146.7190 O   0  0  0  0  0  0  0  0  0  0  0  0
  192.3550  175.7140  147.2900 C   0  0  0  0  0  1  0  0  0  0  0  0
  1 16  1  6  0  0  0
  1  4  1  0  0  0  0
  2  1  1  0  0  0  0
  2  6  2  0  0  0  0
  3  5  1  0  0  0  0
  4 14  1  6  0  0  0
  4  5  1  0  0  0  0
  5 23  1  1  0  0  0
  6  7  1  0  0  0  0
  6  3  1  0  0  0  0
  8  2  1  0  0  0  0
  9  8  1  0  0  0  0
 10  8  1  0  0  0  0
 11  8  1  0  0  0  0
 11 12  1  0  0  0  0
 11 13  1  0  0  0  0
 14 15  1  0  0  0  0
 17 16  2  0  0  0  0
 18 22  1  0  0  0  0
 18 16  1  0  0  0  0
 19 22  1  0  0  0  0
 20 21  1  0  0  0  0
 20 19  2  0  0  0  0
 21 18  2  0  0  0  0
 23 24  1  0  0  0  0
 24 25  1  0  0  0  0
 26 25  1  0  0  0  0
 26 27  1  0  0  0  0
 27 30  1  0  0  0  0
 28 34  1  0  0  0  0
 29 28  2  0  0  0  0
 30 34  2  0  0  0  0
 31 33  1  0  0  0  0
 32 30  1  0  0  0  0
 33 32  2  0  0  0  0
 33 29  1  0  0  0  0
 35 29  1  0  0  0  0
 35 36  1  0  0  0  0
M  END
>  <MODEL>
2

>  <REMARK>
 VINA RESULT:      -7.4      4.161      6.337
  Name = 
  12 active torsions:
  status: ('A' for Active; 'I' for Inactive)
    1  A    between atoms: C_2  and  O_22
    2  A    between atoms: C_3  and  C_18
    3  A    between atoms: C_4  and  C_6
    4  A    between atoms: C_5  and  C_18
    5  A    between atoms: C_6  and  C_8
    6  A    between atoms: O_7  and  C_9
    7  A    between atoms: O_7  and  C_14
    8  A    between atoms: C_9  and  C_16
    9  A    between atoms: O_10  and  C_19
   10  A    between atoms: C_16  and  C_30
   11  A    between atoms: C_23  and  O_36
   12  A    between atoms: C_30  and  O_36
                            x       y       z     vdW  Elec       q    Type
                         _______ _______ _______ _____ _____    ______ ____

>  <TORSDO>
F 12

$$$$
=
 OpenBabel10232411273D

 36 38  0  0  1  0  0  0  0  0999 V2000
  185.0900  177.8050  138.8000 C   0  0  2  0  0  3  0  0  0  0  0  0
  184.1150  176.8690  138.0980 C   0  0  0  0  0  0  0  0  0  0  0  0
  182.9030  176.8940  140.2570 C   0  0  0  0  0  2  0  0  0  0  0  0
  184.4190  178.8480  139.7250 C   0  0  2  0  0  3  0  0  0  0  0  0
  183.0480  178.4080  140.2960 C   0  0  2  0  0  3  0  0  0  0  0  0
  183.0760  176.4160  138.8390 C   0  0  0  0  0  0  0  0  0  0  0  0
  182.1480  175.5750  138.3340 F   0  0  0  0  0  0  0  0  0  0  0  0
  184.3550  176.4090  136.6730 C   0  0  0  0  0  0  0  0  0  0  0  0
  185.6970  176.3570  136.3730 F   0  0  0  0  0  0  0  0  0  0  0  0
  183.8460  175.1420  136.5150 F   0  0  0  0  0  0  0  0  0  0  0  0
  183.6530  177.3330  135.6970 C   0  0  0  0  0  3  0  0  0  0  0  0
  182.6930  178.0890  136.3310 F   0  0  0  0  0  0  0  0  0  0  0  0
  183.0620  176.6050  134.6840 F   0  0  0  0  0  0  0  0  0  0  0  0
  184.3940  180.1610  139.2110 O   0  0  0  0  0  0  0  0  0  0  0  0
  183.1150  180.4320  138.7160 C   0  0  0  0  0  1  0  0  0  0  0  0
  186.3100  178.2590  138.0540 C   0  0  0  0  0  0  0  0  0  0  0  0
  186.1970  178.9320  136.9910 O   0  0  0  0  0  0  0  0  0  0  0  0
  187.6450  177.9130  138.5330 C   0  0  0  0  0  0  0  0  0  0  0  0
  189.6360  176.7650  138.9000 N   0  0  0  0  0  0  0  0  0  0  0  0
  189.4360  177.8730  139.7360 N   0  0  0  0  0  0  0  0  0  0  0  0
  188.2170  178.5000  139.5160 N   0  0  0  0  0  2  0  0  0  0  0  0
  188.4690  176.7930  138.0040 C   0  0  0  0  0  3  0  0  0  0  0  0
  182.8950  178.8790  141.6010 O   0  0  0  0  0  0  0  0  0  0  0  0
  184.0870  178.5400  142.2630 C   0  0  0  0  0  2  0  0  0  0  0  0
  184.3380  179.5310  143.3870 C   0  0  0  0  0  2  0  0  0  0  0  0
  184.7090  178.8010  144.6720 C   0  0  0  0  0  2  0  0  0  0  0  0
  185.5980  177.7110  144.4180 O   0  0  0  0  0  0  0  0  0  0  0  0
  189.2340  177.1160  144.8860 C   0  0  0  0  0  3  0  0  0  0  0  0
  189.3530  177.2810  146.2770 C   0  0  0  0  0  0  0  0  0  0  0  0
  186.8570  177.5680  145.0080 C   0  0  0  0  0  0  0  0  0  0  0  0
  188.2860  177.7910  148.5090 C   0  0  0  0  0  1  0  0  0  0  0  0
  186.9760  177.7470  146.3890 C   0  0  0  0  0  3  0  0  0  0  0  0
  188.2100  177.6040  147.0270 C   0  0  0  0  0  0  0  0  0  0  0  0
  187.9950  177.2560  144.2610 C   0  0  0  0  0  3  0  0  0  0  0  0
  190.5660  177.0880  146.9410 O   0  0  0  0  0  0  0  0  0  0  0  0
  191.6950  176.4980  146.3110 C   0  0  0  0  0  1  0  0  0  0  0  0
  1 16  1  6  0  0  0
  1  4  1  0  0  0  0
  2  1  1  0  0  0  0
  2  6  2  0  0  0  0
  3  5  1  0  0  0  0
  4 14  1  6  0  0  0
  4  5  1  0  0  0  0
  5 23  1  1  0  0  0
  6  3  1  0  0  0  0
  7  6  1  0  0  0  0
  8  2  1  0  0  0  0
  9  8  1  0  0  0  0
 10  8  1  0  0  0  0
 11 12  1  0  0  0  0
 11  8  1  0  0  0  0
 13 11  1  0  0  0  0
 15 14  1  0  0  0  0
 16 18  1  0  0  0  0
 17 16  2  0  0  0  0
 18 21  1  0  0  0  0
 19 20  2  0  0  0  0
 21 20  1  0  0  0  0
 22 18  2  0  0  0  0
 22 19  1  0  0  0  0
 23 24  1  0  0  0  0
 24 25  1  0  0  0  0
 25 26  1  0  0  0  0
 27 26  1  0  0  0  0
 27 30  1  0  0  0  0
 28 29  1  0  0  0  0
 29 35  1  0  0  0  0
 29 33  2  0  0  0  0
 30 32  2  0  0  0  0
 32 33  1  0  0  0  0
 33 31  1  0  0  0  0
 34 28  2  0  0  0  0
 34 30  1  0  0  0  0
 36 35  1  0  0  0  0
M  END
>  <MODEL>
3

>  <REMARK>
 VINA RESULT:      -7.1      3.342      5.742
  Name = 
  12 active torsions:
  status: ('A' for Active; 'I' for Inactive)
    1  A    between atoms: C_2  and  O_22
    2  A    between atoms: C_3  and  C_18
    3  A    between atoms: C_4  and  C_6
    4  A    between atoms: C_5  and  C_18
    5  A    between atoms: C_6  and  C_8
    6  A    between atoms: O_7  and  C_9
    7  A    between atoms: O_7  and  C_14
    8  A    between atoms: C_9  and  C_16
    9  A    between atoms: O_10  and  C_19
   10  A    between atoms: C_16  and  C_30
   11  A    between atoms: C_23  and  O_36
   12  A    between atoms: C_30  and  O_36
                            x       y       z     vdW  Elec       q    Type
                         _______ _______ _______ _____ _____    ______ ____

>  <TORSDO>
F 12

$$$$
=
 OpenBabel10232411273D

 36 38  0  0  1  0  0  0  0  0999 V2000
  183.1320  178.9340  138.4320 C   0  0  2  0  0  3  0  0  0  0  0  0
  182.8600  177.4650  138.1380 C   0  0  0  0  0  0  0  0  0  0  0  0
  185.2500  177.3940  137.4960 C   0  0  0  0  0  2  0  0  0  0  0  0
  184.5040  179.2090  139.0930 C   0  0  2  0  0  3  0  0  0  0  0  0
  185.5910  178.1550  138.7700 C   0  0  2  0  0  3  0  0  0  0  0  0
  183.9000  176.7450  137.6540 C   0  0  0  0  0  0  0  0  0  0  0  0
  183.7850  175.4350  137.3480 F   0  0  0  0  0  0  0  0  0  0  0  0
  181.4720  176.8740  138.3000 C   0  0  0  0  0  0  0  0  0  0  0  0
  180.4900  177.8170  138.0980 F   0  0  0  0  0  0  0  0  0  0  0  0
  181.2910  175.8810  137.3670 F   0  0  0  0  0  0  0  0  0  0  0  0
  181.3160  176.2690  139.6810 C   0  0  0  0  0  3  0  0  0  0  0  0
  182.5180  175.7940  140.1550 F   0  0  0  0  0  0  0  0  0  0  0  0
  180.3990  175.2380  139.6550 F   0  0  0  0  0  0  0  0  0  0  0  0
  184.4430  179.5190  140.4680 O   0  0  0  0  0  0  0  0  0  0  0  0
  184.5330  178.3340  141.2060 C   0  0  0  0  0  1  0  0  0  0  0  0
  181.9890  179.7990  138.8790 C   0  0  0  0  0  0  0  0  0  0  0  0
  181.4790  179.6440  140.0240 O   0  0  0  0  0  0  0  0  0  0  0  0
  181.4370  180.8160  137.9890 C   0  0  0  0  0  0  0  0  0  0  0  0
  180.6720  181.9090  136.0820 N   0  0  0  0  0  0  0  0  0  0  0  0
  180.8380  182.7340  137.2040 N   0  0  0  0  0  0  0  0  0  0  0  0
  181.3400  182.0530  138.3040 N   0  0  0  0  0  2  0  0  0  0  0  0
  180.9970  180.5670  136.5900 C   0  0  0  0  0  3  0  0  0  0  0  0
  186.8390  178.7700  138.6490 O   0  0  0  0  0  0  0  0  0  0  0  0
  187.7540  177.8750  139.2270 C   0  0  0  0  0  2  0  0  0  0  0  0
  188.3630  178.5060  140.4670 C   0  0  0  0  0  2  0  0  0  0  0  0
  188.8820  177.4330  141.4160 C   0  0  0  0  0  2  0  0  0  0  0  0
  187.8490  176.9510  142.2770 O   0  0  0  0  0  0  0  0  0  0  0  0
  188.7430  177.3230  145.8630 C   0  0  0  0  0  3  0  0  0  0  0  0
  187.5280  177.7920  146.3920 C   0  0  0  0  0  0  0  0  0  0  0  0
  187.7720  177.2280  143.6460 C   0  0  0  0  0  0  0  0  0  0  0  0
  185.1250  178.4880  146.0440 C   0  0  0  0  0  1  0  0  0  0  0  0
  186.5670  177.7080  144.1670 C   0  0  0  0  0  3  0  0  0  0  0  0
  186.4370  177.9890  145.5290 C   0  0  0  0  0  0  0  0  0  0  0  0
  188.8590  177.0410  144.5020 C   0  0  0  0  0  3  0  0  0  0  0  0
  187.3610  178.0260  147.7580 O   0  0  0  0  0  0  0  0  0  0  0  0
  188.4590  178.1240  148.6560 C   0  0  0  0  0  1  0  0  0  0  0  0
  1 16  1  1  0  0  0
  1  4  1  0  0  0  0
  2  8  1  0  0  0  0
  2  1  1  0  0  0  0
  3  6  1  0  0  0  0
  3  5  1  0  0  0  0
  4 14  1  1  0  0  0
  5 23  1  6  0  0  0
  5  4  1  0  0  0  0
  6  2  2  0  0  0  0
  7  6  1  0  0  0  0
  8 11  1  0  0  0  0
  9  8  1  0  0  0  0
 10  8  1  0  0  0  0
 11 12  1  0  0  0  0
 13 11  1  0  0  0  0
 14 15  1  0  0  0  0
 16 17  2  0  0  0  0
 18 21  1  0  0  0  0
 18 16  1  0  0  0  0
 19 22  1  0  0  0  0
 19 20  2  0  0  0  0
 20 21  1  0  0  0  0
 22 18  2  0  0  0  0
 23 24  1  0  0  0  0
 24 25  1  0  0  0  0
 25 26  1  0  0  0  0
 26 27  1  0  0  0  0
 27 30  1  0  0  0  0
 28 29  1  0  0  0  0
 29 35  1  0  0  0  0
 30 32  2  0  0  0  0
 30 34  1  0  0  0  0
 32 33  1  0  0  0  0
 33 31  1  0  0  0  0
 33 29  2  0  0  0  0
 34 28  2  0  0  0  0
 35 36  1  0  0  0  0
M  END
>  <MODEL>
4

>  <REMARK>
 VINA RESULT:      -7.1      5.255      6.996
  Name = 
  12 active torsions:
  status: ('A' for Active; 'I' for Inactive)
    1  A    between atoms: C_2  and  O_22
    2  A    between atoms: C_3  and  C_18
    3  A    between atoms: C_4  and  C_6
    4  A    between atoms: C_5  and  C_18
    5  A    between atoms: C_6  and  C_8
    6  A    between atoms: O_7  and  C_9
    7  A    between atoms: O_7  and  C_14
    8  A    between atoms: C_9  and  C_16
    9  A    between atoms: O_10  and  C_19
   10  A    between atoms: C_16  and  C_30
   11  A    between atoms: C_23  and  O_36
   12  A    between atoms: C_30  and  O_36
                            x       y       z     vdW  Elec       q    Type
                         _______ _______ _______ _____ _____    ______ ____

>  <TORSDO>
F 12

$$$$
=
 OpenBabel10232411273D

 36 38  0  0  1  0  0  0  0  0999 V2000
  189.5780  176.0240  137.7480 C   0  0  2  0  0  3  0  0  0  0  0  0
  188.4310  177.0260  137.7540 C   0  0  0  0  0  0  0  0  0  0  0  0
  188.9930  177.3000  140.1490 C   0  0  0  0  0  2  0  0  0  0  0  0
  190.8000  176.4490  138.5960 C   0  0  2  0  0  3  0  0  0  0  0  0
  190.4640  177.4030  139.7690 C   0  0  2  0  0  3  0  0  0  0  0  0
  188.1470  177.6100  138.9420 C   0  0  0  0  0  0  0  0  0  0  0  0
  187.1500  178.5100  139.0790 F   0  0  0  0  0  0  0  0  0  0  0  0
  187.6030  177.2800  136.5080 C   0  0  0  0  0  0  0  0  0  0  0  0
  187.0940  178.5580  136.4860 F   0  0  0  0  0  0  0  0  0  0  0  0
  188.4010  177.1340  135.3970 F   0  0  0  0  0  0  0  0  0  0  0  0
  186.4680  176.2800  136.4180 C   0  0  0  0  0  3  0  0  0  0  0  0
  186.3030  175.8280  135.1290 F   0  0  0  0  0  0  0  0  0  0  0  0
  185.2890  176.8480  136.8550 F   0  0  0  0  0  0  0  0  0  0  0  0
  191.9130  176.8850  137.8470 O   0  0  0  0  0  0  0  0  0  0  0  0
  193.0440  176.1710  138.2550 C   0  0  0  0  0  1  0  0  0  0  0  0
  189.8710  175.2770  136.4800 C   0  0  0  0  0  0  0  0  0  0  0  0
  190.6870  175.7430  135.6370 O   0  0  0  0  0  0  0  0  0  0  0  0
  189.2010  174.0130  136.1920 C   0  0  0  0  0  0  0  0  0  0  0  0
  188.0750  172.3070  135.0760 N   0  0  0  0  0  0  0  0  0  0  0  0
  188.1320  172.1580  136.4700 N   0  0  0  0  0  0  0  0  0  0  0  0
  188.7700  173.2190  137.0990 N   0  0  0  0  0  2  0  0  0  0  0  0
  188.8600  173.5270  134.8270 C   0  0  0  0  0  3  0  0  0  0  0  0
  191.2720  177.1170  140.8710 O   0  0  0  0  0  0  0  0  0  0  0  0
  190.4450  176.4280  141.7730 C   0  0  0  0  0  2  0  0  0  0  0  0
  191.0560  176.4850  143.1620 C   0  0  0  0  0  2  0  0  0  0  0  0
  190.1230  177.2040  144.1290 C   0  0  0  0  0  2  0  0  0  0  0  0
  188.8490  176.5610  144.2040 O   0  0  0  0  0  0  0  0  0  0  0  0
  185.6910  178.2660  143.2480 C   0  0  0  0  0  3  0  0  0  0  0  0
  185.1880  178.6210  144.5120 C   0  0  0  0  0  0  0  0  0  0  0  0
  187.6280  177.2390  144.2770 C   0  0  0  0  0  0  0  0  0  0  0  0
  185.4200  178.6190  147.0280 C   0  0  0  0  0  1  0  0  0  0  0  0
  187.1240  177.5780  145.5360 C   0  0  0  0  0  3  0  0  0  0  0  0
  185.9140  178.2660  145.6610 C   0  0  0  0  0  0  0  0  0  0  0  0
  186.9030  177.5840  143.1360 C   0  0  0  0  0  3  0  0  0  0  0  0
  184.0100  179.3560  144.6570 O   0  0  0  0  0  0  0  0  0  0  0  0
  182.7750  178.9370  144.0920 C   0  0  0  0  0  1  0  0  0  0  0  0
  1 16  1  6  0  0  0
  1  2  1  0  0  0  0
  1  4  1  0  0  0  0
  2  6  2  0  0  0  0
  4 14  1  6  0  0  0
  4  5  1  0  0  0  0
  5  3  1  0  0  0  0
  5 23  1  1  0  0  0
  6  7  1  0  0  0  0
  6  3  1  0  0  0  0
  8  2  1  0  0  0  0
  9  8  1  0  0  0  0
 10  8  1  0  0  0  0
 11  8  1  0  0  0  0
 11 13  1  0  0  0  0
 12 11  1  0  0  0  0
 14 15  1  0  0  0  0
 17 16  2  0  0  0  0
 18 16  1  0  0  0  0
 18 21  1  0  0  0  0
 19 20  2  0  0  0  0
 20 21  1  0  0  0  0
 22 19  1  0  0  0  0
 22 18  2  0  0  0  0
 23 24  1  0  0  0  0
 24 25  1  0  0  0  0
 25 26  1  0  0  0  0
 26 27  1  0  0  0  0
 27 30  1  0  0  0  0
 28 29  1  0  0  0  0
 29 35  1  0  0  0  0
 29 33  2  0  0  0  0
 30 32  2  0  0  0  0
 32 33  1  0  0  0  0
 33 31  1  0  0  0  0
 34 28  2  0  0  0  0
 34 30  1  0  0  0  0
 36 35  1  0  0  0  0
M  END
>  <MODEL>
5

>  <REMARK>
 VINA RESULT:      -6.8      1.130      1.672
  Name = 
  12 active torsions:
  status: ('A' for Active; 'I' for Inactive)
    1  A    between atoms: C_2  and  O_22
    2  A    between atoms: C_3  and  C_18
    3  A    between atoms: C_4  and  C_6
    4  A    between atoms: C_5  and  C_18
    5  A    between atoms: C_6  and  C_8
    6  A    between atoms: O_7  and  C_9
    7  A    between atoms: O_7  and  C_14
    8  A    between atoms: C_9  and  C_16
    9  A    between atoms: O_10  and  C_19
   10  A    between atoms: C_16  and  C_30
   11  A    between atoms: C_23  and  O_36
   12  A    between atoms: C_30  and  O_36
                            x       y       z     vdW  Elec       q    Type
                         _______ _______ _______ _____ _____    ______ ____

>  <TORSDO>
F 12

$$$$
=
 OpenBabel10232411273D

 36 38  0  0  1  0  0  0  0  0999 V2000
  189.1630  178.1280  144.7330 C   0  0  2  0  0  3  0  0  0  0  0  0
  189.7210  177.2440  145.8410 C   0  0  0  0  0  0  0  0  0  0  0  0
  187.4840  177.5200  146.8650 C   0  0  0  0  0  2  0  0  0  0  0  0
  187.6900  177.8340  144.3630 C   0  0  2  0  0  3  0  0  0  0  0  0
  186.8530  177.2210  145.5130 C   0  0  2  0  0  3  0  0  0  0  0  0
  188.8930  176.9890  146.8820 C   0  0  0  0  0  0  0  0  0  0  0  0
  189.2720  176.2250  147.9290 F   0  0  0  0  0  0  0  0  0  0  0  0
  191.1570  176.7550  145.8090 C   0  0  0  0  0  0  0  0  0  0  0  0
  191.3380  175.7640  144.8710 F   0  0  0  0  0  0  0  0  0  0  0  0
  191.9830  177.8010  145.4710 F   0  0  0  0  0  0  0  0  0  0  0  0
  191.5670  176.2420  147.1750 C   0  0  0  0  0  3  0  0  0  0  0  0
  191.8580  177.2790  148.0310 F   0  0  0  0  0  0  0  0  0  0  0  0
  192.6690  175.4170  147.0690 F   0  0  0  0  0  0  0  0  0  0  0  0
  187.5160  177.1480  143.1430 O   0  0  0  0  0  0  0  0  0  0  0  0
  186.5760  177.8330  142.3660 C   0  0  0  0  0  1  0  0  0  0  0  0
  190.0710  178.5200  143.6040 C   0  0  0  0  0  0  0  0  0  0  0  0
  190.8470  179.5100  143.7210 O   0  0  0  0  0  0  0  0  0  0  0  0
  190.0560  177.7770  142.3480 C   0  0  0  0  0  0  0  0  0  0  0  0
  190.4810  176.1650  140.7240 N   0  0  0  0  0  0  0  0  0  0  0  0
  189.8330  177.3150  140.2520 N   0  0  0  0  0  0  0  0  0  0  0  0
  189.6400  178.2690  141.2410 N   0  0  0  0  0  0  0  0  0  0  0  0
  190.5900  176.4000  142.1730 C   0  0  0  0  0  2  0  0  0  0  0  0
  185.5440  177.7060  145.4690 O   0  0  0  0  0  0  0  0  0  0  0  0
  185.6570  179.1000  145.6040 C   0  0  0  0  0  2  0  0  0  0  0  0
  184.5830  179.7760  144.7700 C   0  0  0  0  0  2  0  0  0  0  0  0
  183.3900  178.8480  144.5770 C   0  0  0  0  0  2  0  0  0  0  0  0
  182.4150  179.4210  143.7040 O   0  0  0  0  0  0  0  0  0  0  0  0
  180.0900  177.8900  141.2440 C   0  0  0  0  0  3  0  0  0  0  0  0
  180.9900  177.4980  140.2380 C   0  0  0  0  0  0  0  0  0  0  0  0
  181.9140  178.7900  142.5610 C   0  0  0  0  0  0  0  0  0  0  0  0
  183.3540  177.3750  139.3560 C   0  0  0  0  0  1  0  0  0  0  0  0
  182.8080  178.4140  141.5550 C   0  0  0  0  0  3  0  0  0  0  0  0
  182.3580  177.7710  140.4000 C   0  0  0  0  0  0  0  0  0  0  0  0
  180.5520  178.5270  142.3960 C   0  0  0  0  0  3  0  0  0  0  0  0
  180.5680  176.8060  139.1020 O   0  0  0  0  0  0  0  0  0  0  0  0
  180.2550  175.4190  139.1250 C   0  0  0  0  0  1  0  0  0  0  0  0
  1 16  1  6  0  0  0
  1  2  1  0  0  0  0
  2  6  2  0  0  0  0
  3  6  1  0  0  0  0
  4 14  1  6  0  0  0
  4  1  1  0  0  0  0
  4  5  1  0  0  0  0
  5 23  1  1  0  0  0
  5  3  1  0  0  0  0
  6  7  1  0  0  0  0
  8  2  1  0  0  0  0
  8 11  1  0  0  0  0
  9  8  1  0  0  0  0
 10  8  1  0  0  0  0
 11 12  1  0  0  0  0
 13 11  1  0  0  0  0
 15 14  1  0  0  0  0
 16 17  2  0  0  0  0
 18 16  1  0  0  0  0
 19 22  1  0  0  0  0
 20 19  2  0  0  0  0
 20 21  1  0  0  0  0
 21 18  2  0  0  0  0
 22 18  1  0  0  0  0
 23 24  1  0  0  0  0
 25 24  1  0  0  0  0
 26 25  1  0  0  0  0
 27 26  1  0  0  0  0
 28 34  1  0  0  0  0
 29 33  1  0  0  0  0
 29 28  2  0  0  0  0
 30 27  1  0  0  0  0
 31 33  1  0  0  0  0
 32 30  1  0  0  0  0
 33 32  2  0  0  0  0
 34 30  2  0  0  0  0
 35 36  1  0  0  0  0
 35 29  1  0  0  0  0
M  END
>  <MODEL>
6

>  <REMARK>
 VINA RESULT:      -6.8      4.954      7.909
  Name = 
  12 active torsions:
  status: ('A' for Active; 'I' for Inactive)
    1  A    between atoms: C_2  and  O_22
    2  A    between atoms: C_3  and  C_18
    3  A    between atoms: C_4  and  C_6
    4  A    between atoms: C_5  and  C_18
    5  A    between atoms: C_6  and  C_8
    6  A    between atoms: O_7  and  C_9
    7  A    between atoms: O_7  and  C_14
    8  A    between atoms: C_9  and  C_16
    9  A    between atoms: O_10  and  C_19
   10  A    between atoms: C_16  and  C_30
   11  A    between atoms: C_23  and  O_36
   12  A    between atoms: C_30  and  O_36
                            x       y       z     vdW  Elec       q    Type
                         _______ _______ _______ _____ _____    ______ ____

>  <TORSDO>
F 12

$$$$
=
 OpenBabel10232411273D

 36 38  0  0  1  0  0  0  0  0999 V2000
  182.6440  179.0160  138.0530 C   0  0  2  0  0  3  0  0  0  0  0  0
  183.1460  177.7100  137.4530 C   0  0  0  0  0  0  0  0  0  0  0  0
  185.3160  178.3580  138.4520 C   0  0  0  0  0  2  0  0  0  0  0  0
  183.2080  179.3320  139.4580 C   0  0  2  0  0  3  0  0  0  0  0  0
  184.5920  178.6990  139.7470 C   0  0  2  0  0  3  0  0  0  0  0  0
  184.4570  177.4280  137.6360 C   0  0  0  0  0  0  0  0  0  0  0  0
  185.0250  176.3050  137.1470 F   0  0  0  0  0  0  0  0  0  0  0  0
  182.2350  176.8240  136.6230 C   0  0  0  0  0  0  0  0  0  0  0  0
  181.3720  177.5640  135.8470 F   0  0  0  0  0  0  0  0  0  0  0  0
  182.9990  176.0570  135.7760 F   0  0  0  0  0  0  0  0  0  0  0  0
  181.4400  175.8990  137.5230 C   0  0  0  0  0  3  0  0  0  0  0  0
  182.2100  175.4360  138.5660 F   0  0  0  0  0  0  0  0  0  0  0  0
  180.9570  174.8250  136.8030 F   0  0  0  0  0  0  0  0  0  0  0  0
  182.2950  179.1400  140.5160 O   0  0  0  0  0  0  0  0  0  0  0  0
  182.3290  177.7990  140.9100 C   0  0  0  0  0  1  0  0  0  0  0  0
  181.2210  179.4220  137.7960 C   0  0  0  0  0  0  0  0  0  0  0  0
  180.2670  178.7320  138.2510 O   0  0  0  0  0  0  0  0  0  0  0  0
  180.9210  180.6080  137.0010 C   0  0  0  0  0  0  0  0  0  0  0  0
  180.3880  182.7920  136.3960 N   0  0  0  0  0  0  0  0  0  0  0  0
  180.3150  181.8600  135.3510 N   0  0  0  0  0  0  0  0  0  0  0  0
  180.5940  180.5650  135.7630 N   0  0  0  0  0  0  0  0  0  0  0  0
  180.8730  181.9960  137.5350 C   0  0  0  0  0  2  0  0  0  0  0  0
  185.3660  179.5640  140.5240 O   0  0  0  0  0  0  0  0  0  0  0  0
  185.7400  178.8180  141.6540 C   0  0  0  0  0  2  0  0  0  0  0  0
  185.1310  179.4430  142.8960 C   0  0  0  0  0  2  0  0  0  0  0  0
  184.5540  178.3700  143.8100 C   0  0  0  0  0  2  0  0  0  0  0  0
  185.0370  178.5040  145.1480 O   0  0  0  0  0  0  0  0  0  0  0  0
  188.4640  177.0710  145.1680 C   0  0  0  0  0  3  0  0  0  0  0  0
  188.8110  177.2340  146.5200 C   0  0  0  0  0  0  0  0  0  0  0  0
  186.2990  178.0790  145.5750 C   0  0  0  0  0  0  0  0  0  0  0  0
  188.2160  178.0340  148.8410 C   0  0  0  0  0  1  0  0  0  0  0  0
  186.6480  178.2550  146.9170 C   0  0  0  0  0  3  0  0  0  0  0  0
  187.8920  177.8370  147.3950 C   0  0  0  0  0  0  0  0  0  0  0  0
  187.2160  177.4870  144.7040 C   0  0  0  0  0  3  0  0  0  0  0  0
  190.0270  176.7730  147.0290 O   0  0  0  0  0  0  0  0  0  0  0  0
  191.2390  176.8420  146.2900 C   0  0  0  0  0  1  0  0  0  0  0  0
  1 16  1  1  0  0  0
  1  4  1  0  0  0  0
  2  6  2  0  0  0  0
  2  1  1  0  0  0  0
  3  5  1  0  0  0  0
  4  5  1  0  0  0  0
  4 14  1  1  0  0  0
  5 23  1  6  0  0  0
  6  3  1  0  0  0  0
  7  6  1  0  0  0  0
  8  2  1  0  0  0  0
  8 11  1  0  0  0  0
  9  8  1  0  0  0  0
 10  8  1  0  0  0  0
 11 12  1  0  0  0  0
 13 11  1  0  0  0  0
 14 15  1  0  0  0  0
 16 17  2  0  0  0  0
 18 22  1  0  0  0  0
 18 16  1  0  0  0  0
 19 22  1  0  0  0  0
 20 21  1  0  0  0  0
 20 19  2  0  0  0  0
 21 18  2  0  0  0  0
 23 24  1  0  0  0  0
 24 25  1  0  0  0  0
 25 26  1  0  0  0  0
 26 27  1  0  0  0  0
 27 30  1  0  0  0  0
 28 29  1  0  0  0  0
 29 35  1  0  0  0  0
 29 33  2  0  0  0  0
 30 32  2  0  0  0  0
 32 33  1  0  0  0  0
 33 31  1  0  0  0  0
 34 28  2  0  0  0  0
 34 30  1  0  0  0  0
 36 35  1  0  0  0  0
M  END
>  <MODEL>
7

>  <REMARK>
 VINA RESULT:      -6.7      5.271      7.430
  Name = 
  12 active torsions:
  status: ('A' for Active; 'I' for Inactive)
    1  A    between atoms: C_2  and  O_22
    2  A    between atoms: C_3  and  C_18
    3  A    between atoms: C_4  and  C_6
    4  A    between atoms: C_5  and  C_18
    5  A    between atoms: C_6  and  C_8
    6  A    between atoms: O_7  and  C_9
    7  A    between atoms: O_7  and  C_14
    8  A    between atoms: C_9  and  C_16
    9  A    between atoms: O_10  and  C_19
   10  A    between atoms: C_16  and  C_30
   11  A    between atoms: C_23  and  O_36
   12  A    between atoms: C_30  and  O_36
                            x       y       z     vdW  Elec       q    Type
                         _______ _______ _______ _____ _____    ______ ____

>  <TORSDO>
F 12

$$$$
=
 OpenBabel10232411273D

 36 38  0  0  1  0  0  0  0  0999 V2000
  189.2060  178.1810  144.8410 C   0  0  2  0  0  3  0  0  0  0  0  0
  189.7880  177.2580  145.9030 C   0  0  0  0  0  0  0  0  0  0  0  0
  187.5770  177.5040  146.9910 C   0  0  0  0  0  2  0  0  0  0  0  0
  187.7230  177.9040  144.4970 C   0  0  2  0  0  3  0  0  0  0  0  0
  186.9120  177.2540  145.6450 C   0  0  2  0  0  3  0  0  0  0  0  0
  188.9850  176.9690  146.9550 C   0  0  0  0  0  0  0  0  0  0  0  0
  189.3860  176.1690  147.9650 F   0  0  0  0  0  0  0  0  0  0  0  0
  191.2200  176.7670  145.8190 C   0  0  0  0  0  0  0  0  0  0  0  0
  191.3850  175.8430  144.8120 F   0  0  0  0  0  0  0  0  0  0  0  0
  192.0480  177.8300  145.5450 F   0  0  0  0  0  0  0  0  0  0  0  0
  191.6450  176.1570  147.1410 C   0  0  0  0  0  3  0  0  0  0  0  0
  192.0470  177.1270  148.0300 F   0  0  0  0  0  0  0  0  0  0  0  0
  192.6770  175.2610  146.9490 F   0  0  0  0  0  0  0  0  0  0  0  0
  187.5160  177.2620  143.2580 O   0  0  0  0  0  0  0  0  0  0  0  0
  187.6220  175.8790  143.4400 C   0  0  0  0  0  1  0  0  0  0  0  0
  190.0870  178.6100  143.7040 C   0  0  0  0  0  0  0  0  0  0  0  0
  190.8700  179.5920  143.8370 O   0  0  0  0  0  0  0  0  0  0  0  0
  190.0380  177.9120  142.4230 C   0  0  0  0  0  0  0  0  0  0  0  0
  190.5510  176.4820  140.6600 N   0  0  0  0  0  0  0  0  0  0  0  0
  189.5870  177.4560  140.3630 N   0  0  0  0  0  0  0  0  0  0  0  0
  189.3450  178.3160  141.4250 N   0  0  0  0  0  0  0  0  0  0  0  0
  190.8380  176.7040  142.0860 C   0  0  0  0  0  2  0  0  0  0  0  0
  185.6040  177.7440  145.6500 O   0  0  0  0  0  0  0  0  0  0  0  0
  185.7290  179.1430  145.6580 C   0  0  0  0  0  2  0  0  0  0  0  0
  184.6270  179.7520  144.8100 C   0  0  0  0  0  2  0  0  0  0  0  0
  184.2400  178.8110  143.6760 C   0  0  0  0  0  2  0  0  0  0  0  0
  184.9010  179.1580  142.4580 O   0  0  0  0  0  0  0  0  0  0  0  0
  182.8810  177.7520  139.6750 C   0  0  0  0  0  3  0  0  0  0  0  0
  183.8160  177.7870  138.6250 C   0  0  0  0  0  0  0  0  0  0  0  0
  184.5120  178.7020  141.1940 C   0  0  0  0  0  0  0  0  0  0  0  0
  186.1300  178.3550  137.7870 C   0  0  0  0  0  1  0  0  0  0  0  0
  185.4380  178.7500  140.1490 C   0  0  0  0  0  3  0  0  0  0  0  0
  185.1020  178.2960  138.8710 C   0  0  0  0  0  0  0  0  0  0  0  0
  183.2310  178.2030  140.9480 C   0  0  0  0  0  3  0  0  0  0  0  0
  183.5170  177.2870  137.3570 O   0  0  0  0  0  0  0  0  0  0  0  0
  182.3200  177.6210  136.6670 C   0  0  0  0  0  1  0  0  0  0  0  0
  1 16  1  6  0  0  0
  1  2  1  0  0  0  0
  2  6  2  0  0  0  0
  4 14  1  6  0  0  0
  4  1  1  0  0  0  0
  4  5  1  0  0  0  0
  5 23  1  1  0  0  0
  5  3  1  0  0  0  0
  6  3  1  0  0  0  0
  6  7  1  0  0  0  0
  8  2  1  0  0  0  0
  8 11  1  0  0  0  0
  9  8  1  0  0  0  0
 10  8  1  0  0  0  0
 11 12  1  0  0  0  0
 13 11  1  0  0  0  0
 14 15  1  0  0  0  0
 16 17  2  0  0  0  0
 18 16  1  0  0  0  0
 19 22  1  0  0  0  0
 20 19  2  0  0  0  0
 20 21  1  0  0  0  0
 21 18  2  0  0  0  0
 22 18  1  0  0  0  0
 23 24  1  0  0  0  0
 25 24  1  0  0  0  0
 26 25  1  0  0  0  0
 27 26  1  0  0  0  0
 28 34  1  0  0  0  0
 29 33  1  0  0  0  0
 29 28  2  0  0  0  0
 30 27  1  0  0  0  0
 31 33  1  0  0  0  0
 32 30  1  0  0  0  0
 33 32  2  0  0  0  0
 34 30  2  0  0  0  0
 35 29  1  0  0  0  0
 36 35  1  0  0  0  0
M  END
>  <MODEL>
8

>  <REMARK>
 VINA RESULT:      -6.7      4.633      7.796
  Name = 
  12 active torsions:
  status: ('A' for Active; 'I' for Inactive)
    1  A    between atoms: C_2  and  O_22
    2  A    between atoms: C_3  and  C_18
    3  A    between atoms: C_4  and  C_6
    4  A    between atoms: C_5  and  C_18
    5  A    between atoms: C_6  and  C_8
    6  A    between atoms: O_7  and  C_9
    7  A    between atoms: O_7  and  C_14
    8  A    between atoms: C_9  and  C_16
    9  A    between atoms: O_10  and  C_19
   10  A    between atoms: C_16  and  C_30
   11  A    between atoms: C_23  and  O_36
   12  A    between atoms: C_30  and  O_36
                            x       y       z     vdW  Elec       q    Type
                         _______ _______ _______ _____ _____    ______ ____

>  <TORSDO>
F 12

$$$$
=
 OpenBabel10232411273D

 36 38  0  0  1  0  0  0  0  0999 V2000
  184.3880  177.3170  137.8240 C   0  0  2  0  0  3  0  0  0  0  0  0
  183.0390  177.9350  137.4810 C   0  0  0  0  0  0  0  0  0  0  0  0
  183.1670  178.9000  139.7570 C   0  0  0  0  0  2  0  0  0  0  0  0
  185.3320  178.2480  138.6220 C   0  0  2  0  0  3  0  0  0  0  0  0
  184.6040  179.3150  139.4760 C   0  0  2  0  0  3  0  0  0  0  0  0
  182.4520  178.6760  138.4510 C   0  0  0  0  0  0  0  0  0  0  0  0
  181.2530  179.2700  138.2730 F   0  0  0  0  0  0  0  0  0  0  0  0
  182.3600  177.6550  136.1540 C   0  0  0  0  0  0  0  0  0  0  0  0
  181.4050  178.6010  135.8600 F   0  0  0  0  0  0  0  0  0  0  0  0
  183.2990  177.6890  135.1500 F   0  0  0  0  0  0  0  0  0  0  0  0
  181.7240  176.2790  136.1690 C   0  0  0  0  0  3  0  0  0  0  0  0
  182.1730  175.5110  135.1180 F   0  0  0  0  0  0  0  0  0  0  0  0
  180.3500  176.3830  136.1010 F   0  0  0  0  0  0  0  0  0  0  0  0
  186.3960  178.7900  137.8710 O   0  0  0  0  0  0  0  0  0  0  0  0
  187.5970  178.2240  138.3090 C   0  0  0  0  0  1  0  0  0  0  0  0
  185.0350  176.4080  136.8200 C   0  0  0  0  0  0  0  0  0  0  0  0
  185.4090  176.8560  135.7000 O   0  0  0  0  0  0  0  0  0  0  0  0
  185.2230  174.9910  137.1150 C   0  0  0  0  0  0  0  0  0  0  0  0
  184.8300  172.8020  137.8030 N   0  0  0  0  0  0  0  0  0  0  0  0
  186.1760  173.1050  137.5490 N   0  0  0  0  0  0  0  0  0  0  0  0
  186.3710  174.4300  137.1870 N   0  0  0  0  0  0  0  0  0  0  0  0
  184.1250  174.0440  137.4470 C   0  0  0  0  0  2  0  0  0  0  0  0
  185.2930  179.5280  140.6720 O   0  0  0  0  0  0  0  0  0  0  0  0
  184.7860  178.5740  141.5700 C   0  0  0  0  0  2  0  0  0  0  0  0
  185.2710  178.8950  142.9730 C   0  0  0  0  0  2  0  0  0  0  0  0
  186.1450  177.7680  143.5090 C   0  0  0  0  0  2  0  0  0  0  0  0
  186.4520  177.9550  144.8920 O   0  0  0  0  0  0  0  0  0  0  0  0
  189.1340  177.2470  147.3630 C   0  0  0  0  0  3  0  0  0  0  0  0
  190.2650  177.2240  146.5270 C   0  0  0  0  0  0  0  0  0  0  0  0
  187.7050  177.7040  145.4610 C   0  0  0  0  0  0  0  0  0  0  0  0
  191.2710  177.4160  144.2190 C   0  0  0  0  0  1  0  0  0  0  0  0
  188.8260  177.6680  144.6260 C   0  0  0  0  0  3  0  0  0  0  0  0
  190.1000  177.4330  145.1480 C   0  0  0  0  0  0  0  0  0  0  0  0
  187.8680  177.4890  146.8310 C   0  0  0  0  0  3  0  0  0  0  0  0
  191.5520  177.0460  147.0360 O   0  0  0  0  0  0  0  0  0  0  0  0
  192.0330  175.7810  147.4710 C   0  0  0  0  0  1  0  0  0  0  0  0
  1 16  1  6  0  0  0
  1  4  1  0  0  0  0
  2  1  1  0  0  0  0
  2  6  2  0  0  0  0
  4 14  1  6  0  0  0
  4  5  1  0  0  0  0
  5  3  1  0  0  0  0
  5 23  1  1  0  0  0
  6  3  1  0  0  0  0
  7  6  1  0  0  0  0
  8 11  1  0  0  0  0
  8  2  1  0  0  0  0
  9  8  1  0  0  0  0
 10  8  1  0  0  0  0
 12 11  1  0  0  0  0
 13 11  1  0  0  0  0
 14 15  1  0  0  0  0
 16 18  1  0  0  0  0
 17 16  2  0  0  0  0
 18 21  2  0  0  0  0
 18 22  1  0  0  0  0
 20 19  2  0  0  0  0
 21 20  1  0  0  0  0
 22 19  1  0  0  0  0
 23 24  1  0  0  0  0
 24 25  1  0  0  0  0
 25 26  1  0  0  0  0
 26 27  1  0  0  0  0
 27 30  1  0  0  0  0
 29 35  1  0  0  0  0
 29 28  2  0  0  0  0
 30 34  2  0  0  0  0
 31 33  1  0  0  0  0
 32 33  2  0  0  0  0
 32 30  1  0  0  0  0
 33 29  1  0  0  0  0
 34 28  1  0  0  0  0
 35 36  1  0  0  0  0
M  END
>  <MODEL>
9

>  <REMARK>
 VINA RESULT:      -6.7      3.710      5.654
  Name = 
  12 active torsions:
  status: ('A' for Active; 'I' for Inactive)
    1  A    between atoms: C_2  and  O_22
    2  A    between atoms: C_3  and  C_18
    3  A    between atoms: C_4  and  C_6
    4  A    between atoms: C_5  and  C_18
    5  A    between atoms: C_6  and  C_8
    6  A    between atoms: O_7  and  C_9
    7  A    between atoms: O_7  and  C_14
    8  A    between atoms: C_9  and  C_16
    9  A    between atoms: O_10  and  C_19
   10  A    between atoms: C_16  and  C_30
   11  A    between atoms: C_23  and  O_36
   12  A    between atoms: C_30  and  O_36
                            x       y       z     vdW  Elec       q    Type
                         _______ _______ _______ _____ _____    ______ ____

>  <TORSDO>
F 12

$$$$
