=
 OpenBabel10232409413D

 35 38  0  0  1  0  0  0  0  0999 V2000
  188.2440  174.2850  134.6980 N   0  0  0  0  0  2  0  0  0  0  0  0
  193.3350  176.4500  138.5400 C   0  0  0  0  0  3  0  0  0  0  0  0
  191.0320  174.5160  136.7360 C   0  0  0  0  0  0  0  0  0  0  0  0
  190.8280  177.9770  142.4350 N   0  0  0  0  0  0  0  0  0  0  0  0
  192.2480  174.9530  136.8510 N   0  0  0  0  0  0  0  0  0  0  0  0
  190.4660  174.2100  135.4770 N   0  0  0  0  0  2  0  0  0  0  0  0
  193.1230  177.2480  139.6740 C   0  0  0  0  0  3  0  0  0  0  0  0
  190.7490  176.6700  139.6840 C   0  0  0  0  0  0  0  0  0  0  0  0
  190.9890  175.8890  138.5490 C   0  0  0  0  0  0  0  0  0  0  0  0
  189.3580  176.7650  140.2360 C   0  0  1  0  0  3  0  0  0  0  0  0
  189.1680  174.7860  135.4470 C   0  0  0  0  0  0  0  0  0  0  0  0
  188.7630  175.8410  136.8490 S   0  0  0  0  0  0  0  0  0  0  0  0
  190.1280  176.7420  142.6600 C   0  0  0  0  0  0  0  0  0  0  0  0
  191.8480  177.3520  140.2660 C   0  0  0  0  0  0  0  0  0  0  0  0
  191.7230  178.1720  141.3950 O   0  0  0  0  0  0  0  0  0  0  0  0
  189.2930  176.0880  141.6020 C   0  0  0  0  0  2  0  0  0  0  0  0
  190.1500  176.2160  143.8050 O   0  0  0  0  0  0  0  0  0  0  0  0
  190.8230  178.9700  143.4960 C   0  0  0  0  0  1  0  0  0  0  0  0
  192.2470  175.7610  138.0160 C   0  0  0  0  0  0  0  0  0  0  0  0
  190.0780  174.9930  137.7840 C   0  0  1  0  0  3  0  0  0  0  0  0
  188.7750  178.1920  140.2150 C   0  0  1  0  0  3  0  0  0  0  0  0
  189.2340  178.9480  138.9740 C   0  0  0  0  0  2  0  0  0  0  0  0
  188.1880  178.8540  137.8790 C   0  0  0  0  0  1  0  0  0  0  0  0
  187.2510  178.1510  140.2300 C   0  0  0  0  0  2  0  0  0  0  0  0
  185.5940  179.6810  141.0420 O   0  0  0  0  0  1  0  0  0  0  0  0
  186.7010  178.9190  141.4230 C   0  0  1  0  0  3  0  0  0  0  0  0
  186.3290  177.9870  142.5350 C   0  0  0  0  0  3  0  0  0  0  0  0
  187.0030  177.9560  143.6870 C   0  0  0  0  0  3  0  0  0  0  0  0
  186.6020  177.0120  144.7740 C   0  0  0  0  0  2  0  0  0  0  0  0
  186.7960  177.6350  146.0780 N   0  0  0  0  0  0  0  0  0  0  0  0
  185.9900  178.8490  146.1250 C   0  0  0  0  0  2  0  0  0  0  0  0
  185.0580  178.7550  147.1590 O   0  0  0  0  0  1  0  0  0  0  0  0
  188.2150  177.9650  146.2650 C   0  0  0  0  0  2  0  0  0  0  0  0
  188.3880  177.9970  148.7440 C   0  0  0  0  0  1  0  0  0  0  0  0
  188.8440  177.2900  147.4850 C   0  0  0  0  0  2  0  0  0  0  0  0
  1 11  2  0  0  0  0
  2  7  1  0  0  0  0
  3  5  2  0  0  0  0
  4 13  1  0  0  0  0
  4 18  1  0  0  0  0
  5 19  1  0  0  0  0
  6  3  1  0  0  0  0
  7 14  2  0  0  0  0
  8 10  1  0  0  0  0
  8 14  1  0  0  0  0
  9  8  2  0  0  0  0
 10 21  1  1  0  0  0
 10 16  1  0  0  0  0
 11  6  1  0  0  0  0
 11 12  1  0  0  0  0
 12 20  1  0  0  0  0
 13 17  2  0  0  0  0
 14 15  1  0  0  0  0
 15  4  1  0  0  0  0
 16 13  1  0  0  0  0
 19  2  2  0  0  0  0
 19  9  1  0  0  0  0
 20  3  1  6  0  0  0
 20  9  1  0  0  0  0
 21 22  1  6  0  0  0
 21 24  1  0  0  0  0
 23 22  1  0  0  0  0
 24 26  1  0  0  0  0
 26 25  1  6  0  0  0
 26 27  1  0  0  0  0
 27 28  2  0  0  0  0
 28 29  1  0  0  0  0
 29 30  1  0  0  0  0
 30 31  1  0  0  0  0
 30 33  1  0  0  0  0
 31 32  1  0  0  0  0
 33 35  1  0  0  0  0
 35 34  1  0  0  0  0
M  END
>  <MODEL>
1

>  <REMARK>
 VINA RESULT:      -6.4      0.000      0.000
  Name = 
  10 active torsions:
  status: ('A' for Active; 'I' for Inactive)
    1  A    between atoms: C_1  and  C_20
    2  A    between atoms: C_2  and  C_13
    3  A    between atoms: C_2  and  N_17
    4  A    between atoms: C_4  and  C_33
    5  A    between atoms: C_6  and  C_20
    6  A    between atoms: C_6  and  C_33
    7  A    between atoms: C_10  and  N_17
    8  A    between atoms: N_17  and  C_21
    9  A    between atoms: C_21  and  C_27
   10  A    between atoms: C_22  and  C_33
                            x       y       z     vdW  Elec       q    Type
                         _______ _______ _______ _____ _____    ______ ____

>  <TORSDO>
F 10

$$$$
=
 OpenBabel10232409413D

 35 38  0  0  1  0  0  0  0  0999 V2000
  188.2890  174.0950  134.8060 N   0  0  0  0  0  2  0  0  0  0  0  0
  193.4020  176.5230  138.4600 C   0  0  0  0  0  3  0  0  0  0  0  0
  191.1310  174.4700  136.7470 C   0  0  0  0  0  0  0  0  0  0  0  0
  190.9580  177.9640  142.4270 N   0  0  0  0  0  0  0  0  0  0  0  0
  192.3290  174.9640  136.8180 N   0  0  0  0  0  0  0  0  0  0  0  0
  190.5380  174.1290  135.5100 N   0  0  0  0  0  2  0  0  0  0  0  0
  193.1910  177.3190  139.5950 C   0  0  0  0  0  3  0  0  0  0  0  0
  190.8470  176.6330  139.6890 C   0  0  0  0  0  0  0  0  0  0  0  0
  191.0850  175.8540  138.5510 C   0  0  0  0  0  0  0  0  0  0  0  0
  189.4740  176.6690  140.2870 C   0  0  1  0  0  3  0  0  0  0  0  0
  189.2140  174.6440  135.5200 C   0  0  0  0  0  0  0  0  0  0  0  0
  188.8080  175.6910  136.9280 S   0  0  0  0  0  0  0  0  0  0  0  0
  190.3240  176.7010  142.6840 C   0  0  0  0  0  0  0  0  0  0  0  0
  191.9330  177.3690  140.2290 C   0  0  0  0  0  0  0  0  0  0  0  0
  191.8080  178.1920  141.3560 O   0  0  0  0  0  0  0  0  0  0  0  0
  189.4850  176.0000  141.6580 C   0  0  0  0  0  2  0  0  0  0  0  0
  190.4080  176.1860  143.8310 O   0  0  0  0  0  0  0  0  0  0  0  0
  190.9430  178.9650  143.4810 C   0  0  0  0  0  1  0  0  0  0  0  0
  192.3300  175.7800  137.9770 C   0  0  0  0  0  0  0  0  0  0  0  0
  190.1920  174.9120  137.8230 C   0  0  1  0  0  3  0  0  0  0  0  0
  188.8250  178.0670  140.2760 C   0  0  1  0  0  3  0  0  0  0  0  0
  189.1940  178.8270  139.0080 C   0  0  0  0  0  2  0  0  0  0  0  0
  188.0850  178.7120  137.9780 C   0  0  0  0  0  1  0  0  0  0  0  0
  187.3060  177.9570  140.3590 C   0  0  0  0  0  2  0  0  0  0  0  0
  185.6030  179.5400  140.9390 O   0  0  0  0  0  1  0  0  0  0  0  0
  186.7520  178.9030  141.4140 C   0  0  1  0  0  3  0  0  0  0  0  0
  186.4500  178.1700  142.6850 C   0  0  0  0  0  3  0  0  0  0  0  0
  187.3090  178.1440  143.7070 C   0  0  0  0  0  3  0  0  0  0  0  0
  186.9720  177.4020  144.9590 C   0  0  0  0  0  2  0  0  0  0  0  0
  187.1490  178.2680  146.1190 N   0  0  0  0  0  0  0  0  0  0  0  0
  187.3850  177.4230  147.2840 C   0  0  0  0  0  2  0  0  0  0  0  0
  188.6800  176.9060  147.2360 O   0  0  0  0  0  1  0  0  0  0  0  0
  185.9420  179.0800  146.3230 C   0  0  0  0  0  2  0  0  0  0  0  0
  183.7370  178.9500  145.1840 C   0  0  0  0  0  1  0  0  0  0  0  0
  184.6420  178.2840  146.1980 C   0  0  0  0  0  2  0  0  0  0  0  0
  1 11  2  0  0  0  0
  2  7  1  0  0  0  0
  3  5  2  0  0  0  0
  4 13  1  0  0  0  0
  4 18  1  0  0  0  0
  5 19  1  0  0  0  0
  6 11  1  0  0  0  0
  6  3  1  0  0  0  0
  7 14  2  0  0  0  0
  8 14  1  0  0  0  0
  8 10  1  0  0  0  0
  9  8  2  0  0  0  0
 10 21  1  1  0  0  0
 10 16  1  0  0  0  0
 11 12  1  0  0  0  0
 12 20  1  0  0  0  0
 13 17  2  0  0  0  0
 14 15  1  0  0  0  0
 15  4  1  0  0  0  0
 16 13  1  0  0  0  0
 19  2  2  0  0  0  0
 19  9  1  0  0  0  0
 20  3  1  6  0  0  0
 20  9  1  0  0  0  0
 21 22  1  6  0  0  0
 21 24  1  0  0  0  0
 23 22  1  0  0  0  0
 24 26  1  0  0  0  0
 26 25  1  6  0  0  0
 26 27  1  0  0  0  0
 27 28  2  0  0  0  0
 28 29  1  0  0  0  0
 29 30  1  0  0  0  0
 30 33  1  0  0  0  0
 30 31  1  0  0  0  0
 32 31  1  0  0  0  0
 34 35  1  0  0  0  0
 35 33  1  0  0  0  0
M  END
>  <MODEL>
2

>  <REMARK>
 VINA RESULT:      -6.1      0.867      1.563
  Name = 
  10 active torsions:
  status: ('A' for Active; 'I' for Inactive)
    1  A    between atoms: C_1  and  C_20
    2  A    between atoms: C_2  and  C_13
    3  A    between atoms: C_2  and  N_17
    4  A    between atoms: C_4  and  C_33
    5  A    between atoms: C_6  and  C_20
    6  A    between atoms: C_6  and  C_33
    7  A    between atoms: C_10  and  N_17
    8  A    between atoms: N_17  and  C_21
    9  A    between atoms: C_21  and  C_27
   10  A    between atoms: C_22  and  C_33
                            x       y       z     vdW  Elec       q    Type
                         _______ _______ _______ _____ _____    ______ ____

>  <TORSDO>
F 10

$$$$
=
 OpenBabel10232409413D

 35 38  0  0  1  0  0  0  0  0999 V2000
  195.4710  175.3400  136.9050 N   0  0  0  0  0  2  0  0  0  0  0  0
  189.1290  174.2210  134.9300 C   0  0  0  0  0  3  0  0  0  0  0  0
  192.5170  175.1070  135.1150 C   0  0  0  0  0  0  0  0  0  0  0  0
  186.8450  177.6610  137.5270 N   0  0  0  0  0  0  0  0  0  0  0  0
  191.6140  174.3140  134.6270 N   0  0  0  0  0  0  0  0  0  0  0  0
  193.8470  174.6790  135.3310 N   0  0  0  0  0  2  0  0  0  0  0  0
  188.0320  174.7760  135.6050 C   0  0  0  0  0  3  0  0  0  0  0  0
  189.4920  176.3650  136.7520 C   0  0  0  0  0  0  0  0  0  0  0  0
  190.5680  175.7860  136.0710 C   0  0  0  0  0  0  0  0  0  0  0  0
  189.7430  177.4830  137.7180 C   0  0  1  0  0  3  0  0  0  0  0  0
  194.2300  175.1250  136.6240 C   0  0  0  0  0  0  0  0  0  0  0  0
  192.9110  175.8590  137.6050 S   0  0  0  0  0  0  0  0  0  0  0  0
  187.6440  178.7600  137.0600 C   0  0  0  0  0  0  0  0  0  0  0  0
  188.1930  175.8550  136.4990 C   0  0  0  0  0  0  0  0  0  0  0  0
  187.0450  176.3470  137.1330 O   0  0  0  0  0  0  0  0  0  0  0  0
  189.1370  178.7780  137.1840 C   0  0  0  0  0  2  0  0  0  0  0  0
  187.0770  179.7840  136.5920 O   0  0  0  0  0  0  0  0  0  0  0  0
  185.6010  177.9610  138.2140 C   0  0  0  0  0  1  0  0  0  0  0  0
  190.3850  174.7690  135.1670 C   0  0  0  0  0  0  0  0  0  0  0  0
  192.0090  176.1590  136.0490 C   0  0  1  0  0  3  0  0  0  0  0  0
  189.3430  177.1560  139.1700 C   0  0  1  0  0  3  0  0  0  0  0  0
  190.4310  176.3460  139.8630 C   0  0  0  0  0  2  0  0  0  0  0  0
  191.4660  177.2670  140.4810 C   0  0  0  0  0  1  0  0  0  0  0  0
  189.1010  178.4350  139.9640 C   0  0  0  0  0  2  0  0  0  0  0  0
  189.0550  178.8630  142.3220 O   0  0  0  0  0  1  0  0  0  0  0  0
  188.4480  178.1250  141.3030 C   0  0  1  0  0  3  0  0  0  0  0  0
  186.9780  178.4120  141.2610 C   0  0  0  0  0  3  0  0  0  0  0  0
  186.2150  178.3500  142.3550 C   0  0  0  0  0  3  0  0  0  0  0  0
  184.7520  178.6430  142.2740 C   0  0  0  0  0  2  0  0  0  0  0  0
  184.1310  178.4680  143.5820 N   0  0  0  0  0  0  0  0  0  0  0  0
  182.7810  179.0160  143.5200 C   0  0  0  0  0  2  0  0  0  0  0  0
  182.2470  178.8080  142.2490 O   0  0  0  0  0  1  0  0  0  0  0  0
  184.9150  179.1760  144.6030 C   0  0  0  0  0  2  0  0  0  0  0  0
  186.5360  178.3580  146.3000 C   0  0  0  0  0  1  0  0  0  0  0  0
  185.0750  178.3900  145.9050 C   0  0  0  0  0  2  0  0  0  0  0  0
  2 19  2  0  0  0  0
  2  7  1  0  0  0  0
  3  6  1  0  0  0  0
  4 18  1  0  0  0  0
  5  3  2  0  0  0  0
  5 19  1  0  0  0  0
  6 11  1  0  0  0  0
  7 14  2  0  0  0  0
  8 10  1  0  0  0  0
  9  8  2  0  0  0  0
 10 21  1  1  0  0  0
 11  1  2  0  0  0  0
 11 12  1  0  0  0  0
 13 16  1  0  0  0  0
 13  4  1  0  0  0  0
 14  8  1  0  0  0  0
 14 15  1  0  0  0  0
 15  4  1  0  0  0  0
 16 10  1  0  0  0  0
 17 13  2  0  0  0  0
 19  9  1  0  0  0  0
 20  3  1  6  0  0  0
 20  9  1  0  0  0  0
 20 12  1  0  0  0  0
 21 22  1  1  0  0  0
 21 24  1  0  0  0  0
 22 23  1  0  0  0  0
 24 26  1  0  0  0  0
 26 25  1  1  0  0  0
 27 26  1  0  0  0  0
 27 28  2  0  0  0  0
 29 28  1  0  0  0  0
 29 30  1  0  0  0  0
 30 33  1  0  0  0  0
 31 30  1  0  0  0  0
 32 31  1  0  0  0  0
 33 35  1  0  0  0  0
 35 34  1  0  0  0  0
M  END
>  <MODEL>
3

>  <REMARK>
 VINA RESULT:      -5.8      2.576      4.605
  Name = 
  10 active torsions:
  status: ('A' for Active; 'I' for Inactive)
    1  A    between atoms: C_1  and  C_20
    2  A    between atoms: C_2  and  C_13
    3  A    between atoms: C_2  and  N_17
    4  A    between atoms: C_4  and  C_33
    5  A    between atoms: C_6  and  C_20
    6  A    between atoms: C_6  and  C_33
    7  A    between atoms: C_10  and  N_17
    8  A    between atoms: N_17  and  C_21
    9  A    between atoms: C_21  and  C_27
   10  A    between atoms: C_22  and  C_33
                            x       y       z     vdW  Elec       q    Type
                         _______ _______ _______ _____ _____    ______ ____

>  <TORSDO>
F 10

$$$$
=
 OpenBabel10232409413D

 35 38  0  0  1  0  0  0  0  0999 V2000
  195.4980  175.3010  136.9850 N   0  0  0  0  0  2  0  0  0  0  0  0
  189.1230  174.1010  135.1690 C   0  0  0  0  0  3  0  0  0  0  0  0
  192.5190  174.9770  135.2530 C   0  0  0  0  0  0  0  0  0  0  0  0
  186.8940  177.7080  137.5800 N   0  0  0  0  0  0  0  0  0  0  0  0
  191.6050  174.1610  134.8270 N   0  0  0  0  0  0  0  0  0  0  0  0
  193.8490  174.5550  135.4760 N   0  0  0  0  0  2  0  0  0  0  0  0
  188.0380  174.7030  135.8240 C   0  0  0  0  0  3  0  0  0  0  0  0
  189.5230  176.3510  136.8510 C   0  0  0  0  0  0  0  0  0  0  0  0
  190.5860  175.7250  136.1910 C   0  0  0  0  0  0  0  0  0  0  0  0
  189.7930  177.5250  137.7420 C   0  0  1  0  0  3  0  0  0  0  0  0
  194.2520  175.0770  136.7350 C   0  0  0  0  0  0  0  0  0  0  0  0
  192.9510  175.8780  137.6870 S   0  0  0  0  0  0  0  0  0  0  0  0
  187.6920  178.7720  137.0350 C   0  0  0  0  0  0  0  0  0  0  0  0
  188.2180  175.8340  136.6470 C   0  0  0  0  0  0  0  0  0  0  0  0
  187.0820  176.3710  137.2650 O   0  0  0  0  0  0  0  0  0  0  0  0
  189.1870  178.7880  137.1370 C   0  0  0  0  0  2  0  0  0  0  0  0
  187.1240  179.7680  136.5130 O   0  0  0  0  0  0  0  0  0  0  0  0
  185.6610  178.0580  138.2640 C   0  0  0  0  0  1  0  0  0  0  0  0
  190.3850  174.6550  135.3550 C   0  0  0  0  0  0  0  0  0  0  0  0
  192.0290  176.0870  136.1270 C   0  0  1  0  0  3  0  0  0  0  0  0
  189.4120  177.2900  139.2170 C   0  0  1  0  0  3  0  0  0  0  0  0
  190.4660  176.4460  139.9220 C   0  0  0  0  0  2  0  0  0  0  0  0
  191.5790  177.3270  140.4590 C   0  0  0  0  0  1  0  0  0  0  0  0
  189.2690  178.6170  139.9550 C   0  0  0  0  0  2  0  0  0  0  0  0
  187.4980  177.3370  140.9400 O   0  0  0  0  0  1  0  0  0  0  0  0
  188.2590  178.5000  141.0870 C   0  0  1  0  0  3  0  0  0  0  0  0
  188.9450  178.5050  142.4190 C   0  0  0  0  0  3  0  0  0  0  0  0
  188.6540  177.6110  143.3670 C   0  0  0  0  0  3  0  0  0  0  0  0
  189.3590  177.6490  144.6840 C   0  0  0  0  0  2  0  0  0  0  0  0
  188.4040  177.8960  145.7580 N   0  0  0  0  0  0  0  0  0  0  0  0
  188.9120  177.2650  146.9700 C   0  0  0  0  0  2  0  0  0  0  0  0
  190.2540  176.9250  146.7970 O   0  0  0  0  0  1  0  0  0  0  0  0
  187.0980  177.3260  145.4030 C   0  0  0  0  0  2  0  0  0  0  0  0
  185.4880  178.6520  146.7550 C   0  0  0  0  0  1  0  0  0  0  0  0
  185.9730  178.3610  145.3510 C   0  0  0  0  0  2  0  0  0  0  0  0
  2 19  2  0  0  0  0
  2  7  1  0  0  0  0
  3  6  1  0  0  0  0
  4 18  1  0  0  0  0
  5  3  2  0  0  0  0
  5 19  1  0  0  0  0
  6 11  1  0  0  0  0
  7 14  2  0  0  0  0
  8 10  1  0  0  0  0
  9  8  2  0  0  0  0
 10 21  1  1  0  0  0
 11  1  2  0  0  0  0
 11 12  1  0  0  0  0
 13 16  1  0  0  0  0
 13  4  1  0  0  0  0
 14  8  1  0  0  0  0
 14 15  1  0  0  0  0
 15  4  1  0  0  0  0
 16 10  1  0  0  0  0
 17 13  2  0  0  0  0
 19  9  1  0  0  0  0
 20  3  1  6  0  0  0
 20  9  1  0  0  0  0
 20 12  1  0  0  0  0
 21 22  1  1  0  0  0
 21 24  1  0  0  0  0
 22 23  1  0  0  0  0
 24 26  1  0  0  0  0
 26 25  1  6  0  0  0
 26 27  1  0  0  0  0
 27 28  2  0  0  0  0
 28 29  1  0  0  0  0
 29 30  1  0  0  0  0
 30 31  1  0  0  0  0
 32 31  1  0  0  0  0
 33 30  1  0  0  0  0
 35 33  1  0  0  0  0
 35 34  1  0  0  0  0
M  END
>  <MODEL>
4

>  <REMARK>
 VINA RESULT:      -5.8      2.299      4.465
  Name = 
  10 active torsions:
  status: ('A' for Active; 'I' for Inactive)
    1  A    between atoms: C_1  and  C_20
    2  A    between atoms: C_2  and  C_13
    3  A    between atoms: C_2  and  N_17
    4  A    between atoms: C_4  and  C_33
    5  A    between atoms: C_6  and  C_20
    6  A    between atoms: C_6  and  C_33
    7  A    between atoms: C_10  and  N_17
    8  A    between atoms: N_17  and  C_21
    9  A    between atoms: C_21  and  C_27
   10  A    between atoms: C_22  and  C_33
                            x       y       z     vdW  Elec       q    Type
                         _______ _______ _______ _____ _____    ______ ____

>  <TORSDO>
F 10

$$$$
=
 OpenBabel10232409413D

 35 38  0  0  1  0  0  0  0  0999 V2000
  193.5720  171.7010  134.5700 N   0  0  0  0  0  2  0  0  0  0  0  0
  187.0610  171.7730  136.2980 C   0  0  0  0  0  3  0  0  0  0  0  0
  190.1160  171.4980  134.5970 C   0  0  0  0  0  0  0  0  0  0  0  0
  186.4070  176.5780  136.8200 N   0  0  0  0  0  0  0  0  0  0  0  0
  189.0770  170.9010  135.0930 N   0  0  0  0  0  0  0  0  0  0  0  0
  191.3730  170.8570  134.5080 N   0  0  0  0  0  2  0  0  0  0  0  0
  186.4470  172.9150  136.8340 C   0  0  0  0  0  3  0  0  0  0  0  0
  188.3080  174.3130  136.0890 C   0  0  0  0  0  0  0  0  0  0  0  0
  188.9000  173.1550  135.5710 C   0  0  0  0  0  0  0  0  0  0  0  0
  189.0200  175.6260  135.9670 C   0  0  1  0  0  3  0  0  0  0  0  0
  192.3490  171.7750  134.9790 C   0  0  0  0  0  0  0  0  0  0  0  0
  191.6960  173.2910  135.6980 S   0  0  0  0  0  0  0  0  0  0  0  0
  186.8910  176.9410  135.5160 C   0  0  0  0  0  0  0  0  0  0  0  0
  187.0450  174.1870  136.7210 C   0  0  0  0  0  0  0  0  0  0  0  0
  186.3660  175.2730  137.2860 O   0  0  0  0  0  0  0  0  0  0  0  0
  188.2520  176.5490  135.0270 C   0  0  0  0  0  2  0  0  0  0  0  0
  186.1840  177.6750  134.7750 O   0  0  0  0  0  0  0  0  0  0  0  0
  185.6670  177.5730  137.5770 C   0  0  0  0  0  1  0  0  0  0  0  0
  188.2800  171.9330  135.6480 C   0  0  0  0  0  0  0  0  0  0  0  0
  190.1500  172.9820  134.7810 C   0  0  1  0  0  3  0  0  0  0  0  0
  189.3810  176.2680  137.3210 C   0  0  1  0  0  3  0  0  0  0  0  0
  190.3590  175.3930  138.0940 C   0  0  0  0  0  2  0  0  0  0  0  0
  191.7070  176.0800  138.2120 C   0  0  0  0  0  1  0  0  0  0  0  0
  190.0080  177.6430  137.1150 C   0  0  0  0  0  2  0  0  0  0  0  0
  188.4640  179.4660  137.3110 O   0  0  0  0  0  1  0  0  0  0  0  0
  189.3630  178.6740  138.0300 C   0  0  1  0  0  3  0  0  0  0  0  0
  188.6650  178.0100  139.1770 C   0  0  0  0  0  3  0  0  0  0  0  0
  189.0060  178.2480  140.4460 C   0  0  0  0  0  3  0  0  0  0  0  0
  188.2870  177.5670  141.5640 C   0  0  0  0  0  2  0  0  0  0  0  0
  189.1620  177.4430  142.7230 N   0  0  0  0  0  0  0  0  0  0  0  0
  190.3560  176.7140  142.3140 C   0  0  0  0  0  2  0  0  0  0  0  0
  190.3280  175.4270  142.8510 O   0  0  0  0  0  1  0  0  0  0  0  0
  188.4690  176.7140  143.7940 C   0  0  0  0  0  2  0  0  0  0  0  0
  189.1350  177.2350  146.1300 C   0  0  0  0  0  1  0  0  0  0  0  0
  188.1620  177.5740  145.0200 C   0  0  0  0  0  2  0  0  0  0  0  0
  1 11  2  0  0  0  0
  2  7  1  0  0  0  0
  3  5  2  0  0  0  0
  4 15  1  0  0  0  0
  4 18  1  0  0  0  0
  5 19  1  0  0  0  0
  6  3  1  0  0  0  0
  6 11  1  0  0  0  0
  8 14  1  0  0  0  0
  9 19  1  0  0  0  0
  9  8  2  0  0  0  0
 10  8  1  0  0  0  0
 10 21  1  1  0  0  0
 11 12  1  0  0  0  0
 13  4  1  0  0  0  0
 14  7  2  0  0  0  0
 14 15  1  0  0  0  0
 16 13  1  0  0  0  0
 16 10  1  0  0  0  0
 17 13  2  0  0  0  0
 19  2  2  0  0  0  0
 20  3  1  1  0  0  0
 20  9  1  0  0  0  0
 20 12  1  0  0  0  0
 21 24  1  6  0  0  0
 21 22  1  0  0  0  0
 22 23  1  0  0  0  0
 24 26  1  0  0  0  0
 26 25  1  6  0  0  0
 26 27  1  0  0  0  0
 27 28  2  0  0  0  0
 28 29  1  0  0  0  0
 29 30  1  0  0  0  0
 30 33  1  0  0  0  0
 31 30  1  0  0  0  0
 31 32  1  0  0  0  0
 33 35  1  0  0  0  0
 35 34  1  0  0  0  0
M  END
>  <MODEL>
5

>  <REMARK>
 VINA RESULT:      -5.7      2.906      5.572
  Name = 
  10 active torsions:
  status: ('A' for Active; 'I' for Inactive)
    1  A    between atoms: C_1  and  C_20
    2  A    between atoms: C_2  and  C_13
    3  A    between atoms: C_2  and  N_17
    4  A    between atoms: C_4  and  C_33
    5  A    between atoms: C_6  and  C_20
    6  A    between atoms: C_6  and  C_33
    7  A    between atoms: C_10  and  N_17
    8  A    between atoms: N_17  and  C_21
    9  A    between atoms: C_21  and  C_27
   10  A    between atoms: C_22  and  C_33
                            x       y       z     vdW  Elec       q    Type
                         _______ _______ _______ _____ _____    ______ ____

>  <TORSDO>
F 10

$$$$
=
 OpenBabel10232409413D

 35 38  0  0  1  0  0  0  0  0999 V2000
  187.3500  175.8920  136.0000 N   0  0  0  0  0  2  0  0  0  0  0  0
  192.9970  177.5780  139.2630 C   0  0  0  0  0  3  0  0  0  0  0  0
  190.5320  175.9630  137.3610 C   0  0  0  0  0  0  0  0  0  0  0  0
  191.4470  177.1310  143.8660 N   0  0  0  0  0  0  0  0  0  0  0  0
  191.6790  176.5690  137.3870 N   0  0  0  0  0  0  0  0  0  0  0  0
  189.6930  176.0020  136.2240 N   0  0  0  0  0  2  0  0  0  0  0  0
  193.0030  177.8760  140.6340 C   0  0  0  0  0  3  0  0  0  0  0  0
  190.7940  176.8650  140.9020 C   0  0  0  0  0  0  0  0  0  0  0  0
  190.8140  176.5880  139.5300 C   0  0  0  0  0  0  0  0  0  0  0  0
  189.5960  176.4820  141.7170 C   0  0  1  0  0  3  0  0  0  0  0  0
  188.3770  176.2790  136.6810 C   0  0  0  0  0  0  0  0  0  0  0  0
  188.2390  176.6820  138.4300 S   0  0  0  0  0  0  0  0  0  0  0  0
  190.9720  175.7800  143.7370 C   0  0  0  0  0  0  0  0  0  0  0  0
  191.9240  177.5100  141.4650 C   0  0  0  0  0  0  0  0  0  0  0  0
  192.0100  177.8480  142.8220 O   0  0  0  0  0  0  0  0  0  0  0  0
  189.9680  175.3770  142.7010 C   0  0  0  0  0  2  0  0  0  0  0  0
  191.3530  174.9080  144.5630 O   0  0  0  0  0  0  0  0  0  0  0  0
  191.6090  177.6750  145.2030 C   0  0  0  0  0  1  0  0  0  0  0  0
  191.8940  176.9070  138.7460 C   0  0  0  0  0  0  0  0  0  0  0  0
  189.8400  175.8470  138.6820 C   0  0  1  0  0  3  0  0  0  0  0  0
  188.8720  177.6800  142.3620 C   0  0  1  0  0  3  0  0  0  0  0  0
  188.6070  178.7720  141.3340 C   0  0  0  0  0  2  0  0  0  0  0  0
  187.1410  178.7870  140.9410 C   0  0  0  0  0  1  0  0  0  0  0  0
  187.5430  177.2430  142.9690 C   0  0  0  0  0  2  0  0  0  0  0  0
  188.5700  178.3640  144.8210 O   0  0  0  0  0  1  0  0  0  0  0  0
  187.5140  177.5230  144.4650 C   0  0  1  0  0  3  0  0  0  0  0  0
  186.2070  178.1320  144.8700 C   0  0  0  0  0  3  0  0  0  0  0  0
  185.2400  178.3860  143.9850 C   0  0  0  0  0  3  0  0  0  0  0  0
  183.9500  178.9950  144.4270 C   0  0  0  0  0  2  0  0  0  0  0  0
  183.0580  179.1650  143.2860 N   0  0  0  0  0  0  0  0  0  0  0  0
  181.7090  178.8050  143.7070 C   0  0  0  0  0  2  0  0  0  0  0  0
  180.7800  179.6070  143.0440 O   0  0  0  0  0  1  0  0  0  0  0  0
  183.4890  178.2960  142.1830 C   0  0  0  0  0  2  0  0  0  0  0  0
  182.3120  178.5240  140.0060 C   0  0  0  0  0  1  0  0  0  0  0  0
  183.4970  178.9940  140.8230 C   0  0  0  0  0  2  0  0  0  0  0  0
  1 11  2  0  0  0  0
  2  7  1  0  0  0  0
  3  5  2  0  0  0  0
  4 18  1  0  0  0  0
  5 19  1  0  0  0  0
  6 11  1  0  0  0  0
  6  3  1  0  0  0  0
  7 14  2  0  0  0  0
  8 14  1  0  0  0  0
  8 10  1  0  0  0  0
  9  8  2  0  0  0  0
 10 21  1  1  0  0  0
 10 16  1  0  0  0  0
 11 12  1  0  0  0  0
 12 20  1  0  0  0  0
 13  4  1  0  0  0  0
 13 17  2  0  0  0  0
 14 15  1  0  0  0  0
 15  4  1  0  0  0  0
 16 13  1  0  0  0  0
 19  2  2  0  0  0  0
 19  9  1  0  0  0  0
 20  3  1  6  0  0  0
 20  9  1  0  0  0  0
 21 22  1  6  0  0  0
 21 24  1  0  0  0  0
 23 22  1  0  0  0  0
 24 26  1  0  0  0  0
 26 25  1  6  0  0  0
 26 27  1  0  0  0  0
 28 29  1  0  0  0  0
 28 27  2  0  0  0  0
 30 31  1  0  0  0  0
 30 29  1  0  0  0  0
 32 31  1  0  0  0  0
 33 30  1  0  0  0  0
 34 35  1  0  0  0  0
 35 33  1  0  0  0  0
M  END
>  <MODEL>
6

>  <REMARK>
 VINA RESULT:      -5.3      2.336      3.607
  Name = 
  10 active torsions:
  status: ('A' for Active; 'I' for Inactive)
    1  A    between atoms: C_1  and  C_20
    2  A    between atoms: C_2  and  C_13
    3  A    between atoms: C_2  and  N_17
    4  A    between atoms: C_4  and  C_33
    5  A    between atoms: C_6  and  C_20
    6  A    between atoms: C_6  and  C_33
    7  A    between atoms: C_10  and  N_17
    8  A    between atoms: N_17  and  C_21
    9  A    between atoms: C_21  and  C_27
   10  A    between atoms: C_22  and  C_33
                            x       y       z     vdW  Elec       q    Type
                         _______ _______ _______ _____ _____    ______ ____

>  <TORSDO>
F 10

$$$$
=
 OpenBabel10232409413D

 35 38  0  0  1  0  0  0  0  0999 V2000
  180.0930  183.7350  138.2640 N   0  0  0  0  0  2  0  0  0  0  0  0
  182.0360  178.6110  134.3460 C   0  0  0  0  0  3  0  0  0  0  0  0
  180.2290  181.1260  135.9930 C   0  0  0  0  0  0  0  0  0  0  0  0
  182.7020  175.1840  137.7530 N   0  0  0  0  0  0  0  0  0  0  0  0
  180.7430  180.6880  134.8860 N   0  0  0  0  0  0  0  0  0  0  0  0
  180.0820  182.5070  136.2530 N   0  0  0  0  0  2  0  0  0  0  0  0
  182.6210  177.4510  134.8750 C   0  0  0  0  0  3  0  0  0  0  0  0
  181.8510  178.0400  137.1190 C   0  0  0  0  0  0  0  0  0  0  0  0
  181.2840  179.1930  136.5640 C   0  0  0  0  0  0  0  0  0  0  0  0
  181.7390  177.7980  138.5930 C   0  0  1  0  0  3  0  0  0  0  0  0
  180.5430  182.7400  137.5760 C   0  0  0  0  0  0  0  0  0  0  0  0
  181.3230  181.3280  138.3770 S   0  0  0  0  0  0  0  0  0  0  0  0
  181.3920  175.2920  138.3350 C   0  0  0  0  0  0  0  0  0  0  0  0
  182.5200  177.1440  136.2480 C   0  0  0  0  0  0  0  0  0  0  0  0
  183.1350  175.9670  136.6940 O   0  0  0  0  0  0  0  0  0  0  0  0
  180.8480  176.5870  138.8560 C   0  0  0  0  0  2  0  0  0  0  0  0
  180.6940  174.2540  138.4850 O   0  0  0  0  0  0  0  0  0  0  0  0
  183.5080  174.0230  138.0890 C   0  0  0  0  0  1  0  0  0  0  0  0
  181.3500  179.4510  135.2170 C   0  0  0  0  0  0  0  0  0  0  0  0
  180.4500  180.2550  137.1890 C   0  0  1  0  0  3  0  0  0  0  0  0
  183.0960  177.7480  139.3220 C   0  0  1  0  0  3  0  0  0  0  0  0
  183.8790  179.0360  139.1000 C   0  0  0  0  0  2  0  0  0  0  0  0
  185.3410  178.7280  138.8330 C   0  0  0  0  0  1  0  0  0  0  0  0
  182.8960  177.5470  140.8210 C   0  0  0  0  0  2  0  0  0  0  0  0
  180.9270  178.5950  141.6980 O   0  0  0  0  0  1  0  0  0  0  0  0
  182.2900  178.7890  141.4570 C   0  0  1  0  0  3  0  0  0  0  0  0
  182.9960  179.1360  142.7320 C   0  0  0  0  0  3  0  0  0  0  0  0
  184.3280  179.1400  142.8240 C   0  0  0  0  0  3  0  0  0  0  0  0
  184.9970  179.4920  144.1120 C   0  0  0  0  0  2  0  0  0  0  0  0
  185.3260  178.2820  144.8550 N   0  0  0  0  0  0  0  0  0  0  0  0
  184.6970  178.3690  146.1670 C   0  0  0  0  0  2  0  0  0  0  0  0
  185.4330  179.2270  146.9850 O   0  0  0  0  0  1  0  0  0  0  0  0
  186.7830  178.1690  145.0020 C   0  0  0  0  0  2  0  0  0  0  0  0
  187.6640  177.0220  142.9810 C   0  0  0  0  0  1  0  0  0  0  0  0
  187.3540  176.8600  144.4540 C   0  0  0  0  0  2  0  0  0  0  0  0
  2  7  2  0  0  0  0
  2 19  1  0  0  0  0
  3  6  1  0  0  0  0
  4 18  1  0  0  0  0
  4 13  1  0  0  0  0
  5 19  1  0  0  0  0
  5  3  2  0  0  0  0
  6 11  1  0  0  0  0
  7 14  1  0  0  0  0
  8 10  1  0  0  0  0
  9  8  1  0  0  0  0
  9 20  1  0  0  0  0
 10 16  1  0  0  0  0
 10 21  1  6  0  0  0
 11  1  2  0  0  0  0
 11 12  1  0  0  0  0
 13 17  2  0  0  0  0
 13 16  1  0  0  0  0
 14 15  1  0  0  0  0
 14  8  2  0  0  0  0
 15  4  1  0  0  0  0
 19  9  2  0  0  0  0
 20  3  1  6  0  0  0
 20 12  1  0  0  0  0
 21 22  1  1  0  0  0
 21 24  1  0  0  0  0
 23 22  1  0  0  0  0
 24 26  1  0  0  0  0
 26 25  1  1  0  0  0
 26 27  1  0  0  0  0
 27 28  2  0  0  0  0
 28 29  1  0  0  0  0
 29 30  1  0  0  0  0
 30 33  1  0  0  0  0
 30 31  1  0  0  0  0
 31 32  1  0  0  0  0
 34 35  1  0  0  0  0
 35 33  1  0  0  0  0
M  END
>  <MODEL>
7

>  <REMARK>
 VINA RESULT:      -5.2      6.241      8.675
  Name = 
  10 active torsions:
  status: ('A' for Active; 'I' for Inactive)
    1  A    between atoms: C_1  and  C_20
    2  A    between atoms: C_2  and  C_13
    3  A    between atoms: C_2  and  N_17
    4  A    between atoms: C_4  and  C_33
    5  A    between atoms: C_6  and  C_20
    6  A    between atoms: C_6  and  C_33
    7  A    between atoms: C_10  and  N_17
    8  A    between atoms: N_17  and  C_21
    9  A    between atoms: C_21  and  C_27
   10  A    between atoms: C_22  and  C_33
                            x       y       z     vdW  Elec       q    Type
                         _______ _______ _______ _____ _____    ______ ____

>  <TORSDO>
F 10

$$$$
=
 OpenBabel10232409413D

 35 38  0  0  1  0  0  0  0  0999 V2000
  194.1200  176.9790  139.9790 N   0  0  0  0  0  2  0  0  0  0  0  0
  187.5710  178.0500  138.8190 C   0  0  0  0  0  3  0  0  0  0  0  0
  190.6730  177.2000  140.2170 C   0  0  0  0  0  0  0  0  0  0  0  0
  186.7420  174.5510  135.5220 N   0  0  0  0  0  0  0  0  0  0  0  0
  189.6430  177.9890  140.2250 N   0  0  0  0  0  0  0  0  0  0  0  0
  191.9520  177.6410  140.6260 N   0  0  0  0  0  2  0  0  0  0  0  0
  186.9060  177.4740  137.7260 C   0  0  0  0  0  3  0  0  0  0  0  0
  188.7360  175.8870  137.3990 C   0  0  0  0  0  0  0  0  0  0  0  0
  189.3790  176.4870  138.4880 C   0  0  0  0  0  0  0  0  0  0  0  0
  189.4060  174.7600  136.6740 C   0  0  1  0  0  3  0  0  0  0  0  0
  192.8860  177.1830  139.6580 C   0  0  0  0  0  0  0  0  0  0  0  0
  192.1650  176.4220  138.1950 S   0  0  0  0  0  0  0  0  0  0  0  0
  187.2450  173.4670  136.3210 C   0  0  0  0  0  0  0  0  0  0  0  0
  187.4630  176.3860  137.0230 C   0  0  0  0  0  0  0  0  0  0  0  0
  186.7340  175.8720  135.9420 O   0  0  0  0  0  0  0  0  0  0  0  0
  188.6290  173.4650  136.8930 C   0  0  0  0  0  2  0  0  0  0  0  0
  186.5310  172.4430  136.4940 O   0  0  0  0  0  0  0  0  0  0  0  0
  185.9510  174.2280  134.3470 C   0  0  0  0  0  1  0  0  0  0  0  0
  188.7990  177.5130  139.1910 C   0  0  0  0  0  0  0  0  0  0  0  0
  190.6530  176.1310  139.1720 C   0  0  1  0  0  3  0  0  0  0  0  0
  189.7130  175.0650  135.1940 C   0  0  1  0  0  3  0  0  0  0  0  0
  190.4950  176.3650  135.0580 C   0  0  0  0  0  2  0  0  0  0  0  0
  189.6600  177.4140  134.3480 C   0  0  0  0  0  1  0  0  0  0  0  0
  190.5240  173.9350  134.5680 C   0  0  0  0  0  2  0  0  0  0  0  0
  191.9190  172.2460  135.5410 O   0  0  0  0  0  1  0  0  0  0  0  0
  191.7580  173.6280  135.4040 C   0  0  1  0  0  3  0  0  0  0  0  0
  192.9830  174.2340  134.7930 C   0  0  0  0  0  3  0  0  0  0  0  0
  194.1930  174.0840  135.3380 C   0  0  0  0  0  3  0  0  0  0  0  0
  195.3930  174.7050  134.7000 C   0  0  0  0  0  2  0  0  0  0  0  0
  195.8130  175.8790  135.4540 N   0  0  0  0  0  0  0  0  0  0  0  0
  195.1140  177.0390  134.9150 C   0  0  0  0  0  2  0  0  0  0  0  0
  195.6380  178.2050  135.4720 O   0  0  0  0  0  1  0  0  0  0  0  0
  197.2650  176.0610  135.3230 C   0  0  0  0  0  2  0  0  0  0  0  0
  199.5050  174.9940  135.1850 C   0  0  0  0  0  1  0  0  0  0  0  0
  198.0180  174.7650  135.0180 C   0  0  0  0  0  2  0  0  0  0  0  0
  2 19  1  0  0  0  0
  3  5  2  0  0  0  0
  3  6  1  0  0  0  0
  4 15  1  0  0  0  0
  4 13  1  0  0  0  0
  7  2  2  0  0  0  0
  8  9  1  0  0  0  0
  9 20  1  0  0  0  0
  9 19  2  0  0  0  0
 10 21  1  6  0  0  0
 10 16  1  0  0  0  0
 10  8  1  0  0  0  0
 11  1  2  0  0  0  0
 11  6  1  0  0  0  0
 12 11  1  0  0  0  0
 13 17  2  0  0  0  0
 13 16  1  0  0  0  0
 14  8  2  0  0  0  0
 14  7  1  0  0  0  0
 15 14  1  0  0  0  0
 18  4  1  0  0  0  0
 19  5  1  0  0  0  0
 20 12  1  6  0  0  0
 20  3  1  0  0  0  0
 21 24  1  1  0  0  0
 22 21  1  0  0  0  0
 23 22  1  0  0  0  0
 24 26  1  0  0  0  0
 26 25  1  6  0  0  0
 27 28  2  0  0  0  0
 27 26  1  0  0  0  0
 29 28  1  0  0  0  0
 29 30  1  0  0  0  0
 31 30  1  0  0  0  0
 31 32  1  0  0  0  0
 33 30  1  0  0  0  0
 35 34  1  0  0  0  0
 35 33  1  0  0  0  0
M  END
>  <MODEL>
8

>  <REMARK>
 VINA RESULT:      -5.1      4.668      9.287
  Name = 
  10 active torsions:
  status: ('A' for Active; 'I' for Inactive)
    1  A    between atoms: C_1  and  C_20
    2  A    between atoms: C_2  and  C_13
    3  A    between atoms: C_2  and  N_17
    4  A    between atoms: C_4  and  C_33
    5  A    between atoms: C_6  and  C_20
    6  A    between atoms: C_6  and  C_33
    7  A    between atoms: C_10  and  N_17
    8  A    between atoms: N_17  and  C_21
    9  A    between atoms: C_21  and  C_27
   10  A    between atoms: C_22  and  C_33
                            x       y       z     vdW  Elec       q    Type
                         _______ _______ _______ _____ _____    ______ ____

>  <TORSDO>
F 10

$$$$
=
 OpenBabel10232409413D

 35 38  0  0  1  0  0  0  0  0999 V2000
  190.0080  177.7250  137.0250 N   0  0  0  0  0  2  0  0  0  0  0  0
  183.7560  175.2240  137.2000 C   0  0  0  0  0  3  0  0  0  0  0  0
  186.7560  176.7950  136.2880 C   0  0  0  0  0  0  0  0  0  0  0  0
  181.7530  178.2570  140.4510 N   0  0  0  0  0  0  0  0  0  0  0  0
  185.9340  175.8080  136.1080 N   0  0  0  0  0  0  0  0  0  0  0  0
  188.1440  176.6610  136.0540 N   0  0  0  0  0  2  0  0  0  0  0  0
  182.8420  175.5770  138.2040 C   0  0  0  0  0  3  0  0  0  0  0  0
  184.2220  177.4920  138.8390 C   0  0  0  0  0  0  0  0  0  0  0  0
  185.1190  177.1100  137.8360 C   0  0  0  0  0  0  0  0  0  0  0  0
  184.5270  178.6890  139.6880 C   0  0  1  0  0  3  0  0  0  0  0  0
  188.8170  177.2450  137.1590 C   0  0  0  0  0  0  0  0  0  0  0  0
  187.7590  177.7450  138.5270 S   0  0  0  0  0  0  0  0  0  0  0  0
  182.1080  179.4710  139.7680 C   0  0  0  0  0  0  0  0  0  0  0  0
  183.0490  176.7130  139.0130 C   0  0  0  0  0  0  0  0  0  0  0  0
  182.0890  176.9930  139.9930 O   0  0  0  0  0  0  0  0  0  0  0  0
  183.5220  179.8010  139.4000 C   0  0  0  0  0  2  0  0  0  0  0  0
  181.2180  180.3290  139.5260 O   0  0  0  0  0  0  0  0  0  0  0  0
  180.7600  178.3330  141.5100 C   0  0  0  0  0  1  0  0  0  0  0  0
  184.8760  176.0300  137.0250 C   0  0  0  0  0  0  0  0  0  0  0  0
  186.3640  177.7690  137.3530 C   0  0  1  0  0  3  0  0  0  0  0  0
  184.6920  178.3650  141.1860 C   0  0  1  0  0  3  0  0  0  0  0  0
  186.0440  177.7160  141.4550 C   0  0  0  0  0  2  0  0  0  0  0  0
  187.1220  178.7740  141.6000 C   0  0  0  0  0  1  0  0  0  0  0  0
  184.5790  179.6330  142.0270 C   0  0  0  0  0  2  0  0  0  0  0  0
  183.3450  178.0630  143.3530 O   0  0  0  0  0  1  0  0  0  0  0  0
  183.9230  179.3350  143.3670 C   0  0  1  0  0  3  0  0  0  0  0  0
  184.9150  179.4410  144.4840 C   0  0  0  0  0  3  0  0  0  0  0  0
  185.4520  178.3610  145.0580 C   0  0  0  0  0  3  0  0  0  0  0  0
  186.4380  178.5060  146.1700 C   0  0  0  0  0  2  0  0  0  0  0  0
  187.5700  177.6110  145.9580 N   0  0  0  0  0  0  0  0  0  0  0  0
  188.4740  177.7460  147.0940 C   0  0  0  0  0  2  0  0  0  0  0  0
  188.0940  176.8610  148.1040 O   0  0  0  0  0  1  0  0  0  0  0  0
  188.2650  177.9750  144.7160 C   0  0  0  0  0  2  0  0  0  0  0  0
  188.7670  176.0010  143.2920 C   0  0  0  0  0  1  0  0  0  0  0  0
  189.3420  176.9720  144.3020 C   0  0  0  0  0  2  0  0  0  0  0  0
  1 11  2  0  0  0  0
  2  7  1  0  0  0  0
  4 18  1  0  0  0  0
  5  3  2  0  0  0  0
  5 19  1  0  0  0  0
  6  3  1  0  0  0  0
  6 11  1  0  0  0  0
  7 14  2  0  0  0  0
  8 14  1  0  0  0  0
  8 10  1  0  0  0  0
  9  8  2  0  0  0  0
 10 21  1  1  0  0  0
 11 12  1  0  0  0  0
 13  4  1  0  0  0  0
 14 15  1  0  0  0  0
 15  4  1  0  0  0  0
 16 10  1  0  0  0  0
 16 13  1  0  0  0  0
 17 13  2  0  0  0  0
 19  2  2  0  0  0  0
 19  9  1  0  0  0  0
 20  3  1  6  0  0  0
 20  9  1  0  0  0  0
 20 12  1  0  0  0  0
 21 22  1  6  0  0  0
 21 24  1  0  0  0  0
 22 23  1  0  0  0  0
 24 26  1  0  0  0  0
 26 25  1  6  0  0  0
 26 27  1  0  0  0  0
 27 28  2  0  0  0  0
 28 29  1  0  0  0  0
 30 29  1  0  0  0  0
 30 31  1  0  0  0  0
 31 32  1  0  0  0  0
 33 30  1  0  0  0  0
 34 35  1  0  0  0  0
 35 33  1  0  0  0  0
M  END
>  <MODEL>
9

>  <REMARK>
 VINA RESULT:      -5.0      3.462      6.077
  Name = 
  10 active torsions:
  status: ('A' for Active; 'I' for Inactive)
    1  A    between atoms: C_1  and  C_20
    2  A    between atoms: C_2  and  C_13
    3  A    between atoms: C_2  and  N_17
    4  A    between atoms: C_4  and  C_33
    5  A    between atoms: C_6  and  C_20
    6  A    between atoms: C_6  and  C_33
    7  A    between atoms: C_10  and  N_17
    8  A    between atoms: N_17  and  C_21
    9  A    between atoms: C_21  and  C_27
   10  A    between atoms: C_22  and  C_33
                            x       y       z     vdW  Elec       q    Type
                         _______ _______ _______ _____ _____    ______ ____

>  <TORSDO>
F 10

$$$$
