=
 OpenBabel10232408383D

 28 32  0  0  1  0  0  0  0  0999 V2000
  191.8810  176.6270  140.0540 C   0  0  0  0  0  3  0  0  0  0  0  0
  188.2430  177.3150  142.7970 C   0  0  0  0  0  3  0  0  0  0  0  0
  189.6330  175.4300  135.5430 N   0  0  0  0  0  0  0  0  0  0  0  0
  192.3590  177.3240  141.1570 C   0  0  0  0  0  3  0  0  0  0  0  0
  189.6550  176.2010  137.8090 C   0  0  0  0  0  0  0  0  0  0  0  0
  190.1250  177.2780  141.1810 C   0  0  0  0  0  0  0  0  0  0  0  0
  189.5260  177.5300  137.3470 C   0  0  0  0  0  0  0  0  0  0  0  0
  189.7130  175.9020  139.2070 N   0  0  0  0  0  2  0  0  0  0  0  0
  189.7650  173.8020  137.3070 N   0  0  0  0  0  1  0  0  0  0  0  0
  184.3980  178.5080  142.6110 Cl  0  0  0  0  0  0  0  0  0  0  0  0
  186.9180  177.5990  143.1370 C   0  0  0  0  0  3  0  0  0  0  0  0
  189.4940  177.7730  135.9700 C   0  0  0  0  0  3  0  0  0  0  0  0
  189.5520  176.7040  135.0770 C   0  0  0  0  0  3  0  0  0  0  0  0
  187.8440  178.1380  140.5460 C   0  0  0  0  0  0  0  0  0  0  0  0
  188.7150  177.5700  141.5030 C   0  0  0  0  0  0  0  0  0  0  0  0
  189.3980  178.6970  138.2860 C   0  0  2  0  0  3  0  0  0  0  0  0
  190.5350  176.6220  140.0840 N   0  0  0  0  0  0  0  0  0  0  0  0
  188.2990  178.4810  139.2360 N   0  0  0  0  0  0  0  0  0  0  0  0
  188.2540  179.2920  138.0940 O   0  0  0  0  0  0  0  0  0  0  0  0
  189.6740  175.1560  136.8740 C   0  0  0  0  0  0  0  0  0  0  0  0
  186.0570  178.1500  142.1850 C   0  0  0  0  0  0  0  0  0  0  0  0
  191.2370  177.7320  141.8600 C   0  0  0  0  0  0  0  0  0  0  0  0
  186.5210  178.4240  140.8970 C   0  0  0  0  0  3  0  0  0  0  0  0
  191.2530  178.5250  143.1220 C   0  0  0  0  0  2  0  0  0  0  0  0
  191.5090  176.6500  146.4950 C   0  0  0  0  0  1  0  0  0  0  0  0
  189.8560  178.0760  145.5560 O   0  0  0  0  0  0  0  0  0  0  0  0
  190.9730  177.5120  145.4110 C   0  0  0  0  0  0  0  0  0  0  0  0
  191.7300  177.6930  144.2140 N   0  0  0  0  0  2  0  0  0  0  0  0
  1 17  1  0  0  0  0
  1  4  2  0  0  0  0
  2 11  1  0  0  0  0
  3 20  1  0  0  0  0
  4 22  1  0  0  0  0
  5  8  1  0  0  0  0
  6 15  1  0  0  0  0
  6 22  2  0  0  0  0
  7  5  1  0  0  0  0
  8 17  1  0  0  0  0
 12  7  2  0  0  0  0
 13  3  2  0  0  0  0
 13 12  1  0  0  0  0
 14 23  2  0  0  0  0
 14 15  1  0  0  0  0
 15  2  2  0  0  0  0
 16  7  1  6  0  0  0
 16 18  1  0  0  0  0
 17  6  1  0  0  0  0
 18 14  1  0  0  0  0
 19 16  1  0  0  0  0
 19 18  1  0  0  0  0
 20  9  1  0  0  0  0
 20  5  2  0  0  0  0
 21 10  1  0  0  0  0
 21 11  2  0  0  0  0
 22 24  1  0  0  0  0
 23 21  1  0  0  0  0
 24 28  1  0  0  0  0
 27 26  2  0  0  0  0
 27 25  1  0  0  0  0
 28 27  1  0  0  0  0
M  END
>  <MODEL>
1

>  <REMARK>
 VINA RESULT:      -7.6      0.000      0.000
  Name = 
  2 active torsions:
  status: ('A' for Active; 'I' for Inactive)
    1  A    between atoms: C_18  and  C_26
    2  A    between atoms: C_18  and  N_28
                            x       y       z     vdW  Elec       q    Type
                         _______ _______ _______ _____ _____    ______ ____

>  <TORSDO>
F 2

$$$$
=
 OpenBabel10232408383D

 28 32  0  0  1  0  0  0  0  0999 V2000
  184.6780  179.1880  141.6790 C   0  0  0  0  0  3  0  0  0  0  0  0
  188.4720  178.6160  139.1280 C   0  0  0  0  0  3  0  0  0  0  0  0
  181.0910  180.2080  138.0840 N   0  0  0  0  0  0  0  0  0  0  0  0
  185.5940  178.5340  142.4960 C   0  0  0  0  0  3  0  0  0  0  0  0
  183.2570  179.5280  138.8440 C   0  0  0  0  0  0  0  0  0  0  0  0
  186.3350  178.5850  140.3870 C   0  0  0  0  0  0  0  0  0  0  0  0
  182.9120  178.1820  138.5870 C   0  0  0  0  0  0  0  0  0  0  0  0
  184.5480  179.8830  139.3460 N   0  0  0  0  0  2  0  0  0  0  0  0
  182.6550  181.9050  138.7600 N   0  0  0  0  0  1  0  0  0  0  0  0
  189.5830  177.4240  135.4410 Cl  0  0  0  0  0  0  0  0  0  0  0  0
  189.2320  178.3480  137.9860 C   0  0  0  0  0  3  0  0  0  0  0  0
  181.6300  177.8840  138.1160 C   0  0  0  0  0  3  0  0  0  0  0  0
  180.7250  178.9170  137.8710 C   0  0  0  0  0  3  0  0  0  0  0  0
  186.5040  177.7050  138.0340 C   0  0  0  0  0  0  0  0  0  0  0  0
  187.1060  178.3080  139.1600 C   0  0  0  0  0  0  0  0  0  0  0  0
  183.8860  177.0530  138.7830 C   0  0  2  0  0  3  0  0  0  0  0  0
  185.1410  179.1960  140.4150 N   0  0  0  0  0  0  0  0  0  0  0  0
  185.1310  177.3100  138.0450 N   0  0  0  0  0  0  0  0  0  0  0  0
  184.0970  176.4540  137.6440 O   0  0  0  0  0  0  0  0  0  0  0  0
  182.3270  180.5350  138.5490 C   0  0  0  0  0  0  0  0  0  0  0  0
  188.6310  177.7620  136.8700 C   0  0  0  0  0  0  0  0  0  0  0  0
  186.6360  178.1560  141.6640 C   0  0  0  0  0  0  0  0  0  0  0  0
  187.2740  177.4350  136.8980 C   0  0  0  0  0  3  0  0  0  0  0  0
  187.8550  177.4140  142.0950 C   0  0  0  0  0  2  0  0  0  0  0  0
  188.6650  177.3410  145.8770 C   0  0  0  0  0  1  0  0  0  0  0  0
  189.7620  178.3090  144.0030 O   0  0  0  0  0  0  0  0  0  0  0  0
  188.7840  177.6360  144.4260 C   0  0  0  0  0  0  0  0  0  0  0  0
  187.7880  177.1540  143.5240 N   0  0  0  0  0  2  0  0  0  0  0  0
  1  4  2  0  0  0  0
  2 15  1  0  0  0  0
  3 20  1  0  0  0  0
  5  8  1  0  0  0  0
  6 17  1  0  0  0  0
  6 22  2  0  0  0  0
  7 16  1  0  0  0  0
  7  5  1  0  0  0  0
  8 17  1  0  0  0  0
 10 21  1  0  0  0  0
 11  2  2  0  0  0  0
 12  7  2  0  0  0  0
 13  3  2  0  0  0  0
 13 12  1  0  0  0  0
 14 18  1  0  0  0  0
 14 15  2  0  0  0  0
 15  6  1  0  0  0  0
 16 19  1  6  0  0  0
 17  1  1  0  0  0  0
 18 16  1  0  0  0  0
 19 18  1  0  0  0  0
 20  9  1  0  0  0  0
 20  5  2  0  0  0  0
 21 23  2  0  0  0  0
 21 11  1  0  0  0  0
 22 24  1  0  0  0  0
 22  4  1  0  0  0  0
 23 14  1  0  0  0  0
 24 28  1  0  0  0  0
 26 27  2  0  0  0  0
 27 25  1  0  0  0  0
 28 27  1  0  0  0  0
M  END
>  <MODEL>
2

>  <REMARK>
 VINA RESULT:      -6.8      3.999      6.280
  Name = 
  2 active torsions:
  status: ('A' for Active; 'I' for Inactive)
    1  A    between atoms: C_18  and  C_26
    2  A    between atoms: C_18  and  N_28
                            x       y       z     vdW  Elec       q    Type
                         _______ _______ _______ _____ _____    ______ ____

>  <TORSDO>
F 2

$$$$
=
 OpenBabel10232408383D

 28 32  0  0  1  0  0  0  0  0999 V2000
  187.7340  178.0210  138.6600 C   0  0  0  0  0  3  0  0  0  0  0  0
  191.9880  176.4550  137.8330 C   0  0  0  0  0  3  0  0  0  0  0  0
  185.1860  176.5590  134.3930 N   0  0  0  0  0  0  0  0  0  0  0  0
  188.3850  178.0130  139.8880 C   0  0  0  0  0  3  0  0  0  0  0  0
  187.0590  176.6050  135.8830 C   0  0  0  0  0  0  0  0  0  0  0  0
  189.6130  176.9470  138.3550 C   0  0  0  0  0  0  0  0  0  0  0  0
  186.7050  175.3200  136.3510 C   0  0  0  0  0  0  0  0  0  0  0  0
  188.2120  177.2880  136.3850 N   0  0  0  0  0  2  0  0  0  0  0  0
  186.6420  178.4720  134.3470 N   0  0  0  0  0  1  0  0  0  0  0  0
  193.8770  173.5150  135.8240 Cl  0  0  0  0  0  0  0  0  0  0  0  0
  192.9820  175.6640  137.2510 C   0  0  0  0  0  3  0  0  0  0  0  0
  185.5580  174.7020  135.8430 C   0  0  0  0  0  3  0  0  0  0  0  0
  184.8030  175.3420  134.8610 C   0  0  0  0  0  3  0  0  0  0  0  0
  190.2880  174.9250  137.0130 C   0  0  0  0  0  0  0  0  0  0  0  0
  190.6380  176.1020  137.7120 C   0  0  0  0  0  0  0  0  0  0  0  0
  187.5330  174.5780  137.3640 C   0  0  2  0  0  3  0  0  0  0  0  0
  188.4870  177.3650  137.7570 N   0  0  0  0  0  0  0  0  0  0  0  0
  188.9320  174.4870  136.9240 N   0  0  0  0  0  0  0  0  0  0  0  0
  187.9730  173.4680  136.8420 O   0  0  0  0  0  0  0  0  0  0  0  0
  186.2910  177.1940  134.8680 C   0  0  0  0  0  0  0  0  0  0  0  0
  192.6320  174.5070  136.5510 C   0  0  0  0  0  0  0  0  0  0  0  0
  189.5710  177.3270  139.6810 C   0  0  0  0  0  0  0  0  0  0  0  0
  191.2900  174.1360  136.4390 C   0  0  0  0  0  3  0  0  0  0  0  0
  190.6030  177.0580  140.7220 C   0  0  0  0  0  2  0  0  0  0  0  0
  189.3940  176.8800  144.3920 C   0  0  0  0  0  1  0  0  0  0  0  0
  190.2510  175.2520  142.8880 O   0  0  0  0  0  0  0  0  0  0  0  0
  189.9310  176.4560  143.0740 C   0  0  0  0  0  0  0  0  0  0  0  0
  190.0810  177.4180  142.0300 N   0  0  0  0  0  2  0  0  0  0  0  0
  1  4  2  0  0  0  0
  3 13  2  0  0  0  0
  3 20  1  0  0  0  0
  5  7  1  0  0  0  0
  5  8  1  0  0  0  0
  6 22  2  0  0  0  0
  8 17  1  0  0  0  0
  9 20  1  0  0  0  0
 10 21  1  0  0  0  0
 11  2  2  0  0  0  0
 12  7  2  0  0  0  0
 13 12  1  0  0  0  0
 14 15  2  0  0  0  0
 15  2  1  0  0  0  0
 15  6  1  0  0  0  0
 16  7  1  6  0  0  0
 17  6  1  0  0  0  0
 17  1  1  0  0  0  0
 18 14  1  0  0  0  0
 18 16  1  0  0  0  0
 19 18  1  0  0  0  0
 19 16  1  0  0  0  0
 20  5  2  0  0  0  0
 21 11  1  0  0  0  0
 22  4  1  0  0  0  0
 22 24  1  0  0  0  0
 23 21  2  0  0  0  0
 23 14  1  0  0  0  0
 24 28  1  0  0  0  0
 26 27  2  0  0  0  0
 27 25  1  0  0  0  0
 28 27  1  0  0  0  0
M  END
>  <MODEL>
3

>  <REMARK>
 VINA RESULT:      -6.3      3.728      5.456
  Name = 
  2 active torsions:
  status: ('A' for Active; 'I' for Inactive)
    1  A    between atoms: C_18  and  C_26
    2  A    between atoms: C_18  and  N_28
                            x       y       z     vdW  Elec       q    Type
                         _______ _______ _______ _____ _____    ______ ____

>  <TORSDO>
F 2

$$$$
=
 OpenBabel10232408383D

 28 32  0  0  1  0  0  0  0  0999 V2000
  188.6200  174.9730  135.4200 C   0  0  0  0  0  3  0  0  0  0  0  0
  190.4640  176.2330  139.4500 C   0  0  0  0  0  3  0  0  0  0  0  0
  183.5480  175.0520  136.4690 N   0  0  0  0  0  0  0  0  0  0  0  0
  189.9260  175.3590  135.1400 C   0  0  0  0  0  3  0  0  0  0  0  0
  185.8590  175.4720  136.9350 C   0  0  0  0  0  0  0  0  0  0  0  0
  189.3890  175.9120  137.2380 C   0  0  0  0  0  0  0  0  0  0  0  0
  185.6620  176.8370  136.6280 C   0  0  0  0  0  0  0  0  0  0  0  0
  187.1360  174.9800  137.3530 N   0  0  0  0  0  2  0  0  0  0  0  0
  184.9180  173.2240  137.2180 N   0  0  0  0  0  1  0  0  0  0  0  0
  189.5860  178.4300  142.7130 Cl  0  0  0  0  0  0  0  0  0  0  0  0
  190.5180  176.8140  140.7200 C   0  0  0  0  0  3  0  0  0  0  0  0
  184.3990  177.2650  136.2050 C   0  0  0  0  0  3  0  0  0  0  0  0
  183.3480  176.3520  136.1280 C   0  0  0  0  0  3  0  0  0  0  0  0
  188.4020  177.4320  138.9870 C   0  0  0  0  0  0  0  0  0  0  0  0
  189.4070  176.5260  138.5790 C   0  0  0  0  0  0  0  0  0  0  0  0
  186.7590  177.8560  136.7610 C   0  0  2  0  0  3  0  0  0  0  0  0
  188.3170  175.3260  136.6830 N   0  0  0  0  0  0  0  0  0  0  0  0
  187.3440  177.8150  138.1080 N   0  0  0  0  0  0  0  0  0  0  0  0
  186.4170  178.7560  137.6400 O   0  0  0  0  0  0  0  0  0  0  0  0
  184.7630  174.5980  136.8780 C   0  0  0  0  0  0  0  0  0  0  0  0
  189.5180  177.7000  141.1240 C   0  0  0  0  0  0  0  0  0  0  0  0
  190.3990  175.9540  136.2980 C   0  0  0  0  0  0  0  0  0  0  0  0
  188.4680  178.0130  140.2570 C   0  0  0  0  0  3  0  0  0  0  0  0
  191.7620  176.5330  136.4740 C   0  0  0  0  0  2  0  0  0  0  0  0
  194.6440  174.4300  137.9660 C   0  0  0  0  0  1  0  0  0  0  0  0
  193.7530  176.5670  138.5010 O   0  0  0  0  0  0  0  0  0  0  0  0
  193.6920  175.5510  137.7580 C   0  0  0  0  0  0  0  0  0  0  0  0
  192.7170  175.4660  136.7200 N   0  0  0  0  0  2  0  0  0  0  0  0
  1 17  1  0  0  0  0
  2 11  1  0  0  0  0
  3 20  1  0  0  0  0
  4  1  2  0  0  0  0
  4 22  1  0  0  0  0
  5  8  1  0  0  0  0
  6 15  1  0  0  0  0
  7  5  1  0  0  0  0
 11 21  2  0  0  0  0
 12  7  2  0  0  0  0
 13 12  1  0  0  0  0
 13  3  2  0  0  0  0
 14 23  2  0  0  0  0
 15 14  1  0  0  0  0
 15  2  2  0  0  0  0
 16  7  1  1  0  0  0
 16 19  1  0  0  0  0
 16 18  1  0  0  0  0
 17  6  1  0  0  0  0
 17  8  1  0  0  0  0
 18 14  1  0  0  0  0
 19 18  1  0  0  0  0
 20  5  2  0  0  0  0
 20  9  1  0  0  0  0
 21 10  1  0  0  0  0
 22 24  1  0  0  0  0
 22  6  2  0  0  0  0
 23 21  1  0  0  0  0
 24 28  1  0  0  0  0
 27 25  1  0  0  0  0
 27 26  2  0  0  0  0
 28 27  1  0  0  0  0
M  END
>  <MODEL>
4

>  <REMARK>
 VINA RESULT:      -6.2      3.432      5.321
  Name = 
  2 active torsions:
  status: ('A' for Active; 'I' for Inactive)
    1  A    between atoms: C_18  and  C_26
    2  A    between atoms: C_18  and  N_28
                            x       y       z     vdW  Elec       q    Type
                         _______ _______ _______ _____ _____    ______ ____

>  <TORSDO>
F 2

$$$$
=
 OpenBabel10232408383D

 28 32  0  0  1  0  0  0  0  0999 V2000
  187.8310  178.0770  140.2670 C   0  0  0  0  0  3  0  0  0  0  0  0
  192.3450  177.2820  139.7920 C   0  0  0  0  0  3  0  0  0  0  0  0
  186.1860  177.9890  135.3560 N   0  0  0  0  0  0  0  0  0  0  0  0
  188.2870  177.6950  141.5240 C   0  0  0  0  0  3  0  0  0  0  0  0
  187.7910  177.6730  137.1040 C   0  0  0  0  0  0  0  0  0  0  0  0
  189.8730  177.3480  139.9870 C   0  0  0  0  0  0  0  0  0  0  0  0
  187.5660  176.2800  137.0440 C   0  0  0  0  0  0  0  0  0  0  0  0
  188.7430  178.2350  138.0130 N   0  0  0  0  0  2  0  0  0  0  0  0
  187.3340  179.9160  136.2220 N   0  0  0  0  0  1  0  0  0  0  0  0
  194.9250  175.4140  137.3230 Cl  0  0  0  0  0  0  0  0  0  0  0  0
  193.5200  176.8370  139.1820 C   0  0  0  0  0  3  0  0  0  0  0  0
  186.6110  175.7810  136.1530 C   0  0  0  0  0  3  0  0  0  0  0  0
  185.9240  176.6570  135.3130 C   0  0  0  0  0  3  0  0  0  0  0  0
  191.0300  175.9950  138.2060 C   0  0  0  0  0  0  0  0  0  0  0  0
  191.0950  176.8760  139.3080 C   0  0  0  0  0  0  0  0  0  0  0  0
  188.3360  175.3060  137.8930 C   0  0  2  0  0  3  0  0  0  0  0  0
  188.7970  177.8490  139.3590 N   0  0  0  0  0  0  0  0  0  0  0  0
  189.7820  175.4980  137.7220 N   0  0  0  0  0  0  0  0  0  0  0  0
  189.0080  174.4930  137.1270 O   0  0  0  0  0  0  0  0  0  0  0  0
  187.1030  178.5110  136.2150 C   0  0  0  0  0  0  0  0  0  0  0  0
  193.4530  175.9740  138.0860 C   0  0  0  0  0  0  0  0  0  0  0  0
  189.5790  177.2330  141.3310 C   0  0  0  0  0  0  0  0  0  0  0  0
  192.2120  175.5500  137.6050 C   0  0  0  0  0  3  0  0  0  0  0  0
  190.4740  176.7070  142.4000 C   0  0  0  0  0  2  0  0  0  0  0  0
  188.9970  177.4020  145.9070 C   0  0  0  0  0  1  0  0  0  0  0  0
  190.4820  178.6170  144.5050 O   0  0  0  0  0  0  0  0  0  0  0  0
  189.7800  177.5820  144.6580 C   0  0  0  0  0  0  0  0  0  0  0  0
  189.7290  176.5810  143.6420 N   0  0  0  0  0  2  0  0  0  0  0  0
  1  4  2  0  0  0  0
  3 20  1  0  0  0  0
  5  8  1  0  0  0  0
  6 22  2  0  0  0  0
  7  5  1  0  0  0  0
  8 17  1  0  0  0  0
 10 21  1  0  0  0  0
 11  2  2  0  0  0  0
 12  7  2  0  0  0  0
 13  3  2  0  0  0  0
 13 12  1  0  0  0  0
 14 15  2  0  0  0  0
 15  2  1  0  0  0  0
 15  6  1  0  0  0  0
 16  7  1  6  0  0  0
 17  6  1  0  0  0  0
 17  1  1  0  0  0  0
 18 16  1  0  0  0  0
 18 14  1  0  0  0  0
 19 18  1  0  0  0  0
 19 16  1  0  0  0  0
 20  9  1  0  0  0  0
 20  5  2  0  0  0  0
 21 11  1  0  0  0  0
 22  4  1  0  0  0  0
 22 24  1  0  0  0  0
 23 21  2  0  0  0  0
 23 14  1  0  0  0  0
 24 28  1  0  0  0  0
 26 27  2  0  0  0  0
 27 25  1  0  0  0  0
 28 27  1  0  0  0  0
M  END
>  <MODEL>
5

>  <REMARK>
 VINA RESULT:      -6.0      3.204      4.766
  Name = 
  2 active torsions:
  status: ('A' for Active; 'I' for Inactive)
    1  A    between atoms: C_18  and  C_26
    2  A    between atoms: C_18  and  N_28
                            x       y       z     vdW  Elec       q    Type
                         _______ _______ _______ _____ _____    ______ ____

>  <TORSDO>
F 2

$$$$
=
 OpenBabel10232408383D

 28 32  0  0  1  0  0  0  0  0999 V2000
  190.2050  178.0380  140.2940 C   0  0  0  0  0  3  0  0  0  0  0  0
  185.7840  179.1990  140.8790 C   0  0  0  0  0  3  0  0  0  0  0  0
  191.9250  177.8060  145.1750 N   0  0  0  0  0  0  0  0  0  0  0  0
  189.5690  177.7450  139.0930 C   0  0  0  0  0  3  0  0  0  0  0  0
  190.2410  177.9880  143.4830 C   0  0  0  0  0  0  0  0  0  0  0  0
  188.0600  178.2350  140.6670 C   0  0  0  0  0  0  0  0  0  0  0  0
  189.8880  176.6370  143.7040 C   0  0  0  0  0  0  0  0  0  0  0  0
  189.5510  178.7890  142.5190 N   0  0  0  0  0  2  0  0  0  0  0  0
  191.6070  179.9310  144.0960 N   0  0  0  0  0  1  0  0  0  0  0  0
  182.8010  178.8100  143.5610 Cl  0  0  0  0  0  0  0  0  0  0  0  0
  184.5620  179.3370  141.5420 C   0  0  0  0  0  3  0  0  0  0  0  0
  190.6060  175.8900  144.6430 C   0  0  0  0  0  3  0  0  0  0  0  0
  191.6300  176.4940  145.3720 C   0  0  0  0  0  3  0  0  0  0  0  0
  186.5480  177.6630  142.5990 C   0  0  0  0  0  0  0  0  0  0  0  0
  186.7880  178.3740  141.4010 C   0  0  0  0  0  0  0  0  0  0  0  0
  188.7490  175.9760  142.9780 C   0  0  2  0  0  3  0  0  0  0  0  0
  189.2760  178.3190  141.2270 N   0  0  0  0  0  0  0  0  0  0  0  0
  187.5140  176.7570  143.1320 N   0  0  0  0  0  0  0  0  0  0  0  0
  187.8470  175.5920  143.8370 O   0  0  0  0  0  0  0  0  0  0  0  0
  191.2530  178.5620  144.2650 C   0  0  0  0  0  0  0  0  0  0  0  0
  184.3320  178.6410  142.7310 C   0  0  0  0  0  0  0  0  0  0  0  0
  188.2130  177.8710  139.3450 C   0  0  0  0  0  0  0  0  0  0  0  0
  185.3200  177.8020  143.2520 C   0  0  0  0  0  3  0  0  0  0  0  0
  187.1280  177.6440  138.3470 C   0  0  0  0  0  2  0  0  0  0  0  0
  188.2600  175.4920  135.3400 C   0  0  0  0  0  1  0  0  0  0  0  0
  187.0900  174.9850  137.3460 O   0  0  0  0  0  0  0  0  0  0  0  0
  187.6520  175.8670  136.6420 C   0  0  0  0  0  0  0  0  0  0  0  0
  187.7080  177.2230  137.0830 N   0  0  0  0  0  2  0  0  0  0  0  0
  1 17  1  0  0  0  0
  2 15  2  0  0  0  0
  2 11  1  0  0  0  0
  3 13  1  0  0  0  0
  4 22  1  0  0  0  0
  4  1  2  0  0  0  0
  5  7  2  0  0  0  0
  5 20  1  0  0  0  0
  6 17  1  0  0  0  0
  6 15  1  0  0  0  0
  7 12  1  0  0  0  0
  8  5  1  0  0  0  0
  9 20  1  0  0  0  0
 11 21  2  0  0  0  0
 12 13  2  0  0  0  0
 14 18  1  0  0  0  0
 14 23  2  0  0  0  0
 15 14  1  0  0  0  0
 16 18  1  0  0  0  0
 16  7  1  1  0  0  0
 16 19  1  0  0  0  0
 17  8  1  0  0  0  0
 18 19  1  0  0  0  0
 20  3  2  0  0  0  0
 21 23  1  0  0  0  0
 21 10  1  0  0  0  0
 22  6  2  0  0  0  0
 24 22  1  0  0  0  0
 25 27  1  0  0  0  0
 27 28  1  0  0  0  0
 27 26  2  0  0  0  0
 28 24  1  0  0  0  0
M  END
>  <MODEL>
6

>  <REMARK>
 VINA RESULT:      -6.0      2.177      6.420
  Name = 
  2 active torsions:
  status: ('A' for Active; 'I' for Inactive)
    1  A    between atoms: C_18  and  C_26
    2  A    between atoms: C_18  and  N_28
                            x       y       z     vdW  Elec       q    Type
                         _______ _______ _______ _____ _____    ______ ____

>  <TORSDO>
F 2

$$$$
=
 OpenBabel10232408383D

 28 32  0  0  1  0  0  0  0  0999 V2000
  188.3060  178.1330  139.2200 C   0  0  0  0  0  3  0  0  0  0  0  0
  189.7570  174.7300  136.4720 C   0  0  0  0  0  3  0  0  0  0  0  0
  190.5640  176.9330  143.7250 N   0  0  0  0  0  0  0  0  0  0  0  0
  188.0830  178.5700  137.9190 C   0  0  0  0  0  3  0  0  0  0  0  0
  190.1810  176.7110  141.3720 C   0  0  0  0  0  0  0  0  0  0  0  0
  189.3140  176.7040  137.9080 C   0  0  0  0  0  0  0  0  0  0  0  0
  191.3920  177.3950  141.1210 C   0  0  0  0  0  0  0  0  0  0  0  0
  189.3670  176.2240  140.3010 N   0  0  0  0  0  2  0  0  0  0  0  0
  188.6090  175.7430  142.9870 N   0  0  0  0  0  1  0  0  0  0  0  0
  192.8760  172.2170  136.0260 Cl  0  0  0  0  0  0  0  0  0  0  0  0
  190.5770  173.6890  136.0290 C   0  0  0  0  0  3  0  0  0  0  0  0
  192.1430  177.8700  142.2010 C   0  0  0  0  0  3  0  0  0  0  0  0
  191.7090  177.6310  143.5050 C   0  0  0  0  0  3  0  0  0  0  0  0
  191.4860  175.4340  138.0270 C   0  0  0  0  0  0  0  0  0  0  0  0
  190.1960  175.6020  137.4760 C   0  0  0  0  0  0  0  0  0  0  0  0
  191.9170  177.6130  139.7290 C   0  0  2  0  0  3  0  0  0  0  0  0
  189.0570  177.0160  139.1880 N   0  0  0  0  0  0  0  0  0  0  0  0
  192.0040  176.3390  139.0020 N   0  0  0  0  0  0  0  0  0  0  0  0
  193.0720  177.0220  139.5990 O   0  0  0  0  0  0  0  0  0  0  0  0
  189.8040  176.4630  142.6990 C   0  0  0  0  0  0  0  0  0  0  0  0
  191.8470  173.5190  136.5830 C   0  0  0  0  0  0  0  0  0  0  0  0
  188.7290  177.6570  137.1000 C   0  0  0  0  0  0  0  0  0  0  0  0
  192.3020  174.3930  137.5730 C   0  0  0  0  0  3  0  0  0  0  0  0
  188.7740  177.7180  135.6110 C   0  0  0  0  0  2  0  0  0  0  0  0
  185.1350  177.3590  134.3480 C   0  0  0  0  0  1  0  0  0  0  0  0
  186.7420  175.7900  135.1280 O   0  0  0  0  0  0  0  0  0  0  0  0
  186.4750  176.9960  134.8760 C   0  0  0  0  0  0  0  0  0  0  0  0
  187.4480  178.0170  135.0950 N   0  0  0  0  0  2  0  0  0  0  0  0
  2 15  1  0  0  0  0
  4  1  2  0  0  0  0
  5 20  1  0  0  0  0
  6 17  1  0  0  0  0
  7  5  2  0  0  0  0
  7 12  1  0  0  0  0
  8  5  1  0  0  0  0
 10 21  1  0  0  0  0
 11  2  2  0  0  0  0
 11 21  1  0  0  0  0
 12 13  2  0  0  0  0
 13  3  1  0  0  0  0
 14 18  1  0  0  0  0
 15  6  1  0  0  0  0
 15 14  2  0  0  0  0
 16 19  1  1  0  0  0
 16  7  1  0  0  0  0
 17  1  1  0  0  0  0
 17  8  1  0  0  0  0
 18 19  1  0  0  0  0
 18 16  1  0  0  0  0
 20  9  1  0  0  0  0
 20  3  2  0  0  0  0
 21 23  2  0  0  0  0
 22  6  2  0  0  0  0
 22  4  1  0  0  0  0
 23 14  1  0  0  0  0
 24 22  1  0  0  0  0
 25 27  1  0  0  0  0
 27 28  1  0  0  0  0
 27 26  2  0  0  0  0
 28 24  1  0  0  0  0
M  END
>  <MODEL>
7

>  <REMARK>
 VINA RESULT:      -5.8      3.386      7.402
  Name = 
  2 active torsions:
  status: ('A' for Active; 'I' for Inactive)
    1  A    between atoms: C_18  and  C_26
    2  A    between atoms: C_18  and  N_28
                            x       y       z     vdW  Elec       q    Type
                         _______ _______ _______ _____ _____    ______ ____

>  <TORSDO>
F 2

$$$$
=
 OpenBabel10232408383D

 28 32  0  0  1  0  0  0  0  0999 V2000
  182.4900  176.3560  138.0210 C   0  0  0  0  0  3  0  0  0  0  0  0
  186.3880  178.0220  136.2150 C   0  0  0  0  0  3  0  0  0  0  0  0
  181.8260  171.9790  135.3300 N   0  0  0  0  0  0  0  0  0  0  0  0
  182.9570  177.3030  138.9250 C   0  0  0  0  0  3  0  0  0  0  0  0
  183.0440  173.9100  136.0510 C   0  0  0  0  0  0  0  0  0  0  0  0
  184.5070  176.8880  137.3690 C   0  0  0  0  0  0  0  0  0  0  0  0
  183.8190  173.0900  136.9010 C   0  0  0  0  0  0  0  0  0  0  0  0
  183.2770  175.3180  135.9600 N   0  0  0  0  0  2  0  0  0  0  0  0
  181.2910  174.1070  134.3460 N   0  0  0  0  0  1  0  0  0  0  0  0
  189.7820  176.7520  134.4500 Cl  0  0  0  0  0  0  0  0  0  0  0  0
  187.6110  177.9990  135.5390 C   0  0  0  0  0  3  0  0  0  0  0  0
  183.5400  171.7210  136.9700 C   0  0  0  0  0  3  0  0  0  0  0  0
  182.5300  171.1800  136.1740 C   0  0  0  0  0  3  0  0  0  0  0  0
  186.4420  175.6000  136.4000 C   0  0  0  0  0  0  0  0  0  0  0  0
  185.7890  176.8290  136.6410 C   0  0  0  0  0  0  0  0  0  0  0  0
  184.9540  173.6340  137.7240 C   0  0  2  0  0  3  0  0  0  0  0  0
  183.4430  176.1150  137.1010 N   0  0  0  0  0  0  0  0  0  0  0  0
  185.9050  174.3650  136.8770 N   0  0  0  0  0  0  0  0  0  0  0  0
  186.0700  173.0620  137.3650 O   0  0  0  0  0  0  0  0  0  0  0  0
  182.0640  173.3150  135.2430 C   0  0  0  0  0  0  0  0  0  0  0  0
  188.2480  176.7810  135.2930 C   0  0  0  0  0  0  0  0  0  0  0  0
  184.2350  177.6280  138.5020 C   0  0  0  0  0  0  0  0  0  0  0  0
  187.6690  175.5870  135.7290 C   0  0  0  0  0  3  0  0  0  0  0  0
  185.1400  178.6060  139.1700 C   0  0  0  0  0  2  0  0  0  0  0  0
  184.9330  179.2960  142.9700 C   0  0  0  0  0  1  0  0  0  0  0  0
  186.7400  178.7940  141.5110 O   0  0  0  0  0  0  0  0  0  0  0  0
  185.5010  178.9850  141.6340 C   0  0  0  0  0  0  0  0  0  0  0  0
  184.6370  178.9070  140.5000 N   0  0  0  0  0  2  0  0  0  0  0  0
  1  4  2  0  0  0  0
  2 15  1  0  0  0  0
  3 13  1  0  0  0  0
  5  7  2  0  0  0  0
  6 22  2  0  0  0  0
  7 12  1  0  0  0  0
  8  5  1  0  0  0  0
  8 17  1  0  0  0  0
  9 20  1  0  0  0  0
 10 21  1  0  0  0  0
 11  2  2  0  0  0  0
 13 12  2  0  0  0  0
 14 15  2  0  0  0  0
 14 18  1  0  0  0  0
 15  6  1  0  0  0  0
 16  7  1  6  0  0  0
 17  6  1  0  0  0  0
 17  1  1  0  0  0  0
 18 19  1  0  0  0  0
 18 16  1  0  0  0  0
 19 16  1  0  0  0  0
 20  3  2  0  0  0  0
 20  5  1  0  0  0  0
 21 11  1  0  0  0  0
 21 23  2  0  0  0  0
 22  4  1  0  0  0  0
 22 24  1  0  0  0  0
 23 14  1  0  0  0  0
 24 28  1  0  0  0  0
 26 27  2  0  0  0  0
 27 25  1  0  0  0  0
 28 27  1  0  0  0  0
M  END
>  <MODEL>
8

>  <REMARK>
 VINA RESULT:      -5.4      5.440      7.572
  Name = 
  2 active torsions:
  status: ('A' for Active; 'I' for Inactive)
    1  A    between atoms: C_18  and  C_26
    2  A    between atoms: C_18  and  N_28
                            x       y       z     vdW  Elec       q    Type
                         _______ _______ _______ _____ _____    ______ ____

>  <TORSDO>
F 2

$$$$
=
 OpenBabel10232408383D

 28 32  0  0  1  0  0  0  0  0999 V2000
  188.2220  178.4790  137.7250 C   0  0  0  0  0  3  0  0  0  0  0  0
  186.6190  174.3090  136.5950 C   0  0  0  0  0  3  0  0  0  0  0  0
  192.1360  177.3150  140.9120 N   0  0  0  0  0  0  0  0  0  0  0  0
  187.4420  178.6630  136.5890 C   0  0  0  0  0  3  0  0  0  0  0  0
  190.4150  176.8070  139.3280 C   0  0  0  0  0  0  0  0  0  0  0  0
  187.7560  176.4820  136.9670 C   0  0  0  0  0  0  0  0  0  0  0  0
  191.3960  176.6740  138.3200 C   0  0  0  0  0  0  0  0  0  0  0  0
  189.0280  176.5970  139.0480 N   0  0  0  0  0  2  0  0  0  0  0  0
  189.8620  177.2030  141.6850 N   0  0  0  0  0  1  0  0  0  0  0  0
  187.8860  170.5060  136.1770 Cl  0  0  0  0  0  0  0  0  0  0  0  0
  186.6400  172.9250  136.4100 C   0  0  0  0  0  3  0  0  0  0  0  0
  192.7370  176.9100  138.6390 C   0  0  0  0  0  3  0  0  0  0  0  0
  193.0910  177.2350  139.9490 C   0  0  0  0  0  3  0  0  0  0  0  0
  189.0410  174.3240  136.7850 C   0  0  0  0  0  0  0  0  0  0  0  0
  187.8110  175.0180  136.7930 C   0  0  0  0  0  0  0  0  0  0  0  0
  191.0530  176.2660  136.9150 C   0  0  2  0  0  3  0  0  0  0  0  0
  188.4060  177.1610  137.9250 N   0  0  0  0  0  0  0  0  0  0  0  0
  190.2860  175.0130  136.9120 N   0  0  0  0  0  0  0  0  0  0  0  0
  191.6510  175.1440  136.6260 O   0  0  0  0  0  0  0  0  0  0  0  0
  190.8210  177.1000  140.6380 C   0  0  0  0  0  0  0  0  0  0  0  0
  187.8580  172.2400  136.4120 C   0  0  0  0  0  0  0  0  0  0  0  0
  187.1570  177.3910  136.1180 C   0  0  0  0  0  0  0  0  0  0  0  0
  189.0530  172.9390  136.5920 C   0  0  0  0  0  3  0  0  0  0  0  0
  186.3470  177.0840  134.9050 C   0  0  0  0  0  2  0  0  0  0  0  0
  182.5120  176.6600  135.1830 C   0  0  0  0  0  1  0  0  0  0  0  0
  184.2410  175.2590  134.3460 O   0  0  0  0  0  0  0  0  0  0  0  0
  183.9350  176.3610  134.8750 C   0  0  0  0  0  0  0  0  0  0  0  0
  184.9410  177.3250  135.1840 N   0  0  0  0  0  2  0  0  0  0  0  0
  1 17  1  0  0  0  0
  2 15  1  0  0  0  0
  4  1  2  0  0  0  0
  5 20  2  0  0  0  0
  6 17  1  0  0  0  0
  7 12  2  0  0  0  0
  7  5  1  0  0  0  0
  8  5  1  0  0  0  0
 10 21  1  0  0  0  0
 11 21  1  0  0  0  0
 11  2  2  0  0  0  0
 12 13  1  0  0  0  0
 13  3  2  0  0  0  0
 14 15  2  0  0  0  0
 14 18  1  0  0  0  0
 15  6  1  0  0  0  0
 16 19  1  6  0  0  0
 16  7  1  0  0  0  0
 17  8  1  0  0  0  0
 18 16  1  0  0  0  0
 19 18  1  0  0  0  0
 20  3  1  0  0  0  0
 20  9  1  0  0  0  0
 21 23  2  0  0  0  0
 22  4  1  0  0  0  0
 22  6  2  0  0  0  0
 23 14  1  0  0  0  0
 24 28  1  0  0  0  0
 24 22  1  0  0  0  0
 26 27  2  0  0  0  0
 27 25  1  0  0  0  0
 27 28  1  0  0  0  0
M  END
>  <MODEL>
9

>  <REMARK>
 VINA RESULT:      -5.2      3.960      7.432
  Name = 
  2 active torsions:
  status: ('A' for Active; 'I' for Inactive)
    1  A    between atoms: C_18  and  C_26
    2  A    between atoms: C_18  and  N_28
                            x       y       z     vdW  Elec       q    Type
                         _______ _______ _______ _____ _____    ______ ____

>  <TORSDO>
F 2

$$$$
