=
 OpenBabel10232408583D

 56 61  0  0  1  0  0  0  0  0999 V2000
  188.9120  176.8570  141.7950 C   0  0  0  0  0  2  0  0  0  0  0  0
  190.3050  177.4990  141.7620 C   0  0  1  0  0  3  0  0  0  0  0  0
  185.9450  177.9780  142.1810 C   0  0  0  0  0  3  0  0  0  0  0  0
  184.3710  178.5010  143.9870 C   0  0  0  0  0  0  0  0  0  0  0  0
  188.6500  177.0900  144.3660 C   0  0  0  0  0  0  0  0  0  0  0  0
  190.7810  175.9060  143.7790 C   0  0  0  0  0  2  0  0  0  0  0  0
  185.3440  178.1740  144.9490 C   0  0  0  0  0  3  0  0  0  0  0  0
  184.6680  178.4080  142.6020 C   0  0  0  0  0  0  0  0  0  0  0  0
  186.8780  177.6440  143.1600 C   0  0  0  0  0  0  0  0  0  0  0  0
  187.6680  177.4230  145.2380 N   0  0  0  0  0  0  0  0  0  0  0  0
  190.0650  176.7990  144.7830 C   0  0  0  0  0  2  0  0  0  0  0  0
  191.3400  176.7120  142.6020 C   0  0  0  0  0  2  0  0  0  0  0  0
  188.1860  177.2170  143.0540 C   0  0  0  0  0  0  0  0  0  0  0  0
  186.5930  177.7510  144.4970 C   0  0  0  0  0  0  0  0  0  0  0  0
  183.0810  178.9270  144.4270 N   0  0  0  0  0  1  0  0  0  0  0  0
  190.8040  177.6300  140.3110 C   0  0  1  0  0  3  0  0  0  0  0  0
  192.1980  177.4930  140.2590 O   0  0  0  0  0  1  0  0  0  0  0  0
  191.9350  175.4930  135.1300 C   0  0  0  0  0  2  0  0  0  0  0  0
  189.9490  177.1820  137.9560 C   0  0  0  0  0  2  0  0  0  0  0  0
  191.0150  175.4630  139.2510 O   0  0  0  0  0  0  0  0  0  0  0  0
  192.1880  174.3330  137.4010 C   0  0  0  0  0  2  0  0  0  0  0  0
  190.5690  176.1500  137.0790 C   0  0  2  0  0  3  0  0  0  0  0  0
  190.1710  176.6000  139.3570 C   0  0  1  0  0  3  0  0  0  0  0  0
  191.6120  175.6060  137.9940 C   0  0  1  0  0  3  0  0  0  0  0  0
  191.2630  176.6790  135.8390 C   0  0  0  0  0  2  0  0  0  0  0  0
  192.8830  174.7130  136.0740 C   0  0  1  0  0  3  0  0  0  0  0  0
  192.6280  172.9120  134.3470 C   0  0  0  0  0  1  0  0  0  0  0  0
  193.5580  173.5130  135.3840 C   0  0  0  0  0  0  0  0  0  0  0  0
  194.8170  173.9650  134.6640 C   0  0  0  0  0  1  0  0  0  0  0  0
  193.9290  172.4380  136.3910 C   0  0  0  0  0  1  0  0  0  0  0  0
  187.7800  177.4990  146.6910 C   0  0  0  0  0  2  0  0  0  0  0  0
  189.1600  178.2800  148.4640 O   0  0  0  0  0  1  0  0  0  0  0  0
  189.0080  178.3010  147.0770 C   0  0  0  0  0  2  0  0  0  0  0  0
  183.6660  178.8820  141.5940 C   0  0  0  0  0  2  0  0  0  0  0  0
  183.3590  177.8240  140.5430 C   0  0  0  0  0  2  0  0  0  0  0  0
  183.6290  178.3470  139.1380 C   0  0  1  0  0  3  0  0  0  0  0  0
  183.1980  179.7900  138.9930 C   0  0  0  0  0  0  0  0  0  0  0  0
  184.0490  180.6570  138.8890 O   0  0  0  0  0  0  0  0  0  0  0  0
  181.7530  180.1920  139.0470 C   0  0  0  0  0  2  0  0  0  0  0  0
  181.3630  181.0340  137.8420 C   0  0  2  0  0  3  0  0  0  0  0  0
  180.5590  184.8400  137.4210 C   0  0  0  0  0  2  0  0  0  0  0  0
  180.8050  182.2770  138.3150 N   0  0  0  0  0  0  0  0  0  0  0  0
  180.8470  183.3530  137.6180 C   0  0  0  0  0  0  0  0  0  0  0  0
  181.2210  184.1450  136.3660 C   0  0  0  0  0  2  0  0  0  0  0  0
  180.3790  180.3190  137.0390 N   0  0  0  0  0  2  0  0  0  0  0  0
  180.8770  180.2690  135.7290 N   0  0  0  0  0  1  0  0  0  0  0  0
  185.1080  178.1590  138.8320 C   0  0  0  0  0  2  0  0  0  0  0  0
  185.3050  177.6470  137.4150 C   0  0  1  0  0  3  0  0  0  0  0  0
  186.5760  178.1650  136.8100 C   0  0  0  0  0  0  0  0  0  0  0  0
  187.1680  177.5230  135.7330 O   0  0  0  0  0  0  0  0  0  0  0  0
  187.1120  179.2050  137.2720 O   0  0  0  0  0  1  0  0  0  0  0  0
  185.3180  176.1270  137.4530 C   0  0  0  0  0  2  0  0  0  0  0  0
  184.1240  175.5760  136.6930 C   0  0  1  0  0  3  0  0  0  0  0  0
  184.4330  175.4840  135.3360 O   0  0  0  0  0  1  0  0  0  0  0  0
  184.5480  173.2820  137.0280 O   0  0  0  0  0  0  0  0  0  0  0  0
  183.7840  174.2180  137.2100 C   0  0  0  0  0  3  0  0  0  0  0  0
  1 13  1  0  0  0  0
  2 16  1  6  0  0  0
  2  1  1  0  0  0  0
  2 12  1  0  0  0  0
  3  8  2  0  0  0  0
  3  9  1  0  0  0  0
  4 15  1  0  0  0  0
  4  7  2  0  0  0  0
  5 11  1  0  0  0  0
  5 10  1  0  0  0  0
  6 11  1  0  0  0  0
  8  4  1  0  0  0  0
  9 14  2  0  0  0  0
 10 31  1  0  0  0  0
 12  6  1  0  0  0  0
 13  9  1  0  0  0  0
 13  5  2  0  0  0  0
 14  7  1  0  0  0  0
 14 10  1  0  0  0  0
 16 17  1  1  0  0  0
 18 25  1  0  0  0  0
 18 26  1  0  0  0  0
 19 23  1  0  0  0  0
 20 23  1  0  0  0  0
 22 25  1  6  0  0  0
 22 19  1  0  0  0  0
 22 24  1  0  0  0  0
 23 16  1  1  0  0  0
 24 21  1  6  0  0  0
 24 20  1  0  0  0  0
 26 28  1  6  0  0  0
 26 21  1  0  0  0  0
 27 28  1  0  0  0  0
 28 30  1  0  0  0  0
 29 28  1  0  0  0  0
 31 33  1  0  0  0  0
 33 32  1  0  0  0  0
 34  8  1  0  0  0  0
 35 34  1  0  0  0  0
 36 47  1  1  0  0  0
 36 35  1  0  0  0  0
 37 39  1  0  0  0  0
 37 36  1  0  0  0  0
 38 37  2  0  0  0  0
 40 42  1  0  0  0  0
 40 39  1  1  0  0  0
 41 43  1  0  0  0  0
 43 42  2  0  0  0  0
 44 41  1  0  0  0  0
 44 43  1  0  0  0  0
 45 40  1  0  0  0  0
 46 45  1  0  0  0  0
 48 52  1  1  0  0  0
 48 47  1  0  0  0  0
 49 51  1  0  0  0  0
 49 48  1  0  0  0  0
 50 49  2  0  0  0  0
 53 54  1  6  0  0  0
 53 56  1  0  0  0  0
 53 52  1  0  0  0  0
 55 56  2  0  0  0  0
M  END
>  <MODEL>
1

>  <REMARK>
 VINA RESULT:      -7.4      0.000      0.000
  Name = 
  19 active torsions:
  status: ('A' for Active; 'I' for Inactive)
    1  A    between atoms: C_4  and  C_28
    2  A    between atoms: C_4  and  C_46
    3  A    between atoms: C_6  and  C_15
    4  A    between atoms: C_6  and  C_39
    5  A    between atoms: C_10  and  C_23
    6  A    between atoms: C_10  and  C_28
    7  A    between atoms: C_11  and  C_50
    8  A    between atoms: N_13  and  C_40
    9  A    between atoms: C_14  and  C_36
   10  A    between atoms: C_14  and  C_46
   11  A    between atoms: C_16  and  C_36
   12  A    between atoms: C_17  and  C_53
   13  A    between atoms: C_19  and  C_30
   14  A    between atoms: C_19  and  C_56
   15  A    between atoms: C_23  and  C_40
   16  A    between atoms: N_24  and  C_40
   17  A    between atoms: C_28  and  C_56
   18  A    between atoms: N_32  and  C_50
   19  A    between atoms: C_37  and  C_46
                            x       y       z     vdW  Elec       q    Type
                         _______ _______ _______ _____ _____    ______ ____

>  <TORSDO>
F 19

$$$$
=
 OpenBabel10232408583D

 56 61  0  0  1  0  0  0  0  0999 V2000
  185.5740  179.2540  141.6730 C   0  0  0  0  0  2  0  0  0  0  0  0
  184.1930  178.6430  141.3990 C   0  0  1  0  0  3  0  0  0  0  0  0
  188.5590  178.1140  141.6820 C   0  0  0  0  0  3  0  0  0  0  0  0
  190.1290  177.0170  143.2120 C   0  0  0  0  0  0  0  0  0  0  0  0
  185.8220  178.1420  144.0040 C   0  0  0  0  0  0  0  0  0  0  0  0
  183.6730  179.4230  143.8390 C   0  0  0  0  0  2  0  0  0  0  0  0
  189.1440  176.9720  144.2140 C   0  0  0  0  0  3  0  0  0  0  0  0
  189.8400  177.5840  141.9430 C   0  0  0  0  0  0  0  0  0  0  0  0
  187.6130  178.0710  142.7040 C   0  0  0  0  0  0  0  0  0  0  0  0
  186.8040  177.5400  144.7180 N   0  0  0  0  0  0  0  0  0  0  0  0
  184.3990  178.2470  144.4780 C   0  0  0  0  0  2  0  0  0  0  0  0
  183.1380  179.0710  142.4480 C   0  0  0  0  0  2  0  0  0  0  0  0
  186.2970  178.4880  142.7370 C   0  0  0  0  0  0  0  0  0  0  0  0
  187.8900  177.5080  143.9220 C   0  0  0  0  0  0  0  0  0  0  0  0
  191.4240  176.4850  143.4920 N   0  0  0  0  0  1  0  0  0  0  0  0
  183.7070  179.0200  139.9870 C   0  0  1  0  0  3  0  0  0  0  0  0
  184.7830  179.0440  139.0900 O   0  0  0  0  0  1  0  0  0  0  0  0
  183.1920  175.3750  135.6120 C   0  0  0  0  0  2  0  0  0  0  0  0
  182.3530  178.3080  137.9540 C   0  0  0  0  0  2  0  0  0  0  0  0
  183.0530  176.7190  139.6130 O   0  0  0  0  0  0  0  0  0  0  0  0
  183.4760  174.8210  138.0990 C   0  0  0  0  0  2  0  0  0  0  0  0
  182.4620  176.9370  137.3790 C   0  0  2  0  0  3  0  0  0  0  0  0
  182.6300  178.0640  139.4420 C   0  0  1  0  0  3  0  0  0  0  0  0
  183.4320  176.3210  138.3270 C   0  0  1  0  0  3  0  0  0  0  0  0
  183.0530  176.8590  135.9850 C   0  0  0  0  0  2  0  0  0  0  0  0
  184.0080  174.5860  136.6670 C   0  0  1  0  0  3  0  0  0  0  0  0
  183.0170  172.2970  136.9370 C   0  0  0  0  0  1  0  0  0  0  0  0
  184.1490  173.0930  136.3150 C   0  0  0  0  0  0  0  0  0  0  0  0
  184.0730  172.9010  134.8100 C   0  0  0  0  0  1  0  0  0  0  0  0
  185.4720  172.5350  136.8140 C   0  0  0  0  0  1  0  0  0  0  0  0
  186.6840  176.9590  146.0510 C   0  0  0  0  0  2  0  0  0  0  0  0
  188.2790  178.0010  147.4760 O   0  0  0  0  0  1  0  0  0  0  0  0
  186.9330  178.0220  147.1040 C   0  0  0  0  0  2  0  0  0  0  0  0
  190.8590  177.5080  140.8460 C   0  0  0  0  0  2  0  0  0  0  0  0
  190.3840  176.6560  139.6770 C   0  0  0  0  0  2  0  0  0  0  0  0
  191.0790  177.0610  138.3820 C   0  0  1  0  0  3  0  0  0  0  0  0
  192.3150  176.2260  138.1330 C   0  0  0  0  0  0  0  0  0  0  0  0
  193.3800  176.5850  138.6050 O   0  0  0  0  0  0  0  0  0  0  0  0
  192.2810  175.0070  137.2570 C   0  0  0  0  0  2  0  0  0  0  0  0
  193.5550  174.1860  137.3950 C   0  0  2  0  0  3  0  0  0  0  0  0
  197.3460  174.8440  136.6900 C   0  0  0  0  0  2  0  0  0  0  0  0
  194.6210  174.8820  136.7180 N   0  0  0  0  0  0  0  0  0  0  0  0
  195.8560  174.6100  136.9310 C   0  0  0  0  0  0  0  0  0  0  0  0
  196.9740  173.8240  137.6160 C   0  0  0  0  0  2  0  0  0  0  0  0
  193.3590  172.8710  136.7980 N   0  0  0  0  0  2  0  0  0  0  0  0
  192.4470  173.0310  135.7450 N   0  0  0  0  0  1  0  0  0  0  0  0
  190.0740  176.9500  137.2440 C   0  0  0  0  0  2  0  0  0  0  0  0
  188.6630  177.2070  137.7430 C   0  0  1  0  0  3  0  0  0  0  0  0
  188.1920  178.5860  137.3890 C   0  0  0  0  0  0  0  0  0  0  0  0
  189.0680  179.6610  137.3860 O   0  0  0  0  0  1  0  0  0  0  0  0
  186.9890  178.7770  137.0770 O   0  0  0  0  0  0  0  0  0  0  0  0
  187.7420  176.1610  137.1350 C   0  0  0  0  0  2  0  0  0  0  0  0
  188.4300  175.4740  135.9690 C   0  0  1  0  0  3  0  0  0  0  0  0
  188.4550  174.0960  136.1830 O   0  0  0  0  0  1  0  0  0  0  0  0
  186.7840  175.0170  134.3460 O   0  0  0  0  0  0  0  0  0  0  0  0
  187.6850  175.7590  134.7080 C   0  0  0  0  0  3  0  0  0  0  0  0
  1 13  1  0  0  0  0
  2 16  1  6  0  0  0
  2  1  1  0  0  0  0
  2 12  1  0  0  0  0
  3  8  2  0  0  0  0
  3  9  1  0  0  0  0
  4 15  1  0  0  0  0
  4  7  2  0  0  0  0
  5 11  1  0  0  0  0
  5 10  1  0  0  0  0
  6 11  1  0  0  0  0
  8  4  1  0  0  0  0
  9 13  1  0  0  0  0
  9 14  2  0  0  0  0
 10 31  1  0  0  0  0
 12  6  1  0  0  0  0
 13  5  2  0  0  0  0
 14  7  1  0  0  0  0
 14 10  1  0  0  0  0
 16 17  1  6  0  0  0
 18 25  1  0  0  0  0
 18 26  1  0  0  0  0
 19 23  1  0  0  0  0
 22 25  1  6  0  0  0
 22 19  1  0  0  0  0
 22 24  1  0  0  0  0
 23 20  1  0  0  0  0
 23 16  1  6  0  0  0
 24 21  1  1  0  0  0
 24 20  1  0  0  0  0
 26 28  1  6  0  0  0
 26 21  1  0  0  0  0
 28 30  1  0  0  0  0
 28 27  1  0  0  0  0
 29 28  1  0  0  0  0
 31 33  1  0  0  0  0
 33 32  1  0  0  0  0
 34  8  1  0  0  0  0
 35 34  1  0  0  0  0
 36 47  1  6  0  0  0
 36 35  1  0  0  0  0
 37 36  1  0  0  0  0
 37 38  2  0  0  0  0
 39 37  1  0  0  0  0
 40 39  1  6  0  0  0
 41 43  1  0  0  0  0
 41 44  1  0  0  0  0
 42 43  2  0  0  0  0
 42 40  1  0  0  0  0
 43 44  1  0  0  0  0
 45 40  1  0  0  0  0
 46 45  1  0  0  0  0
 47 48  1  0  0  0  0
 48 52  1  6  0  0  0
 49 48  1  0  0  0  0
 50 49  1  0  0  0  0
 51 49  2  0  0  0  0
 53 54  1  1  0  0  0
 53 52  1  0  0  0  0
 55 56  2  0  0  0  0
 56 53  1  0  0  0  0
M  END
>  <MODEL>
2

>  <REMARK>
 VINA RESULT:      -7.3      3.273      8.513
  Name = 
  19 active torsions:
  status: ('A' for Active; 'I' for Inactive)
    1  A    between atoms: C_4  and  C_28
    2  A    between atoms: C_4  and  C_46
    3  A    between atoms: C_6  and  C_15
    4  A    between atoms: C_6  and  C_39
    5  A    between atoms: C_10  and  C_23
    6  A    between atoms: C_10  and  C_28
    7  A    between atoms: C_11  and  C_50
    8  A    between atoms: N_13  and  C_40
    9  A    between atoms: C_14  and  C_36
   10  A    between atoms: C_14  and  C_46
   11  A    between atoms: C_16  and  C_36
   12  A    between atoms: C_17  and  C_53
   13  A    between atoms: C_19  and  C_30
   14  A    between atoms: C_19  and  C_56
   15  A    between atoms: C_23  and  C_40
   16  A    between atoms: N_24  and  C_40
   17  A    between atoms: C_28  and  C_56
   18  A    between atoms: N_32  and  C_50
   19  A    between atoms: C_37  and  C_46
                            x       y       z     vdW  Elec       q    Type
                         _______ _______ _______ _____ _____    ______ ____

>  <TORSDO>
F 19

$$$$
=
 OpenBabel10232408583D

 56 61  0  0  1  0  0  0  0  0999 V2000
  185.1280  177.4990  137.0900 C   0  0  0  0  0  2  0  0  0  0  0  0
  185.1220  176.1960  136.2810 C   0  0  1  0  0  3  0  0  0  0  0  0
  185.0180  178.1950  140.2070 C   0  0  0  0  0  3  0  0  0  0  0  0
  183.3620  178.5770  141.9730 C   0  0  0  0  0  0  0  0  0  0  0  0
  182.6040  177.3750  137.6810 C   0  0  0  0  0  0  0  0  0  0  0  0
  182.9610  177.1990  135.2050 C   0  0  0  0  0  2  0  0  0  0  0  0
  182.3180  178.2820  141.0780 C   0  0  0  0  0  3  0  0  0  0  0  0
  184.7140  178.5310  141.5430 C   0  0  0  0  0  0  0  0  0  0  0  0
  183.9590  177.9290  139.3420 C   0  0  0  0  0  0  0  0  0  0  0  0
  181.8240  177.6140  138.7620 N   0  0  0  0  0  0  0  0  0  0  0  0
  182.0770  176.8220  136.3860 C   0  0  0  0  0  2  0  0  0  0  0  0
  184.1600  176.2540  135.0700 C   0  0  0  0  0  2  0  0  0  0  0  0
  183.9490  177.5640  138.0100 C   0  0  0  0  0  0  0  0  0  0  0  0
  182.6560  177.9570  139.7650 C   0  0  0  0  0  0  0  0  0  0  0  0
  183.0390  178.9230  143.3210 N   0  0  0  0  0  1  0  0  0  0  0  0
  186.5440  175.8540  135.8000 C   0  0  1  0  0  3  0  0  0  0  0  0
  187.3740  176.9790  135.8890 O   0  0  0  0  0  1  0  0  0  0  0  0
  191.0840  172.4270  135.2190 C   0  0  0  0  0  2  0  0  0  0  0  0
  187.4140  173.4640  135.7110 C   0  0  0  0  0  2  0  0  0  0  0  0
  188.4410  175.1200  137.1140 O   0  0  0  0  0  0  0  0  0  0  0  0
  190.7740  174.3640  136.8680 C   0  0  0  0  0  2  0  0  0  0  0  0
  188.8440  173.1380  135.9740 C   0  0  2  0  0  3  0  0  0  0  0  0
  187.1900  174.7000  136.5900 C   0  0  1  0  0  3  0  0  0  0  0  0
  189.3790  174.4940  136.2860 C   0  0  1  0  0  3  0  0  0  0  0  0
  189.6170  172.5890  134.7910 C   0  0  0  0  0  2  0  0  0  0  0  0
  191.6760  173.7450  135.7760 C   0  0  1  0  0  3  0  0  0  0  0  0
  193.5680  172.1440  136.1600 C   0  0  0  0  0  1  0  0  0  0  0  0
  193.1430  173.5990  136.2190 C   0  0  0  0  0  0  0  0  0  0  0  0
  194.0520  174.3800  135.2860 C   0  0  0  0  0  1  0  0  0  0  0  0
  193.3410  174.1090  137.6370 C   0  0  0  0  0  1  0  0  0  0  0  0
  180.3780  177.4470  138.8500 C   0  0  0  0  0  2  0  0  0  0  0  0
  180.0790  175.7390  140.4790 O   0  0  0  0  0  1  0  0  0  0  0  0
  180.0380  175.9910  139.1070 C   0  0  0  0  0  2  0  0  0  0  0  0
  185.8170  178.7200  142.5400 C   0  0  0  0  0  2  0  0  0  0  0  0
  187.0110  177.8200  142.2560 C   0  0  0  0  0  2  0  0  0  0  0  0
  188.3040  178.4410  142.7700 C   0  0  1  0  0  3  0  0  0  0  0  0
  188.9360  177.5910  143.8500 C   0  0  0  0  0  0  0  0  0  0  0  0
  188.6170  176.4180  143.9450 O   0  0  0  0  0  0  0  0  0  0  0  0
  189.8900  178.1690  144.8540 C   0  0  0  0  0  2  0  0  0  0  0  0
  190.3440  177.1220  145.8590 C   0  0  2  0  0  3  0  0  0  0  0  0
  187.6360  178.2100  148.4640 C   0  0  0  0  0  2  0  0  0  0  0  0
  189.9460  177.5500  147.1770 N   0  0  0  0  0  0  0  0  0  0  0  0
  188.7210  177.7810  147.4780 C   0  0  0  0  0  0  0  0  0  0  0  0
  187.2310  177.8520  147.1440 C   0  0  0  0  0  2  0  0  0  0  0  0
  191.7940  176.9780  145.7970 N   0  0  0  0  0  2  0  0  0  0  0  0
  192.0950  175.6770  146.2270 N   0  0  0  0  0  1  0  0  0  0  0  0
  189.2390  178.6510  141.5870 C   0  0  0  0  0  2  0  0  0  0  0  0
  189.0830  177.5330  140.5710 C   0  0  1  0  0  3  0  0  0  0  0  0
  188.9110  178.0670  139.1800 C   0  0  0  0  0  0  0  0  0  0  0  0
  189.8410  177.7930  138.1890 O   0  0  0  0  0  0  0  0  0  0  0  0
  187.9040  178.7660  138.8970 O   0  0  0  0  0  1  0  0  0  0  0  0
  190.3110  176.6400  140.6470 C   0  0  0  0  0  2  0  0  0  0  0  0
  191.5620  177.4870  140.8040 C   0  0  1  0  0  3  0  0  0  0  0  0
  192.1320  177.2570  142.0570 O   0  0  0  0  0  1  0  0  0  0  0  0
  193.7420  177.3090  139.9290 O   0  0  0  0  0  0  0  0  0  0  0  0
  192.5490  177.1250  139.7450 C   0  0  0  0  0  3  0  0  0  0  0  0
  1 13  1  0  0  0  0
  2 16  1  6  0  0  0
  2  1  1  0  0  0  0
  3  8  1  0  0  0  0
  4 15  1  0  0  0  0
  5 13  2  0  0  0  0
  5 10  1  0  0  0  0
  6 11  1  0  0  0  0
  7  4  1  0  0  0  0
  8  4  2  0  0  0  0
  8 34  1  0  0  0  0
  9 14  1  0  0  0  0
  9  3  2  0  0  0  0
 10 31  1  0  0  0  0
 10 14  1  0  0  0  0
 11  5  1  0  0  0  0
 12  6  1  0  0  0  0
 12  2  1  0  0  0  0
 13  9  1  0  0  0  0
 14  7  2  0  0  0  0
 16 17  1  1  0  0  0
 18 26  1  0  0  0  0
 19 22  1  0  0  0  0
 19 23  1  0  0  0  0
 22 25  1  6  0  0  0
 22 24  1  0  0  0  0
 23 16  1  6  0  0  0
 23 20  1  0  0  0  0
 24 21  1  1  0  0  0
 24 20  1  0  0  0  0
 25 18  1  0  0  0  0
 26 28  1  1  0  0  0
 26 21  1  0  0  0  0
 27 28  1  0  0  0  0
 28 30  1  0  0  0  0
 29 28  1  0  0  0  0
 31 33  1  0  0  0  0
 33 32  1  0  0  0  0
 35 34  1  0  0  0  0
 35 36  1  0  0  0  0
 36 47  1  6  0  0  0
 36 37  1  0  0  0  0
 37 38  2  0  0  0  0
 37 39  1  0  0  0  0
 40 39  1  6  0  0  0
 40 42  1  0  0  0  0
 42 43  2  0  0  0  0
 43 41  1  0  0  0  0
 44 43  1  0  0  0  0
 44 41  1  0  0  0  0
 45 40  1  0  0  0  0
 45 46  1  0  0  0  0
 48 52  1  6  0  0  0
 48 47  1  0  0  0  0
 49 48  1  0  0  0  0
 50 49  2  0  0  0  0
 51 49  1  0  0  0  0
 52 53  1  0  0  0  0
 53 54  1  1  0  0  0
 56 55  2  0  0  0  0
 56 53  1  0  0  0  0
M  END
>  <MODEL>
3

>  <REMARK>
 VINA RESULT:      -7.1      2.677      8.021
  Name = 
  19 active torsions:
  status: ('A' for Active; 'I' for Inactive)
    1  A    between atoms: C_4  and  C_28
    2  A    between atoms: C_4  and  C_46
    3  A    between atoms: C_6  and  C_15
    4  A    between atoms: C_6  and  C_39
    5  A    between atoms: C_10  and  C_23
    6  A    between atoms: C_10  and  C_28
    7  A    between atoms: C_11  and  C_50
    8  A    between atoms: N_13  and  C_40
    9  A    between atoms: C_14  and  C_36
   10  A    between atoms: C_14  and  C_46
   11  A    between atoms: C_16  and  C_36
   12  A    between atoms: C_17  and  C_53
   13  A    between atoms: C_19  and  C_30
   14  A    between atoms: C_19  and  C_56
   15  A    between atoms: C_23  and  C_40
   16  A    between atoms: N_24  and  C_40
   17  A    between atoms: C_28  and  C_56
   18  A    between atoms: N_32  and  C_50
   19  A    between atoms: C_37  and  C_46
                            x       y       z     vdW  Elec       q    Type
                         _______ _______ _______ _____ _____    ______ ____

>  <TORSDO>
F 19

$$$$
=
 OpenBabel10232408583D

 56 61  0  0  1  0  0  0  0  0999 V2000
  185.2930  177.9160  136.9310 C   0  0  0  0  0  2  0  0  0  0  0  0
  185.5120  176.6460  136.0980 C   0  0  1  0  0  3  0  0  0  0  0  0
  184.9330  178.5070  140.0510 C   0  0  0  0  0  3  0  0  0  0  0  0
  183.1550  178.6040  141.7360 C   0  0  0  0  0  0  0  0  0  0  0  0
  182.7870  177.4220  137.3870 C   0  0  0  0  0  0  0  0  0  0  0  0
  183.2850  177.3640  134.9300 C   0  0  0  0  0  2  0  0  0  0  0  0
  182.2090  178.1900  140.7820 C   0  0  0  0  0  3  0  0  0  0  0  0
  184.5200  178.7610  141.3760 C   0  0  0  0  0  0  0  0  0  0  0  0
  183.9660  178.1170  139.1270 C   0  0  0  0  0  0  0  0  0  0  0  0
  181.9290  177.5200  138.4310 N   0  0  0  0  0  0  0  0  0  0  0  0
  182.4070  176.8350  136.0560 C   0  0  0  0  0  2  0  0  0  0  0  0
  184.6110  176.6010  134.8400 C   0  0  0  0  0  2  0  0  0  0  0  0
  184.0730  177.7900  137.7900 C   0  0  0  0  0  0  0  0  0  0  0  0
  182.6530  177.9500  139.4820 C   0  0  0  0  0  0  0  0  0  0  0  0
  182.7210  178.8650  143.0710 N   0  0  0  0  0  1  0  0  0  0  0  0
  186.9900  176.5210  135.6850 C   0  0  1  0  0  3  0  0  0  0  0  0
  187.4510  177.7300  135.1470 O   0  0  0  0  0  1  0  0  0  0  0  0
  191.6700  173.3100  136.3770 C   0  0  0  0  0  2  0  0  0  0  0  0
  188.0880  174.5930  136.9320 C   0  0  0  0  0  2  0  0  0  0  0  0
  189.1880  176.7130  136.6810 O   0  0  0  0  0  0  0  0  0  0  0  0
  191.4900  175.8670  136.4390 C   0  0  0  0  0  2  0  0  0  0  0  0
  189.5690  174.4460  137.0020 C   0  0  2  0  0  3  0  0  0  0  0  0
  187.9120  176.1150  136.8490 C   0  0  1  0  0  3  0  0  0  0  0  0
  189.9990  175.6580  136.2500 C   0  0  1  0  0  3  0  0  0  0  0  0
  190.1370  173.2300  136.2970 C   0  0  0  0  0  2  0  0  0  0  0  0
  192.2100  174.6490  135.8160 C   0  0  1  0  0  3  0  0  0  0  0  0
  194.2720  175.6310  134.7780 C   0  0  0  0  0  1  0  0  0  0  0  0
  193.7450  174.7530  135.8970 C   0  0  0  0  0  0  0  0  0  0  0  0
  194.1580  175.3890  137.2130 C   0  0  0  0  0  1  0  0  0  0  0  0
  194.3940  173.3820  135.7910 C   0  0  0  0  0  1  0  0  0  0  0  0
  180.5180  177.1490  138.4400 C   0  0  0  0  0  2  0  0  0  0  0  0
  180.4780  174.7920  138.1180 O   0  0  0  0  0  1  0  0  0  0  0  0
  180.3440  175.7880  139.0870 C   0  0  0  0  0  2  0  0  0  0  0  0
  185.5340  179.0770  142.4320 C   0  0  0  0  0  2  0  0  0  0  0  0
  186.1510  177.8220  143.0330 C   0  0  0  0  0  2  0  0  0  0  0  0
  187.2360  178.1710  144.0460 C   0  0  1  0  0  3  0  0  0  0  0  0
  186.6750  178.2630  145.4470 C   0  0  0  0  0  0  0  0  0  0  0  0
  185.8560  179.1300  145.7040 O   0  0  0  0  0  0  0  0  0  0  0  0
  187.1540  177.3640  146.5500 C   0  0  0  0  0  2  0  0  0  0  0  0
  188.5930  177.6710  146.9340 C   0  0  2  0  0  3  0  0  0  0  0  0
  191.8330  175.5480  147.4860 C   0  0  0  0  0  2  0  0  0  0  0  0
  189.2670  176.4260  147.2070 N   0  0  0  0  0  0  0  0  0  0  0  0
  190.5450  176.3450  147.2850 C   0  0  0  0  0  0  0  0  0  0  0  0
  191.9480  176.9490  147.2430 C   0  0  0  0  0  2  0  0  0  0  0  0
  188.6170  178.5220  148.1170 N   0  0  0  0  0  2  0  0  0  0  0  0
  187.8270  177.8920  149.0900 N   0  0  0  0  0  1  0  0  0  0  0  0
  188.3440  177.1320  143.9400 C   0  0  0  0  0  2  0  0  0  0  0  0
  189.4190  177.5880  142.9690 C   0  0  1  0  0  3  0  0  0  0  0  0
  190.6790  177.9820  143.6820 C   0  0  0  0  0  0  0  0  0  0  0  0
  190.8440  179.2640  144.1850 O   0  0  0  0  0  1  0  0  0  0  0  0
  191.5990  177.1390  143.8420 O   0  0  0  0  0  0  0  0  0  0  0  0
  189.6950  176.4550  141.9930 C   0  0  0  0  0  2  0  0  0  0  0  0
  189.5060  176.9380  140.5660 C   0  0  1  0  0  3  0  0  0  0  0  0
  188.9900  178.2340  140.5730 O   0  0  0  0  0  1  0  0  0  0  0  0
  191.7370  177.6350  140.2660 O   0  0  0  0  0  0  0  0  0  0  0  0
  190.8200  176.9390  139.8580 C   0  0  0  0  0  3  0  0  0  0  0  0
  1 13  1  0  0  0  0
  2 16  1  6  0  0  0
  2  1  1  0  0  0  0
  3  8  1  0  0  0  0
  4 15  1  0  0  0  0
  5 13  2  0  0  0  0
  5 10  1  0  0  0  0
  6 11  1  0  0  0  0
  7  4  1  0  0  0  0
  8  4  2  0  0  0  0
  8 34  1  0  0  0  0
  9 14  1  0  0  0  0
  9  3  2  0  0  0  0
 10 31  1  0  0  0  0
 10 14  1  0  0  0  0
 11  5  1  0  0  0  0
 12  6  1  0  0  0  0
 12  2  1  0  0  0  0
 13  9  1  0  0  0  0
 14  7  2  0  0  0  0
 16 17  1  1  0  0  0
 19 22  1  0  0  0  0
 20 23  1  0  0  0  0
 22 25  1  6  0  0  0
 23 16  1  6  0  0  0
 23 19  1  0  0  0  0
 24 21  1  1  0  0  0
 24 20  1  0  0  0  0
 24 22  1  0  0  0  0
 25 18  1  0  0  0  0
 26 28  1  1  0  0  0
 26 18  1  0  0  0  0
 26 21  1  0  0  0  0
 27 28  1  0  0  0  0
 28 29  1  0  0  0  0
 30 28  1  0  0  0  0
 31 33  1  0  0  0  0
 32 33  1  0  0  0  0
 34 35  1  0  0  0  0
 36 35  1  6  0  0  0
 36 37  1  0  0  0  0
 37 38  2  0  0  0  0
 37 39  1  0  0  0  0
 40 39  1  1  0  0  0
 40 42  1  0  0  0  0
 40 45  1  0  0  0  0
 42 43  2  0  0  0  0
 43 41  1  0  0  0  0
 44 43  1  0  0  0  0
 44 41  1  0  0  0  0
 45 46  1  0  0  0  0
 47 36  1  0  0  0  0
 48 52  1  6  0  0  0
 48 49  1  0  0  0  0
 48 47  1  0  0  0  0
 49 51  2  0  0  0  0
 49 50  1  0  0  0  0
 53 54  1  1  0  0  0
 53 52  1  0  0  0  0
 56 55  2  0  0  0  0
 56 53  1  0  0  0  0
M  END
>  <MODEL>
4

>  <REMARK>
 VINA RESULT:      -7.1      2.658      8.309
  Name = 
  19 active torsions:
  status: ('A' for Active; 'I' for Inactive)
    1  A    between atoms: C_4  and  C_28
    2  A    between atoms: C_4  and  C_46
    3  A    between atoms: C_6  and  C_15
    4  A    between atoms: C_6  and  C_39
    5  A    between atoms: C_10  and  C_23
    6  A    between atoms: C_10  and  C_28
    7  A    between atoms: C_11  and  C_50
    8  A    between atoms: N_13  and  C_40
    9  A    between atoms: C_14  and  C_36
   10  A    between atoms: C_14  and  C_46
   11  A    between atoms: C_16  and  C_36
   12  A    between atoms: C_17  and  C_53
   13  A    between atoms: C_19  and  C_30
   14  A    between atoms: C_19  and  C_56
   15  A    between atoms: C_23  and  C_40
   16  A    between atoms: N_24  and  C_40
   17  A    between atoms: C_28  and  C_56
   18  A    between atoms: N_32  and  C_50
   19  A    between atoms: C_37  and  C_46
                            x       y       z     vdW  Elec       q    Type
                         _______ _______ _______ _____ _____    ______ ____

>  <TORSDO>
F 19

$$$$
=
 OpenBabel10232408583D

 56 61  0  0  1  0  0  0  0  0999 V2000
  187.1710  178.3490  137.4130 C   0  0  0  0  0  2  0  0  0  0  0  0
  187.9580  177.1730  136.8190 C   0  0  1  0  0  3  0  0  0  0  0  0
  185.3680  178.7400  140.0220 C   0  0  0  0  0  3  0  0  0  0  0  0
  183.0410  178.4520  140.7390 C   0  0  0  0  0  0  0  0  0  0  0  0
  184.8540  177.4000  136.7330 C   0  0  0  0  0  0  0  0  0  0  0  0
  186.3920  177.5300  134.7560 C   0  0  0  0  0  2  0  0  0  0  0  0
  182.7060  177.9150  139.4830 C   0  0  0  0  0  3  0  0  0  0  0  0
  184.3720  178.8630  141.0140 C   0  0  0  0  0  0  0  0  0  0  0  0
  184.9970  178.2220  138.7830 C   0  0  0  0  0  0  0  0  0  0  0  0
  183.6200  177.3020  137.2830 N   0  0  0  0  0  0  0  0  0  0  0  0
  185.2150  176.8090  135.3980 C   0  0  0  0  0  2  0  0  0  0  0  0
  187.7320  177.0190  135.2960 C   0  0  0  0  0  2  0  0  0  0  0  0
  185.7410  177.9730  137.6470 C   0  0  0  0  0  0  0  0  0  0  0  0
  183.7150  177.8110  138.5260 C   0  0  0  0  0  0  0  0  0  0  0  0
  182.0220  178.5780  141.7300 N   0  0  0  0  0  1  0  0  0  0  0  0
  189.4620  177.3290  137.1100 C   0  0  1  0  0  3  0  0  0  0  0  0
  189.7110  178.5460  137.7590 O   0  0  0  0  0  1  0  0  0  0  0  0
  193.0860  172.9700  136.3650 C   0  0  0  0  0  2  0  0  0  0  0  0
  189.8460  174.8200  137.2940 C   0  0  0  0  0  2  0  0  0  0  0  0
  191.4220  176.3980  138.1840 O   0  0  0  0  0  0  0  0  0  0  0  0
  193.4780  175.1380  137.6760 C   0  0  0  0  0  2  0  0  0  0  0  0
  191.2160  174.2380  137.3590 C   0  0  2  0  0  3  0  0  0  0  0  0
  190.0350  176.1850  137.9670 C   0  0  1  0  0  3  0  0  0  0  0  0
  192.0400  175.4790  137.3300 C   0  0  1  0  0  3  0  0  0  0  0  0
  191.6180  173.3800  136.1760 C   0  0  0  0  0  2  0  0  0  0  0  0
  194.0090  174.1970  136.5700 C   0  0  1  0  0  3  0  0  0  0  0  0
  195.8380  172.6190  135.8950 C   0  0  0  0  0  1  0  0  0  0  0  0
  195.4850  173.8060  136.7720 C   0  0  0  0  0  0  0  0  0  0  0  0
  196.3910  174.9570  136.3720 C   0  0  0  0  0  1  0  0  0  0  0  0
  195.7640  173.4440  138.2210 C   0  0  0  0  0  1  0  0  0  0  0  0
  182.4430  176.6850  136.6830 C   0  0  0  0  0  2  0  0  0  0  0  0
  181.7500  174.4330  136.3510 O   0  0  0  0  0  1  0  0  0  0  0  0
  182.1770  175.3380  137.3260 C   0  0  0  0  0  2  0  0  0  0  0  0
  184.7400  179.3120  142.3950 C   0  0  0  0  0  2  0  0  0  0  0  0
  186.2180  179.1050  142.6950 C   0  0  0  0  0  2  0  0  0  0  0  0
  186.5170  177.6460  143.0160 C   0  0  1  0  0  3  0  0  0  0  0  0
  188.0060  177.3790  143.0420 C   0  0  0  0  0  0  0  0  0  0  0  0
  188.7790  178.3140  142.9270 O   0  0  0  0  0  0  0  0  0  0  0  0
  188.5570  175.9850  143.1310 C   0  0  0  0  0  2  0  0  0  0  0  0
  190.0670  175.9700  142.9480 C   0  0  2  0  0  3  0  0  0  0  0  0
  192.0040  176.8240  146.2380 C   0  0  0  0  0  2  0  0  0  0  0  0
  190.6480  176.9090  143.8750 N   0  0  0  0  0  0  0  0  0  0  0  0
  191.2530  176.5300  144.9410 C   0  0  0  0  0  0  0  0  0  0  0  0
  191.7720  175.4580  145.8980 C   0  0  0  0  0  2  0  0  0  0  0  0
  190.4000  176.3480  141.5800 N   0  0  0  0  0  2  0  0  0  0  0  0
  191.4730  177.2490  141.6540 N   0  0  0  0  0  1  0  0  0  0  0  0
  185.8500  177.2990  144.3400 C   0  0  0  0  0  2  0  0  0  0  0  0
  186.4620  178.1000  145.4780 C   0  0  1  0  0  3  0  0  0  0  0  0
  185.4480  178.9850  146.1400 C   0  0  0  0  0  0  0  0  0  0  0  0
  184.1260  178.9940  145.7230 O   0  0  0  0  0  0  0  0  0  0  0  0
  185.7920  179.7250  147.0970 O   0  0  0  0  0  1  0  0  0  0  0  0
  187.0530  177.1260  146.4850 C   0  0  0  0  0  2  0  0  0  0  0  0
  188.4580  177.5590  146.8660 C   0  0  1  0  0  3  0  0  0  0  0  0
  188.8490  178.6380  146.0720 O   0  0  0  0  0  1  0  0  0  0  0  0
  189.5350  178.3060  148.8240 O   0  0  0  0  0  0  0  0  0  0  0  0
  188.4840  177.9730  148.2990 C   0  0  0  0  0  3  0  0  0  0  0  0
  1 13  1  0  0  0  0
  2 16  1  6  0  0  0
  2  1  1  0  0  0  0
  3  8  1  0  0  0  0
  4  8  2  0  0  0  0
  4 15  1  0  0  0  0
  5 10  1  0  0  0  0
  5 13  2  0  0  0  0
  6 12  1  0  0  0  0
  6 11  1  0  0  0  0
  7  4  1  0  0  0  0
  8 34  1  0  0  0  0
  9  3  2  0  0  0  0
 10 14  1  0  0  0  0
 11  5  1  0  0  0  0
 12  2  1  0  0  0  0
 13  9  1  0  0  0  0
 14  9  1  0  0  0  0
 14  7  2  0  0  0  0
 16 17  1  1  0  0  0
 18 26  1  0  0  0  0
 19 22  1  0  0  0  0
 19 23  1  0  0  0  0
 22 25  1  6  0  0  0
 23 16  1  6  0  0  0
 23 20  1  0  0  0  0
 24 22  1  0  0  0  0
 24 21  1  1  0  0  0
 24 20  1  0  0  0  0
 25 18  1  0  0  0  0
 26 28  1  1  0  0  0
 26 21  1  0  0  0  0
 27 28  1  0  0  0  0
 28 30  1  0  0  0  0
 29 28  1  0  0  0  0
 31 10  1  0  0  0  0
 31 33  1  0  0  0  0
 32 33  1  0  0  0  0
 34 35  1  0  0  0  0
 36 35  1  1  0  0  0
 36 37  1  0  0  0  0
 36 47  1  0  0  0  0
 37 39  1  0  0  0  0
 38 37  2  0  0  0  0
 40 39  1  6  0  0  0
 40 42  1  0  0  0  0
 42 43  2  0  0  0  0
 43 44  1  0  0  0  0
 43 41  1  0  0  0  0
 44 41  1  0  0  0  0
 45 46  1  0  0  0  0
 45 40  1  0  0  0  0
 48 47  1  6  0  0  0
 48 49  1  0  0  0  0
 48 52  1  0  0  0  0
 49 51  1  0  0  0  0
 50 49  2  0  0  0  0
 52 53  1  0  0  0  0
 53 54  1  6  0  0  0
 53 56  1  0  0  0  0
 56 55  2  0  0  0  0
M  END
>  <MODEL>
5

>  <REMARK>
 VINA RESULT:      -7.0      2.704      8.345
  Name = 
  19 active torsions:
  status: ('A' for Active; 'I' for Inactive)
    1  A    between atoms: C_4  and  C_28
    2  A    between atoms: C_4  and  C_46
    3  A    between atoms: C_6  and  C_15
    4  A    between atoms: C_6  and  C_39
    5  A    between atoms: C_10  and  C_23
    6  A    between atoms: C_10  and  C_28
    7  A    between atoms: C_11  and  C_50
    8  A    between atoms: N_13  and  C_40
    9  A    between atoms: C_14  and  C_36
   10  A    between atoms: C_14  and  C_46
   11  A    between atoms: C_16  and  C_36
   12  A    between atoms: C_17  and  C_53
   13  A    between atoms: C_19  and  C_30
   14  A    between atoms: C_19  and  C_56
   15  A    between atoms: C_23  and  C_40
   16  A    between atoms: N_24  and  C_40
   17  A    between atoms: C_28  and  C_56
   18  A    between atoms: N_32  and  C_50
   19  A    between atoms: C_37  and  C_46
                            x       y       z     vdW  Elec       q    Type
                         _______ _______ _______ _____ _____    ______ ____

>  <TORSDO>
F 19

$$$$
=
 OpenBabel10232408583D

 56 61  0  0  1  0  0  0  0  0999 V2000
  189.1500  177.6890  137.4540 C   0  0  0  0  0  2  0  0  0  0  0  0
  189.7470  176.3920  136.8930 C   0  0  1  0  0  3  0  0  0  0  0  0
  186.9440  178.3590  139.6670 C   0  0  0  0  0  3  0  0  0  0  0  0
  184.5160  178.6370  139.8530 C   0  0  0  0  0  0  0  0  0  0  0  0
  186.8920  177.4220  136.2040 C   0  0  0  0  0  0  0  0  0  0  0  0
  188.8270  177.2810  134.6140 C   0  0  0  0  0  2  0  0  0  0  0  0
  184.3580  178.2910  138.4990 C   0  0  0  0  0  3  0  0  0  0  0  0
  185.8070  178.6690  140.4430 C   0  0  0  0  0  0  0  0  0  0  0  0
  186.7540  178.0390  138.3250 C   0  0  0  0  0  0  0  0  0  0  0  0
  185.5780  177.6110  136.4740 N   0  0  0  0  0  0  0  0  0  0  0  0
  187.3970  176.8490  134.9080 C   0  0  0  0  0  2  0  0  0  0  0  0
  189.8460  176.4050  135.3490 C   0  0  0  0  0  2  0  0  0  0  0  0
  187.6570  177.6830  137.3430 C   0  0  0  0  0  0  0  0  0  0  0  0
  185.5050  177.9930  137.7630 C   0  0  0  0  0  0  0  0  0  0  0  0
  183.3570  178.9560  140.6230 N   0  0  0  0  0  1  0  0  0  0  0  0
  191.1380  176.1320  137.5020 C   0  0  1  0  0  3  0  0  0  0  0  0
  191.0660  175.1250  138.4740 O   0  0  0  0  0  1  0  0  0  0  0  0
  196.0910  173.2760  137.4450 C   0  0  0  0  0  2  0  0  0  0  0  0
  193.6050  176.1550  136.8780 C   0  0  0  0  0  2  0  0  0  0  0  0
  192.1740  174.3250  136.2670 O   0  0  0  0  0  0  0  0  0  0  0  0
  193.8210  172.5110  136.5320 C   0  0  0  0  0  2  0  0  0  0  0  0
  194.3820  174.8950  136.7020 C   0  0  2  0  0  3  0  0  0  0  0  0
  192.1930  175.7330  136.4540 C   0  0  1  0  0  3  0  0  0  0  0  0
  193.3160  173.8820  136.9430 C   0  0  1  0  0  3  0  0  0  0  0  0
  195.4870  174.6640  137.7140 C   0  0  0  0  0  2  0  0  0  0  0  0
  195.0140  172.1630  137.4520 C   0  0  1  0  0  3  0  0  0  0  0  0
  195.2210  170.3050  135.7790 C   0  0  0  0  0  1  0  0  0  0  0  0
  195.5990  170.7660  137.1740 C   0  0  0  0  0  0  0  0  0  0  0  0
  197.1160  170.8110  137.2470 C   0  0  0  0  0  1  0  0  0  0  0  0
  195.0910  169.7480  138.1810 C   0  0  0  0  0  1  0  0  0  0  0  0
  184.4570  177.3630  135.5740 C   0  0  0  0  0  2  0  0  0  0  0  0
  182.3330  176.3280  135.8580 O   0  0  0  0  0  1  0  0  0  0  0  0
  183.7060  176.1200  136.0110 C   0  0  0  0  0  2  0  0  0  0  0  0
  185.9450  178.9120  141.9140 C   0  0  0  0  0  2  0  0  0  0  0  0
  185.4870  177.7190  142.7420 C   0  0  0  0  0  2  0  0  0  0  0  0
  186.4730  177.4150  143.8640 C   0  0  1  0  0  3  0  0  0  0  0  0
  187.6650  176.6340  143.3560 C   0  0  0  0  0  0  0  0  0  0  0  0
  187.6160  175.4160  143.3460 O   0  0  0  0  0  0  0  0  0  0  0  0
  188.9340  177.3150  142.9340 C   0  0  0  0  0  2  0  0  0  0  0  0
  190.0910  176.3310  142.8430 C   0  0  2  0  0  3  0  0  0  0  0  0
  192.0690  179.2870  144.4720 C   0  0  0  0  0  2  0  0  0  0  0  0
  191.1960  176.8540  143.6080 N   0  0  0  0  0  0  0  0  0  0  0  0
  191.3200  178.1060  143.8580 C   0  0  0  0  0  0  0  0  0  0  0  0
  190.8560  179.5590  143.7740 C   0  0  0  0  0  2  0  0  0  0  0  0
  190.4840  176.1620  141.4500 N   0  0  0  0  0  2  0  0  0  0  0  0
  190.1220  177.3370  140.7760 N   0  0  0  0  0  1  0  0  0  0  0  0
  186.8850  178.7310  144.5100 C   0  0  0  0  0  2  0  0  0  0  0  0
  186.5030  178.7520  145.9800 C   0  0  1  0  0  3  0  0  0  0  0  0
  185.0150  178.7950  146.1650 C   0  0  0  0  0  0  0  0  0  0  0  0
  184.2100  179.5360  145.3140 O   0  0  0  0  0  0  0  0  0  0  0  0
  184.4800  178.1410  147.0970 O   0  0  0  0  0  1  0  0  0  0  0  0
  187.0840  177.5150  146.6450 C   0  0  0  0  0  2  0  0  0  0  0  0
  188.3470  177.8770  147.4080 C   0  0  1  0  0  3  0  0  0  0  0  0
  188.1010  177.8160  148.7790 O   0  0  0  0  0  1  0  0  0  0  0  0
  190.6040  177.2380  147.1890 O   0  0  0  0  0  0  0  0  0  0  0  0
  189.4340  176.9140  147.0630 C   0  0  0  0  0  3  0  0  0  0  0  0
  2  1  1  0  0  0  0
  2 16  1  1  0  0  0
  3  8  1  0  0  0  0
  4  8  2  0  0  0  0
  4 15  1  0  0  0  0
  5 10  1  0  0  0  0
  5 13  2  0  0  0  0
  6 11  1  0  0  0  0
  6 12  1  0  0  0  0
  7  4  1  0  0  0  0
  8 34  1  0  0  0  0
  9  3  2  0  0  0  0
 10 14  1  0  0  0  0
 11  5  1  0  0  0  0
 12  2  1  0  0  0  0
 13  1  1  0  0  0  0
 13  9  1  0  0  0  0
 14  9  1  0  0  0  0
 14  7  2  0  0  0  0
 16 17  1  1  0  0  0
 18 26  1  0  0  0  0
 18 25  1  0  0  0  0
 20 23  1  0  0  0  0
 20 24  1  0  0  0  0
 21 26  1  0  0  0  0
 22 19  1  1  0  0  0
 22 24  1  0  0  0  0
 22 25  1  0  0  0  0
 23 19  1  0  0  0  0
 23 16  1  1  0  0  0
 24 21  1  6  0  0  0
 26 28  1  6  0  0  0
 27 28  1  0  0  0  0
 28 29  1  0  0  0  0
 28 30  1  0  0  0  0
 31 33  1  0  0  0  0
 31 10  1  0  0  0  0
 32 33  1  0  0  0  0
 34 35  1  0  0  0  0
 36 35  1  6  0  0  0
 36 47  1  0  0  0  0
 37 36  1  0  0  0  0
 38 37  2  0  0  0  0
 39 37  1  0  0  0  0
 40 39  1  6  0  0  0
 40 42  1  0  0  0  0
 42 43  2  0  0  0  0
 43 41  1  0  0  0  0
 44 43  1  0  0  0  0
 44 41  1  0  0  0  0
 45 40  1  0  0  0  0
 46 45  1  0  0  0  0
 48 47  1  6  0  0  0
 48 49  1  0  0  0  0
 48 52  1  0  0  0  0
 49 51  1  0  0  0  0
 50 49  2  0  0  0  0
 52 53  1  0  0  0  0
 53 54  1  1  0  0  0
 56 55  2  0  0  0  0
 56 53  1  0  0  0  0
M  END
>  <MODEL>
6

>  <REMARK>
 VINA RESULT:      -6.8      2.943      8.261
  Name = 
  19 active torsions:
  status: ('A' for Active; 'I' for Inactive)
    1  A    between atoms: C_4  and  C_28
    2  A    between atoms: C_4  and  C_46
    3  A    between atoms: C_6  and  C_15
    4  A    between atoms: C_6  and  C_39
    5  A    between atoms: C_10  and  C_23
    6  A    between atoms: C_10  and  C_28
    7  A    between atoms: C_11  and  C_50
    8  A    between atoms: N_13  and  C_40
    9  A    between atoms: C_14  and  C_36
   10  A    between atoms: C_14  and  C_46
   11  A    between atoms: C_16  and  C_36
   12  A    between atoms: C_17  and  C_53
   13  A    between atoms: C_19  and  C_30
   14  A    between atoms: C_19  and  C_56
   15  A    between atoms: C_23  and  C_40
   16  A    between atoms: N_24  and  C_40
   17  A    between atoms: C_28  and  C_56
   18  A    between atoms: N_32  and  C_50
   19  A    between atoms: C_37  and  C_46
                            x       y       z     vdW  Elec       q    Type
                         _______ _______ _______ _____ _____    ______ ____

>  <TORSDO>
F 19

$$$$
=
 OpenBabel10232408583D

 56 61  0  0  1  0  0  0  0  0999 V2000
  186.0740  177.9910  137.7000 C   0  0  0  0  0  2  0  0  0  0  0  0
  186.6290  176.7810  136.9360 C   0  0  1  0  0  3  0  0  0  0  0  0
  184.4990  178.3630  140.4550 C   0  0  0  0  0  3  0  0  0  0  0  0
  182.1980  178.3580  141.3010 C   0  0  0  0  0  0  0  0  0  0  0  0
  183.6020  177.4900  137.0920 C   0  0  0  0  0  0  0  0  0  0  0  0
  185.0330  177.6000  135.0350 C   0  0  0  0  0  2  0  0  0  0  0  0
  181.7140  178.0210  140.0240 C   0  0  0  0  0  3  0  0  0  0  0  0
  183.5900  178.5270  141.5220 C   0  0  0  0  0  0  0  0  0  0  0  0
  183.9840  178.0480  139.1990 C   0  0  0  0  0  0  0  0  0  0  0  0
  182.3990  177.5220  137.7140 N   0  0  0  0  0  0  0  0  0  0  0  0
  183.7910  177.0020  135.6820 C   0  0  0  0  0  2  0  0  0  0  0  0
  186.3010  176.8330  135.4250 C   0  0  0  0  0  2  0  0  0  0  0  0
  184.6170  177.8160  137.9950 C   0  0  0  0  0  0  0  0  0  0  0  0
  182.6410  177.8700  138.9930 C   0  0  0  0  0  0  0  0  0  0  0  0
  181.2660  178.5290  142.3690 N   0  0  0  0  0  1  0  0  0  0  0  0
  188.1520  176.6710  137.1350 C   0  0  1  0  0  3  0  0  0  0  0  0
  188.5970  177.6370  138.0470 O   0  0  0  0  0  1  0  0  0  0  0  0
  191.7830  172.6040  135.4150 C   0  0  0  0  0  2  0  0  0  0  0  0
  188.4770  174.2210  136.5280 C   0  0  0  0  0  2  0  0  0  0  0  0
  189.9520  175.3400  138.0580 O   0  0  0  0  0  0  0  0  0  0  0  0
  192.0390  174.2060  137.3990 C   0  0  0  0  0  2  0  0  0  0  0  0
  189.8220  173.5780  136.5530 C   0  0  2  0  0  3  0  0  0  0  0  0
  188.6000  175.2830  137.6280 C   0  0  1  0  0  3  0  0  0  0  0  0
  190.6590  174.7160  137.0250 C   0  0  1  0  0  3  0  0  0  0  0  0
  190.3550  173.1290  135.2060 C   0  0  0  0  0  2  0  0  0  0  0  0
  192.6900  173.6470  136.1130 C   0  0  1  0  0  3  0  0  0  0  0  0
  195.0490  173.6660  135.2630 C   0  0  0  0  0  1  0  0  0  0  0  0
  194.1240  173.1340  136.3400 C   0  0  0  0  0  0  0  0  0  0  0  0
  194.6490  173.6240  137.6790 C   0  0  0  0  0  1  0  0  0  0  0  0
  194.1730  171.6150  136.3210 C   0  0  0  0  0  1  0  0  0  0  0  0
  181.1080  177.1650  137.1390 C   0  0  0  0  0  2  0  0  0  0  0  0
  181.1130  179.3490  136.1960 O   0  0  0  0  0  1  0  0  0  0  0  0
  180.3030  178.4180  136.8490 C   0  0  0  0  0  2  0  0  0  0  0  0
  184.0980  178.7570  142.9120 C   0  0  0  0  0  2  0  0  0  0  0  0
  185.6000  179.0080  142.9440 C   0  0  0  0  0  2  0  0  0  0  0  0
  186.3760  177.7000  143.0320 C   0  0  1  0  0  3  0  0  0  0  0  0
  187.7140  177.8020  142.3340 C   0  0  0  0  0  0  0  0  0  0  0  0
  187.8900  178.6870  141.5140 O   0  0  0  0  0  0  0  0  0  0  0  0
  188.8060  176.7990  142.5690 C   0  0  0  0  0  2  0  0  0  0  0  0
  190.1740  177.3800  142.2490 C   0  0  2  0  0  3  0  0  0  0  0  0
  192.5460  177.2510  139.1410 C   0  0  0  0  0  2  0  0  0  0  0  0
  190.4100  177.2430  140.8340 N   0  0  0  0  0  0  0  0  0  0  0  0
  191.5890  177.2860  140.3310 C   0  0  0  0  0  0  0  0  0  0  0  0
  193.1070  177.4210  140.4410 C   0  0  0  0  0  2  0  0  0  0  0  0
  191.2000  176.6640  142.9980 N   0  0  0  0  0  2  0  0  0  0  0  0
  190.6720  175.4030  143.3110 N   0  0  0  0  0  1  0  0  0  0  0  0
  186.5230  177.3270  144.5000 C   0  0  0  0  0  2  0  0  0  0  0  0
  186.7030  178.5680  145.3570 C   0  0  1  0  0  3  0  0  0  0  0  0
  185.6320  178.6820  146.4010 C   0  0  0  0  0  0  0  0  0  0  0  0
  184.6790  177.6870  146.5580 O   0  0  0  0  0  0  0  0  0  0  0  0
  185.5990  179.6850  147.1580 O   0  0  0  0  0  1  0  0  0  0  0  0
  188.0750  178.5050  146.0090 C   0  0  0  0  0  2  0  0  0  0  0  0
  188.2980  177.1340  146.6240 C   0  0  1  0  0  3  0  0  0  0  0  0
  189.4090  176.5310  146.0340 O   0  0  0  0  0  1  0  0  0  0  0  0
  187.9140  178.1000  148.7380 O   0  0  0  0  0  0  0  0  0  0  0  0
  188.5390  177.2750  148.0890 C   0  0  0  0  0  3  0  0  0  0  0  0
  1 13  1  0  0  0  0
  2 16  1  6  0  0  0
  2  1  1  0  0  0  0
  3  8  1  0  0  0  0
  4  8  2  0  0  0  0
  4 15  1  0  0  0  0
  5 10  1  0  0  0  0
  5 13  2  0  0  0  0
  6 12  1  0  0  0  0
  6 11  1  0  0  0  0
  7  4  1  0  0  0  0
  8 34  1  0  0  0  0
  9  3  2  0  0  0  0
 10 14  1  0  0  0  0
 11  5  1  0  0  0  0
 12  2  1  0  0  0  0
 13  9  1  0  0  0  0
 14  9  1  0  0  0  0
 14  7  2  0  0  0  0
 16 17  1  1  0  0  0
 18 26  1  0  0  0  0
 19 22  1  0  0  0  0
 19 23  1  0  0  0  0
 22 25  1  6  0  0  0
 22 24  1  0  0  0  0
 23 16  1  6  0  0  0
 23 20  1  0  0  0  0
 24 21  1  1  0  0  0
 24 20  1  0  0  0  0
 25 18  1  0  0  0  0
 26 28  1  1  0  0  0
 26 21  1  0  0  0  0
 27 28  1  0  0  0  0
 28 29  1  0  0  0  0
 30 28  1  0  0  0  0
 31 10  1  0  0  0  0
 32 33  1  0  0  0  0
 33 31  1  0  0  0  0
 34 35  1  0  0  0  0
 36 35  1  1  0  0  0
 36 47  1  0  0  0  0
 37 39  1  0  0  0  0
 37 36  1  0  0  0  0
 38 37  2  0  0  0  0
 40 39  1  6  0  0  0
 40 45  1  0  0  0  0
 41 43  1  0  0  0  0
 41 44  1  0  0  0  0
 42 40  1  0  0  0  0
 43 44  1  0  0  0  0
 43 42  2  0  0  0  0
 45 46  1  0  0  0  0
 48 47  1  1  0  0  0
 48 52  1  0  0  0  0
 48 49  1  0  0  0  0
 49 50  2  0  0  0  0
 49 51  1  0  0  0  0
 52 53  1  0  0  0  0
 53 54  1  6  0  0  0
 53 56  1  0  0  0  0
 56 55  2  0  0  0  0
M  END
>  <MODEL>
7

>  <REMARK>
 VINA RESULT:      -6.7      2.609      8.190
  Name = 
  19 active torsions:
  status: ('A' for Active; 'I' for Inactive)
    1  A    between atoms: C_4  and  C_28
    2  A    between atoms: C_4  and  C_46
    3  A    between atoms: C_6  and  C_15
    4  A    between atoms: C_6  and  C_39
    5  A    between atoms: C_10  and  C_23
    6  A    between atoms: C_10  and  C_28
    7  A    between atoms: C_11  and  C_50
    8  A    between atoms: N_13  and  C_40
    9  A    between atoms: C_14  and  C_36
   10  A    between atoms: C_14  and  C_46
   11  A    between atoms: C_16  and  C_36
   12  A    between atoms: C_17  and  C_53
   13  A    between atoms: C_19  and  C_30
   14  A    between atoms: C_19  and  C_56
   15  A    between atoms: C_23  and  C_40
   16  A    between atoms: N_24  and  C_40
   17  A    between atoms: C_28  and  C_56
   18  A    between atoms: N_32  and  C_50
   19  A    between atoms: C_37  and  C_46
                            x       y       z     vdW  Elec       q    Type
                         _______ _______ _______ _____ _____    ______ ____

>  <TORSDO>
F 19

$$$$
=
 OpenBabel10232408583D

 56 61  0  0  1  0  0  0  0  0999 V2000
  188.8450  174.5650  136.7440 C   0  0  0  0  0  2  0  0  0  0  0  0
  188.6350  174.8140  135.2450 C   0  0  1  0  0  3  0  0  0  0  0  0
  189.5770  176.4250  139.2370 C   0  0  0  0  0  3  0  0  0  0  0  0
  191.5540  177.3090  140.3860 C   0  0  0  0  0  0  0  0  0  0  0  0
  191.4260  174.8030  136.6240 C   0  0  0  0  0  0  0  0  0  0  0  0
  190.5980  173.1090  134.9720 C   0  0  0  0  0  2  0  0  0  0  0  0
  192.3940  176.7140  139.4270 C   0  0  0  0  0  3  0  0  0  0  0  0
  190.1450  177.1700  140.2930 C   0  0  0  0  0  0  0  0  0  0  0  0
  190.4380  175.8340  138.3160 C   0  0  0  0  0  0  0  0  0  0  0  0
  192.4080  175.3660  137.3690 N   0  0  0  0  0  0  0  0  0  0  0  0
  191.6710  174.1380  135.2990 C   0  0  0  0  0  2  0  0  0  0  0  0
  189.3520  173.7620  134.3640 C   0  0  0  0  0  2  0  0  0  0  0  0
  190.1790  175.0770  137.1920 C   0  0  0  0  0  0  0  0  0  0  0  0
  191.7980  175.9840  138.3990 C   0  0  0  0  0  0  0  0  0  0  0  0
  192.1430  178.0520  141.4540 N   0  0  0  0  0  1  0  0  0  0  0  0
  187.1330  174.8390  134.9080 C   0  0  1  0  0  3  0  0  0  0  0  0
  186.4070  174.1030  135.8540 O   0  0  0  0  0  1  0  0  0  0  0  0
  182.6370  177.6220  137.0820 C   0  0  0  0  0  2  0  0  0  0  0  0
  185.0710  176.2550  134.4380 C   0  0  0  0  0  2  0  0  0  0  0  0
  186.6790  176.8950  136.1030 O   0  0  0  0  0  0  0  0  0  0  0  0
  185.1040  177.8670  137.7300 C   0  0  0  0  0  2  0  0  0  0  0  0
  184.4510  177.1110  135.4880 C   0  0  2  0  0  3  0  0  0  0  0  0
  186.5520  176.2630  134.8380 C   0  0  1  0  0  3  0  0  0  0  0  0
  185.3820  176.8650  136.6250 C   0  0  1  0  0  3  0  0  0  0  0  0
  183.0580  176.7030  135.9240 C   0  0  0  0  0  2  0  0  0  0  0  0
  183.6670  177.6090  138.2380 C   0  0  1  0  0  3  0  0  0  0  0  0
  181.8660  178.2000  139.8810 C   0  0  0  0  0  1  0  0  0  0  0  0
  183.2670  178.5330  139.4030 C   0  0  0  0  0  0  0  0  0  0  0  0
  184.2110  178.3350  140.5760 C   0  0  0  0  0  1  0  0  0  0  0  0
  183.3060  179.9940  138.9840 C   0  0  0  0  0  1  0  0  0  0  0  0
  193.8350  175.3780  137.0680 C   0  0  0  0  0  2  0  0  0  0  0  0
  195.1780  174.5540  138.8510 O   0  0  0  0  0  1  0  0  0  0  0  0
  194.5070  174.1680  137.6890 C   0  0  0  0  0  2  0  0  0  0  0  0
  189.2610  177.9150  141.2470 C   0  0  0  0  0  2  0  0  0  0  0  0
  188.5030  176.9810  142.1810 C   0  0  0  0  0  2  0  0  0  0  0  0
  188.1560  177.6760  143.4920 C   0  0  1  0  0  3  0  0  0  0  0  0
  186.6590  177.7920  143.6770 C   0  0  0  0  0  0  0  0  0  0  0  0
  185.9780  176.7800  143.6550 O   0  0  0  0  0  0  0  0  0  0  0  0
  185.9810  179.1230  143.8140 C   0  0  0  0  0  2  0  0  0  0  0  0
  184.6690  179.0050  144.5750 C   0  0  2  0  0  3  0  0  0  0  0  0
  181.0050  179.5490  143.3160 C   0  0  0  0  0  2  0  0  0  0  0  0
  183.6640  179.7650  143.8730 N   0  0  0  0  0  0  0  0  0  0  0  0
  182.4440  179.3770  143.7970 C   0  0  0  0  0  0  0  0  0  0  0  0
  181.3100  178.3980  144.1000 C   0  0  0  0  0  2  0  0  0  0  0  0
  184.8350  179.5260  145.9270 N   0  0  0  0  0  2  0  0  0  0  0  0
  184.9230  178.4190  146.7840 N   0  0  0  0  0  1  0  0  0  0  0  0
  188.8150  176.9100  144.6300 C   0  0  0  0  0  2  0  0  0  0  0  0
  189.4090  177.8660  145.6510 C   0  0  1  0  0  3  0  0  0  0  0  0
  188.8150  177.6610  147.0130 C   0  0  0  0  0  0  0  0  0  0  0  0
  188.5520  176.3870  147.4940 O   0  0  0  0  0  0  0  0  0  0  0  0
  188.5610  178.6540  147.7420 O   0  0  0  0  0  1  0  0  0  0  0  0
  190.9140  177.6500  145.6910 C   0  0  0  0  0  2  0  0  0  0  0  0
  191.2270  176.1640  145.7090 C   0  0  1  0  0  3  0  0  0  0  0  0
  191.9800  175.8290  144.5830 O   0  0  0  0  0  1  0  0  0  0  0  0
  192.2950  176.7070  147.7380 O   0  0  0  0  0  0  0  0  0  0  0  0
  192.0090  175.8320  146.9360 C   0  0  0  0  0  3  0  0  0  0  0  0
  1 13  1  0  0  0  0
  2 16  1  1  0  0  0
  2  1  1  0  0  0  0
  3  8  1  0  0  0  0
  4 15  1  0  0  0  0
  5 13  2  0  0  0  0
  5 10  1  0  0  0  0
  6 11  1  0  0  0  0
  7  4  1  0  0  0  0
  8  4  2  0  0  0  0
  8 34  1  0  0  0  0
  9 14  1  0  0  0  0
  9  3  2  0  0  0  0
 10 14  1  0  0  0  0
 11  5  1  0  0  0  0
 12  6  1  0  0  0  0
 12  2  1  0  0  0  0
 13  9  1  0  0  0  0
 14  7  2  0  0  0  0
 16 17  1  1  0  0  0
 18 26  1  0  0  0  0
 19 23  1  0  0  0  0
 20 24  1  0  0  0  0
 21 26  1  0  0  0  0
 22 19  1  6  0  0  0
 22 25  1  0  0  0  0
 22 24  1  0  0  0  0
 23 16  1  1  0  0  0
 23 20  1  0  0  0  0
 24 21  1  1  0  0  0
 25 18  1  0  0  0  0
 26 28  1  1  0  0  0
 28 27  1  0  0  0  0
 28 29  1  0  0  0  0
 30 28  1  0  0  0  0
 31 10  1  0  0  0  0
 31 33  1  0  0  0  0
 33 32  1  0  0  0  0
 34 35  1  0  0  0  0
 36 35  1  6  0  0  0
 36 37  1  0  0  0  0
 36 47  1  0  0  0  0
 37 39  1  0  0  0  0
 38 37  2  0  0  0  0
 40 39  1  6  0  0  0
 40 45  1  0  0  0  0
 41 43  1  0  0  0  0
 41 44  1  0  0  0  0
 42 40  1  0  0  0  0
 43 42  2  0  0  0  0
 43 44  1  0  0  0  0
 45 46  1  0  0  0  0
 48 47  1  6  0  0  0
 48 52  1  0  0  0  0
 48 49  1  0  0  0  0
 49 50  2  0  0  0  0
 49 51  1  0  0  0  0
 52 53  1  0  0  0  0
 53 54  1  6  0  0  0
 53 56  1  0  0  0  0
 56 55  2  0  0  0  0
M  END
>  <MODEL>
8

>  <REMARK>
 VINA RESULT:      -6.7      2.824      9.129
  Name = 
  19 active torsions:
  status: ('A' for Active; 'I' for Inactive)
    1  A    between atoms: C_4  and  C_28
    2  A    between atoms: C_4  and  C_46
    3  A    between atoms: C_6  and  C_15
    4  A    between atoms: C_6  and  C_39
    5  A    between atoms: C_10  and  C_23
    6  A    between atoms: C_10  and  C_28
    7  A    between atoms: C_11  and  C_50
    8  A    between atoms: N_13  and  C_40
    9  A    between atoms: C_14  and  C_36
   10  A    between atoms: C_14  and  C_46
   11  A    between atoms: C_16  and  C_36
   12  A    between atoms: C_17  and  C_53
   13  A    between atoms: C_19  and  C_30
   14  A    between atoms: C_19  and  C_56
   15  A    between atoms: C_23  and  C_40
   16  A    between atoms: N_24  and  C_40
   17  A    between atoms: C_28  and  C_56
   18  A    between atoms: N_32  and  C_50
   19  A    between atoms: C_37  and  C_46
                            x       y       z     vdW  Elec       q    Type
                         _______ _______ _______ _____ _____    ______ ____

>  <TORSDO>
F 19

$$$$
=
 OpenBabel10232408583D

 56 61  0  0  1  0  0  0  0  0999 V2000
  186.4260  177.6010  136.6460 C   0  0  0  0  0  2  0  0  0  0  0  0
  186.5430  176.3050  135.8320 C   0  0  1  0  0  3  0  0  0  0  0  0
  185.8650  178.2650  139.7200 C   0  0  0  0  0  3  0  0  0  0  0  0
  183.9690  178.6240  141.2330 C   0  0  0  0  0  0  0  0  0  0  0  0
  183.8440  177.4640  136.8650 C   0  0  0  0  0  0  0  0  0  0  0  0
  184.5560  177.3140  134.4650 C   0  0  0  0  0  2  0  0  0  0  0  0
  183.0670  178.3360  140.1930 C   0  0  0  0  0  3  0  0  0  0  0  0
  185.3700  178.5870  141.0020 C   0  0  0  0  0  0  0  0  0  0  0  0
  184.9430  178.0050  138.7090 C   0  0  0  0  0  0  0  0  0  0  0  0
  182.9150  177.6900  137.8240 N   0  0  0  0  0  0  0  0  0  0  0  0
  183.5120  176.9230  135.5020 C   0  0  0  0  0  2  0  0  0  0  0  0
  185.7650  176.3740  134.4960 C   0  0  0  0  0  2  0  0  0  0  0  0
  185.1260  177.6540  137.3870 C   0  0  0  0  0  0  0  0  0  0  0  0
  183.5920  178.0250  138.9400 C   0  0  0  0  0  0  0  0  0  0  0  0
  183.4540  178.9560  142.5230 N   0  0  0  0  0  1  0  0  0  0  0  0
  188.0210  175.9720  135.5580 C   0  0  1  0  0  3  0  0  0  0  0  0
  188.8160  177.1160  135.7090 O   0  0  0  0  0  1  0  0  0  0  0  0
  192.6090  172.5640  135.6870 C   0  0  0  0  0  2  0  0  0  0  0  0
  188.9030  173.5890  135.6880 C   0  0  0  0  0  2  0  0  0  0  0  0
  189.7500  175.3190  137.1220 O   0  0  0  0  0  0  0  0  0  0  0  0
  192.0980  174.5730  137.1940 C   0  0  0  0  0  2  0  0  0  0  0  0
  190.2930  173.2900  136.1350 C   0  0  2  0  0  3  0  0  0  0  0  0
  188.5720  174.8630  136.4730 C   0  0  1  0  0  3  0  0  0  0  0  0
  190.7810  174.6630  136.4430 C   0  0  1  0  0  3  0  0  0  0  0  0
  191.2040  172.6920  135.0810 C   0  0  0  0  0  2  0  0  0  0  0  0
  193.1260  173.9120  136.2480 C   0  0  1  0  0  3  0  0  0  0  0  0
  195.5740  174.3390  135.9100 C   0  0  0  0  0  1  0  0  0  0  0  0
  194.5300  173.8010  136.8700 C   0  0  0  0  0  0  0  0  0  0  0  0
  194.6060  174.6280  138.1410 C   0  0  0  0  0  1  0  0  0  0  0  0
  194.8690  172.3570  137.2030 C   0  0  0  0  0  1  0  0  0  0  0  0
  181.4720  177.5180  137.7010 C   0  0  0  0  0  2  0  0  0  0  0  0
  180.2410  179.1980  138.8520 O   0  0  0  0  0  1  0  0  0  0  0  0
  180.7930  178.8720  137.6110 C   0  0  0  0  0  2  0  0  0  0  0  0
  186.3160  178.7690  142.1490 C   0  0  0  0  0  2  0  0  0  0  0  0
  187.7360  179.0640  141.6850 C   0  0  0  0  0  2  0  0  0  0  0  0
  188.7430  178.1520  142.3740 C   0  0  1  0  0  3  0  0  0  0  0  0
  188.1560  177.5190  143.6170 C   0  0  0  0  0  0  0  0  0  0  0  0
  187.4290  176.5470  143.5010 O   0  0  0  0  0  0  0  0  0  0  0  0
  188.3860  178.0990  144.9820 C   0  0  0  0  0  2  0  0  0  0  0  0
  188.3660  177.0220  146.0550 C   0  0  2  0  0  3  0  0  0  0  0  0
  184.8380  178.4590  146.9460 C   0  0  0  0  0  2  0  0  0  0  0  0
  187.3220  177.3370  146.9980 N   0  0  0  0  0  0  0  0  0  0  0  0
  186.2180  177.8810  146.6370 C   0  0  0  0  0  0  0  0  0  0  0  0
  185.2690  178.4570  145.5860 C   0  0  0  0  0  2  0  0  0  0  0  0
  189.6560  176.9810  146.7340 N   0  0  0  0  0  2  0  0  0  0  0  0
  189.5350  177.7650  147.8910 N   0  0  0  0  0  1  0  0  0  0  0  0
  189.2120  177.1090  141.3690 C   0  0  0  0  0  2  0  0  0  0  0  0
  190.7280  177.0050  141.3670 C   0  0  1  0  0  3  0  0  0  0  0  0
  191.3010  177.2910  140.0110 C   0  0  0  0  0  0  0  0  0  0  0  0
  192.6640  177.1920  139.7760 O   0  0  0  0  0  1  0  0  0  0  0  0
  190.5390  177.6130  139.0630 O   0  0  0  0  0  0  0  0  0  0  0  0
  191.2760  177.9860  142.3910 C   0  0  0  0  0  2  0  0  0  0  0  0
  191.9910  177.2360  143.5020 C   0  0  1  0  0  3  0  0  0  0  0  0
  191.9350  177.9780  144.6820 O   0  0  0  0  0  1  0  0  0  0  0  0
  191.9840  174.9530  144.0870 O   0  0  0  0  0  0  0  0  0  0  0  0
  191.3280  175.9170  143.7230 C   0  0  0  0  0  3  0  0  0  0  0  0
  1 13  1  0  0  0  0
  2 16  1  6  0  0  0
  2  1  1  0  0  0  0
  3  8  1  0  0  0  0
  4 15  1  0  0  0  0
  5 13  2  0  0  0  0
  5 10  1  0  0  0  0
  6 12  1  0  0  0  0
  6 11  1  0  0  0  0
  7  4  1  0  0  0  0
  8  4  2  0  0  0  0
  8 34  1  0  0  0  0
  9 14  1  0  0  0  0
  9  3  2  0  0  0  0
 10 14  1  0  0  0  0
 11  5  1  0  0  0  0
 12  2  1  0  0  0  0
 13  9  1  0  0  0  0
 14  7  2  0  0  0  0
 16 17  1  1  0  0  0
 18 26  1  0  0  0  0
 19 22  1  0  0  0  0
 19 23  1  0  0  0  0
 22 25  1  6  0  0  0
 22 24  1  0  0  0  0
 23 16  1  6  0  0  0
 23 20  1  0  0  0  0
 24 20  1  0  0  0  0
 24 21  1  1  0  0  0
 25 18  1  0  0  0  0
 26 28  1  1  0  0  0
 26 21  1  0  0  0  0
 27 28  1  0  0  0  0
 28 30  1  0  0  0  0
 28 29  1  0  0  0  0
 31 10  1  0  0  0  0
 33 31  1  0  0  0  0
 33 32  1  0  0  0  0
 35 34  1  0  0  0  0
 35 36  1  0  0  0  0
 36 47  1  6  0  0  0
 36 37  1  0  0  0  0
 37 39  1  0  0  0  0
 38 37  2  0  0  0  0
 40 39  1  6  0  0  0
 40 45  1  0  0  0  0
 40 42  1  0  0  0  0
 43 41  1  0  0  0  0
 43 42  2  0  0  0  0
 44 43  1  0  0  0  0
 44 41  1  0  0  0  0
 45 46  1  0  0  0  0
 48 47  1  6  0  0  0
 48 52  1  0  0  0  0
 49 48  1  0  0  0  0
 50 49  1  0  0  0  0
 51 49  2  0  0  0  0
 52 53  1  0  0  0  0
 53 56  1  0  0  0  0
 53 54  1  1  0  0  0
 56 55  2  0  0  0  0
M  END
>  <MODEL>
9

>  <REMARK>
 VINA RESULT:      -6.5      2.468      7.843
  Name = 
  19 active torsions:
  status: ('A' for Active; 'I' for Inactive)
    1  A    between atoms: C_4  and  C_28
    2  A    between atoms: C_4  and  C_46
    3  A    between atoms: C_6  and  C_15
    4  A    between atoms: C_6  and  C_39
    5  A    between atoms: C_10  and  C_23
    6  A    between atoms: C_10  and  C_28
    7  A    between atoms: C_11  and  C_50
    8  A    between atoms: N_13  and  C_40
    9  A    between atoms: C_14  and  C_36
   10  A    between atoms: C_14  and  C_46
   11  A    between atoms: C_16  and  C_36
   12  A    between atoms: C_17  and  C_53
   13  A    between atoms: C_19  and  C_30
   14  A    between atoms: C_19  and  C_56
   15  A    between atoms: C_23  and  C_40
   16  A    between atoms: N_24  and  C_40
   17  A    between atoms: C_28  and  C_56
   18  A    between atoms: N_32  and  C_50
   19  A    between atoms: C_37  and  C_46
                            x       y       z     vdW  Elec       q    Type
                         _______ _______ _______ _____ _____    ______ ____

>  <TORSDO>
F 19

$$$$
