=
 OpenBabel10232411173D

 50 55  0  0  1  0  0  0  0  0999 V2000
  188.0670  178.1660  140.6840 C   0  0  1  0  0  3  0  0  0  0  0  0
  186.6020  178.3340  141.1000 C   0  0  0  0  0  2  0  0  0  0  0  0
  187.7050  176.3120  138.0240 C   0  0  0  0  0  3  0  0  0  0  0  0
  184.8070  178.9790  139.8930 C   0  0  0  0  0  2  0  0  0  0  0  0
  186.0300  179.4210  140.4250 O   0  0  0  0  0  0  0  0  0  0  0  0
  187.3710  177.5800  138.3110 C   0  0  0  0  0  0  0  0  0  0  0  0
  185.9840  176.2780  136.1700 C   0  0  0  0  0  0  0  0  0  0  0  0
  188.2650  178.4310  139.1800 C   0  0  2  0  0  3  0  0  0  0  0  0
  187.2210  174.2980  136.8190 C   0  0  0  0  0  0  0  0  0  0  0  0
  186.0650  178.1670  137.7990 C   0  0  1  0  0  3  0  0  0  0  0  0
  186.9120  175.5440  137.0540 C   0  0  0  0  0  0  0  0  0  0  0  0
  185.6420  177.5350  136.4950 C   0  0  0  0  0  3  0  0  0  0  0  0
  187.5320  173.0540  136.5790 C   0  0  0  0  0  3  0  0  0  0  0  0
  184.9570  177.8930  138.8150 C   0  0  0  0  0  2  0  0  0  0  0  0
  188.8530  172.7250  135.9770 C   0  0  1  0  0  3  0  0  0  0  0  0
  188.8890  173.1550  134.5420 C   0  0  0  0  0  2  0  0  0  0  0  0
  190.7310  174.2320  135.6350 N   0  0  2  0  0  0  0  0  0  0  0  0
  189.9540  173.5150  136.6580 C   0  0  0  0  0  2  0  0  0  0  0  0
  190.2970  173.6520  134.3600 C   0  0  0  0  0  2  0  0  0  0  0  0
  192.7320  173.7950  134.4920 C   0  0  0  0  0  2  0  0  0  0  0  0
  194.2240  173.4340  134.6000 C   0  0  0  0  0  2  0  0  0  0  0  0
  196.1430  173.5040  136.0430 O   0  0  0  0  0  1  0  0  0  0  0  0
  194.9890  175.9640  136.2800 O   0  0  0  0  0  1  0  0  0  0  0  0
  192.7580  175.1190  136.4220 C   0  0  0  0  0  2  0  0  0  0  0  0
  194.7470  173.5740  136.0340 C   0  0  1  0  0  3  0  0  0  0  0  0
  194.4140  174.7220  138.2270 C   0  0  0  0  0  1  0  0  0  0  0  0
  194.2450  174.8610  136.7220 C   0  0  1  0  0  0  0  0  0  0  0  0
  192.1070  173.9450  135.8180 N   0  0  1  0  0  0  0  0  0  0  0  0
  190.3330  177.0170  139.2510 C   0  0  0  0  0  1  0  0  0  0  0  0
  189.7350  178.3260  138.7660 C   0  0  0  0  0  2  0  0  0  0  0  0
  188.9230  179.1230  141.5050 C   0  0  0  0  0  2  0  0  0  0  0  0
  189.0130  178.6800  142.8280 O   0  0  0  0  0  0  0  0  0  0  0  0
  191.3590  178.3320  142.7130 C   0  0  0  0  0  1  0  0  0  0  0  0
  189.9870  177.6800  142.8040 C   0  0  1  0  0  3  0  0  0  0  0  0
  191.7520  176.4660  145.8120 C   0  0  2  0  0  3  0  0  0  0  0  0
  189.8280  177.6660  145.3160 C   0  0  2  0  0  3  0  0  0  0  0  0
  191.3440  175.7190  144.2130 S   0  0  0  0  0  0  0  0  0  0  0  0
  192.3440  175.4170  146.7310 C   0  0  0  0  0  1  0  0  0  0  0  0
  189.8880  176.8030  144.0590 C   0  0  2  0  0  3  0  0  0  0  0  0
  190.5370  177.0000  146.3990 N   0  0  0  0  0  2  0  0  0  0  0  0
  188.2210  177.9310  147.1930 C   0  0  0  0  0  3  0  0  0  0  0  0
  188.3890  178.0030  145.7090 C   0  0  2  0  0  3  0  0  0  0  0  0
  185.4110  178.3340  145.9690 C   0  0  0  0  0  3  0  0  0  0  0  0
  187.3820  177.1650  144.9770 C   0  0  0  0  0  3  0  0  0  0  0  0
  186.0660  177.3580  145.0740 C   0  0  0  0  0  3  0  0  0  0  0  0
  187.1060  178.3070  147.8210 C   0  0  0  0  0  3  0  0  0  0  0  0
  185.8600  178.7470  147.1600 C   0  0  0  0  0  3  0  0  0  0  0  0
  185.5010  175.6650  135.0040 O   0  0  0  0  0  0  0  0  0  0  0  0
  184.1590  175.2100  134.8530 C   0  0  0  0  0  2  0  0  0  0  0  0
  184.1240  173.6940  134.7930 C   0  0  0  0  0  1  0  0  0  0  0  0
  1  2  1  0  0  0  0
  1 31  1  1  0  0  0
  3  6  2  0  0  0  0
  4  5  1  0  0  0  0
  5  2  1  0  0  0  0
  6  8  1  0  0  0  0
  7 12  2  0  0  0  0
  7 11  1  0  0  0  0
  8 30  1  6  0  0  0
  8  1  1  0  0  0  0
  9 11  2  0  0  0  0
 10 12  1  6  0  0  0
 10  6  1  0  0  0  0
 10 14  1  0  0  0  0
 11  3  1  0  0  0  0
 13  9  2  0  0  0  0
 14  4  1  0  0  0  0
 15 13  1  1  0  0  0
 15 18  1  0  0  0  0
 16 15  1  0  0  0  0
 17 19  1  6  0  0  0
 17 28  1  0  0  0  0
 17 18  1  0  0  0  0
 19 16  1  0  0  0  0
 20 21  1  0  0  0  0
 21 25  1  0  0  0  0
 23 27  1  0  0  0  0
 24 27  1  0  0  0  0
 25 22  1  6  0  0  0
 25 27  1  0  0  0  0
 27 26  1  1  0  0  0
 28 20  1  6  0  0  0
 28 24  1  0  0  0  0
 30 29  1  0  0  0  0
 31 32  1  0  0  0  0
 34 33  1  1  0  0  0
 34 32  1  0  0  0  0
 35 40  1  0  0  0  0
 35 38  1  1  0  0  0
 36 42  1  0  0  0  0
 36 40  1  1  0  0  0
 37 35  1  0  0  0  0
 39 34  1  6  0  0  0
 39 37  1  0  0  0  0
 39 36  1  0  0  0  0
 41 46  2  0  0  0  0
 42 44  1  6  0  0  0
 42 41  1  0  0  0  0
 43 47  2  0  0  0  0
 44 45  2  0  0  0  0
 45 43  1  0  0  0  0
 47 46  1  0  0  0  0
 48  7  1  0  0  0  0
 49 48  1  0  0  0  0
 50 49  1  0  0  0  0
M  END
>  <MODEL>
1

>  <REMARK>
 VINA RESULT:      -8.5      0.000      0.000
  Name = 
  10 active torsions:
  status: ('A' for Active; 'I' for Inactive)
    1  A    between atoms: C_1  and  C_39
    2  A    between atoms: C_6  and  C_34
    3  A    between atoms: C_12  and  O_42
    4  A    between atoms: C_14  and  O_42
    5  A    between atoms: C_15  and  C_37
    6  A    between atoms: C_17  and  C_22
    7  A    between atoms: N_18  and  N_50
    8  A    between atoms: C_35  and  C_41
    9  A    between atoms: C_35  and  O_47
   10  A    between atoms: C_39  and  O_47
                            x       y       z     vdW  Elec       q    Type
                         _______ _______ _______ _____ _____    ______ ____

>  <TORSDO>
F 10

$$$$
=
 OpenBabel10232411173D

 50 55  0  0  1  0  0  0  0  0999 V2000
  191.8160  177.4870  140.0470 C   0  0  1  0  0  3  0  0  0  0  0  0
  193.1340  177.2990  139.2890 C   0  0  0  0  0  2  0  0  0  0  0  0
  189.6820  176.7800  137.6820 C   0  0  0  0  0  3  0  0  0  0  0  0
  193.8570  175.5750  138.0240 C   0  0  0  0  0  2  0  0  0  0  0  0
  193.5310  175.9560  139.3360 O   0  0  0  0  0  0  0  0  0  0  0  0
  190.5860  176.0470  138.3500 C   0  0  0  0  0  0  0  0  0  0  0  0
  189.6870  175.0780  135.8100 C   0  0  0  0  0  0  0  0  0  0  0  0
  190.8530  176.3070  139.8140 C   0  0  2  0  0  3  0  0  0  0  0  0
  188.4710  177.1680  135.6510 C   0  0  0  0  0  0  0  0  0  0  0  0
  191.3860  174.9710  137.6360 C   0  0  1  0  0  3  0  0  0  0  0  0
  189.3160  176.4200  136.3050 C   0  0  0  0  0  0  0  0  0  0  0  0
  190.6150  174.3770  136.4810 C   0  0  0  0  0  3  0  0  0  0  0  0
  187.6200  177.9120  134.9990 C   0  0  0  0  0  3  0  0  0  0  0  0
  192.6600  175.5870  137.0600 C   0  0  0  0  0  2  0  0  0  0  0  0
  186.2210  178.0420  135.4890 C   0  0  1  0  0  3  0  0  0  0  0  0
  185.3670  176.9560  134.9070 C   0  0  0  0  0  2  0  0  0  0  0  0
  185.1720  176.7900  137.2910 N   0  0  2  0  0  0  0  0  0  0  0  0
  186.1670  177.8300  136.9900 C   0  0  0  0  0  2  0  0  0  0  0  0
  184.4390  176.5980  136.0360 C   0  0  0  0  0  2  0  0  0  0  0  0
  184.8470  178.5080  138.8550 C   0  0  0  0  0  2  0  0  0  0  0  0
  183.9520  179.0860  139.9650 C   0  0  0  0  0  2  0  0  0  0  0  0
  181.7130  179.1300  140.8350 O   0  0  0  0  0  1  0  0  0  0  0  0
  181.4310  179.4050  138.1350 O   0  0  0  0  0  1  0  0  0  0  0  0
  183.0370  177.7190  137.5990 C   0  0  0  0  0  2  0  0  0  0  0  0
  182.5790  178.4060  140.0100 C   0  0  1  0  0  3  0  0  0  0  0  0
  180.8750  177.1560  138.6790 C   0  0  0  0  0  1  0  0  0  0  0  0
  181.9760  178.2020  138.6030 C   0  0  1  0  0  0  0  0  0  0  0  0
  184.2730  177.2840  138.2700 N   0  0  1  0  0  0  0  0  0  0  0  0
  188.7620  177.6520  140.1260 C   0  0  0  0  0  1  0  0  0  0  0  0
  189.5580  176.4550  140.6150 C   0  0  0  0  0  2  0  0  0  0  0  0
  192.1210  177.6320  141.5320 C   0  0  0  0  0  2  0  0  0  0  0  0
  190.9830  178.0640  142.2210 O   0  0  0  0  0  0  0  0  0  0  0  0
  191.0150  179.5580  144.0660 C   0  0  0  0  0  1  0  0  0  0  0  0
  191.3930  178.1770  143.5510 C   0  0  1  0  0  3  0  0  0  0  0  0
  191.4320  176.4390  146.8100 C   0  0  2  0  0  3  0  0  0  0  0  0
  189.9430  177.7010  145.5530 C   0  0  2  0  0  3  0  0  0  0  0  0
  192.0010  175.9970  145.1480 S   0  0  0  0  0  0  0  0  0  0  0  0
  191.5590  175.2430  147.7300 C   0  0  0  0  0  1  0  0  0  0  0  0
  190.7410  177.0840  144.4080 C   0  0  2  0  0  3  0  0  0  0  0  0
  190.0430  176.8510  146.7310 N   0  0  0  0  0  2  0  0  0  0  0  0
  187.5860  177.7480  146.3390 C   0  0  0  0  0  3  0  0  0  0  0  0
  188.4860  177.9540  145.1630 C   0  0  2  0  0  3  0  0  0  0  0  0
  185.7810  178.1590  143.8630 C   0  0  0  0  0  3  0  0  0  0  0  0
  188.0620  177.1480  143.9710 C   0  0  0  0  0  3  0  0  0  0  0  0
  186.8720  177.2860  143.3840 C   0  0  0  0  0  3  0  0  0  0  0  0
  186.2830  178.0300  146.3210 C   0  0  0  0  0  3  0  0  0  0  0  0
  185.5240  178.4820  145.1360 C   0  0  0  0  0  3  0  0  0  0  0  0
  189.0510  174.5540  134.6750 O   0  0  0  0  0  0  0  0  0  0  0  0
  188.1870  173.4210  134.7110 C   0  0  0  0  0  2  0  0  0  0  0  0
  186.9950  173.7000  135.6080 C   0  0  0  0  0  1  0  0  0  0  0  0
  1 31  1  1  0  0  0
  2  5  1  0  0  0  0
  2  1  1  0  0  0  0
  3  6  2  0  0  0  0
  4  5  1  0  0  0  0
  6  8  1  0  0  0  0
  7 11  1  0  0  0  0
  7 12  2  0  0  0  0
  8  1  1  0  0  0  0
  8 30  1  1  0  0  0
  9 11  2  0  0  0  0
 10 12  1  6  0  0  0
 10  6  1  0  0  0  0
 11  3  1  0  0  0  0
 13  9  2  0  0  0  0
 14 10  1  0  0  0  0
 14  4  1  0  0  0  0
 15 13  1  6  0  0  0
 15 18  1  0  0  0  0
 16 15  1  0  0  0  0
 16 19  1  0  0  0  0
 17 19  1  6  0  0  0
 17 28  1  0  0  0  0
 18 17  1  0  0  0  0
 20 21  1  0  0  0  0
 21 25  1  0  0  0  0
 23 27  1  0  0  0  0
 24 27  1  0  0  0  0
 25 22  1  1  0  0  0
 27 26  1  1  0  0  0
 27 25  1  0  0  0  0
 28 24  1  6  0  0  0
 28 20  1  0  0  0  0
 29 30  1  0  0  0  0
 31 32  1  0  0  0  0
 32 34  1  0  0  0  0
 34 33  1  1  0  0  0
 35 38  1  1  0  0  0
 36 40  1  1  0  0  0
 37 35  1  0  0  0  0
 39 34  1  1  0  0  0
 39 37  1  0  0  0  0
 39 36  1  0  0  0  0
 40 35  1  0  0  0  0
 42 44  1  6  0  0  0
 42 36  1  0  0  0  0
 42 41  1  0  0  0  0
 43 47  2  0  0  0  0
 45 43  1  0  0  0  0
 45 44  2  0  0  0  0
 46 41  2  0  0  0  0
 47 46  1  0  0  0  0
 48 49  1  0  0  0  0
 48  7  1  0  0  0  0
 49 50  1  0  0  0  0
M  END
>  <MODEL>
2

>  <REMARK>
 VINA RESULT:      -8.1      2.415      6.624
  Name = 
  10 active torsions:
  status: ('A' for Active; 'I' for Inactive)
    1  A    between atoms: C_1  and  C_39
    2  A    between atoms: C_6  and  C_34
    3  A    between atoms: C_12  and  O_42
    4  A    between atoms: C_14  and  O_42
    5  A    between atoms: C_15  and  C_37
    6  A    between atoms: C_17  and  C_22
    7  A    between atoms: N_18  and  N_50
    8  A    between atoms: C_35  and  C_41
    9  A    between atoms: C_35  and  O_47
   10  A    between atoms: C_39  and  O_47
                            x       y       z     vdW  Elec       q    Type
                         _______ _______ _______ _____ _____    ______ ____

>  <TORSDO>
F 10

$$$$
=
 OpenBabel10232411173D

 50 55  0  0  1  0  0  0  0  0999 V2000
  183.5770  178.4100  142.5970 C   0  0  1  0  0  3  0  0  0  0  0  0
  182.2190  178.4010  143.3060 C   0  0  0  0  0  2  0  0  0  0  0  0
  182.7230  177.1960  139.6920 C   0  0  0  0  0  3  0  0  0  0  0  0
  180.2190  179.2100  142.6380 C   0  0  0  0  0  2  0  0  0  0  0  0
  181.5180  179.5820  143.0220 O   0  0  0  0  0  0  0  0  0  0  0  0
  182.4400  178.3460  140.3240 C   0  0  0  0  0  0  0  0  0  0  0  0
  180.6760  177.4970  138.2340 C   0  0  0  0  0  0  0  0  0  0  0  0
  183.4790  179.0220  141.1870 C   0  0  2  0  0  3  0  0  0  0  0  0
  182.0310  175.4880  138.1600 C   0  0  0  0  0  0  0  0  0  0  0  0
  181.0560  178.9650  140.2170 C   0  0  1  0  0  3  0  0  0  0  0  0
  181.7640  176.6290  138.7330 C   0  0  0  0  0  0  0  0  0  0  0  0
  180.3940  178.6270  138.9020 C   0  0  0  0  0  3  0  0  0  0  0  0
  182.3000  174.3510  137.5810 C   0  0  0  0  0  3  0  0  0  0  0  0
  180.1670  178.4080  141.3270 C   0  0  0  0  0  2  0  0  0  0  0  0
  183.4830  174.2380  136.6840 C   0  0  1  0  0  3  0  0  0  0  0  0
  183.0970  174.5770  135.2760 C   0  0  0  0  0  2  0  0  0  0  0  0
  184.8940  176.0450  135.8760 N   0  0  2  0  0  0  0  0  0  0  0  0
  184.5350  175.2610  137.0670 C   0  0  0  0  0  2  0  0  0  0  0  0
  184.2980  175.3160  134.7530 C   0  0  0  0  0  2  0  0  0  0  0  0
  186.7610  177.4150  135.4970 C   0  0  0  0  0  2  0  0  0  0  0  0
  188.2820  177.4860  135.2760 C   0  0  0  0  0  2  0  0  0  0  0  0
  190.3580  176.3400  135.6540 O   0  0  0  0  0  1  0  0  0  0  0  0
  189.0100  176.1620  138.0190 O   0  0  0  0  0  1  0  0  0  0  0  0
  186.9110  175.6330  137.0070 C   0  0  0  0  0  2  0  0  0  0  0  0
  188.9730  176.1580  135.6050 C   0  0  1  0  0  3  0  0  0  0  0  0
  188.8220  174.0510  136.9370 C   0  0  0  0  0  1  0  0  0  0  0  0
  188.4430  175.5230  136.9080 C   0  0  1  0  0  0  0  0  0  0  0  0
  186.3050  176.0330  135.7270 N   0  0  1  0  0  0  0  0  0  0  0  0
  184.6800  179.4910  139.0390 C   0  0  0  0  0  1  0  0  0  0  0  0
  184.8420  179.0920  140.4950 C   0  0  0  0  0  2  0  0  0  0  0  0
  184.5670  179.1980  143.4450 C   0  0  0  0  0  2  0  0  0  0  0  0
  184.7830  178.5510  144.6660 O   0  0  0  0  0  0  0  0  0  0  0  0
  186.3360  177.8710  143.0040 C   0  0  0  0  0  1  0  0  0  0  0  0
  185.9490  177.8080  144.4740 C   0  0  1  0  0  3  0  0  0  0  0  0
  187.6650  177.5320  147.7330 C   0  0  2  0  0  3  0  0  0  0  0  0
  188.2030  177.3220  145.4850 C   0  0  2  0  0  3  0  0  0  0  0  0
  186.4830  178.7150  147.0360 S   0  0  0  0  0  0  0  0  0  0  0  0
  188.1600  178.0330  149.0740 C   0  0  0  0  0  1  0  0  0  0  0  0
  187.0820  178.3490  145.3550 C   0  0  2  0  0  3  0  0  0  0  0  0
  188.7830  177.3980  146.8180 N   0  0  0  0  0  2  0  0  0  0  0  0
  189.3870  176.2470  143.5830 C   0  0  0  0  0  3  0  0  0  0  0  0
  189.2650  177.4940  144.3980 C   0  0  2  0  0  3  0  0  0  0  0  0
  191.6680  178.1410  142.7090 C   0  0  0  0  0  3  0  0  0  0  0  0
  190.5840  177.9480  144.9500 C   0  0  0  0  0  3  0  0  0  0  0  0
  191.6240  178.2710  144.1790 C   0  0  0  0  0  3  0  0  0  0  0  0
  190.1390  176.1610  142.4850 C   0  0  0  0  0  3  0  0  0  0  0  0
  191.0250  177.2260  141.9720 C   0  0  0  0  0  3  0  0  0  0  0  0
  179.9820  177.1420  137.0680 O   0  0  0  0  0  0  0  0  0  0  0  0
  180.2580  177.7030  135.7870 C   0  0  0  0  0  2  0  0  0  0  0  0
  181.7150  178.1190  135.7020 C   0  0  0  0  0  1  0  0  0  0  0  0
  1  2  1  0  0  0  0
  1 31  1  1  0  0  0
  3  6  2  0  0  0  0
  4  5  1  0  0  0  0
  5  2  1  0  0  0  0
  6  8  1  0  0  0  0
  7 11  1  0  0  0  0
  7 12  2  0  0  0  0
  8 30  1  6  0  0  0
  8  1  1  0  0  0  0
  9 11  2  0  0  0  0
 10 12  1  6  0  0  0
 10  6  1  0  0  0  0
 10 14  1  0  0  0  0
 11  3  1  0  0  0  0
 13  9  2  0  0  0  0
 14  4  1  0  0  0  0
 15 18  1  0  0  0  0
 15 13  1  1  0  0  0
 16 15  1  0  0  0  0
 17 19  1  6  0  0  0
 17 18  1  0  0  0  0
 19 16  1  0  0  0  0
 21 20  1  0  0  0  0
 21 25  1  0  0  0  0
 25 22  1  1  0  0  0
 25 27  1  0  0  0  0
 27 26  1  1  0  0  0
 27 24  1  0  0  0  0
 27 23  1  0  0  0  0
 28 20  1  1  0  0  0
 28 17  1  0  0  0  0
 28 24  1  0  0  0  0
 29 30  1  0  0  0  0
 31 32  1  0  0  0  0
 34 33  1  6  0  0  0
 34 32  1  0  0  0  0
 35 38  1  1  0  0  0
 36 40  1  1  0  0  0
 37 35  1  0  0  0  0
 39 34  1  6  0  0  0
 39 36  1  0  0  0  0
 39 37  1  0  0  0  0
 40 35  1  0  0  0  0
 42 41  1  1  0  0  0
 42 44  1  0  0  0  0
 42 36  1  0  0  0  0
 43 45  1  0  0  0  0
 45 44  2  0  0  0  0
 46 41  2  0  0  0  0
 47 46  1  0  0  0  0
 47 43  2  0  0  0  0
 48  7  1  0  0  0  0
 49 48  1  0  0  0  0
 50 49  1  0  0  0  0
M  END
>  <MODEL>
3

>  <REMARK>
 VINA RESULT:      -8.0      3.275      5.494
  Name = 
  10 active torsions:
  status: ('A' for Active; 'I' for Inactive)
    1  A    between atoms: C_1  and  C_39
    2  A    between atoms: C_6  and  C_34
    3  A    between atoms: C_12  and  O_42
    4  A    between atoms: C_14  and  O_42
    5  A    between atoms: C_15  and  C_37
    6  A    between atoms: C_17  and  C_22
    7  A    between atoms: N_18  and  N_50
    8  A    between atoms: C_35  and  C_41
    9  A    between atoms: C_35  and  O_47
   10  A    between atoms: C_39  and  O_47
                            x       y       z     vdW  Elec       q    Type
                         _______ _______ _______ _____ _____    ______ ____

>  <TORSDO>
F 10

$$$$
=
 OpenBabel10232411173D

 50 55  0  0  1  0  0  0  0  0999 V2000
  184.2130  177.9490  139.7510 C   0  0  1  0  0  3  0  0  0  0  0  0
  182.7180  178.0240  140.0780 C   0  0  0  0  0  2  0  0  0  0  0  0
  184.1940  175.6050  137.4820 C   0  0  0  0  0  3  0  0  0  0  0  0
  180.9340  178.2250  138.7090 C   0  0  0  0  0  2  0  0  0  0  0  0
  182.0730  178.8950  139.1890 O   0  0  0  0  0  0  0  0  0  0  0  0
  183.7130  176.8580  137.5100 C   0  0  0  0  0  0  0  0  0  0  0  0
  182.5910  175.0320  135.6110 C   0  0  0  0  0  0  0  0  0  0  0  0
  184.4640  177.9520  138.2320 C   0  0  2  0  0  3  0  0  0  0  0  0
  183.9920  173.3610  136.6680 C   0  0  0  0  0  0  0  0  0  0  0  0
  182.3830  177.1880  136.8530 C   0  0  1  0  0  3  0  0  0  0  0  0
  183.5420  174.5850  136.6500 C   0  0  0  0  0  0  0  0  0  0  0  0
  182.1010  176.2810  135.6790 C   0  0  0  0  0  3  0  0  0  0  0  0
  184.4460  172.1380  136.6790 C   0  0  0  0  0  3  0  0  0  0  0  0
  181.2560  176.9820  137.8640 C   0  0  0  0  0  2  0  0  0  0  0  0
  185.8250  171.8550  136.1960 C   0  0  1  0  0  3  0  0  0  0  0  0
  185.9020  172.0470  134.7110 C   0  0  0  0  0  2  0  0  0  0  0  0
  187.5650  173.4740  135.6820 N   0  0  2  0  0  0  0  0  0  0  0  0
  186.8030  172.8570  136.7790 C   0  0  0  0  0  2  0  0  0  0  0  0
  187.2640  172.6520  134.5070 C   0  0  0  0  0  2  0  0  0  0  0  0
  189.6040  172.6730  134.8450 C   0  0  0  0  0  2  0  0  0  0  0  0
  191.1090  172.4720  135.0950 C   0  0  0  0  0  2  0  0  0  0  0  0
  192.9970  173.2710  136.3460 O   0  0  0  0  0  1  0  0  0  0  0  0
  191.7260  175.5200  135.4670 O   0  0  0  0  0  1  0  0  0  0  0  0
  189.5350  174.7180  135.9810 C   0  0  0  0  0  2  0  0  0  0  0  0
  191.6000  173.2620  136.3130 C   0  0  1  0  0  3  0  0  0  0  0  0
  191.1760  175.2480  137.7660 C   0  0  0  0  0  1  0  0  0  0  0  0
  191.0270  174.6940  136.3580 C   0  0  1  0  0  0  0  0  0  0  0  0
  188.9500  173.3670  135.9670 N   0  0  1  0  0  0  0  0  0  0  0  0
  186.1650  177.9000  136.3920 C   0  0  0  0  0  1  0  0  0  0  0  0
  185.9570  177.9400  137.8950 C   0  0  0  0  0  2  0  0  0  0  0  0
  184.9170  179.1330  140.4030 C   0  0  0  0  0  2  0  0  0  0  0  0
  184.8660  179.0220  141.7950 O   0  0  0  0  0  0  0  0  0  0  0  0
  187.1400  178.7350  141.1770 C   0  0  0  0  0  1  0  0  0  0  0  0
  186.0330  178.3380  142.1420 C   0  0  1  0  0  3  0  0  0  0  0  0
  185.1910  177.8740  145.7080 C   0  0  2  0  0  3  0  0  0  0  0  0
  186.9690  177.4150  144.2890 C   0  0  2  0  0  3  0  0  0  0  0  0
  185.0030  179.2500  144.5460 S   0  0  0  0  0  0  0  0  0  0  0  0
  184.8180  178.3280  147.1040 C   0  0  0  0  0  1  0  0  0  0  0  0
  186.4350  178.6600  143.5870 C   0  0  2  0  0  3  0  0  0  0  0  0
  186.5750  177.4360  145.6900 N   0  0  0  0  0  2  0  0  0  0  0  0
  188.8160  176.1180  143.2490 C   0  0  0  0  0  3  0  0  0  0  0  0
  188.4840  177.2770  144.1330 C   0  0  2  0  0  3  0  0  0  0  0  0
  191.4750  177.1580  144.4360 C   0  0  0  0  0  3  0  0  0  0  0  0
  189.1940  177.2120  145.4530 C   0  0  0  0  0  3  0  0  0  0  0  0
  190.5240  177.2040  145.5650 C   0  0  0  0  0  3  0  0  0  0  0  0
  190.0540  175.8470  142.8330 C   0  0  0  0  0  3  0  0  0  0  0  0
  191.2730  176.5700  143.2500 C   0  0  0  0  0  3  0  0  0  0  0  0
  182.2390  174.1630  134.5680 O   0  0  0  0  0  0  0  0  0  0  0  0
  180.9110  173.6980  134.3460 C   0  0  0  0  0  2  0  0  0  0  0  0
  180.4190  172.9240  135.5550 C   0  0  0  0  0  1  0  0  0  0  0  0
  1  2  1  0  0  0  0
  1 31  1  1  0  0  0
  3  6  2  0  0  0  0
  4  5  1  0  0  0  0
  5  2  1  0  0  0  0
  6  8  1  0  0  0  0
  7 12  2  0  0  0  0
  7 11  1  0  0  0  0
  8 30  1  1  0  0  0
  8  1  1  0  0  0  0
  9 13  2  0  0  0  0
 10 12  1  6  0  0  0
 10  6  1  0  0  0  0
 10 14  1  0  0  0  0
 11  9  2  0  0  0  0
 11  3  1  0  0  0  0
 14  4  1  0  0  0  0
 15 13  1  1  0  0  0
 15 18  1  0  0  0  0
 16 15  1  0  0  0  0
 17 19  1  6  0  0  0
 17 28  1  0  0  0  0
 17 18  1  0  0  0  0
 19 16  1  0  0  0  0
 20 21  1  0  0  0  0
 21 25  1  0  0  0  0
 23 27  1  0  0  0  0
 24 27  1  0  0  0  0
 25 22  1  6  0  0  0
 25 27  1  0  0  0  0
 27 26  1  1  0  0  0
 28 20  1  6  0  0  0
 28 24  1  0  0  0  0
 29 30  1  0  0  0  0
 31 32  1  0  0  0  0
 32 34  1  0  0  0  0
 34 33  1  6  0  0  0
 35 38  1  1  0  0  0
 36 40  1  1  0  0  0
 37 35  1  0  0  0  0
 39 34  1  6  0  0  0
 39 36  1  0  0  0  0
 39 37  1  0  0  0  0
 40 35  1  0  0  0  0
 42 41  1  6  0  0  0
 42 36  1  0  0  0  0
 42 44  1  0  0  0  0
 43 45  1  0  0  0  0
 44 45  2  0  0  0  0
 46 41  2  0  0  0  0
 46 47  1  0  0  0  0
 47 43  2  0  0  0  0
 48  7  1  0  0  0  0
 49 48  1  0  0  0  0
 49 50  1  0  0  0  0
M  END
>  <MODEL>
4

>  <REMARK>
 VINA RESULT:      -7.9      2.444      4.207
  Name = 
  10 active torsions:
  status: ('A' for Active; 'I' for Inactive)
    1  A    between atoms: C_1  and  C_39
    2  A    between atoms: C_6  and  C_34
    3  A    between atoms: C_12  and  O_42
    4  A    between atoms: C_14  and  O_42
    5  A    between atoms: C_15  and  C_37
    6  A    between atoms: C_17  and  C_22
    7  A    between atoms: N_18  and  N_50
    8  A    between atoms: C_35  and  C_41
    9  A    between atoms: C_35  and  O_47
   10  A    between atoms: C_39  and  O_47
                            x       y       z     vdW  Elec       q    Type
                         _______ _______ _______ _____ _____    ______ ____

>  <TORSDO>
F 10

$$$$
=
 OpenBabel10232411173D

 50 55  0  0  1  0  0  0  0  0999 V2000
  188.8500  176.9630  141.7290 C   0  0  1  0  0  3  0  0  0  0  0  0
  188.6740  176.2330  143.0650 C   0  0  0  0  0  2  0  0  0  0  0  0
  185.8140  178.0610  141.2630 C   0  0  0  0  0  3  0  0  0  0  0  0
  187.7520  176.9370  145.0020 C   0  0  0  0  0  2  0  0  0  0  0  0
  188.8380  177.1290  144.1300 O   0  0  0  0  0  0  0  0  0  0  0  0
  186.7660  178.3520  142.1640 C   0  0  0  0  0  0  0  0  0  0  0  0
  184.0510  178.9710  142.8340 C   0  0  0  0  0  0  0  0  0  0  0  0
  188.2210  178.3690  141.7620 C   0  0  2  0  0  3  0  0  0  0  0  0
  183.4800  177.8700  140.7520 C   0  0  0  0  0  0  0  0  0  0  0  0
  186.3980  178.6270  143.6120 C   0  0  1  0  0  3  0  0  0  0  0  0
  184.3950  178.2000  141.6210 C   0  0  0  0  0  0  0  0  0  0  0  0
  185.0160  179.2230  143.7340 C   0  0  0  0  0  3  0  0  0  0  0  0
  182.5650  177.5470  139.8800 C   0  0  0  0  0  3  0  0  0  0  0  0
  186.3930  177.3120  144.3900 C   0  0  0  0  0  2  0  0  0  0  0  0
  182.4630  178.2990  138.6000 C   0  0  1  0  0  3  0  0  0  0  0  0
  181.4190  177.6810  137.7200 C   0  0  0  0  0  2  0  0  0  0  0  0
  180.8080  179.9810  138.0100 N   0  0  2  0  0  0  0  0  0  0  0  0
  181.9810  179.7140  138.8570 C   0  0  0  0  0  2  0  0  0  0  0  0
  180.7720  178.8670  137.0580 C   0  0  0  0  0  2  0  0  0  0  0  0
  179.9820  181.3040  136.2580 C   0  0  0  0  0  2  0  0  0  0  0  0
  180.1710  182.5650  135.3980 C   0  0  0  0  0  2  0  0  0  0  0  0
  181.1760  184.7460  135.3360 O   0  0  0  0  0  1  0  0  0  0  0  0
  180.0470  184.5560  137.8120 O   0  0  0  0  0  1  0  0  0  0  0  0
  180.8030  182.3220  138.1990 C   0  0  0  0  0  2  0  0  0  0  0  0
  181.2270  183.5090  135.9840 C   0  0  1  0  0  3  0  0  0  0  0  0
  182.3890  184.2260  138.0750 C   0  0  0  0  0  1  0  0  0  0  0  0
  181.0910  183.6690  137.5130 C   0  0  1  0  0  0  0  0  0  0  0  0
  181.0250  181.1840  137.2910 N   0  0  1  0  0  0  0  0  0  0  0  0
  187.9490  178.3180  139.2720 C   0  0  0  0  0  1  0  0  0  0  0  0
  188.4460  179.1300  140.4540 C   0  0  0  0  0  2  0  0  0  0  0  0
  190.3380  177.0600  141.4160 C   0  0  0  0  0  2  0  0  0  0  0  0
  190.6270  176.3970  140.2200 O   0  0  0  0  0  0  0  0  0  0  0  0
  192.6840  177.5790  140.2980 C   0  0  0  0  0  1  0  0  0  0  0  0
  191.4210  177.2900  139.4990 C   0  0  1  0  0  3  0  0  0  0  0  0
  192.8540  174.4030  137.6970 C   0  0  2  0  0  3  0  0  0  0  0  0
  190.8400  175.5520  137.7730 C   0  0  2  0  0  3  0  0  0  0  0  0
  193.4740  176.0540  138.1100 S   0  0  0  0  0  0  0  0  0  0  0  0
  193.8360  173.7010  136.7810 C   0  0  0  0  0  1  0  0  0  0  0  0
  191.7730  176.7070  138.1240 C   0  0  2  0  0  3  0  0  0  0  0  0
  191.5730  174.5400  137.0280 N   0  0  0  0  0  2  0  0  0  0  0  0
  189.0350  174.9170  136.1860 C   0  0  0  0  0  3  0  0  0  0  0  0
  189.6040  176.0300  137.0070 C   0  0  2  0  0  3  0  0  0  0  0  0
  187.5100  177.4950  135.4220 C   0  0  0  0  0  3  0  0  0  0  0  0
  189.8730  177.2620  136.1940 C   0  0  0  0  0  3  0  0  0  0  0  0
  188.9200  177.9210  135.5330 C   0  0  0  0  0  3  0  0  0  0  0  0
  187.8820  175.0140  135.5240 C   0  0  0  0  0  3  0  0  0  0  0  0
  187.0580  176.2350  135.4180 C   0  0  0  0  0  3  0  0  0  0  0  0
  182.7430  179.4450  143.0100 O   0  0  0  0  0  0  0  0  0  0  0  0
  181.9140  179.0760  144.1080 C   0  0  0  0  0  2  0  0  0  0  0  0
  180.5430  178.6540  143.6110 C   0  0  0  0  0  1  0  0  0  0  0  0
  1 31  1  1  0  0  0
  1  8  1  0  0  0  0
  1  2  1  0  0  0  0
  2  5  1  0  0  0  0
  3 11  1  0  0  0  0
  3  6  2  0  0  0  0
  5  4  1  0  0  0  0
  6 10  1  0  0  0  0
  7 48  1  0  0  0  0
  7 12  2  0  0  0  0
  8 30  1  6  0  0  0
  8  6  1  0  0  0  0
  9 11  2  0  0  0  0
 10 12  1  6  0  0  0
 10 14  1  0  0  0  0
 11  7  1  0  0  0  0
 13  9  2  0  0  0  0
 14  4  1  0  0  0  0
 15 18  1  0  0  0  0
 15 13  1  1  0  0  0
 16 15  1  0  0  0  0
 17 19  1  6  0  0  0
 17 18  1  0  0  0  0
 19 16  1  0  0  0  0
 21 25  1  0  0  0  0
 21 20  1  0  0  0  0
 25 22  1  6  0  0  0
 25 27  1  0  0  0  0
 27 23  1  0  0  0  0
 27 26  1  1  0  0  0
 27 24  1  0  0  0  0
 28 20  1  6  0  0  0
 28 17  1  0  0  0  0
 28 24  1  0  0  0  0
 29 30  1  0  0  0  0
 32 31  1  0  0  0  0
 34 32  1  0  0  0  0
 34 33  1  1  0  0  0
 35 38  1  6  0  0  0
 35 37  1  0  0  0  0
 36 40  1  6  0  0  0
 36 39  1  0  0  0  0
 37 39  1  0  0  0  0
 39 34  1  1  0  0  0
 40 35  1  0  0  0  0
 42 41  1  6  0  0  0
 42 36  1  0  0  0  0
 43 45  1  0  0  0  0
 44 42  1  0  0  0  0
 45 44  2  0  0  0  0
 46 41  2  0  0  0  0
 47 43  2  0  0  0  0
 47 46  1  0  0  0  0
 48 49  1  0  0  0  0
 50 49  1  0  0  0  0
M  END
>  <MODEL>
5

>  <REMARK>
 VINA RESULT:      -7.8      4.383      9.857
  Name = 
  10 active torsions:
  status: ('A' for Active; 'I' for Inactive)
    1  A    between atoms: C_1  and  C_39
    2  A    between atoms: C_6  and  C_34
    3  A    between atoms: C_12  and  O_42
    4  A    between atoms: C_14  and  O_42
    5  A    between atoms: C_15  and  C_37
    6  A    between atoms: C_17  and  C_22
    7  A    between atoms: N_18  and  N_50
    8  A    between atoms: C_35  and  C_41
    9  A    between atoms: C_35  and  O_47
   10  A    between atoms: C_39  and  O_47
                            x       y       z     vdW  Elec       q    Type
                         _______ _______ _______ _____ _____    ______ ____

>  <TORSDO>
F 10

$$$$
=
 OpenBabel10232411173D

 50 55  0  0  1  0  0  0  0  0999 V2000
  185.6350  177.9910  143.7110 C   0  0  1  0  0  3  0  0  0  0  0  0
  184.5640  177.9830  144.8060 C   0  0  0  0  0  2  0  0  0  0  0  0
  183.7630  177.6050  141.0670 C   0  0  0  0  0  3  0  0  0  0  0  0
  182.6480  179.1630  144.9820 C   0  0  0  0  0  2  0  0  0  0  0  0
  184.0490  179.2740  144.9870 O   0  0  0  0  0  0  0  0  0  0  0  0
  183.8990  178.6010  141.9570 C   0  0  0  0  0  0  0  0  0  0  0  0
  181.4780  178.4860  140.4310 C   0  0  0  0  0  0  0  0  0  0  0  0
  185.2510  178.9230  142.5470 C   0  0  2  0  0  3  0  0  0  0  0  0
  182.3480  176.4010  139.5540 C   0  0  0  0  0  0  0  0  0  0  0  0
  182.6860  179.3920  142.4190 C   0  0  1  0  0  3  0  0  0  0  0  0
  182.4790  177.4000  140.3830 C   0  0  0  0  0  0  0  0  0  0  0  0
  181.6200  179.4540  141.3510 C   0  0  0  0  0  3  0  0  0  0  0  0
  182.2180  175.4060  138.7200 C   0  0  0  0  0  3  0  0  0  0  0  0
  182.0680  178.7030  143.6350 C   0  0  0  0  0  2  0  0  0  0  0  0
  183.0470  175.3620  137.4850 C   0  0  1  0  0  3  0  0  0  0  0  0
  182.3810  176.1400  136.3890 C   0  0  0  0  0  2  0  0  0  0  0  0
  184.5700  177.0760  136.6730 N   0  0  2  0  0  0  0  0  0  0  0  0
  184.3750  176.0570  137.7160 C   0  0  0  0  0  2  0  0  0  0  0  0
  183.5330  176.7950  135.6760 C   0  0  0  0  0  2  0  0  0  0  0  0
  186.7160  178.0000  136.4640 C   0  0  0  0  0  2  0  0  0  0  0  0
  188.1060  177.8910  135.8140 C   0  0  0  0  0  2  0  0  0  0  0  0
  189.6690  176.3730  134.8040 O   0  0  0  0  0  1  0  0  0  0  0  0
  188.7420  175.0700  137.0140 O   0  0  0  0  0  1  0  0  0  0  0  0
  186.4600  175.6810  136.6570 C   0  0  0  0  0  2  0  0  0  0  0  0
  188.3220  176.5320  135.1390 C   0  0  1  0  0  3  0  0  0  0  0  0
  187.6440  174.1290  135.1250 C   0  0  0  0  0  1  0  0  0  0  0  0
  187.8150  175.3580  136.0040 C   0  0  1  0  0  0  0  0  0  0  0  0
  185.8400  176.8820  136.0730 N   0  0  1  0  0  0  0  0  0  0  0  0
  185.7450  178.7970  140.0930 C   0  0  0  0  0  1  0  0  0  0  0  0
  186.3430  178.9860  141.4760 C   0  0  0  0  0  2  0  0  0  0  0  0
  186.9590  178.4320  144.3230 C   0  0  0  0  0  2  0  0  0  0  0  0
  187.4820  177.4170  145.1300 O   0  0  0  0  0  0  0  0  0  0  0  0
  187.6080  177.5350  147.4980 C   0  0  0  0  0  1  0  0  0  0  0  0
  188.1210  178.0870  146.1760 C   0  0  1  0  0  3  0  0  0  0  0  0
  191.0280  176.0450  147.1870 C   0  0  2  0  0  3  0  0  0  0  0  0
  189.9930  176.7030  145.2170 C   0  0  2  0  0  3  0  0  0  0  0  0
  190.3810  177.6520  147.7170 S   0  0  0  0  0  0  0  0  0  0  0  0
  192.3670  175.7890  147.8460 C   0  0  0  0  0  1  0  0  0  0  0  0
  189.6420  177.9160  146.0730 C   0  0  2  0  0  3  0  0  0  0  0  0
  191.1870  176.0610  145.7440 N   0  0  0  0  0  2  0  0  0  0  0  0
  189.1850  176.3120  142.8990 C   0  0  0  0  0  3  0  0  0  0  0  0
  190.1580  177.0730  143.7420 C   0  0  2  0  0  3  0  0  0  0  0  0
  191.0960  177.8010  140.9780 C   0  0  0  0  0  3  0  0  0  0  0  0
  191.5720  176.9180  143.2650 C   0  0  0  0  0  3  0  0  0  0  0  0
  191.9750  177.2880  142.0480 C   0  0  0  0  0  3  0  0  0  0  0  0
  189.0150  176.5360  141.5950 C   0  0  0  0  0  3  0  0  0  0  0  0
  189.8120  177.4760  140.7800 C   0  0  0  0  0  3  0  0  0  0  0  0
  180.4220  178.5010  139.5080 O   0  0  0  0  0  0  0  0  0  0  0  0
  180.2640  179.5070  138.5110 C   0  0  0  0  0  2  0  0  0  0  0  0
  181.4860  179.5490  137.6120 C   0  0  0  0  0  1  0  0  0  0  0  0
  1 31  1  1  0  0  0
  1  2  1  0  0  0  0
  2  5  1  0  0  0  0
  3  6  2  0  0  0  0
  4  5  1  0  0  0  0
  6 10  1  0  0  0  0
  6  8  1  0  0  0  0
  7 12  2  0  0  0  0
  8 30  1  6  0  0  0
  8  1  1  0  0  0  0
  9 11  2  0  0  0  0
 10 12  1  6  0  0  0
 10 14  1  0  0  0  0
 11  7  1  0  0  0  0
 11  3  1  0  0  0  0
 13  9  2  0  0  0  0
 14  4  1  0  0  0  0
 15 18  1  0  0  0  0
 15 13  1  1  0  0  0
 16 15  1  0  0  0  0
 17 19  1  6  0  0  0
 17 18  1  0  0  0  0
 19 16  1  0  0  0  0
 21 20  1  0  0  0  0
 25 22  1  1  0  0  0
 25 21  1  0  0  0  0
 25 27  1  0  0  0  0
 27 26  1  6  0  0  0
 27 24  1  0  0  0  0
 27 23  1  0  0  0  0
 28 20  1  1  0  0  0
 28 24  1  0  0  0  0
 28 17  1  0  0  0  0
 29 30  1  0  0  0  0
 31 32  1  0  0  0  0
 32 34  1  0  0  0  0
 34 33  1  1  0  0  0
 35 37  1  0  0  0  0
 35 38  1  1  0  0  0
 36 40  1  1  0  0  0
 36 39  1  0  0  0  0
 39 34  1  1  0  0  0
 39 37  1  0  0  0  0
 40 35  1  0  0  0  0
 42 41  1  6  0  0  0
 42 36  1  0  0  0  0
 43 45  1  0  0  0  0
 44 42  1  0  0  0  0
 45 44  2  0  0  0  0
 46 41  2  0  0  0  0
 47 43  2  0  0  0  0
 47 46  1  0  0  0  0
 48  7  1  0  0  0  0
 49 48  1  0  0  0  0
 50 49  1  0  0  0  0
M  END
>  <MODEL>
6

>  <REMARK>
 VINA RESULT:      -7.2      3.286      5.767
  Name = 
  10 active torsions:
  status: ('A' for Active; 'I' for Inactive)
    1  A    between atoms: C_1  and  C_39
    2  A    between atoms: C_6  and  C_34
    3  A    between atoms: C_12  and  O_42
    4  A    between atoms: C_14  and  O_42
    5  A    between atoms: C_15  and  C_37
    6  A    between atoms: C_17  and  C_22
    7  A    between atoms: N_18  and  N_50
    8  A    between atoms: C_35  and  C_41
    9  A    between atoms: C_35  and  O_47
   10  A    between atoms: C_39  and  O_47
                            x       y       z     vdW  Elec       q    Type
                         _______ _______ _______ _____ _____    ______ ____

>  <TORSDO>
F 10

$$$$
=
 OpenBabel10232411173D

 50 55  0  0  1  0  0  0  0  0999 V2000
  187.8250  177.9310  135.8360 C   0  0  1  0  0  3  0  0  0  0  0  0
  186.7530  178.1420  134.7620 C   0  0  0  0  0  2  0  0  0  0  0  0
  185.9560  177.8200  138.5080 C   0  0  0  0  0  3  0  0  0  0  0  0
  184.8360  177.0150  134.3730 C   0  0  0  0  0  2  0  0  0  0  0  0
  186.2370  176.9080  134.3460 O   0  0  0  0  0  0  0  0  0  0  0  0
  186.0900  177.0070  137.4480 C   0  0  0  0  0  0  0  0  0  0  0  0
  183.6710  176.8370  138.9720 C   0  0  0  0  0  0  0  0  0  0  0  0
  187.4420  176.7990  136.8080 C   0  0  2  0  0  3  0  0  0  0  0  0
  184.5420  178.7240  140.2190 C   0  0  0  0  0  0  0  0  0  0  0  0
  184.8760  176.3160  136.8490 C   0  0  1  0  0  3  0  0  0  0  0  0
  184.6720  177.8960  139.2200 C   0  0  0  0  0  0  0  0  0  0  0  0
  183.8120  176.0570  137.8880 C   0  0  0  0  0  3  0  0  0  0  0  0
  184.4130  179.5470  141.2230 C   0  0  0  0  0  3  0  0  0  0  0  0
  184.2570  177.2170  135.7830 C   0  0  0  0  0  2  0  0  0  0  0  0
  185.2430  179.3600  142.4440 C   0  0  1  0  0  3  0  0  0  0  0  0
  184.6250  178.3250  143.3360 C   0  0  0  0  0  2  0  0  0  0  0  0
  186.8600  177.5950  142.8690 N   0  0  2  0  0  0  0  0  0  0  0  0
  186.6060  178.8070  142.0760 C   0  0  0  0  0  2  0  0  0  0  0  0
  185.8130  177.5910  143.8950 C   0  0  0  0  0  2  0  0  0  0  0  0
  187.9910  177.2310  144.8920 C   0  0  0  0  0  2  0  0  0  0  0  0
  189.3080  177.3740  145.6750 C   0  0  0  0  0  2  0  0  0  0  0  0
  191.6890  177.5970  145.4530 O   0  0  0  0  0  1  0  0  0  0  0  0
  190.9920  175.6420  143.6830 O   0  0  0  0  0  1  0  0  0  0  0  0
  189.0710  176.8000  142.8610 C   0  0  0  0  0  2  0  0  0  0  0  0
  190.4830  177.7410  144.7620 C   0  0  1  0  0  3  0  0  0  0  0  0
  191.3700  177.6290  142.4300 C   0  0  0  0  0  1  0  0  0  0  0  0
  190.4860  176.9280  143.4500 C   0  0  1  0  0  0  0  0  0  0  0  0
  188.1200  177.7190  143.5080 N   0  0  1  0  0  0  0  0  0  0  0  0
  188.8180  177.7960  138.6490 C   0  0  0  0  0  1  0  0  0  0  0  0
  188.5340  176.5390  137.8470 C   0  0  0  0  0  2  0  0  0  0  0  0
  189.1480  177.6120  135.1520 C   0  0  0  0  0  2  0  0  0  0  0  0
  189.3310  176.2270  135.0710 O   0  0  0  0  0  0  0  0  0  0  0  0
  191.3730  176.4540  136.2600 C   0  0  0  0  0  1  0  0  0  0  0  0
  190.7110  176.0560  134.9490 C   0  0  1  0  0  3  0  0  0  0  0  0
  192.8900  173.1680  135.6900 C   0  0  2  0  0  3  0  0  0  0  0  0
  190.6230  173.6630  135.7250 C   0  0  2  0  0  3  0  0  0  0  0  0
  192.8330  174.3820  134.3460 S   0  0  0  0  0  0  0  0  0  0  0  0
  193.9100  172.0960  135.3680 C   0  0  0  0  0  1  0  0  0  0  0  0
  191.0420  174.6010  134.5960 C   0  0  2  0  0  3  0  0  0  0  0  0
  191.5760  172.5680  135.8300 N   0  0  0  0  0  2  0  0  0  0  0  0
  188.4640  173.1500  136.8440 C   0  0  0  0  0  3  0  0  0  0  0  0
  189.1940  173.1490  135.5390 C   0  0  2  0  0  3  0  0  0  0  0  0
  186.6530  171.7300  134.7800 C   0  0  0  0  0  3  0  0  0  0  0  0
  189.1480  171.8130  134.8590 C   0  0  0  0  0  3  0  0  0  0  0  0
  188.0100  171.2210  134.4920 C   0  0  0  0  0  3  0  0  0  0  0  0
  187.1630  172.8800  136.9540 C   0  0  0  0  0  3  0  0  0  0  0  0
  186.2840  172.4490  135.8470 C   0  0  0  0  0  3  0  0  0  0  0  0
  182.6160  176.6510  139.8770 O   0  0  0  0  0  0  0  0  0  0  0  0
  181.2440  176.6380  139.4930 C   0  0  0  0  0  2  0  0  0  0  0  0
  180.6950  175.2240  139.5620 C   0  0  0  0  0  1  0  0  0  0  0  0
  1 31  1  6  0  0  0
  1  8  1  0  0  0  0
  2  1  1  0  0  0  0
  3 11  1  0  0  0  0
  4 14  1  0  0  0  0
  5  4  1  0  0  0  0
  5  2  1  0  0  0  0
  6  3  2  0  0  0  0
  7 11  1  0  0  0  0
  7 48  1  0  0  0  0
  8  6  1  0  0  0  0
  8 30  1  1  0  0  0
  9 13  2  0  0  0  0
 10 14  1  6  0  0  0
 10  6  1  0  0  0  0
 10 12  1  0  0  0  0
 11  9  2  0  0  0  0
 12  7  2  0  0  0  0
 15 13  1  6  0  0  0
 15 16  1  0  0  0  0
 16 19  1  0  0  0  0
 17 18  1  6  0  0  0
 17 28  1  0  0  0  0
 17 19  1  0  0  0  0
 18 15  1  0  0  0  0
 20 21  1  0  0  0  0
 24 27  1  0  0  0  0
 25 22  1  1  0  0  0
 25 21  1  0  0  0  0
 27 26  1  6  0  0  0
 27 23  1  0  0  0  0
 27 25  1  0  0  0  0
 28 24  1  6  0  0  0
 28 20  1  0  0  0  0
 30 29  1  0  0  0  0
 32 31  1  0  0  0  0
 34 32  1  0  0  0  0
 34 33  1  1  0  0  0
 35 38  1  6  0  0  0
 35 40  1  0  0  0  0
 36 40  1  6  0  0  0
 37 39  1  0  0  0  0
 37 35  1  0  0  0  0
 39 34  1  1  0  0  0
 39 36  1  0  0  0  0
 41 46  2  0  0  0  0
 42 44  1  1  0  0  0
 42 36  1  0  0  0  0
 42 41  1  0  0  0  0
 43 47  2  0  0  0  0
 45 43  1  0  0  0  0
 45 44  2  0  0  0  0
 47 46  1  0  0  0  0
 49 50  1  0  0  0  0
 49 48  1  0  0  0  0
M  END
>  <MODEL>
7

>  <REMARK>
 VINA RESULT:      -7.0      2.730      8.640
  Name = 
  10 active torsions:
  status: ('A' for Active; 'I' for Inactive)
    1  A    between atoms: C_1  and  C_39
    2  A    between atoms: C_6  and  C_34
    3  A    between atoms: C_12  and  O_42
    4  A    between atoms: C_14  and  O_42
    5  A    between atoms: C_15  and  C_37
    6  A    between atoms: C_17  and  C_22
    7  A    between atoms: N_18  and  N_50
    8  A    between atoms: C_35  and  C_41
    9  A    between atoms: C_35  and  O_47
   10  A    between atoms: C_39  and  O_47
                            x       y       z     vdW  Elec       q    Type
                         _______ _______ _______ _____ _____    ______ ____

>  <TORSDO>
F 10

$$$$
=
 OpenBabel10232411173D

 50 55  0  0  1  0  0  0  0  0999 V2000
  189.5870  177.2390  136.8860 C   0  0  1  0  0  3  0  0  0  0  0  0
  189.4390  176.7560  135.4390 C   0  0  0  0  0  2  0  0  0  0  0  0
  186.4570  177.2770  137.8070 C   0  0  0  0  0  3  0  0  0  0  0  0
  188.3180  174.9860  134.5980 C   0  0  0  0  0  2  0  0  0  0  0  0
  189.4140  175.3560  135.3970 O   0  0  0  0  0  0  0  0  0  0  0  0
  187.3060  176.2880  137.4810 C   0  0  0  0  0  0  0  0  0  0  0  0
  184.4970  175.7570  137.3080 C   0  0  0  0  0  0  0  0  0  0  0  0
  188.7650  176.3750  137.8600 C   0  0  2  0  0  3  0  0  0  0  0  0
  184.2080  178.1010  137.8520 C   0  0  0  0  0  0  0  0  0  0  0  0
  186.8200  175.0860  136.6880 C   0  0  1  0  0  3  0  0  0  0  0  0
  185.0160  177.1150  137.5740 C   0  0  0  0  0  0  0  0  0  0  0  0
  185.3630  174.7930  136.9550 C   0  0  0  0  0  3  0  0  0  0  0  0
  183.3990  179.0840  138.1370 C   0  0  0  0  0  3  0  0  0  0  0  0
  186.9560  175.3780  135.1950 C   0  0  0  0  0  2  0  0  0  0  0  0
  183.2650  179.5490  139.5450 C   0  0  1  0  0  3  0  0  0  0  0  0
  181.9340  179.1380  140.1000 C   0  0  0  0  0  2  0  0  0  0  0  0
  183.6040  178.2390  141.5650 N   0  0  2  0  0  0  0  0  0  0  0  0
  184.2920  178.8650  140.4260 C   0  0  0  0  0  2  0  0  0  0  0  0
  182.2450  178.7860  141.5290 C   0  0  0  0  0  2  0  0  0  0  0  0
  183.2190  178.6720  143.8380 C   0  0  0  0  0  2  0  0  0  0  0  0
  183.8060  179.1640  145.1730 C   0  0  0  0  0  2  0  0  0  0  0  0
  185.8420  179.4550  146.4140 O   0  0  0  0  0  1  0  0  0  0  0  0
  186.0330  176.9670  145.3110 O   0  0  0  0  0  1  0  0  0  0  0  0
  185.2110  177.6400  143.1710 C   0  0  0  0  0  2  0  0  0  0  0  0
  185.3340  179.2710  145.1250 C   0  0  1  0  0  3  0  0  0  0  0  0
  187.4070  178.4200  144.0220 C   0  0  0  0  0  1  0  0  0  0  0  0
  185.9890  178.0570  144.4310 C   0  0  1  0  0  0  0  0  0  0  0  0
  184.2300  178.6600  142.7670 N   0  0  1  0  0  0  0  0  0  0  0  0
  188.9720  178.3240  139.4210 C   0  0  0  0  0  1  0  0  0  0  0  0
  188.9540  176.8100  139.3150 C   0  0  0  0  0  2  0  0  0  0  0  0
  191.0620  177.2020  137.2660 C   0  0  0  0  0  2  0  0  0  0  0  0
  191.7380  176.2490  136.4980 O   0  0  0  0  0  0  0  0  0  0  0  0
  192.9760  176.8540  138.4310 C   0  0  0  0  0  1  0  0  0  0  0  0
  193.0030  176.1540  137.0810 C   0  0  1  0  0  3  0  0  0  0  0  0
  193.2540  172.8660  135.4170 C   0  0  2  0  0  3  0  0  0  0  0  0
  194.6770  174.3830  136.4470 C   0  0  2  0  0  3  0  0  0  0  0  0
  192.1040  173.5740  136.6240 S   0  0  0  0  0  0  0  0  0  0  0  0
  192.9560  171.3940  135.2270 C   0  0  0  0  0  1  0  0  0  0  0  0
  193.4100  174.6840  137.2430 C   0  0  2  0  0  3  0  0  0  0  0  0
  194.6080  173.0320  135.9120 N   0  0  0  0  0  2  0  0  0  0  0  0
  197.0500  173.7260  136.7840 C   0  0  0  0  0  3  0  0  0  0  0  0
  195.9400  174.5940  137.2840 C   0  0  2  0  0  3  0  0  0  0  0  0
  198.0200  175.0350  139.4110 C   0  0  0  0  0  3  0  0  0  0  0  0
  195.6920  174.4170  138.7530 C   0  0  0  0  0  3  0  0  0  0  0  0
  196.6180  174.6600  139.6820 C   0  0  0  0  0  3  0  0  0  0  0  0
  198.3000  173.8030  137.2400 C   0  0  0  0  0  3  0  0  0  0  0  0
  198.7520  174.6640  138.3520 C   0  0  0  0  0  3  0  0  0  0  0  0
  183.1270  175.4940  137.4530 O   0  0  0  0  0  0  0  0  0  0  0  0
  182.4810  175.3630  138.7160 C   0  0  0  0  0  2  0  0  0  0  0  0
  181.0720  175.9230  138.6440 C   0  0  0  0  0  1  0  0  0  0  0  0
  1 31  1  1  0  0  0
  1  8  1  0  0  0  0
  2  1  1  0  0  0  0
  4 14  1  0  0  0  0
  4  5  1  0  0  0  0
  5  2  1  0  0  0  0
  6  3  2  0  0  0  0
  6  8  1  0  0  0  0
  7 48  1  0  0  0  0
  7 11  1  0  0  0  0
  8 30  1  1  0  0  0
  9 13  2  0  0  0  0
 10 14  1  6  0  0  0
 10 12  1  0  0  0  0
 10  6  1  0  0  0  0
 11  3  1  0  0  0  0
 11  9  2  0  0  0  0
 12  7  2  0  0  0  0
 15 13  1  6  0  0  0
 15 16  1  0  0  0  0
 15 18  1  0  0  0  0
 16 19  1  0  0  0  0
 17 18  1  6  0  0  0
 17 28  1  0  0  0  0
 19 17  1  0  0  0  0
 20 21  1  0  0  0  0
 24 27  1  0  0  0  0
 25 21  1  0  0  0  0
 25 22  1  1  0  0  0
 27 26  1  6  0  0  0
 27 25  1  0  0  0  0
 27 23  1  0  0  0  0
 28 24  1  1  0  0  0
 28 20  1  0  0  0  0
 30 29  1  0  0  0  0
 32 34  1  0  0  0  0
 32 31  1  0  0  0  0
 34 33  1  1  0  0  0
 35 38  1  1  0  0  0
 35 40  1  0  0  0  0
 35 37  1  0  0  0  0
 36 40  1  1  0  0  0
 36 39  1  0  0  0  0
 36 42  1  0  0  0  0
 37 39  1  0  0  0  0
 39 34  1  6  0  0  0
 41 46  2  0  0  0  0
 42 41  1  6  0  0  0
 42 44  1  0  0  0  0
 43 45  1  0  0  0  0
 44 45  2  0  0  0  0
 46 47  1  0  0  0  0
 47 43  2  0  0  0  0
 48 49  1  0  0  0  0
 50 49  1  0  0  0  0
M  END
>  <MODEL>
8

>  <REMARK>
 VINA RESULT:      -6.5      3.105      9.580
  Name = 
  10 active torsions:
  status: ('A' for Active; 'I' for Inactive)
    1  A    between atoms: C_1  and  C_39
    2  A    between atoms: C_6  and  C_34
    3  A    between atoms: C_12  and  O_42
    4  A    between atoms: C_14  and  O_42
    5  A    between atoms: C_15  and  C_37
    6  A    between atoms: C_17  and  C_22
    7  A    between atoms: N_18  and  N_50
    8  A    between atoms: C_35  and  C_41
    9  A    between atoms: C_35  and  O_47
   10  A    between atoms: C_39  and  O_47
                            x       y       z     vdW  Elec       q    Type
                         _______ _______ _______ _____ _____    ______ ____

>  <TORSDO>
F 10

$$$$
=
 OpenBabel10232411173D

 50 55  0  0  1  0  0  0  0  0999 V2000
  191.4990  176.5030  136.9780 C   0  0  1  0  0  3  0  0  0  0  0  0
  191.4950  175.9560  135.5470 C   0  0  0  0  0  2  0  0  0  0  0  0
  188.2920  176.5960  137.5730 C   0  0  0  0  0  3  0  0  0  0  0  0
  190.4480  174.1550  134.6760 C   0  0  0  0  0  2  0  0  0  0  0  0
  191.4600  174.5550  135.5650 O   0  0  0  0  0  0  0  0  0  0  0  0
  189.1600  175.5900  137.3800 C   0  0  0  0  0  0  0  0  0  0  0  0
  186.3790  175.0640  136.9460 C   0  0  0  0  0  0  0  0  0  0  0  0
  190.5740  175.6870  137.9010 C   0  0  2  0  0  3  0  0  0  0  0  0
  186.0570  177.4310  137.3530 C   0  0  0  0  0  0  0  0  0  0  0  0
  188.7470  174.3550  136.5960 C   0  0  1  0  0  3  0  0  0  0  0  0
  186.8800  176.4300  137.2020 C   0  0  0  0  0  0  0  0  0  0  0  0
  187.2680  174.0810  136.7260 C   0  0  0  0  0  3  0  0  0  0  0  0
  185.2320  178.4290  137.5100 C   0  0  0  0  0  3  0  0  0  0  0  0
  189.0370  174.5790  135.1130 C   0  0  0  0  0  2  0  0  0  0  0  0
  184.9600  178.9580  138.8750 C   0  0  1  0  0  3  0  0  0  0  0  0
  183.4960  179.2330  139.0390 C   0  0  0  0  0  2  0  0  0  0  0  0
  184.1200  177.7200  140.7910 N   0  0  2  0  0  0  0  0  0  0  0  0
  185.2900  177.9110  139.9210 C   0  0  0  0  0  2  0  0  0  0  0  0
  183.2230  178.8320  140.4640 C   0  0  0  0  0  2  0  0  0  0  0  0
  185.9600  178.1870  142.1680 C   0  0  0  0  0  2  0  0  0  0  0  0
  186.4970  178.3000  143.6060 C   0  0  0  0  0  2  0  0  0  0  0  0
  185.8680  178.6660  145.8950 O   0  0  0  0  0  1  0  0  0  0  0  0
  184.4740  180.5290  144.4700 O   0  0  0  0  0  1  0  0  0  0  0  0
  183.8450  179.0150  142.7320 C   0  0  0  0  0  2  0  0  0  0  0  0
  185.3690  178.2930  144.6430 C   0  0  1  0  0  3  0  0  0  0  0  0
  182.9540  178.7900  145.0370 C   0  0  0  0  0  1  0  0  0  0  0  0
  184.1780  179.1820  144.2250 C   0  0  1  0  0  0  0  0  0  0  0  0
  184.5270  177.8500  142.1440 N   0  0  1  0  0  0  0  0  0  0  0  0
  190.4150  177.6900  139.3980 C   0  0  0  0  0  1  0  0  0  0  0  0
  190.6190  176.1860  139.3470 C   0  0  0  0  0  2  0  0  0  0  0  0
  192.9270  176.4770  137.5080 C   0  0  0  0  0  2  0  0  0  0  0  0
  193.2970  175.1710  137.8440 O   0  0  0  0  0  0  0  0  0  0  0  0
  195.2050  174.3870  139.0180 C   0  0  0  0  0  1  0  0  0  0  0  0
  194.6920  175.1790  137.8240 C   0  0  1  0  0  3  0  0  0  0  0  0
  197.6340  174.7570  135.6310 C   0  0  2  0  0  3  0  0  0  0  0  0
  196.1490  173.4040  136.7920 C   0  0  2  0  0  3  0  0  0  0  0  0
  196.1610  175.8100  135.5620 S   0  0  0  0  0  0  0  0  0  0  0  0
  198.4230  174.8970  134.3460 C   0  0  0  0  0  1  0  0  0  0  0  0
  195.2140  174.5780  136.5130 C   0  0  2  0  0  3  0  0  0  0  0  0
  197.2130  173.3790  135.7990 N   0  0  0  0  0  2  0  0  0  0  0  0
  196.2660  171.0000  137.4110 C   0  0  0  0  0  3  0  0  0  0  0  0
  195.3950  172.0740  136.8430 C   0  0  2  0  0  3  0  0  0  0  0  0
  193.6850  169.6420  136.3860 C   0  0  0  0  0  3  0  0  0  0  0  0
  194.8100  171.6940  135.5150 C   0  0  0  0  0  3  0  0  0  0  0  0
  194.0180  170.6340  135.3440 C   0  0  0  0  0  3  0  0  0  0  0  0
  195.8250  169.7740  137.6940 C   0  0  0  0  0  3  0  0  0  0  0  0
  194.4670  169.2670  137.4060 C   0  0  0  0  0  3  0  0  0  0  0  0
  184.9990  174.8140  136.9620 O   0  0  0  0  0  0  0  0  0  0  0  0
  184.4050  173.7270  137.6670 C   0  0  0  0  0  2  0  0  0  0  0  0
  184.0870  172.5940  136.7080 C   0  0  0  0  0  1  0  0  0  0  0  0
  1 31  1  1  0  0  0
  1  8  1  0  0  0  0
  2  5  1  0  0  0  0
  2  1  1  0  0  0  0
  4 14  1  0  0  0  0
  4  5  1  0  0  0  0
  6  3  2  0  0  0  0
  6  8  1  0  0  0  0
  7 48  1  0  0  0  0
  7 11  1  0  0  0  0
  8 30  1  1  0  0  0
  9 13  2  0  0  0  0
 10 14  1  6  0  0  0
 10 12  1  0  0  0  0
 10  6  1  0  0  0  0
 11  9  2  0  0  0  0
 11  3  1  0  0  0  0
 12  7  2  0  0  0  0
 15 13  1  6  0  0  0
 15 16  1  0  0  0  0
 15 18  1  0  0  0  0
 16 19  1  0  0  0  0
 17 18  1  6  0  0  0
 17 28  1  0  0  0  0
 19 17  1  0  0  0  0
 20 21  1  0  0  0  0
 21 25  1  0  0  0  0
 24 27  1  0  0  0  0
 25 22  1  1  0  0  0
 27 23  1  0  0  0  0
 27 25  1  0  0  0  0
 27 26  1  1  0  0  0
 28 20  1  6  0  0  0
 28 24  1  0  0  0  0
 30 29  1  0  0  0  0
 31 32  1  0  0  0  0
 34 32  1  0  0  0  0
 34 33  1  1  0  0  0
 35 38  1  6  0  0  0
 35 40  1  0  0  0  0
 36 40  1  6  0  0  0
 36 42  1  0  0  0  0
 37 35  1  0  0  0  0
 37 39  1  0  0  0  0
 39 36  1  0  0  0  0
 39 34  1  1  0  0  0
 41 46  2  0  0  0  0
 42 44  1  6  0  0  0
 42 41  1  0  0  0  0
 43 47  2  0  0  0  0
 45 44  2  0  0  0  0
 45 43  1  0  0  0  0
 47 46  1  0  0  0  0
 48 49  1  0  0  0  0
 50 49  1  0  0  0  0
M  END
>  <MODEL>
9

>  <REMARK>
 VINA RESULT:      -5.8      3.314      9.848
  Name = 
  10 active torsions:
  status: ('A' for Active; 'I' for Inactive)
    1  A    between atoms: C_1  and  C_39
    2  A    between atoms: C_6  and  C_34
    3  A    between atoms: C_12  and  O_42
    4  A    between atoms: C_14  and  O_42
    5  A    between atoms: C_15  and  C_37
    6  A    between atoms: C_17  and  C_22
    7  A    between atoms: N_18  and  N_50
    8  A    between atoms: C_35  and  C_41
    9  A    between atoms: C_35  and  O_47
   10  A    between atoms: C_39  and  O_47
                            x       y       z     vdW  Elec       q    Type
                         _______ _______ _______ _____ _____    ______ ____

>  <TORSDO>
F 10

$$$$
