=
 OpenBabel10222422113D

 29 34  0  0  1  0  0  0  0  0999 V2000
  187.5530  174.1730  135.9110 C   0  0  1  0  0  3  0  0  0  0  0  0
  191.4250  175.6670  138.1710 C   0  0  0  0  0  2  0  0  0  0  0  0
  188.5520  176.3330  135.5210 O   0  0  0  0  0  0  0  0  0  0  0  0
  192.4150  177.3660  139.6910 C   0  0  0  0  0  3  0  0  0  0  0  0
  185.6120  176.5860  136.2100 C   0  0  0  0  0  2  0  0  0  0  0  0
  188.0750  176.3930  143.7630 N   0  0  0  0  0  0  0  0  0  0  0  0
  189.0300  176.0030  142.8690 C   0  0  0  0  0  3  0  0  0  0  0  0
  189.8470  177.7430  139.6750 C   0  0  1  0  0  0  0  0  0  0  0  0
  184.1930  173.1980  135.7540 C   0  0  0  0  0  1  0  0  0  0  0  0
  187.2950  177.4970  143.5520 C   0  0  0  0  0  0  0  0  0  0  0  0
  186.3110  177.8640  144.5120 N   0  0  0  0  0  1  0  0  0  0  0  0
  192.5560  176.4850  138.6900 C   0  0  0  0  0  3  0  0  0  0  0  0
  185.1260  175.3290  135.4840 C   0  0  0  0  0  2  0  0  0  0  0  0
  187.4580  178.2700  142.3910 C   0  0  0  0  0  3  0  0  0  0  0  0
  187.9540  175.5340  136.5030 C   0  0  1  0  0  3  0  0  0  0  0  0
  188.6430  173.3070  135.9480 O   0  0  0  0  0  1  0  0  0  0  0  0
  186.7950  176.3260  137.1510 C   0  0  1  0  0  3  0  0  0  0  0  0
  188.7870  178.4710  140.3060 O   0  0  0  0  0  0  0  0  0  0  0  0
  188.4360  177.8600  141.4890 C   0  0  0  0  0  0  0  0  0  0  0  0
  188.5690  178.0610  137.5310 N   0  0  0  0  0  2  0  0  0  0  0  0
  189.2090  176.7600  141.7150 C   0  0  0  0  0  0  0  0  0  0  0  0
  191.1570  177.6990  140.4670 C   0  0  1  0  0  3  0  0  0  0  0  0
  190.2740  176.2800  135.7060 S   0  0  0  0  0  0  0  0  0  0  0  0
  186.3490  173.5200  136.6180 C   0  0  0  0  0  2  0  0  0  0  0  0
  190.1610  176.5370  140.5890 C   0  0  2  0  0  3  0  0  0  0  0  0
  189.6750  177.4380  138.1880 C   0  0  0  0  0  0  0  0  0  0  0  0
  187.2060  177.6400  137.8450 C   0  0  0  0  0  2  0  0  0  0  0  0
  185.0480  174.1830  136.3930 N   0  0  0  0  0  0  0  0  0  0  0  0
  190.4200  176.5410  137.4990 C   0  0  0  0  0  0  0  0  0  0  0  0
  1 16  1  1  0  0  0
  1 15  1  0  0  0  0
  1 24  1  0  0  0  0
  2 12  1  0  0  0  0
  3 23  1  0  0  0  0
  7  6  2  0  0  0  0
  8 26  1  6  0  0  0
  8 18  1  0  0  0  0
  8 22  1  0  0  0  0
  8 25  1  0  0  0  0
  9 28  1  0  0  0  0
 10  6  1  0  0  0  0
 10 11  1  0  0  0  0
 12  4  2  0  0  0  0
 13  5  1  0  0  0  0
 13 28  1  0  0  0  0
 14 10  2  0  0  0  0
 15  3  1  6  0  0  0
 15 17  1  0  0  0  0
 17  5  1  6  0  0  0
 17 27  1  0  0  0  0
 18 19  1  0  0  0  0
 19 21  2  0  0  0  0
 19 14  1  0  0  0  0
 20 27  1  0  0  0  0
 20 26  1  0  0  0  0
 21  7  1  0  0  0  0
 22  4  1  6  0  0  0
 22 25  1  0  0  0  0
 23 29  1  0  0  0  0
 25 21  1  1  0  0  0
 28 24  1  0  0  0  0
 29  2  1  0  0  0  0
 29 26  2  0  0  0  0
M  END
>  <MODEL>
1

>  <REMARK>
 VINA RESULT:      -7.4      0.000      0.000
  Name = 
  0 active torsions:
  status: ('A' for Active; 'I' for Inactive)
                            x       y       z     vdW  Elec       q    Type
                         _______ _______ _______ _____ _____    ______ ____

>  <TORSDO>
F 0

$$$$
=
 OpenBabel10222422113D

 29 34  0  0  1  0  0  0  0  0999 V2000
  188.5740  174.6410  136.8860 C   0  0  1  0  0  3  0  0  0  0  0  0
  190.8890  176.4010  140.6110 C   0  0  0  0  0  2  0  0  0  0  0  0
  189.6910  176.7780  136.8500 O   0  0  0  0  0  0  0  0  0  0  0  0
  191.0560  178.2460  142.2690 C   0  0  0  0  0  3  0  0  0  0  0  0
  186.7970  177.0330  135.9920 C   0  0  0  0  0  2  0  0  0  0  0  0
  185.2570  177.5500  143.7710 N   0  0  0  0  0  0  0  0  0  0  0  0
  186.5160  177.1010  143.4940 C   0  0  0  0  0  3  0  0  0  0  0  0
  188.8320  178.5700  140.9690 C   0  0  1  0  0  0  0  0  0  0  0  0
  185.6930  173.5920  135.1940 C   0  0  0  0  0  1  0  0  0  0  0  0
  184.7070  178.6160  143.1120 C   0  0  0  0  0  0  0  0  0  0  0  0
  183.3900  179.0460  143.4340 N   0  0  0  0  0  1  0  0  0  0  0  0
  191.6430  177.2840  141.5440 C   0  0  0  0  0  3  0  0  0  0  0  0
  186.6940  175.7090  135.2320 C   0  0  0  0  0  2  0  0  0  0  0  0
  185.4370  179.2880  142.1170 C   0  0  0  0  0  3  0  0  0  0  0  0
  188.6700  176.0560  137.4790 C   0  0  1  0  0  3  0  0  0  0  0  0
  189.4840  173.8020  137.5250 O   0  0  0  0  0  1  0  0  0  0  0  0
  187.3630  176.8790  137.4090 C   0  0  1  0  0  3  0  0  0  0  0  0
  187.6180  179.3300  140.9370 O   0  0  0  0  0  0  0  0  0  0  0  0
  186.7190  178.8190  141.8460 C   0  0  0  0  0  0  0  0  0  0  0  0
  188.7710  178.6750  138.4550 N   0  0  0  0  0  2  0  0  0  0  0  0
  187.2540  177.7580  142.5130 C   0  0  0  0  0  0  0  0  0  0  0  0
  189.5880  178.6210  142.3010 C   0  0  1  0  0  3  0  0  0  0  0  0
  191.1030  176.7740  137.8560 S   0  0  0  0  0  0  0  0  0  0  0  0
  187.1610  174.0300  136.9690 C   0  0  0  0  0  2  0  0  0  0  0  0
  188.6290  177.4550  142.0200 C   0  0  2  0  0  3  0  0  0  0  0  0
  189.4000  178.1340  139.6200 C   0  0  0  0  0  0  0  0  0  0  0  0
  187.4170  178.2570  138.1000 C   0  0  0  0  0  2  0  0  0  0  0  0
  186.1530  174.6450  136.0810 N   0  0  0  0  0  0  0  0  0  0  0  0
  190.3620  177.1940  139.4620 C   0  0  0  0  0  0  0  0  0  0  0  0
  1 24  1  0  0  0  0
  1 15  1  0  0  0  0
  1 16  1  1  0  0  0
  2 12  1  0  0  0  0
  3 23  1  0  0  0  0
  7  6  1  0  0  0  0
  8 26  1  6  0  0  0
  8 25  1  0  0  0  0
  8 22  1  0  0  0  0
  9 28  1  0  0  0  0
 10 11  1  0  0  0  0
 10  6  2  0  0  0  0
 12  4  2  0  0  0  0
 13  5  1  0  0  0  0
 13 28  1  0  0  0  0
 14 10  1  0  0  0  0
 15  3  1  6  0  0  0
 17  5  1  6  0  0  0
 17 15  1  0  0  0  0
 17 27  1  0  0  0  0
 18  8  1  0  0  0  0
 18 19  1  0  0  0  0
 19 14  2  0  0  0  0
 19 21  1  0  0  0  0
 20 26  1  0  0  0  0
 21  7  2  0  0  0  0
 22  4  1  6  0  0  0
 23 29  1  0  0  0  0
 25 22  1  0  0  0  0
 25 21  1  1  0  0  0
 27 20  1  0  0  0  0
 28 24  1  0  0  0  0
 29 26  2  0  0  0  0
 29  2  1  0  0  0  0
M  END
>  <MODEL>
2

>  <REMARK>
 VINA RESULT:      -6.7      1.542      2.115
  Name = 
  0 active torsions:
  status: ('A' for Active; 'I' for Inactive)
                            x       y       z     vdW  Elec       q    Type
                         _______ _______ _______ _____ _____    ______ ____

>  <TORSDO>
F 0

$$$$
=
 OpenBabel10222422113D

 29 34  0  0  1  0  0  0  0  0999 V2000
  184.4980  175.0270  137.0440 C   0  0  1  0  0  3  0  0  0  0  0  0
  188.5890  176.6430  138.7690 C   0  0  0  0  0  2  0  0  0  0  0  0
  185.4070  177.1840  136.4670 O   0  0  0  0  0  0  0  0  0  0  0  0
  189.7280  178.4040  140.1030 C   0  0  0  0  0  3  0  0  0  0  0  0
  182.5680  177.4240  137.4980 C   0  0  0  0  0  2  0  0  0  0  0  0
  185.9260  177.5170  144.7000 N   0  0  0  0  0  0  0  0  0  0  0  0
  186.7730  177.1080  143.7100 C   0  0  0  0  0  3  0  0  0  0  0  0
  187.1710  178.7490  140.3860 C   0  0  1  0  0  0  0  0  0  0  0  0
  181.1600  174.0060  137.3250 C   0  0  0  0  0  1  0  0  0  0  0  0
  185.1090  178.6030  144.5500 C   0  0  0  0  0  0  0  0  0  0  0  0
  184.2420  178.9900  145.6090 N   0  0  0  0  0  1  0  0  0  0  0  0
  189.7610  177.4920  139.1220 C   0  0  0  0  0  3  0  0  0  0  0  0
  182.0180  176.1380  136.8770 C   0  0  0  0  0  2  0  0  0  0  0  0
  185.1190  179.3390  143.3530 C   0  0  0  0  0  3  0  0  0  0  0  0
  184.9450  176.4110  137.5390 C   0  0  1  0  0  3  0  0  0  0  0  0
  185.5990  174.1750  136.9760 O   0  0  0  0  0  1  0  0  0  0  0  0
  183.8600  177.2100  138.2970 C   0  0  1  0  0  3  0  0  0  0  0  0
  186.1830  179.4850  141.1170 O   0  0  0  0  0  0  0  0  0  0  0  0
  185.9870  178.9100  142.3530 C   0  0  0  0  0  0  0  0  0  0  0  0
  185.6380  178.9790  138.4030 N   0  0  0  0  0  2  0  0  0  0  0  0
  186.7990  177.8280  142.5190 C   0  0  0  0  0  0  0  0  0  0  0  0
  188.5680  178.7480  141.0150 C   0  0  1  0  0  3  0  0  0  0  0  0
  187.1400  177.1590  136.4430 S   0  0  0  0  0  0  0  0  0  0  0  0
  183.3990  174.3840  137.9120 C   0  0  0  0  0  2  0  0  0  0  0  0
  187.6120  177.5780  141.2940 C   0  0  2  0  0  3  0  0  0  0  0  0
  186.8260  178.3920  138.9410 C   0  0  0  0  0  0  0  0  0  0  0  0
  184.3300  178.5520  138.8940 C   0  0  0  0  0  2  0  0  0  0  0  0
  182.0690  175.0220  137.8240 N   0  0  0  0  0  0  0  0  0  0  0  0
  187.4970  177.4810  138.1960 C   0  0  0  0  0  0  0  0  0  0  0  0
  1 16  1  1  0  0  0
  1 15  1  0  0  0  0
  1 24  1  0  0  0  0
  2 12  1  0  0  0  0
  7  6  2  0  0  0  0
  8 26  1  6  0  0  0
  8 22  1  0  0  0  0
  8 18  1  0  0  0  0
  8 25  1  0  0  0  0
  9 28  1  0  0  0  0
 10  6  1  0  0  0  0
 10 11  1  0  0  0  0
 12  4  2  0  0  0  0
 13  5  1  0  0  0  0
 13 28  1  0  0  0  0
 14 10  2  0  0  0  0
 15  3  1  6  0  0  0
 15 17  1  0  0  0  0
 17  5  1  6  0  0  0
 17 27  1  0  0  0  0
 18 19  1  0  0  0  0
 19 21  2  0  0  0  0
 19 14  1  0  0  0  0
 20 27  1  0  0  0  0
 20 26  1  0  0  0  0
 21  7  1  0  0  0  0
 22  4  1  6  0  0  0
 22 25  1  0  0  0  0
 23  3  1  0  0  0  0
 23 29  1  0  0  0  0
 25 21  1  1  0  0  0
 28 24  1  0  0  0  0
 29  2  1  0  0  0  0
 29 26  2  0  0  0  0
M  END
>  <MODEL>
3

>  <REMARK>
 VINA RESULT:      -6.4      2.393      3.086
  Name = 
  0 active torsions:
  status: ('A' for Active; 'I' for Inactive)
                            x       y       z     vdW  Elec       q    Type
                         _______ _______ _______ _____ _____    ______ ____

>  <TORSDO>
F 0

$$$$
=
 OpenBabel10222422113D

 29 34  0  0  1  0  0  0  0  0999 V2000
  183.8290  175.5810  137.2940 C   0  0  1  0  0  3  0  0  0  0  0  0
  188.5020  176.2840  137.3280 C   0  0  0  0  0  2  0  0  0  0  0  0
  184.8520  177.6530  136.6050 O   0  0  0  0  0  0  0  0  0  0  0  0
  190.3940  177.6140  138.2370 C   0  0  0  0  0  3  0  0  0  0  0  0
  182.7450  178.1170  138.7320 C   0  0  0  0  0  2  0  0  0  0  0  0
  188.5800  176.5150  143.8820 N   0  0  0  0  0  0  0  0  0  0  0  0
  188.8770  176.1630  142.5970 C   0  0  0  0  0  3  0  0  0  0  0  0
  188.2710  178.2670  139.5800 C   0  0  1  0  0  0  0  0  0  0  0  0
  180.7320  175.0130  138.8260 C   0  0  0  0  0  1  0  0  0  0  0  0
  188.0020  177.7160  144.1880 C   0  0  0  0  0  0  0  0  0  0  0  0
  187.7100  178.0380  145.5430 N   0  0  0  0  0  1  0  0  0  0  0  0
  189.8620  176.8860  137.2460 C   0  0  0  0  0  3  0  0  0  0  0  0
  181.7540  177.0460  138.2710 C   0  0  0  0  0  2  0  0  0  0  0  0
  187.6930  178.6340  143.1710 C   0  0  0  0  0  3  0  0  0  0  0  0
  184.6990  176.7840  137.6910 C   0  0  1  0  0  3  0  0  0  0  0  0
  184.6250  174.6050  136.6970 O   0  0  0  0  0  1  0  0  0  0  0  0
  184.1750  177.5900  138.9030 C   0  0  1  0  0  3  0  0  0  0  0  0
  187.8110  179.0020  140.7210 O   0  0  0  0  0  0  0  0  0  0  0  0
  188.0010  178.2610  141.8660 C   0  0  0  0  0  0  0  0  0  0  0  0
  186.1680  179.0440  138.4370 N   0  0  0  0  0  2  0  0  0  0  0  0
  188.5810  177.0620  141.5770 C   0  0  0  0  0  0  0  0  0  0  0  0
  189.7720  177.9610  139.5750 C   0  0  1  0  0  3  0  0  0  0  0  0
  186.3980  177.3850  135.8670 S   0  0  0  0  0  0  0  0  0  0  0  0
  183.0490  174.9640  138.4710 C   0  0  0  0  0  2  0  0  0  0  0  0
  188.7880  176.9090  140.1080 C   0  0  2  0  0  3  0  0  0  0  0  0
  187.3290  178.2120  138.3790 C   0  0  0  0  0  0  0  0  0  0  0  0
  185.0960  178.7310  139.3800 C   0  0  0  0  0  2  0  0  0  0  0  0
  181.9460  175.7900  139.0010 N   0  0  0  0  0  0  0  0  0  0  0  0
  187.4630  177.3540  137.3390 C   0  0  0  0  0  0  0  0  0  0  0  0
  1 16  1  1  0  0  0
  1 15  1  0  0  0  0
  1 24  1  0  0  0  0
  2 29  1  0  0  0  0
  6 10  1  0  0  0  0
  7  6  2  0  0  0  0
  8 26  1  6  0  0  0
  8 25  1  0  0  0  0
  8 18  1  0  0  0  0
  9 28  1  0  0  0  0
 10 11  1  0  0  0  0
 12  2  1  0  0  0  0
 12  4  2  0  0  0  0
 13  5  1  0  0  0  0
 13 28  1  0  0  0  0
 14 10  2  0  0  0  0
 15  3  1  6  0  0  0
 15 17  1  0  0  0  0
 17  5  1  6  0  0  0
 17 27  1  0  0  0  0
 18 19  1  0  0  0  0
 19 14  1  0  0  0  0
 20 27  1  0  0  0  0
 21 19  2  0  0  0  0
 21  7  1  0  0  0  0
 22  4  1  6  0  0  0
 22  8  1  0  0  0  0
 22 25  1  0  0  0  0
 23  3  1  0  0  0  0
 23 29  1  0  0  0  0
 24 28  1  0  0  0  0
 25 21  1  1  0  0  0
 26 20  1  0  0  0  0
 29 26  2  0  0  0  0
M  END
>  <MODEL>
4

>  <REMARK>
 VINA RESULT:      -6.1      2.580      3.024
  Name = 
  0 active torsions:
  status: ('A' for Active; 'I' for Inactive)
                            x       y       z     vdW  Elec       q    Type
                         _______ _______ _______ _____ _____    ______ ____

>  <TORSDO>
F 0

$$$$
=
 OpenBabel10222422113D

 29 34  0  0  1  0  0  0  0  0999 V2000
  187.1770  177.4160  143.7890 C   0  0  1  0  0  3  0  0  0  0  0  0
  182.6130  178.1140  142.7830 C   0  0  0  0  0  2  0  0  0  0  0  0
  186.3120  179.5250  143.0010 O   0  0  0  0  0  0  0  0  0  0  0  0
  180.9380  178.7060  141.0450 C   0  0  0  0  0  3  0  0  0  0  0  0
  188.6140  178.5660  141.2810 C   0  0  0  0  0  2  0  0  0  0  0  0
  183.0710  174.4110  137.3890 N   0  0  0  0  0  0  0  0  0  0  0  0
  182.6410  174.9010  138.5880 C   0  0  0  0  0  3  0  0  0  0  0  0
  183.2130  178.3630  139.8440 C   0  0  1  0  0  0  0  0  0  0  0  0
  190.3140  175.9490  143.2700 C   0  0  0  0  0  1  0  0  0  0  0  0
  183.7860  175.1760  136.5090 C   0  0  0  0  0  0  0  0  0  0  0  0
  184.2130  174.6220  135.2710 N   0  0  0  0  0  1  0  0  0  0  0  0
  181.3160  178.6910  142.3300 C   0  0  0  0  0  3  0  0  0  0  0  0
  189.4570  177.9460  142.3980 C   0  0  0  0  0  2  0  0  0  0  0  0
  184.1040  176.5080  136.8230 C   0  0  0  0  0  3  0  0  0  0  0  0
  186.4630  178.1760  142.6590 C   0  0  1  0  0  3  0  0  0  0  0  0
  186.2450  177.0120  144.7430 O   0  0  0  0  0  1  0  0  0  0  0  0
  187.1570  178.0870  141.2800 C   0  0  1  0  0  3  0  0  0  0  0  0
  183.8300  178.2630  138.5550 O   0  0  0  0  0  0  0  0  0  0  0  0
  183.6590  176.9930  138.0490 C   0  0  0  0  0  0  0  0  0  0  0  0
  185.2860  179.5980  140.5590 N   0  0  0  0  0  2  0  0  0  0  0  0
  182.9430  176.2200  138.9140 C   0  0  0  0  0  0  0  0  0  0  0  0
  181.6930  178.1700  139.8460 C   0  0  1  0  0  3  0  0  0  0  0  0
  184.6950  179.7980  143.5620 S   0  0  0  0  0  0  0  0  0  0  0  0
  187.9820  176.1950  143.3020 C   0  0  0  0  0  2  0  0  0  0  0  0
  182.6080  176.9760  140.1550 C   0  0  2  0  0  3  0  0  0  0  0  0
  184.0480  179.0020  140.9530 C   0  0  0  0  0  0  0  0  0  0  0  0
  186.3920  178.7520  140.1170 C   0  0  0  0  0  2  0  0  0  0  0  0
  189.2000  176.5090  142.5260 N   0  0  0  0  0  0  0  0  0  0  0  0
  183.7500  178.9330  142.2720 C   0  0  0  0  0  0  0  0  0  0  0  0
  1 16  1  1  0  0  0
  3 23  1  0  0  0  0
  4 12  2  0  0  0  0
  5 13  1  0  0  0  0
  6  7  1  0  0  0  0
  7 21  2  0  0  0  0
  8 18  1  6  0  0  0
  8 22  1  0  0  0  0
  8 25  1  0  0  0  0
  8 26  1  0  0  0  0
 10 14  1  0  0  0  0
 10  6  2  0  0  0  0
 11 10  1  0  0  0  0
 12  2  1  0  0  0  0
 13 28  1  0  0  0  0
 14 19  2  0  0  0  0
 15  3  1  1  0  0  0
 15  1  1  0  0  0  0
 17 27  1  6  0  0  0
 17  5  1  0  0  0  0
 17 15  1  0  0  0  0
 19 18  1  0  0  0  0
 19 21  1  0  0  0  0
 20 26  1  0  0  0  0
 22 25  1  0  0  0  0
 22  4  1  1  0  0  0
 24  1  1  0  0  0  0
 25 21  1  6  0  0  0
 26 29  2  0  0  0  0
 27 20  1  0  0  0  0
 28  9  1  0  0  0  0
 28 24  1  0  0  0  0
 29  2  1  0  0  0  0
 29 23  1  0  0  0  0
M  END
>  <MODEL>
5

>  <REMARK>
 VINA RESULT:      -5.9      4.029      8.128
  Name = 
  0 active torsions:
  status: ('A' for Active; 'I' for Inactive)
                            x       y       z     vdW  Elec       q    Type
                         _______ _______ _______ _____ _____    ______ ____

>  <TORSDO>
F 0

$$$$
=
 OpenBabel10222422113D

 29 34  0  0  1  0  0  0  0  0999 V2000
  187.9220  172.7610  135.4300 C   0  0  1  0  0  3  0  0  0  0  0  0
  191.8560  174.5430  137.3470 C   0  0  0  0  0  2  0  0  0  0  0  0
  189.1460  174.5950  134.4540 O   0  0  0  0  0  0  0  0  0  0  0  0
  192.9680  176.5380  138.3260 C   0  0  0  0  0  3  0  0  0  0  0  0
  186.2280  175.3060  134.8540 C   0  0  0  0  0  2  0  0  0  0  0  0
  188.4320  177.2700  142.2310 N   0  0  0  0  0  0  0  0  0  0  0  0
  189.3680  176.5380  141.5600 C   0  0  0  0  0  3  0  0  0  0  0  0
  190.4530  177.1140  138.0410 C   0  0  1  0  0  0  0  0  0  0  0  0
  184.4870  172.0830  135.3800 C   0  0  0  0  0  1  0  0  0  0  0  0
  187.7740  178.3160  141.6440 C   0  0  0  0  0  0  0  0  0  0  0  0
  186.8050  179.0500  142.3830 N   0  0  0  0  0  1  0  0  0  0  0  0
  193.0480  175.3810  137.6560 C   0  0  0  0  0  3  0  0  0  0  0  0
  185.6380  173.9320  134.5230 C   0  0  0  0  0  2  0  0  0  0  0  0
  188.0500  178.6710  140.3130 C   0  0  0  0  0  3  0  0  0  0  0  0
  188.4420  174.1980  135.5960 C   0  0  1  0  0  3  0  0  0  0  0  0
  188.9170  171.8570  135.7980 O   0  0  0  0  0  1  0  0  0  0  0  0
  187.3500  175.2500  135.8980 C   0  0  1  0  0  3  0  0  0  0  0  0
  189.4540  178.0920  138.3520 O   0  0  0  0  0  0  0  0  0  0  0  0
  189.0080  177.9160  139.6420 C   0  0  0  0  0  0  0  0  0  0  0  0
  189.2790  176.8560  135.8300 N   0  0  0  0  0  2  0  0  0  0  0  0
  189.6570  176.8780  140.2420 C   0  0  0  0  0  0  0  0  0  0  0  0
  191.7280  177.2060  138.8850 C   0  0  1  0  0  3  0  0  0  0  0  0
  190.8480  174.4520  134.7490 S   0  0  0  0  0  0  0  0  0  0  0  0
  186.6380  172.4690  136.2300 C   0  0  0  0  0  2  0  0  0  0  0  0
  190.6150  176.2320  139.2990 C   0  0  2  0  0  3  0  0  0  0  0  0
  190.2960  176.3760  136.7120 C   0  0  0  0  0  0  0  0  0  0  0  0
  187.8710  176.6750  136.1770 C   0  0  0  0  0  2  0  0  0  0  0  0
  185.4180  173.1390  135.7340 N   0  0  0  0  0  0  0  0  0  0  0  0
  190.9660  175.2460  136.3800 C   0  0  0  0  0  0  0  0  0  0  0  0
  1 15  1  0  0  0  0
  1 16  1  1  0  0  0
  1 24  1  0  0  0  0
  2 12  1  0  0  0  0
  3 23  1  0  0  0  0
  7  6  2  0  0  0  0
  8 26  1  6  0  0  0
  8 18  1  0  0  0  0
  8 22  1  0  0  0  0
  8 25  1  0  0  0  0
  9 28  1  0  0  0  0
 10  6  1  0  0  0  0
 10 11  1  0  0  0  0
 12  4  2  0  0  0  0
 13  5  1  0  0  0  0
 13 28  1  0  0  0  0
 14 10  2  0  0  0  0
 15  3  1  6  0  0  0
 15 17  1  0  0  0  0
 17  5  1  6  0  0  0
 17 27  1  0  0  0  0
 18 19  1  0  0  0  0
 19 21  2  0  0  0  0
 19 14  1  0  0  0  0
 20 27  1  0  0  0  0
 20 26  1  0  0  0  0
 21  7  1  0  0  0  0
 22  4  1  6  0  0  0
 22 25  1  0  0  0  0
 23 29  1  0  0  0  0
 25 21  1  1  0  0  0
 28 24  1  0  0  0  0
 29 26  2  0  0  0  0
 29  2  1  0  0  0  0
M  END
>  <MODEL>
6

>  <REMARK>
 VINA RESULT:      -5.7      1.500      1.804
  Name = 
  0 active torsions:
  status: ('A' for Active; 'I' for Inactive)
                            x       y       z     vdW  Elec       q    Type
                         _______ _______ _______ _____ _____    ______ ____

>  <TORSDO>
F 0

$$$$
=
 OpenBabel10222422113D

 29 34  0  0  1  0  0  0  0  0999 V2000
  186.2470  178.1550  142.4260 C   0  0  1  0  0  3  0  0  0  0  0  0
  182.9810  177.0770  139.1860 C   0  0  0  0  0  2  0  0  0  0  0  0
  185.7760  179.5530  140.5180 O   0  0  0  0  0  0  0  0  0  0  0  0
  182.5150  176.5690  136.7980 C   0  0  0  0  0  3  0  0  0  0  0  0
  188.7250  178.8750  140.6880 C   0  0  0  0  0  2  0  0  0  0  0  0
  186.7170  172.2440  136.7970 N   0  0  0  0  0  0  0  0  0  0  0  0
  185.6480  172.9170  137.3140 C   0  0  0  0  0  3  0  0  0  0  0  0
  185.0940  176.5960  137.0960 C   0  0  1  0  0  0  0  0  0  0  0  0
  189.2600  177.6400  144.1350 C   0  0  0  0  0  1  0  0  0  0  0  0
  187.7270  172.8880  136.1360 C   0  0  0  0  0  0  0  0  0  0  0  0
  188.8220  172.1440  135.6160 N   0  0  0  0  0  1  0  0  0  0  0  0
  182.1110  177.0610  137.9770 C   0  0  0  0  0  3  0  0  0  0  0  0
  188.8530  178.9130  142.2130 C   0  0  0  0  0  2  0  0  0  0  0  0
  187.6880  174.2820  135.9680 C   0  0  0  0  0  3  0  0  0  0  0  0
  186.2190  178.2790  140.8940 C   0  0  1  0  0  3  0  0  0  0  0  0
  184.9840  177.7930  142.8900 O   0  0  0  0  0  1  0  0  0  0  0  0
  187.5690  177.9950  140.1960 C   0  0  1  0  0  3  0  0  0  0  0  0
  186.3320  176.3050  136.4360 O   0  0  0  0  0  0  0  0  0  0  0  0
  186.5920  174.9540  136.4990 C   0  0  0  0  0  0  0  0  0  0  0  0
  186.2880  178.5640  138.1140 N   0  0  0  0  0  2  0  0  0  0  0  0
  185.5920  174.2980  137.1530 C   0  0  0  0  0  0  0  0  0  0  0  0
  183.8580  175.9550  136.4570 C   0  0  1  0  0  3  0  0  0  0  0  0
  184.1050  179.4720  140.0670 S   0  0  0  0  0  0  0  0  0  0  0  0
  187.2970  177.1550  142.9480 C   0  0  0  0  0  2  0  0  0  0  0  0
  184.5510  175.2530  137.6330 C   0  0  2  0  0  3  0  0  0  0  0  0
  185.1030  177.7650  138.0800 C   0  0  0  0  0  0  0  0  0  0  0  0
  187.5260  178.0080  138.6540 C   0  0  0  0  0  2  0  0  0  0  0  0
  188.7040  177.5770  142.7950 N   0  0  0  0  0  0  0  0  0  0  0  0
  184.1270  178.0110  138.9870 C   0  0  0  0  0  0  0  0  0  0  0  0
  1 16  1  6  0  0  0
  1 24  1  0  0  0  0
  4 12  2  0  0  0  0
  5 13  1  0  0  0  0
  6  7  1  0  0  0  0
  8 18  1  6  0  0  0
  8 25  1  0  0  0  0
  8 26  1  0  0  0  0
 10  6  2  0  0  0  0
 11 10  1  0  0  0  0
 12  2  1  0  0  0  0
 13 28  1  0  0  0  0
 14 10  1  0  0  0  0
 14 19  2  0  0  0  0
 15  3  1  1  0  0  0
 15  1  1  0  0  0  0
 17 27  1  6  0  0  0
 17  5  1  0  0  0  0
 17 15  1  0  0  0  0
 18 19  1  0  0  0  0
 19 21  1  0  0  0  0
 20 27  1  0  0  0  0
 21  7  2  0  0  0  0
 22  4  1  1  0  0  0
 22  8  1  0  0  0  0
 22 25  1  0  0  0  0
 23  3  1  0  0  0  0
 25 21  1  6  0  0  0
 26 20  1  0  0  0  0
 26 29  2  0  0  0  0
 28 24  1  0  0  0  0
 28  9  1  0  0  0  0
 29  2  1  0  0  0  0
 29 23  1  0  0  0  0
M  END
>  <MODEL>
7

>  <REMARK>
 VINA RESULT:      -5.5      2.922      7.471
  Name = 
  0 active torsions:
  status: ('A' for Active; 'I' for Inactive)
                            x       y       z     vdW  Elec       q    Type
                         _______ _______ _______ _____ _____    ______ ____

>  <TORSDO>
F 0

$$$$
=
 OpenBabel10222422113D

 29 34  0  0  1  0  0  0  0  0999 V2000
  187.8750  177.2790  142.8000 C   0  0  1  0  0  3  0  0  0  0  0  0
  183.7170  177.7070  140.5960 C   0  0  0  0  0  2  0  0  0  0  0  0
  187.2940  179.1890  141.4480 O   0  0  0  0  0  0  0  0  0  0  0  0
  182.5340  177.9370  138.4230 C   0  0  0  0  0  3  0  0  0  0  0  0
  189.9140  177.9610  140.5520 C   0  0  0  0  0  2  0  0  0  0  0  0
  185.3570  173.0660  136.2610 N   0  0  0  0  0  0  0  0  0  0  0  0
  184.6640  173.7650  137.2070 C   0  0  0  0  0  3  0  0  0  0  0  0
  185.0210  177.4100  137.9000 C   0  0  1  0  0  0  0  0  0  0  0  0
  190.9960  175.7880  143.3460 C   0  0  0  0  0  1  0  0  0  0  0  0
  186.2880  173.6640  135.4570 C   0  0  0  0  0  0  0  0  0  0  0  0
  186.9860  172.8940  134.4860 N   0  0  0  0  0  1  0  0  0  0  0  0
  182.5880  178.1690  139.7410 C   0  0  0  0  0  3  0  0  0  0  0  0
  190.4400  177.5730  141.9360 C   0  0  0  0  0  2  0  0  0  0  0  0
  186.5610  175.0360  135.5870 C   0  0  0  0  0  3  0  0  0  0  0  0
  187.4820  177.8030  141.4090 C   0  0  1  0  0  3  0  0  0  0  0  0
  186.7270  177.0460  143.5550 O   0  0  0  0  0  1  0  0  0  0  0  0
  188.4870  177.4680  140.2830 C   0  0  1  0  0  3  0  0  0  0  0  0
  185.9300  177.0790  136.8430 O   0  0  0  0  0  0  0  0  0  0  0  0
  185.8470  175.7350  136.5550 C   0  0  0  0  0  0  0  0  0  0  0  0
  186.8960  178.7880  138.8590 N   0  0  0  0  0  2  0  0  0  0  0  0
  184.9190  175.1270  137.3460 C   0  0  0  0  0  0  0  0  0  0  0  0
  183.5420  177.1980  137.5660 C   0  0  1  0  0  3  0  0  0  0  0  0
  185.5980  179.5380  141.5350 S   0  0  0  0  0  0  0  0  0  0  0  0
  188.7360  176.0010  142.7600 C   0  0  0  0  0  2  0  0  0  0  0  0
  184.3160  176.0960  138.3050 C   0  0  2  0  0  3  0  0  0  0  0  0
  185.5810  178.2580  139.0410 C   0  0  0  0  0  0  0  0  0  0  0  0
  188.0500  177.8920  138.8660 C   0  0  0  0  0  2  0  0  0  0  0  0
  190.1150  176.1820  142.2620 N   0  0  0  0  0  0  0  0  0  0  0  0
  184.9690  178.4330  140.2370 C   0  0  0  0  0  0  0  0  0  0  0  0
  1 16  1  1  0  0  0
  3 23  1  0  0  0  0
  4 12  2  0  0  0  0
  5 13  1  0  0  0  0
  6  7  1  0  0  0  0
  7 21  2  0  0  0  0
  8 18  1  6  0  0  0
  8 25  1  0  0  0  0
  8 26  1  0  0  0  0
 10 14  1  0  0  0  0
 10  6  2  0  0  0  0
 11 10  1  0  0  0  0
 12  2  1  0  0  0  0
 13 28  1  0  0  0  0
 14 19  2  0  0  0  0
 15  3  1  1  0  0  0
 15  1  1  0  0  0  0
 17 27  1  6  0  0  0
 17  5  1  0  0  0  0
 17 15  1  0  0  0  0
 19 18  1  0  0  0  0
 19 21  1  0  0  0  0
 20 27  1  0  0  0  0
 20 26  1  0  0  0  0
 22  8  1  0  0  0  0
 22 25  1  0  0  0  0
 22  4  1  1  0  0  0
 24  1  1  0  0  0  0
 25 21  1  6  0  0  0
 26 29  2  0  0  0  0
 28 24  1  0  0  0  0
 28  9  1  0  0  0  0
 29  2  1  0  0  0  0
 29 23  1  0  0  0  0
M  END
>  <MODEL>
8

>  <REMARK>
 VINA RESULT:      -5.2      2.824      7.405
  Name = 
  0 active torsions:
  status: ('A' for Active; 'I' for Inactive)
                            x       y       z     vdW  Elec       q    Type
                         _______ _______ _______ _____ _____    ______ ____

>  <TORSDO>
F 0

$$$$
=
 OpenBabel10222422113D

 29 34  0  0  1  0  0  0  0  0999 V2000
  188.7800  177.9680  140.2550 C   0  0  1  0  0  3  0  0  0  0  0  0
  185.7790  177.6630  136.6170 C   0  0  0  0  0  2  0  0  0  0  0  0
  189.3100  178.7690  138.0430 O   0  0  0  0  0  0  0  0  0  0  0  0
  185.3580  176.7460  134.3460 C   0  0  0  0  0  3  0  0  0  0  0  0
  191.4240  176.8500  139.0570 C   0  0  0  0  0  2  0  0  0  0  0  0
  186.6250  171.1690  136.2580 N   0  0  0  0  0  0  0  0  0  0  0  0
  186.0250  172.3910  136.3490 C   0  0  0  0  0  3  0  0  0  0  0  0
  187.5180  175.6240  135.2460 C   0  0  1  0  0  0  0  0  0  0  0  0
  190.8800  176.6170  142.7100 C   0  0  0  0  0  1  0  0  0  0  0  0
  187.8820  171.0160  135.7410 C   0  0  0  0  0  0  0  0  0  0  0  0
  188.4670  169.7210  135.6670 N   0  0  0  0  0  1  0  0  0  0  0  0
  185.1580  177.7010  135.2640 C   0  0  0  0  0  3  0  0  0  0  0  0
  191.4000  177.2800  140.5250 C   0  0  0  0  0  2  0  0  0  0  0  0
  188.6010  172.1330  135.2840 C   0  0  0  0  0  3  0  0  0  0  0  0
  188.9740  177.6210  138.7700 C   0  0  1  0  0  3  0  0  0  0  0  0
  187.4770  178.4140  140.4650 O   0  0  0  0  0  1  0  0  0  0  0  0
  190.0340  176.5290  138.4930 C   0  0  1  0  0  3  0  0  0  0  0  0
  188.4760  174.5920  134.9810 O   0  0  0  0  0  0  0  0  0  0  0  0
  187.9770  173.3730  135.3830 C   0  0  0  0  0  0  0  0  0  0  0  0
  189.4610  176.9820  136.0920 N   0  0  0  0  0  2  0  0  0  0  0  0
  186.7220  173.5080  135.8970 C   0  0  0  0  0  0  0  0  0  0  0  0
  186.2010  175.4940  134.4740 C   0  0  1  0  0  3  0  0  0  0  0  0
  187.9010  179.3660  137.2280 S   0  0  0  0  0  0  0  0  0  0  0  0
  189.0860  176.7980  141.2100 C   0  0  0  0  0  2  0  0  0  0  0  0
  186.2990  174.9390  135.9030 C   0  0  2  0  0  3  0  0  0  0  0  0
  188.0430  176.8800  135.9390 C   0  0  0  0  0  0  0  0  0  0  0  0
  190.1580  176.0940  137.0190 C   0  0  0  0  0  2  0  0  0  0  0  0
  190.5120  176.4260  141.3180 N   0  0  0  0  0  0  0  0  0  0  0  0
  187.2580  177.8240  136.5120 C   0  0  0  0  0  0  0  0  0  0  0  0
  1 16  1  6  0  0  0
  1 24  1  0  0  0  0
  4 12  2  0  0  0  0
  5 13  1  0  0  0  0
  6  7  1  0  0  0  0
  8 18  1  6  0  0  0
  8 25  1  0  0  0  0
  8 26  1  0  0  0  0
 10  6  2  0  0  0  0
 11 10  1  0  0  0  0
 12  2  1  0  0  0  0
 13 28  1  0  0  0  0
 14 19  2  0  0  0  0
 14 10  1  0  0  0  0
 15  3  1  6  0  0  0
 15  1  1  0  0  0  0
 17 27  1  6  0  0  0
 17 15  1  0  0  0  0
 17  5  1  0  0  0  0
 18 19  1  0  0  0  0
 19 21  1  0  0  0  0
 20 27  1  0  0  0  0
 21  7  2  0  0  0  0
 22  4  1  1  0  0  0
 22  8  1  0  0  0  0
 22 25  1  0  0  0  0
 23  3  1  0  0  0  0
 24 28  1  0  0  0  0
 25 21  1  6  0  0  0
 26 20  1  0  0  0  0
 26 29  2  0  0  0  0
 28  9  1  0  0  0  0
 29  2  1  0  0  0  0
 29 23  1  0  0  0  0
M  END
>  <MODEL>
9

>  <REMARK>
 VINA RESULT:      -5.1      2.131      7.070
  Name = 
  0 active torsions:
  status: ('A' for Active; 'I' for Inactive)
                            x       y       z     vdW  Elec       q    Type
                         _______ _______ _______ _____ _____    ______ ____

>  <TORSDO>
F 0

$$$$
