=
 OpenBabel10232408293D

 45 47  0  0  1  0  0  0  0  0999 V2000
  185.6280  174.8880  135.6430 C   0  0  2  0  0  3  0  0  0  0  0  0
  184.4310  172.8260  136.2790 C   0  0  0  0  0  3  0  0  0  0  0  0
  185.7680  172.2090  136.5480 C   0  0  0  0  0  2  0  0  0  0  0  0
  184.3660  174.0930  135.8590 C   0  0  0  0  0  3  0  0  0  0  0  0
  186.6570  174.6050  136.7700 C   0  0  1  0  0  3  0  0  0  0  0  0
  186.6320  173.1770  137.3560 C   0  0  0  0  0  2  0  0  0  0  0  0
  188.0230  175.0010  136.4040 N   0  0  0  0  0  0  0  0  0  0  0  0
  189.7320  174.7880  134.8000 O   0  0  0  0  0  0  0  0  0  0  0  0
  188.7520  175.9800  137.1840 C   0  0  0  0  0  0  0  0  0  0  0  0
  190.0070  176.0520  137.1080 O   0  0  0  0  0  0  0  0  0  0  0  0
  188.6110  174.4030  135.2280 C   0  0  0  0  0  0  0  0  0  0  0  0
  188.7620  172.1040  134.3500 C   0  0  0  0  0  1  0  0  0  0  0  0
  187.8890  173.3370  134.4660 C   0  0  0  0  0  2  0  0  0  0  0  0
  188.0420  176.9180  138.1090 C   0  0  0  0  0  2  0  0  0  0  0  0
  188.9870  177.4590  139.1710 C   0  0  0  0  0  2  0  0  0  0  0  0
  188.5760  178.7290  139.5780 O   0  0  0  0  0  0  0  0  0  0  0  0
  188.3720  178.6150  140.9540 C   0  0  0  0  0  2  0  0  0  0  0  0
  189.2680  177.6850  141.4820 O   0  0  0  0  0  0  0  0  0  0  0  0
  189.5400  178.1460  142.7710 C   0  0  0  0  0  2  0  0  0  0  0  0
  188.4430  175.9830  143.2970 C   0  0  0  0  0  1  0  0  0  0  0  0
  189.4730  176.9950  143.7600 C   0  0  2  0  0  3  0  0  0  0  0  0
  189.0700  177.5260  145.1270 C   0  0  0  0  0  2  0  0  0  0  0  0
  190.1320  177.2830  146.2000 C   0  0  1  0  0  3  0  0  0  0  0  0
  189.6050  176.5740  147.2840 O   0  0  0  0  0  1  0  0  0  0  0  0
  191.4000  176.6230  145.6620 C   0  0  0  0  0  2  0  0  0  0  0  0
  192.2670  176.1940  146.7470 N   0  0  0  0  0  1  0  0  0  0  0  0
  185.9890  176.9580  134.4690 O   0  0  0  0  0  1  0  0  0  0  0  0
  185.2940  176.3790  135.5330 C   0  0  1  0  0  3  0  0  0  0  0  0
  183.8630  176.5520  135.3170 N   0  0  0  0  0  2  0  0  0  0  0  0
  183.1390  177.2770  137.5640 C   0  0  0  0  0  3  0  0  0  0  0  0
  181.2580  178.9260  136.4030 N   0  0  0  0  0  0  0  0  0  0  0  0
  182.3040  178.0520  138.3720 C   0  0  0  0  0  0  0  0  0  0  0  0
  183.0240  177.3350  136.1700 C   0  0  0  0  0  0  0  0  0  0  0  0
  182.0640  178.1750  135.6050 C   0  0  0  0  0  3  0  0  0  0  0  0
  181.3580  178.8820  137.7580 C   0  0  0  0  0  3  0  0  0  0  0  0
  183.4090  178.4620  142.0140 N   0  0  0  0  0  2  0  0  0  0  0  0
  184.2460  179.4490  140.0760 O   0  0  0  0  0  0  0  0  0  0  0  0
  182.4450  177.9740  139.7970 N   0  0  0  0  0  2  0  0  0  0  0  0
  183.4110  178.6640  140.5990 C   0  0  0  0  0  0  0  0  0  0  0  0
  183.6090  179.7610  144.0760 C   0  0  0  0  0  2  0  0  0  0  0  0
  185.0180  178.5760  145.8020 C   0  0  0  0  0  2  0  0  0  0  0  0
  184.3600  179.1120  142.9050 C   0  0  0  0  0  3  0  0  0  0  0  0
  185.4320  178.1060  143.3520 C   0  0  0  0  0  2  0  0  0  0  0  0
  186.0610  178.5260  144.6760 C   0  0  0  0  0  2  0  0  0  0  0  0
  183.5950  178.8610  145.3080 C   0  0  0  0  0  2  0  0  0  0  0  0
  1 28  1  1  0  0  0
  1  4  1  0  0  0  0
  1  5  1  0  0  0  0
  2  3  1  0  0  0  0
  3  6  1  0  0  0  0
  4  2  2  0  0  0  0
  5  7  1  6  0  0  0
  5  6  1  0  0  0  0
  7  9  1  0  0  0  0
  8 11  2  0  0  0  0
  9 14  1  0  0  0  0
 10  9  2  0  0  0  0
 11  7  1  0  0  0  0
 12 13  1  0  0  0  0
 13 11  1  0  0  0  0
 14 15  1  0  0  0  0
 15 16  1  0  0  0  0
 16 17  1  0  0  0  0
 17 18  1  0  0  0  0
 18 19  1  0  0  0  0
 19 21  1  0  0  0  0
 21 20  1  6  0  0  0
 21 22  1  0  0  0  0
 22 23  1  0  0  0  0
 23 24  1  1  0  0  0
 25 23  1  0  0  0  0
 25 26  1  0  0  0  0
 28 27  1  6  0  0  0
 29 28  1  0  0  0  0
 29 33  1  0  0  0  0
 30 32  1  0  0  0  0
 31 35  1  0  0  0  0
 32 38  1  0  0  0  0
 33 30  2  0  0  0  0
 34 33  1  0  0  0  0
 34 31  2  0  0  0  0
 35 32  2  0  0  0  0
 36 42  1  0  0  0  0
 37 39  2  0  0  0  0
 38 39  1  0  0  0  0
 39 36  1  0  0  0  0
 40 45  1  0  0  0  0
 42 43  1  0  0  0  0
 42 40  1  0  0  0  0
 43 44  1  0  0  0  0
 44 41  1  0  0  0  0
 45 41  1  0  0  0  0
M  END
>  <MODEL>
1

>  <REMARK>
 VINA RESULT:      -6.8      0.000      0.000
  Name = 
  17 active torsions:
  status: ('A' for Active; 'I' for Inactive)
    1  A    between atoms: N_1  and  C_10
    2  A    between atoms: N_2  and  C_29
    3  A    between atoms: C_3  and  C_26
    4  A    between atoms: C_5  and  C_11
    5  A    between atoms: C_5  and  O_21
    6  A    between atoms: C_8  and  C_9
    7  A    between atoms: C_8  and  C_13
    8  A    between atoms: C_9  and  C_42
    9  A    between atoms: C_11  and  C_34
   10  A    between atoms: C_19  and  O_21
   11  A    between atoms: C_19  and  O_33
   12  A    between atoms: C_26  and  N_30
   13  A    between atoms: N_30  and  C_37
   14  A    between atoms: N_32  and  C_35
   15  A    between atoms: O_33  and  C_45
   16  A    between atoms: C_39  and  C_44
   17  A    between atoms: C_42  and  C_45
                            x       y       z     vdW  Elec       q    Type
                         _______ _______ _______ _____ _____    ______ ____

>  <TORSDO>
F 17

$$$$
=
 OpenBabel10232408293D

 45 47  0  0  1  0  0  0  0  0999 V2000
  184.9210  175.1240  136.4950 C   0  0  2  0  0  3  0  0  0  0  0  0
  183.1100  174.8510  134.8410 C   0  0  0  0  0  3  0  0  0  0  0  0
  182.9840  176.3430  134.8280 C   0  0  0  0  0  2  0  0  0  0  0  0
  184.0300  174.2770  135.6220 C   0  0  0  0  0  3  0  0  0  0  0  0
  185.3820  176.3980  135.7390 C   0  0  1  0  0  3  0  0  0  0  0  0
  184.3710  176.9790  134.7270 C   0  0  0  0  0  2  0  0  0  0  0  0
  185.8830  177.4430  136.6420 N   0  0  0  0  0  0  0  0  0  0  0  0
  187.5060  179.1210  136.9440 O   0  0  0  0  0  0  0  0  0  0  0  0
  185.1730  177.7820  137.8580 C   0  0  0  0  0  0  0  0  0  0  0  0
  185.7620  178.3880  138.7930 O   0  0  0  0  0  0  0  0  0  0  0  0
  187.0930  178.1390  136.2690 C   0  0  0  0  0  0  0  0  0  0  0  0
  189.3480  177.9450  135.2940 C   0  0  0  0  0  1  0  0  0  0  0  0
  187.8670  177.7380  135.0540 C   0  0  0  0  0  2  0  0  0  0  0  0
  183.7360  177.4130  138.0450 C   0  0  0  0  0  2  0  0  0  0  0  0
  183.3880  177.2980  139.5210 C   0  0  0  0  0  2  0  0  0  0  0  0
  182.6420  178.4050  139.9270 O   0  0  0  0  0  0  0  0  0  0  0  0
  183.2120  178.7960  141.1390 C   0  0  0  0  0  2  0  0  0  0  0  0
  183.9960  177.7570  141.6420 O   0  0  0  0  0  0  0  0  0  0  0  0
  185.0470  178.3930  142.3040 C   0  0  0  0  0  2  0  0  0  0  0  0
  184.6490  180.0450  144.1140 C   0  0  0  0  0  1  0  0  0  0  0  0
  184.7050  178.5680  143.7740 C   0  0  2  0  0  3  0  0  0  0  0  0
  185.7760  177.9010  144.6240 C   0  0  0  0  0  2  0  0  0  0  0  0
  185.8600  178.4760  146.0390 C   0  0  1  0  0  3  0  0  0  0  0  0
  184.6440  178.3410  146.7150 O   0  0  0  0  0  1  0  0  0  0  0  0
  187.0210  177.9120  146.8560 C   0  0  0  0  0  2  0  0  0  0  0  0
  187.1720  178.6270  148.1120 N   0  0  0  0  0  1  0  0  0  0  0  0
  185.6830  173.0230  137.3920 O   0  0  0  0  0  1  0  0  0  0  0  0
  186.1070  174.2920  136.9920 C   0  0  1  0  0  3  0  0  0  0  0  0
  187.0940  174.1490  135.9280 N   0  0  0  0  0  2  0  0  0  0  0  0
  189.0030  174.8560  137.3280 C   0  0  0  0  0  3  0  0  0  0  0  0
  190.6860  174.5040  135.1710 N   0  0  0  0  0  0  0  0  0  0  0  0
  190.3680  175.1150  137.4660 C   0  0  0  0  0  0  0  0  0  0  0  0
  188.4870  174.4200  136.1010 C   0  0  0  0  0  0  0  0  0  0  0  0
  189.3590  174.2500  135.0240 C   0  0  0  0  0  3  0  0  0  0  0  0
  191.2020  174.9270  136.3560 C   0  0  0  0  0  3  0  0  0  0  0  0
  190.8990  176.8400  140.8410 N   0  0  0  0  0  2  0  0  0  0  0  0
  189.1490  177.0420  139.3160 O   0  0  0  0  0  0  0  0  0  0  0  0
  190.8680  175.5590  138.7330 N   0  0  0  0  0  2  0  0  0  0  0  0
  190.2520  176.5090  139.6110 C   0  0  0  0  0  0  0  0  0  0  0  0
  189.0070  177.2910  142.3230 C   0  0  0  0  0  2  0  0  0  0  0  0
  189.7330  177.5300  144.7290 C   0  0  0  0  0  2  0  0  0  0  0  0
  190.3520  177.8020  141.7860 C   0  0  0  0  0  3  0  0  0  0  0  0
  191.3780  178.0920  142.8920 C   0  0  0  0  0  2  0  0  0  0  0  0
  190.6930  178.5850  144.1620 C   0  0  0  0  0  2  0  0  0  0  0  0
  189.1660  176.5820  143.6650 C   0  0  0  0  0  2  0  0  0  0  0  0
  1 28  1  6  0  0  0
  2  4  2  0  0  0  0
  3  2  1  0  0  0  0
  4  1  1  0  0  0  0
  5  1  1  0  0  0  0
  5  7  1  1  0  0  0
  6  3  1  0  0  0  0
  6  5  1  0  0  0  0
  7  9  1  0  0  0  0
  9 14  1  0  0  0  0
  9 10  2  0  0  0  0
 11  7  1  0  0  0  0
 11  8  2  0  0  0  0
 13 12  1  0  0  0  0
 13 11  1  0  0  0  0
 14 15  1  0  0  0  0
 15 16  1  0  0  0  0
 16 17  1  0  0  0  0
 17 18  1  0  0  0  0
 18 19  1  0  0  0  0
 19 21  1  0  0  0  0
 21 20  1  1  0  0  0
 21 22  1  0  0  0  0
 22 23  1  0  0  0  0
 23 24  1  1  0  0  0
 23 25  1  0  0  0  0
 25 26  1  0  0  0  0
 28 27  1  6  0  0  0
 29 33  1  0  0  0  0
 29 28  1  0  0  0  0
 30 32  1  0  0  0  0
 31 35  1  0  0  0  0
 32 38  1  0  0  0  0
 33 30  2  0  0  0  0
 34 31  2  0  0  0  0
 34 33  1  0  0  0  0
 35 32  2  0  0  0  0
 36 42  1  0  0  0  0
 37 39  2  0  0  0  0
 38 39  1  0  0  0  0
 39 36  1  0  0  0  0
 40 45  1  0  0  0  0
 42 40  1  0  0  0  0
 42 43  1  0  0  0  0
 43 44  1  0  0  0  0
 44 41  1  0  0  0  0
 45 41  1  0  0  0  0
M  END
>  <MODEL>
2

>  <REMARK>
 VINA RESULT:      -6.6      2.498      5.714
  Name = 
  17 active torsions:
  status: ('A' for Active; 'I' for Inactive)
    1  A    between atoms: N_1  and  C_10
    2  A    between atoms: N_2  and  C_29
    3  A    between atoms: C_3  and  C_26
    4  A    between atoms: C_5  and  C_11
    5  A    between atoms: C_5  and  O_21
    6  A    between atoms: C_8  and  C_9
    7  A    between atoms: C_8  and  C_13
    8  A    between atoms: C_9  and  C_42
    9  A    between atoms: C_11  and  C_34
   10  A    between atoms: C_19  and  O_21
   11  A    between atoms: C_19  and  O_33
   12  A    between atoms: C_26  and  N_30
   13  A    between atoms: N_30  and  C_37
   14  A    between atoms: N_32  and  C_35
   15  A    between atoms: O_33  and  C_45
   16  A    between atoms: C_39  and  C_44
   17  A    between atoms: C_42  and  C_45
                            x       y       z     vdW  Elec       q    Type
                         _______ _______ _______ _____ _____    ______ ____

>  <TORSDO>
F 17

$$$$
=
 OpenBabel10232408293D

 45 47  0  0  1  0  0  0  0  0999 V2000
  188.1010  177.3710  146.0300 C   0  0  2  0  0  3  0  0  0  0  0  0
  187.8740  178.1690  148.3540 C   0  0  0  0  0  3  0  0  0  0  0  0
  189.3610  178.0360  148.4770 C   0  0  0  0  0  2  0  0  0  0  0  0
  187.2820  177.8620  147.1960 C   0  0  0  0  0  3  0  0  0  0  0  0
  189.4290  178.1660  145.9150 C   0  0  1  0  0  3  0  0  0  0  0  0
  190.0390  178.6460  147.2500 C   0  0  0  0  0  2  0  0  0  0  0  0
  190.4340  177.4770  145.0940 N   0  0  0  0  0  0  0  0  0  0  0  0
  191.9700  175.6960  145.0120 O   0  0  0  0  0  0  0  0  0  0  0  0
  190.6540  177.8520  143.7130 C   0  0  0  0  0  0  0  0  0  0  0  0
  191.7250  177.5380  143.1300 O   0  0  0  0  0  0  0  0  0  0  0  0
  191.1790  176.3970  145.6990 C   0  0  0  0  0  0  0  0  0  0  0  0
  192.3510  175.7440  147.7670 C   0  0  0  0  0  1  0  0  0  0  0  0
  191.0050  176.0590  147.1460 C   0  0  0  0  0  2  0  0  0  0  0  0
  189.6310  178.6310  142.9480 C   0  0  0  0  0  2  0  0  0  0  0  0
  189.3480  177.9870  141.6000 C   0  0  0  0  0  2  0  0  0  0  0  0
  188.0180  178.2010  141.2350 O   0  0  0  0  0  0  0  0  0  0  0  0
  188.0510  178.3810  139.8520 C   0  0  0  0  0  2  0  0  0  0  0  0
  189.3480  178.1640  139.3850 O   0  0  0  0  0  0  0  0  0  0  0  0
  189.2560  178.3090  138.0000 C   0  0  0  0  0  2  0  0  0  0  0  0
  189.1990  176.6850  136.1240 C   0  0  0  0  0  1  0  0  0  0  0  0
  190.0050  177.1830  137.3080 C   0  0  2  0  0  3  0  0  0  0  0  0
  190.2110  176.0370  138.2870 C   0  0  0  0  0  2  0  0  0  0  0  0
  191.5100  175.2680  138.0430 C   0  0  1  0  0  3  0  0  0  0  0  0
  191.2630  174.0390  137.4220 O   0  0  0  0  0  1  0  0  0  0  0  0
  192.5620  176.0760  137.2860 C   0  0  0  0  0  2  0  0  0  0  0  0
  193.4560  176.7610  138.2060 N   0  0  0  0  0  1  0  0  0  0  0  0
  187.3990  176.2640  144.0100 O   0  0  0  0  0  1  0  0  0  0  0  0
  187.2750  177.4460  144.7430 C   0  0  1  0  0  3  0  0  0  0  0  0
  185.8690  177.6590  145.0660 N   0  0  0  0  0  2  0  0  0  0  0  0
  185.1100  178.0620  142.7510 C   0  0  0  0  0  3  0  0  0  0  0  0
  182.8270  179.2590  143.7300 N   0  0  0  0  0  0  0  0  0  0  0  0
  184.1570  178.5660  141.8630 C   0  0  0  0  0  0  0  0  0  0  0  0
  184.9110  178.1630  144.1330 C   0  0  0  0  0  0  0  0  0  0  0  0
  183.7480  178.7740  144.6050 C   0  0  0  0  0  3  0  0  0  0  0  0
  183.0060  179.1680  142.3860 C   0  0  0  0  0  3  0  0  0  0  0  0
  184.1250  177.5330  138.1770 N   0  0  0  0  0  2  0  0  0  0  0  0
  182.9160  176.6850  139.9800 O   0  0  0  0  0  0  0  0  0  0  0  0
  184.3870  178.4480  140.4530 N   0  0  0  0  0  2  0  0  0  0  0  0
  183.7700  177.5110  139.5610 C   0  0  0  0  0  0  0  0  0  0  0  0
  183.7590  177.1700  135.7870 C   0  0  0  0  0  2  0  0  0  0  0  0
  184.8720  175.0550  134.9750 C   0  0  0  0  0  2  0  0  0  0  0  0
  183.5570  176.6120  137.2030 C   0  0  0  0  0  3  0  0  0  0  0  0
  184.1560  175.2100  137.3960 C   0  0  0  0  0  2  0  0  0  0  0  0
  184.0740  174.3960  136.1090 C   0  0  0  0  0  2  0  0  0  0  0  0
  184.9940  176.5770  135.1150 C   0  0  0  0  0  2  0  0  0  0  0  0
  1 28  1  6  0  0  0
  1  4  1  0  0  0  0
  2  3  1  0  0  0  0
  4  2  2  0  0  0  0
  5  7  1  1  0  0  0
  5  1  1  0  0  0  0
  5  6  1  0  0  0  0
  6  3  1  0  0  0  0
  7 11  1  0  0  0  0
  8 11  2  0  0  0  0
  9  7  1  0  0  0  0
 10  9  2  0  0  0  0
 11 13  1  0  0  0  0
 13 12  1  0  0  0  0
 14  9  1  0  0  0  0
 15 14  1  0  0  0  0
 16 15  1  0  0  0  0
 17 16  1  0  0  0  0
 18 17  1  0  0  0  0
 19 18  1  0  0  0  0
 21 20  1  6  0  0  0
 21 19  1  0  0  0  0
 21 22  1  0  0  0  0
 23 24  1  6  0  0  0
 23 22  1  0  0  0  0
 25 23  1  0  0  0  0
 25 26  1  0  0  0  0
 28 27  1  1  0  0  0
 28 29  1  0  0  0  0
 30 33  1  0  0  0  0
 31 34  1  0  0  0  0
 32 35  1  0  0  0  0
 32 30  2  0  0  0  0
 33 34  2  0  0  0  0
 33 29  1  0  0  0  0
 35 31  2  0  0  0  0
 36 39  1  0  0  0  0
 38 32  1  0  0  0  0
 39 37  2  0  0  0  0
 39 38  1  0  0  0  0
 40 42  1  0  0  0  0
 41 45  1  0  0  0  0
 41 44  1  0  0  0  0
 42 43  1  0  0  0  0
 42 36  1  0  0  0  0
 44 43  1  0  0  0  0
 45 40  1  0  0  0  0
M  END
>  <MODEL>
3

>  <REMARK>
 VINA RESULT:      -6.4      2.402      8.579
  Name = 
  17 active torsions:
  status: ('A' for Active; 'I' for Inactive)
    1  A    between atoms: N_1  and  C_10
    2  A    between atoms: N_2  and  C_29
    3  A    between atoms: C_3  and  C_26
    4  A    between atoms: C_5  and  C_11
    5  A    between atoms: C_5  and  O_21
    6  A    between atoms: C_8  and  C_9
    7  A    between atoms: C_8  and  C_13
    8  A    between atoms: C_9  and  C_42
    9  A    between atoms: C_11  and  C_34
   10  A    between atoms: C_19  and  O_21
   11  A    between atoms: C_19  and  O_33
   12  A    between atoms: C_26  and  N_30
   13  A    between atoms: N_30  and  C_37
   14  A    between atoms: N_32  and  C_35
   15  A    between atoms: O_33  and  C_45
   16  A    between atoms: C_39  and  C_44
   17  A    between atoms: C_42  and  C_45
                            x       y       z     vdW  Elec       q    Type
                         _______ _______ _______ _____ _____    ______ ____

>  <TORSDO>
F 17

$$$$
=
 OpenBabel10232408293D

 45 47  0  0  1  0  0  0  0  0999 V2000
  184.7920  177.9760  138.5030 C   0  0  2  0  0  3  0  0  0  0  0  0
  186.5410  177.5640  136.8110 C   0  0  0  0  0  3  0  0  0  0  0  0
  185.5710  176.6520  136.1250 C   0  0  0  0  0  2  0  0  0  0  0  0
  186.1690  178.1940  137.9290 C   0  0  0  0  0  3  0  0  0  0  0  0
  183.7270  177.9240  137.3750 C   0  0  1  0  0  3  0  0  0  0  0  0
  184.2020  177.3260  136.0330 C   0  0  0  0  0  2  0  0  0  0  0  0
  182.4680  177.3060  137.8120 N   0  0  0  0  0  0  0  0  0  0  0  0
  180.1280  177.5400  137.8960 O   0  0  0  0  0  0  0  0  0  0  0  0
  182.4470  175.9690  138.3690 C   0  0  0  0  0  0  0  0  0  0  0  0
  181.4700  175.5840  139.0660 O   0  0  0  0  0  0  0  0  0  0  0  0
  181.2490  178.0620  137.6470 C   0  0  0  0  0  0  0  0  0  0  0  0
  180.9690  179.4930  135.6600 C   0  0  0  0  0  1  0  0  0  0  0  0
  181.2790  179.4700  137.1420 C   0  0  0  0  0  2  0  0  0  0  0  0
  183.5810  175.0190  138.1490 C   0  0  0  0  0  2  0  0  0  0  0  0
  183.1800  173.8980  137.2030 C   0  0  0  0  0  2  0  0  0  0  0  0
  184.0870  172.8410  137.2990 O   0  0  0  0  0  0  0  0  0  0  0  0
  184.2110  172.3570  135.9970 C   0  0  0  0  0  2  0  0  0  0  0  0
  185.5290  171.9580  135.7710 O   0  0  0  0  0  0  0  0  0  0  0  0
  186.0740  172.9640  134.9730 C   0  0  0  0  0  2  0  0  0  0  0  0
  188.2420  171.7560  134.9340 C   0  0  0  0  0  1  0  0  0  0  0  0
  187.5660  173.0810  135.2310 C   0  0  2  0  0  3  0  0  0  0  0  0
  187.8000  173.4430  136.6900 C   0  0  0  0  0  2  0  0  0  0  0  0
  188.9060  174.4810  136.8790 C   0  0  1  0  0  3  0  0  0  0  0  0
  190.0160  173.9280  137.5260 O   0  0  0  0  0  1  0  0  0  0  0  0
  189.3070  175.1850  135.5840 C   0  0  0  0  0  2  0  0  0  0  0  0
  190.6460  175.7440  135.6860 N   0  0  0  0  0  1  0  0  0  0  0  0
  184.2120  180.2780  138.9040 O   0  0  0  0  0  1  0  0  0  0  0  0
  184.4790  179.0620  139.5370 C   0  0  1  0  0  3  0  0  0  0  0  0
  183.3180  178.6730  140.3290 N   0  0  0  0  0  2  0  0  0  0  0  0
  184.4290  178.7950  142.5310 C   0  0  0  0  0  3  0  0  0  0  0  0
  181.9580  178.9370  143.7460 N   0  0  0  0  0  0  0  0  0  0  0  0
  184.3460  178.8890  143.9220 C   0  0  0  0  0  0  0  0  0  0  0  0
  183.2650  178.7720  141.7540 C   0  0  0  0  0  0  0  0  0  0  0  0
  182.0260  178.8440  142.3910 C   0  0  0  0  0  3  0  0  0  0  0  0
  183.0790  178.9610  144.5150 C   0  0  0  0  0  3  0  0  0  0  0  0
  187.6490  178.0390  145.6590 N   0  0  0  0  0  2  0  0  0  0  0  0
  186.3180  176.7390  144.2560 O   0  0  0  0  0  0  0  0  0  0  0  0
  185.5540  178.9120  144.6930 N   0  0  0  0  0  2  0  0  0  0  0  0
  186.4940  177.8400  144.8420 C   0  0  0  0  0  0  0  0  0  0  0  0
  189.5640  176.9030  144.6480 C   0  0  0  0  0  2  0  0  0  0  0  0
  191.6590  177.1810  146.0280 C   0  0  0  0  0  2  0  0  0  0  0  0
  188.6490  177.0040  145.8760 C   0  0  0  0  0  3  0  0  0  0  0  0
  189.4110  177.2760  147.1820 C   0  0  0  0  0  2  0  0  0  0  0  0
  190.7880  176.6220  147.1620 C   0  0  0  0  0  2  0  0  0  0  0  0
  190.8510  177.7030  144.8340 C   0  0  0  0  0  2  0  0  0  0  0  0
  1 28  1  1  0  0  0
  2  4  2  0  0  0  0
  3  2  1  0  0  0  0
  4  1  1  0  0  0  0
  5  7  1  1  0  0  0
  5  1  1  0  0  0  0
  6  3  1  0  0  0  0
  6  5  1  0  0  0  0
  7  9  1  0  0  0  0
  9 10  2  0  0  0  0
 11  7  1  0  0  0  0
 11  8  2  0  0  0  0
 12 13  1  0  0  0  0
 13 11  1  0  0  0  0
 14  9  1  0  0  0  0
 15 16  1  0  0  0  0
 15 14  1  0  0  0  0
 17 16  1  0  0  0  0
 18 17  1  0  0  0  0
 19 21  1  0  0  0  0
 19 18  1  0  0  0  0
 21 20  1  1  0  0  0
 21 22  1  0  0  0  0
 22 23  1  0  0  0  0
 23 24  1  6  0  0  0
 25 26  1  0  0  0  0
 25 23  1  0  0  0  0
 28 27  1  6  0  0  0
 28 29  1  0  0  0  0
 29 33  1  0  0  0  0
 30 32  1  0  0  0  0
 31 35  1  0  0  0  0
 32 35  2  0  0  0  0
 32 38  1  0  0  0  0
 33 34  1  0  0  0  0
 33 30  2  0  0  0  0
 34 31  2  0  0  0  0
 36 42  1  0  0  0  0
 37 39  2  0  0  0  0
 38 39  1  0  0  0  0
 39 36  1  0  0  0  0
 40 45  1  0  0  0  0
 40 42  1  0  0  0  0
 41 44  1  0  0  0  0
 42 43  1  0  0  0  0
 44 43  1  0  0  0  0
 45 41  1  0  0  0  0
M  END
>  <MODEL>
4

>  <REMARK>
 VINA RESULT:      -6.2      2.347      7.411
  Name = 
  17 active torsions:
  status: ('A' for Active; 'I' for Inactive)
    1  A    between atoms: N_1  and  C_10
    2  A    between atoms: N_2  and  C_29
    3  A    between atoms: C_3  and  C_26
    4  A    between atoms: C_5  and  C_11
    5  A    between atoms: C_5  and  O_21
    6  A    between atoms: C_8  and  C_9
    7  A    between atoms: C_8  and  C_13
    8  A    between atoms: C_9  and  C_42
    9  A    between atoms: C_11  and  C_34
   10  A    between atoms: C_19  and  O_21
   11  A    between atoms: C_19  and  O_33
   12  A    between atoms: C_26  and  N_30
   13  A    between atoms: N_30  and  C_37
   14  A    between atoms: N_32  and  C_35
   15  A    between atoms: O_33  and  C_45
   16  A    between atoms: C_39  and  C_44
   17  A    between atoms: C_42  and  C_45
                            x       y       z     vdW  Elec       q    Type
                         _______ _______ _______ _____ _____    ______ ____

>  <TORSDO>
F 17

$$$$
=
 OpenBabel10232408293D

 45 47  0  0  1  0  0  0  0  0999 V2000
  187.9690  177.4040  145.7850 C   0  0  2  0  0  3  0  0  0  0  0  0
  187.7360  178.1480  148.1270 C   0  0  0  0  0  3  0  0  0  0  0  0
  189.2140  177.9490  148.2690 C   0  0  0  0  0  2  0  0  0  0  0  0
  187.1510  177.8970  146.9510 C   0  0  0  0  0  3  0  0  0  0  0  0
  189.3310  178.1460  145.7140 C   0  0  1  0  0  3  0  0  0  0  0  0
  189.9370  178.5640  147.0710 C   0  0  0  0  0  2  0  0  0  0  0  0
  190.3200  177.4380  144.8900 N   0  0  0  0  0  0  0  0  0  0  0  0
  191.9040  175.6990  144.8420 O   0  0  0  0  0  0  0  0  0  0  0  0
  190.4710  177.7390  143.4810 C   0  0  0  0  0  0  0  0  0  0  0  0
  191.5250  177.4210  142.8700 O   0  0  0  0  0  0  0  0  0  0  0  0
  191.1220  176.4170  145.5220 C   0  0  0  0  0  0  0  0  0  0  0  0
  192.3580  175.6870  147.5260 C   0  0  0  0  0  1  0  0  0  0  0  0
  191.0210  176.1590  146.9920 C   0  0  0  0  0  2  0  0  0  0  0  0
  189.3930  178.4440  142.7190 C   0  0  0  0  0  2  0  0  0  0  0  0
  188.8620  177.5730  141.5910 C   0  0  0  0  0  2  0  0  0  0  0  0
  188.2910  178.3700  140.5980 O   0  0  0  0  0  0  0  0  0  0  0  0
  189.2130  178.3510  139.5500 C   0  0  0  0  0  2  0  0  0  0  0  0
  188.6300  178.8960  138.4060 O   0  0  0  0  0  0  0  0  0  0  0  0
  187.5100  178.0990  138.1620 C   0  0  0  0  0  2  0  0  0  0  0  0
  187.4180  177.9440  135.6870 C   0  0  0  0  0  1  0  0  0  0  0  0
  187.7630  177.2010  136.9630 C   0  0  2  0  0  3  0  0  0  0  0  0
  186.8880  175.9610  137.0690 C   0  0  0  0  0  2  0  0  0  0  0  0
  187.5590  174.7070  136.5060 C   0  0  1  0  0  3  0  0  0  0  0  0
  188.9380  174.7210  136.7390 O   0  0  0  0  0  1  0  0  0  0  0  0
  186.9230  173.4070  136.9940 C   0  0  0  0  0  2  0  0  0  0  0  0
  187.9150  172.3510  137.1120 N   0  0  0  0  0  1  0  0  0  0  0  0
  186.6800  176.3090  144.0720 O   0  0  0  0  0  1  0  0  0  0  0  0
  187.1690  177.5490  144.4870 C   0  0  1  0  0  3  0  0  0  0  0  0
  186.0480  178.4580  144.6950 N   0  0  0  0  0  2  0  0  0  0  0  0
  185.0530  178.3680  142.4360 C   0  0  0  0  0  3  0  0  0  0  0  0
  182.5700  178.8540  143.5330 N   0  0  0  0  0  0  0  0  0  0  0  0
  183.9330  178.4490  141.6060 C   0  0  0  0  0  0  0  0  0  0  0  0
  184.9200  178.5320  143.8190 C   0  0  0  0  0  0  0  0  0  0  0  0
  183.6530  178.7790  144.3520 C   0  0  0  0  0  3  0  0  0  0  0  0
  182.6830  178.6950  142.1870 C   0  0  0  0  0  3  0  0  0  0  0  0
  183.6570  177.3450  137.9510 N   0  0  0  0  0  2  0  0  0  0  0  0
  182.4250  176.6780  139.8130 O   0  0  0  0  0  0  0  0  0  0  0  0
  184.0990  178.2750  140.1920 N   0  0  0  0  0  2  0  0  0  0  0  0
  183.3500  177.3940  139.3450 C   0  0  0  0  0  0  0  0  0  0  0  0
  183.0070  177.0770  135.6090 C   0  0  0  0  0  2  0  0  0  0  0  0
  183.9630  174.9700  134.6010 C   0  0  0  0  0  2  0  0  0  0  0  0
  182.9570  176.4730  137.0190 C   0  0  0  0  0  3  0  0  0  0  0  0
  183.5380  175.0520  137.0940 C   0  0  0  0  0  2  0  0  0  0  0  0
  183.2860  174.2870  135.7990 C   0  0  0  0  0  2  0  0  0  0  0  0
  184.1400  176.4830  134.7780 C   0  0  0  0  0  2  0  0  0  0  0  0
  1 28  1  6  0  0  0
  1  4  1  0  0  0  0
  2  3  1  0  0  0  0
  4  2  2  0  0  0  0
  5  7  1  1  0  0  0
  5  1  1  0  0  0  0
  5  6  1  0  0  0  0
  6  3  1  0  0  0  0
  7 11  1  0  0  0  0
  8 11  2  0  0  0  0
  9  7  1  0  0  0  0
 10  9  2  0  0  0  0
 11 13  1  0  0  0  0
 13 12  1  0  0  0  0
 14  9  1  0  0  0  0
 15 14  1  0  0  0  0
 16 15  1  0  0  0  0
 17 16  1  0  0  0  0
 18 17  1  0  0  0  0
 19 18  1  0  0  0  0
 21 20  1  6  0  0  0
 21 22  1  0  0  0  0
 21 19  1  0  0  0  0
 23 24  1  1  0  0  0
 23 25  1  0  0  0  0
 23 22  1  0  0  0  0
 25 26  1  0  0  0  0
 28 27  1  1  0  0  0
 28 29  1  0  0  0  0
 30 33  1  0  0  0  0
 31 34  1  0  0  0  0
 32 35  1  0  0  0  0
 32 30  2  0  0  0  0
 33 34  2  0  0  0  0
 33 29  1  0  0  0  0
 35 31  2  0  0  0  0
 36 39  1  0  0  0  0
 38 32  1  0  0  0  0
 39 37  2  0  0  0  0
 39 38  1  0  0  0  0
 40 42  1  0  0  0  0
 41 45  1  0  0  0  0
 41 44  1  0  0  0  0
 42 43  1  0  0  0  0
 42 36  1  0  0  0  0
 44 43  1  0  0  0  0
 45 40  1  0  0  0  0
M  END
>  <MODEL>
5

>  <REMARK>
 VINA RESULT:      -6.1      1.954      8.735
  Name = 
  17 active torsions:
  status: ('A' for Active; 'I' for Inactive)
    1  A    between atoms: N_1  and  C_10
    2  A    between atoms: N_2  and  C_29
    3  A    between atoms: C_3  and  C_26
    4  A    between atoms: C_5  and  C_11
    5  A    between atoms: C_5  and  O_21
    6  A    between atoms: C_8  and  C_9
    7  A    between atoms: C_8  and  C_13
    8  A    between atoms: C_9  and  C_42
    9  A    between atoms: C_11  and  C_34
   10  A    between atoms: C_19  and  O_21
   11  A    between atoms: C_19  and  O_33
   12  A    between atoms: C_26  and  N_30
   13  A    between atoms: N_30  and  C_37
   14  A    between atoms: N_32  and  C_35
   15  A    between atoms: O_33  and  C_45
   16  A    between atoms: C_39  and  C_44
   17  A    between atoms: C_42  and  C_45
                            x       y       z     vdW  Elec       q    Type
                         _______ _______ _______ _____ _____    ______ ____

>  <TORSDO>
F 17

$$$$
=
 OpenBabel10232408293D

 45 47  0  0  1  0  0  0  0  0999 V2000
  182.2950  177.9890  138.1130 C   0  0  2  0  0  3  0  0  0  0  0  0
  181.3080  179.7070  136.6430 C   0  0  0  0  0  3  0  0  0  0  0  0
  181.4830  178.7460  135.5080 C   0  0  0  0  0  2  0  0  0  0  0  0
  181.6850  179.3460  137.8730 C   0  0  0  0  0  3  0  0  0  0  0  0
  181.5590  176.8990  137.2890 C   0  0  1  0  0  3  0  0  0  0  0  0
  180.9960  177.3580  135.9260 C   0  0  0  0  0  2  0  0  0  0  0  0
  182.3460  175.6670  137.1460 N   0  0  0  0  0  0  0  0  0  0  0  0
  182.2570  173.3170  137.0640 O   0  0  0  0  0  0  0  0  0  0  0  0
  183.7620  175.7160  136.8480 C   0  0  0  0  0  0  0  0  0  0  0  0
  184.4980  174.7210  137.0830 O   0  0  0  0  0  0  0  0  0  0  0  0
  181.6600  174.4040  137.2890 C   0  0  0  0  0  0  0  0  0  0  0  0
  179.9820  173.2330  138.6650 C   0  0  0  0  0  1  0  0  0  0  0  0
  180.2140  174.3540  137.6710 C   0  0  0  0  0  2  0  0  0  0  0  0
  184.3910  176.9440  136.2710 C   0  0  0  0  0  2  0  0  0  0  0  0
  185.5170  176.5850  135.3140 C   0  0  0  0  0  2  0  0  0  0  0  0
  186.6570  177.3340  135.6100 O   0  0  0  0  0  0  0  0  0  0  0  0
  187.7250  176.5400  135.1920 C   0  0  0  0  0  2  0  0  0  0  0  0
  188.9120  177.0310  135.7360 O   0  0  0  0  0  0  0  0  0  0  0  0
  189.0240  176.4000  136.9760 C   0  0  0  0  0  2  0  0  0  0  0  0
  191.3660  176.0730  137.7280 C   0  0  0  0  0  1  0  0  0  0  0  0
  190.1700  177.0050  137.7670 C   0  0  2  0  0  3  0  0  0  0  0  0
  189.7380  177.2020  139.2120 C   0  0  0  0  0  2  0  0  0  0  0  0
  189.0480  178.5450  139.4530 C   0  0  1  0  0  3  0  0  0  0  0  0
  189.0320  179.3230  138.2910 O   0  0  0  0  0  1  0  0  0  0  0  0
  187.6510  178.4100  140.0550 C   0  0  0  0  0  2  0  0  0  0  0  0
  187.7180  178.2280  141.4960 N   0  0  0  0  0  1  0  0  0  0  0  0
  183.0680  176.5410  139.8740 O   0  0  0  0  0  1  0  0  0  0  0  0
  182.2930  177.6720  139.6110 C   0  0  1  0  0  3  0  0  0  0  0  0
  182.8330  178.8020  140.3580 N   0  0  0  0  0  2  0  0  0  0  0  0
  184.1940  178.8710  142.4190 C   0  0  0  0  0  3  0  0  0  0  0  0
  181.8820  178.8180  143.9210 N   0  0  0  0  0  0  0  0  0  0  0  0
  184.2730  178.8900  143.8130 C   0  0  0  0  0  0  0  0  0  0  0  0
  182.9470  178.8250  141.7830 C   0  0  0  0  0  0  0  0  0  0  0  0
  181.7910  178.7980  142.5650 C   0  0  0  0  0  3  0  0  0  0  0  0
  183.0840  178.8640  144.5530 C   0  0  0  0  0  3  0  0  0  0  0  0
  187.6870  178.0620  145.3330 N   0  0  0  0  0  2  0  0  0  0  0  0
  186.1060  176.6600  144.3510 O   0  0  0  0  0  0  0  0  0  0  0  0
  185.5630  178.9390  144.4370 N   0  0  0  0  0  2  0  0  0  0  0  0
  186.4310  177.8280  144.6930 C   0  0  0  0  0  0  0  0  0  0  0  0
  189.6560  176.8680  144.5120 C   0  0  0  0  0  2  0  0  0  0  0  0
  191.6100  177.0720  146.0960 C   0  0  0  0  0  2  0  0  0  0  0  0
  188.6260  176.9940  145.6430 C   0  0  0  0  0  3  0  0  0  0  0  0
  189.2620  177.2370  147.0200 C   0  0  0  0  0  2  0  0  0  0  0  0
  190.6120  176.5380  147.1340 C   0  0  0  0  0  2  0  0  0  0  0  0
  190.9430  177.6240  144.8310 C   0  0  0  0  0  2  0  0  0  0  0  0
  1 28  1  1  0  0  0
  2  4  2  0  0  0  0
  3  6  1  0  0  0  0
  3  2  1  0  0  0  0
  4  1  1  0  0  0  0
  5  7  1  6  0  0  0
  5  1  1  0  0  0  0
  6  5  1  0  0  0  0
  7 11  1  0  0  0  0
  8 11  2  0  0  0  0
  9 10  2  0  0  0  0
  9  7  1  0  0  0  0
 11 13  1  0  0  0  0
 13 12  1  0  0  0  0
 14  9  1  0  0  0  0
 15 16  1  0  0  0  0
 15 14  1  0  0  0  0
 17 16  1  0  0  0  0
 17 18  1  0  0  0  0
 18 19  1  0  0  0  0
 19 21  1  0  0  0  0
 21 20  1  1  0  0  0
 21 22  1  0  0  0  0
 22 23  1  0  0  0  0
 23 24  1  6  0  0  0
 23 25  1  0  0  0  0
 25 26  1  0  0  0  0
 28 27  1  6  0  0  0
 28 29  1  0  0  0  0
 29 33  1  0  0  0  0
 30 32  1  0  0  0  0
 31 35  1  0  0  0  0
 32 38  1  0  0  0  0
 32 35  2  0  0  0  0
 33 30  2  0  0  0  0
 33 34  1  0  0  0  0
 34 31  2  0  0  0  0
 36 42  1  0  0  0  0
 37 39  2  0  0  0  0
 38 39  1  0  0  0  0
 39 36  1  0  0  0  0
 40 45  1  0  0  0  0
 40 42  1  0  0  0  0
 41 44  1  0  0  0  0
 42 43  1  0  0  0  0
 43 44  1  0  0  0  0
 45 41  1  0  0  0  0
M  END
>  <MODEL>
6

>  <REMARK>
 VINA RESULT:      -6.0      2.429      6.440
  Name = 
  17 active torsions:
  status: ('A' for Active; 'I' for Inactive)
    1  A    between atoms: N_1  and  C_10
    2  A    between atoms: N_2  and  C_29
    3  A    between atoms: C_3  and  C_26
    4  A    between atoms: C_5  and  C_11
    5  A    between atoms: C_5  and  O_21
    6  A    between atoms: C_8  and  C_9
    7  A    between atoms: C_8  and  C_13
    8  A    between atoms: C_9  and  C_42
    9  A    between atoms: C_11  and  C_34
   10  A    between atoms: C_19  and  O_21
   11  A    between atoms: C_19  and  O_33
   12  A    between atoms: C_26  and  N_30
   13  A    between atoms: N_30  and  C_37
   14  A    between atoms: N_32  and  C_35
   15  A    between atoms: O_33  and  C_45
   16  A    between atoms: C_39  and  C_44
   17  A    between atoms: C_42  and  C_45
                            x       y       z     vdW  Elec       q    Type
                         _______ _______ _______ _____ _____    ______ ____

>  <TORSDO>
F 17

$$$$
=
 OpenBabel10232408293D

 45 47  0  0  1  0  0  0  0  0999 V2000
  189.9550  178.0780  145.1560 C   0  0  2  0  0  3  0  0  0  0  0  0
  191.5990  176.6690  146.3400 C   0  0  0  0  0  3  0  0  0  0  0  0
  190.5790  176.5020  147.4240 C   0  0  0  0  0  2  0  0  0  0  0  0
  191.3010  177.4080  145.2670 C   0  0  0  0  0  3  0  0  0  0  0  0
  188.8280  177.1380  145.6600 C   0  0  1  0  0  3  0  0  0  0  0  0
  189.2170  176.1810  146.8080 C   0  0  0  0  0  2  0  0  0  0  0  0
  187.5860  177.8580  145.9730 N   0  0  0  0  0  0  0  0  0  0  0  0
  186.5350  179.3360  147.4730 O   0  0  0  0  0  0  0  0  0  0  0  0
  186.4610  177.8380  145.0610 C   0  0  0  0  0  0  0  0  0  0  0  0
  185.3050  178.1270  145.4670 O   0  0  0  0  0  0  0  0  0  0  0  0
  187.5280  178.6070  147.2060 C   0  0  0  0  0  0  0  0  0  0  0  0
  188.1550  178.1200  149.5400 C   0  0  0  0  0  1  0  0  0  0  0  0
  188.6600  178.5670  148.1840 C   0  0  0  0  0  2  0  0  0  0  0  0
  186.6350  177.4610  143.6230 C   0  0  0  0  0  2  0  0  0  0  0  0
  185.4420  177.9060  142.7930 C   0  0  0  0  0  2  0  0  0  0  0  0
  185.8060  178.9630  141.9560 O   0  0  0  0  0  0  0  0  0  0  0  0
  184.7700  179.0560  141.0270 C   0  0  0  0  0  2  0  0  0  0  0  0
  185.3040  179.1560  139.7420 O   0  0  0  0  0  0  0  0  0  0  0  0
  184.2000  179.0840  138.8910 C   0  0  0  0  0  2  0  0  0  0  0  0
  183.7330  176.7560  138.1690 C   0  0  0  0  0  1  0  0  0  0  0  0
  184.4440  178.0460  137.8090 C   0  0  2  0  0  3  0  0  0  0  0  0
  185.9370  177.7770  137.6950 C   0  0  0  0  0  2  0  0  0  0  0  0
  186.3370  177.1880  136.3420 C   0  0  1  0  0  3  0  0  0  0  0  0
  186.9930  178.1360  135.5500 O   0  0  0  0  0  1  0  0  0  0  0  0
  187.1460  175.8980  136.4560 C   0  0  0  0  0  2  0  0  0  0  0  0
  186.3530  174.7460  136.0560 N   0  0  0  0  0  1  0  0  0  0  0  0
  190.7730  179.3380  143.2750 O   0  0  0  0  0  1  0  0  0  0  0  0
  189.7170  178.5360  143.7140 C   0  0  1  0  0  3  0  0  0  0  0  0
  189.6040  177.3770  142.8370 N   0  0  0  0  0  2  0  0  0  0  0  0
  190.4250  176.5920  140.6440 C   0  0  0  0  0  3  0  0  0  0  0  0
  188.8920  178.5210  139.4050 N   0  0  0  0  0  0  0  0  0  0  0  0
  190.4390  176.6990  139.2520 C   0  0  0  0  0  0  0  0  0  0  0  0
  189.6380  177.4590  141.4100 C   0  0  0  0  0  0  0  0  0  0  0  0
  188.8710  178.4280  140.7610 C   0  0  0  0  0  3  0  0  0  0  0  0
  189.6510  177.6860  138.6460 C   0  0  0  0  0  3  0  0  0  0  0  0
  193.3220  174.8950  137.4940 N   0  0  0  0  0  2  0  0  0  0  0  0
  193.3410  176.8140  138.8170 O   0  0  0  0  0  0  0  0  0  0  0  0
  191.2540  175.7970  138.4920 N   0  0  0  0  0  2  0  0  0  0  0  0
  192.6700  175.8860  138.2910 C   0  0  0  0  0  0  0  0  0  0  0  0
  195.4950  174.1600  138.3430 C   0  0  0  0  0  2  0  0  0  0  0  0
  196.6820  172.6490  136.7060 C   0  0  0  0  0  2  0  0  0  0  0  0
  194.7530  174.9130  137.2290 C   0  0  0  0  0  3  0  0  0  0  0  0
  195.0330  174.3530  135.8260 C   0  0  0  0  0  2  0  0  0  0  0  0
  196.4540  173.8080  135.7250 C   0  0  0  0  0  2  0  0  0  0  0  0
  195.7880  172.7140  137.9510 C   0  0  0  0  0  2  0  0  0  0  0  0
  1 28  1  6  0  0  0
  1  4  1  0  0  0  0
  1  5  1  0  0  0  0
  2  3  1  0  0  0  0
  4  2  2  0  0  0  0
  5  7  1  1  0  0  0
  5  6  1  0  0  0  0
  6  3  1  0  0  0  0
  7 11  1  0  0  0  0
  9 10  2  0  0  0  0
  9  7  1  0  0  0  0
 11  8  2  0  0  0  0
 11 13  1  0  0  0  0
 13 12  1  0  0  0  0
 14  9  1  0  0  0  0
 15 14  1  0  0  0  0
 16 15  1  0  0  0  0
 17 16  1  0  0  0  0
 18 17  1  0  0  0  0
 19 18  1  0  0  0  0
 21 20  1  1  0  0  0
 21 19  1  0  0  0  0
 22 21  1  0  0  0  0
 23 24  1  1  0  0  0
 23 25  1  0  0  0  0
 23 22  1  0  0  0  0
 26 25  1  0  0  0  0
 28 27  1  6  0  0  0
 29 28  1  0  0  0  0
 30 33  1  0  0  0  0
 31 34  1  0  0  0  0
 32 30  2  0  0  0  0
 33 29  1  0  0  0  0
 34 33  2  0  0  0  0
 35 32  1  0  0  0  0
 35 31  2  0  0  0  0
 36 39  1  0  0  0  0
 38 32  1  0  0  0  0
 39 38  1  0  0  0  0
 39 37  2  0  0  0  0
 41 45  1  0  0  0  0
 42 36  1  0  0  0  0
 42 40  1  0  0  0  0
 43 42  1  0  0  0  0
 44 43  1  0  0  0  0
 44 41  1  0  0  0  0
 45 40  1  0  0  0  0
M  END
>  <MODEL>
7

>  <REMARK>
 VINA RESULT:      -6.0      3.664     10.617
  Name = 
  17 active torsions:
  status: ('A' for Active; 'I' for Inactive)
    1  A    between atoms: N_1  and  C_10
    2  A    between atoms: N_2  and  C_29
    3  A    between atoms: C_3  and  C_26
    4  A    between atoms: C_5  and  C_11
    5  A    between atoms: C_5  and  O_21
    6  A    between atoms: C_8  and  C_9
    7  A    between atoms: C_8  and  C_13
    8  A    between atoms: C_9  and  C_42
    9  A    between atoms: C_11  and  C_34
   10  A    between atoms: C_19  and  O_21
   11  A    between atoms: C_19  and  O_33
   12  A    between atoms: C_26  and  N_30
   13  A    between atoms: N_30  and  C_37
   14  A    between atoms: N_32  and  C_35
   15  A    between atoms: O_33  and  C_45
   16  A    between atoms: C_39  and  C_44
   17  A    between atoms: C_42  and  C_45
                            x       y       z     vdW  Elec       q    Type
                         _______ _______ _______ _____ _____    ______ ____

>  <TORSDO>
F 17

$$$$
=
 OpenBabel10232408293D

 45 47  0  0  1  0  0  0  0  0999 V2000
  182.5910  178.7030  137.9890 C   0  0  2  0  0  3  0  0  0  0  0  0
  181.1420  180.2860  136.7700 C   0  0  0  0  0  3  0  0  0  0  0  0
  180.7740  179.1510  135.8640 C   0  0  0  0  0  2  0  0  0  0  0  0
  181.9940  180.0710  137.7770 C   0  0  0  0  0  3  0  0  0  0  0  0
  181.5270  177.5960  137.7610 C   0  0  1  0  0  3  0  0  0  0  0  0
  180.4550  177.9080  136.6950 C   0  0  0  0  0  2  0  0  0  0  0  0
  182.1250  176.2730  137.5360 N   0  0  0  0  0  0  0  0  0  0  0  0
  181.8060  173.9500  137.7360 O   0  0  0  0  0  0  0  0  0  0  0  0
  183.3910  176.1330  136.8460 C   0  0  0  0  0  0  0  0  0  0  0  0
  184.0710  175.0800  136.9690 O   0  0  0  0  0  0  0  0  0  0  0  0
  181.4000  175.1140  138.0020 C   0  0  0  0  0  0  0  0  0  0  0  0
  180.4330  175.2550  140.2650 C   0  0  0  0  0  1  0  0  0  0  0  0
  180.1320  175.2620  138.7800 C   0  0  0  0  0  2  0  0  0  0  0  0
  183.9310  177.2310  135.9850 C   0  0  0  0  0  2  0  0  0  0  0  0
  185.3750  176.9610  135.5960 C   0  0  0  0  0  2  0  0  0  0  0  0
  186.1670  178.0730  135.8880 O   0  0  0  0  0  0  0  0  0  0  0  0
  186.5000  177.9310  137.2360 C   0  0  0  0  0  2  0  0  0  0  0  0
  187.6350  178.6900  137.5190 O   0  0  0  0  0  0  0  0  0  0  0  0
  188.0920  178.2060  138.7450 C   0  0  0  0  0  2  0  0  0  0  0  0
  189.9570  176.9050  139.7400 C   0  0  0  0  0  1  0  0  0  0  0  0
  189.0660  177.0620  138.5220 C   0  0  2  0  0  3  0  0  0  0  0  0
  189.9300  177.3640  137.3080 C   0  0  0  0  0  2  0  0  0  0  0  0
  190.3020  176.1120  136.5120 C   0  0  1  0  0  3  0  0  0  0  0  0
  191.5950  175.6790  136.8220 O   0  0  0  0  0  1  0  0  0  0  0  0
  189.2850  174.9810  136.6490 C   0  0  0  0  0  2  0  0  0  0  0  0
  188.3490  174.9810  135.5360 N   0  0  0  0  0  1  0  0  0  0  0  0
  184.1180  179.6650  139.5820 O   0  0  0  0  0  1  0  0  0  0  0  0
  183.2170  178.6170  139.3840 C   0  0  1  0  0  3  0  0  0  0  0  0
  182.1750  178.6870  140.4010 N   0  0  0  0  0  2  0  0  0  0  0  0
  183.7230  178.4700  142.3130 C   0  0  0  0  0  3  0  0  0  0  0  0
  181.6410  179.0200  144.0350 N   0  0  0  0  0  0  0  0  0  0  0  0
  183.9530  178.5020  143.6900 C   0  0  0  0  0  0  0  0  0  0  0  0
  182.4420  178.7160  141.8050 C   0  0  0  0  0  0  0  0  0  0  0  0
  181.4040  178.9910  142.6970 C   0  0  0  0  0  3  0  0  0  0  0  0
  182.8790  178.7850  144.5440 C   0  0  0  0  0  3  0  0  0  0  0  0
  187.6960  177.7900  144.0580 N   0  0  0  0  0  2  0  0  0  0  0  0
  186.4090  178.0780  142.1370 O   0  0  0  0  0  0  0  0  0  0  0  0
  185.2760  178.2480  144.1820 N   0  0  0  0  0  2  0  0  0  0  0  0
  186.4550  178.0370  143.3950 C   0  0  0  0  0  0  0  0  0  0  0  0
  190.0730  178.3630  143.9880 C   0  0  0  0  0  2  0  0  0  0  0  0
  191.5400  176.3280  144.2660 C   0  0  0  0  0  2  0  0  0  0  0  0
  188.9400  177.5530  143.3400 C   0  0  0  0  0  3  0  0  0  0  0  0
  189.2300  176.0460  143.2750 C   0  0  0  0  0  2  0  0  0  0  0  0
  190.7200  175.7800  143.0880 C   0  0  0  0  0  2  0  0  0  0  0  0
  190.8810  177.5190  144.9710 C   0  0  0  0  0  2  0  0  0  0  0  0
  1 28  1  1  0  0  0
  2  4  2  0  0  0  0
  3  6  1  0  0  0  0
  3  2  1  0  0  0  0
  4  1  1  0  0  0  0
  5  7  1  6  0  0  0
  5  1  1  0  0  0  0
  6  5  1  0  0  0  0
  7 11  1  0  0  0  0
  8 11  2  0  0  0  0
  9 10  2  0  0  0  0
  9  7  1  0  0  0  0
 11 13  1  0  0  0  0
 13 12  1  0  0  0  0
 14  9  1  0  0  0  0
 15 16  1  0  0  0  0
 15 14  1  0  0  0  0
 16 17  1  0  0  0  0
 17 18  1  0  0  0  0
 18 19  1  0  0  0  0
 21 19  1  0  0  0  0
 21 20  1  1  0  0  0
 22 21  1  0  0  0  0
 23 25  1  0  0  0  0
 23 24  1  1  0  0  0
 23 22  1  0  0  0  0
 26 25  1  0  0  0  0
 28 27  1  1  0  0  0
 28 29  1  0  0  0  0
 29 33  1  0  0  0  0
 30 32  1  0  0  0  0
 31 35  1  0  0  0  0
 32 38  1  0  0  0  0
 32 35  2  0  0  0  0
 33 30  2  0  0  0  0
 33 34  1  0  0  0  0
 34 31  2  0  0  0  0
 37 39  2  0  0  0  0
 39 36  1  0  0  0  0
 39 38  1  0  0  0  0
 40 45  1  0  0  0  0
 41 45  1  0  0  0  0
 42 40  1  0  0  0  0
 42 36  1  0  0  0  0
 43 42  1  0  0  0  0
 44 43  1  0  0  0  0
 44 41  1  0  0  0  0
M  END
>  <MODEL>
8

>  <REMARK>
 VINA RESULT:      -5.9      2.347      6.759
  Name = 
  17 active torsions:
  status: ('A' for Active; 'I' for Inactive)
    1  A    between atoms: N_1  and  C_10
    2  A    between atoms: N_2  and  C_29
    3  A    between atoms: C_3  and  C_26
    4  A    between atoms: C_5  and  C_11
    5  A    between atoms: C_5  and  O_21
    6  A    between atoms: C_8  and  C_9
    7  A    between atoms: C_8  and  C_13
    8  A    between atoms: C_9  and  C_42
    9  A    between atoms: C_11  and  C_34
   10  A    between atoms: C_19  and  O_21
   11  A    between atoms: C_19  and  O_33
   12  A    between atoms: C_26  and  N_30
   13  A    between atoms: N_30  and  C_37
   14  A    between atoms: N_32  and  C_35
   15  A    between atoms: O_33  and  C_45
   16  A    between atoms: C_39  and  C_44
   17  A    between atoms: C_42  and  C_45
                            x       y       z     vdW  Elec       q    Type
                         _______ _______ _______ _____ _____    ______ ____

>  <TORSDO>
F 17

$$$$
=
 OpenBabel10232408293D

 45 47  0  0  1  0  0  0  0  0999 V2000
  189.8840  178.1470  145.1460 C   0  0  2  0  0  3  0  0  0  0  0  0
  191.5140  176.7330  146.3440 C   0  0  0  0  0  3  0  0  0  0  0  0
  190.4790  176.5580  147.4130 C   0  0  0  0  0  2  0  0  0  0  0  0
  191.2290  177.4770  145.2710 C   0  0  0  0  0  3  0  0  0  0  0  0
  188.7510  177.2020  145.6280 C   0  0  1  0  0  3  0  0  0  0  0  0
  189.1260  176.2390  146.7760 C   0  0  0  0  0  2  0  0  0  0  0  0
  187.5040  177.9190  145.9280 N   0  0  0  0  0  0  0  0  0  0  0  0
  186.4290  179.3830  147.4230 O   0  0  0  0  0  0  0  0  0  0  0  0
  186.3940  177.9050  144.9980 C   0  0  0  0  0  0  0  0  0  0  0  0
  185.2310  178.1900  145.3890 O   0  0  0  0  0  0  0  0  0  0  0  0
  187.4270  178.6570  147.1660 C   0  0  0  0  0  0  0  0  0  0  0  0
  188.0320  178.0860  149.4870 C   0  0  0  0  0  1  0  0  0  0  0  0
  188.5440  178.6100  148.1600 C   0  0  0  0  0  2  0  0  0  0  0  0
  186.5900  177.5400  143.5610 C   0  0  0  0  0  2  0  0  0  0  0  0
  185.3900  177.9520  142.7230 C   0  0  0  0  0  2  0  0  0  0  0  0
  185.6660  179.1370  142.0380 O   0  0  0  0  0  0  0  0  0  0  0  0
  184.8040  179.1250  140.9410 C   0  0  0  0  0  2  0  0  0  0  0  0
  185.4500  178.5500  139.8460 O   0  0  0  0  0  0  0  0  0  0  0  0
  184.7190  178.9770  138.7370 C   0  0  0  0  0  2  0  0  0  0  0  0
  183.9980  177.3250  137.0310 C   0  0  0  0  0  1  0  0  0  0  0  0
  183.6670  177.9430  138.3760 C   0  0  2  0  0  3  0  0  0  0  0  0
  182.3050  178.6140  138.2960 C   0  0  0  0  0  2  0  0  0  0  0  0
  181.3800  178.2320  139.4520 C   0  0  1  0  0  3  0  0  0  0  0  0
  181.9030  177.1640  140.1880 O   0  0  0  0  0  1  0  0  0  0  0  0
  181.0170  179.4090  140.3550 C   0  0  0  0  0  2  0  0  0  0  0  0
  181.1030  179.0380  141.7580 N   0  0  0  0  0  1  0  0  0  0  0  0
  190.7430  179.3900  143.2710 O   0  0  0  0  0  1  0  0  0  0  0  0
  189.6660  178.6130  143.7030 C   0  0  1  0  0  3  0  0  0  0  0  0
  189.5290  177.4580  142.8230 N   0  0  0  0  0  2  0  0  0  0  0  0
  190.3550  176.6620  140.6360 C   0  0  0  0  0  3  0  0  0  0  0  0
  188.8680  178.6200  139.3860 N   0  0  0  0  0  0  0  0  0  0  0  0
  190.3830  176.7700  139.2440 C   0  0  0  0  0  0  0  0  0  0  0  0
  189.5770  177.5420  141.3970 C   0  0  0  0  0  0  0  0  0  0  0  0
  188.8330  178.5250  140.7420 C   0  0  0  0  0  3  0  0  0  0  0  0
  189.6170  177.7720  138.6330 C   0  0  0  0  0  3  0  0  0  0  0  0
  193.2480  174.9110  137.5150 N   0  0  0  0  0  2  0  0  0  0  0  0
  193.2920  176.8210  138.8490 O   0  0  0  0  0  0  0  0  0  0  0  0
  191.1870  175.8540  138.4900 N   0  0  0  0  0  2  0  0  0  0  0  0
  192.6080  175.9120  138.3090 C   0  0  0  0  0  0  0  0  0  0  0  0
  195.3940  174.1460  138.4030 C   0  0  0  0  0  2  0  0  0  0  0  0
  196.5740  172.5910  136.8030 C   0  0  0  0  0  2  0  0  0  0  0  0
  194.6820  174.8980  137.2690 C   0  0  0  0  0  3  0  0  0  0  0  0
  194.9700  174.3140  135.8770 C   0  0  0  0  0  2  0  0  0  0  0  0
  196.3820  173.7400  135.8030 C   0  0  0  0  0  2  0  0  0  0  0  0
  195.6650  172.6900  138.0350 C   0  0  0  0  0  2  0  0  0  0  0  0
  1 28  1  6  0  0  0
  1  4  1  0  0  0  0
  1  5  1  0  0  0  0
  2  3  1  0  0  0  0
  4  2  2  0  0  0  0
  5  7  1  1  0  0  0
  5  6  1  0  0  0  0
  6  3  1  0  0  0  0
  7 11  1  0  0  0  0
  9 10  2  0  0  0  0
  9  7  1  0  0  0  0
 11  8  2  0  0  0  0
 11 13  1  0  0  0  0
 13 12  1  0  0  0  0
 14  9  1  0  0  0  0
 15 14  1  0  0  0  0
 16 15  1  0  0  0  0
 17 16  1  0  0  0  0
 18 17  1  0  0  0  0
 19 18  1  0  0  0  0
 21 20  1  6  0  0  0
 21 19  1  0  0  0  0
 22 21  1  0  0  0  0
 22 23  1  0  0  0  0
 23 24  1  1  0  0  0
 23 25  1  0  0  0  0
 25 26  1  0  0  0  0
 28 27  1  6  0  0  0
 29 28  1  0  0  0  0
 30 33  1  0  0  0  0
 31 34  1  0  0  0  0
 32 30  2  0  0  0  0
 33 29  1  0  0  0  0
 34 33  2  0  0  0  0
 35 32  1  0  0  0  0
 35 31  2  0  0  0  0
 36 39  1  0  0  0  0
 38 32  1  0  0  0  0
 39 38  1  0  0  0  0
 39 37  2  0  0  0  0
 41 45  1  0  0  0  0
 42 36  1  0  0  0  0
 42 40  1  0  0  0  0
 43 42  1  0  0  0  0
 44 43  1  0  0  0  0
 44 41  1  0  0  0  0
 45 40  1  0  0  0  0
M  END
>  <MODEL>
9

>  <REMARK>
 VINA RESULT:      -5.9      3.682     10.639
  Name = 
  17 active torsions:
  status: ('A' for Active; 'I' for Inactive)
    1  A    between atoms: N_1  and  C_10
    2  A    between atoms: N_2  and  C_29
    3  A    between atoms: C_3  and  C_26
    4  A    between atoms: C_5  and  C_11
    5  A    between atoms: C_5  and  O_21
    6  A    between atoms: C_8  and  C_9
    7  A    between atoms: C_8  and  C_13
    8  A    between atoms: C_9  and  C_42
    9  A    between atoms: C_11  and  C_34
   10  A    between atoms: C_19  and  O_21
   11  A    between atoms: C_19  and  O_33
   12  A    between atoms: C_26  and  N_30
   13  A    between atoms: N_30  and  C_37
   14  A    between atoms: N_32  and  C_35
   15  A    between atoms: O_33  and  C_45
   16  A    between atoms: C_39  and  C_44
   17  A    between atoms: C_42  and  C_45
                            x       y       z     vdW  Elec       q    Type
                         _______ _______ _______ _____ _____    ______ ____

>  <TORSDO>
F 17

$$$$
