=
 OpenBabel10232411283D

 36 39  0  0  1  0  0  0  0  0999 V2000
  183.0480  179.1440  143.6700 S   0  0  0  0  0  0  0  0  0  0  0  0
  181.7980  178.8710  141.2140 N   0  0  0  0  0  1  0  0  0  0  0  0
  184.6500  178.6500  143.7900 C   0  0  0  0  0  0  0  0  0  0  0  0
  186.8180  178.0160  144.0130 C   0  0  0  0  0  0  0  0  0  0  0  0
  184.1720  178.1910  141.5780 C   0  0  0  0  0  0  0  0  0  0  0  0
  186.4450  177.7500  142.6470 N   0  0  0  0  0  0  0  0  0  0  0  0
  182.9570  178.7140  142.0230 C   0  0  0  0  0  0  0  0  0  0  0  0
  188.0420  177.7450  144.4960 C   0  0  2  0  0  3  0  0  0  0  0  0
  184.4170  177.7610  140.3160 F   0  0  0  0  0  0  0  0  0  0  0  0
  185.6900  178.6100  144.8390 C   0  0  0  0  0  2  0  0  0  0  0  0
  185.0980  178.1740  142.6120 C   0  0  0  0  0  0  0  0  0  0  0  0
  188.8610  175.7650  143.1600 C   0  0  0  0  0  1  0  0  0  0  0  0
  190.2310  177.8500  143.3390 C   0  0  0  0  0  0  0  0  0  0  0  0
  189.0970  177.1630  143.6340 C   0  0  0  0  0  0  0  0  0  0  0  0
  190.4740  179.1960  143.9440 C   0  0  0  0  0  1  0  0  0  0  0  0
  191.3290  177.3700  142.4650 C   0  0  0  0  0  3  0  0  0  0  0  0
  191.2200  177.0710  139.8720 C   0  0  0  0  0  3  0  0  0  0  0  0
  191.2690  177.2210  141.1680 C   0  0  0  0  0  0  0  0  0  0  0  0
  191.0880  175.1150  135.1560 C   0  0  0  0  0  3  0  0  0  0  0  0
  190.5070  174.9190  137.6470 C   0  0  0  0  0  3  0  0  0  0  0  0
  192.4230  176.1720  136.8550 C   0  0  0  0  0  0  0  0  0  0  0  0
  192.1530  176.1320  139.1850 C   0  0  1  0  0  3  0  0  0  0  0  0
  193.0550  176.3530  134.3650 C   0  0  0  0  0  1  0  0  0  0  0  0
  193.4160  176.8360  137.3340 N   0  0  0  0  0  2  0  0  0  0  0  0
  190.1280  174.5840  136.2160 C   0  0  0  0  0  3  0  0  0  0  0  0
  191.5690  175.6820  137.8950 C   0  0  0  0  0  0  0  0  0  0  0  0
  193.3000  176.8450  138.7110 O   0  0  0  0  0  0  0  0  0  0  0  0
  192.1590  175.8660  135.4490 C   0  0  0  0  0  0  0  0  0  0  0  0
  188.3490  177.9660  145.9460 C   0  0  0  0  0  2  0  0  0  0  0  0
  188.8300  176.6750  146.5900 C   0  0  0  0  0  2  0  0  0  0  0  0
  189.9380  176.9640  147.5910 C   0  0  2  0  0  3  0  0  0  0  0  0
  189.6400  178.1840  148.3230 N   0  0  0  0  0  1  0  0  0  0  0  0
  191.3130  177.0540  146.9240 C   0  0  0  0  0  2  0  0  0  0  0  0
  192.6290  175.6660  148.3550 O   0  0  0  0  0  1  0  0  0  0  0  0
  192.1710  175.8600  147.1990 C   0  0  0  0  0  0  0  0  0  0  0  0
  192.4410  174.9490  146.1870 O   0  0  0  0  0  0  0  0  0  0  0  0
  1  3  1  0  0  0  0
  2  7  1  0  0  0  0
  3 10  1  0  0  0  0
  4  8  1  0  0  0  0
  4 10  1  0  0  0  0
  5  7  2  0  0  0  0
  5 11  1  0  0  0  0
  6  4  2  0  0  0  0
  7  1  1  0  0  0  0
  8 29  1  1  0  0  0
  9  5  1  0  0  0  0
 11  6  1  0  0  0  0
 11  3  2  0  0  0  0
 12 14  1  0  0  0  0
 13 14  2  0  0  0  0
 13 15  1  0  0  0  0
 14  8  1  0  0  0  0
 16 13  1  0  0  0  0
 17 18  2  0  0  0  0
 18 16  2  0  0  0  0
 19 28  2  0  0  0  0
 19 25  1  0  0  0  0
 20 26  1  0  0  0  0
 21 24  1  0  0  0  0
 21 26  2  0  0  0  0
 22 17  1  6  0  0  0
 23 28  1  0  0  0  0
 24 27  1  0  0  0  0
 25 20  2  0  0  0  0
 26 22  1  0  0  0  0
 27 22  1  0  0  0  0
 28 21  1  0  0  0  0
 29 30  1  0  0  0  0
 30 31  1  0  0  0  0
 31 32  1  6  0  0  0
 33 35  1  0  0  0  0
 33 31  1  0  0  0  0
 35 34  1  0  0  0  0
 36 35  2  0  0  0  0
M  END
>  <MODEL>
1

>  <REMARK>
 VINA RESULT:      -8.4      0.000      0.000
  Name = 
  8 active torsions:
  status: ('A' for Active; 'I' for Inactive)
    1  A    between atoms: C_7  and  C_19
    2  A    between atoms: C_9  and  C_16
    3  A    between atoms: C_14  and  C_21
    4  A    between atoms: C_14  and  C_24
    5  A    between atoms: C_15  and  C_26
    6  A    between atoms: C_21  and  C_32
    7  A    between atoms: C_24  and  C_25
    8  A    between atoms: C_25  and  C_26
                            x       y       z     vdW  Elec       q    Type
                         _______ _______ _______ _____ _____    ______ ____

>  <TORSDO>
F 8

$$$$
=
 OpenBabel10232411283D

 36 39  0  0  1  0  0  0  0  0999 V2000
  183.3780  179.1210  145.1550 S   0  0  0  0  0  0  0  0  0  0  0  0
  181.3180  179.2660  143.3090 N   0  0  0  0  0  1  0  0  0  0  0  0
  184.8610  178.5340  144.6260 C   0  0  0  0  0  0  0  0  0  0  0  0
  186.8930  177.7670  143.9680 C   0  0  0  0  0  0  0  0  0  0  0  0
  183.5870  178.4210  142.7020 C   0  0  0  0  0  0  0  0  0  0  0  0
  186.0360  177.7180  142.8110 N   0  0  0  0  0  0  0  0  0  0  0  0
  182.6670  178.9360  143.6160 C   0  0  0  0  0  0  0  0  0  0  0  0
  188.1750  177.3680  143.9390 C   0  0  2  0  0  3  0  0  0  0  0  0
  183.3250  178.1640  141.3980 F   0  0  0  0  0  0  0  0  0  0  0  0
  186.1950  178.2930  145.2120 C   0  0  0  0  0  2  0  0  0  0  0  0
  184.8130  178.2100  143.3190 C   0  0  0  0  0  0  0  0  0  0  0  0
  189.3270  175.4680  142.7390 C   0  0  0  0  0  1  0  0  0  0  0  0
  188.9090  177.6480  141.5880 C   0  0  0  0  0  0  0  0  0  0  0  0
  188.7930  176.8630  142.6900 C   0  0  0  0  0  0  0  0  0  0  0  0
  188.4750  179.0780  141.6330 C   0  0  0  0  0  1  0  0  0  0  0  0
  189.4840  177.2300  140.2860 C   0  0  0  0  0  3  0  0  0  0  0  0
  189.2930  178.5260  138.0260 C   0  0  0  0  0  3  0  0  0  0  0  0
  189.3840  177.8820  139.1580 C   0  0  0  0  0  0  0  0  0  0  0  0
  191.1240  173.8660  137.0150 C   0  0  0  0  0  3  0  0  0  0  0  0
  191.5130  176.3920  137.2470 C   0  0  0  0  0  3  0  0  0  0  0  0
  189.3640  175.4600  136.6290 C   0  0  0  0  0  0  0  0  0  0  0  0
  189.4420  177.8030  136.7310 C   0  0  1  0  0  3  0  0  0  0  0  0
  188.9540  172.9330  136.3490 C   0  0  0  0  0  1  0  0  0  0  0  0
  188.1910  175.8650  136.2880 N   0  0  0  0  0  2  0  0  0  0  0  0
  192.0910  174.9930  137.3660 C   0  0  0  0  0  3  0  0  0  0  0  0
  190.2320  176.5600  136.9260 C   0  0  0  0  0  0  0  0  0  0  0  0
  188.1840  177.2460  136.3370 O   0  0  0  0  0  0  0  0  0  0  0  0
  189.8440  174.0790  136.6790 C   0  0  0  0  0  0  0  0  0  0  0  0
  188.9970  177.3640  145.1910 C   0  0  0  0  0  2  0  0  0  0  0  0
  190.0830  178.4250  145.1180 C   0  0  0  0  0  2  0  0  0  0  0  0
  191.4530  177.7730  145.0170 C   0  0  2  0  0  3  0  0  0  0  0  0
  191.9290  177.8270  143.6450 N   0  0  0  0  0  1  0  0  0  0  0  0
  191.4500  176.3310  145.5330 C   0  0  0  0  0  2  0  0  0  0  0  0
  192.8310  175.2780  147.1720 O   0  0  0  0  0  0  0  0  0  0  0  0
  192.0220  176.2060  146.9090 C   0  0  0  0  0  0  0  0  0  0  0  0
  191.6840  177.1270  147.8910 O   0  0  0  0  0  1  0  0  0  0  0  0
  2  7  1  0  0  0  0
  3  1  1  0  0  0  0
  3 10  1  0  0  0  0
  4 10  1  0  0  0  0
  5 11  1  0  0  0  0
  5  7  2  0  0  0  0
  6 11  1  0  0  0  0
  6  4  2  0  0  0  0
  7  1  1  0  0  0  0
  8  4  1  0  0  0  0
  8 29  1  1  0  0  0
  9  5  1  0  0  0  0
 11  3  2  0  0  0  0
 13 15  1  0  0  0  0
 13 14  2  0  0  0  0
 14 12  1  0  0  0  0
 14  8  1  0  0  0  0
 16 13  1  0  0  0  0
 17 18  2  0  0  0  0
 18 16  2  0  0  0  0
 19 25  1  0  0  0  0
 20 25  2  0  0  0  0
 21 28  1  0  0  0  0
 21 26  2  0  0  0  0
 22 26  1  0  0  0  0
 22 17  1  1  0  0  0
 23 28  1  0  0  0  0
 24 27  1  0  0  0  0
 24 21  1  0  0  0  0
 26 20  1  0  0  0  0
 27 22  1  0  0  0  0
 28 19  2  0  0  0  0
 30 29  1  0  0  0  0
 31 32  1  6  0  0  0
 31 30  1  0  0  0  0
 31 33  1  0  0  0  0
 33 35  1  0  0  0  0
 35 34  2  0  0  0  0
 35 36  1  0  0  0  0
M  END
>  <MODEL>
2

>  <REMARK>
 VINA RESULT:      -8.3      2.193      2.699
  Name = 
  8 active torsions:
  status: ('A' for Active; 'I' for Inactive)
    1  A    between atoms: C_7  and  C_19
    2  A    between atoms: C_9  and  C_16
    3  A    between atoms: C_14  and  C_21
    4  A    between atoms: C_14  and  C_24
    5  A    between atoms: C_15  and  C_26
    6  A    between atoms: C_21  and  C_32
    7  A    between atoms: C_24  and  C_25
    8  A    between atoms: C_25  and  C_26
                            x       y       z     vdW  Elec       q    Type
                         _______ _______ _______ _____ _____    ______ ____

>  <TORSDO>
F 8

$$$$
=
 OpenBabel10232411283D

 36 39  0  0  1  0  0  0  0  0999 V2000
  183.2240  179.3020  144.6590 S   0  0  0  0  0  0  0  0  0  0  0  0
  181.1960  179.1970  142.7760 N   0  0  0  0  0  1  0  0  0  0  0  0
  184.7240  178.6810  144.2260 C   0  0  0  0  0  0  0  0  0  0  0  0
  186.7790  177.8740  143.6960 C   0  0  0  0  0  0  0  0  0  0  0  0
  183.4870  178.3220  142.3090 C   0  0  0  0  0  0  0  0  0  0  0  0
  185.9430  177.6760  142.5390 N   0  0  0  0  0  0  0  0  0  0  0  0
  182.5430  178.9270  143.1410 C   0  0  0  0  0  0  0  0  0  0  0  0
  188.0670  177.4950  143.7340 C   0  0  2  0  0  3  0  0  0  0  0  0
  183.2520  177.9100  141.0400 F   0  0  0  0  0  0  0  0  0  0  0  0
  186.0520  178.5310  144.8570 C   0  0  0  0  0  2  0  0  0  0  0  0
  184.7040  178.2050  142.9660 C   0  0  0  0  0  0  0  0  0  0  0  0
  189.1740  175.4470  142.7550 C   0  0  0  0  0  1  0  0  0  0  0  0
  188.9180  177.5380  141.4070 C   0  0  0  0  0  0  0  0  0  0  0  0
  188.7140  176.8570  142.5640 C   0  0  0  0  0  0  0  0  0  0  0  0
  188.5550  178.9850  141.3110 C   0  0  0  0  0  1  0  0  0  0  0  0
  189.5280  176.9830  140.1740 C   0  0  0  0  0  3  0  0  0  0  0  0
  192.0770  176.9170  139.6080 C   0  0  0  0  0  3  0  0  0  0  0  0
  190.8050  176.9540  139.8950 C   0  0  0  0  0  0  0  0  0  0  0  0
  194.0180  172.9860  136.9880 C   0  0  0  0  0  3  0  0  0  0  0  0
  194.3830  175.0780  138.4280 C   0  0  0  0  0  3  0  0  0  0  0  0
  192.4370  174.7980  137.0120 C   0  0  0  0  0  0  0  0  0  0  0  0
  192.5300  176.8250  138.1900 C   0  0  1  0  0  3  0  0  0  0  0  0
  192.0640  172.7290  135.5260 C   0  0  0  0  0  1  0  0  0  0  0  0
  191.3920  175.4580  136.6550 N   0  0  0  0  0  2  0  0  0  0  0  0
  194.8890  173.7080  138.0120 C   0  0  0  0  0  3  0  0  0  0  0  0
  193.2250  175.5330  137.9560 C   0  0  0  0  0  0  0  0  0  0  0  0
  191.3980  176.6650  137.3280 O   0  0  0  0  0  0  0  0  0  0  0  0
  192.8650  173.4870  136.5240 C   0  0  0  0  0  0  0  0  0  0  0  0
  188.8660  177.6510  144.9910 C   0  0  0  0  0  2  0  0  0  0  0  0
  190.0610  178.5600  144.7520 C   0  0  0  0  0  2  0  0  0  0  0  0
  191.3580  177.7810  144.9080 C   0  0  2  0  0  3  0  0  0  0  0  0
  191.9890  177.6020  143.6110 N   0  0  0  0  0  1  0  0  0  0  0  0
  191.1440  176.4310  145.5980 C   0  0  0  0  0  2  0  0  0  0  0  0
  191.7550  177.1830  147.7800 O   0  0  0  0  0  1  0  0  0  0  0  0
  191.8960  176.3100  146.8850 C   0  0  0  0  0  0  0  0  0  0  0  0
  192.7310  175.2240  147.1040 O   0  0  0  0  0  0  0  0  0  0  0  0
  2  7  1  0  0  0  0
  3  1  1  0  0  0  0
  3 10  1  0  0  0  0
  4  8  1  0  0  0  0
  4 10  1  0  0  0  0
  5 11  1  0  0  0  0
  5  7  2  0  0  0  0
  6 11  1  0  0  0  0
  6  4  2  0  0  0  0
  7  1  1  0  0  0  0
  8 29  1  1  0  0  0
  9  5  1  0  0  0  0
 11  3  2  0  0  0  0
 13 14  2  0  0  0  0
 14 12  1  0  0  0  0
 14  8  1  0  0  0  0
 15 13  1  0  0  0  0
 16 13  1  0  0  0  0
 17 18  2  0  0  0  0
 18 16  2  0  0  0  0
 19 25  1  0  0  0  0
 21 26  2  0  0  0  0
 22 17  1  1  0  0  0
 23 28  1  0  0  0  0
 24 21  1  0  0  0  0
 24 27  1  0  0  0  0
 25 20  2  0  0  0  0
 26 22  1  0  0  0  0
 26 20  1  0  0  0  0
 27 22  1  0  0  0  0
 28 19  2  0  0  0  0
 28 21  1  0  0  0  0
 30 31  1  0  0  0  0
 30 29  1  0  0  0  0
 31 32  1  6  0  0  0
 31 33  1  0  0  0  0
 33 35  1  0  0  0  0
 35 36  2  0  0  0  0
 35 34  1  0  0  0  0
M  END
>  <MODEL>
3

>  <REMARK>
 VINA RESULT:      -7.9      1.931      2.320
  Name = 
  8 active torsions:
  status: ('A' for Active; 'I' for Inactive)
    1  A    between atoms: C_7  and  C_19
    2  A    between atoms: C_9  and  C_16
    3  A    between atoms: C_14  and  C_21
    4  A    between atoms: C_14  and  C_24
    5  A    between atoms: C_15  and  C_26
    6  A    between atoms: C_21  and  C_32
    7  A    between atoms: C_24  and  C_25
    8  A    between atoms: C_25  and  C_26
                            x       y       z     vdW  Elec       q    Type
                         _______ _______ _______ _____ _____    ______ ____

>  <TORSDO>
F 8

$$$$
=
 OpenBabel10232411283D

 36 39  0  0  1  0  0  0  0  0999 V2000
  182.6280  176.8790  135.6340 S   0  0  0  0  0  0  0  0  0  0  0  0
  180.7780  177.6380  137.5510 N   0  0  0  0  0  1  0  0  0  0  0  0
  184.2550  177.1150  135.9830 C   0  0  0  0  0  0  0  0  0  0  0  0
  186.4680  177.3910  136.4010 C   0  0  0  0  0  0  0  0  0  0  0  0
  183.2350  177.9130  137.8950 C   0  0  0  0  0  0  0  0  0  0  0  0
  185.7620  177.8790  137.5590 N   0  0  0  0  0  0  0  0  0  0  0  0
  182.1320  177.5210  137.1340 C   0  0  0  0  0  0  0  0  0  0  0  0
  187.8080  177.4180  136.3040 C   0  0  2  0  0  3  0  0  0  0  0  0
  183.1690  178.4570  139.1350 F   0  0  0  0  0  0  0  0  0  0  0  0
  185.5470  176.8700  135.3110 C   0  0  0  0  0  3  0  0  0  0  0  0
  184.4120  177.6640  137.2030 C   0  0  1  0  0  3  0  0  0  0  0  0
  189.0430  179.3800  137.3040 C   0  0  0  0  0  1  0  0  0  0  0  0
  189.0690  177.1420  138.4200 C   0  0  0  0  0  0  0  0  0  0  0  0
  188.6470  177.9420  137.4070 C   0  0  0  0  0  0  0  0  0  0  0  0
  188.7510  175.6810  138.4070 C   0  0  0  0  0  1  0  0  0  0  0  0
  189.8840  177.5750  139.5810 C   0  0  0  0  0  3  0  0  0  0  0  0
  189.2690  177.2680  142.1010 C   0  0  0  0  0  3  0  0  0  0  0  0
  189.5710  177.4200  140.8400 C   0  0  0  0  0  0  0  0  0  0  0  0
  189.1950  176.9660  147.1990 C   0  0  0  0  0  3  0  0  0  0  0  0
  188.1690  177.8580  145.0230 C   0  0  0  0  0  3  0  0  0  0  0  0
  190.5240  177.3280  145.2280 C   0  0  0  0  0  0  0  0  0  0  0  0
  189.8690  178.1600  143.1340 C   0  0  1  0  0  3  0  0  0  0  0  0
  191.5890  176.4710  147.4110 C   0  0  0  0  0  1  0  0  0  0  0  0
  191.6000  177.3910  144.5240 N   0  0  0  0  0  2  0  0  0  0  0  0
  187.9390  177.4110  146.4560 C   0  0  0  0  0  3  0  0  0  0  0  0
  189.3850  177.7780  144.4860 C   0  0  0  0  0  0  0  0  0  0  0  0
  191.2650  177.8730  143.2730 O   0  0  0  0  0  0  0  0  0  0  0  0
  190.4060  176.9170  146.6270 C   0  0  0  0  0  0  0  0  0  0  0  0
  188.4850  176.9740  135.0440 C   0  0  0  0  0  2  0  0  0  0  0  0
  189.9760  176.7870  135.2790 C   0  0  0  0  0  2  0  0  0  0  0  0
  190.4200  175.4170  134.7920 C   0  0  2  0  0  3  0  0  0  0  0  0
  189.4470  174.4100  135.1840 N   0  0  0  0  0  1  0  0  0  0  0  0
  191.8170  175.0450  135.2970 C   0  0  0  0  0  2  0  0  0  0  0  0
  191.6930  174.2000  137.5270 O   0  0  0  0  0  1  0  0  0  0  0  0
  191.9520  175.1790  136.7810 C   0  0  0  0  0  0  0  0  0  0  0  0
  192.3890  176.3740  137.3350 O   0  0  0  0  0  0  0  0  0  0  0  0
  1  3  1  0  0  0  0
  1  7  1  0  0  0  0
  4  6  2  0  0  0  0
  5  9  1  0  0  0  0
  7  2  1  0  0  0  0
  7  5  2  0  0  0  0
  8 29  1  6  0  0  0
  8  4  1  0  0  0  0
  8 14  1  0  0  0  0
 10  3  2  0  0  0  0
 10  4  1  0  0  0  0
 11  3  1  1  0  0  0
 11  6  1  0  0  0  0
 11  5  1  0  0  0  0
 12 14  1  0  0  0  0
 13 16  1  0  0  0  0
 14 13  2  0  0  0  0
 15 13  1  0  0  0  0
 16 18  2  0  0  0  0
 18 17  2  0  0  0  0
 20 25  1  0  0  0  0
 21 28  2  0  0  0  0
 22 17  1  6  0  0  0
 22 27  1  0  0  0  0
 22 26  1  0  0  0  0
 24 21  1  0  0  0  0
 25 19  2  0  0  0  0
 26 20  2  0  0  0  0
 26 21  1  0  0  0  0
 27 24  1  0  0  0  0
 28 19  1  0  0  0  0
 28 23  1  0  0  0  0
 29 30  1  0  0  0  0
 31 32  1  1  0  0  0
 31 30  1  0  0  0  0
 31 33  1  0  0  0  0
 33 35  1  0  0  0  0
 35 36  2  0  0  0  0
 35 34  1  0  0  0  0
M  END
>  <MODEL>
4

>  <REMARK>
 VINA RESULT:      -7.2      3.408      8.459
  Name = 
  8 active torsions:
  status: ('A' for Active; 'I' for Inactive)
    1  A    between atoms: C_7  and  C_19
    2  A    between atoms: C_9  and  C_16
    3  A    between atoms: C_14  and  C_21
    4  A    between atoms: C_14  and  C_24
    5  A    between atoms: C_15  and  C_26
    6  A    between atoms: C_21  and  C_32
    7  A    between atoms: C_24  and  C_25
    8  A    between atoms: C_25  and  C_26
                            x       y       z     vdW  Elec       q    Type
                         _______ _______ _______ _____ _____    ______ ____

>  <TORSDO>
F 8

$$$$
=
 OpenBabel10232411283D

 36 39  0  0  1  0  0  0  0  0999 V2000
  193.6680  170.4910  134.6560 S   0  0  0  0  0  0  0  0  0  0  0  0
  195.7380  169.2060  135.9740 N   0  0  0  0  0  1  0  0  0  0  0  0
  193.1370  171.9580  135.2810 C   0  0  0  0  0  0  0  0  0  0  0  0
  192.3850  173.9510  136.0660 C   0  0  0  0  0  0  0  0  0  0  0  0
  194.8190  171.3910  136.7580 C   0  0  0  0  0  0  0  0  0  0  0  0
  193.4410  173.5280  136.9500 N   0  0  0  0  0  0  0  0  0  0  0  0
  194.8470  170.3100  135.8750 C   0  0  0  0  0  0  0  0  0  0  0  0
  191.7020  175.0940  136.2460 C   0  0  2  0  0  3  0  0  0  0  0  0
  195.6360  171.5390  137.8300 F   0  0  0  0  0  0  0  0  0  0  0  0
  192.1170  172.9700  134.9360 C   0  0  0  0  0  3  0  0  0  0  0  0
  193.8360  172.2960  136.3820 C   0  0  1  0  0  3  0  0  0  0  0  0
  193.3390  176.6960  137.3090 C   0  0  0  0  0  1  0  0  0  0  0  0
  191.1640  176.1580  138.4190 C   0  0  0  0  0  0  0  0  0  0  0  0
  192.0150  176.0050  137.3710 C   0  0  0  0  0  0  0  0  0  0  0  0
  189.9110  175.3450  138.4940 C   0  0  0  0  0  1  0  0  0  0  0  0
  191.3700  177.0630  139.5750 C   0  0  0  0  0  3  0  0  0  0  0  0
  190.4660  176.7020  141.9990 C   0  0  0  0  0  3  0  0  0  0  0  0
  190.9140  176.8780  140.7860 C   0  0  0  0  0  0  0  0  0  0  0  0
  187.2340  177.4000  145.8930 C   0  0  0  0  0  3  0  0  0  0  0  0
  187.7830  177.6670  143.4000 C   0  0  0  0  0  3  0  0  0  0  0  0
  189.5000  177.5800  145.1060 C   0  0  0  0  0  0  0  0  0  0  0  0
  190.2870  177.8660  142.9140 C   0  0  1  0  0  3  0  0  0  0  0  0
  188.9790  177.3540  147.6180 C   0  0  0  0  0  1  0  0  0  0  0  0
  190.7800  177.6770  145.2040 N   0  0  0  0  0  2  0  0  0  0  0  0
  186.7130  177.4790  144.4610 C   0  0  0  0  0  3  0  0  0  0  0  0
  189.0680  177.6820  143.7450 C   0  0  0  0  0  0  0  0  0  0  0  0
  191.2940  177.8440  143.9320 O   0  0  0  0  0  0  0  0  0  0  0  0
  188.5380  177.4370  146.2000 C   0  0  0  0  0  0  0  0  0  0  0  0
  190.5590  175.4440  135.3430 C   0  0  0  0  0  2  0  0  0  0  0  0
  190.3340  176.9480  135.3290 C   0  0  0  0  0  2  0  0  0  0  0  0
  188.9030  177.2720  135.7290 C   0  0  2  0  0  3  0  0  0  0  0  0
  188.0130  177.0720  134.5970 N   0  0  0  0  0  1  0  0  0  0  0  0
  188.7630  178.6910  136.2850 C   0  0  0  0  0  2  0  0  0  0  0  0
  188.6470  178.7510  138.6700 O   0  0  0  0  0  1  0  0  0  0  0  0
  188.0170  178.7370  137.5810 C   0  0  0  0  0  0  0  0  0  0  0  0
  186.6300  178.7900  137.5840 O   0  0  0  0  0  0  0  0  0  0  0  0
  1  3  1  0  0  0  0
  1  7  1  0  0  0  0
  4  8  1  0  0  0  0
  4  6  2  0  0  0  0
  5  9  1  0  0  0  0
  7  2  1  0  0  0  0
  7  5  2  0  0  0  0
  8 29  1  1  0  0  0
  8 14  1  0  0  0  0
 10  3  2  0  0  0  0
 10  4  1  0  0  0  0
 11  3  1  6  0  0  0
 11  5  1  0  0  0  0
 11  6  1  0  0  0  0
 12 14  1  0  0  0  0
 13 15  1  0  0  0  0
 13 16  1  0  0  0  0
 14 13  2  0  0  0  0
 16 18  2  0  0  0  0
 18 17  2  0  0  0  0
 19 28  1  0  0  0  0
 20 26  2  0  0  0  0
 20 25  1  0  0  0  0
 21 24  1  0  0  0  0
 21 28  2  0  0  0  0
 22 17  1  6  0  0  0
 22 26  1  0  0  0  0
 22 27  1  0  0  0  0
 25 19  2  0  0  0  0
 26 21  1  0  0  0  0
 27 24  1  0  0  0  0
 28 23  1  0  0  0  0
 30 29  1  0  0  0  0
 30 31  1  0  0  0  0
 31 32  1  6  0  0  0
 31 33  1  0  0  0  0
 33 35  1  0  0  0  0
 35 36  2  0  0  0  0
 35 34  1  0  0  0  0
M  END
>  <MODEL>
5

>  <REMARK>
 VINA RESULT:      -6.6      4.788     10.668
  Name = 
  8 active torsions:
  status: ('A' for Active; 'I' for Inactive)
    1  A    between atoms: C_7  and  C_19
    2  A    between atoms: C_9  and  C_16
    3  A    between atoms: C_14  and  C_21
    4  A    between atoms: C_14  and  C_24
    5  A    between atoms: C_15  and  C_26
    6  A    between atoms: C_21  and  C_32
    7  A    between atoms: C_24  and  C_25
    8  A    between atoms: C_25  and  C_26
                            x       y       z     vdW  Elec       q    Type
                         _______ _______ _______ _____ _____    ______ ____

>  <TORSDO>
F 8

$$$$
=
 OpenBabel10232411283D

 36 39  0  0  1  0  0  0  0  0999 V2000
  192.8370  177.2470  139.8550 S   0  0  0  0  0  0  0  0  0  0  0  0
  192.5040  176.1910  137.3160 N   0  0  0  0  0  1  0  0  0  0  0  0
  191.4770  177.3680  140.8340 C   0  0  0  0  0  0  0  0  0  0  0  0
  189.6810  177.5420  142.2120 C   0  0  0  0  0  0  0  0  0  0  0  0
  190.5980  176.4460  138.9080 C   0  0  0  0  0  0  0  0  0  0  0  0
  189.2040  176.9760  140.9760 N   0  0  0  0  0  0  0  0  0  0  0  0
  191.9460  176.5730  138.5670 C   0  0  0  0  0  0  0  0  0  0  0  0
  188.8720  177.7960  143.2540 C   0  0  2  0  0  3  0  0  0  0  0  0
  189.6360  175.9420  138.0970 F   0  0  0  0  0  0  0  0  0  0  0  0
  191.1730  177.8330  142.2030 C   0  0  0  0  0  2  0  0  0  0  0  0
  190.3820  176.9090  140.1990 C   0  0  0  0  0  0  0  0  0  0  0  0
  187.0130  176.1600  143.7430 C   0  0  0  0  0  1  0  0  0  0  0  0
  186.5390  178.3460  142.6260 C   0  0  0  0  0  0  0  0  0  0  0  0
  187.4250  177.4880  143.1940 C   0  0  0  0  0  0  0  0  0  0  0  0
  187.0200  179.6040  141.9760 C   0  0  0  0  0  1  0  0  0  0  0  0
  185.0720  178.1440  142.5420 C   0  0  0  0  0  3  0  0  0  0  0  0
  183.7160  177.5450  140.3910 C   0  0  0  0  0  3  0  0  0  0  0  0
  184.3980  177.8460  141.4630 C   0  0  0  0  0  0  0  0  0  0  0  0
  181.1610  180.5640  137.1580 C   0  0  0  0  0  3  0  0  0  0  0  0
  182.3860  180.2520  139.3910 C   0  0  0  0  0  3  0  0  0  0  0  0
  181.2560  178.4290  138.2630 C   0  0  0  0  0  0  0  0  0  0  0  0
  182.2620  177.8660  140.3070 C   0  0  1  0  0  3  0  0  0  0  0  0
  179.9840  178.7210  136.0430 C   0  0  0  0  0  1  0  0  0  0  0  0
  180.9890  177.1850  138.4530 N   0  0  0  0  0  2  0  0  0  0  0  0
  182.0090  181.1920  138.2600 C   0  0  0  0  0  3  0  0  0  0  0  0
  182.0350  178.9690  139.3380 C   0  0  0  0  0  0  0  0  0  0  0  0
  181.5660  176.8010  139.6490 O   0  0  0  0  0  0  0  0  0  0  0  0
  180.8130  179.2690  137.1500 C   0  0  0  0  0  0  0  0  0  0  0  0
  189.4080  178.4610  144.4840 C   0  0  0  0  0  2  0  0  0  0  0  0
  188.7460  177.8910  145.7280 C   0  0  0  0  0  2  0  0  0  0  0  0
  189.6270  176.8200  146.3520 C   0  0  2  0  0  3  0  0  0  0  0  0
  189.1940  176.5510  147.7130 N   0  0  0  0  0  1  0  0  0  0  0  0
  191.1100  177.1960  146.3200 C   0  0  0  0  0  2  0  0  0  0  0  0
  192.2670  175.1070  146.3400 O   0  0  0  0  0  0  0  0  0  0  0  0
  191.9860  176.1660  146.9590 C   0  0  0  0  0  0  0  0  0  0  0  0
  192.5110  176.3870  148.2250 O   0  0  0  0  0  1  0  0  0  0  0  0
  1  3  1  0  0  0  0
  2  7  1  0  0  0  0
  3 10  1  0  0  0  0
  4  8  1  0  0  0  0
  5 11  1  0  0  0  0
  6  4  2  0  0  0  0
  7  5  2  0  0  0  0
  7  1  1  0  0  0  0
  8 29  1  6  0  0  0
  9  5  1  0  0  0  0
 10  4  1  0  0  0  0
 11  3  2  0  0  0  0
 11  6  1  0  0  0  0
 13 14  2  0  0  0  0
 14  8  1  0  0  0  0
 14 12  1  0  0  0  0
 15 13  1  0  0  0  0
 16 13  1  0  0  0  0
 17 18  2  0  0  0  0
 18 16  2  0  0  0  0
 19 25  1  0  0  0  0
 21 24  1  0  0  0  0
 21 26  2  0  0  0  0
 22 17  1  6  0  0  0
 23 28  1  0  0  0  0
 24 27  1  0  0  0  0
 25 20  2  0  0  0  0
 26 20  1  0  0  0  0
 26 22  1  0  0  0  0
 27 22  1  0  0  0  0
 28 19  2  0  0  0  0
 28 21  1  0  0  0  0
 29 30  1  0  0  0  0
 30 31  1  0  0  0  0
 31 32  1  1  0  0  0
 33 31  1  0  0  0  0
 33 35  1  0  0  0  0
 34 35  2  0  0  0  0
 35 36  1  0  0  0  0
M  END
>  <MODEL>
6

>  <REMARK>
 VINA RESULT:      -6.6      3.741      7.622
  Name = 
  8 active torsions:
  status: ('A' for Active; 'I' for Inactive)
    1  A    between atoms: C_7  and  C_19
    2  A    between atoms: C_9  and  C_16
    3  A    between atoms: C_14  and  C_21
    4  A    between atoms: C_14  and  C_24
    5  A    between atoms: C_15  and  C_26
    6  A    between atoms: C_21  and  C_32
    7  A    between atoms: C_24  and  C_25
    8  A    between atoms: C_25  and  C_26
                            x       y       z     vdW  Elec       q    Type
                         _______ _______ _______ _____ _____    ______ ____

>  <TORSDO>
F 8

$$$$
=
 OpenBabel10232411283D

 36 39  0  0  1  0  0  0  0  0999 V2000
  189.5520  178.0400  144.9670 S   0  0  0  0  0  0  0  0  0  0  0  0
  191.0140  176.5090  146.7540 N   0  0  0  0  0  1  0  0  0  0  0  0
  189.7570  177.7340  143.3280 C   0  0  0  0  0  0  0  0  0  0  0  0
  189.9760  177.3580  141.1000 C   0  0  0  0  0  0  0  0  0  0  0  0
  191.1900  176.1960  144.2840 C   0  0  0  0  0  0  0  0  0  0  0  0
  190.8540  176.4310  141.7670 N   0  0  0  0  0  0  0  0  0  0  0  0
  190.6670  176.8290  145.4120 C   0  0  0  0  0  0  0  0  0  0  0  0
  189.8660  177.4190  139.7630 C   0  0  2  0  0  3  0  0  0  0  0  0
  192.0970  175.1890  144.3080 F   0  0  0  0  0  0  0  0  0  0  0  0
  189.2140  178.2590  142.0580 C   0  0  0  0  0  3  0  0  0  0  0  0
  190.6460  176.7420  143.1290 C   0  0  1  0  0  3  0  0  0  0  0  0
  189.8530  175.4700  138.1580 C   0  0  0  0  0  1  0  0  0  0  0  0
  191.9940  176.5930  138.7960 C   0  0  0  0  0  0  0  0  0  0  0  0
  190.6410  176.5100  138.8860 C   0  0  0  0  0  0  0  0  0  0  0  0
  192.7460  177.5680  139.6450 C   0  0  0  0  0  1  0  0  0  0  0  0
  192.8550  175.7520  137.9300 C   0  0  0  0  0  3  0  0  0  0  0  0
  194.2360  176.5690  135.8680 C   0  0  0  0  0  3  0  0  0  0  0  0
  193.5440  176.1660  136.8980 C   0  0  0  0  0  0  0  0  0  0  0  0
  198.1800  173.3340  135.6030 C   0  0  0  0  0  3  0  0  0  0  0  0
  197.1730  175.6370  135.0910 C   0  0  0  0  0  3  0  0  0  0  0  0
  195.8130  173.6430  135.3070 C   0  0  0  0  0  0  0  0  0  0  0  0
  194.6310  175.6050  134.8000 C   0  0  1  0  0  3  0  0  0  0  0  0
  196.8000  171.3120  135.7800 C   0  0  0  0  0  1  0  0  0  0  0  0
  194.5810  173.2900  135.1960 N   0  0  0  0  0  2  0  0  0  0  0  0
  198.4190  174.8260  135.3990 C   0  0  0  0  0  3  0  0  0  0  0  0
  195.9790  175.0480  135.0840 C   0  0  0  0  0  0  0  0  0  0  0  0
  193.8380  174.4170  134.9000 O   0  0  0  0  0  0  0  0  0  0  0  0
  196.9620  172.7760  135.5710 C   0  0  0  0  0  0  0  0  0  0  0  0
  188.9990  178.4590  139.1200 C   0  0  0  0  0  2  0  0  0  0  0  0
  187.5390  178.0380  139.1700 C   0  0  0  0  0  2  0  0  0  0  0  0
  186.9500  178.0050  137.7680 C   0  0  2  0  0  3  0  0  0  0  0  0
  187.4100  179.1570  137.0100 N   0  0  0  0  0  1  0  0  0  0  0  0
  185.4210  177.9410  137.7820 C   0  0  0  0  0  2  0  0  0  0  0  0
  184.7820  179.9810  138.8480 O   0  0  0  0  0  0  0  0  0  0  0  0
  184.8160  178.7240  138.9040 C   0  0  0  0  0  0  0  0  0  0  0  0
  184.2690  178.0650  139.9970 O   0  0  0  0  0  1  0  0  0  0  0  0
  1  7  1  0  0  0  0
  3  1  1  0  0  0  0
  4  6  2  0  0  0  0
  4 10  1  0  0  0  0
  5  9  1  0  0  0  0
  5  7  2  0  0  0  0
  7  2  1  0  0  0  0
  8 29  1  6  0  0  0
  8  4  1  0  0  0  0
 10  3  2  0  0  0  0
 11  6  1  1  0  0  0
 11  3  1  0  0  0  0
 11  5  1  0  0  0  0
 12 14  1  0  0  0  0
 13 14  2  0  0  0  0
 13 15  1  0  0  0  0
 14  8  1  0  0  0  0
 16 13  1  0  0  0  0
 17 18  2  0  0  0  0
 18 16  2  0  0  0  0
 20 25  1  0  0  0  0
 21 28  2  0  0  0  0
 22 27  1  0  0  0  0
 22 26  1  0  0  0  0
 22 17  1  1  0  0  0
 24 21  1  0  0  0  0
 25 19  2  0  0  0  0
 26 20  2  0  0  0  0
 26 21  1  0  0  0  0
 27 24  1  0  0  0  0
 28 19  1  0  0  0  0
 28 23  1  0  0  0  0
 29 30  1  0  0  0  0
 31 32  1  6  0  0  0
 31 33  1  0  0  0  0
 31 30  1  0  0  0  0
 33 35  1  0  0  0  0
 34 35  2  0  0  0  0
 35 36  1  0  0  0  0
M  END
>  <MODEL>
7

>  <REMARK>
 VINA RESULT:      -6.5      4.348      7.364
  Name = 
  8 active torsions:
  status: ('A' for Active; 'I' for Inactive)
    1  A    between atoms: C_7  and  C_19
    2  A    between atoms: C_9  and  C_16
    3  A    between atoms: C_14  and  C_21
    4  A    between atoms: C_14  and  C_24
    5  A    between atoms: C_15  and  C_26
    6  A    between atoms: C_21  and  C_32
    7  A    between atoms: C_24  and  C_25
    8  A    between atoms: C_25  and  C_26
                            x       y       z     vdW  Elec       q    Type
                         _______ _______ _______ _____ _____    ______ ____

>  <TORSDO>
F 8

$$$$
=
 OpenBabel10232411283D

 36 39  0  0  1  0  0  0  0  0999 V2000
  193.8870  170.2190  134.8110 S   0  0  0  0  0  0  0  0  0  0  0  0
  195.4530  168.7500  136.5610 N   0  0  0  0  0  1  0  0  0  0  0  0
  193.4350  171.7680  135.2800 C   0  0  0  0  0  0  0  0  0  0  0  0
  192.8050  173.8730  135.8480 C   0  0  0  0  0  0  0  0  0  0  0  0
  194.6870  171.0660  137.0900 C   0  0  0  0  0  0  0  0  0  0  0  0
  193.5910  173.3640  136.9430 N   0  0  0  0  0  0  0  0  0  0  0  0
  194.7550  169.9500  136.2540 C   0  0  0  0  0  0  0  0  0  0  0  0
  192.2560  175.0990  135.8570 C   0  0  2  0  0  3  0  0  0  0  0  0
  195.2760  171.1630  138.3060 F   0  0  0  0  0  0  0  0  0  0  0  0
  192.6510  172.8810  134.7070 C   0  0  0  0  0  3  0  0  0  0  0  0
  193.9300  172.0680  136.4960 C   0  0  1  0  0  3  0  0  0  0  0  0
  193.6680  176.8760  136.9630 C   0  0  0  0  0  1  0  0  0  0  0  0
  191.5820  176.0310  138.0530 C   0  0  0  0  0  0  0  0  0  0  0  0
  192.4460  176.0170  137.0050 C   0  0  0  0  0  0  0  0  0  0  0  0
  190.4460  175.0600  138.1050 C   0  0  0  0  0  1  0  0  0  0  0  0
  191.6670  176.9280  139.2300 C   0  0  0  0  0  3  0  0  0  0  0  0
  190.2500  176.7440  141.4170 C   0  0  0  0  0  3  0  0  0  0  0  0
  190.9540  176.8320  140.3220 C   0  0  0  0  0  0  0  0  0  0  0  0
  187.4350  177.3530  145.6350 C   0  0  0  0  0  3  0  0  0  0  0  0
  187.6540  177.5050  143.0830 C   0  0  0  0  0  3  0  0  0  0  0  0
  189.5570  177.7240  144.5670 C   0  0  0  0  0  0  0  0  0  0  0  0
  190.0450  177.9410  142.2820 C   0  0  1  0  0  3  0  0  0  0  0  0
  189.3620  177.6170  147.1320 C   0  0  0  0  0  1  0  0  0  0  0  0
  190.8190  177.9660  144.5000 N   0  0  0  0  0  2  0  0  0  0  0  0
  186.7440  177.2760  144.2770 C   0  0  0  0  0  3  0  0  0  0  0  0
  188.9610  177.6840  143.2650 C   0  0  0  0  0  0  0  0  0  0  0  0
  191.1590  178.1000  143.1670 O   0  0  0  0  0  0  0  0  0  0  0  0
  188.7520  177.5530  145.7770 C   0  0  0  0  0  0  0  0  0  0  0  0
  191.3800  175.5450  134.7270 C   0  0  0  0  0  2  0  0  0  0  0  0
  189.9320  175.1690  134.9960 C   0  0  0  0  0  2  0  0  0  0  0  0
  189.0310  176.3840  134.8330 C   0  0  2  0  0  3  0  0  0  0  0  0
  189.8050  177.5150  134.3490 N   0  0  0  0  0  1  0  0  0  0  0  0
  188.3000  176.7420  136.1300 C   0  0  0  0  0  2  0  0  0  0  0  0
  186.5220  178.0460  135.2120 O   0  0  0  0  0  0  0  0  0  0  0  0
  187.4910  177.9950  136.0130 C   0  0  0  0  0  0  0  0  0  0  0  0
  187.7910  179.0940  136.8060 O   0  0  0  0  0  1  0  0  0  0  0  0
  1  3  1  0  0  0  0
  1  7  1  0  0  0  0
  4  8  1  0  0  0  0
  4  6  2  0  0  0  0
  5  9  1  0  0  0  0
  7  2  1  0  0  0  0
  7  5  2  0  0  0  0
  8 29  1  1  0  0  0
  8 14  1  0  0  0  0
 10  3  2  0  0  0  0
 10  4  1  0  0  0  0
 11  3  1  6  0  0  0
 11  6  1  0  0  0  0
 11  5  1  0  0  0  0
 12 14  1  0  0  0  0
 13 15  1  0  0  0  0
 13 16  1  0  0  0  0
 14 13  2  0  0  0  0
 16 18  2  0  0  0  0
 18 17  2  0  0  0  0
 19 28  1  0  0  0  0
 20 26  2  0  0  0  0
 20 25  1  0  0  0  0
 21 28  2  0  0  0  0
 22 17  1  6  0  0  0
 22 27  1  0  0  0  0
 22 26  1  0  0  0  0
 24 21  1  0  0  0  0
 25 19  2  0  0  0  0
 26 21  1  0  0  0  0
 27 24  1  0  0  0  0
 28 23  1  0  0  0  0
 29 30  1  0  0  0  0
 31 32  1  1  0  0  0
 31 30  1  0  0  0  0
 31 33  1  0  0  0  0
 34 35  2  0  0  0  0
 35 33  1  0  0  0  0
 35 36  1  0  0  0  0
M  END
>  <MODEL>
8

>  <REMARK>
 VINA RESULT:      -6.5      4.858     10.907
  Name = 
  8 active torsions:
  status: ('A' for Active; 'I' for Inactive)
    1  A    between atoms: C_7  and  C_19
    2  A    between atoms: C_9  and  C_16
    3  A    between atoms: C_14  and  C_21
    4  A    between atoms: C_14  and  C_24
    5  A    between atoms: C_15  and  C_26
    6  A    between atoms: C_21  and  C_32
    7  A    between atoms: C_24  and  C_25
    8  A    between atoms: C_25  and  C_26
                            x       y       z     vdW  Elec       q    Type
                         _______ _______ _______ _____ _____    ______ ____

>  <TORSDO>
F 8

$$$$
=
 OpenBabel10232411283D

 36 39  0  0  1  0  0  0  0  0999 V2000
  183.7410  178.4180  144.8330 S   0  0  0  0  0  0  0  0  0  0  0  0
  181.5420  179.2370  143.3610 N   0  0  0  0  0  1  0  0  0  0  0  0
  185.1850  178.1740  144.0080 C   0  0  0  0  0  0  0  0  0  0  0  0
  187.1680  177.8420  142.9550 C   0  0  0  0  0  0  0  0  0  0  0  0
  183.7660  178.8240  142.3060 C   0  0  0  0  0  0  0  0  0  0  0  0
  186.2240  178.2470  141.9450 N   0  0  0  0  0  0  0  0  0  0  0  0
  182.9140  178.8670  143.4110 C   0  0  0  0  0  0  0  0  0  0  0  0
  188.4490  177.5490  142.6750 C   0  0  2  0  0  3  0  0  0  0  0  0
  183.4060  179.1290  141.0350 F   0  0  0  0  0  0  0  0  0  0  0  0
  186.5640  177.7660  144.3470 C   0  0  0  0  0  2  0  0  0  0  0  0
  185.0390  178.4270  142.6930 C   0  0  0  0  0  0  0  0  0  0  0  0
  188.1320  178.4080  140.3220 C   0  0  0  0  0  1  0  0  0  0  0  0
  190.1250  177.0230  140.9260 C   0  0  0  0  0  0  0  0  0  0  0  0
  188.9730  177.6430  141.2920 C   0  0  0  0  0  0  0  0  0  0  0  0
  190.8600  176.1630  141.9030 C   0  0  0  0  0  1  0  0  0  0  0  0
  190.7460  177.0800  139.5800 C   0  0  0  0  0  3  0  0  0  0  0  0
  190.5480  175.2660  137.7110 C   0  0  0  0  0  3  0  0  0  0  0  0
  190.6450  176.1680  138.6490 C   0  0  0  0  0  0  0  0  0  0  0  0
  195.2100  173.1790  137.7840 C   0  0  0  0  0  3  0  0  0  0  0  0
  193.7040  175.2360  138.0770 C   0  0  0  0  0  3  0  0  0  0  0  0
  193.1280  173.4040  136.6000 C   0  0  0  0  0  0  0  0  0  0  0  0
  191.5860  175.1710  136.6440 C   0  0  1  0  0  3  0  0  0  0  0  0
  194.6390  171.3470  136.2540 C   0  0  0  0  0  1  0  0  0  0  0  0
  192.2080  173.0860  135.7580 N   0  0  0  0  0  2  0  0  0  0  0  0
  194.9730  174.5100  138.4900 C   0  0  0  0  0  3  0  0  0  0  0  0
  192.8640  174.6710  137.2140 C   0  0  0  0  0  0  0  0  0  0  0  0
  191.2680  174.0990  135.7500 O   0  0  0  0  0  0  0  0  0  0  0  0
  194.3460  172.6520  136.9060 C   0  0  0  0  0  0  0  0  0  0  0  0
  189.3660  177.0540  143.7510 C   0  0  0  0  0  2  0  0  0  0  0  0
  189.9060  178.2180  144.5660 C   0  0  0  0  0  2  0  0  0  0  0  0
  190.3070  177.7500  145.9560 C   0  0  2  0  0  3  0  0  0  0  0  0
  191.4850  176.9030  145.8740 N   0  0  0  0  0  1  0  0  0  0  0  0
  189.1670  177.0240  146.6750 C   0  0  0  0  0  2  0  0  0  0  0  0
  187.3010  178.0040  147.7980 O   0  0  0  0  0  0  0  0  0  0  0  0
  188.5480  177.8460  147.7610 C   0  0  0  0  0  0  0  0  0  0  0  0
  189.3470  178.4130  148.7450 O   0  0  0  0  0  1  0  0  0  0  0  0
  2  7  1  0  0  0  0
  3 10  1  0  0  0  0
  3  1  1  0  0  0  0
  4 10  1  0  0  0  0
  5 11  1  0  0  0  0
  5  7  2  0  0  0  0
  6 11  1  0  0  0  0
  6  4  2  0  0  0  0
  7  1  1  0  0  0  0
  8  4  1  0  0  0  0
  8 29  1  6  0  0  0
  9  5  1  0  0  0  0
 11  3  2  0  0  0  0
 12 14  1  0  0  0  0
 13 14  2  0  0  0  0
 13 15  1  0  0  0  0
 14  8  1  0  0  0  0
 16 13  1  0  0  0  0
 17 18  2  0  0  0  0
 18 16  2  0  0  0  0
 19 25  1  0  0  0  0
 20 25  2  0  0  0  0
 21 28  1  0  0  0  0
 21 26  2  0  0  0  0
 22 26  1  0  0  0  0
 22 17  1  1  0  0  0
 23 28  1  0  0  0  0
 24 21  1  0  0  0  0
 26 20  1  0  0  0  0
 27 24  1  0  0  0  0
 27 22  1  0  0  0  0
 28 19  2  0  0  0  0
 29 30  1  0  0  0  0
 30 31  1  0  0  0  0
 31 32  1  6  0  0  0
 31 33  1  0  0  0  0
 33 35  1  0  0  0  0
 35 34  2  0  0  0  0
 35 36  1  0  0  0  0
M  END
>  <MODEL>
9

>  <REMARK>
 VINA RESULT:      -6.5      2.570      3.222
  Name = 
  8 active torsions:
  status: ('A' for Active; 'I' for Inactive)
    1  A    between atoms: C_7  and  C_19
    2  A    between atoms: C_9  and  C_16
    3  A    between atoms: C_14  and  C_21
    4  A    between atoms: C_14  and  C_24
    5  A    between atoms: C_15  and  C_26
    6  A    between atoms: C_21  and  C_32
    7  A    between atoms: C_24  and  C_25
    8  A    between atoms: C_25  and  C_26
                            x       y       z     vdW  Elec       q    Type
                         _______ _______ _______ _____ _____    ______ ____

>  <TORSDO>
F 8

$$$$
