=
 OpenBabel10232408373D

 28 29  0  0  1  0  0  0  0  0999 V2000
  190.0520  176.0970  142.6190 C   0  0  1  0  0  3  0  0  0  0  0  0
  191.7710  177.4950  141.4740 O   0  0  0  0  0  1  0  0  0  0  0  0
  188.7330  175.7100  142.3660 O   0  0  0  0  0  1  0  0  0  0  0  0
  190.4230  177.3360  141.8050 C   0  0  2  0  0  0  0  0  0  0  0  0
  190.0970  177.4810  143.2850 C   0  0  2  0  0  0  0  0  0  0  0  0
  191.5060  177.8370  144.3740 S   0  0  0  0  0  3  0  0  0  0  0  0
  191.7970  179.3100  144.1170 O   0  0  0  0  0  0  0  0  0  0  0  0
  188.8720  178.1280  143.5400 O   0  0  0  0  0  0  0  0  0  0  0  0
  188.6240  178.0060  144.9120 C   0  0  0  0  0  2  0  0  0  0  0  0
  187.3300  177.2440  145.1270 C   0  0  0  0  0  2  0  0  0  0  0  0
  186.7370  177.5810  146.4860 C   0  0  1  0  0  3  0  0  0  0  0  0
  187.8350  177.8710  147.4960 C   0  0  0  0  0  1  0  0  0  0  0  0
  184.9010  178.9090  145.1970 C   0  0  0  0  0  1  0  0  0  0  0  0
  185.7750  179.6200  147.3160 N   0  0  0  0  0  2  0  0  0  0  0  0
  185.8040  178.7480  146.3780 C   0  0  0  0  0  0  0  0  0  0  0  0
  189.4230  177.9020  140.8910 N   0  0  0  0  0  2  0  0  0  0  0  0
  189.4860  177.3550  139.5250 C   0  0  1  0  0  3  0  0  0  0  0  0
  189.1790  178.0670  136.2030 N   0  0  0  0  0  2  0  0  0  0  0  0
  189.0260  179.8460  137.6870 O   0  0  0  0  0  0  0  0  0  0  0  0
  187.6940  176.4610  138.0240 C   0  0  0  0  0  3  0  0  0  0  0  0
  188.3120  177.7260  138.5840 C   0  0  1  0  0  0  0  0  0  0  0  0
  187.9510  175.9830  136.8060 C   0  0  0  0  0  3  0  0  0  0  0  0
  187.3230  178.4140  139.2910 O   0  0  0  0  0  1  0  0  0  0  0  0
  188.8090  176.7280  135.8830 C   0  0  0  0  0  0  0  0  0  0  0  0
  188.8340  178.6190  137.4760 C   0  0  0  0  0  0  0  0  0  0  0  0
  189.1080  176.2320  134.7310 N   0  0  0  0  0  2  0  0  0  0  0  0
  190.8980  177.2120  138.9310 C   0  0  0  0  0  2  0  0  0  0  0  0
  191.2090  175.7990  138.4690 C   0  0  0  0  0  1  0  0  0  0  0  0
  1  3  1  6  0  0  0
  1  5  1  0  0  0  0
  4  2  1  6  0  0  0
  4  1  1  0  0  0  0
  4  5  1  0  0  0  0
  5  8  1  1  0  0  0
  5  6  1  0  0  0  0
  7  6  2  0  0  0  0
  8  9  1  0  0  0  0
  9 10  1  0  0  0  0
 10 11  1  0  0  0  0
 11 12  1  1  0  0  0
 13 15  1  0  0  0  0
 15 11  1  0  0  0  0
 15 14  2  0  0  0  0
 16  4  1  0  0  0  0
 17 27  1  6  0  0  0
 17 16  1  0  0  0  0
 18 25  1  0  0  0  0
 20 21  1  0  0  0  0
 21 23  1  1  0  0  0
 21 17  1  0  0  0  0
 22 20  2  0  0  0  0
 24 18  1  0  0  0  0
 24 22  1  0  0  0  0
 25 19  2  0  0  0  0
 25 21  1  0  0  0  0
 26 24  2  0  0  0  0
 28 27  1  0  0  0  0
M  END
>  <MODEL>
1

>  <REMARK>
 VINA RESULT:      -6.9      0.000      0.000
  Name = 
  10 active torsions:
  status: ('A' for Active; 'I' for Inactive)
    1  A    between atoms: C_2  and  O_9
    2  A    between atoms: C_2  and  C_24
    3  A    between atoms: C_3  and  C_24
    4  A    between atoms: C_3  and  C_27
    5  A    between atoms: C_5  and  C_20
    6  A    between atoms: O_9  and  C_28
    7  A    between atoms: S_10  and  C_28
    8  A    between atoms: C_12  and  C_20
    9  A    between atoms: N_15  and  C_20
   10  A    between atoms: N_15  and  C_23
                            x       y       z     vdW  Elec       q    Type
                         _______ _______ _______ _____ _____    ______ ____

>  <TORSDO>
F 10

$$$$
=
 OpenBabel10232408373D

 28 29  0  0  1  0  0  0  0  0999 V2000
  191.1910  175.8930  143.2150 C   0  0  1  0  0  3  0  0  0  0  0  0
  191.7610  177.7930  141.7030 O   0  0  0  0  0  1  0  0  0  0  0  0
  190.5340  174.6660  143.0920 O   0  0  0  0  0  1  0  0  0  0  0  0
  190.8160  176.8320  142.0690 C   0  0  2  0  0  0  0  0  0  0  0  0
  190.1840  177.0320  143.4400 C   0  0  2  0  0  0  0  0  0  0  0  0
  190.7570  178.4820  144.3700 S   0  0  0  0  0  3  0  0  0  0  0  0
  191.6430  177.8870  145.4570 O   0  0  0  0  0  0  0  0  0  0  0  0
  188.8170  176.6990  143.4930 O   0  0  0  0  0  0  0  0  0  0  0  0
  188.2310  177.5340  144.4500 C   0  0  0  0  0  2  0  0  0  0  0  0
  186.7620  177.1830  144.5990 C   0  0  0  0  0  2  0  0  0  0  0  0
  185.9020  178.4270  144.4440 C   0  0  1  0  0  3  0  0  0  0  0  0
  184.9140  178.2620  143.3010 C   0  0  0  0  0  1  0  0  0  0  0  0
  185.9030  178.7790  147.0270 C   0  0  0  0  0  1  0  0  0  0  0  0
  183.9170  178.9520  145.6920 N   0  0  0  0  0  2  0  0  0  0  0  0
  185.1780  178.7280  145.7210 C   0  0  0  0  0  0  0  0  0  0  0  0
  189.9020  176.3410  141.0300 N   0  0  0  0  0  2  0  0  0  0  0  0
  189.4230  177.3890  140.1130 C   0  0  1  0  0  3  0  0  0  0  0  0
  188.2280  176.2090  137.1430 N   0  0  0  0  0  2  0  0  0  0  0  0
  189.8810  174.9610  138.1910 O   0  0  0  0  0  0  0  0  0  0  0  0
  189.5760  178.5920  137.9240 C   0  0  0  0  0  3  0  0  0  0  0  0
  189.9590  177.3240  138.6600 C   0  0  1  0  0  0  0  0  0  0  0  0
  188.5460  178.6810  137.0810 C   0  0  0  0  0  3  0  0  0  0  0  0
  191.3520  177.2280  138.6600 O   0  0  0  0  0  1  0  0  0  0  0  0
  187.7560  177.4950  136.7480 C   0  0  0  0  0  0  0  0  0  0  0  0
  189.3830  176.0980  137.9790 C   0  0  0  0  0  0  0  0  0  0  0  0
  186.7210  177.5980  135.9840 N   0  0  0  0  0  2  0  0  0  0  0  0
  187.9830  177.8750  140.3540 C   0  0  0  0  0  2  0  0  0  0  0  0
  187.9070  179.0760  141.2790 C   0  0  0  0  0  1  0  0  0  0  0  0
  1  3  1  6  0  0  0
  1  5  1  0  0  0  0
  4  2  1  6  0  0  0
  4  1  1  0  0  0  0
  4  5  1  0  0  0  0
  5  8  1  1  0  0  0
  5  6  1  0  0  0  0
  6  7  2  0  0  0  0
  8  9  1  0  0  0  0
  9 10  1  0  0  0  0
 11 12  1  6  0  0  0
 11 10  1  0  0  0  0
 11 15  1  0  0  0  0
 14 15  2  0  0  0  0
 15 13  1  0  0  0  0
 16  4  1  0  0  0  0
 17 27  1  6  0  0  0
 17 16  1  0  0  0  0
 18 25  1  0  0  0  0
 20 21  1  0  0  0  0
 21 23  1  1  0  0  0
 21 17  1  0  0  0  0
 22 20  2  0  0  0  0
 24 22  1  0  0  0  0
 24 18  1  0  0  0  0
 25 19  2  0  0  0  0
 25 21  1  0  0  0  0
 26 24  2  0  0  0  0
 27 28  1  0  0  0  0
M  END
>  <MODEL>
2

>  <REMARK>
 VINA RESULT:      -6.9      1.790      2.590
  Name = 
  10 active torsions:
  status: ('A' for Active; 'I' for Inactive)
    1  A    between atoms: C_2  and  O_9
    2  A    between atoms: C_2  and  C_24
    3  A    between atoms: C_3  and  C_24
    4  A    between atoms: C_3  and  C_27
    5  A    between atoms: C_5  and  C_20
    6  A    between atoms: O_9  and  C_28
    7  A    between atoms: S_10  and  C_28
    8  A    between atoms: C_12  and  C_20
    9  A    between atoms: N_15  and  C_20
   10  A    between atoms: N_15  and  C_23
                            x       y       z     vdW  Elec       q    Type
                         _______ _______ _______ _____ _____    ______ ____

>  <TORSDO>
F 10

$$$$
=
 OpenBabel10232408373D

 28 29  0  0  1  0  0  0  0  0999 V2000
  187.3990  176.3460  143.6130 C   0  0  1  0  0  3  0  0  0  0  0  0
  186.4520  177.6340  145.5270 O   0  0  0  0  0  1  0  0  0  0  0  0
  188.6750  175.9950  143.1630 O   0  0  0  0  0  1  0  0  0  0  0  0
  187.4630  177.5360  144.5680 C   0  0  2  0  0  0  0  0  0  0  0  0
  187.0180  177.7530  143.1290 C   0  0  2  0  0  0  0  0  0  0  0  0
  185.2520  178.1050  142.8930 S   0  0  0  0  0  3  0  0  0  0  0  0
  185.1050  179.5460  143.3650 O   0  0  0  0  0  0  0  0  0  0  0  0
  187.9520  178.4530  142.3410 O   0  0  0  0  0  0  0  0  0  0  0  0
  187.4350  178.4980  141.0400 C   0  0  0  0  0  2  0  0  0  0  0  0
  188.5750  178.4400  140.0400 C   0  0  0  0  0  2  0  0  0  0  0  0
  188.1840  177.5880  138.8420 C   0  0  1  0  0  3  0  0  0  0  0  0
  186.8450  178.0330  138.2770 C   0  0  0  0  0  1  0  0  0  0  0  0
  188.9920  178.3240  136.4760 C   0  0  0  0  0  1  0  0  0  0  0  0
  190.3880  177.1180  138.0090 N   0  0  0  0  0  2  0  0  0  0  0  0
  189.2440  177.6490  137.7850 C   0  0  0  0  0  0  0  0  0  0  0  0
  188.7780  178.0980  144.9020 N   0  0  0  0  0  2  0  0  0  0  0  0
  189.6520  177.1730  145.6430 C   0  0  1  0  0  3  0  0  0  0  0  0
  191.7850  176.1660  143.1780 N   0  0  0  0  0  2  0  0  0  0  0  0
  191.8700  175.0110  145.1900 O   0  0  0  0  0  0  0  0  0  0  0  0
  191.4410  178.5940  144.6230 C   0  0  0  0  0  3  0  0  0  0  0  0
  191.1730  177.3100  145.3820 C   0  0  1  0  0  0  0  0  0  0  0  0
  191.6470  178.6520  143.3060 C   0  0  0  0  0  3  0  0  0  0  0  0
  191.8710  177.3700  146.5900 O   0  0  0  0  0  1  0  0  0  0  0  0
  191.7130  177.4240  142.5110 C   0  0  0  0  0  0  0  0  0  0  0  0
  191.6480  176.1010  144.5990 C   0  0  0  0  0  0  0  0  0  0  0  0
  191.8470  177.4860  141.2300 N   0  0  0  0  0  2  0  0  0  0  0  0
  189.1710  176.7930  147.0540 C   0  0  0  0  0  2  0  0  0  0  0  0
  188.9110  177.9990  147.9390 C   0  0  0  0  0  1  0  0  0  0  0  0
  1  3  1  6  0  0  0
  1  4  1  0  0  0  0
  4 16  1  0  0  0  0
  4  2  1  1  0  0  0
  5  8  1  6  0  0  0
  5  1  1  0  0  0  0
  5  4  1  0  0  0  0
  6  5  1  0  0  0  0
  6  7  2  0  0  0  0
  9  8  1  0  0  0  0
 10  9  1  0  0  0  0
 11 12  1  6  0  0  0
 11 10  1  0  0  0  0
 13 15  1  0  0  0  0
 15 14  2  0  0  0  0
 15 11  1  0  0  0  0
 16 17  1  0  0  0  0
 17 27  1  1  0  0  0
 18 25  1  0  0  0  0
 20 21  1  0  0  0  0
 21 17  1  0  0  0  0
 21 23  1  1  0  0  0
 22 20  2  0  0  0  0
 24 18  1  0  0  0  0
 24 22  1  0  0  0  0
 25 19  2  0  0  0  0
 25 21  1  0  0  0  0
 26 24  2  0  0  0  0
 27 28  1  0  0  0  0
M  END
>  <MODEL>
3

>  <REMARK>
 VINA RESULT:      -6.8      2.709      7.193
  Name = 
  10 active torsions:
  status: ('A' for Active; 'I' for Inactive)
    1  A    between atoms: C_2  and  O_9
    2  A    between atoms: C_2  and  C_24
    3  A    between atoms: C_3  and  C_24
    4  A    between atoms: C_3  and  C_27
    5  A    between atoms: C_5  and  C_20
    6  A    between atoms: O_9  and  C_28
    7  A    between atoms: S_10  and  C_28
    8  A    between atoms: C_12  and  C_20
    9  A    between atoms: N_15  and  C_20
   10  A    between atoms: N_15  and  C_23
                            x       y       z     vdW  Elec       q    Type
                         _______ _______ _______ _____ _____    ______ ____

>  <TORSDO>
F 10

$$$$
=
 OpenBabel10232408373D

 28 29  0  0  1  0  0  0  0  0999 V2000
  183.5870  179.3620  138.7920 C   0  0  1  0  0  3  0  0  0  0  0  0
  184.5250  177.1630  138.0800 O   0  0  0  0  0  1  0  0  0  0  0  0
  184.0820  180.6530  138.9930 O   0  0  0  0  0  1  0  0  0  0  0  0
  184.7160  178.3330  138.8180 C   0  0  2  0  0  0  0  0  0  0  0  0
  183.8150  178.4890  140.0350 C   0  0  2  0  0  0  0  0  0  0  0  0
  182.6440  177.1330  140.3300 S   0  0  0  0  0  3  0  0  0  0  0  0
  181.3610  177.8460  140.7360 O   0  0  0  0  0  0  0  0  0  0  0  0
  184.4510  179.0800  141.1450 O   0  0  0  0  0  0  0  0  0  0  0  0
  184.3690  178.1610  142.1980 C   0  0  0  0  0  2  0  0  0  0  0  0
  185.4480  178.4650  143.2210 C   0  0  0  0  0  2  0  0  0  0  0  0
  184.8390  179.1070  144.4570 C   0  0  1  0  0  3  0  0  0  0  0  0
  183.3300  178.9240  144.4730 C   0  0  0  0  0  1  0  0  0  0  0  0
  186.7630  177.8260  145.6620 C   0  0  0  0  0  1  0  0  0  0  0  0
  184.8340  178.6620  146.8180 N   0  0  0  0  0  2  0  0  0  0  0  0
  185.4480  178.5360  145.7010 C   0  0  0  0  0  0  0  0  0  0  0  0
  186.0940  178.8080  139.0010 N   0  0  0  0  0  2  0  0  0  0  0  0
  187.1190  177.7960  138.6950 C   0  0  1  0  0  3  0  0  0  0  0  0
  190.2180  177.5490  137.2880 N   0  0  0  0  0  2  0  0  0  0  0  0
  189.2210  179.6460  137.2950 O   0  0  0  0  0  0  0  0  0  0  0  0
  187.6860  176.3830  136.7090 C   0  0  0  0  0  3  0  0  0  0  0  0
  187.6730  177.7990  137.2470 C   0  0  1  0  0  0  0  0  0  0  0  0
  188.7750  175.6140  136.6630 C   0  0  0  0  0  3  0  0  0  0  0  0
  186.8560  178.5700  136.4170 O   0  0  0  0  0  1  0  0  0  0  0  0
  190.0770  176.1480  137.0670 C   0  0  0  0  0  0  0  0  0  0  0  0
  189.0670  178.3970  137.2560 C   0  0  0  0  0  0  0  0  0  0  0  0
  191.1160  175.3830  137.0830 N   0  0  0  0  0  2  0  0  0  0  0  0
  188.0670  177.4400  139.8530 C   0  0  0  0  0  2  0  0  0  0  0  0
  188.1600  178.5310  140.9040 C   0  0  0  0  0  1  0  0  0  0  0  0
  1  4  1  0  0  0  0
  1  3  1  1  0  0  0
  1  5  1  0  0  0  0
  4  2  1  6  0  0  0
  4 16  1  0  0  0  0
  4  5  1  0  0  0  0
  5  6  1  1  0  0  0
  5  8  1  0  0  0  0
  6  7  2  0  0  0  0
  8  9  1  0  0  0  0
  9 10  1  0  0  0  0
 10 11  1  0  0  0  0
 11 12  1  1  0  0  0
 11 15  1  0  0  0  0
 13 15  1  0  0  0  0
 15 14  2  0  0  0  0
 17 16  1  0  0  0  0
 17 27  1  1  0  0  0
 20 21  1  0  0  0  0
 21 23  1  6  0  0  0
 21 25  1  0  0  0  0
 21 17  1  0  0  0  0
 22 20  2  0  0  0  0
 22 24  1  0  0  0  0
 24 26  2  0  0  0  0
 24 18  1  0  0  0  0
 25 18  1  0  0  0  0
 25 19  2  0  0  0  0
 27 28  1  0  0  0  0
M  END
>  <MODEL>
4

>  <REMARK>
 VINA RESULT:      -6.8      3.429      4.971
  Name = 
  10 active torsions:
  status: ('A' for Active; 'I' for Inactive)
    1  A    between atoms: C_2  and  O_9
    2  A    between atoms: C_2  and  C_24
    3  A    between atoms: C_3  and  C_24
    4  A    between atoms: C_3  and  C_27
    5  A    between atoms: C_5  and  C_20
    6  A    between atoms: O_9  and  C_28
    7  A    between atoms: S_10  and  C_28
    8  A    between atoms: C_12  and  C_20
    9  A    between atoms: N_15  and  C_20
   10  A    between atoms: N_15  and  C_23
                            x       y       z     vdW  Elec       q    Type
                         _______ _______ _______ _____ _____    ______ ____

>  <TORSDO>
F 10

$$$$
=
 OpenBabel10232408373D

 28 29  0  0  1  0  0  0  0  0999 V2000
  191.1830  177.8120  140.0480 C   0  0  1  0  0  3  0  0  0  0  0  0
  189.6320  177.1550  138.2080 O   0  0  0  0  0  1  0  0  0  0  0  0
  192.4470  177.4150  140.4930 O   0  0  0  0  0  1  0  0  0  0  0  0
  190.5470  176.7310  139.1750 C   0  0  2  0  0  0  0  0  0  0  0  0
  190.0910  176.8940  140.6170 C   0  0  2  0  0  0  0  0  0  0  0  0
  188.4370  177.6070  140.8470 S   0  0  0  0  0  3  0  0  0  0  0  0
  188.7010  178.8860  141.6300 O   0  0  0  0  0  0  0  0  0  0  0  0
  190.4920  175.8430  141.4650 O   0  0  0  0  0  0  0  0  0  0  0  0
  189.8020  176.0080  142.6720 C   0  0  0  0  0  2  0  0  0  0  0  0
  190.7630  176.4900  143.7430 C   0  0  0  0  0  2  0  0  0  0  0  0
  190.0290  177.3370  144.7700 C   0  0  1  0  0  3  0  0  0  0  0  0
  188.5280  177.1080  144.6850 C   0  0  0  0  0  1  0  0  0  0  0  0
  189.5800  176.9000  147.3010 C   0  0  0  0  0  1  0  0  0  0  0  0
  191.7830  176.8930  146.3510 N   0  0  0  0  0  2  0  0  0  0  0  0
  190.5260  177.0380  146.1520 C   0  0  0  0  0  0  0  0  0  0  0  0
  191.3140  175.5090  138.9000 N   0  0  0  0  0  2  0  0  0  0  0  0
  191.2310  175.0540  137.5020 C   0  0  1  0  0  3  0  0  0  0  0  0
  194.5520  175.0710  138.2860 N   0  0  0  0  0  2  0  0  0  0  0  0
  193.6270  177.0680  137.5470 O   0  0  0  0  0  0  0  0  0  0  0  0
  192.9820  173.6710  136.3680 C   0  0  0  0  0  3  0  0  0  0  0  0
  192.5520  175.0880  136.6920 C   0  0  1  0  0  0  0  0  0  0  0  0
  193.9180  173.0040  137.0440 C   0  0  0  0  0  3  0  0  0  0  0  0
  192.3660  175.7690  135.4870 O   0  0  0  0  0  1  0  0  0  0  0  0
  194.6650  173.6600  138.1190 C   0  0  0  0  0  0  0  0  0  0  0  0
  193.6090  175.8090  137.5050 C   0  0  0  0  0  0  0  0  0  0  0  0
  195.5240  172.9930  138.8140 N   0  0  0  0  0  2  0  0  0  0  0  0
  190.2200  173.9270  137.2290 C   0  0  0  0  0  2  0  0  0  0  0  0
  189.1420  174.3220  136.2360 C   0  0  0  0  0  1  0  0  0  0  0  0
  1  3  1  1  0  0  0
  1  5  1  0  0  0  0
  4  2  1  6  0  0  0
  4  1  1  0  0  0  0
  4  5  1  0  0  0  0
  5  6  1  1  0  0  0
  5  8  1  0  0  0  0
  6  7  2  0  0  0  0
  8  9  1  0  0  0  0
  9 10  1  0  0  0  0
 10 11  1  0  0  0  0
 11 12  1  1  0  0  0
 11 15  1  0  0  0  0
 15 14  2  0  0  0  0
 15 13  1  0  0  0  0
 16  4  1  0  0  0  0
 17 27  1  1  0  0  0
 17 16  1  0  0  0  0
 20 21  1  0  0  0  0
 20 22  2  0  0  0  0
 21 23  1  6  0  0  0
 21 17  1  0  0  0  0
 21 25  1  0  0  0  0
 22 24  1  0  0  0  0
 24 18  1  0  0  0  0
 24 26  2  0  0  0  0
 25 19  2  0  0  0  0
 25 18  1  0  0  0  0
 28 27  1  0  0  0  0
M  END
>  <MODEL>
5

>  <REMARK>
 VINA RESULT:      -6.6      3.465      4.954
  Name = 
  10 active torsions:
  status: ('A' for Active; 'I' for Inactive)
    1  A    between atoms: C_2  and  O_9
    2  A    between atoms: C_2  and  C_24
    3  A    between atoms: C_3  and  C_24
    4  A    between atoms: C_3  and  C_27
    5  A    between atoms: C_5  and  C_20
    6  A    between atoms: O_9  and  C_28
    7  A    between atoms: S_10  and  C_28
    8  A    between atoms: C_12  and  C_20
    9  A    between atoms: N_15  and  C_20
   10  A    between atoms: N_15  and  C_23
                            x       y       z     vdW  Elec       q    Type
                         _______ _______ _______ _____ _____    ______ ____

>  <TORSDO>
F 10

$$$$
=
 OpenBabel10232408373D

 28 29  0  0  1  0  0  0  0  0999 V2000
  191.2180  175.9530  143.1140 C   0  0  1  0  0  3  0  0  0  0  0  0
  191.7000  177.8430  141.5600 O   0  0  0  0  0  1  0  0  0  0  0  0
  190.5800  174.7130  143.0300 O   0  0  0  0  0  1  0  0  0  0  0  0
  190.7860  176.8700  141.9710 C   0  0  2  0  0  0  0  0  0  0  0  0
  190.1990  177.0760  143.3600 C   0  0  2  0  0  0  0  0  0  0  0  0
  190.7780  178.5480  144.2520 S   0  0  0  0  0  3  0  0  0  0  0  0
  191.8000  177.9950  145.2370 O   0  0  0  0  0  0  0  0  0  0  0  0
  188.8410  176.7200  143.4660 O   0  0  0  0  0  0  0  0  0  0  0  0
  188.2620  177.5910  144.3960 C   0  0  0  0  0  2  0  0  0  0  0  0
  186.7970  177.2380  144.5770 C   0  0  0  0  0  2  0  0  0  0  0  0
  186.3580  177.5190  146.0060 C   0  0  1  0  0  3  0  0  0  0  0  0
  187.5630  177.6620  146.9220 C   0  0  0  0  0  1  0  0  0  0  0  0
  184.5390  179.0730  144.9720 C   0  0  0  0  0  1  0  0  0  0  0  0
  185.6110  179.5400  147.0660 N   0  0  0  0  0  2  0  0  0  0  0  0
  185.5090  178.7510  146.0630 C   0  0  0  0  0  0  0  0  0  0  0  0
  189.8450  176.3490  140.9710 N   0  0  0  0  0  2  0  0  0  0  0  0
  189.2310  177.3910  140.1310 C   0  0  1  0  0  3  0  0  0  0  0  0
  190.6750  175.1250  138.0280 N   0  0  0  0  0  2  0  0  0  0  0  0
  191.9810  176.9180  138.7120 O   0  0  0  0  0  0  0  0  0  0  0  0
  188.4400  176.8750  137.8130 C   0  0  0  0  0  3  0  0  0  0  0  0
  189.6150  177.3730  138.6290 C   0  0  1  0  0  0  0  0  0  0  0  0
  188.3270  175.6270  137.3550 C   0  0  0  0  0  3  0  0  0  0  0  0
  189.9290  178.6630  138.1930 O   0  0  0  0  0  1  0  0  0  0  0  0
  189.4130  174.6640  137.5520 C   0  0  0  0  0  0  0  0  0  0  0  0
  190.8290  176.4840  138.4440 C   0  0  0  0  0  0  0  0  0  0  0  0
  189.2730  173.4420  137.1650 N   0  0  0  0  0  2  0  0  0  0  0  0
  187.8050  177.8100  140.5280 C   0  0  0  0  0  2  0  0  0  0  0  0
  187.7560  179.1500  141.2420 C   0  0  0  0  0  1  0  0  0  0  0  0
  1  3  1  6  0  0  0
  1  5  1  0  0  0  0
  4  2  1  6  0  0  0
  4  1  1  0  0  0  0
  4  5  1  0  0  0  0
  5  8  1  1  0  0  0
  5  6  1  0  0  0  0
  6  7  2  0  0  0  0
  8  9  1  0  0  0  0
  9 10  1  0  0  0  0
 10 11  1  0  0  0  0
 11 15  1  0  0  0  0
 11 12  1  1  0  0  0
 13 15  1  0  0  0  0
 15 14  2  0  0  0  0
 16  4  1  0  0  0  0
 17 27  1  6  0  0  0
 17 16  1  0  0  0  0
 18 25  1  0  0  0  0
 20 21  1  0  0  0  0
 21 23  1  6  0  0  0
 21 17  1  0  0  0  0
 22 24  1  0  0  0  0
 22 20  2  0  0  0  0
 24 18  1  0  0  0  0
 25 21  1  0  0  0  0
 25 19  2  0  0  0  0
 26 24  2  0  0  0  0
 27 28  1  0  0  0  0
M  END
>  <MODEL>
6

>  <REMARK>
 VINA RESULT:      -6.5      1.664      2.207
  Name = 
  10 active torsions:
  status: ('A' for Active; 'I' for Inactive)
    1  A    between atoms: C_2  and  O_9
    2  A    between atoms: C_2  and  C_24
    3  A    between atoms: C_3  and  C_24
    4  A    between atoms: C_3  and  C_27
    5  A    between atoms: C_5  and  C_20
    6  A    between atoms: O_9  and  C_28
    7  A    between atoms: S_10  and  C_28
    8  A    between atoms: C_12  and  C_20
    9  A    between atoms: N_15  and  C_20
   10  A    between atoms: N_15  and  C_23
                            x       y       z     vdW  Elec       q    Type
                         _______ _______ _______ _____ _____    ______ ____

>  <TORSDO>
F 10

$$$$
=
 OpenBabel10232408373D

 28 29  0  0  1  0  0  0  0  0999 V2000
  185.0580  179.8460  143.1480 C   0  0  1  0  0  3  0  0  0  0  0  0
  182.7560  178.9360  143.4590 O   0  0  0  0  0  1  0  0  0  0  0  0
  185.9780  179.9300  142.0990 O   0  0  0  0  0  1  0  0  0  0  0  0
  184.0130  178.7650  142.8750 C   0  0  2  0  0  0  0  0  0  0  0  0
  185.1490  178.4820  143.8470 C   0  0  2  0  0  0  0  0  0  0  0  0
  184.6870  178.4100  145.6020 S   0  0  0  0  0  3  0  0  0  0  0  0
  185.5310  179.5040  146.2420 O   0  0  0  0  0  0  0  0  0  0  0  0
  186.0970  177.5580  143.3650 O   0  0  0  0  0  0  0  0  0  0  0  0
  186.7910  177.0680  144.4780 C   0  0  0  0  0  2  0  0  0  0  0  0
  188.2810  177.0700  144.1880 C   0  0  0  0  0  2  0  0  0  0  0  0
  189.0160  177.9380  145.1970 C   0  0  1  0  0  3  0  0  0  0  0  0
  188.7930  177.4270  146.6110 C   0  0  0  0  0  1  0  0  0  0  0  0
  191.0360  179.0080  143.9440 C   0  0  0  0  0  1  0  0  0  0  0  0
  191.2700  177.1400  145.4310 N   0  0  0  0  0  2  0  0  0  0  0  0
  190.4800  177.9860  144.8820 C   0  0  0  0  0  0  0  0  0  0  0  0
  184.0830  178.0260  141.6070 N   0  0  0  0  0  2  0  0  0  0  0  0
  183.0530  178.4190  140.6310 C   0  0  1  0  0  3  0  0  0  0  0  0
  182.5450  178.0510  137.2770 N   0  0  0  0  0  2  0  0  0  0  0  0
  184.5890  177.3460  138.1230 O   0  0  0  0  0  0  0  0  0  0  0  0
  182.6300  180.2930  139.0280 C   0  0  0  0  0  3  0  0  0  0  0  0
  183.5580  179.1420  139.3560 C   0  0  1  0  0  0  0  0  0  0  0  0
  181.6760  180.2390  138.0960 C   0  0  0  0  0  3  0  0  0  0  0  0
  184.8360  179.6640  139.5680 O   0  0  0  0  0  1  0  0  0  0  0  0
  181.5290  179.0500  137.2550 C   0  0  0  0  0  0  0  0  0  0  0  0
  183.6180  178.1430  138.2170 C   0  0  0  0  0  0  0  0  0  0  0  0
  180.5650  178.9750  136.4000 N   0  0  0  0  0  2  0  0  0  0  0  0
  181.8480  177.4690  140.5190 C   0  0  0  0  0  2  0  0  0  0  0  0
  180.5480  178.0980  140.9910 C   0  0  0  0  0  1  0  0  0  0  0  0
  1  3  1  6  0  0  0
  1  5  1  0  0  0  0
  4  1  1  0  0  0  0
  4  2  1  1  0  0  0
  4  5  1  0  0  0  0
  5  8  1  6  0  0  0
  5  6  1  0  0  0  0
  6  7  2  0  0  0  0
  8  9  1  0  0  0  0
 10  9  1  0  0  0  0
 10 11  1  0  0  0  0
 11 12  1  1  0  0  0
 13 15  1  0  0  0  0
 15 11  1  0  0  0  0
 15 14  2  0  0  0  0
 16  4  1  0  0  0  0
 17 27  1  6  0  0  0
 17 16  1  0  0  0  0
 18 25  1  0  0  0  0
 19 25  2  0  0  0  0
 20 21  1  0  0  0  0
 21 23  1  1  0  0  0
 21 17  1  0  0  0  0
 22 20  2  0  0  0  0
 24 18  1  0  0  0  0
 24 22  1  0  0  0  0
 25 21  1  0  0  0  0
 26 24  2  0  0  0  0
 27 28  1  0  0  0  0
M  END
>  <MODEL>
7

>  <REMARK>
 VINA RESULT:      -6.4      4.696      6.268
  Name = 
  10 active torsions:
  status: ('A' for Active; 'I' for Inactive)
    1  A    between atoms: C_2  and  O_9
    2  A    between atoms: C_2  and  C_24
    3  A    between atoms: C_3  and  C_24
    4  A    between atoms: C_3  and  C_27
    5  A    between atoms: C_5  and  C_20
    6  A    between atoms: O_9  and  C_28
    7  A    between atoms: S_10  and  C_28
    8  A    between atoms: C_12  and  C_20
    9  A    between atoms: N_15  and  C_20
   10  A    between atoms: N_15  and  C_23
                            x       y       z     vdW  Elec       q    Type
                         _______ _______ _______ _____ _____    ______ ____

>  <TORSDO>
F 10

$$$$
=
 OpenBabel10232408373D

 28 29  0  0  1  0  0  0  0  0999 V2000
  189.4930  178.1450  138.4150 C   0  0  1  0  0  3  0  0  0  0  0  0
  190.0540  175.9580  139.4740 O   0  0  0  0  0  1  0  0  0  0  0  0
  189.2720  179.4530  138.8540 O   0  0  0  0  0  1  0  0  0  0  0  0
  189.3270  177.1480  139.5610 C   0  0  2  0  0  0  0  0  0  0  0  0
  188.2130  177.3050  138.5360 C   0  0  2  0  0  0  0  0  0  0  0  0
  188.0070  175.9240  137.3750 S   0  0  0  0  0  3  0  0  0  0  0  0
  188.4490  176.5070  136.0400 O   0  0  0  0  0  0  0  0  0  0  0  0
  187.0580  177.9350  139.0400 O   0  0  0  0  0  0  0  0  0  0  0  0
  186.0950  177.8930  138.0250 C   0  0  0  0  0  2  0  0  0  0  0  0
  184.7090  177.9670  138.6380 C   0  0  0  0  0  2  0  0  0  0  0  0
  184.5360  179.2720  139.3990 C   0  0  1  0  0  3  0  0  0  0  0  0
  183.2560  179.9760  138.9790 C   0  0  0  0  0  1  0  0  0  0  0  0
  183.5160  178.1300  141.5090 C   0  0  0  0  0  1  0  0  0  0  0  0
  185.4250  179.5800  141.6100 N   0  0  0  0  0  2  0  0  0  0  0  0
  184.5350  179.0230  140.8770 C   0  0  0  0  0  0  0  0  0  0  0  0
  189.0160  177.6640  140.9000 N   0  0  0  0  0  2  0  0  0  0  0  0
  189.5750  176.8540  141.9960 C   0  0  1  0  0  3  0  0  0  0  0  0
  190.6030  178.1280  144.9890 N   0  0  0  0  0  2  0  0  0  0  0  0
  190.4360  179.6080  143.2090 O   0  0  0  0  0  0  0  0  0  0  0  0
  191.6480  176.1620  143.2160 C   0  0  0  0  0  3  0  0  0  0  0  0
  190.9280  177.3340  142.5800 C   0  0  1  0  0  0  0  0  0  0  0  0
  191.6610  175.9180  144.5270 C   0  0  0  0  0  3  0  0  0  0  0  0
  191.7420  177.8430  141.5660 O   0  0  0  0  0  1  0  0  0  0  0  0
  191.0280  176.8520  145.4610 C   0  0  0  0  0  0  0  0  0  0  0  0
  190.6640  178.4310  143.5940 C   0  0  0  0  0  0  0  0  0  0  0  0
  190.9860  176.5800  146.7210 N   0  0  0  0  0  2  0  0  0  0  0  0
  188.5450  176.2100  142.9390 C   0  0  0  0  0  2  0  0  0  0  0  0
  187.3840  177.1320  143.2700 C   0  0  0  0  0  1  0  0  0  0  0  0
  1  5  1  0  0  0  0
  1  3  1  1  0  0  0
  1  4  1  0  0  0  0
  4  2  1  6  0  0  0
  4 16  1  0  0  0  0
  5  6  1  6  0  0  0
  5  8  1  0  0  0  0
  5  4  1  0  0  0  0
  7  6  2  0  0  0  0
  9 10  1  0  0  0  0
  9  8  1  0  0  0  0
 10 11  1  0  0  0  0
 11 12  1  6  0  0  0
 11 15  1  0  0  0  0
 15 13  1  0  0  0  0
 15 14  2  0  0  0  0
 16 17  1  0  0  0  0
 17 21  1  0  0  0  0
 17 27  1  1  0  0  0
 18 24  1  0  0  0  0
 19 25  2  0  0  0  0
 20 22  2  0  0  0  0
 21 23  1  6  0  0  0
 21 20  1  0  0  0  0
 21 25  1  0  0  0  0
 22 24  1  0  0  0  0
 24 26  2  0  0  0  0
 25 18  1  0  0  0  0
 27 28  1  0  0  0  0
M  END
>  <MODEL>
8

>  <REMARK>
 VINA RESULT:      -6.4      3.234      6.635
  Name = 
  10 active torsions:
  status: ('A' for Active; 'I' for Inactive)
    1  A    between atoms: C_2  and  O_9
    2  A    between atoms: C_2  and  C_24
    3  A    between atoms: C_3  and  C_24
    4  A    between atoms: C_3  and  C_27
    5  A    between atoms: C_5  and  C_20
    6  A    between atoms: O_9  and  C_28
    7  A    between atoms: S_10  and  C_28
    8  A    between atoms: C_12  and  C_20
    9  A    between atoms: N_15  and  C_20
   10  A    between atoms: N_15  and  C_23
                            x       y       z     vdW  Elec       q    Type
                         _______ _______ _______ _____ _____    ______ ____

>  <TORSDO>
F 10

$$$$
=
 OpenBabel10232408373D

 28 29  0  0  1  0  0  0  0  0999 V2000
  191.5620  178.4070  144.5120 C   0  0  1  0  0  3  0  0  0  0  0  0
  190.3170  176.7190  145.8630 O   0  0  0  0  0  1  0  0  0  0  0  0
  191.3610  179.7330  144.1190 O   0  0  0  0  0  1  0  0  0  0  0  0
  190.2440  177.7540  144.9280 C   0  0  2  0  0  0  0  0  0  0  0  0
  190.8380  177.4400  143.5630 C   0  0  2  0  0  0  0  0  0  0  0  0
  191.5390  175.7760  143.3700 S   0  0  0  0  0  3  0  0  0  0  0  0
  190.3260  174.9050  143.0720 O   0  0  0  0  0  0  0  0  0  0  0  0
  190.1180  177.9930  142.4850 O   0  0  0  0  0  0  0  0  0  0  0  0
  190.5900  177.3770  141.3210 C   0  0  0  0  0  2  0  0  0  0  0  0
  189.4270  177.1000  140.3860 C   0  0  0  0  0  2  0  0  0  0  0  0
  189.7900  177.4870  138.9610 C   0  0  1  0  0  3  0  0  0  0  0  0
  190.0160  176.2490  138.1070 C   0  0  0  0  0  1  0  0  0  0  0  0
  188.9750  179.1480  137.1240 C   0  0  0  0  0  1  0  0  0  0  0  0
  187.5660  178.3950  138.9140 N   0  0  0  0  0  2  0  0  0  0  0  0
  188.7200  178.3480  138.3610 C   0  0  0  0  0  0  0  0  0  0  0  0
  189.0200  178.5660  144.9010 N   0  0  0  0  0  2  0  0  0  0  0  0
  188.0300  178.1860  145.9230 C   0  0  1  0  0  3  0  0  0  0  0  0
  185.2890  179.3220  144.2380 N   0  0  0  0  0  2  0  0  0  0  0  0
  185.0300  178.8700  146.5000 O   0  0  0  0  0  0  0  0  0  0  0  0
  186.9390  177.0150  143.9980 C   0  0  0  0  0  3  0  0  0  0  0  0
  186.7180  177.5470  145.4000 C   0  0  1  0  0  0  0  0  0  0  0  0
  186.5620  177.6550  142.8900 C   0  0  0  0  0  3  0  0  0  0  0  0
  186.3400  176.4770  146.2140 O   0  0  0  0  0  1  0  0  0  0  0  0
  185.8110  178.9090  142.9770 C   0  0  0  0  0  0  0  0  0  0  0  0
  185.6200  178.5930  145.4220 C   0  0  0  0  0  0  0  0  0  0  0  0
  185.5050  179.5580  141.9050 N   0  0  0  0  0  2  0  0  0  0  0  0
  188.6100  177.7010  147.2620 C   0  0  0  0  0  2  0  0  0  0  0  0
  188.0070  178.4090  148.4630 C   0  0  0  0  0  1  0  0  0  0  0  0
  1  3  1  6  0  0  0
  1  4  1  0  0  0  0
  4  2  1  1  0  0  0
  5  8  1  6  0  0  0
  5  1  1  0  0  0  0
  5  4  1  0  0  0  0
  6  5  1  0  0  0  0
  7  6  2  0  0  0  0
  9  8  1  0  0  0  0
 10  9  1  0  0  0  0
 11 12  1  6  0  0  0
 11 10  1  0  0  0  0
 13 15  1  0  0  0  0
 15 14  2  0  0  0  0
 15 11  1  0  0  0  0
 16  4  1  0  0  0  0
 16 17  1  0  0  0  0
 17 27  1  1  0  0  0
 18 25  1  0  0  0  0
 20 21  1  0  0  0  0
 21 25  1  0  0  0  0
 21 17  1  0  0  0  0
 21 23  1  1  0  0  0
 22 24  1  0  0  0  0
 22 20  2  0  0  0  0
 24 18  1  0  0  0  0
 25 19  2  0  0  0  0
 26 24  2  0  0  0  0
 27 28  1  0  0  0  0
M  END
>  <MODEL>
9

>  <REMARK>
 VINA RESULT:      -6.2      2.279      6.962
  Name = 
  10 active torsions:
  status: ('A' for Active; 'I' for Inactive)
    1  A    between atoms: C_2  and  O_9
    2  A    between atoms: C_2  and  C_24
    3  A    between atoms: C_3  and  C_24
    4  A    between atoms: C_3  and  C_27
    5  A    between atoms: C_5  and  C_20
    6  A    between atoms: O_9  and  C_28
    7  A    between atoms: S_10  and  C_28
    8  A    between atoms: C_12  and  C_20
    9  A    between atoms: N_15  and  C_20
   10  A    between atoms: N_15  and  C_23
                            x       y       z     vdW  Elec       q    Type
                         _______ _______ _______ _____ _____    ______ ____

>  <TORSDO>
F 10

$$$$
