=
 OpenBabel10232412113D

 39 43  0  0  1  0  0  0  0  0999 V2000
  182.2790  174.8970  138.1820 N   0  0  0  0  0  2  0  0  0  0  0  0
  183.0080  177.1380  138.7370 C   0  0  2  0  0  3  0  0  0  0  0  0
  181.2850  175.9880  139.9980 O   0  0  0  0  0  0  0  0  0  0  0  0
  183.6640  176.6880  137.4270 C   0  0  2  0  0  3  0  0  0  0  0  0
  183.3710  175.1900  137.2710 C   0  0  0  0  0  2  0  0  0  0  0  0
  182.0970  176.0080  139.0350 C   0  0  0  0  0  0  0  0  0  0  0  0
  182.0270  179.3280  139.6210 C   0  0  0  0  0  0  0  0  0  0  0  0
  181.1740  180.6500  139.0300 S   0  0  0  0  0  0  0  0  0  0  0  0
  180.5020  180.7230  136.3060 C   0  0  0  0  0  1  0  0  0  0  0  0
  182.2670  178.4420  138.5700 C   0  0  0  0  0  0  0  0  0  0  0  0
  181.1560  180.0490  137.4590 C   0  0  0  0  0  0  0  0  0  0  0  0
  181.7760  178.8540  137.3670 N   0  0  0  0  0  0  0  0  0  0  0  0
  182.5890  178.9700  142.1800 C   0  0  0  0  0  0  0  0  0  0  0  0
  182.3240  179.1160  141.0120 C   0  0  0  0  0  0  0  0  0  0  0  0
  182.9210  178.8290  143.6040 C   0  0  0  0  0  2  0  0  0  0  0  0
  184.9180  178.4410  145.1820 C   0  0  0  0  0  2  0  0  0  0  0  0
  186.3040  177.9590  145.2480 N   0  0  0  0  0  0  0  0  0  0  0  0
  184.3490  178.4250  143.7880 C   0  0  0  0  0  0  0  0  0  0  0  0
  187.0880  177.7300  144.0690 C   0  0  0  0  0  3  0  0  0  0  0  0
  186.5400  177.8340  142.8620 C   0  0  0  0  0  3  0  0  0  0  0  0
  185.1190  178.1780  142.7220 C   0  0  0  0  0  3  0  0  0  0  0  0
  186.9430  177.8830  146.5510 C   0  0  0  0  0  2  0  0  0  0  0  0
  188.4170  177.5320  146.4120 C   0  0  0  0  0  2  0  0  0  0  0  0
  188.1110  178.0670  148.6570 C   0  0  0  0  0  1  0  0  0  0  0  0
  189.1250  177.8580  147.6380 N   0  0  0  0  0  2  0  0  0  0  0  0
  185.3040  177.1050  135.1370 O   0  0  0  0  0  0  0  0  0  0  0  0
  185.0980  176.9510  137.4560 N   0  0  0  0  0  2  0  0  0  0  0  0
  185.8470  177.2310  136.2690 C   0  0  0  0  0  0  0  0  0  0  0  0
  187.2670  177.7330  136.3810 C   0  0  2  0  0  3  0  0  0  0  0  0
  188.0440  177.5990  135.0830 C   0  0  0  0  0  1  0  0  0  0  0  0
  190.2300  177.4400  137.9170 C   0  0  1  0  0  3  0  0  0  0  0  0
  190.5380  176.8100  140.3150 C   0  0  0  0  0  3  0  0  0  0  0  0
  189.3700  177.6110  140.7030 C   0  0  0  0  0  3  0  0  0  0  0  0
  188.9740  178.2320  138.3270 C   0  0  2  0  0  0  0  0  0  0  0  0
  188.6520  178.2750  139.7970 C   0  0  0  0  0  3  0  0  0  0  0  0
  190.9350  176.7270  139.0460 C   0  0  0  0  0  3  0  0  0  0  0  0
  188.0990  177.2270  137.5770 C   0  0  2  0  0  3  0  0  0  0  0  0
  188.9810  179.5140  137.7700 O   0  0  0  0  0  1  0  0  0  0  0  0
  189.3480  176.4530  137.1620 C   0  0  0  0  0  2  0  0  0  0  0  0
  1  6  1  0  0  0  0
  2 10  1  6  0  0  0
  2  6  1  0  0  0  0
  4 27  1  1  0  0  0
  4  2  1  0  0  0  0
  5  4  1  0  0  0  0
  5  1  1  0  0  0  0
  6  3  2  0  0  0  0
  7 14  1  0  0  0  0
  8  7  1  0  0  0  0
  9 11  1  0  0  0  0
 10  7  2  0  0  0  0
 11  8  1  0  0  0  0
 12 11  2  0  0  0  0
 12 10  1  0  0  0  0
 13 15  1  0  0  0  0
 14 13  3  0  0  0  0
 15 18  1  0  0  0  0
 16 17  1  0  0  0  0
 17 22  1  0  0  0  0
 18 16  1  0  0  0  0
 19 17  1  0  0  0  0
 20 19  2  0  0  0  0
 21 20  1  0  0  0  0
 21 18  2  0  0  0  0
 23 22  1  0  0  0  0
 23 25  1  0  0  0  0
 25 24  1  0  0  0  0
 26 28  2  0  0  0  0
 28 29  1  0  0  0  0
 28 27  1  0  0  0  0
 29 30  1  6  0  0  0
 31 39  1  6  0  0  0
 31 34  1  0  0  0  0
 31 36  1  0  0  0  0
 32 33  1  0  0  0  0
 34 38  1  6  0  0  0
 34 35  1  0  0  0  0
 35 33  2  0  0  0  0
 36 32  2  0  0  0  0
 37 29  1  6  0  0  0
 37 34  1  0  0  0  0
 39 37  1  0  0  0  0
M  END
>  <MODEL>
1

>  <REMARK>
 VINA RESULT:      -7.8      0.000      0.000
  Name = 
  10 active torsions:
  status: ('A' for Active; 'I' for Inactive)
    1  A    between atoms: C_2  and  C_34
    2  A    between atoms: C_3  and  C_25
    3  A    between atoms: C_4  and  C_29
    4  A    between atoms: C_4  and  C_30
    5  A    between atoms: C_5  and  C_18
    6  A    between atoms: C_5  and  C_21
    7  A    between atoms: C_8  and  N_14
    8  A    between atoms: N_17  and  C_20
    9  A    between atoms: C_20  and  C_27
   10  A    between atoms: C_27  and  N_33
                            x       y       z     vdW  Elec       q    Type
                         _______ _______ _______ _____ _____    ______ ____

>  <TORSDO>
F 10

$$$$
=
 OpenBabel10232412113D

 39 43  0  0  1  0  0  0  0  0999 V2000
  182.5680  174.4960  137.5840 N   0  0  0  0  0  2  0  0  0  0  0  0
  183.5140  176.6390  138.1950 C   0  0  2  0  0  3  0  0  0  0  0  0
  181.8150  175.5450  139.5350 O   0  0  0  0  0  0  0  0  0  0  0  0
  184.0230  176.2220  136.8110 C   0  0  2  0  0  3  0  0  0  0  0  0
  183.6010  174.7610  136.5990 C   0  0  0  0  0  2  0  0  0  0  0  0
  182.5440  175.5630  138.5090 C   0  0  0  0  0  0  0  0  0  0  0  0
  183.2730  179.0610  138.9770 C   0  0  0  0  0  0  0  0  0  0  0  0
  182.3060  180.3960  138.6470 S   0  0  0  0  0  0  0  0  0  0  0  0
  180.2890  180.1640  136.7100 C   0  0  0  0  0  1  0  0  0  0  0  0
  182.8680  178.0010  138.1640 C   0  0  0  0  0  0  0  0  0  0  0  0
  181.4210  179.5770  137.4750 C   0  0  0  0  0  0  0  0  0  0  0  0
  181.8330  178.3000  137.3290 N   0  0  0  0  0  0  0  0  0  0  0  0
  185.1030  178.9650  140.8830 C   0  0  0  0  0  0  0  0  0  0  0  0
  184.2550  179.0160  140.0270 C   0  0  0  0  0  0  0  0  0  0  0  0
  186.1620  178.8990  141.8990 C   0  0  0  0  0  2  0  0  0  0  0  0
  186.3910  178.1190  144.3420 C   0  0  0  0  0  2  0  0  0  0  0  0
  185.7560  178.1590  145.6660 N   0  0  0  0  0  0  0  0  0  0  0  0
  185.5860  178.8130  143.2760 C   0  0  0  0  0  0  0  0  0  0  0  0
  184.4060  178.6060  145.8510 C   0  0  0  0  0  3  0  0  0  0  0  0
  183.7180  179.1180  144.8340 C   0  0  0  0  0  3  0  0  0  0  0  0
  184.3380  179.2370  143.5080 C   0  0  0  0  0  3  0  0  0  0  0  0
  186.4650  177.5620  146.7850 C   0  0  0  0  0  2  0  0  0  0  0  0
  187.9670  177.7640  146.6450 C   0  0  0  0  0  2  0  0  0  0  0  0
  190.0860  176.9950  147.2280 C   0  0  0  0  0  1  0  0  0  0  0  0
  188.6760  176.8820  147.5560 N   0  0  0  0  0  2  0  0  0  0  0  0
  185.4170  177.5850  134.7360 O   0  0  0  0  0  0  0  0  0  0  0  0
  185.4710  176.3750  136.7300 N   0  0  0  0  0  2  0  0  0  0  0  0
  186.1010  177.1430  135.6990 C   0  0  0  0  0  0  0  0  0  0  0  0
  187.5720  177.4690  135.8020 C   0  0  2  0  0  3  0  0  0  0  0  0
  188.3490  177.0900  134.5540 C   0  0  0  0  0  1  0  0  0  0  0  0
  190.3510  177.4160  137.6730 C   0  0  1  0  0  3  0  0  0  0  0  0
  190.4430  176.7210  140.0710 C   0  0  0  0  0  3  0  0  0  0  0  0
  189.1600  177.3820  140.3400 C   0  0  0  0  0  3  0  0  0  0  0  0
  188.9790  178.0580  137.9520 C   0  0  2  0  0  0  0  0  0  0  0  0
  188.4850  178.0060  139.3740 C   0  0  0  0  0  3  0  0  0  0  0  0
  190.9910  176.7330  138.8570 C   0  0  0  0  0  3  0  0  0  0  0  0
  188.3090  177.0010  137.0730 C   0  0  2  0  0  3  0  0  0  0  0  0
  188.9140  179.3560  137.4380 O   0  0  0  0  0  1  0  0  0  0  0  0
  189.6720  176.3770  136.7880 C   0  0  0  0  0  2  0  0  0  0  0  0
  1  6  1  0  0  0  0
  2 10  1  6  0  0  0
  2  6  1  0  0  0  0
  4 27  1  1  0  0  0
  4  2  1  0  0  0  0
  5  4  1  0  0  0  0
  5  1  1  0  0  0  0
  6  3  2  0  0  0  0
  7 14  1  0  0  0  0
  8  7  1  0  0  0  0
  9 11  1  0  0  0  0
 10  7  2  0  0  0  0
 11  8  1  0  0  0  0
 12 11  2  0  0  0  0
 12 10  1  0  0  0  0
 13 15  1  0  0  0  0
 14 13  3  0  0  0  0
 15 18  1  0  0  0  0
 16 17  1  0  0  0  0
 17 19  1  0  0  0  0
 17 22  1  0  0  0  0
 18 21  2  0  0  0  0
 18 16  1  0  0  0  0
 20 19  2  0  0  0  0
 21 20  1  0  0  0  0
 23 22  1  0  0  0  0
 23 25  1  0  0  0  0
 24 25  1  0  0  0  0
 26 28  2  0  0  0  0
 28 29  1  0  0  0  0
 28 27  1  0  0  0  0
 29 30  1  6  0  0  0
 31 39  1  6  0  0  0
 31 34  1  0  0  0  0
 31 36  1  0  0  0  0
 32 33  1  0  0  0  0
 34 38  1  6  0  0  0
 34 35  1  0  0  0  0
 35 33  2  0  0  0  0
 36 32  2  0  0  0  0
 37 29  1  6  0  0  0
 37 34  1  0  0  0  0
 39 37  1  0  0  0  0
M  END
>  <MODEL>
2

>  <REMARK>
 VINA RESULT:      -7.7      0.980      1.446
  Name = 
  10 active torsions:
  status: ('A' for Active; 'I' for Inactive)
    1  A    between atoms: C_2  and  C_34
    2  A    between atoms: C_3  and  C_25
    3  A    between atoms: C_4  and  C_29
    4  A    between atoms: C_4  and  C_30
    5  A    between atoms: C_5  and  C_18
    6  A    between atoms: C_5  and  C_21
    7  A    between atoms: C_8  and  N_14
    8  A    between atoms: N_17  and  C_20
    9  A    between atoms: C_20  and  C_27
   10  A    between atoms: C_27  and  N_33
                            x       y       z     vdW  Elec       q    Type
                         _______ _______ _______ _____ _____    ______ ____

>  <TORSDO>
F 10

$$$$
=
 OpenBabel10232412113D

 39 43  0  0  1  0  0  0  0  0999 V2000
  187.4210  178.9650  136.9370 N   0  0  0  0  0  2  0  0  0  0  0  0
  188.5970  177.0180  137.7650 C   0  0  2  0  0  3  0  0  0  0  0  0
  189.0040  179.2430  138.6370 O   0  0  0  0  0  0  0  0  0  0  0  0
  187.7420  176.6320  136.5530 C   0  0  2  0  0  3  0  0  0  0  0  0
  186.8370  177.8320  136.2430 C   0  0  0  0  0  2  0  0  0  0  0  0
  188.4080  178.4870  137.8260 C   0  0  0  0  0  0  0  0  0  0  0  0
  190.9400  176.4670  138.6290 C   0  0  0  0  0  0  0  0  0  0  0  0
  192.4420  176.0490  138.0010 S   0  0  0  0  0  0  0  0  0  0  0  0
  192.7350  175.8180  135.2200 C   0  0  0  0  0  1  0  0  0  0  0  0
  190.0430  176.6340  137.5720 C   0  0  0  0  0  0  0  0  0  0  0  0
  191.8890  176.0820  136.4140 C   0  0  0  0  0  0  0  0  0  0  0  0
  190.5830  176.4170  136.3390 N   0  0  0  0  0  0  0  0  0  0  0  0
  190.5180  176.9460  141.1940 C   0  0  0  0  0  0  0  0  0  0  0  0
  190.6920  176.7340  140.0190 C   0  0  0  0  0  0  0  0  0  0  0  0
  190.3420  177.1990  142.6310 C   0  0  0  0  0  2  0  0  0  0  0  0
  188.0820  178.3130  142.1020 C   0  0  0  0  0  2  0  0  0  0  0  0
  186.6670  178.3740  142.4910 N   0  0  0  0  0  0  0  0  0  0  0  0
  188.9000  177.3970  142.9720 C   0  0  0  0  0  0  0  0  0  0  0  0
  186.1900  177.8000  143.7160 C   0  0  0  0  0  3  0  0  0  0  0  0
  187.0000  177.0840  144.4890 C   0  0  0  0  0  3  0  0  0  0  0  0
  188.3970  176.8640  144.0930 C   0  0  0  0  0  3  0  0  0  0  0  0
  185.7700  179.1900  141.6920 C   0  0  0  0  0  2  0  0  0  0  0  0
  185.6900  178.6700  140.2640 C   0  0  0  0  0  2  0  0  0  0  0  0
  183.9900  178.7200  138.6740 C   0  0  0  0  0  1  0  0  0  0  0  0
  184.8810  179.5630  139.4530 N   0  0  0  0  0  2  0  0  0  0  0  0
  187.3580  174.4560  134.7560 O   0  0  0  0  0  0  0  0  0  0  0  0
  186.9620  175.4340  136.8380 N   0  0  0  0  0  2  0  0  0  0  0  0
  186.8760  174.3420  135.9160 C   0  0  0  0  0  0  0  0  0  0  0  0
  186.2610  173.0360  136.3590 C   0  0  2  0  0  3  0  0  0  0  0  0
  187.1490  171.8370  136.0730 C   0  0  0  0  0  1  0  0  0  0  0  0
  183.2040  171.8710  137.0830 C   0  0  1  0  0  3  0  0  0  0  0  0
  181.1440  172.3460  135.7510 C   0  0  0  0  0  3  0  0  0  0  0  0
  181.5770  173.7310  135.5270 C   0  0  0  0  0  3  0  0  0  0  0  0
  183.6750  173.3080  136.7940 C   0  0  2  0  0  0  0  0  0  0  0  0
  182.7340  174.1840  136.0100 C   0  0  0  0  0  3  0  0  0  0  0  0
  181.8820  171.4930  136.4600 C   0  0  0  0  0  3  0  0  0  0  0  0
  184.8070  172.7600  135.9250 C   0  0  2  0  0  3  0  0  0  0  0  0
  184.1060  173.9440  137.9630 O   0  0  0  0  0  1  0  0  0  0  0  0
  184.3450  171.3370  136.2250 C   0  0  0  0  0  2  0  0  0  0  0  0
  1  6  1  0  0  0  0
  2 10  1  6  0  0  0
  2  6  1  0  0  0  0
  4 27  1  1  0  0  0
  4  2  1  0  0  0  0
  5  4  1  0  0  0  0
  5  1  1  0  0  0  0
  6  3  2  0  0  0  0
  7 14  1  0  0  0  0
  8  7  1  0  0  0  0
  9 11  1  0  0  0  0
 10  7  2  0  0  0  0
 11  8  1  0  0  0  0
 12 11  2  0  0  0  0
 12 10  1  0  0  0  0
 13 15  1  0  0  0  0
 14 13  3  0  0  0  0
 15 18  1  0  0  0  0
 16 17  1  0  0  0  0
 16 18  1  0  0  0  0
 17 19  1  0  0  0  0
 18 21  2  0  0  0  0
 19 20  2  0  0  0  0
 21 20  1  0  0  0  0
 22 17  1  0  0  0  0
 23 22  1  0  0  0  0
 24 25  1  0  0  0  0
 25 23  1  0  0  0  0
 26 28  2  0  0  0  0
 28 29  1  0  0  0  0
 28 27  1  0  0  0  0
 29 30  1  6  0  0  0
 31 39  1  6  0  0  0
 32 36  2  0  0  0  0
 33 32  1  0  0  0  0
 33 35  2  0  0  0  0
 34 31  1  0  0  0  0
 34 38  1  1  0  0  0
 35 34  1  0  0  0  0
 36 31  1  0  0  0  0
 37 39  1  0  0  0  0
 37 29  1  1  0  0  0
 37 34  1  0  0  0  0
M  END
>  <MODEL>
3

>  <REMARK>
 VINA RESULT:      -7.4      3.339      7.600
  Name = 
  10 active torsions:
  status: ('A' for Active; 'I' for Inactive)
    1  A    between atoms: C_2  and  C_34
    2  A    between atoms: C_3  and  C_25
    3  A    between atoms: C_4  and  C_29
    4  A    between atoms: C_4  and  C_30
    5  A    between atoms: C_5  and  C_18
    6  A    between atoms: C_5  and  C_21
    7  A    between atoms: C_8  and  N_14
    8  A    between atoms: N_17  and  C_20
    9  A    between atoms: C_20  and  C_27
   10  A    between atoms: C_27  and  N_33
                            x       y       z     vdW  Elec       q    Type
                         _______ _______ _______ _____ _____    ______ ____

>  <TORSDO>
F 10

$$$$
=
 OpenBabel10232412113D

 39 43  0  0  1  0  0  0  0  0999 V2000
  180.0310  174.9540  139.3000 N   0  0  0  0  0  2  0  0  0  0  0  0
  181.9330  176.4510  139.2530 C   0  0  2  0  0  3  0  0  0  0  0  0
  180.1600  176.6600  140.8950 O   0  0  0  0  0  0  0  0  0  0  0  0
  181.9680  175.5280  138.0300 C   0  0  2  0  0  3  0  0  0  0  0  0
  180.8990  174.4490  138.2520 C   0  0  0  0  0  2  0  0  0  0  0  0
  180.6430  176.0830  139.8860 C   0  0  0  0  0  0  0  0  0  0  0  0
  182.8130  178.8420  139.4720 C   0  0  0  0  0  0  0  0  0  0  0  0
  182.5690  180.3400  138.7510 S   0  0  0  0  0  0  0  0  0  0  0  0
  180.7000  180.5540  136.6680 C   0  0  0  0  0  1  0  0  0  0  0  0
  181.9810  177.9050  138.8560 C   0  0  0  0  0  0  0  0  0  0  0  0
  181.4260  179.7350  137.6750 C   0  0  0  0  0  0  0  0  0  0  0  0
  181.2110  178.4150  137.8530 N   0  0  0  0  0  0  0  0  0  0  0  0
  184.3780  178.4430  141.5660 C   0  0  0  0  0  0  0  0  0  0  0  0
  183.6480  178.6260  140.6230 C   0  0  0  0  0  0  0  0  0  0  0  0
  185.2970  178.2240  142.6910 C   0  0  0  0  0  2  0  0  0  0  0  0
  187.6040  177.1520  143.0840 C   0  0  0  0  0  2  0  0  0  0  0  0
  188.9200  176.9080  142.4790 N   0  0  0  0  0  0  0  0  0  0  0  0
  186.6890  177.9690  142.2110 C   0  0  0  0  0  0  0  0  0  0  0  0
  189.3470  177.5860  141.2890 C   0  0  0  0  0  3  0  0  0  0  0  0
  188.5110  178.3760  140.6230 C   0  0  0  0  0  3  0  0  0  0  0  0
  187.1320  178.5590  141.0950 C   0  0  0  0  0  3  0  0  0  0  0  0
  189.8710  176.0890  143.2100 C   0  0  0  0  0  2  0  0  0  0  0  0
  191.2630  176.7030  143.1640 C   0  0  0  0  0  2  0  0  0  0  0  0
  191.5130  176.6680  145.4790 C   0  0  0  0  0  1  0  0  0  0  0  0
  191.4720  177.5500  144.3260 N   0  0  0  0  0  2  0  0  0  0  0  0
  183.6080  175.7870  135.7170 O   0  0  0  0  0  0  0  0  0  0  0  0
  183.2930  174.9420  137.8690 N   0  0  0  0  0  2  0  0  0  0  0  0
  184.0970  175.1790  136.7080 C   0  0  0  0  0  0  0  0  0  0  0  0
  185.5450  174.7520  136.7010 C   0  0  2  0  0  3  0  0  0  0  0  0
  185.7820  173.4580  137.4620 C   0  0  0  0  0  1  0  0  0  0  0  0
  188.5530  176.1450  136.2120 C   0  0  1  0  0  3  0  0  0  0  0  0
  189.2500  178.3780  137.0880 C   0  0  0  0  0  3  0  0  0  0  0  0
  187.9180  178.9320  136.8130 C   0  0  0  0  0  3  0  0  0  0  0  0
  187.1430  176.7200  135.9790 C   0  0  2  0  0  0  0  0  0  0  0  0
  186.9470  178.1790  136.2950 C   0  0  0  0  0  3  0  0  0  0  0  0
  189.5450  177.1080  136.8170 C   0  0  0  0  0  3  0  0  0  0  0  0
  186.5940  175.8160  137.0830 C   0  0  2  0  0  3  0  0  0  0  0  0
  186.6750  176.4100  134.6980 O   0  0  0  0  0  1  0  0  0  0  0  0
  187.9900  175.2390  137.3000 C   0  0  0  0  0  2  0  0  0  0  0  0
  1  6  1  0  0  0  0
  2 10  1  6  0  0  0
  2  6  1  0  0  0  0
  4 27  1  1  0  0  0
  4  5  1  0  0  0  0
  4  2  1  0  0  0  0
  5  1  1  0  0  0  0
  6  3  2  0  0  0  0
  7 14  1  0  0  0  0
  8  7  1  0  0  0  0
  9 11  1  0  0  0  0
 10  7  2  0  0  0  0
 11 12  2  0  0  0  0
 11  8  1  0  0  0  0
 12 10  1  0  0  0  0
 13 15  1  0  0  0  0
 14 13  3  0  0  0  0
 17 16  1  0  0  0  0
 17 22  1  0  0  0  0
 18 15  1  0  0  0  0
 18 16  1  0  0  0  0
 19 17  1  0  0  0  0
 20 21  1  0  0  0  0
 20 19  2  0  0  0  0
 21 18  2  0  0  0  0
 23 22  1  0  0  0  0
 23 25  1  0  0  0  0
 25 24  1  0  0  0  0
 26 28  2  0  0  0  0
 28 27  1  0  0  0  0
 29 28  1  0  0  0  0
 29 30  1  1  0  0  0
 31 36  1  1  0  0  0
 31 39  1  0  0  0  0
 33 32  1  0  0  0  0
 34 38  1  6  0  0  0
 34 31  1  0  0  0  0
 34 35  1  0  0  0  0
 34 37  1  0  0  0  0
 35 33  2  0  0  0  0
 36 32  2  0  0  0  0
 37 29  1  6  0  0  0
 37 39  1  0  0  0  0
M  END
>  <MODEL>
4

>  <REMARK>
 VINA RESULT:      -7.2      2.111      3.030
  Name = 
  10 active torsions:
  status: ('A' for Active; 'I' for Inactive)
    1  A    between atoms: C_2  and  C_34
    2  A    between atoms: C_3  and  C_25
    3  A    between atoms: C_4  and  C_29
    4  A    between atoms: C_4  and  C_30
    5  A    between atoms: C_5  and  C_18
    6  A    between atoms: C_5  and  C_21
    7  A    between atoms: C_8  and  N_14
    8  A    between atoms: N_17  and  C_20
    9  A    between atoms: C_20  and  C_27
   10  A    between atoms: C_27  and  N_33
                            x       y       z     vdW  Elec       q    Type
                         _______ _______ _______ _____ _____    ______ ____

>  <TORSDO>
F 10

$$$$
=
 OpenBabel10232412113D

 39 43  0  0  1  0  0  0  0  0999 V2000
  187.4540  178.9680  137.1020 N   0  0  0  0  0  2  0  0  0  0  0  0
  188.6760  176.9930  137.7870 C   0  0  2  0  0  3  0  0  0  0  0  0
  189.0500  179.1640  138.8030 O   0  0  0  0  0  0  0  0  0  0  0  0
  187.8160  176.6730  136.5610 C   0  0  2  0  0  3  0  0  0  0  0  0
  186.8840  177.8720  136.3400 C   0  0  0  0  0  2  0  0  0  0  0  0
  188.4600  178.4510  137.9490 C   0  0  0  0  0  0  0  0  0  0  0  0
  191.0540  176.5030  138.5890 C   0  0  0  0  0  0  0  0  0  0  0  0
  192.5510  176.1310  137.9220 S   0  0  0  0  0  0  0  0  0  0  0  0
  192.7810  175.9270  135.1320 C   0  0  0  0  0  1  0  0  0  0  0  0
  190.1260  176.6510  137.5560 C   0  0  0  0  0  0  0  0  0  0  0  0
  191.9570  176.1600  136.3480 C   0  0  0  0  0  0  0  0  0  0  0  0
  190.6420  176.4580  136.3090 N   0  0  0  0  0  0  0  0  0  0  0  0
  190.6610  176.9300  141.1680 C   0  0  0  0  0  0  0  0  0  0  0  0
  190.8330  176.7540  139.9870 C   0  0  0  0  0  0  0  0  0  0  0  0
  190.4720  177.1150  142.6140 C   0  0  0  0  0  2  0  0  0  0  0  0
  188.5590  177.2110  144.3350 C   0  0  0  0  0  2  0  0  0  0  0  0
  187.1740  177.6500  144.5480 N   0  0  0  0  0  0  0  0  0  0  0  0
  189.0520  177.4580  142.9330 C   0  0  0  0  0  0  0  0  0  0  0  0
  186.3260  178.0480  143.4630 C   0  0  0  0  0  3  0  0  0  0  0  0
  186.8090  178.1480  142.2280 C   0  0  0  0  0  3  0  0  0  0  0  0
  188.2230  177.8570  141.9610 C   0  0  0  0  0  3  0  0  0  0  0  0
  186.6060  177.5060  145.8770 C   0  0  0  0  0  2  0  0  0  0  0  0
  185.8990  178.7830  146.3060 C   0  0  0  0  0  2  0  0  0  0  0  0
  183.7290  178.7900  145.4630 C   0  0  0  0  0  1  0  0  0  0  0  0
  184.5160  178.4970  146.6480 N   0  0  0  0  0  2  0  0  0  0  0  0
  188.0360  174.3170  134.9760 O   0  0  0  0  0  0  0  0  0  0  0  0
  187.0610  175.4430  136.7720 N   0  0  0  0  0  2  0  0  0  0  0  0
  187.2800  174.2680  135.9850 C   0  0  0  0  0  0  0  0  0  0  0  0
  186.6500  172.9600  136.4020 C   0  0  2  0  0  3  0  0  0  0  0  0
  187.5410  171.7610  136.1250 C   0  0  0  0  0  1  0  0  0  0  0  0
  183.6310  171.6210  136.9670 C   0  0  1  0  0  3  0  0  0  0  0  0
  181.5580  172.1890  135.6940 C   0  0  0  0  0  3  0  0  0  0  0  0
  181.9460  173.6040  135.6410 C   0  0  0  0  0  3  0  0  0  0  0  0
  184.0570  173.0970  136.8560 C   0  0  2  0  0  0  0  0  0  0  0  0
  183.0890  174.0310  136.1800 C   0  0  0  0  0  3  0  0  0  0  0  0
  182.3220  171.2800  136.2970 C   0  0  0  0  0  3  0  0  0  0  0  0
  185.2060  172.6930  135.9310 C   0  0  2  0  0  3  0  0  0  0  0  0
  184.4680  173.5990  138.0950 O   0  0  0  0  0  1  0  0  0  0  0  0
  184.7890  171.2310  136.0550 C   0  0  0  0  0  2  0  0  0  0  0  0
  1  6  1  0  0  0  0
  2 10  1  6  0  0  0
  2  6  1  0  0  0  0
  4 27  1  1  0  0  0
  4  2  1  0  0  0  0
  5  4  1  0  0  0  0
  5  1  1  0  0  0  0
  6  3  2  0  0  0  0
  7 14  1  0  0  0  0
  8  7  1  0  0  0  0
  9 11  1  0  0  0  0
 10  7  2  0  0  0  0
 11  8  1  0  0  0  0
 12 11  2  0  0  0  0
 12 10  1  0  0  0  0
 13 15  1  0  0  0  0
 14 13  3  0  0  0  0
 15 18  1  0  0  0  0
 16 17  1  0  0  0  0
 17 22  1  0  0  0  0
 18 16  1  0  0  0  0
 19 17  1  0  0  0  0
 20 19  2  0  0  0  0
 21 20  1  0  0  0  0
 21 18  2  0  0  0  0
 22 23  1  0  0  0  0
 23 25  1  0  0  0  0
 24 25  1  0  0  0  0
 26 28  2  0  0  0  0
 28 29  1  0  0  0  0
 28 27  1  0  0  0  0
 29 30  1  6  0  0  0
 31 39  1  6  0  0  0
 32 36  2  0  0  0  0
 33 32  1  0  0  0  0
 33 35  2  0  0  0  0
 34 31  1  0  0  0  0
 34 38  1  1  0  0  0
 35 34  1  0  0  0  0
 36 31  1  0  0  0  0
 37 39  1  0  0  0  0
 37 29  1  1  0  0  0
 37 34  1  0  0  0  0
M  END
>  <MODEL>
5

>  <REMARK>
 VINA RESULT:      -7.1      3.672      7.185
  Name = 
  10 active torsions:
  status: ('A' for Active; 'I' for Inactive)
    1  A    between atoms: C_2  and  C_34
    2  A    between atoms: C_3  and  C_25
    3  A    between atoms: C_4  and  C_29
    4  A    between atoms: C_4  and  C_30
    5  A    between atoms: C_5  and  C_18
    6  A    between atoms: C_5  and  C_21
    7  A    between atoms: C_8  and  N_14
    8  A    between atoms: N_17  and  C_20
    9  A    between atoms: C_20  and  C_27
   10  A    between atoms: C_27  and  N_33
                            x       y       z     vdW  Elec       q    Type
                         _______ _______ _______ _____ _____    ______ ____

>  <TORSDO>
F 10

$$$$
=
 OpenBabel10232412113D

 39 43  0  0  1  0  0  0  0  0999 V2000
  188.1560  178.3930  135.3490 N   0  0  0  0  0  2  0  0  0  0  0  0
  188.5610  177.1240  137.3700 C   0  0  2  0  0  3  0  0  0  0  0  0
  188.5530  179.5490  137.3440 O   0  0  0  0  0  0  0  0  0  0  0  0
  188.4950  176.1770  136.1670 C   0  0  2  0  0  3  0  0  0  0  0  0
  187.9850  177.0000  134.9770 C   0  0  0  0  0  2  0  0  0  0  0  0
  188.4580  178.4550  136.7270 C   0  0  0  0  0  0  0  0  0  0  0  0
  189.9400  177.1190  139.5240 C   0  0  0  0  0  0  0  0  0  0  0  0
  191.5330  176.8570  139.9940 S   0  0  0  0  0  0  0  0  0  0  0  0
  193.4380  176.2190  138.0340 C   0  0  0  0  0  1  0  0  0  0  0  0
  189.8470  176.9580  138.1400 C   0  0  0  0  0  0  0  0  0  0  0  0
  192.0370  176.5340  138.4220 C   0  0  0  0  0  0  0  0  0  0  0  0
  191.0250  176.6310  137.5350 N   0  0  0  0  0  0  0  0  0  0  0  0
  188.0200  177.9110  141.1600 C   0  0  0  0  0  0  0  0  0  0  0  0
  188.9010  177.5690  140.4100 C   0  0  0  0  0  0  0  0  0  0  0  0
  186.9450  178.2930  142.0860 C   0  0  0  0  0  2  0  0  0  0  0  0
  188.7610  177.6320  143.7870 C   0  0  0  0  0  2  0  0  0  0  0  0
  189.0500  177.4850  145.2190 N   0  0  0  0  0  0  0  0  0  0  0  0
  187.3400  178.0440  143.5060 C   0  0  0  0  0  0  0  0  0  0  0  0
  188.0140  177.5030  146.2110 C   0  0  0  0  0  3  0  0  0  0  0  0
  186.7580  177.7750  145.8710 C   0  0  0  0  0  3  0  0  0  0  0  0
  186.4170  178.0700  144.4740 C   0  0  0  0  0  3  0  0  0  0  0  0
  190.4040  177.1380  145.6140 C   0  0  0  0  0  2  0  0  0  0  0  0
  190.4520  176.7140  147.0750 C   0  0  0  0  0  2  0  0  0  0  0  0
  192.3530  175.5990  147.8250 C   0  0  0  0  0  1  0  0  0  0  0  0
  191.7870  176.9190  147.6100 N   0  0  0  0  0  2  0  0  0  0  0  0
  188.3320  173.7920  134.6200 O   0  0  0  0  0  0  0  0  0  0  0  0
  187.6170  175.0490  136.4510 N   0  0  0  0  0  2  0  0  0  0  0  0
  187.6440  173.8460  135.6760 C   0  0  0  0  0  0  0  0  0  0  0  0
  186.8940  172.6270  136.1590 C   0  0  2  0  0  3  0  0  0  0  0  0
  187.6230  171.3290  135.8610 C   0  0  0  0  0  1  0  0  0  0  0  0
  183.8310  171.4230  136.7890 C   0  0  1  0  0  3  0  0  0  0  0  0
  181.7200  172.2940  135.7770 C   0  0  0  0  0  3  0  0  0  0  0  0
  182.2090  173.6740  135.8770 C   0  0  0  0  0  3  0  0  0  0  0  0
  184.3580  172.8690  136.8390 C   0  0  2  0  0  0  0  0  0  0  0  0
  183.4170  173.9480  136.3720 C   0  0  0  0  0  3  0  0  0  0  0  0
  182.4550  171.2620  136.1900 C   0  0  0  0  0  3  0  0  0  0  0  0
  185.4030  172.5220  135.7780 C   0  0  2  0  0  3  0  0  0  0  0  0
  184.8940  173.1700  138.0940 O   0  0  0  0  0  1  0  0  0  0  0  0
  184.8870  171.0860  135.7420 C   0  0  0  0  0  2  0  0  0  0  0  0
  1  6  1  0  0  0  0
  2 10  1  6  0  0  0
  4 27  1  1  0  0  0
  4  2  1  0  0  0  0
  5  1  1  0  0  0  0
  5  4  1  0  0  0  0
  6  3  2  0  0  0  0
  6  2  1  0  0  0  0
  7  8  1  0  0  0  0
  7 14  1  0  0  0  0
  9 11  1  0  0  0  0
 10  7  2  0  0  0  0
 11  8  1  0  0  0  0
 12 10  1  0  0  0  0
 12 11  2  0  0  0  0
 13 15  1  0  0  0  0
 14 13  3  0  0  0  0
 15 18  1  0  0  0  0
 16 17  1  0  0  0  0
 17 22  1  0  0  0  0
 17 19  1  0  0  0  0
 18 16  1  0  0  0  0
 18 21  2  0  0  0  0
 20 19  2  0  0  0  0
 21 20  1  0  0  0  0
 22 23  1  0  0  0  0
 23 25  1  0  0  0  0
 25 24  1  0  0  0  0
 26 28  2  0  0  0  0
 28 29  1  0  0  0  0
 28 27  1  0  0  0  0
 29 30  1  6  0  0  0
 31 39  1  6  0  0  0
 31 34  1  0  0  0  0
 32 33  1  0  0  0  0
 32 36  2  0  0  0  0
 33 35  2  0  0  0  0
 34 38  1  1  0  0  0
 35 34  1  0  0  0  0
 36 31  1  0  0  0  0
 37 29  1  1  0  0  0
 37 34  1  0  0  0  0
 39 37  1  0  0  0  0
M  END
>  <MODEL>
6

>  <REMARK>
 VINA RESULT:      -7.1      3.776      6.965
  Name = 
  10 active torsions:
  status: ('A' for Active; 'I' for Inactive)
    1  A    between atoms: C_2  and  C_34
    2  A    between atoms: C_3  and  C_25
    3  A    between atoms: C_4  and  C_29
    4  A    between atoms: C_4  and  C_30
    5  A    between atoms: C_5  and  C_18
    6  A    between atoms: C_5  and  C_21
    7  A    between atoms: C_8  and  N_14
    8  A    between atoms: N_17  and  C_20
    9  A    between atoms: C_20  and  C_27
   10  A    between atoms: C_27  and  N_33
                            x       y       z     vdW  Elec       q    Type
                         _______ _______ _______ _____ _____    ______ ____

>  <TORSDO>
F 10

$$$$
=
 OpenBabel10232412113D

 39 43  0  0  1  0  0  0  0  0999 V2000
  180.3230  179.1050  137.0490 N   0  0  0  0  0  2  0  0  0  0  0  0
  182.4690  178.0760  137.4900 C   0  0  2  0  0  3  0  0  0  0  0  0
  181.6350  178.4160  135.2390 O   0  0  0  0  0  0  0  0  0  0  0  0
  181.7170  178.2910  138.8070 C   0  0  2  0  0  3  0  0  0  0  0  0
  180.4990  179.1690  138.4890 C   0  0  0  0  0  2  0  0  0  0  0  0
  181.4680  178.5030  136.4840 C   0  0  0  0  0  0  0  0  0  0  0  0
  184.2110  176.2280  137.1910 C   0  0  0  0  0  0  0  0  0  0  0  0
  184.2490  174.5580  137.0050 S   0  0  0  0  0  0  0  0  0  0  0  0
  181.8280  173.1390  136.9830 C   0  0  0  0  0  1  0  0  0  0  0  0
  182.8820  176.6360  137.3130 C   0  0  0  0  0  0  0  0  0  0  0  0
  182.5760  174.4190  137.1000 C   0  0  0  0  0  0  0  0  0  0  0  0
  181.9770  175.6180  137.2610 N   0  0  0  0  0  0  0  0  0  0  0  0
  186.3560  177.7670  137.0430 C   0  0  0  0  0  0  0  0  0  0  0  0
  185.3680  177.0770  137.0970 C   0  0  0  0  0  0  0  0  0  0  0  0
  187.5780  178.5810  136.9940 C   0  0  0  0  0  2  0  0  0  0  0  0
  188.6630  178.2040  139.2990 C   0  0  0  0  0  2  0  0  0  0  0  0
  189.7390  177.4950  140.0030 N   0  0  0  0  0  0  0  0  0  0  0  0
  188.6690  177.9670  137.8120 C   0  0  0  0  0  0  0  0  0  0  0  0
  190.8100  176.8480  139.3030 C   0  0  0  0  0  3  0  0  0  0  0  0
  190.7990  176.7660  137.9760 C   0  0  0  0  0  3  0  0  0  0  0  0
  189.6820  177.3320  137.2100 C   0  0  0  0  0  3  0  0  0  0  0  0
  189.8040  177.6100  141.4500 C   0  0  0  0  0  2  0  0  0  0  0  0
  191.2090  177.3160  141.9550 C   0  0  0  0  0  2  0  0  0  0  0  0
  189.7560  176.1110  143.3170 C   0  0  0  0  0  1  0  0  0  0  0  0
  191.1470  176.4940  143.1500 N   0  0  0  0  0  2  0  0  0  0  0  0
  183.1650  176.9130  140.8350 O   0  0  0  0  0  0  0  0  0  0  0  0
  182.5840  178.9200  139.7960 N   0  0  0  0  0  2  0  0  0  0  0  0
  183.3460  178.1580  140.7380 C   0  0  0  0  0  0  0  0  0  0  0  0
  184.4050  178.8410  141.5700 C   0  0  2  0  0  3  0  0  0  0  0  0
  185.6610  179.1630  140.7790 C   0  0  0  0  0  1  0  0  0  0  0  0
  186.4600  178.6060  144.2070 C   0  0  1  0  0  3  0  0  0  0  0  0
  185.8800  177.5050  146.3730 C   0  0  0  0  0  3  0  0  0  0  0  0
  184.5140  178.0400  146.3100 C   0  0  0  0  0  3  0  0  0  0  0  0
  185.0090  179.1150  144.1220 C   0  0  2  0  0  0  0  0  0  0  0  0
  184.1080  178.7880  145.2840 C   0  0  0  0  0  3  0  0  0  0  0  0
  186.7720  177.7590  145.4170 C   0  0  0  0  0  3  0  0  0  0  0  0
  184.7590  178.1960  142.9260 C   0  0  2  0  0  3  0  0  0  0  0  0
  184.9680  180.4780  143.8150 O   0  0  0  0  0  1  0  0  0  0  0  0
  186.2020  177.7050  143.0050 C   0  0  0  0  0  2  0  0  0  0  0  0
  1  5  1  0  0  0  0
  2 10  1  6  0  0  0
  2  4  1  0  0  0  0
  3  6  2  0  0  0  0
  4 27  1  1  0  0  0
  5  4  1  0  0  0  0
  6  1  1  0  0  0  0
  6  2  1  0  0  0  0
  7 10  2  0  0  0  0
  8 11  1  0  0  0  0
  8  7  1  0  0  0  0
  9 11  1  0  0  0  0
 11 12  2  0  0  0  0
 12 10  1  0  0  0  0
 13 14  3  0  0  0  0
 14  7  1  0  0  0  0
 15 13  1  0  0  0  0
 15 18  1  0  0  0  0
 16 17  1  0  0  0  0
 17 22  1  0  0  0  0
 18 16  1  0  0  0  0
 19 17  1  0  0  0  0
 20 19  2  0  0  0  0
 21 18  2  0  0  0  0
 21 20  1  0  0  0  0
 22 23  1  0  0  0  0
 23 25  1  0  0  0  0
 25 24  1  0  0  0  0
 27 28  1  0  0  0  0
 28 26  2  0  0  0  0
 28 29  1  0  0  0  0
 29 30  1  6  0  0  0
 31 39  1  6  0  0  0
 31 36  1  0  0  0  0
 33 32  1  0  0  0  0
 34 38  1  6  0  0  0
 34 31  1  0  0  0  0
 34 35  1  0  0  0  0
 35 33  2  0  0  0  0
 36 32  2  0  0  0  0
 37 29  1  6  0  0  0
 37 39  1  0  0  0  0
 37 34  1  0  0  0  0
M  END
>  <MODEL>
7

>  <REMARK>
 VINA RESULT:      -7.1      2.539      6.080
  Name = 
  10 active torsions:
  status: ('A' for Active; 'I' for Inactive)
    1  A    between atoms: C_2  and  C_34
    2  A    between atoms: C_3  and  C_25
    3  A    between atoms: C_4  and  C_29
    4  A    between atoms: C_4  and  C_30
    5  A    between atoms: C_5  and  C_18
    6  A    between atoms: C_5  and  C_21
    7  A    between atoms: C_8  and  N_14
    8  A    between atoms: N_17  and  C_20
    9  A    between atoms: C_20  and  C_27
   10  A    between atoms: C_27  and  N_33
                            x       y       z     vdW  Elec       q    Type
                         _______ _______ _______ _____ _____    ______ ____

>  <TORSDO>
F 10

$$$$
=
 OpenBabel10232412113D

 39 43  0  0  1  0  0  0  0  0999 V2000
  191.2820  174.8310  137.5040 N   0  0  0  0  0  2  0  0  0  0  0  0
  189.4700  176.1970  138.3470 C   0  0  2  0  0  3  0  0  0  0  0  0
  189.0980  173.9980  137.3950 O   0  0  0  0  0  0  0  0  0  0  0  0
  190.7760  176.9990  138.3620 C   0  0  2  0  0  3  0  0  0  0  0  0
  191.9120  176.0100  138.0680 C   0  0  0  0  0  2  0  0  0  0  0  0
  189.8860  174.9340  137.6920 C   0  0  0  0  0  0  0  0  0  0  0  0
  187.4920  177.8070  138.1630 C   0  0  0  0  0  0  0  0  0  0  0  0
  186.4450  178.3780  136.9790 S   0  0  0  0  0  0  0  0  0  0  0  0
  186.7390  177.4530  134.3460 C   0  0  0  0  0  1  0  0  0  0  0  0
  188.3870  176.9100  137.5770 C   0  0  0  0  0  0  0  0  0  0  0  0
  187.1800  177.4740  135.7660 C   0  0  0  0  0  0  0  0  0  0  0  0
  188.2040  176.7320  136.2380 N   0  0  0  0  0  0  0  0  0  0  0  0
  187.2440  178.3330  140.7420 C   0  0  0  0  0  0  0  0  0  0  0  0
  187.3690  178.1090  139.5630 C   0  0  0  0  0  0  0  0  0  0  0  0
  187.0760  178.5720  142.1820 C   0  0  0  0  0  2  0  0  0  0  0  0
  184.6080  178.6450  141.4510 C   0  0  0  0  0  2  0  0  0  0  0  0
  183.2240  178.6200  141.9400 N   0  0  0  0  0  0  0  0  0  0  0  0
  185.6300  178.6190  142.5580 C   0  0  0  0  0  0  0  0  0  0  0  0
  182.9020  178.7930  143.3260 C   0  0  0  0  0  3  0  0  0  0  0  0
  183.8650  178.8640  144.2400 C   0  0  0  0  0  3  0  0  0  0  0  0
  185.2740  178.7580  143.8400 C   0  0  0  0  0  3  0  0  0  0  0  0
  182.1510  178.5930  140.9600 C   0  0  0  0  0  2  0  0  0  0  0  0
  182.7090  178.4810  139.5490 C   0  0  0  0  0  2  0  0  0  0  0  0
  182.4220  176.1710  139.5810 C   0  0  0  0  0  1  0  0  0  0  0  0
  182.0760  177.3760  138.8490 N   0  0  0  0  0  2  0  0  0  0  0  0
  190.1920  175.8330  140.8940 O   0  0  0  0  0  0  0  0  0  0  0  0
  190.9590  177.6540  139.6520 N   0  0  0  0  0  2  0  0  0  0  0  0
  190.7190  176.9790  140.8920 C   0  0  0  0  0  0  0  0  0  0  0  0
  191.1550  177.6200  142.1880 C   0  0  2  0  0  3  0  0  0  0  0  0
  192.6640  177.7250  142.3170 C   0  0  0  0  0  1  0  0  0  0  0  0
  191.2470  177.2930  145.5220 C   0  0  1  0  0  3  0  0  0  0  0  0
  189.3200  176.5710  146.9380 C   0  0  0  0  0  3  0  0  0  0  0  0
  188.3870  177.3460  146.1100 C   0  0  0  0  0  3  0  0  0  0  0  0
  190.2530  178.0570  144.6270 C   0  0  2  0  0  0  0  0  0  0  0  0
  188.8080  178.0390  145.0520 C   0  0  0  0  0  3  0  0  0  0  0  0
  190.6250  176.5430  146.6740 C   0  0  0  0  0  3  0  0  0  0  0  0
  190.5280  177.0740  143.4870 C   0  0  2  0  0  3  0  0  0  0  0  0
  190.6940  179.3600  144.3780 O   0  0  0  0  0  1  0  0  0  0  0  0
  191.5230  176.3290  144.3730 C   0  0  0  0  0  2  0  0  0  0  0  0
  1  6  1  0  0  0  0
  1  5  1  0  0  0  0
  2 10  1  6  0  0  0
  2  4  1  0  0  0  0
  3  6  2  0  0  0  0
  4 27  1  1  0  0  0
  5  4  1  0  0  0  0
  6  2  1  0  0  0  0
  7 14  1  0  0  0  0
  8  7  1  0  0  0  0
  9 11  1  0  0  0  0
 10  7  2  0  0  0  0
 11 12  2  0  0  0  0
 11  8  1  0  0  0  0
 12 10  1  0  0  0  0
 13 15  1  0  0  0  0
 14 13  3  0  0  0  0
 15 18  1  0  0  0  0
 16 17  1  0  0  0  0
 16 18  1  0  0  0  0
 17 19  1  0  0  0  0
 18 21  2  0  0  0  0
 19 20  2  0  0  0  0
 21 20  1  0  0  0  0
 22 17  1  0  0  0  0
 23 22  1  0  0  0  0
 25 23  1  0  0  0  0
 25 24  1  0  0  0  0
 27 28  1  0  0  0  0
 28 26  2  0  0  0  0
 28 29  1  0  0  0  0
 29 30  1  1  0  0  0
 31 39  1  6  0  0  0
 31 36  1  0  0  0  0
 33 32  1  0  0  0  0
 34 38  1  6  0  0  0
 34 35  1  0  0  0  0
 34 31  1  0  0  0  0
 35 33  2  0  0  0  0
 36 32  2  0  0  0  0
 37 29  1  6  0  0  0
 37 39  1  0  0  0  0
 37 34  1  0  0  0  0
M  END
>  <MODEL>
8

>  <REMARK>
 VINA RESULT:      -6.8      3.014      6.865
  Name = 
  10 active torsions:
  status: ('A' for Active; 'I' for Inactive)
    1  A    between atoms: C_2  and  C_34
    2  A    between atoms: C_3  and  C_25
    3  A    between atoms: C_4  and  C_29
    4  A    between atoms: C_4  and  C_30
    5  A    between atoms: C_5  and  C_18
    6  A    between atoms: C_5  and  C_21
    7  A    between atoms: C_8  and  N_14
    8  A    between atoms: N_17  and  C_20
    9  A    between atoms: C_20  and  C_27
   10  A    between atoms: C_27  and  N_33
                            x       y       z     vdW  Elec       q    Type
                         _______ _______ _______ _____ _____    ______ ____

>  <TORSDO>
F 10

$$$$
=
 OpenBabel10232412113D

 39 43  0  0  1  0  0  0  0  0999 V2000
  187.4570  178.1890  136.6120 N   0  0  0  0  0  2  0  0  0  0  0  0
  189.5790  177.5580  137.5940 C   0  0  2  0  0  3  0  0  0  0  0  0
  189.3530  178.1130  135.2440 O   0  0  0  0  0  0  0  0  0  0  0  0
  188.4570  177.3790  138.6220 C   0  0  2  0  0  3  0  0  0  0  0  0
  187.2000  178.0320  138.0320 C   0  0  0  0  0  2  0  0  0  0  0  0
  188.8270  177.9430  136.3750 C   0  0  0  0  0  0  0  0  0  0  0  0
  189.7820  175.0600  137.0870 C   0  0  0  0  0  0  0  0  0  0  0  0
  190.9910  173.8990  136.9660 S   0  0  0  0  0  0  0  0  0  0  0  0
  193.6560  174.6640  137.3990 C   0  0  0  0  0  1  0  0  0  0  0  0
  190.3680  176.2870  137.4020 C   0  0  0  0  0  0  0  0  0  0  0  0
  192.2120  175.0050  137.3050 C   0  0  0  0  0  0  0  0  0  0  0  0
  191.7250  176.2450  137.5210 N   0  0  0  0  0  0  0  0  0  0  0  0
  187.2020  174.5070  136.9150 C   0  0  0  0  0  0  0  0  0  0  0  0
  188.3760  174.7720  137.0090 C   0  0  0  0  0  0  0  0  0  0  0  0
  185.7820  174.1550  136.7780 C   0  0  0  0  0  2  0  0  0  0  0  0
  184.2700  175.9170  137.8920 C   0  0  0  0  0  2  0  0  0  0  0  0
  183.5210  177.1580  137.6580 N   0  0  0  0  0  0  0  0  0  0  0  0
  184.9330  175.3790  136.6510 C   0  0  0  0  0  0  0  0  0  0  0  0
  183.2640  177.6550  136.3380 C   0  0  0  0  0  3  0  0  0  0  0  0
  183.8040  177.0640  135.2760 C   0  0  0  0  0  3  0  0  0  0  0  0
  184.6790  175.8970  135.4440 C   0  0  0  0  0  3  0  0  0  0  0  0
  182.8790  177.7960  138.7940 C   0  0  0  0  0  2  0  0  0  0  0  0
  183.1720  179.2900  138.8150 C   0  0  0  0  0  2  0  0  0  0  0  0
  184.4950  178.9290  140.6960 C   0  0  0  0  0  1  0  0  0  0  0  0
  184.4910  179.5310  139.3740 N   0  0  0  0  0  2  0  0  0  0  0  0
  189.9950  176.1170  140.6590 O   0  0  0  0  0  0  0  0  0  0  0  0
  188.8270  177.9870  139.8950 N   0  0  0  0  0  2  0  0  0  0  0  0
  189.6710  177.3220  140.8410 C   0  0  0  0  0  0  0  0  0  0  0  0
  190.2170  178.0880  142.0230 C   0  0  2  0  0  3  0  0  0  0  0  0
  191.6100  177.6360  142.4260 C   0  0  0  0  0  1  0  0  0  0  0  0
  187.6820  176.9220  143.8780 C   0  0  1  0  0  3  0  0  0  0  0  0
  187.1880  177.6290  146.2230 C   0  0  0  0  0  3  0  0  0  0  0  0
  188.6210  177.6750  146.5390 C   0  0  0  0  0  3  0  0  0  0  0  0
  189.1840  177.0280  144.2040 C   0  0  2  0  0  0  0  0  0  0  0  0
  189.5440  177.3920  145.6200 C   0  0  0  0  0  3  0  0  0  0  0  0
  186.7530  177.2870  145.0100 C   0  0  0  0  0  3  0  0  0  0  0  0
  189.3030  178.2230  143.2570 C   0  0  2  0  0  3  0  0  0  0  0  0
  189.8750  175.8890  143.7800 O   0  0  0  0  0  1  0  0  0  0  0  0
  187.8180  178.1050  142.9260 C   0  0  0  0  0  2  0  0  0  0  0  0
  1  5  1  0  0  0  0
  2 10  1  6  0  0  0
  2  4  1  0  0  0  0
  3  6  2  0  0  0  0
  4 27  1  1  0  0  0
  5  4  1  0  0  0  0
  6  1  1  0  0  0  0
  6  2  1  0  0  0  0
  7 10  2  0  0  0  0
  8  7  1  0  0  0  0
  8 11  1  0  0  0  0
 10 12  1  0  0  0  0
 11  9  1  0  0  0  0
 11 12  2  0  0  0  0
 13 14  3  0  0  0  0
 14  7  1  0  0  0  0
 15 13  1  0  0  0  0
 17 16  1  0  0  0  0
 17 22  1  0  0  0  0
 18 15  1  0  0  0  0
 18 16  1  0  0  0  0
 19 17  1  0  0  0  0
 20 21  1  0  0  0  0
 20 19  2  0  0  0  0
 21 18  2  0  0  0  0
 22 23  1  0  0  0  0
 23 25  1  0  0  0  0
 25 24  1  0  0  0  0
 26 28  2  0  0  0  0
 27 28  1  0  0  0  0
 28 29  1  0  0  0  0
 29 30  1  1  0  0  0
 31 39  1  6  0  0  0
 31 34  1  0  0  0  0
 31 36  1  0  0  0  0
 32 33  1  0  0  0  0
 34 38  1  6  0  0  0
 34 35  1  0  0  0  0
 35 33  2  0  0  0  0
 36 32  2  0  0  0  0
 37 29  1  6  0  0  0
 37 34  1  0  0  0  0
 39 37  1  0  0  0  0
M  END
>  <MODEL>
9

>  <REMARK>
 VINA RESULT:      -6.8      3.429      8.124
  Name = 
  10 active torsions:
  status: ('A' for Active; 'I' for Inactive)
    1  A    between atoms: C_2  and  C_34
    2  A    between atoms: C_3  and  C_25
    3  A    between atoms: C_4  and  C_29
    4  A    between atoms: C_4  and  C_30
    5  A    between atoms: C_5  and  C_18
    6  A    between atoms: C_5  and  C_21
    7  A    between atoms: C_8  and  N_14
    8  A    between atoms: N_17  and  C_20
    9  A    between atoms: C_20  and  C_27
   10  A    between atoms: C_27  and  N_33
                            x       y       z     vdW  Elec       q    Type
                         _______ _______ _______ _____ _____    ______ ____

>  <TORSDO>
F 10

$$$$
