=
 OpenBabel10232412353D

 37 41  0  0  1  0  0  0  0  0999 V2000
  191.0660  177.5010  144.9840 C   0  0  1  0  0  3  0  0  0  0  0  0
  191.5250  177.6550  143.5260 C   0  0  0  0  0  2  0  0  0  0  0  0
  189.4880  177.3060  142.1270 C   0  0  0  0  0  0  0  0  0  0  0  0
  190.7940  176.7130  142.5720 C   0  0  0  0  0  2  0  0  0  0  0  0
  189.3060  177.6740  140.7630 C   0  0  0  0  0  0  0  0  0  0  0  0
  189.6280  177.9980  145.1920 C   0  0  0  0  0  2  0  0  0  0  0  0
  187.2470  178.0670  142.5890 C   0  0  0  0  0  0  0  0  0  0  0  0
  187.0760  178.4140  141.2650 C   0  0  0  0  0  0  0  0  0  0  0  0
  186.0540  178.3730  143.2070 C   0  0  0  0  0  0  0  0  0  0  0  0
  185.6620  178.1730  144.4660 C   0  0  0  0  0  2  0  0  0  0  0  0
  183.5670  179.5150  143.9150 C   0  0  0  0  0  2  0  0  0  0  0  0
  184.2160  178.4420  144.8200 C   0  0  2  0  0  3  0  0  0  0  0  0
  185.8520  178.9330  141.0170 N   0  0  0  0  0  0  0  0  0  0  0  0
  185.2450  178.9170  142.2250 C   0  0  0  0  0  0  0  0  0  0  0  0
  188.0880  178.2300  140.3310 C   0  0  0  0  0  3  0  0  0  0  0  0
  188.4380  177.4970  143.0590 C   0  0  2  0  0  3  0  0  0  0  0  0
  184.0350  179.4190  142.4790 C   0  0  0  0  0  2  0  0  0  0  0  0
  188.5910  177.1140  144.5020 C   0  0  0  0  0  2  0  0  0  0  0  0
  191.3100  176.0910  145.5550 C   0  0  1  0  0  3  0  0  0  0  0  0
  192.1290  175.2370  144.5960 C   0  0  0  0  0  1  0  0  0  0  0  0
  191.6490  177.1200  147.8040 O   0  0  0  0  0  1  0  0  0  0  0  0
  192.9020  175.3070  147.1720 O   0  0  0  0  0  0  0  0  0  0  0  0
  192.0010  176.1410  146.8840 C   0  0  0  0  0  0  0  0  0  0  0  0
  184.1110  178.8150  146.1620 O   0  0  0  0  0  0  0  0  0  0  0  0
  185.0430  178.0160  146.8310 C   0  0  0  0  0  2  0  0  0  0  0  0
  187.2650  178.3060  147.9190 O   0  0  0  0  0  1  0  0  0  0  0  0
  186.0780  178.8720  147.4710 C   0  0  0  0  0  0  0  0  0  0  0  0
  185.8790  180.1060  147.6170 O   0  0  0  0  0  0  0  0  0  0  0  0
  190.4120  177.5150  139.7660 C   0  0  0  0  0  2  0  0  0  0  0  0
  188.9490  178.5350  137.5750 S   0  0  0  0  0  0  0  0  0  0  0  0
  188.7060  177.5360  136.2450 C   0  0  0  0  0  0  0  0  0  0  0  0
  189.9350  176.2280  137.5840 C   0  0  0  0  0  0  0  0  0  0  0  0
  189.2940  176.3290  136.3860 N   0  0  0  0  0  0  0  0  0  0  0  0
  187.9890  177.9170  135.0770 N   0  0  0  0  0  1  0  0  0  0  0  0
  189.8560  177.3670  138.3840 C   0  0  0  0  0  0  0  0  0  0  0  0
  190.6450  175.0100  137.9870 C   0  0  0  0  0  3  0  0  0  0  0  0
  190.4010  173.8770  137.4140 N   0  0  0  0  0  2  0  0  0  0  0  0
  1  6  1  0  0  0  0
  1 19  1  6  0  0  0
  2  1  1  0  0  0  0
  3  4  1  0  0  0  0
  3 16  1  0  0  0  0
  4  2  1  0  0  0  0
  5  3  2  0  0  0  0
  7 16  1  0  0  0  0
  7  9  2  0  0  0  0
  8  7  1  0  0  0  0
  9 10  1  0  0  0  0
 10 12  1  0  0  0  0
 11 12  1  0  0  0  0
 12 24  1  1  0  0  0
 13  8  1  0  0  0  0
 13 14  2  0  0  0  0
 14 17  1  0  0  0  0
 14  9  1  0  0  0  0
 15  5  1  0  0  0  0
 15  8  2  0  0  0  0
 16 18  1  1  0  0  0
 17 11  1  0  0  0  0
 18  6  1  0  0  0  0
 19 20  1  6  0  0  0
 19 23  1  0  0  0  0
 23 22  2  0  0  0  0
 23 21  1  0  0  0  0
 24 25  1  0  0  0  0
 25 27  1  0  0  0  0
 27 28  2  0  0  0  0
 27 26  1  0  0  0  0
 29  5  1  0  0  0  0
 30 35  1  0  0  0  0
 31 33  2  0  0  0  0
 31 30  1  0  0  0  0
 32 36  1  0  0  0  0
 32 35  2  0  0  0  0
 33 32  1  0  0  0  0
 34 31  1  0  0  0  0
 35 29  1  0  0  0  0
 37 36  2  0  0  0  0
M  END
>  <MODEL>
1

>  <REMARK>
 VINA RESULT:     -10.0      0.000      0.000
  Name = 
  8 active torsions:
  status: ('A' for Active; 'I' for Inactive)
    1  A    between atoms: C_3  and  C_22
    2  A    between atoms: C_7  and  C_14
    3  A    between atoms: C_10  and  C_30
    4  A    between atoms: C_11  and  C_16
    5  A    between atoms: C_14  and  O_23
    6  A    between atoms: C_20  and  O_23
    7  A    between atoms: C_22  and  C_32
    8  A    between atoms: C_30  and  C_34
                            x       y       z     vdW  Elec       q    Type
                         _______ _______ _______ _____ _____    ______ ____

>  <TORSDO>
F 8

$$$$
=
 OpenBabel10232412353D

 37 41  0  0  1  0  0  0  0  0999 V2000
  188.6700  178.3050  140.3150 C   0  0  1  0  0  3  0  0  0  0  0  0
  187.3110  178.8540  139.8540 C   0  0  0  0  0  2  0  0  0  0  0  0
  185.6830  178.2340  141.6410 C   0  0  0  0  0  0  0  0  0  0  0  0
  186.1440  177.9480  140.2410 C   0  0  0  0  0  2  0  0  0  0  0  0
  184.3910  178.7920  141.8610 C   0  0  0  0  0  0  0  0  0  0  0  0
  188.8200  178.3400  141.8420 C   0  0  0  0  0  2  0  0  0  0  0  0
  186.0500  178.2500  144.0250 C   0  0  0  0  0  0  0  0  0  0  0  0
  184.7940  178.7830  144.2300 C   0  0  0  0  0  0  0  0  0  0  0  0
  186.5930  178.0930  145.2820 C   0  0  0  0  0  0  0  0  0  0  0  0
  187.7560  177.5570  145.6550 C   0  0  0  0  0  2  0  0  0  0  0  0
  187.2420  178.3540  148.0210 C   0  0  0  0  0  2  0  0  0  0  0  0
  188.0100  177.3470  147.1320 C   0  0  2  0  0  3  0  0  0  0  0  0
  184.5210  178.9840  145.5390 N   0  0  0  0  0  0  0  0  0  0  0  0
  185.6450  178.5720  146.1690 C   0  0  0  0  0  0  0  0  0  0  0  0
  183.9450  179.0650  143.1680 C   0  0  0  0  0  3  0  0  0  0  0  0
  186.5280  177.9490  142.7420 C   0  0  2  0  0  3  0  0  0  0  0  0
  185.8620  178.6650  147.4820 C   0  0  0  0  0  2  0  0  0  0  0  0
  187.8930  177.3550  142.5500 C   0  0  0  0  0  2  0  0  0  0  0  0
  189.0130  176.9340  139.7010 C   0  0  1  0  0  3  0  0  0  0  0  0
  188.4630  176.8040  138.2870 C   0  0  0  0  0  1  0  0  0  0  0  0
  191.3400  177.5420  140.3710 O   0  0  0  0  0  1  0  0  0  0  0  0
  190.9710  175.7160  139.0340 O   0  0  0  0  0  0  0  0  0  0  0  0
  190.4910  176.6870  139.6800 C   0  0  0  0  0  0  0  0  0  0  0  0
  189.3790  177.4130  147.3990 O   0  0  0  0  0  0  0  0  0  0  0  0
  189.9960  177.1830  146.1650 C   0  0  0  0  0  2  0  0  0  0  0  0
  191.9970  176.8190  147.6040 O   0  0  0  0  0  1  0  0  0  0  0  0
  191.3680  176.6470  146.3780 C   0  0  0  0  0  0  0  0  0  0  0  0
  191.9650  176.0450  145.4470 O   0  0  0  0  0  0  0  0  0  0  0  0
  183.4930  179.1360  140.7140 C   0  0  0  0  0  2  0  0  0  0  0  0
  182.6150  176.6260  139.7600 S   0  0  0  0  0  0  0  0  0  0  0  0
  181.0020  176.2080  139.9840 C   0  0  0  0  0  0  0  0  0  0  0  0
  181.0970  178.2170  140.9650 C   0  0  0  0  0  0  0  0  0  0  0  0
  180.3060  177.1550  140.6480 N   0  0  0  0  0  0  0  0  0  0  0  0
  180.4250  174.9810  139.5540 N   0  0  0  0  0  1  0  0  0  0  0  0
  182.4240  178.1000  140.5540 C   0  0  0  0  0  0  0  0  0  0  0  0
  180.5780  179.3880  141.6810 C   0  0  0  0  0  3  0  0  0  0  0  0
  180.2850  179.3230  142.9390 N   0  0  0  0  0  2  0  0  0  0  0  0
  1 19  1  1  0  0  0
  1  6  1  0  0  0  0
  2  4  1  0  0  0  0
  2  1  1  0  0  0  0
  3  5  2  0  0  0  0
  3 16  1  0  0  0  0
  4  3  1  0  0  0  0
  5 15  1  0  0  0  0
  6 18  1  0  0  0  0
  7  8  1  0  0  0  0
  7  9  2  0  0  0  0
  8 13  1  0  0  0  0
  9 10  1  0  0  0  0
  9 14  1  0  0  0  0
 10 12  1  0  0  0  0
 12 24  1  6  0  0  0
 12 11  1  0  0  0  0
 13 14  2  0  0  0  0
 14 17  1  0  0  0  0
 15  8  2  0  0  0  0
 16 18  1  6  0  0  0
 16  7  1  0  0  0  0
 17 11  1  0  0  0  0
 19 20  1  6  0  0  0
 22 23  2  0  0  0  0
 23 19  1  0  0  0  0
 23 21  1  0  0  0  0
 25 27  1  0  0  0  0
 25 24  1  0  0  0  0
 27 26  1  0  0  0  0
 28 27  2  0  0  0  0
 29  5  1  0  0  0  0
 30 31  1  0  0  0  0
 30 35  1  0  0  0  0
 31 33  2  0  0  0  0
 32 36  1  0  0  0  0
 33 32  1  0  0  0  0
 34 31  1  0  0  0  0
 35 29  1  0  0  0  0
 35 32  2  0  0  0  0
 36 37  2  0  0  0  0
M  END
>  <MODEL>
2

>  <REMARK>
 VINA RESULT:      -9.7      3.567      6.550
  Name = 
  8 active torsions:
  status: ('A' for Active; 'I' for Inactive)
    1  A    between atoms: C_3  and  C_22
    2  A    between atoms: C_7  and  C_14
    3  A    between atoms: C_10  and  C_30
    4  A    between atoms: C_11  and  C_16
    5  A    between atoms: C_14  and  O_23
    6  A    between atoms: C_20  and  O_23
    7  A    between atoms: C_22  and  C_32
    8  A    between atoms: C_30  and  C_34
                            x       y       z     vdW  Elec       q    Type
                         _______ _______ _______ _____ _____    ______ ____

>  <TORSDO>
F 8

$$$$
=
 OpenBabel10232412353D

 37 41  0  0  1  0  0  0  0  0999 V2000
  187.7900  176.7980  144.9020 C   0  0  1  0  0  3  0  0  0  0  0  0
  186.3170  177.1830  144.6990 C   0  0  0  0  0  2  0  0  0  0  0  0
  186.2480  178.5460  142.6100 C   0  0  0  0  0  0  0  0  0  0  0  0
  186.1460  178.5800  144.1070 C   0  0  0  0  0  2  0  0  0  0  0  0
  185.1060  178.8480  141.8150 C   0  0  0  0  0  0  0  0  0  0  0  0
  188.5240  176.5980  143.5680 C   0  0  0  0  0  2  0  0  0  0  0  0
  187.5100  178.1880  140.5860 C   0  0  0  0  0  0  0  0  0  0  0  0
  186.4010  178.4890  139.8230 C   0  0  0  0  0  0  0  0  0  0  0  0
  188.5170  177.9250  139.6830 C   0  0  0  0  0  0  0  0  0  0  0  0
  189.8060  177.6500  139.8890 C   0  0  0  0  0  2  0  0  0  0  0  0
  189.9960  177.1830  137.3910 C   0  0  0  0  0  2  0  0  0  0  0  0
  190.7290  177.5890  138.6910 C   0  0  2  0  0  3  0  0  0  0  0  0
  186.6470  178.4170  138.4950 N   0  0  0  0  0  0  0  0  0  0  0  0
  187.9470  178.0510  138.4290 C   0  0  0  0  0  0  0  0  0  0  0  0
  185.1870  178.8200  140.4100 C   0  0  0  0  0  3  0  0  0  0  0  0
  187.4780  178.2170  141.9870 C   0  0  2  0  0  3  0  0  0  0  0  0
  188.6060  177.7760  137.3020 C   0  0  0  0  0  2  0  0  0  0  0  0
  188.7040  177.9010  142.7920 C   0  0  0  0  0  2  0  0  0  0  0  0
  188.5370  177.7330  145.8730 C   0  0  1  0  0  3  0  0  0  0  0  0
  187.7390  177.9620  147.1490 C   0  0  0  0  0  1  0  0  0  0  0  0
  190.9940  177.5630  145.4630 O   0  0  0  0  0  0  0  0  0  0  0  0
  190.0400  176.4200  147.2060 O   0  0  0  0  0  1  0  0  0  0  0  0
  189.8920  177.2000  146.2270 C   0  0  0  0  0  0  0  0  0  0  0  0
  191.7870  176.7130  138.9430 O   0  0  0  0  0  0  0  0  0  0  0  0
  192.1170  176.1810  137.6930 C   0  0  0  0  0  2  0  0  0  0  0  0
  194.2050  176.8810  136.5290 O   0  0  0  0  0  0  0  0  0  0  0  0
  193.5970  176.1410  137.5340 C   0  0  0  0  0  0  0  0  0  0  0  0
  194.2980  175.4340  138.3030 O   0  0  0  0  0  1  0  0  0  0  0  0
  183.7860  179.1640  142.4480 C   0  0  0  0  0  2  0  0  0  0  0  0
  182.8720  177.4240  140.4190 S   0  0  0  0  0  0  0  0  0  0  0  0
  181.2140  177.2910  140.1710 C   0  0  0  0  0  0  0  0  0  0  0  0
  181.3080  178.7260  141.8860 C   0  0  0  0  0  0  0  0  0  0  0  0
  180.4970  178.0430  141.0320 N   0  0  0  0  0  0  0  0  0  0  0  0
  180.6160  176.4570  139.1850 N   0  0  0  0  0  1  0  0  0  0  0  0
  182.6720  178.5030  141.6990 C   0  0  0  0  0  0  0  0  0  0  0  0
  180.7750  179.6260  142.9150 C   0  0  0  0  0  3  0  0  0  0  0  0
  180.0120  180.6200  142.5990 N   0  0  0  0  0  2  0  0  0  0  0  0
  1 19  1  6  0  0  0
  2  1  1  0  0  0  0
  3  4  1  0  0  0  0
  4  2  1  0  0  0  0
  5 29  1  0  0  0  0
  5  3  2  0  0  0  0
  6  1  1  0  0  0  0
  7 16  1  0  0  0  0
  8 15  2  0  0  0  0
  8  7  1  0  0  0  0
  9 10  1  0  0  0  0
  9  7  2  0  0  0  0
 11 12  1  0  0  0  0
 12 24  1  1  0  0  0
 12 10  1  0  0  0  0
 13  8  1  0  0  0  0
 14 13  2  0  0  0  0
 14  9  1  0  0  0  0
 15  5  1  0  0  0  0
 16  3  1  0  0  0  0
 16 18  1  1  0  0  0
 17 11  1  0  0  0  0
 17 14  1  0  0  0  0
 18  6  1  0  0  0  0
 19 23  1  0  0  0  0
 19 20  1  1  0  0  0
 21 23  2  0  0  0  0
 23 22  1  0  0  0  0
 25 24  1  0  0  0  0
 26 27  2  0  0  0  0
 27 25  1  0  0  0  0
 27 28  1  0  0  0  0
 30 35  1  0  0  0  0
 31 30  1  0  0  0  0
 31 33  2  0  0  0  0
 32 36  1  0  0  0  0
 33 32  1  0  0  0  0
 34 31  1  0  0  0  0
 35 32  2  0  0  0  0
 35 29  1  0  0  0  0
 37 36  2  0  0  0  0
M  END
>  <MODEL>
3

>  <REMARK>
 VINA RESULT:      -9.1      3.736      7.547
  Name = 
  8 active torsions:
  status: ('A' for Active; 'I' for Inactive)
    1  A    between atoms: C_3  and  C_22
    2  A    between atoms: C_7  and  C_14
    3  A    between atoms: C_10  and  C_30
    4  A    between atoms: C_11  and  C_16
    5  A    between atoms: C_14  and  O_23
    6  A    between atoms: C_20  and  O_23
    7  A    between atoms: C_22  and  C_32
    8  A    between atoms: C_30  and  C_34
                            x       y       z     vdW  Elec       q    Type
                         _______ _______ _______ _____ _____    ______ ____

>  <TORSDO>
F 8

$$$$
=
 OpenBabel10232412353D

 37 41  0  0  1  0  0  0  0  0999 V2000
  185.2000  177.8750  143.4470 C   0  0  1  0  0  3  0  0  0  0  0  0
  184.2290  177.9460  142.2590 C   0  0  0  0  0  2  0  0  0  0  0  0
  185.5880  178.7070  140.3090 C   0  0  0  0  0  0  0  0  0  0  0  0
  184.5390  179.1010  141.3090 C   0  0  0  0  0  2  0  0  0  0  0  0
  185.2490  178.6040  138.9300 C   0  0  0  0  0  0  0  0  0  0  0  0
  186.6160  177.4700  143.0120 C   0  0  0  0  0  2  0  0  0  0  0  0
  187.8460  178.0640  139.7590 C   0  0  0  0  0  0  0  0  0  0  0  0
  187.5110  177.9740  138.4230 C   0  0  0  0  0  0  0  0  0  0  0  0
  189.1870  177.7530  139.8240 C   0  0  0  0  0  0  0  0  0  0  0  0
  190.0210  177.7570  140.8650 C   0  0  0  0  0  2  0  0  0  0  0  0
  191.7690  176.7120  139.3330 C   0  0  0  0  0  2  0  0  0  0  0  0
  191.4970  177.5500  140.6050 C   0  0  2  0  0  3  0  0  0  0  0  0
  188.5580  177.6110  137.6480 N   0  0  0  0  0  0  0  0  0  0  0  0
  189.5740  177.4610  138.5280 C   0  0  0  0  0  0  0  0  0  0  0  0
  186.2210  178.2360  137.9810 C   0  0  0  0  0  3  0  0  0  0  0  0
  186.9130  178.4400  140.7350 C   0  0  2  0  0  3  0  0  0  0  0  0
  190.7950  177.0240  138.2170 C   0  0  0  0  0  2  0  0  0  0  0  0
  187.3090  178.5450  142.1780 C   0  0  0  0  0  2  0  0  0  0  0  0
  185.1740  179.1360  144.3330 C   0  0  1  0  0  3  0  0  0  0  0  0
  183.8060  179.8040  144.3080 C   0  0  0  0  0  1  0  0  0  0  0  0
  186.8750  178.5830  146.0740 O   0  0  0  0  0  0  0  0  0  0  0  0
  184.6650  178.7810  146.6520 O   0  0  0  0  0  1  0  0  0  0  0  0
  185.5470  178.8280  145.7510 C   0  0  0  0  0  0  0  0  0  0  0  0
  192.1020  176.9540  141.7140 O   0  0  0  0  0  0  0  0  0  0  0  0
  191.6000  177.6530  142.8160 C   0  0  0  0  0  2  0  0  0  0  0  0
  191.8540  175.4190  143.8870 O   0  0  0  0  0  0  0  0  0  0  0  0
  191.6180  176.7810  144.0210 C   0  0  0  0  0  0  0  0  0  0  0  0
  191.4110  177.2710  145.1620 O   0  0  0  0  0  1  0  0  0  0  0  0
  183.8480  178.8460  138.4590 C   0  0  0  0  0  2  0  0  0  0  0  0
  183.4730  176.2510  137.4080 S   0  0  0  0  0  0  0  0  0  0  0  0
  182.1240  175.3780  137.9040 C   0  0  0  0  0  0  0  0  0  0  0  0
  181.9050  177.2690  139.0810 C   0  0  0  0  0  0  0  0  0  0  0  0
  181.3740  176.0460  138.8050 N   0  0  0  0  0  0  0  0  0  0  0  0
  181.8100  174.0640  137.4550 N   0  0  0  0  0  1  0  0  0  0  0  0
  183.0850  177.5600  138.3970 C   0  0  0  0  0  0  0  0  0  0  0  0
  181.2730  178.1980  140.0240 C   0  0  0  0  0  3  0  0  0  0  0  0
  180.5280  177.7640  140.9870 N   0  0  0  0  0  2  0  0  0  0  0  0
  1 19  1  6  0  0  0
  2  1  1  0  0  0  0
  3 16  1  0  0  0  0
  3  4  1  0  0  0  0
  4  2  1  0  0  0  0
  5  3  2  0  0  0  0
  6  1  1  0  0  0  0
  7  9  2  0  0  0  0
  7 16  1  0  0  0  0
  8  7  1  0  0  0  0
  9 10  1  0  0  0  0
 11 12  1  0  0  0  0
 12 10  1  0  0  0  0
 12 24  1  1  0  0  0
 13  8  1  0  0  0  0
 13 14  2  0  0  0  0
 14  9  1  0  0  0  0
 15  8  2  0  0  0  0
 15  5  1  0  0  0  0
 16 18  1  1  0  0  0
 17 14  1  0  0  0  0
 17 11  1  0  0  0  0
 18  6  1  0  0  0  0
 19 20  1  1  0  0  0
 19 23  1  0  0  0  0
 23 21  2  0  0  0  0
 23 22  1  0  0  0  0
 24 25  1  0  0  0  0
 25 27  1  0  0  0  0
 26 27  2  0  0  0  0
 27 28  1  0  0  0  0
 29  5  1  0  0  0  0
 30 31  1  0  0  0  0
 30 35  1  0  0  0  0
 31 33  2  0  0  0  0
 32 36  1  0  0  0  0
 33 32  1  0  0  0  0
 34 31  1  0  0  0  0
 35 29  1  0  0  0  0
 35 32  2  0  0  0  0
 36 37  2  0  0  0  0
M  END
>  <MODEL>
4

>  <REMARK>
 VINA RESULT:      -8.9      3.157      6.906
  Name = 
  8 active torsions:
  status: ('A' for Active; 'I' for Inactive)
    1  A    between atoms: C_3  and  C_22
    2  A    between atoms: C_7  and  C_14
    3  A    between atoms: C_10  and  C_30
    4  A    between atoms: C_11  and  C_16
    5  A    between atoms: C_14  and  O_23
    6  A    between atoms: C_20  and  O_23
    7  A    between atoms: C_22  and  C_32
    8  A    between atoms: C_30  and  C_34
                            x       y       z     vdW  Elec       q    Type
                         _______ _______ _______ _____ _____    ______ ____

>  <TORSDO>
F 8

$$$$
=
 OpenBabel10232412353D

 37 41  0  0  1  0  0  0  0  0999 V2000
  182.8280  177.9450  140.5910 C   0  0  1  0  0  3  0  0  0  0  0  0
  183.5260  177.8450  139.2270 C   0  0  0  0  0  2  0  0  0  0  0  0
  185.8770  178.5940  139.6050 C   0  0  0  0  0  0  0  0  0  0  0  0
  184.5500  178.9560  139.0020 C   0  0  0  0  0  2  0  0  0  0  0  0
  187.0000  178.3670  138.7600 C   0  0  0  0  0  0  0  0  0  0  0  0
  183.7850  177.6440  141.7540 C   0  0  0  0  0  2  0  0  0  0  0  0
  187.2720  178.1280  141.5160 C   0  0  0  0  0  0  0  0  0  0  0  0
  188.3580  177.9170  140.6910 C   0  0  0  0  0  0  0  0  0  0  0  0
  187.7440  177.9480  142.7980 C   0  0  0  0  0  0  0  0  0  0  0  0
  187.1260  178.0990  143.9710 C   0  0  0  0  0  2  0  0  0  0  0  0
  189.2050  177.1210  145.0720 C   0  0  0  0  0  2  0  0  0  0  0  0
  187.9530  178.0130  145.2350 C   0  0  2  0  0  3  0  0  0  0  0  0
  189.4790  177.6010  141.3770 N   0  0  0  0  0  0  0  0  0  0  0  0
  189.0780  177.6060  142.6690 C   0  0  0  0  0  0  0  0  0  0  0  0
  188.2500  178.0280  139.3110 C   0  0  0  0  0  3  0  0  0  0  0  0
  186.0130  178.4810  141.0110 C   0  0  2  0  0  3  0  0  0  0  0  0
  189.8430  177.2650  143.7070 C   0  0  0  0  0  2  0  0  0  0  0  0
  184.8540  178.7200  141.9330 C   0  0  0  0  0  2  0  0  0  0  0  0
  182.0380  179.2540  140.7770 C   0  0  1  0  0  3  0  0  0  0  0  0
  181.3450  179.6740  139.4880 C   0  0  0  0  0  1  0  0  0  0  0  0
  180.0770  178.1200  141.8250 O   0  0  0  0  0  0  0  0  0  0  0  0
  181.0040  179.9630  142.8240 O   0  0  0  0  0  1  0  0  0  0  0  0
  181.0190  179.1390  141.8700 C   0  0  0  0  0  0  0  0  0  0  0  0
  187.1660  177.5520  146.2930 O   0  0  0  0  0  0  0  0  0  0  0  0
  185.8570  177.5700  145.8010 C   0  0  0  0  0  2  0  0  0  0  0  0
  185.6450  179.4400  147.4320 O   0  0  0  0  0  1  0  0  0  0  0  0
  185.1260  178.7450  146.3480 C   0  0  0  0  0  0  0  0  0  0  0  0
  184.0340  179.1070  145.8370 O   0  0  0  0  0  0  0  0  0  0  0  0
  186.8740  178.4450  137.2700 C   0  0  0  0  0  2  0  0  0  0  0  0
  185.8030  175.8610  136.8830 S   0  0  0  0  0  0  0  0  0  0  0  0
  186.6930  174.7560  135.9810 C   0  0  0  0  0  0  0  0  0  0  0  0
  187.9930  176.5760  135.8920 C   0  0  0  0  0  0  0  0  0  0  0  0
  187.8450  175.2770  135.5090 N   0  0  0  0  0  0  0  0  0  0  0  0
  186.2760  173.4230  135.7090 N   0  0  0  0  0  1  0  0  0  0  0  0
  186.9470  177.0790  136.6640 C   0  0  0  0  0  0  0  0  0  0  0  0
  189.1700  177.3690  135.5170 C   0  0  0  0  0  3  0  0  0  0  0  0
  189.7130  177.2420  134.3520 N   0  0  0  0  0  2  0  0  0  0  0  0
  1 19  1  1  0  0  0
  1  6  1  0  0  0  0
  2  1  1  0  0  0  0
  3 16  1  0  0  0  0
  4  2  1  0  0  0  0
  4  3  1  0  0  0  0
  5 15  1  0  0  0  0
  5  3  2  0  0  0  0
  6 18  1  0  0  0  0
  7  9  2  0  0  0  0
  8 13  1  0  0  0  0
  8  7  1  0  0  0  0
  9 10  1  0  0  0  0
 10 12  1  0  0  0  0
 11 12  1  0  0  0  0
 12 24  1  1  0  0  0
 13 14  2  0  0  0  0
 14  9  1  0  0  0  0
 14 17  1  0  0  0  0
 15  8  2  0  0  0  0
 16  7  1  0  0  0  0
 16 18  1  6  0  0  0
 17 11  1  0  0  0  0
 19 20  1  6  0  0  0
 19 23  1  0  0  0  0
 21 23  2  0  0  0  0
 23 22  1  0  0  0  0
 25 24  1  0  0  0  0
 25 27  1  0  0  0  0
 27 26  1  0  0  0  0
 28 27  2  0  0  0  0
 29  5  1  0  0  0  0
 31 30  1  0  0  0  0
 32 35  2  0  0  0  0
 33 32  1  0  0  0  0
 33 31  2  0  0  0  0
 34 31  1  0  0  0  0
 35 30  1  0  0  0  0
 35 29  1  0  0  0  0
 36 32  1  0  0  0  0
 37 36  2  0  0  0  0
M  END
>  <MODEL>
5

>  <REMARK>
 VINA RESULT:      -8.6      2.502      6.190
  Name = 
  8 active torsions:
  status: ('A' for Active; 'I' for Inactive)
    1  A    between atoms: C_3  and  C_22
    2  A    between atoms: C_7  and  C_14
    3  A    between atoms: C_10  and  C_30
    4  A    between atoms: C_11  and  C_16
    5  A    between atoms: C_14  and  O_23
    6  A    between atoms: C_20  and  O_23
    7  A    between atoms: C_22  and  C_32
    8  A    between atoms: C_30  and  C_34
                            x       y       z     vdW  Elec       q    Type
                         _______ _______ _______ _____ _____    ______ ____

>  <TORSDO>
F 8

$$$$
=
 OpenBabel10232412353D

 37 41  0  0  1  0  0  0  0  0999 V2000
  189.5190  178.1960  138.3290 C   0  0  1  0  0  3  0  0  0  0  0  0
  188.1760  178.8570  137.9820 C   0  0  0  0  0  2  0  0  0  0  0  0
  186.5930  178.1800  139.7890 C   0  0  0  0  0  0  0  0  0  0  0  0
  186.9750  177.9890  138.3490 C   0  0  0  0  0  2  0  0  0  0  0  0
  185.3480  178.7880  140.1160 C   0  0  0  0  0  0  0  0  0  0  0  0
  189.7370  178.0920  139.8450 C   0  0  0  0  0  2  0  0  0  0  0  0
  187.0640  177.9720  142.1450 C   0  0  0  0  0  0  0  0  0  0  0  0
  185.8530  178.5550  142.4540 C   0  0  0  0  0  0  0  0  0  0  0  0
  187.6520  177.6790  143.3560 C   0  0  0  0  0  0  0  0  0  0  0  0
  188.7950  177.0480  143.6280 C   0  0  0  0  0  2  0  0  0  0  0  0
  188.4340  177.6680  146.0730 C   0  0  0  0  0  2  0  0  0  0  0  0
  189.1000  176.6990  145.0680 C   0  0  2  0  0  3  0  0  0  0  0  0
  185.6500  178.6590  143.7870 N   0  0  0  0  0  0  0  0  0  0  0  0
  186.7740  178.1330  144.3250 C   0  0  0  0  0  0  0  0  0  0  0  0
  184.9770  178.9740  141.4610 C   0  0  0  0  0  3  0  0  0  0  0  0
  187.4670  177.7550  140.8200 C   0  0  2  0  0  3  0  0  0  0  0  0
  187.0530  178.1010  145.6290 C   0  0  0  0  0  2  0  0  0  0  0  0
  188.7840  177.1040  140.5130 C   0  0  0  0  0  2  0  0  0  0  0  0
  189.7520  176.8650  137.5880 C   0  0  1  0  0  3  0  0  0  0  0  0
  189.7410  177.0590  136.0780 C   0  0  0  0  0  1  0  0  0  0  0  0
  192.2360  176.9140  137.8330 O   0  0  0  0  0  0  0  0  0  0  0  0
  191.0570  175.0540  138.4710 O   0  0  0  0  0  1  0  0  0  0  0  0
  191.0430  176.2210  137.9940 C   0  0  0  0  0  0  0  0  0  0  0  0
  190.4820  176.6660  145.2720 O   0  0  0  0  0  0  0  0  0  0  0  0
  190.6480  176.9140  146.6380 C   0  0  0  0  0  2  0  0  0  0  0  0
  192.3570  175.1140  146.4260 O   0  0  0  0  0  0  0  0  0  0  0  0
  191.8460  176.1880  147.1430 C   0  0  0  0  0  0  0  0  0  0  0  0
  192.3920  176.5390  148.2210 O   0  0  0  0  0  1  0  0  0  0  0  0
  184.4230  179.2780  139.0460 C   0  0  0  0  0  2  0  0  0  0  0  0
  182.9970  176.8400  139.0230 S   0  0  0  0  0  0  0  0  0  0  0  0
  181.3170  176.9000  139.0140 C   0  0  0  0  0  0  0  0  0  0  0  0
  181.8530  179.0720  139.0820 C   0  0  0  0  0  0  0  0  0  0  0  0
  180.8400  178.1620  139.0510 N   0  0  0  0  0  0  0  0  0  0  0  0
  180.4750  175.7530  139.0000 N   0  0  0  0  0  1  0  0  0  0  0  0
  183.1330  178.5190  139.0780 C   0  0  0  0  0  0  0  0  0  0  0  0
  181.6020  180.5170  139.1150 C   0  0  0  0  0  3  0  0  0  0  0  0
  180.5380  181.0190  138.5780 N   0  0  0  0  0  2  0  0  0  0  0  0
  1 19  1  1  0  0  0
  1  6  1  0  0  0  0
  2  1  1  0  0  0  0
  2  4  1  0  0  0  0
  3  5  2  0  0  0  0
  3 16  1  0  0  0  0
  4  3  1  0  0  0  0
  5 15  1  0  0  0  0
  6 18  1  0  0  0  0
  7  8  1  0  0  0  0
  7  9  2  0  0  0  0
  8 13  1  0  0  0  0
  9 10  1  0  0  0  0
  9 14  1  0  0  0  0
 10 12  1  0  0  0  0
 12 24  1  6  0  0  0
 12 11  1  0  0  0  0
 13 14  2  0  0  0  0
 14 17  1  0  0  0  0
 15  8  2  0  0  0  0
 16 18  1  6  0  0  0
 16  7  1  0  0  0  0
 17 11  1  0  0  0  0
 19 20  1  6  0  0  0
 19 23  1  0  0  0  0
 21 23  2  0  0  0  0
 23 22  1  0  0  0  0
 24 25  1  0  0  0  0
 25 27  1  0  0  0  0
 26 27  2  0  0  0  0
 27 28  1  0  0  0  0
 29 35  1  0  0  0  0
 29  5  1  0  0  0  0
 30 35  1  0  0  0  0
 31 30  1  0  0  0  0
 31 33  2  0  0  0  0
 32 36  1  0  0  0  0
 33 32  1  0  0  0  0
 34 31  1  0  0  0  0
 35 32  2  0  0  0  0
 37 36  2  0  0  0  0
M  END
>  <MODEL>
6

>  <REMARK>
 VINA RESULT:      -8.6      3.525      6.654
  Name = 
  8 active torsions:
  status: ('A' for Active; 'I' for Inactive)
    1  A    between atoms: C_3  and  C_22
    2  A    between atoms: C_7  and  C_14
    3  A    between atoms: C_10  and  C_30
    4  A    between atoms: C_11  and  C_16
    5  A    between atoms: C_14  and  O_23
    6  A    between atoms: C_20  and  O_23
    7  A    between atoms: C_22  and  C_32
    8  A    between atoms: C_30  and  C_34
                            x       y       z     vdW  Elec       q    Type
                         _______ _______ _______ _____ _____    ______ ____

>  <TORSDO>
F 8

$$$$
=
 OpenBabel10232412353D

 37 41  0  0  1  0  0  0  0  0999 V2000
  187.0490  177.1190  144.2460 C   0  0  1  0  0  3  0  0  0  0  0  0
  185.6280  177.4580  143.7730 C   0  0  0  0  0  2  0  0  0  0  0  0
  185.8970  178.6320  141.5870 C   0  0  0  0  0  0  0  0  0  0  0  0
  185.5510  178.7940  143.0390 C   0  0  0  0  0  2  0  0  0  0  0  0
  184.8990  178.8420  140.5930 C   0  0  0  0  0  0  0  0  0  0  0  0
  187.9920  176.8160  143.0730 C   0  0  0  0  0  2  0  0  0  0  0  0
  187.4740  178.1210  139.8360 C   0  0  0  0  0  0  0  0  0  0  0  0
  186.5040  178.3340  138.8790 C   0  0  0  0  0  0  0  0  0  0  0  0
  188.6170  177.7990  139.1360 C   0  0  0  0  0  0  0  0  0  0  0  0
  189.8560  177.5660  139.5730 C   0  0  0  0  0  2  0  0  0  0  0  0
  190.4540  176.8860  137.1910 C   0  0  0  0  0  2  0  0  0  0  0  0
  190.9620  177.4180  138.5520 C   0  0  2  0  0  3  0  0  0  0  0  0
  186.9640  178.1500  137.6210 N   0  0  0  0  0  0  0  0  0  0  0  0
  188.2590  177.8040  137.8000 C   0  0  0  0  0  0  0  0  0  0  0  0
  185.2090  178.6930  139.2280 C   0  0  0  0  0  3  0  0  0  0  0  0
  187.2130  178.2720  141.2050 C   0  0  2  0  0  3  0  0  0  0  0  0
  189.0950  177.4440  136.8240 C   0  0  0  0  0  2  0  0  0  0  0  0
  188.2920  178.0490  142.2230 C   0  0  0  0  0  2  0  0  0  0  0  0
  187.6230  178.1480  145.2380 C   0  0  1  0  0  3  0  0  0  0  0  0
  186.6900  178.3590  146.4230 C   0  0  0  0  0  1  0  0  0  0  0  0
  190.1110  178.3540  145.2260 O   0  0  0  0  0  0  0  0  0  0  0  0
  189.0920  176.8470  146.6210 O   0  0  0  0  0  1  0  0  0  0  0  0
  188.9750  177.7430  145.7410 C   0  0  0  0  0  0  0  0  0  0  0  0
  191.9680  176.5860  139.0500 O   0  0  0  0  0  0  0  0  0  0  0  0
  192.3280  175.7730  137.9710 C   0  0  0  0  0  2  0  0  0  0  0  0
  194.2230  176.6090  136.5870 O   0  0  0  0  0  0  0  0  0  0  0  0
  193.7860  175.9050  137.7010 C   0  0  0  0  0  0  0  0  0  0  0  0
  194.6250  175.3750  138.4750 O   0  0  0  0  0  1  0  0  0  0  0  0
  183.4920  179.1880  140.9720 C   0  0  0  0  0  2  0  0  0  0  0  0
  182.2250  180.5390  138.8400 S   0  0  0  0  0  0  0  0  0  0  0  0
  181.1910  179.6630  137.8450 C   0  0  0  0  0  0  0  0  0  0  0  0
  181.9040  178.0880  139.2640 C   0  0  0  0  0  0  0  0  0  0  0  0
  181.1170  178.3600  138.1870 N   0  0  0  0  0  0  0  0  0  0  0  0
  180.4860  180.2150  136.7380 N   0  0  0  0  0  1  0  0  0  0  0  0
  182.6060  179.1830  139.7660 C   0  0  0  0  0  0  0  0  0  0  0  0
  181.9950  176.7420  139.8430 C   0  0  0  0  0  3  0  0  0  0  0  0
  182.6120  175.7910  139.2220 N   0  0  0  0  0  2  0  0  0  0  0  0
  1 19  1  6  0  0  0
  2  1  1  0  0  0  0
  3  4  1  0  0  0  0
  4  2  1  0  0  0  0
  5 29  1  0  0  0  0
  5  3  2  0  0  0  0
  6  1  1  0  0  0  0
  7 16  1  0  0  0  0
  8 15  2  0  0  0  0
  8  7  1  0  0  0  0
  9 10  1  0  0  0  0
  9  7  2  0  0  0  0
 11 12  1  0  0  0  0
 12 24  1  1  0  0  0
 12 10  1  0  0  0  0
 13 14  2  0  0  0  0
 13  8  1  0  0  0  0
 14  9  1  0  0  0  0
 15  5  1  0  0  0  0
 16  3  1  0  0  0  0
 16 18  1  1  0  0  0
 17 11  1  0  0  0  0
 17 14  1  0  0  0  0
 18  6  1  0  0  0  0
 19 23  1  0  0  0  0
 19 20  1  1  0  0  0
 21 23  2  0  0  0  0
 23 22  1  0  0  0  0
 25 24  1  0  0  0  0
 26 27  2  0  0  0  0
 27 25  1  0  0  0  0
 27 28  1  0  0  0  0
 30 35  1  0  0  0  0
 31 33  2  0  0  0  0
 31 30  1  0  0  0  0
 32 35  2  0  0  0  0
 32 36  1  0  0  0  0
 33 32  1  0  0  0  0
 34 31  1  0  0  0  0
 35 29  1  0  0  0  0
 37 36  2  0  0  0  0
M  END
>  <MODEL>
7

>  <REMARK>
 VINA RESULT:      -8.6      3.916      7.319
  Name = 
  8 active torsions:
  status: ('A' for Active; 'I' for Inactive)
    1  A    between atoms: C_3  and  C_22
    2  A    between atoms: C_7  and  C_14
    3  A    between atoms: C_10  and  C_30
    4  A    between atoms: C_11  and  C_16
    5  A    between atoms: C_14  and  O_23
    6  A    between atoms: C_20  and  O_23
    7  A    between atoms: C_22  and  C_32
    8  A    between atoms: C_30  and  C_34
                            x       y       z     vdW  Elec       q    Type
                         _______ _______ _______ _____ _____    ______ ____

>  <TORSDO>
F 8

$$$$
=
 OpenBabel10232412353D

 37 41  0  0  1  0  0  0  0  0999 V2000
  183.9300  177.8290  142.1100 C   0  0  1  0  0  3  0  0  0  0  0  0
  184.1690  177.7010  140.5980 C   0  0  0  0  0  2  0  0  0  0  0  0
  186.5170  178.4540  140.2110 C   0  0  0  0  0  0  0  0  0  0  0  0
  185.0670  178.8060  140.0440 C   0  0  0  0  0  2  0  0  0  0  0  0
  187.3220  178.2080  139.0620 C   0  0  0  0  0  0  0  0  0  0  0  0
  185.2030  177.5490  142.9220 C   0  0  0  0  0  2  0  0  0  0  0  0
  188.4400  178.0220  141.6000 C   0  0  0  0  0  0  0  0  0  0  0  0
  189.2160  177.7920  140.4820 C   0  0  0  0  0  0  0  0  0  0  0  0
  189.2880  177.8650  142.6750 C   0  0  0  0  0  0  0  0  0  0  0  0
  189.0670  178.0410  143.9780 C   0  0  0  0  0  2  0  0  0  0  0  0
  191.3890  177.0790  144.3960 C   0  0  0  0  0  2  0  0  0  0  0  0
  190.2460  177.9780  144.9240 C   0  0  2  0  0  3  0  0  0  0  0  0
  190.4960  177.4870  140.7910 N   0  0  0  0  0  0  0  0  0  0  0  0
  190.5180  177.5190  142.1430 C   0  0  0  0  0  0  0  0  0  0  0  0
  188.6830  177.8770  139.2030 C   0  0  0  0  0  3  0  0  0  0  0  0
  187.0850  178.3680  141.5060 C   0  0  2  0  0  3  0  0  0  0  0  0
  191.5700  177.1960  142.8970 C   0  0  0  0  0  2  0  0  0  0  0  0
  186.2700  178.6270  142.7390 C   0  0  0  0  0  2  0  0  0  0  0  0
  183.2320  179.1440  142.5080 C   0  0  1  0  0  3  0  0  0  0  0  0
  181.9950  179.3960  141.6570 C   0  0  0  0  0  1  0  0  0  0  0  0
  183.7020  179.7170  144.8920 O   0  0  0  0  0  1  0  0  0  0  0  0
  181.7540  178.6460  144.3320 O   0  0  0  0  0  0  0  0  0  0  0  0
  182.8450  179.1530  143.9560 C   0  0  0  0  0  0  0  0  0  0  0  0
  189.8300  177.5390  146.1830 O   0  0  0  0  0  0  0  0  0  0  0  0
  188.4370  177.4650  146.0950 C   0  0  0  0  0  2  0  0  0  0  0  0
  186.5740  178.4290  147.4390 O   0  0  0  0  0  0  0  0  0  0  0  0
  187.8260  177.8300  147.4030 C   0  0  0  0  0  0  0  0  0  0  0  0
  188.4440  177.6040  148.4760 O   0  0  0  0  0  1  0  0  0  0  0  0
  186.7380  178.2570  137.6840 C   0  0  0  0  0  2  0  0  0  0  0  0
  187.3740  175.5790  137.0490 S   0  0  0  0  0  0  0  0  0  0  0  0
  186.1470  174.5840  136.4750 C   0  0  0  0  0  0  0  0  0  0  0  0
  185.0510  176.5010  136.8380 C   0  0  0  0  0  0  0  0  0  0  0  0
  184.9530  175.2100  136.4170 N   0  0  0  0  0  0  0  0  0  0  0  0
  186.3260  173.2190  136.1150 N   0  0  0  0  0  1  0  0  0  0  0  0
  186.3290  176.8890  137.2370 C   0  0  0  0  0  0  0  0  0  0  0  0
  183.8940  177.4030  136.8620 C   0  0  0  0  0  3  0  0  0  0  0  0
  182.7650  177.0230  137.3640 N   0  0  0  0  0  2  0  0  0  0  0  0
  1 19  1  6  0  0  0
  1  6  1  0  0  0  0
  2  1  1  0  0  0  0
  3 16  1  0  0  0  0
  4  3  1  0  0  0  0
  4  2  1  0  0  0  0
  5 15  1  0  0  0  0
  5  3  2  0  0  0  0
  7  9  2  0  0  0  0
  8 13  1  0  0  0  0
  8  7  1  0  0  0  0
  9 10  1  0  0  0  0
 10 12  1  0  0  0  0
 11 12  1  0  0  0  0
 12 24  1  1  0  0  0
 13 14  2  0  0  0  0
 14  9  1  0  0  0  0
 14 17  1  0  0  0  0
 15  8  2  0  0  0  0
 16  7  1  0  0  0  0
 16 18  1  1  0  0  0
 17 11  1  0  0  0  0
 18  6  1  0  0  0  0
 19 20  1  6  0  0  0
 19 23  1  0  0  0  0
 23 22  2  0  0  0  0
 23 21  1  0  0  0  0
 25 24  1  0  0  0  0
 25 27  1  0  0  0  0
 27 26  2  0  0  0  0
 27 28  1  0  0  0  0
 29  5  1  0  0  0  0
 30 35  1  0  0  0  0
 31 30  1  0  0  0  0
 32 36  1  0  0  0  0
 32 35  2  0  0  0  0
 33 31  2  0  0  0  0
 33 32  1  0  0  0  0
 34 31  1  0  0  0  0
 35 29  1  0  0  0  0
 36 37  2  0  0  0  0
M  END
>  <MODEL>
8

>  <REMARK>
 VINA RESULT:      -8.4      2.461      5.997
  Name = 
  8 active torsions:
  status: ('A' for Active; 'I' for Inactive)
    1  A    between atoms: C_3  and  C_22
    2  A    between atoms: C_7  and  C_14
    3  A    between atoms: C_10  and  C_30
    4  A    between atoms: C_11  and  C_16
    5  A    between atoms: C_14  and  O_23
    6  A    between atoms: C_20  and  O_23
    7  A    between atoms: C_22  and  C_32
    8  A    between atoms: C_30  and  C_34
                            x       y       z     vdW  Elec       q    Type
                         _______ _______ _______ _____ _____    ______ ____

>  <TORSDO>
F 8

$$$$
=
 OpenBabel10232412353D

 37 41  0  0  1  0  0  0  0  0999 V2000
  183.7300  177.8450  141.6970 C   0  0  1  0  0  3  0  0  0  0  0  0
  183.9690  177.7170  140.1860 C   0  0  0  0  0  2  0  0  0  0  0  0
  186.3100  178.4890  139.7950 C   0  0  0  0  0  0  0  0  0  0  0  0
  184.8570  178.8280  139.6300 C   0  0  0  0  0  2  0  0  0  0  0  0
  187.1170  178.2480  138.6470 C   0  0  0  0  0  0  0  0  0  0  0  0
  185.0060  177.5780  142.5090 C   0  0  0  0  0  2  0  0  0  0  0  0
  188.2380  178.0770  141.1850 C   0  0  0  0  0  0  0  0  0  0  0  0
  189.0150  177.8530  140.0670 C   0  0  0  0  0  0  0  0  0  0  0  0
  189.0880  177.9300  142.2600 C   0  0  0  0  0  0  0  0  0  0  0  0
  188.8650  178.1070  143.5630 C   0  0  0  0  0  2  0  0  0  0  0  0
  191.1970  177.1670  143.9810 C   0  0  0  0  0  2  0  0  0  0  0  0
  190.0460  178.0560  144.5080 C   0  0  2  0  0  3  0  0  0  0  0  0
  190.2980  177.5600  140.3750 N   0  0  0  0  0  0  0  0  0  0  0  0
  190.3200  177.5940  141.7270 C   0  0  0  0  0  0  0  0  0  0  0  0
  188.4810  177.9300  138.7870 C   0  0  0  0  0  3  0  0  0  0  0  0
  186.8800  178.4110  141.0910 C   0  0  2  0  0  3  0  0  0  0  0  0
  191.3750  177.2820  142.4820 C   0  0  0  0  0  2  0  0  0  0  0  0
  186.0630  178.6650  142.3240 C   0  0  0  0  0  2  0  0  0  0  0  0
  183.0200  179.1550  142.0930 C   0  0  1  0  0  3  0  0  0  0  0  0
  181.7080  179.3260  141.3400 C   0  0  0  0  0  1  0  0  0  0  0  0
  181.6740  178.5330  144.1010 O   0  0  0  0  0  0  0  0  0  0  0  0
  183.5000  179.9010  144.3240 O   0  0  0  0  0  1  0  0  0  0  0  0
  182.7550  179.2210  143.5670 C   0  0  0  0  0  0  0  0  0  0  0  0
  189.6340  177.6160  145.7680 O   0  0  0  0  0  0  0  0  0  0  0  0
  188.2380  177.6120  145.7080 C   0  0  0  0  0  2  0  0  0  0  0  0
  188.2220  176.9100  148.0980 O   0  0  0  0  0  1  0  0  0  0  0  0
  187.6710  177.6810  147.0830 C   0  0  0  0  0  0  0  0  0  0  0  0
  186.6900  178.4300  147.3280 O   0  0  0  0  0  0  0  0  0  0  0  0
  186.5320  178.2900  137.2700 C   0  0  0  0  0  2  0  0  0  0  0  0
  185.4120  175.7030  137.0840 S   0  0  0  0  0  0  0  0  0  0  0  0
  186.1400  174.5920  136.0530 C   0  0  0  0  0  0  0  0  0  0  0  0
  187.4070  176.4100  135.7370 C   0  0  0  0  0  0  0  0  0  0  0  0
  187.1970  175.1090  135.3930 N   0  0  0  0  0  0  0  0  0  0  0  0
  185.6850  173.2570  135.8640 N   0  0  0  0  0  1  0  0  0  0  0  0
  186.5030  176.9190  136.6690 C   0  0  0  0  0  0  0  0  0  0  0  0
  188.5040  177.2000  135.1670 C   0  0  0  0  0  3  0  0  0  0  0  0
  189.7310  176.9710  135.5000 N   0  0  0  0  0  2  0  0  0  0  0  0
  1 19  1  6  0  0  0
  1  6  1  0  0  0  0
  2  1  1  0  0  0  0
  3 16  1  0  0  0  0
  4  3  1  0  0  0  0
  4  2  1  0  0  0  0
  5 15  1  0  0  0  0
  5  3  2  0  0  0  0
  7  9  2  0  0  0  0
  8 13  1  0  0  0  0
  8  7  1  0  0  0  0
  9 10  1  0  0  0  0
 10 12  1  0  0  0  0
 11 12  1  0  0  0  0
 12 24  1  1  0  0  0
 13 14  2  0  0  0  0
 14  9  1  0  0  0  0
 14 17  1  0  0  0  0
 15  8  2  0  0  0  0
 16  7  1  0  0  0  0
 16 18  1  1  0  0  0
 17 11  1  0  0  0  0
 18  6  1  0  0  0  0
 19 20  1  6  0  0  0
 19 23  1  0  0  0  0
 23 21  2  0  0  0  0
 23 22  1  0  0  0  0
 25 24  1  0  0  0  0
 25 27  1  0  0  0  0
 27 28  2  0  0  0  0
 27 26  1  0  0  0  0
 29  5  1  0  0  0  0
 31 30  1  0  0  0  0
 32 35  2  0  0  0  0
 33 32  1  0  0  0  0
 33 31  2  0  0  0  0
 34 31  1  0  0  0  0
 35 30  1  0  0  0  0
 35 29  1  0  0  0  0
 36 37  2  0  0  0  0
 36 32  1  0  0  0  0
M  END
>  <MODEL>
9

>  <REMARK>
 VINA RESULT:      -8.4      2.195      5.842
  Name = 
  8 active torsions:
  status: ('A' for Active; 'I' for Inactive)
    1  A    between atoms: C_3  and  C_22
    2  A    between atoms: C_7  and  C_14
    3  A    between atoms: C_10  and  C_30
    4  A    between atoms: C_11  and  C_16
    5  A    between atoms: C_14  and  O_23
    6  A    between atoms: C_20  and  O_23
    7  A    between atoms: C_22  and  C_32
    8  A    between atoms: C_30  and  C_34
                            x       y       z     vdW  Elec       q    Type
                         _______ _______ _______ _____ _____    ______ ____

>  <TORSDO>
F 8

$$$$
