=
 OpenBabel10232410583D

 42 46  0  0  1  0  0  0  0  0999 V2000
  186.9150  178.2710  146.3480 C   0  0  0  0  0  0  0  0  0  0  0  0
  185.6280  178.7830  146.5420 C   0  0  0  0  0  3  0  0  0  0  0  0
  187.2760  177.7320  145.0960 C   0  0  0  0  0  0  0  0  0  0  0  0
  187.8250  178.2830  147.3560 N   0  0  0  0  0  0  0  0  0  0  0  0
  189.4340  177.2370  145.9380 C   0  0  0  0  0  0  0  0  0  0  0  0
  185.0570  178.2060  144.2500 C   0  0  0  0  0  0  0  0  0  0  0  0
  188.5300  177.2400  144.9190 N   0  0  0  0  0  0  0  0  0  0  0  0
  186.3500  177.7050  144.0520 C   0  0  0  0  0  3  0  0  0  0  0  0
  184.7020  178.7520  145.4950 C   0  0  0  0  0  3  0  0  0  0  0  0
  189.0760  177.7810  147.1770 C   0  0  0  0  0  3  0  0  0  0  0  0
  184.4000  178.8450  139.3520 N   0  0  0  0  0  2  0  0  0  0  0  0
  182.8700  179.0750  143.3290 C   0  0  2  0  0  3  0  0  0  0  0  0
  182.1420  178.7150  144.6160 C   0  0  0  0  0  1  0  0  0  0  0  0
  180.9030  179.8500  142.2130 F   0  0  0  0  0  0  0  0  0  0  0  0
  181.9080  178.9020  142.1580 C   0  0  1  0  0  3  0  0  0  0  0  0
  184.7950  178.5170  141.8120 C   0  0  0  0  0  2  0  0  0  0  0  0
  183.8480  178.7430  140.6660 C   0  0  0  0  0  0  0  0  0  0  0  0
  184.0800  178.1600  143.1130 C   0  0  1  0  0  3  0  0  0  0  0  0
  182.5840  178.9870  140.8630 N   0  0  0  0  0  0  0  0  0  0  0  0
  183.5740  179.0230  138.1670 C   0  0  0  0  0  2  0  0  0  0  0  0
  182.9260  177.8240  137.8540 O   0  0  0  0  0  0  0  0  0  0  0  0
  184.2920  177.0490  136.2070 C   0  0  0  0  0  2  0  0  0  0  0  0
  183.5720  174.7360  135.6980 C   0  0  0  0  0  2  0  0  0  0  0  0
  183.4310  175.5900  138.0060 C   0  0  0  0  0  2  0  0  0  0  0  0
  182.7530  174.8670  136.9130 N   0  0  0  0  0  0  0  0  0  0  0  0
  183.9220  176.9320  137.6240 N   0  0  0  0  0  0  0  0  0  0  0  0
  184.7420  175.7180  135.6340 C   0  0  0  0  0  2  0  0  0  0  0  0
  181.5100  175.5420  136.5690 C   0  0  0  0  0  1  0  0  0  0  0  0
  190.8180  176.7010  145.7350 C   0  0  2  0  0  3  0  0  0  0  0  0
  191.5020  176.5320  147.0770 C   0  0  0  0  0  1  0  0  0  0  0  0
  191.6140  177.5910  144.9000 N   0  0  0  0  0  2  0  0  0  0  0  0
  191.5850  177.5140  143.4990 C   0  0  0  0  0  0  0  0  0  0  0  0
  191.5650  177.4670  142.2940 C   0  0  0  0  0  0  0  0  0  0  0  0
  189.4170  178.3610  138.0690 C   0  0  0  0  0  2  0  0  0  0  0  0
  188.0810  178.2740  138.6770 N   0  0  0  0  0  0  0  0  0  0  0  0
  187.4620  176.9910  138.3580 C   0  0  0  0  0  1  0  0  0  0  0  0
  190.4060  177.3480  138.6570 C   0  0  0  0  0  2  0  0  0  0  0  0
  188.1460  178.4590  140.1350 C   0  0  0  0  0  2  0  0  0  0  0  0
  192.8850  177.3890  140.1650 C   0  0  0  0  0  1  0  0  0  0  0  0
  190.4140  177.4530  140.1510 C   0  0  0  0  0  0  0  0  0  0  0  0
  189.0740  177.4520  140.8240 C   0  0  0  0  0  2  0  0  0  0  0  0
  191.5610  177.4410  140.8520 C   0  0  0  0  0  0  0  0  0  0  0  0
  1  2  1  0  0  0  0
  1  4  1  0  0  0  0
  3  1  2  0  0  0  0
  5 10  1  0  0  0  0
  6  9  1  0  0  0  0
  7  3  1  0  0  0  0
  7  5  2  0  0  0  0
  8  6  2  0  0  0  0
  8  3  1  0  0  0  0
  9  2  2  0  0  0  0
 10  4  2  0  0  0  0
 11 17  1  0  0  0  0
 12 13  1  1  0  0  0
 15 14  1  6  0  0  0
 15 12  1  0  0  0  0
 16 18  1  0  0  0  0
 17 19  2  0  0  0  0
 17 16  1  0  0  0  0
 18 12  1  0  0  0  0
 18  6  1  1  0  0  0
 19 15  1  0  0  0  0
 20 11  1  0  0  0  0
 21 20  1  0  0  0  0
 22 26  1  0  0  0  0
 23 25  1  0  0  0  0
 25 24  1  0  0  0  0
 26 21  1  0  0  0  0
 26 24  1  0  0  0  0
 27 23  1  0  0  0  0
 27 22  1  0  0  0  0
 28 25  1  0  0  0  0
 29  5  1  0  0  0  0
 29 30  1  1  0  0  0
 31 29  1  0  0  0  0
 32 31  1  0  0  0  0
 33 32  3  0  0  0  0
 34 37  1  0  0  0  0
 34 35  1  0  0  0  0
 35 38  1  0  0  0  0
 36 35  1  0  0  0  0
 37 40  1  0  0  0  0
 38 41  1  0  0  0  0
 39 42  1  0  0  0  0
 40 41  1  0  0  0  0
 40 42  2  0  0  0  0
 42 33  1  0  0  0  0
M  END
>  <MODEL>
1

>  <REMARK>
 VINA RESULT:      -9.8      0.000      0.000
  Name = 
  8 active torsions:
  status: ('A' for Active; 'I' for Inactive)
    1  A    between atoms: N_4  and  C_5
    2  A    between atoms: N_4  and  C_21
    3  A    between atoms: C_5  and  C_22
    4  A    between atoms: C_6  and  N_9
    5  A    between atoms: C_6  and  O_18
    6  A    between atoms: O_18  and  N_23
    7  A    between atoms: C_25  and  C_37
    8  A    between atoms: C_41  and  C_42
                            x       y       z     vdW  Elec       q    Type
                         _______ _______ _______ _____ _____    ______ ____

>  <TORSDO>
F 8

$$$$
=
 OpenBabel10232410583D

 42 46  0  0  1  0  0  0  0  0999 V2000
  184.4300  178.5450  144.3980 C   0  0  0  0  0  0  0  0  0  0  0  0
  185.4550  178.4060  145.3400 C   0  0  0  0  0  3  0  0  0  0  0  0
  184.7190  178.4330  143.0230 C   0  0  0  0  0  0  0  0  0  0  0  0
  183.1550  178.7910  144.7930 N   0  0  0  0  0  0  0  0  0  0  0  0
  182.4390  178.8320  142.5180 C   0  0  0  0  0  0  0  0  0  0  0  0
  187.0550  178.0620  143.5420 C   0  0  0  0  0  0  0  0  0  0  0  0
  183.7150  178.5670  142.1180 N   0  0  0  0  0  0  0  0  0  0  0  0
  186.0270  178.1880  142.6000 C   0  0  0  0  0  3  0  0  0  0  0  0
  186.7640  178.1640  144.9120 C   0  0  0  0  0  3  0  0  0  0  0  0
  182.1540  178.9340  143.8840 C   0  0  0  0  0  3  0  0  0  0  0  0
  189.9260  176.9850  139.6140 N   0  0  0  0  0  2  0  0  0  0  0  0
  189.1320  176.6440  143.7920 C   0  0  2  0  0  3  0  0  0  0  0  0
  189.1700  176.8990  145.2930 C   0  0  0  0  0  1  0  0  0  0  0  0
  191.1460  175.3570  143.7720 F   0  0  0  0  0  0  0  0  0  0  0  0
  190.5640  176.5110  143.2820 C   0  0  1  0  0  3  0  0  0  0  0  0
  188.4320  177.5490  141.5550 C   0  0  0  0  0  2  0  0  0  0  0  0
  189.7440  177.0340  141.0310 C   0  0  0  0  0  0  0  0  0  0  0  0
  188.4520  177.8050  143.0590 C   0  0  1  0  0  3  0  0  0  0  0  0
  190.6360  176.5090  141.8210 N   0  0  0  0  0  0  0  0  0  0  0  0
  191.1690  176.5430  138.9980 C   0  0  0  0  0  2  0  0  0  0  0  0
  190.9930  175.2800  138.4260 O   0  0  0  0  0  0  0  0  0  0  0  0
  192.8950  176.2240  137.6100 C   0  0  0  0  0  2  0  0  0  0  0  0
  192.9160  175.8180  135.1680 C   0  0  0  0  0  2  0  0  0  0  0  0
  191.9590  174.1300  136.6900 C   0  0  0  0  0  2  0  0  0  0  0  0
  191.7940  174.9080  135.4470 N   0  0  0  0  0  0  0  0  0  0  0  0
  192.1970  174.9610  137.8890 N   0  0  0  0  0  0  0  0  0  0  0  0
  193.7890  176.1110  136.3890 C   0  0  0  0  0  2  0  0  0  0  0  0
  190.5650  175.6860  135.5070 C   0  0  0  0  0  1  0  0  0  0  0  0
  181.3340  178.9710  141.5160 C   0  0  2  0  0  3  0  0  0  0  0  0
  180.0870  179.4900  142.2020 C   0  0  0  0  0  1  0  0  0  0  0  0
  181.0350  177.6960  140.8770 N   0  0  0  0  0  2  0  0  0  0  0  0
  181.8620  177.1560  139.8800 C   0  0  0  0  0  0  0  0  0  0  0  0
  182.5790  176.6780  139.0360 C   0  0  0  0  0  0  0  0  0  0  0  0
  186.8970  176.1820  136.9460 C   0  0  0  0  0  2  0  0  0  0  0  0
  187.3000  177.5380  137.3490 N   0  0  0  0  0  0  0  0  0  0  0  0
  187.2090  178.4510  136.2140 C   0  0  0  0  0  1  0  0  0  0  0  0
  185.4190  176.0920  136.5510 C   0  0  0  0  0  2  0  0  0  0  0  0
  186.4750  178.0290  138.4640 C   0  0  0  0  0  2  0  0  0  0  0  0
  183.0190  174.7560  137.4890 C   0  0  0  0  0  1  0  0  0  0  0  0
  184.5660  176.6790  137.6340 C   0  0  0  0  0  0  0  0  0  0  0  0
  184.9760  178.0280  138.1440 C   0  0  0  0  0  2  0  0  0  0  0  0
  183.4380  176.0760  138.0470 C   0  0  0  0  0  0  0  0  0  0  0  0
  1  4  1  0  0  0  0
  1  2  2  0  0  0  0
  3  1  1  0  0  0  0
  5 10  1  0  0  0  0
  6  9  2  0  0  0  0
  7  5  2  0  0  0  0
  7  3  1  0  0  0  0
  8  3  2  0  0  0  0
  8  6  1  0  0  0  0
  9  2  1  0  0  0  0
 10  4  2  0  0  0  0
 11 17  1  0  0  0  0
 12 13  1  1  0  0  0
 15 14  1  6  0  0  0
 15 12  1  0  0  0  0
 16 18  1  0  0  0  0
 17 16  1  0  0  0  0
 17 19  2  0  0  0  0
 18  6  1  1  0  0  0
 18 12  1  0  0  0  0
 19 15  1  0  0  0  0
 20 11  1  0  0  0  0
 21 20  1  0  0  0  0
 22 26  1  0  0  0  0
 23 25  1  0  0  0  0
 23 27  1  0  0  0  0
 24 26  1  0  0  0  0
 25 28  1  0  0  0  0
 25 24  1  0  0  0  0
 26 21  1  0  0  0  0
 27 22  1  0  0  0  0
 29 30  1  1  0  0  0
 29  5  1  0  0  0  0
 31 29  1  0  0  0  0
 32 31  1  0  0  0  0
 33 32  3  0  0  0  0
 34 35  1  0  0  0  0
 35 38  1  0  0  0  0
 36 35  1  0  0  0  0
 37 34  1  0  0  0  0
 37 40  1  0  0  0  0
 39 42  1  0  0  0  0
 40 42  2  0  0  0  0
 40 41  1  0  0  0  0
 41 38  1  0  0  0  0
 42 33  1  0  0  0  0
M  END
>  <MODEL>
2

>  <REMARK>
 VINA RESULT:      -9.2      3.231      7.432
  Name = 
  8 active torsions:
  status: ('A' for Active; 'I' for Inactive)
    1  A    between atoms: N_4  and  C_5
    2  A    between atoms: N_4  and  C_21
    3  A    between atoms: C_5  and  C_22
    4  A    between atoms: C_6  and  N_9
    5  A    between atoms: C_6  and  O_18
    6  A    between atoms: O_18  and  N_23
    7  A    between atoms: C_25  and  C_37
    8  A    between atoms: C_41  and  C_42
                            x       y       z     vdW  Elec       q    Type
                         _______ _______ _______ _____ _____    ______ ____

>  <TORSDO>
F 8

$$$$
=
 OpenBabel10232410583D

 42 46  0  0  1  0  0  0  0  0999 V2000
  182.1110  177.4060  137.4880 C   0  0  0  0  0  0  0  0  0  0  0  0
  182.3150  178.7710  137.7170 C   0  0  0  0  0  3  0  0  0  0  0  0
  182.3020  176.4820  138.5350 C   0  0  0  0  0  0  0  0  0  0  0  0
  181.7340  176.9580  136.2630 N   0  0  0  0  0  0  0  0  0  0  0  0
  181.7370  174.7110  137.0650 C   0  0  0  0  0  0  0  0  0  0  0  0
  182.9130  178.2900  140.0250 C   0  0  0  0  0  0  0  0  0  0  0  0
  182.0980  175.1590  138.3000 N   0  0  0  0  0  0  0  0  0  0  0  0
  182.6970  176.9250  139.7980 C   0  0  0  0  0  3  0  0  0  0  0  0
  182.7140  179.2110  138.9830 C   0  0  0  0  0  3  0  0  0  0  0  0
  181.5410  175.6330  136.0300 C   0  0  0  0  0  3  0  0  0  0  0  0
  186.2910  177.7880  143.6540 N   0  0  0  0  0  2  0  0  0  0  0  0
  182.2620  178.5260  142.4550 C   0  0  2  0  0  3  0  0  0  0  0  0
  180.9810  179.2560  142.0790 C   0  0  0  0  0  1  0  0  0  0  0  0
  181.9080  178.7280  144.8100 F   0  0  0  0  0  0  0  0  0  0  0  0
  182.7680  179.0760  143.7850 C   0  0  1  0  0  3  0  0  0  0  0  0
  184.6290  178.0160  141.7820 C   0  0  0  0  0  2  0  0  0  0  0  0
  184.9930  178.2100  143.2270 C   0  0  0  0  0  0  0  0  0  0  0  0
  183.3430  178.7380  141.3900 C   0  0  1  0  0  3  0  0  0  0  0  0
  184.1180  178.6100  144.1040 N   0  0  0  0  0  0  0  0  0  0  0  0
  186.7630  177.9640  145.0190 C   0  0  0  0  0  2  0  0  0  0  0  0
  188.1340  178.2380  145.0170 O   0  0  0  0  0  0  0  0  0  0  0  0
  189.3890  177.4190  146.7290 C   0  0  0  0  0  2  0  0  0  0  0  0
  191.6410  176.9470  145.8150 C   0  0  0  0  0  2  0  0  0  0  0  0
  189.6460  176.6230  144.4040 C   0  0  0  0  0  2  0  0  0  0  0  0
  191.0100  177.1760  144.5060 N   0  0  0  0  0  0  0  0  0  0  0  0
  188.7250  177.0990  145.4580 N   0  0  0  0  0  0  0  0  0  0  0  0
  190.6490  176.5970  146.9240 C   0  0  0  0  0  2  0  0  0  0  0  0
  190.9850  178.6080  144.2430 C   0  0  0  0  0  1  0  0  0  0  0  0
  181.5060  173.2530  136.8130 C   0  0  2  0  0  3  0  0  0  0  0  0
  180.3060  172.7820  137.6080 C   0  0  0  0  0  1  0  0  0  0  0  0
  182.6700  172.4600  137.1860 N   0  0  0  0  0  2  0  0  0  0  0  0
  183.9710  172.9850  137.1360 C   0  0  0  0  0  0  0  0  0  0  0  0
  185.0950  173.4200  137.1020 C   0  0  0  0  0  0  0  0  0  0  0  0
  188.3390  176.9110  137.8430 C   0  0  0  0  0  2  0  0  0  0  0  0
  187.3190  177.9580  137.6800 N   0  0  0  0  0  0  0  0  0  0  0  0
  187.4310  178.5720  136.3600 C   0  0  0  0  0  1  0  0  0  0  0  0
  188.1330  175.7250  136.8940 C   0  0  0  0  0  2  0  0  0  0  0  0
  185.9650  177.4170  137.8760 C   0  0  0  0  0  2  0  0  0  0  0  0
  187.5440  172.8900  137.0920 C   0  0  0  0  0  1  0  0  0  0  0  0
  186.7260  175.2220  137.0070 C   0  0  0  0  0  0  0  0  0  0  0  0
  185.6430  176.2550  136.9300 C   0  0  0  0  0  2  0  0  0  0  0  0
  186.4520  173.9070  137.0680 C   0  0  0  0  0  0  0  0  0  0  0  0
  1  2  2  0  0  0  0
  1  3  1  0  0  0  0
  2  9  1  0  0  0  0
  3  8  2  0  0  0  0
  4  1  1  0  0  0  0
  5  7  2  0  0  0  0
  7  3  1  0  0  0  0
  8  6  1  0  0  0  0
  9  6  2  0  0  0  0
 10  4  2  0  0  0  0
 10  5  1  0  0  0  0
 11 20  1  0  0  0  0
 12 13  1  6  0  0  0
 12 15  1  0  0  0  0
 15 19  1  0  0  0  0
 15 14  1  1  0  0  0
 16 17  1  0  0  0  0
 17 11  1  0  0  0  0
 17 19  2  0  0  0  0
 18  6  1  6  0  0  0
 18 16  1  0  0  0  0
 18 12  1  0  0  0  0
 21 20  1  0  0  0  0
 21 26  1  0  0  0  0
 22 27  1  0  0  0  0
 23 27  1  0  0  0  0
 24 25  1  0  0  0  0
 24 26  1  0  0  0  0
 25 23  1  0  0  0  0
 26 22  1  0  0  0  0
 28 25  1  0  0  0  0
 29  5  1  0  0  0  0
 29 31  1  0  0  0  0
 29 30  1  1  0  0  0
 32 31  1  0  0  0  0
 33 32  3  0  0  0  0
 35 34  1  0  0  0  0
 35 38  1  0  0  0  0
 36 35  1  0  0  0  0
 37 40  1  0  0  0  0
 37 34  1  0  0  0  0
 40 42  2  0  0  0  0
 41 40  1  0  0  0  0
 41 38  1  0  0  0  0
 42 39  1  0  0  0  0
 42 33  1  0  0  0  0
M  END
>  <MODEL>
3

>  <REMARK>
 VINA RESULT:      -8.6      2.413      8.529
  Name = 
  8 active torsions:
  status: ('A' for Active; 'I' for Inactive)
    1  A    between atoms: N_4  and  C_5
    2  A    between atoms: N_4  and  C_21
    3  A    between atoms: C_5  and  C_22
    4  A    between atoms: C_6  and  N_9
    5  A    between atoms: C_6  and  O_18
    6  A    between atoms: O_18  and  N_23
    7  A    between atoms: C_25  and  C_37
    8  A    between atoms: C_41  and  C_42
                            x       y       z     vdW  Elec       q    Type
                         _______ _______ _______ _____ _____    ______ ____

>  <TORSDO>
F 8

$$$$
=
 OpenBabel10232410583D

 42 46  0  0  1  0  0  0  0  0999 V2000
  190.6010  177.4260  142.4630 C   0  0  0  0  0  0  0  0  0  0  0  0
  190.6000  177.6160  143.8490 C   0  0  0  0  0  3  0  0  0  0  0  0
  189.3810  177.2820  141.7730 C   0  0  0  0  0  0  0  0  0  0  0  0
  191.7690  177.3740  141.7730 N   0  0  0  0  0  0  0  0  0  0  0  0
  190.5690  177.0300  139.7390 C   0  0  0  0  0  0  0  0  0  0  0  0
  188.1700  177.5030  143.8580 C   0  0  0  0  0  0  0  0  0  0  0  0
  189.3950  177.1000  140.4260 N   0  0  0  0  0  0  0  0  0  0  0  0
  188.1720  177.3250  142.4690 C   0  0  0  0  0  3  0  0  0  0  0  0
  189.3870  177.6560  144.5440 C   0  0  0  0  0  3  0  0  0  0  0  0
  191.7790  177.1820  140.4270 C   0  0  0  0  0  3  0  0  0  0  0  0
  183.3440  178.7120  143.5830 N   0  0  0  0  0  2  0  0  0  0  0  0
  186.9180  178.3430  145.8860 C   0  0  2  0  0  3  0  0  0  0  0  0
  187.9780  177.7790  146.8200 C   0  0  0  0  0  1  0  0  0  0  0  0
  185.5120  179.1290  147.6520 F   0  0  0  0  0  0  0  0  0  0  0  0
  185.5610  178.2600  146.5780 C   0  0  1  0  0  3  0  0  0  0  0  0
  185.7810  178.1010  143.6580 C   0  0  0  0  0  2  0  0  0  0  0  0
  184.4960  178.4110  144.3740 C   0  0  0  0  0  0  0  0  0  0  0  0
  186.8570  177.5400  144.5820 C   0  0  1  0  0  3  0  0  0  0  0  0
  184.4520  178.5500  145.6680 N   0  0  0  0  0  0  0  0  0  0  0  0
  182.0410  178.9870  144.1700 C   0  0  0  0  0  2  0  0  0  0  0  0
  181.0340  178.7200  143.2380 O   0  0  0  0  0  0  0  0  0  0  0  0
  180.0620  180.1950  141.8040 C   0  0  0  0  0  2  0  0  0  0  0  0
  179.9820  179.1030  139.5840 C   0  0  0  0  0  2  0  0  0  0  0  0
  181.8760  178.6710  141.1030 C   0  0  0  0  0  2  0  0  0  0  0  0
  180.8620  178.0960  140.1980 N   0  0  0  0  0  0  0  0  0  0  0  0
  181.3110  179.5170  142.1760 N   0  0  0  0  0  0  0  0  0  0  0  0
  179.9850  180.4480  140.3100 C   0  0  0  0  0  2  0  0  0  0  0  0
  180.0400  177.1350  140.9210 C   0  0  0  0  0  1  0  0  0  0  0  0
  190.5800  176.8380  138.2530 C   0  0  2  0  0  3  0  0  0  0  0  0
  189.4700  177.6540  137.6250 C   0  0  0  0  0  1  0  0  0  0  0  0
  190.4040  175.4350  137.9000 N   0  0  0  0  0  2  0  0  0  0  0  0
  191.4770  174.6400  137.4680 C   0  0  0  0  0  0  0  0  0  0  0  0
  192.3870  173.9470  137.0850 C   0  0  0  0  0  0  0  0  0  0  0  0
  196.8630  172.1900  137.4470 C   0  0  0  0  0  2  0  0  0  0  0  0
  197.3180  173.3740  138.1920 N   0  0  0  0  0  0  0  0  0  0  0  0
  198.0780  174.2610  137.3170 C   0  0  0  0  0  1  0  0  0  0  0  0
  195.8550  172.5300  136.3440 C   0  0  0  0  0  2  0  0  0  0  0  0
  196.1830  174.0970  138.7870 C   0  0  0  0  0  2  0  0  0  0  0  0
  193.0780  171.9630  135.7190 C   0  0  0  0  0  1  0  0  0  0  0  0
  194.7390  173.3530  136.9120 C   0  0  0  0  0  0  0  0  0  0  0  0
  195.1410  174.5300  137.7500 C   0  0  0  0  0  2  0  0  0  0  0  0
  193.4550  173.1100  136.5980 C   0  0  0  0  0  0  0  0  0  0  0  0
  1  2  2  0  0  0  0
  2  9  1  0  0  0  0
  3  1  1  0  0  0  0
  3  8  2  0  0  0  0
  4  1  1  0  0  0  0
  5  7  2  0  0  0  0
  5 10  1  0  0  0  0
  6  9  2  0  0  0  0
  7  3  1  0  0  0  0
  8  6  1  0  0  0  0
 10  4  2  0  0  0  0
 11 20  1  0  0  0  0
 11 17  1  0  0  0  0
 12 15  1  0  0  0  0
 12 13  1  1  0  0  0
 15 14  1  1  0  0  0
 16 17  1  0  0  0  0
 16 18  1  0  0  0  0
 17 19  2  0  0  0  0
 18  6  1  6  0  0  0
 18 12  1  0  0  0  0
 19 15  1  0  0  0  0
 21 20  1  0  0  0  0
 22 26  1  0  0  0  0
 23 25  1  0  0  0  0
 23 27  1  0  0  0  0
 24 26  1  0  0  0  0
 25 28  1  0  0  0  0
 25 24  1  0  0  0  0
 26 21  1  0  0  0  0
 27 22  1  0  0  0  0
 29 30  1  6  0  0  0
 29  5  1  0  0  0  0
 31 29  1  0  0  0  0
 32 31  1  0  0  0  0
 33 32  3  0  0  0  0
 34 35  1  0  0  0  0
 35 38  1  0  0  0  0
 36 35  1  0  0  0  0
 37 40  1  0  0  0  0
 37 34  1  0  0  0  0
 39 42  1  0  0  0  0
 40 41  1  0  0  0  0
 41 38  1  0  0  0  0
 42 40  2  0  0  0  0
 42 33  1  0  0  0  0
M  END
>  <MODEL>
4

>  <REMARK>
 VINA RESULT:      -8.4      3.812      6.549
  Name = 
  8 active torsions:
  status: ('A' for Active; 'I' for Inactive)
    1  A    between atoms: N_4  and  C_5
    2  A    between atoms: N_4  and  C_21
    3  A    between atoms: C_5  and  C_22
    4  A    between atoms: C_6  and  N_9
    5  A    between atoms: C_6  and  O_18
    6  A    between atoms: O_18  and  N_23
    7  A    between atoms: C_25  and  C_37
    8  A    between atoms: C_41  and  C_42
                            x       y       z     vdW  Elec       q    Type
                         _______ _______ _______ _____ _____    ______ ____

>  <TORSDO>
F 8

$$$$
=
 OpenBabel10232410583D

 42 46  0  0  1  0  0  0  0  0999 V2000
  190.6310  177.4940  142.5660 C   0  0  0  0  0  0  0  0  0  0  0  0
  190.5380  177.6580  143.9520 C   0  0  0  0  0  3  0  0  0  0  0  0
  189.4600  177.3690  141.7920 C   0  0  0  0  0  0  0  0  0  0  0  0
  191.8430  177.4500  141.9540 N   0  0  0  0  0  0  0  0  0  0  0  0
  190.7830  177.1500  139.8380 C   0  0  0  0  0  0  0  0  0  0  0  0
  188.1130  177.5560  143.7950 C   0  0  0  0  0  0  0  0  0  0  0  0
  189.5650  177.2120  140.4460 N   0  0  0  0  0  0  0  0  0  0  0  0
  188.2080  177.4040  142.4060 C   0  0  0  0  0  3  0  0  0  0  0  0
  189.2810  177.6910  144.5640 C   0  0  0  0  0  3  0  0  0  0  0  0
  191.9430  177.2840  140.6090 C   0  0  0  0  0  3  0  0  0  0  0  0
  183.3480  178.9160  143.2730 N   0  0  0  0  0  2  0  0  0  0  0  0
  186.7440  178.3050  145.7830 C   0  0  2  0  0  3  0  0  0  0  0  0
  187.7240  177.6540  146.7490 C   0  0  0  0  0  1  0  0  0  0  0  0
  185.2390  179.0200  147.4960 F   0  0  0  0  0  0  0  0  0  0  0  0
  185.3410  178.2170  146.3750 C   0  0  1  0  0  3  0  0  0  0  0  0
  185.7580  178.2330  143.4720 C   0  0  0  0  0  2  0  0  0  0  0  0
  184.4350  178.5340  144.1180 C   0  0  0  0  0  0  0  0  0  0  0  0
  186.7540  177.5850  144.4300 C   0  0  1  0  0  3  0  0  0  0  0  0
  184.3050  178.5940  145.4130 N   0  0  0  0  0  0  0  0  0  0  0  0
  182.0140  179.1910  143.7860 C   0  0  0  0  0  2  0  0  0  0  0  0
  181.0520  178.7550  142.8690 O   0  0  0  0  0  0  0  0  0  0  0  0
  180.1190  180.0650  141.2590 C   0  0  0  0  0  2  0  0  0  0  0  0
  179.9850  178.6970  139.2000 C   0  0  0  0  0  2  0  0  0  0  0  0
  181.8750  178.4010  140.7560 C   0  0  0  0  0  2  0  0  0  0  0  0
  180.8350  177.7490  139.9370 N   0  0  0  0  0  0  0  0  0  0  0  0
  181.3480  179.3980  141.7120 N   0  0  0  0  0  0  0  0  0  0  0  0
  180.0390  180.1240  139.7450 C   0  0  0  0  0  2  0  0  0  0  0  0
  179.9870  176.9190  140.7810 C   0  0  0  0  0  1  0  0  0  0  0  0
  190.8930  176.9850  138.3530 C   0  0  2  0  0  3  0  0  0  0  0  0
  189.8350  177.8260  137.6670 C   0  0  0  0  0  1  0  0  0  0  0  0
  190.7280  175.5920  137.9610 N   0  0  0  0  0  2  0  0  0  0  0  0
  189.4940  175.0870  137.5230 C   0  0  0  0  0  0  0  0  0  0  0  0
  188.4260  174.6610  137.1620 C   0  0  0  0  0  0  0  0  0  0  0  0
  184.0660  175.3910  135.2320 C   0  0  0  0  0  2  0  0  0  0  0  0
  184.0830  176.8110  135.6150 N   0  0  0  0  0  0  0  0  0  0  0  0
  183.2470  177.0270  136.7920 C   0  0  0  0  0  1  0  0  0  0  0  0
  184.7130  174.4820  136.2830 C   0  0  0  0  0  2  0  0  0  0  0  0
  185.4540  177.2770  135.8720 C   0  0  0  0  0  2  0  0  0  0  0  0
  187.0050  172.7120  136.4790 C   0  0  0  0  0  1  0  0  0  0  0  0
  186.0750  174.9980  136.6320 C   0  0  0  0  0  0  0  0  0  0  0  0
  186.1700  176.4600  136.9540 C   0  0  0  0  0  2  0  0  0  0  0  0
  187.1310  174.1750  136.7530 C   0  0  0  0  0  0  0  0  0  0  0  0
  1  2  2  0  0  0  0
  2  9  1  0  0  0  0
  3  8  2  0  0  0  0
  3  1  1  0  0  0  0
  4  1  1  0  0  0  0
  5  7  2  0  0  0  0
  5 10  1  0  0  0  0
  6  9  2  0  0  0  0
  7  3  1  0  0  0  0
  8  6  1  0  0  0  0
 10  4  2  0  0  0  0
 11 20  1  0  0  0  0
 11 17  1  0  0  0  0
 12 15  1  0  0  0  0
 12 13  1  1  0  0  0
 15 14  1  1  0  0  0
 16 17  1  0  0  0  0
 16 18  1  0  0  0  0
 17 19  2  0  0  0  0
 18  6  1  6  0  0  0
 18 12  1  0  0  0  0
 19 15  1  0  0  0  0
 21 20  1  0  0  0  0
 22 26  1  0  0  0  0
 23 27  1  0  0  0  0
 23 25  1  0  0  0  0
 24 26  1  0  0  0  0
 25 24  1  0  0  0  0
 25 28  1  0  0  0  0
 26 21  1  0  0  0  0
 27 22  1  0  0  0  0
 29 30  1  6  0  0  0
 29  5  1  0  0  0  0
 31 29  1  0  0  0  0
 32 31  1  0  0  0  0
 33 32  3  0  0  0  0
 34 35  1  0  0  0  0
 34 37  1  0  0  0  0
 35 38  1  0  0  0  0
 35 36  1  0  0  0  0
 37 40  1  0  0  0  0
 38 41  1  0  0  0  0
 39 42  1  0  0  0  0
 40 42  2  0  0  0  0
 40 41  1  0  0  0  0
 42 33  1  0  0  0  0
M  END
>  <MODEL>
5

>  <REMARK>
 VINA RESULT:      -8.3      2.446      5.806
  Name = 
  8 active torsions:
  status: ('A' for Active; 'I' for Inactive)
    1  A    between atoms: N_4  and  C_5
    2  A    between atoms: N_4  and  C_21
    3  A    between atoms: C_5  and  C_22
    4  A    between atoms: C_6  and  N_9
    5  A    between atoms: C_6  and  O_18
    6  A    between atoms: O_18  and  N_23
    7  A    between atoms: C_25  and  C_37
    8  A    between atoms: C_41  and  C_42
                            x       y       z     vdW  Elec       q    Type
                         _______ _______ _______ _____ _____    ______ ____

>  <TORSDO>
F 8

$$$$
=
 OpenBabel10232410583D

 42 46  0  0  1  0  0  0  0  0999 V2000
  189.3390  177.0890  144.7800 C   0  0  0  0  0  0  0  0  0  0  0  0
  190.4900  176.5380  144.2070 C   0  0  0  0  0  3  0  0  0  0  0  0
  188.2920  177.5450  143.9530 C   0  0  0  0  0  0  0  0  0  0  0  0
  189.2190  177.1950  146.1280 N   0  0  0  0  0  0  0  0  0  0  0  0
  187.0680  178.1960  145.8740 C   0  0  0  0  0  0  0  0  0  0  0  0
  189.5610  176.9100  141.9910 C   0  0  0  0  0  0  0  0  0  0  0  0
  187.1780  178.0750  144.5220 N   0  0  0  0  0  0  0  0  0  0  0  0
  188.4040  177.4500  142.5650 C   0  0  0  0  0  3  0  0  0  0  0  0
  190.6000  176.4480  142.8160 C   0  0  0  0  0  3  0  0  0  0  0  0
  188.1060  177.7350  146.6920 C   0  0  0  0  0  3  0  0  0  0  0  0
  192.5700  176.1620  138.0910 N   0  0  0  0  0  2  0  0  0  0  0  0
  189.1720  178.1000  139.7960 C   0  0  2  0  0  3  0  0  0  0  0  0
  187.7330  178.4130  140.1780 C   0  0  0  0  0  1  0  0  0  0  0  0
  189.0040  179.0750  137.6200 F   0  0  0  0  0  0  0  0  0  0  0  0
  189.2430  177.8880  138.2860 C   0  0  1  0  0  3  0  0  0  0  0  0
  191.0950  176.5100  140.0960 C   0  0  0  0  0  2  0  0  0  0  0  0
  191.3390  176.6580  138.6200 C   0  0  0  0  0  0  0  0  0  0  0  0
  189.6570  176.8270  140.4960 C   0  0  1  0  0  3  0  0  0  0  0  0
  190.5320  177.3430  137.8600 N   0  0  0  0  0  0  0  0  0  0  0  0
  192.8920  176.2160  136.6720 C   0  0  0  0  0  2  0  0  0  0  0  0
  193.7440  175.1580  136.3370 O   0  0  0  0  0  0  0  0  0  0  0  0
  195.6400  176.0370  135.4380 C   0  0  0  0  0  2  0  0  0  0  0  0
  197.3820  174.2830  135.5640 C   0  0  0  0  0  2  0  0  0  0  0  0
  195.6860  174.4660  137.3450 C   0  0  0  0  0  2  0  0  0  0  0  0
  196.4170  173.5770  136.4220 N   0  0  0  0  0  0  0  0  0  0  0  0
  194.9870  175.5830  136.6740 N   0  0  0  0  0  0  0  0  0  0  0  0
  197.1360  175.7890  135.4710 C   0  0  0  0  0  2  0  0  0  0  0  0
  195.4750  172.8590  135.5740 C   0  0  0  0  0  1  0  0  0  0  0  0
  185.8340  178.7750  146.4970 C   0  0  2  0  0  3  0  0  0  0  0  0
  184.8570  177.6640  146.8210 C   0  0  0  0  0  1  0  0  0  0  0  0
  185.1930  179.7350  145.6070 N   0  0  0  0  0  2  0  0  0  0  0  0
  184.0630  179.3980  144.8460 C   0  0  0  0  0  0  0  0  0  0  0  0
  183.0880  179.1290  144.1890 C   0  0  0  0  0  0  0  0  0  0  0  0
  181.0530  177.3050  140.2150 C   0  0  0  0  0  2  0  0  0  0  0  0
  182.2840  177.5050  139.4360 N   0  0  0  0  0  0  0  0  0  0  0  0
  182.1560  178.6790  138.5790 C   0  0  0  0  0  1  0  0  0  0  0  0
  180.7920  178.4350  141.2170 C   0  0  0  0  0  2  0  0  0  0  0  0
  183.4540  177.6440  140.3170 C   0  0  0  0  0  2  0  0  0  0  0  0
  180.6120  178.7570  144.0960 C   0  0  0  0  0  1  0  0  0  0  0  0
  182.0100  178.6590  142.0600 C   0  0  0  0  0  0  0  0  0  0  0  0
  183.3110  178.7890  141.3250 C   0  0  0  0  0  2  0  0  0  0  0  0
  181.9240  178.8390  143.3890 C   0  0  0  0  0  0  0  0  0  0  0  0
  1  4  1  0  0  0  0
  2  1  1  0  0  0  0
  3  7  1  0  0  0  0
  3  1  2  0  0  0  0
  4 10  2  0  0  0  0
  5 29  1  0  0  0  0
  5 10  1  0  0  0  0
  6  8  2  0  0  0  0
  6  9  1  0  0  0  0
  7  5  2  0  0  0  0
  8  3  1  0  0  0  0
  9  2  2  0  0  0  0
 11 17  1  0  0  0  0
 12 13  1  1  0  0  0
 12 18  1  0  0  0  0
 15 14  1  6  0  0  0
 15 12  1  0  0  0  0
 16 18  1  0  0  0  0
 17 16  1  0  0  0  0
 18  6  1  1  0  0  0
 19 15  1  0  0  0  0
 19 17  2  0  0  0  0
 20 11  1  0  0  0  0
 21 20  1  0  0  0  0
 21 26  1  0  0  0  0
 22 27  1  0  0  0  0
 22 26  1  0  0  0  0
 23 25  1  0  0  0  0
 25 24  1  0  0  0  0
 26 24  1  0  0  0  0
 27 23  1  0  0  0  0
 28 25  1  0  0  0  0
 29 30  1  6  0  0  0
 31 29  1  0  0  0  0
 32 31  1  0  0  0  0
 33 32  3  0  0  0  0
 34 37  1  0  0  0  0
 35 34  1  0  0  0  0
 35 38  1  0  0  0  0
 36 35  1  0  0  0  0
 37 40  1  0  0  0  0
 38 41  1  0  0  0  0
 40 42  2  0  0  0  0
 41 40  1  0  0  0  0
 42 39  1  0  0  0  0
 42 33  1  0  0  0  0
M  END
>  <MODEL>
6

>  <REMARK>
 VINA RESULT:      -8.3      4.008      8.421
  Name = 
  8 active torsions:
  status: ('A' for Active; 'I' for Inactive)
    1  A    between atoms: N_4  and  C_5
    2  A    between atoms: N_4  and  C_21
    3  A    between atoms: C_5  and  C_22
    4  A    between atoms: C_6  and  N_9
    5  A    between atoms: C_6  and  O_18
    6  A    between atoms: O_18  and  N_23
    7  A    between atoms: C_25  and  C_37
    8  A    between atoms: C_41  and  C_42
                            x       y       z     vdW  Elec       q    Type
                         _______ _______ _______ _____ _____    ______ ____

>  <TORSDO>
F 8

$$$$
=
 OpenBabel10232410583D

 42 46  0  0  1  0  0  0  0  0999 V2000
  191.3330  177.6300  142.1510 C   0  0  0  0  0  0  0  0  0  0  0  0
  192.1660  177.4980  141.0350 C   0  0  0  0  0  3  0  0  0  0  0  0
  189.9350  177.5390  141.9990 C   0  0  0  0  0  0  0  0  0  0  0  0
  191.8570  177.8510  143.3840 N   0  0  0  0  0  0  0  0  0  0  0  0
  189.6650  177.9060  144.3240 C   0  0  0  0  0  0  0  0  0  0  0  0
  190.2120  177.2000  139.6170 C   0  0  0  0  0  0  0  0  0  0  0  0
  189.1370  177.6670  143.0910 N   0  0  0  0  0  0  0  0  0  0  0  0
  189.3800  177.3210  140.7370 C   0  0  0  0  0  3  0  0  0  0  0  0
  191.6060  177.2820  139.7720 C   0  0  0  0  0  3  0  0  0  0  0  0
  191.0540  177.9880  144.4720 C   0  0  0  0  0  3  0  0  0  0  0  0
  186.0060  177.3260  136.9490 N   0  0  0  0  0  2  0  0  0  0  0  0
  189.8000  175.5460  137.7520 C   0  0  2  0  0  3  0  0  0  0  0  0
  191.2830  175.2140  137.6680 C   0  0  0  0  0  1  0  0  0  0  0  0
  189.1880  174.1220  135.9330 F   0  0  0  0  0  0  0  0  0  0  0  0
  189.1950  175.4380  136.3560 C   0  0  1  0  0  3  0  0  0  0  0  0
  188.1010  177.3020  138.3380 C   0  0  0  0  0  2  0  0  0  0  0  0
  187.3480  176.8630  137.1130 C   0  0  0  0  0  0  0  0  0  0  0  0
  189.5890  176.9720  138.2720 C   0  0  1  0  0  3  0  0  0  0  0  0
  187.8350  175.9740  136.2950 N   0  0  0  0  0  0  0  0  0  0  0  0
  185.2000  176.9960  135.7830 C   0  0  0  0  0  2  0  0  0  0  0  0
  184.3350  175.9400  136.0860 O   0  0  0  0  0  0  0  0  0  0  0  0
  183.3270  175.3610  138.0420 C   0  0  0  0  0  2  0  0  0  0  0  0
  180.9050  175.1500  137.5730 C   0  0  0  0  0  2  0  0  0  0  0  0
  182.2470  176.8440  136.3860 C   0  0  0  0  0  2  0  0  0  0  0  0
  181.2390  175.7720  136.2820 N   0  0  0  0  0  0  0  0  0  0  0  0
  183.5030  176.4240  137.0420 N   0  0  0  0  0  0  0  0  0  0  0  0
  181.9440  175.4040  138.6650 C   0  0  0  0  0  2  0  0  0  0  0  0
  181.7070  174.7360  135.3720 C   0  0  0  0  0  1  0  0  0  0  0  0
  188.7820  178.0390  145.5260 C   0  0  2  0  0  3  0  0  0  0  0  0
  189.5450  177.6280  146.7690 C   0  0  0  0  0  1  0  0  0  0  0  0
  187.5880  177.2110  145.4000 N   0  0  0  0  0  2  0  0  0  0  0  0
  186.3960  177.7110  144.8550 C   0  0  0  0  0  0  0  0  0  0  0  0
  185.3630  178.1210  144.3870 C   0  0  0  0  0  0  0  0  0  0  0  0
  182.3160  178.6250  140.6820 C   0  0  0  0  0  2  0  0  0  0  0  0
  183.4180  178.5730  139.7090 N   0  0  0  0  0  0  0  0  0  0  0  0
  183.7280  179.9140  139.2230 C   0  0  0  0  0  1  0  0  0  0  0  0
  182.6900  179.3760  141.9650 C   0  0  0  0  0  2  0  0  0  0  0  0
  184.6170  177.9530  140.2940 C   0  0  0  0  0  2  0  0  0  0  0  0
  182.9820  178.7910  144.7920 C   0  0  0  0  0  1  0  0  0  0  0  0
  183.9660  178.8240  142.5240 C   0  0  0  0  0  0  0  0  0  0  0  0
  185.1020  178.6700  141.5590 C   0  0  0  0  0  2  0  0  0  0  0  0
  184.1120  178.5820  143.8380 C   0  0  0  0  0  0  0  0  0  0  0  0
  1  4  1  0  0  0  0
  2  1  1  0  0  0  0
  3  1  2  0  0  0  0
  3  7  1  0  0  0  0
  4 10  2  0  0  0  0
  5 10  1  0  0  0  0
  5 29  1  0  0  0  0
  6  9  1  0  0  0  0
  6  8  2  0  0  0  0
  7  5  2  0  0  0  0
  8  3  1  0  0  0  0
  9  2  2  0  0  0  0
 11 17  1  0  0  0  0
 12 13  1  6  0  0  0
 12 18  1  0  0  0  0
 15 14  1  1  0  0  0
 15 12  1  0  0  0  0
 17 16  1  0  0  0  0
 18 16  1  0  0  0  0
 18  6  1  1  0  0  0
 19 15  1  0  0  0  0
 19 17  2  0  0  0  0
 20 21  1  0  0  0  0
 20 11  1  0  0  0  0
 21 26  1  0  0  0  0
 22 27  1  0  0  0  0
 23 27  1  0  0  0  0
 24 26  1  0  0  0  0
 25 24  1  0  0  0  0
 25 23  1  0  0  0  0
 26 22  1  0  0  0  0
 28 25  1  0  0  0  0
 29 30  1  1  0  0  0
 31 29  1  0  0  0  0
 32 31  1  0  0  0  0
 33 32  3  0  0  0  0
 34 37  1  0  0  0  0
 35 38  1  0  0  0  0
 35 34  1  0  0  0  0
 36 35  1  0  0  0  0
 37 40  1  0  0  0  0
 38 41  1  0  0  0  0
 40 42  2  0  0  0  0
 41 40  1  0  0  0  0
 42 33  1  0  0  0  0
 42 39  1  0  0  0  0
M  END
>  <MODEL>
7

>  <REMARK>
 VINA RESULT:      -8.2      2.348      6.164
  Name = 
  8 active torsions:
  status: ('A' for Active; 'I' for Inactive)
    1  A    between atoms: N_4  and  C_5
    2  A    between atoms: N_4  and  C_21
    3  A    between atoms: C_5  and  C_22
    4  A    between atoms: C_6  and  N_9
    5  A    between atoms: C_6  and  O_18
    6  A    between atoms: O_18  and  N_23
    7  A    between atoms: C_25  and  C_37
    8  A    between atoms: C_41  and  C_42
                            x       y       z     vdW  Elec       q    Type
                         _______ _______ _______ _____ _____    ______ ____

>  <TORSDO>
F 8

$$$$
=
 OpenBabel10232410583D

 42 46  0  0  1  0  0  0  0  0999 V2000
  184.2310  178.5680  139.9770 C   0  0  0  0  0  0  0  0  0  0  0  0
  184.4190  178.5620  138.5920 C   0  0  0  0  0  3  0  0  0  0  0  0
  185.3390  178.4410  140.8380 C   0  0  0  0  0  0  0  0  0  0  0  0
  182.9860  178.6900  140.5060 N   0  0  0  0  0  0  0  0  0  0  0  0
  183.8910  178.5550  142.7100 C   0  0  0  0  0  0  0  0  0  0  0  0
  186.8130  178.2890  138.9230 C   0  0  0  0  0  0  0  0  0  0  0  0
  185.1430  178.4500  142.1830 N   0  0  0  0  0  0  0  0  0  0  0  0
  186.6240  178.3070  140.3100 C   0  0  0  0  0  3  0  0  0  0  0  0
  185.7080  178.4250  138.0660 C   0  0  0  0  0  3  0  0  0  0  0  0
  182.7930  178.6890  141.8520 C   0  0  0  0  0  3  0  0  0  0  0  0
  189.6070  176.6670  135.1300 N   0  0  0  0  0  2  0  0  0  0  0  0
  189.1220  177.3400  139.3150 C   0  0  2  0  0  3  0  0  0  0  0  0
  189.1980  177.9930  140.6880 C   0  0  0  0  0  1  0  0  0  0  0  0
  191.3310  176.4330  139.4190 F   0  0  0  0  0  0  0  0  0  0  0  0
  190.5240  177.3050  138.7130 C   0  0  1  0  0  3  0  0  0  0  0  0
  188.1470  177.4860  137.0040 C   0  0  0  0  0  2  0  0  0  0  0  0
  189.4980  177.0650  136.4980 C   0  0  0  0  0  0  0  0  0  0  0  0
  188.2040  178.1380  138.3830 C   0  0  1  0  0  3  0  0  0  0  0  0
  190.5130  176.9210  137.3010 N   0  0  0  0  0  0  0  0  0  0  0  0
  190.8720  176.2790  134.5240 C   0  0  0  0  0  2  0  0  0  0  0  0
  191.2610  175.0220  134.9980 O   0  0  0  0  0  0  0  0  0  0  0  0
  192.6710  173.3590  134.3460 C   0  0  0  0  0  2  0  0  0  0  0  0
  194.5320  173.3070  135.9770 C   0  0  0  0  0  2  0  0  0  0  0  0
  193.4830  175.4550  135.3720 C   0  0  0  0  0  2  0  0  0  0  0  0
  193.9690  174.5790  136.4560 N   0  0  0  0  0  0  0  0  0  0  0  0
  192.4960  174.8120  134.4790 N   0  0  0  0  0  0  0  0  0  0  0  0
  194.1170  172.9480  134.5510 C   0  0  0  0  0  2  0  0  0  0  0  0
  192.8850  174.2900  137.3840 C   0  0  0  0  0  1  0  0  0  0  0  0
  183.6800  178.5720  144.1930 C   0  0  2  0  0  3  0  0  0  0  0  0
  182.3210  179.1630  144.5080 C   0  0  0  0  0  1  0  0  0  0  0  0
  184.7110  179.3520  144.8650 N   0  0  0  0  0  2  0  0  0  0  0  0
  185.8100  178.7440  145.4900 C   0  0  0  0  0  0  0  0  0  0  0  0
  186.7650  178.2380  146.0250 C   0  0  0  0  0  0  0  0  0  0  0  0
  191.4800  177.2270  146.1010 C   0  0  0  0  0  2  0  0  0  0  0  0
  191.5540  177.2370  144.6320 N   0  0  0  0  0  0  0  0  0  0  0  0
  191.5940  175.8710  144.1190 C   0  0  0  0  0  1  0  0  0  0  0  0
  190.1740  176.6240  146.6290 C   0  0  0  0  0  2  0  0  0  0  0  0
  190.4190  177.9680  144.0470 C   0  0  0  0  0  2  0  0  0  0  0  0
  187.8630  177.4970  148.1530 C   0  0  0  0  0  1  0  0  0  0  0  0
  189.0040  177.2890  145.9690 C   0  0  0  0  0  0  0  0  0  0  0  0
  189.0600  177.4020  144.4750 C   0  0  0  0  0  2  0  0  0  0  0  0
  187.9210  177.6660  146.6700 C   0  0  0  0  0  0  0  0  0  0  0  0
  1  4  2  0  0  0  0
  1  3  1  0  0  0  0
  2  1  1  0  0  0  0
  3  7  2  0  0  0  0
  4 10  1  0  0  0  0
  5 29  1  0  0  0  0
  6  8  2  0  0  0  0
  7  5  1  0  0  0  0
  8  3  1  0  0  0  0
  9  2  2  0  0  0  0
  9  6  1  0  0  0  0
 10  5  2  0  0  0  0
 11 17  1  0  0  0  0
 12 13  1  1  0  0  0
 15 12  1  0  0  0  0
 15 14  1  1  0  0  0
 16 18  1  0  0  0  0
 17 16  1  0  0  0  0
 17 19  2  0  0  0  0
 18  6  1  1  0  0  0
 18 12  1  0  0  0  0
 19 15  1  0  0  0  0
 20 21  1  0  0  0  0
 20 11  1  0  0  0  0
 22 26  1  0  0  0  0
 22 27  1  0  0  0  0
 23 25  1  0  0  0  0
 24 25  1  0  0  0  0
 25 28  1  0  0  0  0
 26 21  1  0  0  0  0
 26 24  1  0  0  0  0
 27 23  1  0  0  0  0
 29 30  1  6  0  0  0
 29 31  1  0  0  0  0
 31 32  1  0  0  0  0
 32 33  3  0  0  0  0
 33 42  1  0  0  0  0
 34 37  1  0  0  0  0
 35 34  1  0  0  0  0
 36 35  1  0  0  0  0
 38 41  1  0  0  0  0
 38 35  1  0  0  0  0
 40 37  1  0  0  0  0
 40 42  2  0  0  0  0
 41 40  1  0  0  0  0
 42 39  1  0  0  0  0
M  END
>  <MODEL>
8

>  <REMARK>
 VINA RESULT:      -8.2      3.769      7.986
  Name = 
  8 active torsions:
  status: ('A' for Active; 'I' for Inactive)
    1  A    between atoms: N_4  and  C_5
    2  A    between atoms: N_4  and  C_21
    3  A    between atoms: C_5  and  C_22
    4  A    between atoms: C_6  and  N_9
    5  A    between atoms: C_6  and  O_18
    6  A    between atoms: O_18  and  N_23
    7  A    between atoms: C_25  and  C_37
    8  A    between atoms: C_41  and  C_42
                            x       y       z     vdW  Elec       q    Type
                         _______ _______ _______ _____ _____    ______ ____

>  <TORSDO>
F 8

$$$$
=
 OpenBabel10232410583D

 42 46  0  0  1  0  0  0  0  0999 V2000
  182.7270  177.5330  137.4780 C   0  0  0  0  0  0  0  0  0  0  0  0
  182.8410  177.2920  136.1050 C   0  0  0  0  0  3  0  0  0  0  0  0
  183.8540  177.3940  138.3120 C   0  0  0  0  0  0  0  0  0  0  0  0
  181.5370  177.8980  138.0200 N   0  0  0  0  0  0  0  0  0  0  0  0
  182.5320  177.9810  140.1870 C   0  0  0  0  0  0  0  0  0  0  0  0
  185.1950  176.7590  136.3980 C   0  0  0  0  0  0  0  0  0  0  0  0
  183.7320  177.6330  139.6430 N   0  0  0  0  0  0  0  0  0  0  0  0
  185.0830  177.0130  137.7700 C   0  0  0  0  0  3  0  0  0  0  0  0
  184.0730  176.9080  135.5660 C   0  0  0  0  0  3  0  0  0  0  0  0
  181.4160  178.1270  139.3550 C   0  0  0  0  0  3  0  0  0  0  0  0
  189.4440  174.3090  137.2770 N   0  0  0  0  0  2  0  0  0  0  0  0
  187.3810  177.5340  135.3930 C   0  0  2  0  0  3  0  0  0  0  0  0
  186.6490  178.3610  134.3460 C   0  0  0  0  0  1  0  0  0  0  0  0
  189.5570  178.0450  134.5470 F   0  0  0  0  0  0  0  0  0  0  0  0
  188.6760  177.0060  134.7830 C   0  0  1  0  0  3  0  0  0  0  0  0
  187.2730  175.5120  136.8820 C   0  0  0  0  0  2  0  0  0  0  0  0
  188.7100  175.2690  136.5140 C   0  0  0  0  0  0  0  0  0  0  0  0
  186.5260  176.3450  135.8430 C   0  0  1  0  0  3  0  0  0  0  0  0
  189.3230  176.0040  135.6300 N   0  0  0  0  0  0  0  0  0  0  0  0
  190.8280  173.9660  136.9840 C   0  0  0  0  0  2  0  0  0  0  0  0
  191.6760  174.5760  137.9130 O   0  0  0  0  0  0  0  0  0  0  0  0
  192.5960  175.1110  135.9020 C   0  0  0  0  0  2  0  0  0  0  0  0
  195.0260  175.4050  136.2710 C   0  0  0  0  0  2  0  0  0  0  0  0
  193.4240  176.0600  138.0280 C   0  0  0  0  0  2  0  0  0  0  0  0
  194.6770  175.3540  137.7000 N   0  0  0  0  0  0  0  0  0  0  0  0
  192.2560  175.6040  137.2440 N   0  0  0  0  0  0  0  0  0  0  0  0
  193.8520  175.7710  135.3640 C   0  0  0  0  0  2  0  0  0  0  0  0
  194.5830  173.9590  138.1080 C   0  0  0  0  0  1  0  0  0  0  0  0
  182.4030  178.2520  141.6550 C   0  0  2  0  0  3  0  0  0  0  0  0
  181.0450  178.8570  141.9450 C   0  0  0  0  0  1  0  0  0  0  0  0
  183.4430  179.1610  142.1190 N   0  0  0  0  0  2  0  0  0  0  0  0
  184.4400  178.7490  143.0160 C   0  0  0  0  0  0  0  0  0  0  0  0
  185.2970  178.4130  143.7950 C   0  0  0  0  0  0  0  0  0  0  0  0
  189.9250  177.7460  144.9770 C   0  0  0  0  0  2  0  0  0  0  0  0
  190.2970  177.5060  143.5740 N   0  0  0  0  0  0  0  0  0  0  0  0
  190.4820  176.0780  143.3370 C   0  0  0  0  0  1  0  0  0  0  0  0
  188.5570  177.1580  145.3400 C   0  0  0  0  0  2  0  0  0  0  0  0
  189.2850  178.0480  142.6550 C   0  0  0  0  0  2  0  0  0  0  0  0
  185.9580  178.1260  146.1960 C   0  0  0  0  0  1  0  0  0  0  0  0
  187.5280  177.6190  144.3530 C   0  0  0  0  0  0  0  0  0  0  0  0
  187.8850  177.4760  142.9050 C   0  0  0  0  0  2  0  0  0  0  0  0
  186.3130  178.0390  144.7480 C   0  0  0  0  0  0  0  0  0  0  0  0
  1  4  2  0  0  0  0
  1  3  1  0  0  0  0
  2  1  1  0  0  0  0
  3  7  2  0  0  0  0
  4 10  1  0  0  0  0
  5 29  1  0  0  0  0
  6  8  2  0  0  0  0
  7  5  1  0  0  0  0
  8  3  1  0  0  0  0
  9  2  2  0  0  0  0
  9  6  1  0  0  0  0
 10  5  2  0  0  0  0
 12 13  1  6  0  0  0
 12 18  1  0  0  0  0
 15 14  1  1  0  0  0
 15 12  1  0  0  0  0
 15 19  1  0  0  0  0
 17 16  1  0  0  0  0
 17 11  1  0  0  0  0
 18  6  1  1  0  0  0
 18 16  1  0  0  0  0
 19 17  2  0  0  0  0
 20 11  1  0  0  0  0
 20 21  1  0  0  0  0
 22 26  1  0  0  0  0
 23 25  1  0  0  0  0
 25 24  1  0  0  0  0
 25 28  1  0  0  0  0
 26 21  1  0  0  0  0
 26 24  1  0  0  0  0
 27 22  1  0  0  0  0
 27 23  1  0  0  0  0
 29 30  1  6  0  0  0
 29 31  1  0  0  0  0
 31 32  1  0  0  0  0
 32 33  3  0  0  0  0
 33 42  1  0  0  0  0
 34 37  1  0  0  0  0
 35 34  1  0  0  0  0
 36 35  1  0  0  0  0
 38 41  1  0  0  0  0
 38 35  1  0  0  0  0
 40 42  2  0  0  0  0
 40 37  1  0  0  0  0
 41 40  1  0  0  0  0
 42 39  1  0  0  0  0
M  END
>  <MODEL>
9

>  <REMARK>
 VINA RESULT:      -8.1      3.615      8.831
  Name = 
  8 active torsions:
  status: ('A' for Active; 'I' for Inactive)
    1  A    between atoms: N_4  and  C_5
    2  A    between atoms: N_4  and  C_21
    3  A    between atoms: C_5  and  C_22
    4  A    between atoms: C_6  and  N_9
    5  A    between atoms: C_6  and  O_18
    6  A    between atoms: O_18  and  N_23
    7  A    between atoms: C_25  and  C_37
    8  A    between atoms: C_41  and  C_42
                            x       y       z     vdW  Elec       q    Type
                         _______ _______ _______ _____ _____    ______ ____

>  <TORSDO>
F 8

$$$$
