=
 OpenBabel10232410533D

 49 54  0  0  1  0  0  0  0  0999 V2000
  189.6550  178.0620  140.7090 C   0  0  2  0  0  3  0  0  0  0  0  0
  188.5960  176.7260  138.9610 C   0  0  0  0  0  2  0  0  0  0  0  0
  187.8960  177.9970  139.2790 C   0  0  0  0  0  0  0  0  0  0  0  0
  186.6880  178.4250  138.6410 N   0  0  0  0  0  2  0  0  0  0  0  0
  188.4570  178.7120  140.1930 N   0  0  0  0  0  0  0  0  0  0  0  0
  189.8040  176.7670  139.8980 C   0  0  1  0  0  3  0  0  0  0  0  0
  190.5600  177.4420  142.9390 C   0  0  0  0  0  3  0  0  0  0  0  0
  189.5090  177.7610  142.1770 C   0  0  0  0  0  3  0  0  0  0  0  0
  190.4010  177.1670  144.4000 C   0  0  0  0  0  2  0  0  0  0  0  0
  191.6570  177.4130  145.0940 N   0  0  0  0  0  2  0  0  0  0  0  0
  191.7170  176.4670  146.1940 C   0  0  0  0  0  1  0  0  0  0  0  0
  186.0110  177.5920  137.6510 C   0  0  2  0  0  3  0  0  0  0  0  0
  185.6210  177.3110  135.2120 C   0  0  0  0  0  1  0  0  0  0  0  0
  186.5610  177.8790  136.2670 C   0  0  0  0  0  2  0  0  0  0  0  0
  184.5650  177.8360  137.6750 N   0  0  0  0  0  2  0  0  0  0  0  0
  184.2700  178.6020  138.8170 N   0  0  0  0  0  2  0  0  0  0  0  0
  183.7170  177.7060  139.8250 C   0  0  0  0  0  2  0  0  0  0  0  0
  182.0690  179.1360  140.7580 O   0  0  0  0  0  0  0  0  0  0  0  0
  183.1510  178.5170  140.9460 C   0  0  0  0  0  0  0  0  0  0  0  0
  183.0480  178.8490  143.4190 C   0  0  0  0  0  3  0  0  0  0  0  0
  185.0300  178.6230  144.8110 C   0  0  0  0  0  0  0  0  0  0  0  0
  183.6580  178.8840  144.6780 C   0  0  0  0  0  3  0  0  0  0  0  0
  183.8020  178.5510  142.2720 C   0  0  0  0  0  0  0  0  0  0  0  0
  185.7860  178.3300  143.6640 C   0  0  0  0  0  3  0  0  0  0  0  0
  185.1770  178.2930  142.4040 C   0  0  0  0  0  3  0  0  0  0  0  0
  185.6420  178.6550  146.1090 N   0  0  0  0  0  0  0  0  0  0  0  0
  185.5900  179.7840  146.8480 O   0  0  0  0  0  1  0  0  0  0  0  0
  186.4030  177.5170  146.6120 C   0  0  0  0  0  2  0  0  0  0  0  0
  188.5340  176.8090  147.6520 C   0  0  0  0  0  2  0  0  0  0  0  0
  187.9530  177.9340  148.4750 C   0  0  0  0  0  2  0  0  0  0  0  0
  187.8150  177.9500  146.9690 C   0  0  0  0  0  3  0  0  0  0  0  0
  191.1350  176.7290  139.1380 C   0  0  0  0  0  2  0  0  0  0  0  0
  191.0430  175.9930  137.8050 C   0  0  0  0  0  2  0  0  0  0  0  0
  191.7230  174.7780  137.8930 O   0  0  0  0  0  0  0  0  0  0  0  0
  191.3020  174.0330  136.7920 C   0  0  0  0  0  2  0  0  0  0  0  0
  192.5110  173.4120  136.1150 C   0  0  0  0  0  2  0  0  0  0  0  0
  193.6480  173.2440  137.1100 C   0  0  0  0  0  2  0  0  0  0  0  0
  195.4610  170.7060  136.7020 C   0  0  0  0  0  2  0  0  0  0  0  0
  194.9770  173.2940  136.3800 C   0  0  2  0  0  3  0  0  0  0  0  0
  195.8680  172.1590  136.8110 C   0  0  0  0  0  0  0  0  0  0  0  0
  196.7650  174.0900  137.8790 C   0  0  1  0  0  3  0  0  0  0  0  0
  195.7640  174.5260  136.8010 C   0  0  0  0  0  2  0  0  0  0  0  0
  197.0210  172.6040  137.6680 C   0  0  0  0  0  2  0  0  0  0  0  0
  196.3400  171.3310  135.6330 C   0  0  0  0  0  2  0  0  0  0  0  0
  199.2200  173.9900  137.3960 C   0  0  0  0  0  2  0  0  0  0  0  0
  199.7740  174.9160  139.3240 C   0  0  0  0  0  2  0  0  0  0  0  0
  198.4200  175.4120  139.0980 N   0  0  0  0  0  2  0  0  0  0  0  0
  199.9780  173.7630  138.5510 O   0  0  0  0  0  0  0  0  0  0  0  0
  198.0640  174.8890  137.7920 C   0  0  2  0  0  3  0  0  0  0  0  0
  1  8  1  1  0  0  0
  2  3  1  0  0  0  0
  2  6  1  0  0  0  0
  3  5  2  0  0  0  0
  4  3  1  0  0  0  0
  5  1  1  0  0  0  0
  6 32  1  6  0  0  0
  6  1  1  0  0  0  0
  7  9  1  0  0  0  0
  8  7  2  0  0  0  0
  9 10  1  0  0  0  0
 10 11  1  0  0  0  0
 12 14  1  6  0  0  0
 12 15  1  0  0  0  0
 12  4  1  0  0  0  0
 13 14  1  0  0  0  0
 15 16  1  0  0  0  0
 16 17  1  0  0  0  0
 17 19  1  0  0  0  0
 18 19  2  0  0  0  0
 19 23  1  0  0  0  0
 20 22  1  0  0  0  0
 21 26  1  0  0  0  0
 22 21  2  0  0  0  0
 23 25  1  0  0  0  0
 23 20  2  0  0  0  0
 24 21  1  0  0  0  0
 25 24  2  0  0  0  0
 26 28  1  0  0  0  0
 26 27  1  0  0  0  0
 28 31  1  0  0  0  0
 29 30  1  0  0  0  0
 31 29  1  0  0  0  0
 31 30  1  0  0  0  0
 33 34  1  0  0  0  0
 33 32  1  0  0  0  0
 35 34  1  0  0  0  0
 36 35  1  0  0  0  0
 36 37  1  0  0  0  0
 38 40  1  0  0  0  0
 39 42  1  0  0  0  0
 39 40  1  0  0  0  0
 39 37  1  1  0  0  0
 40 43  1  0  0  0  0
 41 42  1  6  0  0  0
 43 41  1  0  0  0  0
 44 38  1  0  0  0  0
 44 40  1  0  0  0  0
 45 48  1  0  0  0  0
 47 46  1  0  0  0  0
 48 46  1  0  0  0  0
 49 45  1  1  0  0  0
 49 41  1  0  0  0  0
 49 47  1  0  0  0  0
M  END
>  <MODEL>
1

>  <REMARK>
 VINA RESULT:      -7.4      0.000      0.000
  Name = 
  21 active torsions:
  status: ('A' for Active; 'I' for Inactive)
    1  A    between atoms: C_1  and  N_9
    2  A    between atoms: C_1  and  C_35
    3  A    between atoms: C_4  and  O_23
    4  A    between atoms: C_4  and  C_31
    5  A    between atoms: C_7  and  C_38
    6  A    between atoms: C_8  and  C_12
    7  A    between atoms: N_9  and  N_24
    8  A    between atoms: C_11  and  N_13
    9  A    between atoms: N_13  and  C_33
   10  A    between atoms: C_16  and  C_21
   11  A    between atoms: C_17  and  C_35
   12  A    between atoms: C_20  and  C_21
   13  A    between atoms: C_20  and  C_22
   14  A    between atoms: C_22  and  O_23
   15  A    between atoms: N_24  and  C_48
   16  A    between atoms: C_25  and  C_47
   17  A    between atoms: N_29  and  C_48
   18  A    between atoms: C_31  and  C_45
   19  A    between atoms: C_33  and  C_41
   20  A    between atoms: N_36  and  C_38
   21  A    between atoms: C_46  and  C_48
                            x       y       z     vdW  Elec       q    Type
                         _______ _______ _______ _____ _____    ______ ____

>  <TORSDO>
F 21

$$$$
=
 OpenBabel10232410533D

 49 54  0  0  1  0  0  0  0  0999 V2000
  190.1800  176.6640  141.3160 C   0  0  2  0  0  3  0  0  0  0  0  0
  191.2470  177.8730  143.1490 C   0  0  0  0  0  2  0  0  0  0  0  0
  190.3680  176.7540  143.5740 C   0  0  0  0  0  0  0  0  0  0  0  0
  190.1340  176.3980  144.9410 N   0  0  0  0  0  2  0  0  0  0  0  0
  189.8110  176.1050  142.6100 N   0  0  0  0  0  0  0  0  0  0  0  0
  191.1560  177.8100  141.6240 C   0  0  1  0  0  3  0  0  0  0  0  0
  188.9160  177.2440  139.2560 C   0  0  0  0  0  3  0  0  0  0  0  0
  188.9640  177.1770  140.5900 C   0  0  0  0  0  3  0  0  0  0  0  0
  187.6940  177.7350  138.5500 C   0  0  0  0  0  2  0  0  0  0  0  0
  188.0600  178.7370  137.5580 N   0  0  0  0  0  2  0  0  0  0  0  0
  189.4160  178.4300  137.1380 C   0  0  0  0  0  1  0  0  0  0  0  0
  190.7090  177.1680  146.0400 C   0  0  2  0  0  3  0  0  0  0  0  0
  192.3070  175.4180  146.7920 C   0  0  0  0  0  1  0  0  0  0  0  0
  191.0860  176.2420  147.1810 C   0  0  0  0  0  2  0  0  0  0  0  0
  189.7590  178.1800  146.5120 N   0  0  0  0  0  2  0  0  0  0  0  0
  189.0690  177.6500  147.6170 N   0  0  0  0  0  2  0  0  0  0  0  0
  187.8090  177.0980  147.1340 C   0  0  0  0  0  2  0  0  0  0  0  0
  186.6430  179.0990  147.6530 O   0  0  0  0  0  0  0  0  0  0  0  0
  186.8840  178.2190  146.7830 C   0  0  0  0  0  0  0  0  0  0  0  0
  186.9410  177.7310  144.3350 C   0  0  0  0  0  3  0  0  0  0  0  0
  185.2150  178.5630  142.8360 C   0  0  0  0  0  0  0  0  0  0  0  0
  186.3990  177.8410  143.0500 C   0  0  0  0  0  3  0  0  0  0  0  0
  186.3050  178.3410  145.4290 C   0  0  0  0  0  0  0  0  0  0  0  0
  184.5810  179.1780  143.9290 C   0  0  0  0  0  3  0  0  0  0  0  0
  185.1210  179.0670  145.2160 C   0  0  0  0  0  3  0  0  0  0  0  0
  184.6650  178.6630  141.5140 N   0  0  0  0  0  0  0  0  0  0  0  0
  185.1400  179.5940  140.6590 O   0  0  0  0  0  1  0  0  0  0  0  0
  183.5360  177.8370  141.1030 C   0  0  0  0  0  2  0  0  0  0  0  0
  181.1720  177.9020  140.3730 C   0  0  0  0  0  2  0  0  0  0  0  0
  182.0510  178.1160  139.1630 C   0  0  0  0  0  2  0  0  0  0  0  0
  182.4470  178.7060  140.4980 C   0  0  0  0  0  3  0  0  0  0  0  0
  192.5200  177.5780  140.9640 C   0  0  0  0  0  2  0  0  0  0  0  0
  192.4710  177.6640  139.4420 C   0  0  0  0  0  2  0  0  0  0  0  0
  193.2910  176.6790  138.8910 O   0  0  0  0  0  0  0  0  0  0  0  0
  192.4590  175.9140  138.0730 C   0  0  0  0  0  2  0  0  0  0  0  0
  193.2140  174.6840  137.6020 C   0  0  0  0  0  2  0  0  0  0  0  0
  194.6480  175.0450  137.2460 C   0  0  0  0  0  2  0  0  0  0  0  0
  197.7280  174.8880  136.6250 C   0  0  0  0  0  2  0  0  0  0  0  0
  195.6040  174.1880  138.0530 C   0  0  2  0  0  3  0  0  0  0  0  0
  196.8260  173.8410  137.2430 C   0  0  0  0  0  0  0  0  0  0  0  0
  195.5280  171.8450  137.2900 C   0  0  1  0  0  3  0  0  0  0  0  0
  194.9830  172.8280  138.3350 C   0  0  0  0  0  2  0  0  0  0  0  0
  196.8650  172.4000  136.8160 C   0  0  0  0  0  2  0  0  0  0  0  0
  198.1060  174.2460  137.9480 C   0  0  0  0  0  2  0  0  0  0  0  0
  196.9760  169.8040  137.3800 C   0  0  0  0  0  2  0  0  0  0  0  0
  195.3330  168.4470  136.7960 C   0  0  0  0  0  2  0  0  0  0  0  0
  194.6300  169.5740  137.4000 N   0  0  0  0  0  2  0  0  0  0  0  0
  196.6180  168.8580  136.4120 O   0  0  0  0  0  0  0  0  0  0  0  0
  195.6920  170.4420  137.8740 C   0  0  2  0  0  3  0  0  0  0  0  0
  1  8  1  1  0  0  0
  1  6  1  0  0  0  0
  1  5  1  0  0  0  0
  2  3  1  0  0  0  0
  3  4  1  0  0  0  0
  4 12  1  0  0  0  0
  5  3  2  0  0  0  0
  6 32  1  6  0  0  0
  6  2  1  0  0  0  0
  7  8  2  0  0  0  0
  9  7  1  0  0  0  0
 10  9  1  0  0  0  0
 11 10  1  0  0  0  0
 12 15  1  0  0  0  0
 12 14  1  1  0  0  0
 13 14  1  0  0  0  0
 15 16  1  0  0  0  0
 17 16  1  0  0  0  0
 19 17  1  0  0  0  0
 19 18  2  0  0  0  0
 20 23  1  0  0  0  0
 21 22  1  0  0  0  0
 21 24  2  0  0  0  0
 22 20  2  0  0  0  0
 23 19  1  0  0  0  0
 24 25  1  0  0  0  0
 25 23  2  0  0  0  0
 26 21  1  0  0  0  0
 27 26  1  0  0  0  0
 28 26  1  0  0  0  0
 29 31  1  0  0  0  0
 30 29  1  0  0  0  0
 30 31  1  0  0  0  0
 31 28  1  0  0  0  0
 33 32  1  0  0  0  0
 34 33  1  0  0  0  0
 35 34  1  0  0  0  0
 36 35  1  0  0  0  0
 37 36  1  0  0  0  0
 38 40  1  0  0  0  0
 38 44  1  0  0  0  0
 39 37  1  6  0  0  0
 39 42  1  0  0  0  0
 40 44  1  0  0  0  0
 40 39  1  0  0  0  0
 41 43  1  1  0  0  0
 41 49  1  0  0  0  0
 41 42  1  0  0  0  0
 43 40  1  0  0  0  0
 46 47  1  0  0  0  0
 47 49  1  0  0  0  0
 48 46  1  0  0  0  0
 48 45  1  0  0  0  0
 49 45  1  6  0  0  0
M  END
>  <MODEL>
2

>  <REMARK>
 VINA RESULT:      -7.2      2.230      6.275
  Name = 
  21 active torsions:
  status: ('A' for Active; 'I' for Inactive)
    1  A    between atoms: C_1  and  N_9
    2  A    between atoms: C_1  and  C_35
    3  A    between atoms: C_4  and  O_23
    4  A    between atoms: C_4  and  C_31
    5  A    between atoms: C_7  and  C_38
    6  A    between atoms: C_8  and  C_12
    7  A    between atoms: N_9  and  N_24
    8  A    between atoms: C_11  and  N_13
    9  A    between atoms: N_13  and  C_33
   10  A    between atoms: C_16  and  C_21
   11  A    between atoms: C_17  and  C_35
   12  A    between atoms: C_20  and  C_21
   13  A    between atoms: C_20  and  C_22
   14  A    between atoms: C_22  and  O_23
   15  A    between atoms: N_24  and  C_48
   16  A    between atoms: C_25  and  C_47
   17  A    between atoms: N_29  and  C_48
   18  A    between atoms: C_31  and  C_45
   19  A    between atoms: C_33  and  C_41
   20  A    between atoms: N_36  and  C_38
   21  A    between atoms: C_46  and  C_48
                            x       y       z     vdW  Elec       q    Type
                         _______ _______ _______ _____ _____    ______ ____

>  <TORSDO>
F 21

$$$$
=
 OpenBabel10232410533D

 49 54  0  0  1  0  0  0  0  0999 V2000
  183.7010  179.3680  139.6510 C   0  0  2  0  0  3  0  0  0  0  0  0
  185.7250  178.0240  139.8930 C   0  0  0  0  0  2  0  0  0  0  0  0
  185.5520  178.6500  138.5570 C   0  0  0  0  0  0  0  0  0  0  0  0
  186.4740  178.4860  137.4740 N   0  0  0  0  0  2  0  0  0  0  0  0
  184.4920  179.3710  138.4280 N   0  0  0  0  0  0  0  0  0  0  0  0
  184.4960  178.5220  140.6560 C   0  0  1  0  0  3  0  0  0  0  0  0
  182.1340  177.4500  139.4410 C   0  0  0  0  0  3  0  0  0  0  0  0
  182.3400  178.7700  139.4070 C   0  0  0  0  0  3  0  0  0  0  0  0
  180.7730  176.8740  139.2170 C   0  0  0  0  0  2  0  0  0  0  0  0
  180.8800  175.4660  138.8600 N   0  0  0  0  0  2  0  0  0  0  0  0
  182.0420  175.3430  137.9980 C   0  0  0  0  0  1  0  0  0  0  0  0
  187.6430  177.6200  137.5920 C   0  0  2  0  0  3  0  0  0  0  0  0
  189.3290  178.5830  139.1450 C   0  0  0  0  0  1  0  0  0  0  0  0
  188.9030  178.4600  137.6880 C   0  0  0  0  0  2  0  0  0  0  0  0
  187.7330  176.7160  136.4400 N   0  0  0  0  0  2  0  0  0  0  0  0
  189.0430  176.7850  135.9320 N   0  0  0  0  0  2  0  0  0  0  0  0
  189.4730  175.4270  135.6220 C   0  0  0  0  0  2  0  0  0  0  0  0
  189.8510  174.4100  137.7330 O   0  0  0  0  0  0  0  0  0  0  0  0
  190.3710  174.9360  136.7120 C   0  0  0  0  0  0  0  0  0  0  0  0
  192.5970  173.8190  136.5290 C   0  0  0  0  0  3  0  0  0  0  0  0
  194.6500  175.1090  136.3350 C   0  0  0  0  0  0  0  0  0  0  0  0
  193.9900  173.8730  136.4050 C   0  0  0  0  0  3  0  0  0  0  0  0
  191.8420  175.0010  136.5820 C   0  0  0  0  0  0  0  0  0  0  0  0
  193.8960  176.2920  136.3930 C   0  0  0  0  0  3  0  0  0  0  0  0
  192.5030  176.2400  136.5140 C   0  0  0  0  0  3  0  0  0  0  0  0
  196.0790  175.1510  136.2010 N   0  0  0  0  0  0  0  0  0  0  0  0
  196.6870  176.3090  135.8660 O   0  0  0  0  0  1  0  0  0  0  0  0
  196.8840  173.9420  136.3310 C   0  0  0  0  0  2  0  0  0  0  0  0
  199.3200  173.6940  135.9710 C   0  0  0  0  0  2  0  0  0  0  0  0
  198.9570  173.0040  137.2650 C   0  0  0  0  0  2  0  0  0  0  0  0
  198.2610  174.2880  136.8730 C   0  0  0  0  0  3  0  0  0  0  0  0
  184.8700  179.3330  141.9020 C   0  0  0  0  0  2  0  0  0  0  0  0
  184.5620  178.6030  143.2060 C   0  0  0  0  0  2  0  0  0  0  0  0
  184.6630  179.4920  144.2760 O   0  0  0  0  0  0  0  0  0  0  0  0
  183.9070  178.9290  145.3030 C   0  0  0  0  0  2  0  0  0  0  0  0
  184.8290  178.5220  146.4390 C   0  0  0  0  0  2  0  0  0  0  0  0
  186.2790  178.7840  146.0640 C   0  0  0  0  0  2  0  0  0  0  0  0
  188.2040  178.2990  148.5050 C   0  0  0  0  0  2  0  0  0  0  0  0
  187.0870  177.5110  146.2310 C   0  0  2  0  0  3  0  0  0  0  0  0
  188.2960  177.7540  147.0960 C   0  0  0  0  0  0  0  0  0  0  0  0
  189.1440  177.6030  144.8750 C   0  0  1  0  0  3  0  0  0  0  0  0
  187.6960  177.0960  144.9000 C   0  0  0  0  0  2  0  0  0  0  0  0
  189.5870  177.7440  146.3260 C   0  0  0  0  0  2  0  0  0  0  0  0
  188.3470  176.8050  148.2770 C   0  0  0  0  0  2  0  0  0  0  0  0
  191.3350  177.3480  143.6880 C   0  0  0  0  0  2  0  0  0  0  0  0
  190.3980  176.5740  141.8430 C   0  0  0  0  0  2  0  0  0  0  0  0
  189.4270  176.2270  142.8760 N   0  0  0  0  0  2  0  0  0  0  0  0
  191.2260  177.6030  142.3160 O   0  0  0  0  0  0  0  0  0  0  0  0
  190.0590  176.6460  144.1130 C   0  0  2  0  0  3  0  0  0  0  0  0
  1  8  1  6  0  0  0
  1  6  1  0  0  0  0
  2  6  1  0  0  0  0
  3  2  1  0  0  0  0
  4 12  1  0  0  0  0
  4  3  1  0  0  0  0
  5  3  2  0  0  0  0
  5  1  1  0  0  0  0
  6 32  1  1  0  0  0
  8  7  2  0  0  0  0
  9  7  1  0  0  0  0
 10  9  1  0  0  0  0
 11 10  1  0  0  0  0
 12 14  1  6  0  0  0
 14 13  1  0  0  0  0
 15 12  1  0  0  0  0
 16 15  1  0  0  0  0
 17 16  1  0  0  0  0
 17 19  1  0  0  0  0
 19 18  2  0  0  0  0
 20 23  1  0  0  0  0
 21 24  2  0  0  0  0
 21 22  1  0  0  0  0
 22 20  2  0  0  0  0
 23 19  1  0  0  0  0
 24 25  1  0  0  0  0
 25 23  2  0  0  0  0
 26 28  1  0  0  0  0
 26 21  1  0  0  0  0
 27 26  1  0  0  0  0
 28 31  1  0  0  0  0
 29 31  1  0  0  0  0
 29 30  1  0  0  0  0
 31 30  1  0  0  0  0
 32 33  1  0  0  0  0
 33 34  1  0  0  0  0
 34 35  1  0  0  0  0
 35 36  1  0  0  0  0
 37 36  1  0  0  0  0
 39 37  1  6  0  0  0
 39 40  1  0  0  0  0
 40 44  1  0  0  0  0
 40 38  1  0  0  0  0
 41 42  1  1  0  0  0
 41 43  1  0  0  0  0
 42 39  1  0  0  0  0
 43 40  1  0  0  0  0
 44 38  1  0  0  0  0
 46 48  1  0  0  0  0
 46 47  1  0  0  0  0
 47 49  1  0  0  0  0
 48 45  1  0  0  0  0
 49 45  1  6  0  0  0
 49 41  1  0  0  0  0
M  END
>  <MODEL>
3

>  <REMARK>
 VINA RESULT:      -7.2      2.195     10.971
  Name = 
  21 active torsions:
  status: ('A' for Active; 'I' for Inactive)
    1  A    between atoms: C_1  and  N_9
    2  A    between atoms: C_1  and  C_35
    3  A    between atoms: C_4  and  O_23
    4  A    between atoms: C_4  and  C_31
    5  A    between atoms: C_7  and  C_38
    6  A    between atoms: C_8  and  C_12
    7  A    between atoms: N_9  and  N_24
    8  A    between atoms: C_11  and  N_13
    9  A    between atoms: N_13  and  C_33
   10  A    between atoms: C_16  and  C_21
   11  A    between atoms: C_17  and  C_35
   12  A    between atoms: C_20  and  C_21
   13  A    between atoms: C_20  and  C_22
   14  A    between atoms: C_22  and  O_23
   15  A    between atoms: N_24  and  C_48
   16  A    between atoms: C_25  and  C_47
   17  A    between atoms: N_29  and  C_48
   18  A    between atoms: C_31  and  C_45
   19  A    between atoms: C_33  and  C_41
   20  A    between atoms: N_36  and  C_38
   21  A    between atoms: C_46  and  C_48
                            x       y       z     vdW  Elec       q    Type
                         _______ _______ _______ _____ _____    ______ ____

>  <TORSDO>
F 21

$$$$
=
 OpenBabel10232410533D

 49 54  0  0  1  0  0  0  0  0999 V2000
  190.7600  177.9610  141.8230 C   0  0  2  0  0  3  0  0  0  0  0  0
  189.8720  177.1600  139.6940 C   0  0  0  0  0  2  0  0  0  0  0  0
  188.9690  178.0760  140.4360 C   0  0  0  0  0  0  0  0  0  0  0  0
  187.6710  178.4640  139.9740 N   0  0  0  0  0  2  0  0  0  0  0  0
  189.4370  178.5110  141.5550 N   0  0  0  0  0  0  0  0  0  0  0  0
  191.1010  177.0930  140.6020 C   0  0  1  0  0  3  0  0  0  0  0  0
  191.7030  176.2340  143.3420 C   0  0  0  0  0  3  0  0  0  0  0  0
  190.7500  177.1350  143.0820 C   0  0  0  0  0  3  0  0  0  0  0  0
  191.6890  175.4370  144.6060 C   0  0  0  0  0  2  0  0  0  0  0  0
  191.8000  176.3240  145.7550 N   0  0  0  0  0  2  0  0  0  0  0  0
  192.2560  175.5090  146.8680 C   0  0  0  0  0  1  0  0  0  0  0  0
  187.1070  177.9260  138.7400 C   0  0  2  0  0  3  0  0  0  0  0  0
  186.9960  178.3250  136.2880 C   0  0  0  0  0  1  0  0  0  0  0  0
  187.8460  178.4910  137.5410 C   0  0  0  0  0  2  0  0  0  0  0  0
  185.6790  178.2470  138.6430 N   0  0  0  0  0  2  0  0  0  0  0  0
  185.4050  179.2940  139.5410 N   0  0  0  0  0  2  0  0  0  0  0  0
  183.9810  179.2560  139.8500 C   0  0  0  0  0  2  0  0  0  0  0  0
  183.0610  177.1840  140.5550 O   0  0  0  0  0  0  0  0  0  0  0  0
  183.7300  178.2020  140.8810 C   0  0  0  0  0  0  0  0  0  0  0  0
  185.6190  177.8980  142.4850 C   0  0  0  0  0  3  0  0  0  0  0  0
  185.4000  178.5040  144.8310 C   0  0  0  0  0  0  0  0  0  0  0  0
  186.1650  177.9970  143.7700 C   0  0  0  0  0  3  0  0  0  0  0  0
  184.2990  178.3090  142.2410 C   0  0  0  0  0  0  0  0  0  0  0  0
  184.0770  178.9100  144.5880 C   0  0  0  0  0  3  0  0  0  0  0  0
  183.5300  178.8150  143.3030 C   0  0  0  0  0  3  0  0  0  0  0  0
  185.9740  178.6060  146.1430 N   0  0  0  0  0  0  0  0  0  0  0  0
  185.2180  179.0470  147.1720 O   0  0  0  0  0  1  0  0  0  0  0  0
  187.3870  178.3310  146.3710 C   0  0  0  0  0  2  0  0  0  0  0  0
  188.3540  178.1680  148.6430 C   0  0  0  0  0  2  0  0  0  0  0  0
  189.0260  177.1390  147.7640 C   0  0  0  0  0  2  0  0  0  0  0  0
  187.5540  177.4370  147.5880 C   0  0  0  0  0  3  0  0  0  0  0  0
  192.3740  177.5830  139.9030 C   0  0  0  0  0  2  0  0  0  0  0  0
  193.0280  176.5140  139.0340 C   0  0  0  0  0  2  0  0  0  0  0  0
  192.4840  176.5550  137.7500 O   0  0  0  0  0  0  0  0  0  0  0  0
  193.5460  176.2990  136.8840 C   0  0  0  0  0  2  0  0  0  0  0  0
  193.1080  175.2910  135.8370 C   0  0  0  0  0  2  0  0  0  0  0  0
  194.2950  174.4630  135.3680 C   0  0  0  0  0  2  0  0  0  0  0  0
  197.3660  175.1170  135.1720 C   0  0  0  0  0  2  0  0  0  0  0  0
  195.2550  174.2490  136.5240 C   0  0  2  0  0  3  0  0  0  0  0  0
  196.6650  174.0800  136.0230 C   0  0  0  0  0  0  0  0  0  0  0  0
  195.9620  171.8900  136.6400 C   0  0  1  0  0  3  0  0  0  0  0  0
  194.9710  172.9180  137.2030 C   0  0  0  0  0  2  0  0  0  0  0  0
  197.1720  172.6700  136.1430 C   0  0  0  0  0  2  0  0  0  0  0  0
  197.6160  175.0680  136.6690 C   0  0  0  0  0  2  0  0  0  0  0  0
  196.9640  169.6310  137.0490 C   0  0  0  0  0  2  0  0  0  0  0  0
  195.2470  168.9390  138.2540 C   0  0  0  0  0  2  0  0  0  0  0  0
  195.1940  170.3890  138.4090 N   0  0  0  0  0  2  0  0  0  0  0  0
  195.9930  168.6250  137.1090 O   0  0  0  0  0  0  0  0  0  0  0  0
  196.3660  170.8650  137.6990 C   0  0  2  0  0  3  0  0  0  0  0  0
  1  8  1  1  0  0  0
  2  3  1  0  0  0  0
  2  6  1  0  0  0  0
  3  5  2  0  0  0  0
  4  3  1  0  0  0  0
  5  1  1  0  0  0  0
  6 32  1  6  0  0  0
  6  1  1  0  0  0  0
  7  9  1  0  0  0  0
  8  7  2  0  0  0  0
  9 10  1  0  0  0  0
 10 11  1  0  0  0  0
 12 14  1  6  0  0  0
 12  4  1  0  0  0  0
 13 14  1  0  0  0  0
 15 12  1  0  0  0  0
 15 16  1  0  0  0  0
 16 17  1  0  0  0  0
 17 19  1  0  0  0  0
 18 19  2  0  0  0  0
 19 23  1  0  0  0  0
 20 22  1  0  0  0  0
 21 26  1  0  0  0  0
 22 21  2  0  0  0  0
 23 20  2  0  0  0  0
 23 25  1  0  0  0  0
 24 21  1  0  0  0  0
 25 24  2  0  0  0  0
 26 28  1  0  0  0  0
 26 27  1  0  0  0  0
 28 31  1  0  0  0  0
 30 29  1  0  0  0  0
 31 30  1  0  0  0  0
 31 29  1  0  0  0  0
 33 32  1  0  0  0  0
 34 33  1  0  0  0  0
 35 34  1  0  0  0  0
 36 35  1  0  0  0  0
 37 36  1  0  0  0  0
 38 40  1  0  0  0  0
 38 44  1  0  0  0  0
 39 37  1  6  0  0  0
 39 42  1  0  0  0  0
 40 43  1  0  0  0  0
 40 39  1  0  0  0  0
 40 44  1  0  0  0  0
 41 43  1  1  0  0  0
 41 42  1  0  0  0  0
 41 49  1  0  0  0  0
 45 48  1  0  0  0  0
 46 47  1  0  0  0  0
 48 46  1  0  0  0  0
 49 45  1  6  0  0  0
 49 47  1  0  0  0  0
M  END
>  <MODEL>
4

>  <REMARK>
 VINA RESULT:      -7.0      1.848      2.703
  Name = 
  21 active torsions:
  status: ('A' for Active; 'I' for Inactive)
    1  A    between atoms: C_1  and  N_9
    2  A    between atoms: C_1  and  C_35
    3  A    between atoms: C_4  and  O_23
    4  A    between atoms: C_4  and  C_31
    5  A    between atoms: C_7  and  C_38
    6  A    between atoms: C_8  and  C_12
    7  A    between atoms: N_9  and  N_24
    8  A    between atoms: C_11  and  N_13
    9  A    between atoms: N_13  and  C_33
   10  A    between atoms: C_16  and  C_21
   11  A    between atoms: C_17  and  C_35
   12  A    between atoms: C_20  and  C_21
   13  A    between atoms: C_20  and  C_22
   14  A    between atoms: C_22  and  O_23
   15  A    between atoms: N_24  and  C_48
   16  A    between atoms: C_25  and  C_47
   17  A    between atoms: N_29  and  C_48
   18  A    between atoms: C_31  and  C_45
   19  A    between atoms: C_33  and  C_41
   20  A    between atoms: N_36  and  C_38
   21  A    between atoms: C_46  and  C_48
                            x       y       z     vdW  Elec       q    Type
                         _______ _______ _______ _____ _____    ______ ____

>  <TORSDO>
F 21

$$$$
=
 OpenBabel10232410533D

 49 54  0  0  1  0  0  0  0  0999 V2000
  187.6620  177.8450  138.0200 C   0  0  2  0  0  3  0  0  0  0  0  0
  185.3550  177.0790  137.7860 C   0  0  0  0  0  2  0  0  0  0  0  0
  185.5390  178.2120  138.7290 C   0  0  0  0  0  0  0  0  0  0  0  0
  184.4730  178.8170  139.4670 N   0  0  0  0  0  2  0  0  0  0  0  0
  186.7530  178.6280  138.8470 N   0  0  0  0  0  0  0  0  0  0  0  0
  186.7760  176.8360  137.2740 C   0  0  1  0  0  3  0  0  0  0  0  0
  188.9500  177.5240  140.1210 C   0  0  0  0  0  3  0  0  0  0  0  0
  188.6820  177.1360  138.8700 C   0  0  0  0  0  3  0  0  0  0  0  0
  189.9510  176.7960  140.9590 C   0  0  0  0  0  2  0  0  0  0  0  0
  191.1950  177.5500  141.0170 N   0  0  0  0  0  2  0  0  0  0  0  0
  191.5390  177.6770  142.4230 C   0  0  0  0  0  1  0  0  0  0  0  0
  183.1060  178.3100  139.3880 C   0  0  2  0  0  3  0  0  0  0  0  0
  182.5060  180.6480  138.7920 C   0  0  0  0  0  1  0  0  0  0  0  0
  182.2830  179.1800  138.4560 C   0  0  0  0  0  2  0  0  0  0  0  0
  182.4890  178.2820  140.7190 N   0  0  0  0  0  2  0  0  0  0  0  0
  183.2930  179.0410  141.5890 N   0  0  0  0  0  2  0  0  0  0  0  0
  183.8890  178.1280  142.5560 C   0  0  0  0  0  2  0  0  0  0  0  0
  183.2610  179.7260  144.1960 O   0  0  0  0  0  0  0  0  0  0  0  0
  184.0990  178.8510  143.8480 C   0  0  0  0  0  0  0  0  0  0  0  0
  185.2880  179.0520  146.0350 C   0  0  0  0  0  3  0  0  0  0  0  0
  187.3790  177.8830  146.4540 C   0  0  0  0  0  0  0  0  0  0  0  0
  186.3540  178.7380  146.8850 C   0  0  0  0  0  3  0  0  0  0  0  0
  185.2290  178.5140  144.7400 C   0  0  0  0  0  0  0  0  0  0  0  0
  187.3240  177.3480  145.1560 C   0  0  0  0  0  3  0  0  0  0  0  0
  186.2570  177.6600  144.3050 C   0  0  0  0  0  3  0  0  0  0  0  0
  188.4640  177.5630  147.3380 N   0  0  0  0  0  0  0  0  0  0  0  0
  188.6500  178.2880  148.4620 O   0  0  0  0  0  1  0  0  0  0  0  0
  189.4300  176.5230  147.0000 C   0  0  0  0  0  2  0  0  0  0  0  0
  191.8080  176.6010  146.3210 C   0  0  0  0  0  2  0  0  0  0  0  0
  191.6900  175.7190  147.5420 C   0  0  0  0  0  2  0  0  0  0  0  0
  190.8260  176.9540  147.4150 C   0  0  0  0  0  3  0  0  0  0  0  0
  186.8870  177.0040  135.7550 C   0  0  0  0  0  2  0  0  0  0  0  0
  187.1390  175.6900  135.0230 C   0  0  0  0  0  2  0  0  0  0  0  0
  188.3010  175.0950  135.5140 O   0  0  0  0  0  0  0  0  0  0  0  0
  189.2090  175.1190  134.4560 C   0  0  0  0  0  2  0  0  0  0  0  0
  190.3680  174.1890  134.7700 C   0  0  0  0  0  2  0  0  0  0  0  0
  190.3100  173.7400  136.2220 C   0  0  0  0  0  2  0  0  0  0  0  0
  191.6850  176.3760  137.2490 C   0  0  0  0  0  2  0  0  0  0  0  0
  191.7050  173.7580  136.8170 C   0  0  2  0  0  3  0  0  0  0  0  0
  192.3240  175.1250  136.6860 C   0  0  0  0  0  0  0  0  0  0  0  0
  193.4100  173.7930  135.0370 C   0  0  1  0  0  3  0  0  0  0  0  0
  192.6390  172.8790  135.9990 C   0  0  0  0  0  2  0  0  0  0  0  0
  193.4250  175.1810  135.6630 C   0  0  0  0  0  2  0  0  0  0  0  0
  192.7830  175.6700  138.0240 C   0  0  0  0  0  2  0  0  0  0  0  0
  195.3220  172.4890  135.9940 C   0  0  0  0  0  2  0  0  0  0  0  0
  196.7690  174.1300  135.6900 C   0  0  0  0  0  2  0  0  0  0  0  0
  195.7500  174.3980  134.6800 N   0  0  0  0  0  2  0  0  0  0  0  0
  196.2250  173.3050  136.6850 O   0  0  0  0  0  0  0  0  0  0  0  0
  194.8300  173.2830  134.7990 C   0  0  2  0  0  3  0  0  0  0  0  0
  1  5  1  0  0  0  0
  1  8  1  1  0  0  0
  2  3  1  0  0  0  0
  3  5  2  0  0  0  0
  3  4  1  0  0  0  0
  6 32  1  6  0  0  0
  6  2  1  0  0  0  0
  6  1  1  0  0  0  0
  7  9  1  0  0  0  0
  8  7  2  0  0  0  0
  9 10  1  0  0  0  0
 10 11  1  0  0  0  0
 12 14  1  6  0  0  0
 12  4  1  0  0  0  0
 12 15  1  0  0  0  0
 14 13  1  0  0  0  0
 15 16  1  0  0  0  0
 16 17  1  0  0  0  0
 17 19  1  0  0  0  0
 19 18  2  0  0  0  0
 19 23  1  0  0  0  0
 20 22  1  0  0  0  0
 21 22  2  0  0  0  0
 21 26  1  0  0  0  0
 23 20  2  0  0  0  0
 24 21  1  0  0  0  0
 25 23  1  0  0  0  0
 25 24  2  0  0  0  0
 26 27  1  0  0  0  0
 28 26  1  0  0  0  0
 28 31  1  0  0  0  0
 29 31  1  0  0  0  0
 29 30  1  0  0  0  0
 31 30  1  0  0  0  0
 33 34  1  0  0  0  0
 33 32  1  0  0  0  0
 35 36  1  0  0  0  0
 35 34  1  0  0  0  0
 36 37  1  0  0  0  0
 38 44  1  0  0  0  0
 39 37  1  6  0  0  0
 40 39  1  0  0  0  0
 40 38  1  0  0  0  0
 40 44  1  0  0  0  0
 41 43  1  1  0  0  0
 41 42  1  0  0  0  0
 42 39  1  0  0  0  0
 43 40  1  0  0  0  0
 45 48  1  0  0  0  0
 46 48  1  0  0  0  0
 47 49  1  0  0  0  0
 47 46  1  0  0  0  0
 49 41  1  0  0  0  0
 49 45  1  1  0  0  0
M  END
>  <MODEL>
5

>  <REMARK>
 VINA RESULT:      -6.8      2.143      3.935
  Name = 
  21 active torsions:
  status: ('A' for Active; 'I' for Inactive)
    1  A    between atoms: C_1  and  N_9
    2  A    between atoms: C_1  and  C_35
    3  A    between atoms: C_4  and  O_23
    4  A    between atoms: C_4  and  C_31
    5  A    between atoms: C_7  and  C_38
    6  A    between atoms: C_8  and  C_12
    7  A    between atoms: N_9  and  N_24
    8  A    between atoms: C_11  and  N_13
    9  A    between atoms: N_13  and  C_33
   10  A    between atoms: C_16  and  C_21
   11  A    between atoms: C_17  and  C_35
   12  A    between atoms: C_20  and  C_21
   13  A    between atoms: C_20  and  C_22
   14  A    between atoms: C_22  and  O_23
   15  A    between atoms: N_24  and  C_48
   16  A    between atoms: C_25  and  C_47
   17  A    between atoms: N_29  and  C_48
   18  A    between atoms: C_31  and  C_45
   19  A    between atoms: C_33  and  C_41
   20  A    between atoms: N_36  and  C_38
   21  A    between atoms: C_46  and  C_48
                            x       y       z     vdW  Elec       q    Type
                         _______ _______ _______ _____ _____    ______ ____

>  <TORSDO>
F 21

$$$$
=
 OpenBabel10232410533D

 49 54  0  0  1  0  0  0  0  0999 V2000
  188.5730  178.2150  137.9370 C   0  0  2  0  0  3  0  0  0  0  0  0
  187.1930  176.2600  137.4490 C   0  0  0  0  0  2  0  0  0  0  0  0
  186.4520  177.5470  137.4960 C   0  0  0  0  0  0  0  0  0  0  0  0
  185.0400  177.6610  137.2900 N   0  0  0  0  0  2  0  0  0  0  0  0
  187.1770  178.5830  137.7410 N   0  0  0  0  0  0  0  0  0  0  0  0
  188.6350  176.6960  137.7170 C   0  0  1  0  0  3  0  0  0  0  0  0
  188.8130  177.7670  140.3710 C   0  0  0  0  0  3  0  0  0  0  0  0
  189.0300  178.5740  139.3270 C   0  0  0  0  0  3  0  0  0  0  0  0
  189.2920  178.1280  141.7390 C   0  0  0  0  0  2  0  0  0  0  0  0
  190.2280  177.1230  142.2220 N   0  0  0  0  0  2  0  0  0  0  0  0
  191.5300  177.4730  141.6800 C   0  0  0  0  0  1  0  0  0  0  0  0
  184.2020  176.4860  137.0750 C   0  0  2  0  0  3  0  0  0  0  0  0
  182.2170  177.4710  135.9470 C   0  0  0  0  0  1  0  0  0  0  0  0
  183.4590  176.6100  135.7580 C   0  0  0  0  0  2  0  0  0  0  0  0
  183.2430  176.3280  138.1750 N   0  0  0  0  0  2  0  0  0  0  0  0
  183.2430  177.5170  138.9270 N   0  0  0  0  0  2  0  0  0  0  0  0
  182.7160  177.2080  140.2500 C   0  0  0  0  0  2  0  0  0  0  0  0
  182.0400  179.4260  140.7560 O   0  0  0  0  0  0  0  0  0  0  0  0
  182.7520  178.4420  141.0930 C   0  0  0  0  0  0  0  0  0  0  0  0
  184.9240  178.1970  142.3010 C   0  0  0  0  0  3  0  0  0  0  0  0
  185.0970  178.6030  144.6930 C   0  0  0  0  0  0  0  0  0  0  0  0
  185.6890  178.2500  143.4720 C   0  0  0  0  0  3  0  0  0  0  0  0
  183.5530  178.4990  142.3340 C   0  0  0  0  0  0  0  0  0  0  0  0
  183.7240  178.9010  144.7280 C   0  0  0  0  0  3  0  0  0  0  0  0
  182.9580  178.8510  143.5580 C   0  0  0  0  0  3  0  0  0  0  0  0
  185.8940  178.6600  145.8860 N   0  0  0  0  0  0  0  0  0  0  0  0
  185.4080  179.2700  146.9890 O   0  0  0  0  0  1  0  0  0  0  0  0
  187.2610  178.1530  145.9030 C   0  0  0  0  0  2  0  0  0  0  0  0
  188.6980  178.1630  147.9180 C   0  0  0  0  0  2  0  0  0  0  0  0
  188.9340  176.8710  147.1710 C   0  0  0  0  0  2  0  0  0  0  0  0
  187.5450  177.4670  147.2290 C   0  0  0  0  0  3  0  0  0  0  0  0
  189.5800  176.3330  136.5660 C   0  0  0  0  0  2  0  0  0  0  0  0
  190.7770  175.5000  137.0140 C   0  0  0  0  0  2  0  0  0  0  0  0
  191.6890  175.3880  135.9640 O   0  0  0  0  0  0  0  0  0  0  0  0
  192.3840  174.2020  136.1970 C   0  0  0  0  0  2  0  0  0  0  0  0
  193.1860  174.3340  137.4800 C   0  0  0  0  0  2  0  0  0  0  0  0
  194.6100  174.7720  137.1710 C   0  0  0  0  0  2  0  0  0  0  0  0
  197.7320  175.0180  136.8720 C   0  0  0  0  0  2  0  0  0  0  0  0
  195.5810  173.9980  138.0430 C   0  0  2  0  0  3  0  0  0  0  0  0
  196.9110  173.8410  137.3540 C   0  0  0  0  0  0  0  0  0  0  0  0
  195.8750  171.7030  137.1920 C   0  0  1  0  0  3  0  0  0  0  0  0
  195.1100  172.5610  138.2080 C   0  0  0  0  0  2  0  0  0  0  0  0
  197.1720  172.4380  136.8810 C   0  0  0  0  0  2  0  0  0  0  0  0
  198.0530  174.3620  138.2030 C   0  0  0  0  0  2  0  0  0  0  0  0
  195.9840  169.2600  136.6520 C   0  0  0  0  0  2  0  0  0  0  0  0
  194.6050  168.6990  138.2840 C   0  0  0  0  0  2  0  0  0  0  0  0
  195.1760  169.9570  138.7530 N   0  0  0  0  0  2  0  0  0  0  0  0
  194.7680  168.6090  136.8940 O   0  0  0  0  0  0  0  0  0  0  0  0
  196.1540  170.3040  137.7390 C   0  0  2  0  0  3  0  0  0  0  0  0
  1  8  1  1  0  0  0
  2  3  1  0  0  0  0
  2  6  1  0  0  0  0
  3  5  2  0  0  0  0
  4  3  1  0  0  0  0
  5  1  1  0  0  0  0
  6 32  1  6  0  0  0
  6  1  1  0  0  0  0
  7  9  1  0  0  0  0
  8  7  2  0  0  0  0
  9 10  1  0  0  0  0
 11 10  1  0  0  0  0
 12 14  1  6  0  0  0
 12  4  1  0  0  0  0
 12 15  1  0  0  0  0
 14 13  1  0  0  0  0
 15 16  1  0  0  0  0
 16 17  1  0  0  0  0
 17 19  1  0  0  0  0
 18 19  2  0  0  0  0
 19 23  1  0  0  0  0
 20 23  2  0  0  0  0
 20 22  1  0  0  0  0
 21 24  1  0  0  0  0
 21 26  1  0  0  0  0
 22 21  2  0  0  0  0
 23 25  1  0  0  0  0
 25 24  2  0  0  0  0
 26 28  1  0  0  0  0
 26 27  1  0  0  0  0
 28 31  1  0  0  0  0
 30 31  1  0  0  0  0
 30 29  1  0  0  0  0
 31 29  1  0  0  0  0
 32 33  1  0  0  0  0
 34 35  1  0  0  0  0
 34 33  1  0  0  0  0
 35 36  1  0  0  0  0
 37 36  1  0  0  0  0
 38 40  1  0  0  0  0
 38 44  1  0  0  0  0
 39 37  1  6  0  0  0
 39 42  1  0  0  0  0
 40 39  1  0  0  0  0
 40 44  1  0  0  0  0
 41 43  1  1  0  0  0
 41 49  1  0  0  0  0
 41 42  1  0  0  0  0
 43 40  1  0  0  0  0
 45 48  1  0  0  0  0
 46 47  1  0  0  0  0
 48 46  1  0  0  0  0
 49 45  1  6  0  0  0
 49 47  1  0  0  0  0
M  END
>  <MODEL>
6

>  <REMARK>
 VINA RESULT:      -6.7      1.972      3.109
  Name = 
  21 active torsions:
  status: ('A' for Active; 'I' for Inactive)
    1  A    between atoms: C_1  and  N_9
    2  A    between atoms: C_1  and  C_35
    3  A    between atoms: C_4  and  O_23
    4  A    between atoms: C_4  and  C_31
    5  A    between atoms: C_7  and  C_38
    6  A    between atoms: C_8  and  C_12
    7  A    between atoms: N_9  and  N_24
    8  A    between atoms: C_11  and  N_13
    9  A    between atoms: N_13  and  C_33
   10  A    between atoms: C_16  and  C_21
   11  A    between atoms: C_17  and  C_35
   12  A    between atoms: C_20  and  C_21
   13  A    between atoms: C_20  and  C_22
   14  A    between atoms: C_22  and  O_23
   15  A    between atoms: N_24  and  C_48
   16  A    between atoms: C_25  and  C_47
   17  A    between atoms: N_29  and  C_48
   18  A    between atoms: C_31  and  C_45
   19  A    between atoms: C_33  and  C_41
   20  A    between atoms: N_36  and  C_38
   21  A    between atoms: C_46  and  C_48
                            x       y       z     vdW  Elec       q    Type
                         _______ _______ _______ _____ _____    ______ ____

>  <TORSDO>
F 21

$$$$
=
 OpenBabel10232410533D

 49 54  0  0  1  0  0  0  0  0999 V2000
  188.5370  178.1470  138.2740 C   0  0  2  0  0  3  0  0  0  0  0  0
  186.9720  176.5410  137.3070 C   0  0  0  0  0  2  0  0  0  0  0  0
  186.3370  177.7510  137.8900 C   0  0  0  0  0  0  0  0  0  0  0  0
  184.9240  177.9790  137.9110 N   0  0  0  0  0  2  0  0  0  0  0  0
  187.1600  178.6080  138.3910 N   0  0  0  0  0  0  0  0  0  0  0  0
  188.4620  176.8040  137.5310 C   0  0  1  0  0  3  0  0  0  0  0  0
  188.4240  177.9690  140.7510 C   0  0  0  0  0  3  0  0  0  0  0  0
  189.1590  177.9720  139.6340 C   0  0  0  0  0  3  0  0  0  0  0  0
  189.0550  177.7740  142.0910 C   0  0  0  0  0  2  0  0  0  0  0  0
  190.2660  176.9750  141.9610 N   0  0  0  0  0  2  0  0  0  0  0  0
  191.3280  177.7220  142.6110 C   0  0  0  0  0  1  0  0  0  0  0  0
  183.9830  176.9860  137.4030 C   0  0  2  0  0  3  0  0  0  0  0  0
  182.2950  176.6290  135.6130 C   0  0  0  0  0  1  0  0  0  0  0  0
  183.6110  177.3080  135.9680 C   0  0  0  0  0  2  0  0  0  0  0  0
  182.7750  176.9490  138.2360 N   0  0  0  0  0  2  0  0  0  0  0  0
  182.8680  177.9810  139.1860 N   0  0  0  0  0  2  0  0  0  0  0  0
  182.1350  177.5620  140.3740 C   0  0  0  0  0  2  0  0  0  0  0  0
  181.3390  179.6040  141.2840 O   0  0  0  0  0  0  0  0  0  0  0  0
  182.1690  178.6610  141.3860 C   0  0  0  0  0  0  0  0  0  0  0  0
  184.4050  178.1090  142.3520 C   0  0  0  0  0  3  0  0  0  0  0  0
  184.9210  178.5490  144.6880 C   0  0  0  0  0  0  0  0  0  0  0  0
  185.3020  178.0730  143.4250 C   0  0  0  0  0  3  0  0  0  0  0  0
  183.1110  178.6250  142.5250 C   0  0  0  0  0  0  0  0  0  0  0  0
  183.6240  179.0600  144.8640 C   0  0  0  0  0  3  0  0  0  0  0  0
  182.7260  179.1000  143.7910 C   0  0  0  0  0  3  0  0  0  0  0  0
  185.8520  178.5120  145.7800 N   0  0  0  0  0  0  0  0  0  0  0  0
  185.5000  179.0220  146.9800 O   0  0  0  0  0  1  0  0  0  0  0  0
  187.2110  178.0170  145.5940 C   0  0  0  0  0  2  0  0  0  0  0  0
  189.1680  177.2300  146.8880 C   0  0  0  0  0  2  0  0  0  0  0  0
  187.9200  176.9390  147.6880 C   0  0  0  0  0  2  0  0  0  0  0  0
  188.0150  178.2070  146.8690 C   0  0  0  0  0  3  0  0  0  0  0  0
  189.2540  176.8420  136.2200 C   0  0  0  0  0  2  0  0  0  0  0  0
  190.6290  176.1930  136.3320 C   0  0  0  0  0  2  0  0  0  0  0  0
  190.6850  175.4080  137.4840 O   0  0  0  0  0  0  0  0  0  0  0  0
  192.0250  175.0550  137.6330 C   0  0  0  0  0  2  0  0  0  0  0  0
  192.6140  174.7360  136.2700 C   0  0  0  0  0  2  0  0  0  0  0  0
  193.0340  173.2750  136.2030 C   0  0  0  0  0  2  0  0  0  0  0  0
  194.7180  170.6180  136.1990 C   0  0  0  0  0  2  0  0  0  0  0  0
  194.3930  173.1660  135.5370 C   0  0  2  0  0  3  0  0  0  0  0  0
  195.2010  172.0510  136.1480 C   0  0  0  0  0  0  0  0  0  0  0  0
  196.1580  174.0540  137.0120 C   0  0  1  0  0  3  0  0  0  0  0  0
  195.2290  174.4010  135.8410 C   0  0  0  0  0  2  0  0  0  0  0  0
  196.3390  172.5420  136.9990 C   0  0  0  0  0  2  0  0  0  0  0  0
  195.6750  171.0590  135.1050 C   0  0  0  0  0  2  0  0  0  0  0  0
  197.4660  175.7910  135.7690 C   0  0  0  0  0  2  0  0  0  0  0  0
  199.1220  174.4040  135.3030 C   0  0  0  0  0  2  0  0  0  0  0  0
  198.5390  173.8280  136.5110 N   0  0  0  0  0  2  0  0  0  0  0  0
  198.1800  175.2470  134.6950 O   0  0  0  0  0  0  0  0  0  0  0  0
  197.5030  174.7700  136.8900 C   0  0  2  0  0  3  0  0  0  0  0  0
  1  5  1  0  0  0  0
  1  8  1  1  0  0  0
  2  6  1  0  0  0  0
  2  3  1  0  0  0  0
  3  4  1  0  0  0  0
  3  5  2  0  0  0  0
  6 32  1  6  0  0  0
  6  1  1  0  0  0  0
  7  9  1  0  0  0  0
  8  7  2  0  0  0  0
 10  9  1  0  0  0  0
 10 11  1  0  0  0  0
 12 14  1  6  0  0  0
 12  4  1  0  0  0  0
 12 15  1  0  0  0  0
 13 14  1  0  0  0  0
 15 16  1  0  0  0  0
 16 17  1  0  0  0  0
 17 19  1  0  0  0  0
 18 19  2  0  0  0  0
 19 23  1  0  0  0  0
 20 23  2  0  0  0  0
 20 22  1  0  0  0  0
 21 24  1  0  0  0  0
 21 26  1  0  0  0  0
 22 21  2  0  0  0  0
 23 25  1  0  0  0  0
 25 24  2  0  0  0  0
 26 27  1  0  0  0  0
 28 26  1  0  0  0  0
 28 31  1  0  0  0  0
 29 30  1  0  0  0  0
 31 29  1  0  0  0  0
 31 30  1  0  0  0  0
 32 33  1  0  0  0  0
 33 34  1  0  0  0  0
 34 35  1  0  0  0  0
 36 35  1  0  0  0  0
 37 36  1  0  0  0  0
 39 42  1  0  0  0  0
 39 40  1  0  0  0  0
 39 37  1  1  0  0  0
 40 38  1  0  0  0  0
 40 43  1  0  0  0  0
 41 42  1  6  0  0  0
 43 41  1  0  0  0  0
 44 40  1  0  0  0  0
 44 38  1  0  0  0  0
 46 47  1  0  0  0  0
 47 49  1  0  0  0  0
 48 46  1  0  0  0  0
 48 45  1  0  0  0  0
 49 45  1  6  0  0  0
 49 41  1  0  0  0  0
M  END
>  <MODEL>
7

>  <REMARK>
 VINA RESULT:      -6.5      1.579      2.191
  Name = 
  21 active torsions:
  status: ('A' for Active; 'I' for Inactive)
    1  A    between atoms: C_1  and  N_9
    2  A    between atoms: C_1  and  C_35
    3  A    between atoms: C_4  and  O_23
    4  A    between atoms: C_4  and  C_31
    5  A    between atoms: C_7  and  C_38
    6  A    between atoms: C_8  and  C_12
    7  A    between atoms: N_9  and  N_24
    8  A    between atoms: C_11  and  N_13
    9  A    between atoms: N_13  and  C_33
   10  A    between atoms: C_16  and  C_21
   11  A    between atoms: C_17  and  C_35
   12  A    between atoms: C_20  and  C_21
   13  A    between atoms: C_20  and  C_22
   14  A    between atoms: C_22  and  O_23
   15  A    between atoms: N_24  and  C_48
   16  A    between atoms: C_25  and  C_47
   17  A    between atoms: N_29  and  C_48
   18  A    between atoms: C_31  and  C_45
   19  A    between atoms: C_33  and  C_41
   20  A    between atoms: N_36  and  C_38
   21  A    between atoms: C_46  and  C_48
                            x       y       z     vdW  Elec       q    Type
                         _______ _______ _______ _____ _____    ______ ____

>  <TORSDO>
F 21

$$$$
=
 OpenBabel10232410533D

 49 54  0  0  1  0  0  0  0  0999 V2000
  182.1370  177.1900  138.6930 C   0  0  2  0  0  3  0  0  0  0  0  0
  184.5000  177.4140  139.2660 C   0  0  0  0  0  2  0  0  0  0  0  0
  184.2290  177.2210  137.8180 C   0  0  0  0  0  0  0  0  0  0  0  0
  185.2500  177.1530  136.8180 N   0  0  0  0  0  2  0  0  0  0  0  0
  182.9820  177.1140  137.5090 N   0  0  0  0  0  0  0  0  0  0  0  0
  183.0950  177.4250  139.8700 C   0  0  1  0  0  3  0  0  0  0  0  0
  180.9680  175.1690  137.8400 C   0  0  0  0  0  3  0  0  0  0  0  0
  181.3620  175.9120  138.8790 C   0  0  0  0  0  3  0  0  0  0  0  0
  180.2180  173.8920  138.0440 C   0  0  0  0  0  2  0  0  0  0  0  0
  180.3750  173.0320  136.8800 N   0  0  0  0  0  2  0  0  0  0  0  0
  180.8760  171.7580  137.3680 C   0  0  0  0  0  1  0  0  0  0  0  0
  186.6660  177.2090  137.1670 C   0  0  2  0  0  3  0  0  0  0  0  0
  186.5360  178.0680  134.8380 C   0  0  0  0  0  1  0  0  0  0  0  0
  187.4660  177.7730  136.0080 C   0  0  0  0  0  2  0  0  0  0  0  0
  187.1650  175.8730  137.5130 N   0  0  0  0  0  2  0  0  0  0  0  0
  187.8610  175.3650  136.4010 N   0  0  0  0  0  2  0  0  0  0  0  0
  189.0390  174.6630  136.8950 C   0  0  0  0  0  2  0  0  0  0  0  0
  190.0760  175.7250  135.0430 O   0  0  0  0  0  0  0  0  0  0  0  0
  190.2430  175.1340  136.1440 C   0  0  0  0  0  0  0  0  0  0  0  0
  192.1270  175.9360  137.5730 C   0  0  0  0  0  3  0  0  0  0  0  0
  194.2000  174.6770  137.7620 C   0  0  0  0  0  0  0  0  0  0  0  0
  193.4140  175.7890  138.1020 C   0  0  0  0  0  3  0  0  0  0  0  0
  191.6040  174.9710  136.6980 C   0  0  0  0  0  0  0  0  0  0  0  0
  193.6790  173.7140  136.8820 C   0  0  0  0  0  3  0  0  0  0  0  0
  192.3910  173.8590  136.3540 C   0  0  0  0  0  3  0  0  0  0  0  0
  195.5160  174.5340  138.3160 N   0  0  0  0  0  0  0  0  0  0  0  0
  195.7970  175.0700  139.5240 O   0  0  0  0  0  1  0  0  0  0  0  0
  196.5880  173.8990  137.5580 C   0  0  0  0  0  2  0  0  0  0  0  0
  197.4450  174.8870  135.4580 C   0  0  0  0  0  2  0  0  0  0  0  0
  198.6040  174.2590  136.1960 C   0  0  0  0  0  2  0  0  0  0  0  0
  197.5060  174.9560  136.9670 C   0  0  0  0  0  3  0  0  0  0  0  0
  182.7800  178.7380  140.5980 C   0  0  0  0  0  2  0  0  0  0  0  0
  183.8630  179.1450  141.5910 C   0  0  0  0  0  2  0  0  0  0  0  0
  183.5310  178.6780  142.8640 O   0  0  0  0  0  0  0  0  0  0  0  0
  184.5070  179.1920  143.7170 C   0  0  0  0  0  2  0  0  0  0  0  0
  184.4430  178.4620  145.0480 C   0  0  0  0  0  2  0  0  0  0  0  0
  185.7020  178.7290  145.8590 C   0  0  0  0  0  2  0  0  0  0  0  0
  188.2210  178.4390  147.7210 C   0  0  0  0  0  2  0  0  0  0  0  0
  186.5690  177.4840  145.8780 C   0  0  2  0  0  3  0  0  0  0  0  0
  187.9550  177.8050  146.3730 C   0  0  0  0  0  0  0  0  0  0  0  0
  188.1880  177.5240  144.0190 C   0  0  1  0  0  3  0  0  0  0  0  0
  186.8170  176.9940  144.4590 C   0  0  0  0  0  2  0  0  0  0  0  0
  188.9950  177.7680  145.2880 C   0  0  0  0  0  2  0  0  0  0  0  0
  188.3500  176.9360  147.5510 C   0  0  0  0  0  2  0  0  0  0  0  0
  190.2610  176.1670  143.6560 C   0  0  0  0  0  2  0  0  0  0  0  0
  190.6130  176.9960  141.6380 C   0  0  0  0  0  2  0  0  0  0  0  0
  189.1720  177.1540  141.8130 N   0  0  0  0  0  2  0  0  0  0  0  0
  191.2160  176.8530  142.8960 O   0  0  0  0  0  0  0  0  0  0  0  0
  188.9010  176.5350  143.0970 C   0  0  2  0  0  3  0  0  0  0  0  0
  1  8  1  1  0  0  0
  1  6  1  0  0  0  0
  2  6  1  0  0  0  0
  3  2  1  0  0  0  0
  4 12  1  0  0  0  0
  4  3  1  0  0  0  0
  5  3  2  0  0  0  0
  5  1  1  0  0  0  0
  6 32  1  6  0  0  0
  7  9  1  0  0  0  0
  7  8  2  0  0  0  0
 10 11  1  0  0  0  0
 10  9  1  0  0  0  0
 12 14  1  6  0  0  0
 12 15  1  0  0  0  0
 13 14  1  0  0  0  0
 16 17  1  0  0  0  0
 16 15  1  0  0  0  0
 18 19  2  0  0  0  0
 19 23  1  0  0  0  0
 19 17  1  0  0  0  0
 20 22  1  0  0  0  0
 21 22  2  0  0  0  0
 21 26  1  0  0  0  0
 23 20  2  0  0  0  0
 24 21  1  0  0  0  0
 25 23  1  0  0  0  0
 25 24  2  0  0  0  0
 26 27  1  0  0  0  0
 28 26  1  0  0  0  0
 29 30  1  0  0  0  0
 29 31  1  0  0  0  0
 30 31  1  0  0  0  0
 31 28  1  0  0  0  0
 32 33  1  0  0  0  0
 33 34  1  0  0  0  0
 34 35  1  0  0  0  0
 35 36  1  0  0  0  0
 36 37  1  0  0  0  0
 39 37  1  6  0  0  0
 39 40  1  0  0  0  0
 40 44  1  0  0  0  0
 40 38  1  0  0  0  0
 41 42  1  1  0  0  0
 41 43  1  0  0  0  0
 42 39  1  0  0  0  0
 43 40  1  0  0  0  0
 44 38  1  0  0  0  0
 46 47  1  0  0  0  0
 46 48  1  0  0  0  0
 47 49  1  0  0  0  0
 48 45  1  0  0  0  0
 49 45  1  1  0  0  0
 49 41  1  0  0  0  0
M  END
>  <MODEL>
8

>  <REMARK>
 VINA RESULT:      -6.4      2.571     10.877
  Name = 
  21 active torsions:
  status: ('A' for Active; 'I' for Inactive)
    1  A    between atoms: C_1  and  N_9
    2  A    between atoms: C_1  and  C_35
    3  A    between atoms: C_4  and  O_23
    4  A    between atoms: C_4  and  C_31
    5  A    between atoms: C_7  and  C_38
    6  A    between atoms: C_8  and  C_12
    7  A    between atoms: N_9  and  N_24
    8  A    between atoms: C_11  and  N_13
    9  A    between atoms: N_13  and  C_33
   10  A    between atoms: C_16  and  C_21
   11  A    between atoms: C_17  and  C_35
   12  A    between atoms: C_20  and  C_21
   13  A    between atoms: C_20  and  C_22
   14  A    between atoms: C_22  and  O_23
   15  A    between atoms: N_24  and  C_48
   16  A    between atoms: C_25  and  C_47
   17  A    between atoms: N_29  and  C_48
   18  A    between atoms: C_31  and  C_45
   19  A    between atoms: C_33  and  C_41
   20  A    between atoms: N_36  and  C_38
   21  A    between atoms: C_46  and  C_48
                            x       y       z     vdW  Elec       q    Type
                         _______ _______ _______ _____ _____    ______ ____

>  <TORSDO>
F 21

$$$$
=
 OpenBabel10232410533D

 49 54  0  0  1  0  0  0  0  0999 V2000
  188.9850  176.8760  143.3140 C   0  0  2  0  0  3  0  0  0  0  0  0
  188.1880  178.3900  141.5720 C   0  0  0  0  0  2  0  0  0  0  0  0
  188.9990  177.2480  141.0770 C   0  0  0  0  0  0  0  0  0  0  0  0
  189.3160  177.0340  139.6980 N   0  0  0  0  0  2  0  0  0  0  0  0
  189.4120  176.4390  141.9910 N   0  0  0  0  0  0  0  0  0  0  0  0
  188.1440  178.1400  143.0800 C   0  0  1  0  0  3  0  0  0  0  0  0
  190.2230  176.8020  145.4680 C   0  0  0  0  0  3  0  0  0  0  0  0
  190.1750  177.1790  144.1860 C   0  0  0  0  0  3  0  0  0  0  0  0
  191.4200  177.0910  146.3140 C   0  0  0  0  0  2  0  0  0  0  0  0
  191.2940  176.4240  147.6020 N   0  0  0  0  0  2  0  0  0  0  0  0
  192.5720  175.7870  147.8680 C   0  0  0  0  0  1  0  0  0  0  0  0
  188.9070  177.9800  138.6640 C   0  0  2  0  0  3  0  0  0  0  0  0
  187.6010  177.0860  136.7460 C   0  0  0  0  0  1  0  0  0  0  0  0
  187.5160  177.6340  138.1650 C   0  0  0  0  0  2  0  0  0  0  0  0
  189.8570  177.9640  137.5460 N   0  0  0  0  0  2  0  0  0  0  0  0
  190.8430  177.0000  137.8250 N   0  0  0  0  0  2  0  0  0  0  0  0
  190.8710  176.0580  136.7140 C   0  0  0  0  0  2  0  0  0  0  0  0
  190.4680  173.9550  137.7390 O   0  0  0  0  0  0  0  0  0  0  0  0
  191.3200  174.7220  137.2140 C   0  0  0  0  0  0  0  0  0  0  0  0
  193.7780  175.1370  137.3620 C   0  0  0  0  0  3  0  0  0  0  0  0
  195.3920  173.4280  136.7360 C   0  0  0  0  0  0  0  0  0  0  0  0
  195.1040  174.7170  137.2080 C   0  0  0  0  0  3  0  0  0  0  0  0
  192.7180  174.2720  137.0480 C   0  0  0  0  0  0  0  0  0  0  0  0
  194.3320  172.5640  136.4170 C   0  0  0  0  0  3  0  0  0  0  0  0
  193.0050  172.9810  136.5720 C   0  0  0  0  0  3  0  0  0  0  0  0
  196.7570  173.0070  136.5890 N   0  0  0  0  0  0  0  0  0  0  0  0
  197.0390  171.6990  136.4080 O   0  0  0  0  0  1  0  0  0  0  0  0
  197.8570  173.9560  136.7240 C   0  0  0  0  0  2  0  0  0  0  0  0
  199.9630  174.6570  135.6300 C   0  0  0  0  0  2  0  0  0  0  0  0
  199.0160  174.1570  134.5640 C   0  0  0  0  0  2  0  0  0  0  0  0
  199.0540  173.4830  135.9180 C   0  0  0  0  0  3  0  0  0  0  0  0
  186.7130  177.9670  143.6030 C   0  0  0  0  0  2  0  0  0  0  0  0
  186.6470  177.2130  144.9270 C   0  0  0  0  0  2  0  0  0  0  0  0
  185.6590  177.7740  145.7380 O   0  0  0  0  0  0  0  0  0  0  0  0
  185.3150  178.9790  145.1280 C   0  0  0  0  0  2  0  0  0  0  0  0
  183.8140  179.1830  145.2330 C   0  0  0  0  0  2  0  0  0  0  0  0
  183.0870  178.3030  144.2270 C   0  0  0  0  0  2  0  0  0  0  0  0
  179.9910  178.8300  144.0520 C   0  0  0  0  0  2  0  0  0  0  0  0
  182.4620  179.1690  143.1500 C   0  0  2  0  0  3  0  0  0  0  0  0
  181.0170  178.8020  142.9400 C   0  0  0  0  0  0  0  0  0  0  0  0
  182.1660  177.8850  141.0660 C   0  0  1  0  0  3  0  0  0  0  0  0
  183.0920  178.8650  141.7990 C   0  0  0  0  0  2  0  0  0  0  0  0
  180.7700  178.0820  141.6430 C   0  0  0  0  0  2  0  0  0  0  0  0
  180.1010  180.0010  143.0920 C   0  0  0  0  0  2  0  0  0  0  0  0
  182.4540  176.8400  138.8090 C   0  0  0  0  0  2  0  0  0  0  0  0
  184.0170  178.2760  138.1940 C   0  0  0  0  0  2  0  0  0  0  0  0
  183.2640  179.0190  139.2000 N   0  0  0  0  0  2  0  0  0  0  0  0
  183.7800  176.9040  138.3610 O   0  0  0  0  0  0  0  0  0  0  0  0
  182.1750  178.1290  139.5570 C   0  0  2  0  0  3  0  0  0  0  0  0
  1  8  1  1  0  0  0
  2  6  1  0  0  0  0
  3  2  1  0  0  0  0
  3  5  2  0  0  0  0
  4  3  1  0  0  0  0
  5  1  1  0  0  0  0
  6  1  1  0  0  0  0
  6 32  1  6  0  0  0
  7  9  1  0  0  0  0
  8  7  2  0  0  0  0
  9 10  1  0  0  0  0
 10 11  1  0  0  0  0
 12 14  1  6  0  0  0
 12  4  1  0  0  0  0
 13 14  1  0  0  0  0
 15 16  1  0  0  0  0
 15 12  1  0  0  0  0
 17 19  1  0  0  0  0
 17 16  1  0  0  0  0
 19 18  2  0  0  0  0
 21 22  2  0  0  0  0
 22 20  1  0  0  0  0
 23 19  1  0  0  0  0
 23 20  2  0  0  0  0
 24 25  2  0  0  0  0
 24 21  1  0  0  0  0
 25 23  1  0  0  0  0
 26 28  1  0  0  0  0
 26 21  1  0  0  0  0
 27 26  1  0  0  0  0
 29 31  1  0  0  0  0
 30 29  1  0  0  0  0
 30 31  1  0  0  0  0
 31 28  1  0  0  0  0
 32 33  1  0  0  0  0
 33 34  1  0  0  0  0
 35 36  1  0  0  0  0
 35 34  1  0  0  0  0
 37 36  1  0  0  0  0
 39 37  1  1  0  0  0
 40 44  1  0  0  0  0
 40 39  1  0  0  0  0
 40 38  1  0  0  0  0
 41 43  1  1  0  0  0
 41 42  1  0  0  0  0
 42 39  1  0  0  0  0
 43 40  1  0  0  0  0
 44 38  1  0  0  0  0
 46 48  1  0  0  0  0
 46 47  1  0  0  0  0
 47 49  1  0  0  0  0
 48 45  1  0  0  0  0
 49 45  1  6  0  0  0
 49 41  1  0  0  0  0
M  END
>  <MODEL>
9

>  <REMARK>
 VINA RESULT:      -6.4      2.149     12.123
  Name = 
  21 active torsions:
  status: ('A' for Active; 'I' for Inactive)
    1  A    between atoms: C_1  and  N_9
    2  A    between atoms: C_1  and  C_35
    3  A    between atoms: C_4  and  O_23
    4  A    between atoms: C_4  and  C_31
    5  A    between atoms: C_7  and  C_38
    6  A    between atoms: C_8  and  C_12
    7  A    between atoms: N_9  and  N_24
    8  A    between atoms: C_11  and  N_13
    9  A    between atoms: N_13  and  C_33
   10  A    between atoms: C_16  and  C_21
   11  A    between atoms: C_17  and  C_35
   12  A    between atoms: C_20  and  C_21
   13  A    between atoms: C_20  and  C_22
   14  A    between atoms: C_22  and  O_23
   15  A    between atoms: N_24  and  C_48
   16  A    between atoms: C_25  and  C_47
   17  A    between atoms: N_29  and  C_48
   18  A    between atoms: C_31  and  C_45
   19  A    between atoms: C_33  and  C_41
   20  A    between atoms: N_36  and  C_38
   21  A    between atoms: C_46  and  C_48
                            x       y       z     vdW  Elec       q    Type
                         _______ _______ _______ _____ _____    ______ ____

>  <TORSDO>
F 21

$$$$
