=
 OpenBabel10232411103D

 36 41  0  0  1  0  0  0  0  0999 V2000
  185.8040  178.1610  142.3790 C   0  0  0  0  0  0  0  0  0  0  0  0
  186.3300  178.6260  138.4810 C   0  0  0  0  0  0  0  0  0  0  0  0
  186.8970  177.8720  143.1350 N   0  0  0  0  0  0  0  0  0  0  0  0
  186.5100  177.9860  144.4250 C   0  0  0  0  0  0  0  0  0  0  0  0
  182.7630  178.5290  141.5920 C   0  0  0  0  0  0  0  0  0  0  0  0
  183.3430  177.8220  140.4820 N   0  0  0  0  0  0  0  0  0  0  0  0
  183.0440  176.2360  138.7730 O   0  0  0  0  0  0  0  0  0  0  0  0
  182.5490  176.8640  139.7470 C   0  0  0  0  0  0  0  0  0  0  0  0
  181.4880  178.9630  141.6280 N   0  0  0  0  0  0  0  0  0  0  0  0
  181.3580  179.4800  142.8710 C   0  0  0  0  0  3  0  0  0  0  0  0
  184.4830  178.4310  145.7810 C   0  0  0  0  0  3  0  0  0  0  0  0
  184.6820  178.1410  140.0480 C   0  0  0  0  0  0  0  0  0  0  0  0
  187.2930  177.6040  145.6480 C   0  0  0  0  0  2  0  0  0  0  0  0
  186.7220  178.3260  146.8850 C   0  0  0  0  0  2  0  0  0  0  0  0
  183.3580  178.7830  142.8000 C   0  0  0  0  0  0  0  0  0  0  0  0
  182.4720  179.3660  143.5660 O   0  0  0  0  0  0  0  0  0  0  0  0
  185.7900  178.2620  140.9010 C   0  0  0  0  0  0  0  0  0  0  0  0
  184.9970  178.3140  138.6870 C   0  0  0  0  0  3  0  0  0  0  0  0
  181.2090  176.5740  140.1370 N   0  0  0  0  0  1  0  0  0  0  0  0
  185.1900  178.3320  144.4990 C   0  0  0  0  0  0  0  0  0  0  0  0
  187.1440  178.5860  139.9500 S   0  0  0  0  0  0  0  0  0  0  0  0
  184.7210  178.4390  143.2070 C   0  0  0  0  0  0  0  0  0  0  0  0
  185.2040  178.3770  146.9090 C   0  0  0  0  0  3  0  0  0  0  0  0
  188.2520  176.9120  134.3470 C   0  0  0  0  0  3  0  0  0  0  0  0
  187.9760  173.9530  136.4880 C   0  0  0  0  0  1  0  0  0  0  0  0
  187.4590  176.3120  136.9200 C   0  0  0  0  0  0  0  0  0  0  0  0
  187.1810  176.0080  138.1120 O   0  0  0  0  0  0  0  0  0  0  0  0
  188.2780  175.6410  134.8170 N   0  0  0  0  0  0  0  0  0  0  0  0
  186.9510  178.6540  137.1900 N   0  0  0  0  0  2  0  0  0  0  0  0
  187.3720  177.6520  136.4660 C   0  0  0  0  0  0  0  0  0  0  0  0
  187.8950  175.3420  136.0600 N   0  0  0  0  0  0  0  0  0  0  0  0
  187.8010  177.9360  135.1720 C   0  0  0  0  0  3  0  0  0  0  0  0
  188.5250  176.0330  143.1780 C   0  0  0  0  0  1  0  0  0  0  0  0
  188.2020  177.4210  142.6490 C   0  0  2  0  0  3  0  0  0  0  0  0
  189.2940  178.4140  143.0170 C   0  0  0  0  0  2  0  0  0  0  0  0
  190.1560  177.8500  143.9390 F   0  0  0  0  0  0  0  0  0  0  0  0
  1  3  1  0  0  0  0
  1 22  2  0  0  0  0
  2 18  2  0  0  0  0
  2 21  1  0  0  0  0
  3  4  1  0  0  0  0
  4 20  2  0  0  0  0
  4 13  1  0  0  0  0
  5  9  1  0  0  0  0
  5 15  2  0  0  0  0
  6  5  1  0  0  0  0
  7  8  2  0  0  0  0
  8 19  1  0  0  0  0
  8  6  1  0  0  0  0
  9 10  2  0  0  0  0
 10 16  1  0  0  0  0
 11 23  2  0  0  0  0
 12  6  1  0  0  0  0
 12 17  2  0  0  0  0
 13 14  1  0  0  0  0
 14 23  1  0  0  0  0
 15 22  1  0  0  0  0
 15 16  1  0  0  0  0
 17  1  1  0  0  0  0
 18 12  1  0  0  0  0
 20 11  1  0  0  0  0
 21 17  1  0  0  0  0
 22 20  1  0  0  0  0
 24 28  2  0  0  0  0
 24 32  1  0  0  0  0
 26 27  2  0  0  0  0
 28 31  1  0  0  0  0
 29  2  1  0  0  0  0
 30 26  1  0  0  0  0
 30 29  1  0  0  0  0
 31 25  1  0  0  0  0
 31 26  1  0  0  0  0
 32 30  2  0  0  0  0
 34 35  1  0  0  0  0
 34  3  1  0  0  0  0
 34 33  1  1  0  0  0
 35 36  1  0  0  0  0
M  END
>  <MODEL>
1

>  <REMARK>
 VINA RESULT:      -8.6      0.000      0.000
  Name = 
  3 active torsions:
  status: ('A' for Active; 'I' for Inactive)
    1  A    between atoms: C_3  and  N_23
    2  A    between atoms: N_6  and  C_31
    3  A    between atoms: C_20  and  C_31
                            x       y       z     vdW  Elec       q    Type
                         _______ _______ _______ _____ _____    ______ ____

>  <TORSDO>
F 3

$$$$
=
 OpenBabel10232411103D

 36 41  0  0  1  0  0  0  0  0999 V2000
  189.2690  177.2220  141.1050 C   0  0  0  0  0  0  0  0  0  0  0  0
  192.0480  177.0240  138.2900 C   0  0  0  0  0  0  0  0  0  0  0  0
  189.6530  177.0010  142.3910 N   0  0  0  0  0  0  0  0  0  0  0  0
  188.6010  177.3420  143.1680 C   0  0  0  0  0  0  0  0  0  0  0  0
  187.3620  177.6180  138.6120 C   0  0  0  0  0  0  0  0  0  0  0  0
  188.3800  176.7120  138.1530 N   0  0  0  0  0  0  0  0  0  0  0  0
  188.9280  174.8890  136.7730 O   0  0  0  0  0  0  0  0  0  0  0  0
  188.0480  175.6910  137.1850 C   0  0  0  0  0  0  0  0  0  0  0  0
  186.3870  178.1180  137.8300 N   0  0  0  0  0  0  0  0  0  0  0  0
  185.6230  178.8350  138.6850 C   0  0  0  0  0  3  0  0  0  0  0  0
  186.2500  178.1070  142.9760 C   0  0  0  0  0  3  0  0  0  0  0  0
  189.7460  176.8850  138.5850 C   0  0  0  0  0  0  0  0  0  0  0  0
  188.4500  177.1220  144.6460 C   0  0  0  0  0  2  0  0  0  0  0  0
  187.3670  178.0640  145.2110 C   0  0  0  0  0  2  0  0  0  0  0  0
  187.1600  178.0310  139.9030 C   0  0  0  0  0  0  0  0  0  0  0  0
  186.0840  178.7760  139.9180 O   0  0  0  0  0  0  0  0  0  0  0  0
  190.1420  177.0840  139.9170 C   0  0  0  0  0  0  0  0  0  0  0  0
  190.8220  176.8200  137.6800 C   0  0  0  0  0  3  0  0  0  0  0  0
  186.7110  175.5380  136.7140 N   0  0  0  0  0  1  0  0  0  0  0  0
  187.5540  177.7650  142.3970 C   0  0  0  0  0  0  0  0  0  0  0  0
  191.8250  177.1790  139.9480 S   0  0  0  0  0  0  0  0  0  0  0  0
  187.9570  177.6870  141.0810 C   0  0  0  0  0  0  0  0  0  0  0  0
  186.1520  178.1980  144.3090 C   0  0  0  0  0  3  0  0  0  0  0  0
  195.4500  174.7440  135.6550 C   0  0  0  0  0  3  0  0  0  0  0  0
  192.9580  172.1440  136.3230 C   0  0  0  0  0  1  0  0  0  0  0  0
  193.0800  174.4860  137.0440 C   0  0  0  0  0  0  0  0  0  0  0  0
  192.0380  174.3030  137.7300 O   0  0  0  0  0  0  0  0  0  0  0  0
  194.7640  173.5750  135.6720 N   0  0  0  0  0  0  0  0  0  0  0  0
  193.3070  176.8110  137.6410 N   0  0  0  0  0  2  0  0  0  0  0  0
  193.7360  175.7420  137.0250 C   0  0  0  0  0  0  0  0  0  0  0  0
  193.6170  173.4410  136.3410 N   0  0  0  0  0  0  0  0  0  0  0  0
  194.9430  175.8430  136.3380 C   0  0  0  0  0  3  0  0  0  0  0  0
  190.6820  175.0390  143.4510 C   0  0  0  0  0  1  0  0  0  0  0  0
  190.9160  176.4100  142.8370 C   0  0  2  0  0  3  0  0  0  0  0  0
  191.6340  177.3300  143.8110 C   0  0  0  0  0  2  0  0  0  0  0  0
  191.6620  178.6200  143.3140 F   0  0  0  0  0  0  0  0  0  0  0  0
  1  3  1  0  0  0  0
  2 21  1  0  0  0  0
  3 34  1  0  0  0  0
  3  4  1  0  0  0  0
  4 13  1  0  0  0  0
  5 15  2  0  0  0  0
  6 12  1  0  0  0  0
  6  5  1  0  0  0  0
  7  8  2  0  0  0  0
  8  6  1  0  0  0  0
  9  5  1  0  0  0  0
  9 10  2  0  0  0  0
 10 16  1  0  0  0  0
 11 23  2  0  0  0  0
 12 17  2  0  0  0  0
 13 14  1  0  0  0  0
 15 16  1  0  0  0  0
 15 22  1  0  0  0  0
 17 21  1  0  0  0  0
 17  1  1  0  0  0  0
 18  2  2  0  0  0  0
 18 12  1  0  0  0  0
 19  8  1  0  0  0  0
 20 11  1  0  0  0  0
 20  4  2  0  0  0  0
 22  1  2  0  0  0  0
 22 20  1  0  0  0  0
 23 14  1  0  0  0  0
 24 28  2  0  0  0  0
 24 32  1  0  0  0  0
 25 31  1  0  0  0  0
 26 27  2  0  0  0  0
 28 31  1  0  0  0  0
 29  2  1  0  0  0  0
 30 26  1  0  0  0  0
 30 29  1  0  0  0  0
 31 26  1  0  0  0  0
 32 30  2  0  0  0  0
 34 33  1  1  0  0  0
 34 35  1  0  0  0  0
 36 35  1  0  0  0  0
M  END
>  <MODEL>
2

>  <REMARK>
 VINA RESULT:      -8.2      3.716      5.106
  Name = 
  3 active torsions:
  status: ('A' for Active; 'I' for Inactive)
    1  A    between atoms: C_3  and  N_23
    2  A    between atoms: N_6  and  C_31
    3  A    between atoms: C_20  and  C_31
                            x       y       z     vdW  Elec       q    Type
                         _______ _______ _______ _____ _____    ______ ____

>  <TORSDO>
F 3

$$$$
=
 OpenBabel10232411103D

 36 41  0  0  1  0  0  0  0  0999 V2000
  186.2950  178.1810  141.0430 C   0  0  0  0  0  0  0  0  0  0  0  0
  188.1600  178.1830  137.5480 C   0  0  0  0  0  0  0  0  0  0  0  0
  187.0440  177.9760  142.1600 N   0  0  0  0  0  0  0  0  0  0  0  0
  186.2400  178.2430  143.2130 C   0  0  0  0  0  0  0  0  0  0  0  0
  183.7350  178.4730  139.2080 C   0  0  0  0  0  0  0  0  0  0  0  0
  184.6310  177.6370  138.4550 N   0  0  0  0  0  0  0  0  0  0  0  0
  184.8690  175.8630  136.9300 O   0  0  0  0  0  0  0  0  0  0  0  0
  184.0970  176.6040  137.5960 C   0  0  0  0  0  0  0  0  0  0  0  0
  182.5490  178.9150  138.7490 N   0  0  0  0  0  0  0  0  0  0  0  0
  182.0200  179.5740  139.8050 C   0  0  0  0  0  3  0  0  0  0  0  0
  183.8920  178.8560  143.7190 C   0  0  0  0  0  3  0  0  0  0  0  0
  186.0510  177.8940  138.4840 C   0  0  0  0  0  0  0  0  0  0  0  0
  186.5320  178.0020  144.6660 C   0  0  0  0  0  2  0  0  0  0  0  0
  185.6020  178.8680  145.5410 C   0  0  0  0  0  2  0  0  0  0  0  0
  183.8860  178.8620  140.5130 C   0  0  0  0  0  0  0  0  0  0  0  0
  182.8180  179.5360  140.8540 O   0  0  0  0  0  0  0  0  0  0  0  0
  186.7990  178.1080  139.6520 C   0  0  0  0  0  0  0  0  0  0  0  0
  186.8250  177.9050  137.3090 C   0  0  0  0  0  3  0  0  0  0  0  0
  182.6930  176.3690  137.5220 N   0  0  0  0  0  1  0  0  0  0  0  0
  184.9930  178.6030  142.7840 C   0  0  0  0  0  0  0  0  0  0  0  0
  188.4110  178.3110  139.2050 S   0  0  0  0  0  0  0  0  0  0  0  0
  185.0070  178.5610  141.4060 C   0  0  0  0  0  0  0  0  0  0  0  0
  184.1740  178.9300  145.0270 C   0  0  0  0  0  3  0  0  0  0  0  0
  191.1120  176.0060  134.3460 C   0  0  0  0  0  3  0  0  0  0  0  0
  189.6400  173.2270  136.2230 C   0  0  0  0  0  1  0  0  0  0  0  0
  189.3830  175.6550  136.4660 C   0  0  0  0  0  0  0  0  0  0  0  0
  188.6610  175.4520  137.4800 O   0  0  0  0  0  0  0  0  0  0  0  0
  190.7710  174.7690  134.7830 N   0  0  0  0  0  0  0  0  0  0  0  0
  189.1900  178.0560  136.5620 N   0  0  0  0  0  2  0  0  0  0  0  0
  189.6740  176.9700  136.0240 C   0  0  0  0  0  0  0  0  0  0  0  0
  189.9350  174.5900  135.8070 N   0  0  0  0  0  0  0  0  0  0  0  0
  190.5690  177.1240  134.9670 C   0  0  0  0  0  3  0  0  0  0  0  0
  188.4750  176.1660  143.0010 C   0  0  0  0  0  1  0  0  0  0  0  0
  188.4140  177.4640  142.2120 C   0  0  2  0  0  3  0  0  0  0  0  0
  189.3630  178.5020  142.7920 C   0  0  0  0  0  2  0  0  0  0  0  0
  190.6660  178.0480  142.7180 F   0  0  0  0  0  0  0  0  0  0  0  0
  1 22  2  0  0  0  0
  1  3  1  0  0  0  0
  2 21  1  0  0  0  0
  3 34  1  0  0  0  0
  3  4  1  0  0  0  0
  4 13  1  0  0  0  0
  5 15  2  0  0  0  0
  6 12  1  0  0  0  0
  6  5  1  0  0  0  0
  7  8  2  0  0  0  0
  8  6  1  0  0  0  0
  9  5  1  0  0  0  0
  9 10  2  0  0  0  0
 10 16  1  0  0  0  0
 11 23  2  0  0  0  0
 12 17  2  0  0  0  0
 13 14  1  0  0  0  0
 15 16  1  0  0  0  0
 15 22  1  0  0  0  0
 17  1  1  0  0  0  0
 18  2  2  0  0  0  0
 18 12  1  0  0  0  0
 19  8  1  0  0  0  0
 20  4  2  0  0  0  0
 20 11  1  0  0  0  0
 21 17  1  0  0  0  0
 22 20  1  0  0  0  0
 23 14  1  0  0  0  0
 24 28  2  0  0  0  0
 24 32  1  0  0  0  0
 26 27  2  0  0  0  0
 28 31  1  0  0  0  0
 29  2  1  0  0  0  0
 30 26  1  0  0  0  0
 30 29  1  0  0  0  0
 31 25  1  0  0  0  0
 31 26  1  0  0  0  0
 32 30  2  0  0  0  0
 34 35  1  0  0  0  0
 34 33  1  1  0  0  0
 36 35  1  0  0  0  0
M  END
>  <MODEL>
3

>  <REMARK>
 VINA RESULT:      -7.5      1.761      2.148
  Name = 
  3 active torsions:
  status: ('A' for Active; 'I' for Inactive)
    1  A    between atoms: C_3  and  N_23
    2  A    between atoms: N_6  and  C_31
    3  A    between atoms: C_20  and  C_31
                            x       y       z     vdW  Elec       q    Type
                         _______ _______ _______ _____ _____    ______ ____

>  <TORSDO>
F 3

$$$$
=
 OpenBabel10232411103D

 36 41  0  0  1  0  0  0  0  0999 V2000
  187.3930  177.9900  142.8310 C   0  0  0  0  0  0  0  0  0  0  0  0
  187.5180  178.7900  138.9530 C   0  0  0  0  0  0  0  0  0  0  0  0
  188.5170  177.4900  143.4100 N   0  0  0  0  0  0  0  0  0  0  0  0
  188.3030  177.5160  144.7450 C   0  0  0  0  0  0  0  0  0  0  0  0
  184.3590  178.8130  142.4790 C   0  0  0  0  0  0  0  0  0  0  0  0
  184.7040  178.1580  141.2460 N   0  0  0  0  0  0  0  0  0  0  0  0
  183.9940  176.8080  139.4570 O   0  0  0  0  0  0  0  0  0  0  0  0
  183.7070  177.3880  140.5380 C   0  0  0  0  0  0  0  0  0  0  0  0
  183.1680  179.3950  142.7180 N   0  0  0  0  0  0  0  0  0  0  0  0
  183.2560  179.7910  144.0080 C   0  0  0  0  0  3  0  0  0  0  0  0
  186.5280  178.0660  146.3860 C   0  0  0  0  0  3  0  0  0  0  0  0
  186.0140  178.3520  140.6720 C   0  0  0  0  0  0  0  0  0  0  0  0
  189.1640  176.9150  145.8180 C   0  0  0  0  0  2  0  0  0  0  0  0
  188.8450  177.5700  147.1770 C   0  0  0  0  0  2  0  0  0  0  0  0
  185.1200  178.8630  143.6180 C   0  0  0  0  0  0  0  0  0  0  0  0
  184.4170  179.4690  144.5400 O   0  0  0  0  0  0  0  0  0  0  0  0
  187.2200  178.2450  141.3820 C   0  0  0  0  0  0  0  0  0  0  0  0
  186.1880  178.6250  139.3020 C   0  0  0  0  0  3  0  0  0  0  0  0
  182.3940  177.2280  141.0720 N   0  0  0  0  0  1  0  0  0  0  0  0
  187.0600  178.0140  145.0200 C   0  0  0  0  0  0  0  0  0  0  0  0
  188.4850  178.4960  140.2960 S   0  0  0  0  0  0  0  0  0  0  0  0
  186.4620  178.3120  143.8130 C   0  0  0  0  0  0  0  0  0  0  0  0
  187.3620  177.8060  147.4020 C   0  0  0  0  0  3  0  0  0  0  0  0
  188.9550  177.2580  134.5590 C   0  0  0  0  0  3  0  0  0  0  0  0
  188.9640  174.2190  136.6020 C   0  0  0  0  0  1  0  0  0  0  0  0
  188.4770  176.5520  137.1830 C   0  0  0  0  0  0  0  0  0  0  0  0
  188.3460  176.1990  138.3860 O   0  0  0  0  0  0  0  0  0  0  0  0
  189.0490  175.9710  134.9730 N   0  0  0  0  0  0  0  0  0  0  0  0
  187.9820  178.8750  137.6010 N   0  0  0  0  0  2  0  0  0  0  0  0
  188.3250  177.9070  136.7940 C   0  0  0  0  0  0  0  0  0  0  0  0
  188.8190  175.6210  136.2400 N   0  0  0  0  0  0  0  0  0  0  0  0
  188.5950  178.2440  135.4700 C   0  0  0  0  0  3  0  0  0  0  0  0
  189.7900  175.4380  142.9660 C   0  0  0  0  0  1  0  0  0  0  0  0
  189.6830  176.9340  142.7220 C   0  0  2  0  0  3  0  0  0  0  0  0
  190.9570  177.6490  143.1430 C   0  0  0  0  0  2  0  0  0  0  0  0
  191.8030  177.7890  142.0580 F   0  0  0  0  0  0  0  0  0  0  0  0
  1  3  1  0  0  0  0
  1 22  2  0  0  0  0
  2 18  2  0  0  0  0
  2 21  1  0  0  0  0
  3  4  1  0  0  0  0
  4 20  2  0  0  0  0
  4 13  1  0  0  0  0
  5  9  1  0  0  0  0
  5 15  2  0  0  0  0
  6  5  1  0  0  0  0
  7  8  2  0  0  0  0
  8 19  1  0  0  0  0
  8  6  1  0  0  0  0
  9 10  2  0  0  0  0
 10 16  1  0  0  0  0
 11 23  2  0  0  0  0
 12  6  1  0  0  0  0
 12 17  2  0  0  0  0
 13 14  1  0  0  0  0
 14 23  1  0  0  0  0
 15 22  1  0  0  0  0
 15 16  1  0  0  0  0
 17  1  1  0  0  0  0
 18 12  1  0  0  0  0
 20 11  1  0  0  0  0
 21 17  1  0  0  0  0
 22 20  1  0  0  0  0
 24 28  2  0  0  0  0
 24 32  1  0  0  0  0
 26 27  2  0  0  0  0
 28 31  1  0  0  0  0
 29  2  1  0  0  0  0
 30 26  1  0  0  0  0
 30 29  1  0  0  0  0
 31 25  1  0  0  0  0
 31 26  1  0  0  0  0
 32 30  2  0  0  0  0
 34 33  1  1  0  0  0
 34 35  1  0  0  0  0
 34  3  1  0  0  0  0
 36 35  1  0  0  0  0
M  END
>  <MODEL>
4

>  <REMARK>
 VINA RESULT:      -7.0      1.384      1.659
  Name = 
  3 active torsions:
  status: ('A' for Active; 'I' for Inactive)
    1  A    between atoms: C_3  and  N_23
    2  A    between atoms: N_6  and  C_31
    3  A    between atoms: C_20  and  C_31
                            x       y       z     vdW  Elec       q    Type
                         _______ _______ _______ _____ _____    ______ ____

>  <TORSDO>
F 3

$$$$
=
 OpenBabel10232411103D

 36 41  0  0  1  0  0  0  0  0999 V2000
  188.5750  177.2880  139.2340 C   0  0  0  0  0  0  0  0  0  0  0  0
  185.2340  179.1630  140.2380 C   0  0  0  0  0  0  0  0  0  0  0  0
  188.6320  176.7120  138.0030 N   0  0  0  0  0  0  0  0  0  0  0  0
  189.9190  176.3450  137.8130 C   0  0  0  0  0  0  0  0  0  0  0  0
  189.3750  177.9930  142.2120 C   0  0  0  0  0  0  0  0  0  0  0  0
  187.9610  177.7390  142.2650 N   0  0  0  0  0  0  0  0  0  0  0  0
  186.1450  176.9130  143.5100 O   0  0  0  0  0  0  0  0  0  0  0  0
  187.3820  177.1440  143.4490 C   0  0  0  0  0  0  0  0  0  0  0  0
  190.1070  178.4110  143.2630 N   0  0  0  0  0  0  0  0  0  0  0  0
  191.3730  178.4290  142.7870 C   0  0  0  0  0  3  0  0  0  0  0  0
  192.0910  176.2980  139.0080 C   0  0  0  0  0  3  0  0  0  0  0  0
  187.1120  178.1650  141.1790 C   0  0  0  0  0  0  0  0  0  0  0  0
  190.4740  175.5160  136.6910 C   0  0  0  0  0  2  0  0  0  0  0  0
  191.9960  175.7360  136.5750 C   0  0  0  0  0  2  0  0  0  0  0  0
  190.2060  177.7630  141.1480 C   0  0  0  0  0  0  0  0  0  0  0  0
  191.4280  178.0380  141.5300 O   0  0  0  0  0  0  0  0  0  0  0  0
  187.3780  177.9340  139.8200 C   0  0  0  0  0  0  0  0  0  0  0  0
  185.8910  178.8270  141.4090 C   0  0  0  0  0  3  0  0  0  0  0  0
  188.2040  176.7600  144.5490 N   0  0  0  0  0  1  0  0  0  0  0  0
  190.6760  176.6680  138.9050 C   0  0  0  0  0  0  0  0  0  0  0  0
  186.0920  178.5590  138.9270 S   0  0  0  0  0  0  0  0  0  0  0  0
  189.8350  177.2610  139.8240 C   0  0  0  0  0  0  0  0  0  0  0  0
  192.7000  175.8100  137.9190 C   0  0  0  0  0  3  0  0  0  0  0  0
  180.3660  179.0320  140.1760 C   0  0  0  0  0  3  0  0  0  0  0  0
  181.3530  175.5520  139.5980 C   0  0  0  0  0  1  0  0  0  0  0  0
  182.6960  177.5870  139.8670 C   0  0  0  0  0  0  0  0  0  0  0  0
  183.7320  176.9040  139.6420 O   0  0  0  0  0  0  0  0  0  0  0  0
  180.3460  177.6910  139.9770 N   0  0  0  0  0  0  0  0  0  0  0  0
  183.8900  179.6570  140.1920 N   0  0  0  0  0  0  0  0  0  0  0  0
  182.7760  178.9810  140.1130 C   0  0  0  0  0  0  0  0  0  0  0  0
  181.4680  176.9850  139.8280 N   0  0  0  0  0  0  0  0  0  0  0  0
  181.5860  179.6940  140.2410 C   0  0  0  0  0  2  0  0  0  0  0  0
  187.2680  174.9500  136.9710 C   0  0  0  0  0  1  0  0  0  0  0  0
  187.5050  176.4450  137.1100 C   0  0  2  0  0  3  0  0  0  0  0  0
  187.7220  177.0930  135.7500 C   0  0  0  0  0  2  0  0  0  0  0  0
  188.0970  178.4140  135.9090 F   0  0  0  0  0  0  0  0  0  0  0  0
  1 17  1  0  0  0  0
  1 22  2  0  0  0  0
  2 18  2  0  0  0  0
  3  1  1  0  0  0  0
  4  3  1  0  0  0  0
  4 20  2  0  0  0  0
  5  6  1  0  0  0  0
  5  9  1  0  0  0  0
  6  8  1  0  0  0  0
  8  7  2  0  0  0  0
  8 19  1  0  0  0  0
 10  9  2  0  0  0  0
 12 18  1  0  0  0  0
 12  6  1  0  0  0  0
 13  4  1  0  0  0  0
 14 13  1  0  0  0  0
 14 23  1  0  0  0  0
 15 16  1  0  0  0  0
 15  5  2  0  0  0  0
 16 10  1  0  0  0  0
 17 12  2  0  0  0  0
 20 11  1  0  0  0  0
 20 22  1  0  0  0  0
 21 17  1  0  0  0  0
 21  2  1  0  0  0  0
 22 15  1  0  0  0  0
 23 11  2  0  0  0  0
 24 32  1  0  0  0  0
 25 31  1  0  0  0  0
 26 30  1  0  0  0  0
 27 26  2  0  0  0  0
 28 24  2  0  0  0  0
 29  2  1  0  0  0  0
 30 29  2  0  0  0  0
 30 32  1  0  0  0  0
 31 26  1  0  0  0  0
 31 28  1  0  0  0  0
 34 33  1  6  0  0  0
 34  3  1  0  0  0  0
 35 36  1  0  0  0  0
 35 34  1  0  0  0  0
M  END
>  <MODEL>
5

>  <REMARK>
 VINA RESULT:      -6.4      2.967      7.313
  Name = 
  3 active torsions:
  status: ('A' for Active; 'I' for Inactive)
    1  A    between atoms: C_3  and  N_23
    2  A    between atoms: N_6  and  C_31
    3  A    between atoms: C_20  and  C_31
                            x       y       z     vdW  Elec       q    Type
                         _______ _______ _______ _____ _____    ______ ____

>  <TORSDO>
F 3

$$$$
=
 OpenBabel10232411103D

 36 41  0  0  1  0  0  0  0  0999 V2000
  189.5900  176.7860  139.1810 C   0  0  0  0  0  0  0  0  0  0  0  0
  192.8060  175.3770  137.3480 C   0  0  0  0  0  0  0  0  0  0  0  0
  189.6720  177.0090  140.5210 N   0  0  0  0  0  0  0  0  0  0  0  0
  188.5530  177.6870  140.8640 C   0  0  0  0  0  0  0  0  0  0  0  0
  188.3050  176.4160  136.3150 C   0  0  0  0  0  0  0  0  0  0  0  0
  189.2360  175.3280  136.4400 N   0  0  0  0  0  0  0  0  0  0  0  0
  189.7520  173.0950  135.9130 O   0  0  0  0  0  0  0  0  0  0  0  0
  188.9460  174.0580  135.8120 C   0  0  0  0  0  0  0  0  0  0  0  0
  187.5960  176.6800  135.2000 N   0  0  0  0  0  0  0  0  0  0  0  0
  186.8010  177.7120  135.5610 C   0  0  0  0  0  3  0  0  0  0  0  0
  186.4390  178.5160  139.8690 C   0  0  0  0  0  3  0  0  0  0  0  0
  190.4990  175.5350  137.1080 C   0  0  0  0  0  0  0  0  0  0  0  0
  188.0790  178.0210  142.2480 C   0  0  0  0  0  2  0  0  0  0  0  0
  187.0690  179.1850  142.1920 C   0  0  0  0  0  2  0  0  0  0  0  0
  187.9180  177.2770  137.3080 C   0  0  0  0  0  0  0  0  0  0  0  0
  186.9920  178.0610  136.8170 O   0  0  0  0  0  0  0  0  0  0  0  0
  190.6490  176.1640  138.3530 C   0  0  0  0  0  0  0  0  0  0  0  0
  191.7090  175.0660  136.5630 C   0  0  0  0  0  3  0  0  0  0  0  0
  187.7220  173.8540  135.1100 N   0  0  0  0  0  1  0  0  0  0  0  0
  187.7610  177.8880  139.7680 C   0  0  0  0  0  0  0  0  0  0  0  0
  192.2850  176.1300  138.7570 S   0  0  0  0  0  0  0  0  0  0  0  0
  188.4000  177.3130  138.6890 C   0  0  0  0  0  0  0  0  0  0  0  0
  186.0940  179.0840  141.0320 C   0  0  0  0  0  3  0  0  0  0  0  0
  197.4600  175.2660  135.9170 C   0  0  0  0  0  3  0  0  0  0  0  0
  196.1230  178.2920  134.3460 C   0  0  0  0  0  1  0  0  0  0  0  0
  195.0410  176.5780  135.7270 C   0  0  0  0  0  0  0  0  0  0  0  0
  193.9390  177.1650  135.5490 O   0  0  0  0  0  0  0  0  0  0  0  0
  197.3360  176.4240  135.2240 N   0  0  0  0  0  0  0  0  0  0  0  0
  194.1190  174.8470  137.1300 N   0  0  0  0  0  2  0  0  0  0  0  0
  195.1240  175.3910  136.4990 C   0  0  0  0  0  0  0  0  0  0  0  0
  196.1700  177.0660  135.1280 N   0  0  0  0  0  0  0  0  0  0  0  0
  196.3500  174.7330  136.5600 C   0  0  0  0  0  3  0  0  0  0  0  0
  190.0920  175.8390  142.6390 C   0  0  0  0  0  1  0  0  0  0  0  0
  190.7100  176.5170  141.4270 C   0  0  2  0  0  3  0  0  0  0  0  0
  191.6430  177.6430  141.8480 C   0  0  0  0  0  2  0  0  0  0  0  0
  192.0260  177.4740  143.1660 F   0  0  0  0  0  0  0  0  0  0  0  0
  1  3  1  0  0  0  0
  2 21  1  0  0  0  0
  3  4  1  0  0  0  0
  3 34  1  0  0  0  0
  4 13  1  0  0  0  0
  5  6  1  0  0  0  0
  5 15  2  0  0  0  0
  6 12  1  0  0  0  0
  8  7  2  0  0  0  0
  8  6  1  0  0  0  0
  9 10  2  0  0  0  0
  9  5  1  0  0  0  0
 10 16  1  0  0  0  0
 11 23  2  0  0  0  0
 12 17  2  0  0  0  0
 14 13  1  0  0  0  0
 15 22  1  0  0  0  0
 16 15  1  0  0  0  0
 17 21  1  0  0  0  0
 17  1  1  0  0  0  0
 18 12  1  0  0  0  0
 18  2  2  0  0  0  0
 19  8  1  0  0  0  0
 20 11  1  0  0  0  0
 20  4  2  0  0  0  0
 22  1  2  0  0  0  0
 22 20  1  0  0  0  0
 23 14  1  0  0  0  0
 24 32  1  0  0  0  0
 25 31  1  0  0  0  0
 26 30  1  0  0  0  0
 27 26  2  0  0  0  0
 28 24  2  0  0  0  0
 29  2  1  0  0  0  0
 30 32  2  0  0  0  0
 30 29  1  0  0  0  0
 31 28  1  0  0  0  0
 31 26  1  0  0  0  0
 34 35  1  0  0  0  0
 34 33  1  1  0  0  0
 35 36  1  0  0  0  0
M  END
>  <MODEL>
6

>  <REMARK>
 VINA RESULT:      -6.3      4.615      7.002
  Name = 
  3 active torsions:
  status: ('A' for Active; 'I' for Inactive)
    1  A    between atoms: C_3  and  N_23
    2  A    between atoms: N_6  and  C_31
    3  A    between atoms: C_20  and  C_31
                            x       y       z     vdW  Elec       q    Type
                         _______ _______ _______ _____ _____    ______ ____

>  <TORSDO>
F 3

$$$$
=
 OpenBabel10232411103D

 36 41  0  0  1  0  0  0  0  0999 V2000
  189.3840  175.6920  137.6070 C   0  0  0  0  0  0  0  0  0  0  0  0
  186.6650  178.4040  138.5790 C   0  0  0  0  0  0  0  0  0  0  0  0
  189.0500  174.7730  136.6610 N   0  0  0  0  0  0  0  0  0  0  0  0
  190.1910  174.1190  136.3460 C   0  0  0  0  0  0  0  0  0  0  0  0
  191.0070  177.0900  139.9340 C   0  0  0  0  0  0  0  0  0  0  0  0
  189.6350  177.1480  140.3610 N   0  0  0  0  0  0  0  0  0  0  0  0
  188.1200  177.1110  142.1580 O   0  0  0  0  0  0  0  0  0  0  0  0
  189.3170  177.0630  141.7680 C   0  0  0  0  0  0  0  0  0  0  0  0
  192.0310  177.6520  140.6040 N   0  0  0  0  0  0  0  0  0  0  0  0
  193.1230  177.2760  139.9000 C   0  0  0  0  0  3  0  0  0  0  0  0
  192.5770  174.0070  137.0100 C   0  0  0  0  0  3  0  0  0  0  0  0
  188.5900  177.3860  139.3940 C   0  0  0  0  0  0  0  0  0  0  0  0
  190.3320  172.8980  135.4840 C   0  0  0  0  0  2  0  0  0  0  0  0
  191.7880  172.7680  134.9890 C   0  0  0  0  0  2  0  0  0  0  0  0
  191.5000  176.3910  138.8630 C   0  0  0  0  0  0  0  0  0  0  0  0
  192.8020  176.5210  138.8690 O   0  0  0  0  0  0  0  0  0  0  0  0
  188.4650  176.7080  138.1710 C   0  0  0  0  0  0  0  0  0  0  0  0
  187.5590  178.3140  139.6320 C   0  0  0  0  0  3  0  0  0  0  0  0
  190.3440  176.8750  142.7390 N   0  0  0  0  0  1  0  0  0  0  0  0
  191.2370  174.6000  137.0820 C   0  0  0  0  0  0  0  0  0  0  0  0
  187.0750  177.2750  137.4040 S   0  0  0  0  0  0  0  0  0  0  0  0
  190.7410  175.5960  137.8960 C   0  0  0  0  0  0  0  0  0  0  0  0
  192.8200  173.1030  136.0510 C   0  0  0  0  0  3  0  0  0  0  0  0
  181.8610  179.0910  138.9860 C   0  0  0  0  0  3  0  0  0  0  0  0
  182.1950  175.4870  138.4260 C   0  0  0  0  0  1  0  0  0  0  0  0
  183.8770  177.2710  138.5010 C   0  0  0  0  0  0  0  0  0  0  0  0
  184.7570  176.4210  138.2000 O   0  0  0  0  0  0  0  0  0  0  0  0
  181.5990  177.7700  138.8320 N   0  0  0  0  0  0  0  0  0  0  0  0
  185.4240  179.1150  138.6460 N   0  0  0  0  0  0  0  0  0  0  0  0
  184.2100  178.6360  138.6950 C   0  0  0  0  0  0  0  0  0  0  0  0
  182.5680  176.8830  138.5980 N   0  0  0  0  0  0  0  0  0  0  0  0
  183.1740  179.5400  138.9140 C   0  0  0  0  0  2  0  0  0  0  0  0
  187.3040  173.0530  136.5100 C   0  0  0  0  0  1  0  0  0  0  0  0
  187.7060  174.4770  136.1640 C   0  0  2  0  0  3  0  0  0  0  0  0
  187.6120  174.7230  134.6660 C   0  0  0  0  0  2  0  0  0  0  0  0
  188.2040  175.9310  134.3460 F   0  0  0  0  0  0  0  0  0  0  0  0
  1 22  2  0  0  0  0
  1 17  1  0  0  0  0
  2 29  1  0  0  0  0
  2 18  2  0  0  0  0
  3  1  1  0  0  0  0
  4  3  1  0  0  0  0
  4 20  2  0  0  0  0
  5  6  1  0  0  0  0
  5  9  1  0  0  0  0
  6  8  1  0  0  0  0
  8  7  2  0  0  0  0
  8 19  1  0  0  0  0
 10  9  2  0  0  0  0
 11 20  1  0  0  0  0
 12 18  1  0  0  0  0
 12  6  1  0  0  0  0
 13  4  1  0  0  0  0
 14 13  1  0  0  0  0
 14 23  1  0  0  0  0
 15 16  1  0  0  0  0
 15  5  2  0  0  0  0
 16 10  1  0  0  0  0
 17 12  2  0  0  0  0
 20 22  1  0  0  0  0
 21 17  1  0  0  0  0
 21  2  1  0  0  0  0
 22 15  1  0  0  0  0
 23 11  2  0  0  0  0
 25 31  1  0  0  0  0
 26 31  1  0  0  0  0
 26 30  1  0  0  0  0
 27 26  2  0  0  0  0
 28 24  2  0  0  0  0
 29 30  2  0  0  0  0
 30 32  1  0  0  0  0
 31 28  1  0  0  0  0
 32 24  1  0  0  0  0
 34 33  1  6  0  0  0
 34  3  1  0  0  0  0
 35 34  1  0  0  0  0
 36 35  1  0  0  0  0
M  END
>  <MODEL>
7

>  <REMARK>
 VINA RESULT:      -6.3      3.710      8.300
  Name = 
  3 active torsions:
  status: ('A' for Active; 'I' for Inactive)
    1  A    between atoms: C_3  and  N_23
    2  A    between atoms: N_6  and  C_31
    3  A    between atoms: C_20  and  C_31
                            x       y       z     vdW  Elec       q    Type
                         _______ _______ _______ _____ _____    ______ ____

>  <TORSDO>
F 3

$$$$
=
 OpenBabel10232411103D

 36 41  0  0  1  0  0  0  0  0999 V2000
  190.6660  175.0620  137.4680 C   0  0  0  0  0  0  0  0  0  0  0  0
  189.9520  177.4020  140.5840 C   0  0  0  0  0  0  0  0  0  0  0  0
  191.9640  174.8160  137.1460 N   0  0  0  0  0  0  0  0  0  0  0  0
  191.9470  173.8350  136.2160 C   0  0  0  0  0  0  0  0  0  0  0  0
  187.5160  175.1690  137.1930 C   0  0  0  0  0  0  0  0  0  0  0  0
  187.8840  176.4720  137.6800 N   0  0  0  0  0  0  0  0  0  0  0  0
  187.4310  178.7790  137.6950 O   0  0  0  0  0  0  0  0  0  0  0  0
  187.1200  177.6310  137.2780 C   0  0  0  0  0  0  0  0  0  0  0  0
  186.2450  174.7620  137.0130 N   0  0  0  0  0  0  0  0  0  0  0  0
  186.3760  173.5320  136.4670 C   0  0  0  0  0  3  0  0  0  0  0  0
  190.3450  172.4800  134.8940 C   0  0  0  0  0  3  0  0  0  0  0  0
  188.9520  176.6040  138.6420 C   0  0  0  0  0  0  0  0  0  0  0  0
  193.1060  173.3230  135.4110 C   0  0  0  0  0  2  0  0  0  0  0  0
  192.7800  171.9230  134.8510 C   0  0  0  0  0  2  0  0  0  0  0  0
  188.3690  174.1930  136.7480 C   0  0  0  0  0  0  0  0  0  0  0  0
  187.6410  173.2000  136.3070 O   0  0  0  0  0  0  0  0  0  0  0  0
  190.2100  175.9930  138.5270 C   0  0  0  0  0  0  0  0  0  0  0  0
  188.8240  177.4200  139.7820 C   0  0  0  0  0  3  0  0  0  0  0  0
  186.0330  177.5070  136.3640 N   0  0  0  0  0  1  0  0  0  0  0  0
  190.6620  173.4620  135.9370 C   0  0  0  0  0  0  0  0  0  0  0  0
  191.1430  176.4740  139.8460 S   0  0  0  0  0  0  0  0  0  0  0  0
  189.8320  174.2390  136.7180 C   0  0  0  0  0  0  0  0  0  0  0  0
  191.3540  171.7900  134.3460 C   0  0  0  0  0  3  0  0  0  0  0  0
  191.4410  178.8940  144.9740 C   0  0  0  0  0  3  0  0  0  0  0  0
  191.7820  175.2500  145.1160 C   0  0  0  0  0  1  0  0  0  0  0  0
  190.9290  176.7240  143.3500 C   0  0  0  0  0  0  0  0  0  0  0  0
  190.6370  175.7020  142.6720 O   0  0  0  0  0  0  0  0  0  0  0  0
  191.7170  177.6290  145.3760 N   0  0  0  0  0  0  0  0  0  0  0  0
  190.1610  178.2920  141.6870 N   0  0  0  0  0  0  0  0  0  0  0  0
  190.6590  178.0280  142.8640 C   0  0  0  0  0  0  0  0  0  0  0  0
  191.4740  176.5740  144.5960 N   0  0  0  0  0  0  0  0  0  0  0  0
  190.9030  179.1070  143.7110 C   0  0  0  0  0  2  0  0  0  0  0  0
  193.6460  176.5110  136.5710 C   0  0  0  0  0  1  0  0  0  0  0  0
  193.1380  175.5450  137.6290 C   0  0  2  0  0  3  0  0  0  0  0  0
  194.2340  174.5840  138.0640 C   0  0  0  0  0  2  0  0  0  0  0  0
  195.4070  174.8650  137.3870 F   0  0  0  0  0  0  0  0  0  0  0  0
  1 17  1  0  0  0  0
  2 29  1  0  0  0  0
  3  1  1  0  0  0  0
  3 34  1  0  0  0  0
  4  3  1  0  0  0  0
  5  6  1  0  0  0  0
  6 12  1  0  0  0  0
  8  6  1  0  0  0  0
  8  7  2  0  0  0  0
  9  5  1  0  0  0  0
 10  9  2  0  0  0  0
 11 20  1  0  0  0  0
 12 18  1  0  0  0  0
 13  4  1  0  0  0  0
 14 13  1  0  0  0  0
 15  5  2  0  0  0  0
 16 10  1  0  0  0  0
 16 15  1  0  0  0  0
 17 12  2  0  0  0  0
 17 21  1  0  0  0  0
 18  2  2  0  0  0  0
 19  8  1  0  0  0  0
 20  4  2  0  0  0  0
 20 22  1  0  0  0  0
 21  2  1  0  0  0  0
 22 15  1  0  0  0  0
 22  1  2  0  0  0  0
 23 14  1  0  0  0  0
 23 11  2  0  0  0  0
 24 28  2  0  0  0  0
 26 31  1  0  0  0  0
 27 26  2  0  0  0  0
 29 30  2  0  0  0  0
 30 26  1  0  0  0  0
 30 32  1  0  0  0  0
 31 25  1  0  0  0  0
 31 28  1  0  0  0  0
 32 24  1  0  0  0  0
 34 33  1  6  0  0  0
 34 35  1  0  0  0  0
 36 35  1  0  0  0  0
M  END
>  <MODEL>
8

>  <REMARK>
 VINA RESULT:      -6.2      4.745      8.916
  Name = 
  3 active torsions:
  status: ('A' for Active; 'I' for Inactive)
    1  A    between atoms: C_3  and  N_23
    2  A    between atoms: N_6  and  C_31
    3  A    between atoms: C_20  and  C_31
                            x       y       z     vdW  Elec       q    Type
                         _______ _______ _______ _____ _____    ______ ____

>  <TORSDO>
F 3

$$$$
=
 OpenBabel10232411103D

 36 41  0  0  1  0  0  0  0  0999 V2000
  189.1500  176.9380  138.5500 C   0  0  0  0  0  0  0  0  0  0  0  0
  186.6670  178.4870  141.2190 C   0  0  0  0  0  0  0  0  0  0  0  0
  188.6330  176.5570  137.3520 N   0  0  0  0  0  0  0  0  0  0  0  0
  189.6870  176.2810  136.5510 C   0  0  0  0  0  0  0  0  0  0  0  0
  191.2210  177.2270  140.9240 C   0  0  0  0  0  0  0  0  0  0  0  0
  189.9750  176.9020  141.5650 N   0  0  0  0  0  0  0  0  0  0  0  0
  188.8900  175.8170  143.3470 O   0  0  0  0  0  0  0  0  0  0  0  0
  189.9740  176.1100  142.7740 C   0  0  0  0  0  0  0  0  0  0  0  0
  192.3580  177.5160  141.5860 N   0  0  0  0  0  0  0  0  0  0  0  0
  193.2740  177.6630  140.6030 C   0  0  0  0  0  3  0  0  0  0  0  0
  192.1620  176.1560  136.6240 C   0  0  0  0  0  3  0  0  0  0  0  0
  188.7400  177.4470  141.0530 C   0  0  0  0  0  0  0  0  0  0  0  0
  189.6560  175.6560  135.1870 C   0  0  0  0  0  2  0  0  0  0  0  0
  190.9700  175.9610  134.4380 C   0  0  0  0  0  2  0  0  0  0  0  0
  191.4790  177.1970  139.5790 C   0  0  0  0  0  0  0  0  0  0  0  0
  192.7480  177.4670  139.4110 O   0  0  0  0  0  0  0  0  0  0  0  0
  188.3610  177.4340  139.7020 C   0  0  0  0  0  0  0  0  0  0  0  0
  187.7710  178.0100  141.9050 C   0  0  0  0  0  3  0  0  0  0  0  0
  191.1920  175.6040  143.3160 N   0  0  0  0  0  1  0  0  0  0  0  0
  190.8620  176.4720  137.2250 C   0  0  0  0  0  0  0  0  0  0  0  0
  186.8280  178.1260  139.5870 S   0  0  0  0  0  0  0  0  0  0  0  0
  190.5390  176.8820  138.5020 C   0  0  0  0  0  0  0  0  0  0  0  0
  192.2040  175.8650  135.3170 C   0  0  0  0  0  3  0  0  0  0  0  0
  183.5900  179.5380  144.8450 C   0  0  0  0  0  3  0  0  0  0  0  0
  186.2780  177.6650  146.4810 C   0  0  0  0  0  1  0  0  0  0  0  0
  185.9170  178.2430  144.1250 C   0  0  0  0  0  0  0  0  0  0  0  0
  186.9440  177.5740  143.8280 O   0  0  0  0  0  0  0  0  0  0  0  0
  184.3770  178.9330  145.7680 N   0  0  0  0  0  0  0  0  0  0  0  0
  185.4590  178.9200  141.8560 N   0  0  0  0  0  0  0  0  0  0  0  0
  185.1520  178.8950  143.1250 C   0  0  0  0  0  0  0  0  0  0  0  0
  185.5050  178.3050  145.4280 N   0  0  0  0  0  0  0  0  0  0  0  0
  183.9690  179.5220  143.5080 C   0  0  0  0  0  2  0  0  0  0  0  0
  186.9080  174.9110  136.7600 C   0  0  0  0  0  1  0  0  0  0  0  0
  187.2170  176.3750  137.0280 C   0  0  2  0  0  3  0  0  0  0  0  0
  186.8130  177.2440  135.8470 C   0  0  0  0  0  2  0  0  0  0  0  0
  187.3460  178.5120  135.9870 F   0  0  0  0  0  0  0  0  0  0  0  0
  1 17  1  0  0  0  0
  2 29  1  0  0  0  0
  2 18  2  0  0  0  0
  3  1  1  0  0  0  0
  4 20  2  0  0  0  0
  4  3  1  0  0  0  0
  5  6  1  0  0  0  0
  5  9  1  0  0  0  0
  6  8  1  0  0  0  0
  8 19  1  0  0  0  0
  8  7  2  0  0  0  0
 10  9  2  0  0  0  0
 11 20  1  0  0  0  0
 12  6  1  0  0  0  0
 12 18  1  0  0  0  0
 13  4  1  0  0  0  0
 14 13  1  0  0  0  0
 14 23  1  0  0  0  0
 15  5  2  0  0  0  0
 16 15  1  0  0  0  0
 16 10  1  0  0  0  0
 17 12  2  0  0  0  0
 20 22  1  0  0  0  0
 21 17  1  0  0  0  0
 21  2  1  0  0  0  0
 22  1  2  0  0  0  0
 22 15  1  0  0  0  0
 23 11  2  0  0  0  0
 24 28  2  0  0  0  0
 26 31  1  0  0  0  0
 27 26  2  0  0  0  0
 29 30  2  0  0  0  0
 30 32  1  0  0  0  0
 30 26  1  0  0  0  0
 31 28  1  0  0  0  0
 31 25  1  0  0  0  0
 32 24  1  0  0  0  0
 34 33  1  6  0  0  0
 34  3  1  0  0  0  0
 35 36  1  0  0  0  0
 35 34  1  0  0  0  0
M  END
>  <MODEL>
9

>  <REMARK>
 VINA RESULT:      -6.1      3.411      8.771
  Name = 
  3 active torsions:
  status: ('A' for Active; 'I' for Inactive)
    1  A    between atoms: C_3  and  N_23
    2  A    between atoms: N_6  and  C_31
    3  A    between atoms: C_20  and  C_31
                            x       y       z     vdW  Elec       q    Type
                         _______ _______ _______ _____ _____    ______ ____

>  <TORSDO>
F 3

$$$$
