=
 OpenBabel10232411033D

 39 43  0  0  1  0  0  0  0  0999 V2000
  190.1350  177.2170  142.4770 C   0  0  2  0  0  3  0  0  0  0  0  0
  186.0460  177.9710  140.7990 C   0  0  1  0  0  3  0  0  0  0  0  0
  189.6480  176.9210  148.0920 C   0  0  0  0  0  1  0  0  0  0  0  0
  190.4300  176.2000  139.6660 C   0  0  0  0  0  2  0  0  0  0  0  0
  188.3650  179.8710  142.2800 C   0  0  0  0  0  1  0  0  0  0  0  0
  188.9100  177.8260  145.8620 C   0  0  0  0  0  0  0  0  0  0  0  0
  187.8720  177.8230  139.0670 C   0  0  1  0  0  3  0  0  0  0  0  0
  189.9210  177.2620  146.6650 C   0  0  0  0  0  0  0  0  0  0  0  0
  186.3850  178.0900  144.6310 C   0  0  0  0  0  0  0  0  0  0  0  0
  184.9720  178.3480  139.9880 O   0  0  0  0  0  1  0  0  0  0  0  0
  187.3550  178.6090  140.2770 C   0  0  2  0  0  3  0  0  0  0  0  0
  187.6670  176.7250  142.8210 C   0  0  0  0  0  2  0  0  0  0  0  0
  187.0590  178.0370  137.9490 O   0  0  0  0  0  1  0  0  0  0  0  0
  191.5970  176.8790  140.4070 C   0  0  0  0  0  2  0  0  0  0  0  0
  188.7320  177.3600  141.9780 N   0  0  1  0  0  0  0  0  0  0  0  0
  189.3330  178.1180  138.7170 C   0  0  0  0  0  2  0  0  0  0  0  0
  186.5590  177.6800  143.2660 C   0  0  0  0  0  0  0  0  0  0  0  0
  190.3320  177.6290  143.9220 C   0  0  0  0  0  0  0  0  0  0  0  0
  190.0220  176.8660  138.4210 N   0  0  0  0  0  0  0  0  0  0  0  0
  191.3430  177.0470  144.6970 C   0  0  0  0  0  3  0  0  0  0  0  0
  188.4560  178.6710  141.3450 C   0  0  2  0  0  3  0  0  0  0  0  0
  189.2180  178.1370  144.5600 C   0  0  0  0  0  3  0  0  0  0  0  0
  184.7210  179.7020  143.9120 C   0  0  0  0  0  3  0  0  0  0  0  0
  184.8680  179.2930  142.5900 C   0  0  0  0  0  3  0  0  0  0  0  0
  191.1700  176.9390  146.0860 C   0  0  0  0  0  0  0  0  0  0  0  0
  185.4740  179.1070  144.9180 C   0  0  0  0  0  3  0  0  0  0  0  0
  185.7700  178.2810  142.2560 C   0  0  0  0  0  0  0  0  0  0  0  0
  187.1790  177.3280  146.0910 S   0  0  0  0  0  0  0  0  0  0  0  0
  191.1620  177.8410  141.5210 C   0  0  0  0  0  2  0  0  0  0  0  0
  192.2060  176.4290  146.8650 O   0  0  0  0  0  1  0  0  0  0  0  0
  191.1680  177.1340  137.6450 N   0  0  0  0  0  2  0  0  0  0  0  0
  190.3080  175.1730  136.6260 O   0  0  0  0  0  1  0  0  0  0  0  0
  191.4010  176.0460  136.6870 C   0  0  2  0  0  3  0  0  0  0  0  0
  192.6520  175.2790  137.0860 C   0  0  0  0  0  2  0  0  0  0  0  0
  193.7270  176.2070  137.3820 N   0  0  0  0  0  2  0  0  0  0  0  0
  194.3950  175.7070  138.5090 N   0  0  0  0  0  2  0  0  0  0  0  0
  194.8610  174.3710  138.1700 C   0  0  0  0  0  2  0  0  0  0  0  0
  196.1730  174.9760  139.9150 O   0  0  0  0  0  1  0  0  0  0  0  0
  195.8110  173.9050  139.1660 N   0  0  0  0  0  2  0  0  0  0  0  0
  1 29  1  6  0  0  0
  1 18  1  0  0  0  0
  2 10  1  6  0  0  0
  2 27  1  0  0  0  0
  4 14  1  0  0  0  0
  6 28  1  0  0  0  0
  6  8  1  0  0  0  0
  7 13  1  6  0  0  0
  7 11  1  0  0  0  0
  8  3  1  0  0  0  0
  9 26  1  0  0  0  0
  9 28  1  0  0  0  0
 11  2  1  0  0  0  0
 11 21  1  0  0  0  0
 12 17  1  0  0  0  0
 14 29  1  0  0  0  0
 15  1  1  0  0  0  0
 15 12  1  0  0  0  0
 16  7  1  0  0  0  0
 17  9  2  0  0  0  0
 18 22  1  0  0  0  0
 18 20  2  0  0  0  0
 19 16  1  0  0  0  0
 19  4  1  0  0  0  0
 20 25  1  0  0  0  0
 21 15  1  0  0  0  0
 21  5  1  0  0  0  0
 22  6  2  0  0  0  0
 23 26  2  0  0  0  0
 24 23  1  0  0  0  0
 25  8  2  0  0  0  0
 25 30  1  0  0  0  0
 27 24  2  0  0  0  0
 27 17  1  0  0  0  0
 31 19  1  0  0  0  0
 32 33  1  0  0  0  0
 33 34  1  0  0  0  0
 33 31  1  0  0  0  0
 34 35  1  0  0  0  0
 35 36  1  0  0  0  0
 37 36  1  0  0  0  0
 37 39  1  0  0  0  0
 39 38  1  0  0  0  0
M  END
>  <MODEL>
1

>  <REMARK>
 VINA RESULT:      -7.3      0.000      0.000
  Name = 
  7 active torsions:
  status: ('A' for Active; 'I' for Inactive)
    1  A    between atoms: C_3  and  N_23
    2  A    between atoms: C_3  and  N_27
    3  A    between atoms: N_9  and  N_27
    4  A    between atoms: N_9  and  C_32
    5  A    between atoms: N_22  and  N_25
    6  A    between atoms: N_25  and  C_39
    7  A    between atoms: C_32  and  C_39
                            x       y       z     vdW  Elec       q    Type
                         _______ _______ _______ _____ _____    ______ ____

>  <TORSDO>
F 7

$$$$
=
 OpenBabel10232411033D

 39 43  0  0  1  0  0  0  0  0999 V2000
  190.0660  177.2190  142.4480 C   0  0  2  0  0  3  0  0  0  0  0  0
  185.9440  177.9820  140.8590 C   0  0  1  0  0  3  0  0  0  0  0  0
  189.6930  176.8780  148.0700 C   0  0  0  0  0  1  0  0  0  0  0  0
  190.3060  176.2240  139.6240 C   0  0  0  0  0  2  0  0  0  0  0  0
  188.2910  179.8720  142.3080 C   0  0  0  0  0  1  0  0  0  0  0  0
  188.9090  177.8000  145.8620 C   0  0  0  0  0  0  0  0  0  0  0  0
  187.7350  177.8490  139.0890 C   0  0  1  0  0  3  0  0  0  0  0  0
  189.9370  177.2300  146.6400 C   0  0  0  0  0  0  0  0  0  0  0  0
  186.3600  178.0710  144.6840 C   0  0  0  0  0  0  0  0  0  0  0  0
  184.8540  178.3640  140.0730 O   0  0  0  0  0  1  0  0  0  0  0  0
  187.2420  178.6250  140.3160 C   0  0  2  0  0  3  0  0  0  0  0  0
  187.6060  176.7220  142.8380 C   0  0  0  0  0  2  0  0  0  0  0  0
  186.9000  178.0710  137.9900 O   0  0  0  0  0  1  0  0  0  0  0  0
  191.4870  176.8980  140.3480 C   0  0  0  0  0  2  0  0  0  0  0  0
  188.6540  177.3640  141.9790 N   0  0  1  0  0  0  0  0  0  0  0  0
  189.1880  178.1490  138.7130 C   0  0  0  0  0  2  0  0  0  0  0  0
  186.5070  177.6720  143.3130 C   0  0  0  0  0  0  0  0  0  0  0  0
  190.2920  177.6200  143.8920 C   0  0  0  0  0  0  0  0  0  0  0  0
  189.8730  176.8990  138.3930 N   0  0  0  0  0  0  0  0  0  0  0  0
  191.3190  177.0320  144.6420 C   0  0  0  0  0  3  0  0  0  0  0  0
  188.3630  178.6800  141.3620 C   0  0  2  0  0  3  0  0  0  0  0  0
  189.1900  178.1210  144.5570 C   0  0  0  0  0  3  0  0  0  0  0  0
  184.6800  179.6870  144.0120 C   0  0  0  0  0  3  0  0  0  0  0  0
  184.8010  179.2890  142.6840 C   0  0  0  0  0  3  0  0  0  0  0  0
  191.1740  176.9130  146.0340 C   0  0  0  0  0  0  0  0  0  0  0  0
  185.4540  179.0850  144.9970 C   0  0  0  0  0  3  0  0  0  0  0  0
  185.6970  178.2800  142.3240 C   0  0  0  0  0  0  0  0  0  0  0  0
  187.1840  177.2980  146.1220 S   0  0  0  0  0  0  0  0  0  0  0  0
  191.0730  177.8510  141.4770 C   0  0  0  0  0  2  0  0  0  0  0  0
  192.2260  176.3980  146.7870 O   0  0  0  0  0  1  0  0  0  0  0  0
  191.0020  177.1750  137.5960 N   0  0  0  0  0  2  0  0  0  0  0  0
  190.1700  175.1590  136.6640 O   0  0  0  0  0  1  0  0  0  0  0  0
  191.1590  176.1450  136.5610 C   0  0  2  0  0  3  0  0  0  0  0  0
  192.5360  175.5110  136.6820 C   0  0  0  0  0  2  0  0  0  0  0  0
  193.4560  176.4420  137.3070 N   0  0  0  0  0  2  0  0  0  0  0  0
  194.7220  176.1910  136.7590 N   0  0  0  0  0  2  0  0  0  0  0  0
  194.7300  176.7700  135.4240 C   0  0  0  0  0  2  0  0  0  0  0  0
  195.7610  178.7880  135.3820 O   0  0  0  0  0  1  0  0  0  0  0  0
  195.9850  177.4640  135.1890 N   0  0  0  0  0  2  0  0  0  0  0  0
  1 29  1  6  0  0  0
  1 18  1  0  0  0  0
  2 10  1  6  0  0  0
  2 27  1  0  0  0  0
  4 14  1  0  0  0  0
  6 28  1  0  0  0  0
  6  8  1  0  0  0  0
  7 13  1  6  0  0  0
  7 11  1  0  0  0  0
  8  3  1  0  0  0  0
  9 26  1  0  0  0  0
  9 28  1  0  0  0  0
 11  2  1  0  0  0  0
 11 21  1  0  0  0  0
 12 17  1  0  0  0  0
 14 29  1  0  0  0  0
 15  1  1  0  0  0  0
 15 12  1  0  0  0  0
 16  7  1  0  0  0  0
 17  9  2  0  0  0  0
 18 22  1  0  0  0  0
 18 20  2  0  0  0  0
 19 16  1  0  0  0  0
 19  4  1  0  0  0  0
 20 25  1  0  0  0  0
 21 15  1  0  0  0  0
 21  5  1  0  0  0  0
 22  6  2  0  0  0  0
 23 26  2  0  0  0  0
 24 23  1  0  0  0  0
 25  8  2  0  0  0  0
 25 30  1  0  0  0  0
 27 24  2  0  0  0  0
 27 17  1  0  0  0  0
 31 19  1  0  0  0  0
 33 32  1  0  0  0  0
 33 34  1  0  0  0  0
 33 31  1  0  0  0  0
 34 35  1  0  0  0  0
 36 35  1  0  0  0  0
 37 36  1  0  0  0  0
 39 38  1  0  0  0  0
 39 37  1  0  0  0  0
M  END
>  <MODEL>
2

>  <REMARK>
 VINA RESULT:      -7.2      1.241      1.444
  Name = 
  7 active torsions:
  status: ('A' for Active; 'I' for Inactive)
    1  A    between atoms: C_3  and  N_23
    2  A    between atoms: C_3  and  N_27
    3  A    between atoms: N_9  and  N_27
    4  A    between atoms: N_9  and  C_32
    5  A    between atoms: N_22  and  N_25
    6  A    between atoms: N_25  and  C_39
    7  A    between atoms: C_32  and  C_39
                            x       y       z     vdW  Elec       q    Type
                         _______ _______ _______ _____ _____    ______ ____

>  <TORSDO>
F 7

$$$$
=
 OpenBabel10232411033D

 39 43  0  0  1  0  0  0  0  0999 V2000
  189.8700  177.2150  142.2280 C   0  0  2  0  0  3  0  0  0  0  0  0
  185.6610  178.0200  140.9080 C   0  0  1  0  0  3  0  0  0  0  0  0
  189.8550  176.8600  147.8610 C   0  0  0  0  0  1  0  0  0  0  0  0
  189.9200  176.2280  139.3920 C   0  0  0  0  0  2  0  0  0  0  0  0
  188.1130  179.8850  142.2090 C   0  0  0  0  0  1  0  0  0  0  0  0
  188.9400  177.7960  145.7100 C   0  0  0  0  0  0  0  0  0  0  0  0
  187.3340  177.8760  139.0270 C   0  0  1  0  0  3  0  0  0  0  0  0
  190.0100  177.2150  146.4190 C   0  0  0  0  0  0  0  0  0  0  0  0
  186.3220  178.0930  144.6990 C   0  0  0  0  0  0  0  0  0  0  0  0
  184.5260  178.4140  140.1940 O   0  0  0  0  0  1  0  0  0  0  0  0
  186.9280  178.6530  140.2840 C   0  0  2  0  0  3  0  0  0  0  0  0
  187.4360  176.7380  142.7730 C   0  0  0  0  0  2  0  0  0  0  0  0
  186.4320  178.1100  137.9840 O   0  0  0  0  0  1  0  0  0  0  0  0
  191.1510  176.8890  140.0390 C   0  0  0  0  0  2  0  0  0  0  0  0
  188.4320  177.3740  141.8500 N   0  0  1  0  0  0  0  0  0  0  0  0
  188.7620  178.1650  138.5590 C   0  0  0  0  0  2  0  0  0  0  0  0
  186.3780  177.6970  143.3200 C   0  0  0  0  0  0  0  0  0  0  0  0
  190.1920  177.6100  143.6550 C   0  0  0  0  0  0  0  0  0  0  0  0
  189.4140  176.9100  138.1920 N   0  0  0  0  0  0  0  0  0  0  0  0
  191.2590  177.0110  144.3360 C   0  0  0  0  0  3  0  0  0  0  0  0
  188.1140  178.6940  141.2570 C   0  0  2  0  0  3  0  0  0  0  0  0
  189.1390  178.1190  144.3900 C   0  0  0  0  0  3  0  0  0  0  0  0
  184.6170  179.7250  144.1400 C   0  0  0  0  0  3  0  0  0  0  0  0
  184.6490  179.3300  142.8060 C   0  0  0  0  0  3  0  0  0  0  0  0
  191.2030  176.8880  145.7340 C   0  0  0  0  0  0  0  0  0  0  0  0
  185.4470  179.1130  145.0720 C   0  0  0  0  0  3  0  0  0  0  0  0
  185.5120  178.3150  142.3870 C   0  0  0  0  0  0  0  0  0  0  0  0
  187.2300  177.3080  146.0790 S   0  0  0  0  0  0  0  0  0  0  0  0
  190.8180  177.8420  141.1950 C   0  0  0  0  0  2  0  0  0  0  0  0
  192.2970  176.3620  146.4170 O   0  0  0  0  0  1  0  0  0  0  0  0
  190.4930  177.1790  137.3260 N   0  0  0  0  0  2  0  0  0  0  0  0
  191.6720  175.8870  135.7240 O   0  0  0  0  0  1  0  0  0  0  0  0
  190.4070  176.3320  136.1280 C   0  0  2  0  0  3  0  0  0  0  0  0
  189.7500  177.1140  135.0020 C   0  0  0  0  0  2  0  0  0  0  0  0
  188.3110  176.9400  135.0530 N   0  0  0  0  0  2  0  0  0  0  0  0
  188.0730  175.5640  135.1790 N   0  0  0  0  0  2  0  0  0  0  0  0
  186.7560  175.4130  135.7780 C   0  0  0  0  0  2  0  0  0  0  0  0
  187.9810  173.9430  136.9910 O   0  0  0  0  0  1  0  0  0  0  0  0
  186.8610  174.7060  137.0440 N   0  0  0  0  0  2  0  0  0  0  0  0
  1 29  1  6  0  0  0
  1 18  1  0  0  0  0
  2 10  1  6  0  0  0
  2 27  1  0  0  0  0
  4 14  1  0  0  0  0
  6 28  1  0  0  0  0
  6  8  1  0  0  0  0
  7 13  1  6  0  0  0
  7 11  1  0  0  0  0
  8  3  1  0  0  0  0
  9 26  1  0  0  0  0
  9 28  1  0  0  0  0
 11  2  1  0  0  0  0
 11 21  1  0  0  0  0
 12 17  1  0  0  0  0
 14 29  1  0  0  0  0
 15  1  1  0  0  0  0
 15 12  1  0  0  0  0
 16  7  1  0  0  0  0
 17  9  2  0  0  0  0
 18 20  2  0  0  0  0
 18 22  1  0  0  0  0
 19 16  1  0  0  0  0
 19  4  1  0  0  0  0
 20 25  1  0  0  0  0
 21 15  1  0  0  0  0
 21  5  1  0  0  0  0
 22  6  2  0  0  0  0
 23 26  2  0  0  0  0
 24 23  1  0  0  0  0
 25 30  1  0  0  0  0
 25  8  2  0  0  0  0
 27 24  2  0  0  0  0
 27 17  1  0  0  0  0
 31 19  1  0  0  0  0
 32 33  1  0  0  0  0
 33 31  1  0  0  0  0
 34 35  1  0  0  0  0
 34 33  1  0  0  0  0
 35 36  1  0  0  0  0
 36 37  1  0  0  0  0
 37 39  1  0  0  0  0
 38 39  1  0  0  0  0
M  END
>  <MODEL>
3

>  <REMARK>
 VINA RESULT:      -6.7      1.972      2.981
  Name = 
  7 active torsions:
  status: ('A' for Active; 'I' for Inactive)
    1  A    between atoms: C_3  and  N_23
    2  A    between atoms: C_3  and  N_27
    3  A    between atoms: N_9  and  N_27
    4  A    between atoms: N_9  and  C_32
    5  A    between atoms: N_22  and  N_25
    6  A    between atoms: N_25  and  C_39
    7  A    between atoms: C_32  and  C_39
                            x       y       z     vdW  Elec       q    Type
                         _______ _______ _______ _____ _____    ______ ____

>  <TORSDO>
F 7

$$$$
=
 OpenBabel10232411033D

 39 43  0  0  1  0  0  0  0  0999 V2000
  186.9900  177.6540  139.4670 C   0  0  2  0  0  3  0  0  0  0  0  0
  191.0390  176.1550  138.2580 C   0  0  1  0  0  3  0  0  0  0  0  0
  183.4950  176.8310  135.1120 C   0  0  0  0  0  1  0  0  0  0  0  0
  188.2640  177.1180  142.1330 C   0  0  0  0  0  2  0  0  0  0  0  0
  189.2750  178.9250  137.6290 C   0  0  0  0  0  1  0  0  0  0  0  0
  185.7870  177.3110  136.0370 C   0  0  0  0  0  0  0  0  0  0  0  0
  190.9370  177.1190  140.5860 C   0  0  1  0  0  3  0  0  0  0  0  0
  184.3870  177.3440  136.1940 C   0  0  0  0  0  0  0  0  0  0  0  0
  188.3390  176.2280  135.5160 C   0  0  0  0  0  0  0  0  0  0  0  0
  192.4140  175.9310  138.1480 O   0  0  0  0  0  1  0  0  0  0  0  0
  190.7730  177.4290  139.0940 C   0  0  2  0  0  3  0  0  0  0  0  0
  188.1810  175.8810  138.0930 C   0  0  0  0  0  2  0  0  0  0  0  0
  192.2830  176.9180  140.9080 O   0  0  0  0  0  1  0  0  0  0  0  0
  187.2740  178.2800  141.9290 C   0  0  0  0  0  2  0  0  0  0  0  0
  188.2840  177.0390  139.0400 N   0  0  1  0  0  0  0  0  0  0  0  0
  190.3290  178.1800  141.5060 C   0  0  0  0  0  2  0  0  0  0  0  0
  188.9700  176.0540  136.7940 C   0  0  0  0  0  0  0  0  0  0  0  0
  186.0660  178.0270  138.3250 C   0  0  0  0  0  0  0  0  0  0  0  0
  189.6020  177.5220  142.5890 N   0  0  0  0  0  0  0  0  0  0  0  0
  184.6780  178.0450  138.5100 C   0  0  0  0  0  3  0  0  0  0  0  0
  189.3780  178.0210  138.8520 C   0  0  2  0  0  3  0  0  0  0  0  0
  186.5620  177.8110  137.0540 C   0  0  0  0  0  3  0  0  0  0  0  0
  190.5050  176.7120  134.5370 C   0  0  0  0  0  3  0  0  0  0  0  0
  191.1250  176.5230  135.7680 C   0  0  0  0  0  3  0  0  0  0  0  0
  183.8340  177.7850  137.4180 C   0  0  0  0  0  0  0  0  0  0  0  0
  189.1280  176.5670  134.4170 C   0  0  0  0  0  3  0  0  0  0  0  0
  190.3750  176.1840  136.8960 C   0  0  0  0  0  0  0  0  0  0  0  0
  186.5730  175.9400  135.1420 S   0  0  0  0  0  0  0  0  0  0  0  0
  187.1890  178.7870  140.4830 C   0  0  0  0  0  2  0  0  0  0  0  0
  182.4540  177.8790  137.5840 O   0  0  0  0  0  1  0  0  0  0  0  0
  189.4700  178.4130  143.6730 N   0  0  0  0  0  2  0  0  0  0  0  0
  190.9340  176.7880  144.5900 O   0  0  0  0  0  1  0  0  0  0  0  0
  190.0370  177.8200  144.8910 C   0  0  2  0  0  3  0  0  0  0  0  0
  188.9130  177.2890  145.7660 C   0  0  0  0  0  2  0  0  0  0  0  0
  187.6970  178.0400  145.5190 N   0  0  0  0  0  2  0  0  0  0  0  0
  186.6880  177.4430  146.2890 N   0  0  0  0  0  2  0  0  0  0  0  0
  185.9840  178.5160  146.9740 C   0  0  0  0  0  2  0  0  0  0  0  0
  184.2870  179.1630  145.6200 O   0  0  0  0  0  1  0  0  0  0  0  0
  184.5560  178.4180  146.7210 N   0  0  0  0  0  2  0  0  0  0  0  0
  1 29  1  6  0  0  0
  2 10  1  6  0  0  0
  2 11  1  0  0  0  0
  3  8  1  0  0  0  0
  4 19  1  0  0  0  0
  5 21  1  0  0  0  0
  6  8  2  0  0  0  0
  6 22  1  0  0  0  0
  7 13  1  1  0  0  0
  7 16  1  0  0  0  0
  8 25  1  0  0  0  0
  9 17  1  0  0  0  0
 11  7  1  0  0  0  0
 12 15  1  0  0  0  0
 14  4  1  0  0  0  0
 15  1  1  0  0  0  0
 16 19  1  0  0  0  0
 17 27  2  0  0  0  0
 17 12  1  0  0  0  0
 18 20  1  0  0  0  0
 18  1  1  0  0  0  0
 19 31  1  0  0  0  0
 21 15  1  0  0  0  0
 21 11  1  0  0  0  0
 22 18  2  0  0  0  0
 23 24  2  0  0  0  0
 24 27  1  0  0  0  0
 25 30  1  0  0  0  0
 25 20  2  0  0  0  0
 26 23  1  0  0  0  0
 26  9  2  0  0  0  0
 27  2  1  0  0  0  0
 28  9  1  0  0  0  0
 28  6  1  0  0  0  0
 29 14  1  0  0  0  0
 31 33  1  0  0  0  0
 32 33  1  0  0  0  0
 33 34  1  0  0  0  0
 35 34  1  0  0  0  0
 35 36  1  0  0  0  0
 36 37  1  0  0  0  0
 38 39  1  0  0  0  0
 39 37  1  0  0  0  0
M  END
>  <MODEL>
4

>  <REMARK>
 VINA RESULT:      -6.7      3.395      8.813
  Name = 
  7 active torsions:
  status: ('A' for Active; 'I' for Inactive)
    1  A    between atoms: C_3  and  N_23
    2  A    between atoms: C_3  and  N_27
    3  A    between atoms: N_9  and  N_27
    4  A    between atoms: N_9  and  C_32
    5  A    between atoms: N_22  and  N_25
    6  A    between atoms: N_25  and  C_39
    7  A    between atoms: C_32  and  C_39
                            x       y       z     vdW  Elec       q    Type
                         _______ _______ _______ _____ _____    ______ ____

>  <TORSDO>
F 7

$$$$
=
 OpenBabel10232411033D

 39 43  0  0  1  0  0  0  0  0999 V2000
  187.1900  178.2340  142.3100 C   0  0  2  0  0  3  0  0  0  0  0  0
  191.5860  177.3520  142.3220 C   0  0  1  0  0  3  0  0  0  0  0  0
  185.5790  178.9600  147.6700 C   0  0  0  0  0  1  0  0  0  0  0  0
  187.9820  179.0330  139.5250 C   0  0  0  0  0  2  0  0  0  0  0  0
  188.8310  175.5720  142.9710 C   0  0  0  0  0  1  0  0  0  0  0  0
  187.0610  177.8860  145.9420 C   0  0  0  0  0  0  0  0  0  0  0  0
  190.5330  177.3680  140.0320 C   0  0  1  0  0  3  0  0  0  0  0  0
  185.8420  178.5110  146.2710 C   0  0  0  0  0  0  0  0  0  0  0  0
  189.8540  177.5270  145.7550 C   0  0  0  0  0  0  0  0  0  0  0  0
  192.8730  176.9140  141.9960 O   0  0  0  0  0  1  0  0  0  0  0  0
  190.5440  176.6770  141.4000 C   0  0  2  0  0  3  0  0  0  0  0  0
  189.3700  178.7500  143.5070 C   0  0  0  0  0  2  0  0  0  0  0  0
  191.6950  177.0680  139.3130 O   0  0  0  0  0  1  0  0  0  0  0  0
  186.6050  178.4140  139.8270 C   0  0  0  0  0  2  0  0  0  0  0  0
  188.6730  178.0530  142.3770 N   0  0  1  0  0  0  0  0  0  0  0  0
  189.2970  177.0470  139.1880 C   0  0  0  0  0  2  0  0  0  0  0  0
  190.2070  177.8320  144.3970 C   0  0  0  0  0  0  0  0  0  0  0  0
  186.4620  177.9340  143.6040 C   0  0  0  0  0  0  0  0  0  0  0  0
  188.8020  178.2730  138.5690 N   0  0  0  0  0  0  0  0  0  0  0  0
  185.2540  178.5750  143.9060 C   0  0  0  0  0  3  0  0  0  0  0  0
  189.1260  176.6970  141.9860 C   0  0  2  0  0  3  0  0  0  0  0  0
  187.2470  177.4760  144.6440 C   0  0  0  0  0  3  0  0  0  0  0  0
  191.6190  175.8650  145.8200 C   0  0  0  0  0  3  0  0  0  0  0  0
  191.9820  176.1710  144.5120 C   0  0  0  0  0  3  0  0  0  0  0  0
  184.9040  178.7890  145.2500 C   0  0  0  0  0  0  0  0  0  0  0  0
  190.5650  176.5360  146.4300 C   0  0  0  0  0  3  0  0  0  0  0  0
  191.2960  177.1540  143.7970 C   0  0  0  0  0  0  0  0  0  0  0  0
  188.5990  178.3990  146.7590 S   0  0  0  0  0  0  0  0  0  0  0  0
  186.5710  177.5390  141.0880 C   0  0  0  0  0  2  0  0  0  0  0  0
  183.6690  179.3570  145.5510 O   0  0  0  0  0  1  0  0  0  0  0  0
  188.0160  177.9470  137.4460 N   0  0  0  0  0  2  0  0  0  0  0  0
  189.3510  177.7200  135.4990 O   0  0  0  0  0  1  0  0  0  0  0  0
  188.7490  177.0330  136.5600 C   0  0  2  0  0  3  0  0  0  0  0  0
  187.7950  175.9810  136.0170 C   0  0  0  0  0  2  0  0  0  0  0  0
  188.1370  174.6780  136.5570 N   0  0  0  0  0  2  0  0  0  0  0  0
  188.8100  173.9830  135.5420 N   0  0  0  0  0  2  0  0  0  0  0  0
  190.2070  173.8980  135.9400 C   0  0  0  0  0  2  0  0  0  0  0  0
  191.5550  174.2830  137.7200 O   0  0  0  0  0  1  0  0  0  0  0  0
  190.3130  173.8500  137.3890 N   0  0  0  0  0  2  0  0  0  0  0  0
  1 29  1  6  0  0  0
  1 15  1  0  0  0  0
  1 18  1  0  0  0  0
  2 10  1  6  0  0  0
  2 27  1  0  0  0  0
  4 14  1  0  0  0  0
  6  8  1  0  0  0  0
  6 28  1  0  0  0  0
  7 13  1  6  0  0  0
  7 11  1  0  0  0  0
  8  3  1  0  0  0  0
  9 26  1  0  0  0  0
  9 28  1  0  0  0  0
 11 21  1  0  0  0  0
 11  2  1  0  0  0  0
 12 17  1  0  0  0  0
 14 29  1  0  0  0  0
 15 12  1  0  0  0  0
 16  7  1  0  0  0  0
 17  9  2  0  0  0  0
 18 20  2  0  0  0  0
 18 22  1  0  0  0  0
 19 16  1  0  0  0  0
 19  4  1  0  0  0  0
 20 25  1  0  0  0  0
 21 15  1  0  0  0  0
 21  5  1  0  0  0  0
 22  6  2  0  0  0  0
 23 26  2  0  0  0  0
 24 23  1  0  0  0  0
 25 30  1  0  0  0  0
 25  8  2  0  0  0  0
 27 17  1  0  0  0  0
 27 24  2  0  0  0  0
 31 19  1  0  0  0  0
 32 33  1  0  0  0  0
 33 31  1  0  0  0  0
 34 35  1  0  0  0  0
 34 33  1  0  0  0  0
 36 37  1  0  0  0  0
 36 35  1  0  0  0  0
 37 39  1  0  0  0  0
 39 38  1  0  0  0  0
M  END
>  <MODEL>
5

>  <REMARK>
 VINA RESULT:      -6.5      2.570      4.898
  Name = 
  7 active torsions:
  status: ('A' for Active; 'I' for Inactive)
    1  A    between atoms: C_3  and  N_23
    2  A    between atoms: C_3  and  N_27
    3  A    between atoms: N_9  and  N_27
    4  A    between atoms: N_9  and  C_32
    5  A    between atoms: N_22  and  N_25
    6  A    between atoms: N_25  and  C_39
    7  A    between atoms: C_32  and  C_39
                            x       y       z     vdW  Elec       q    Type
                         _______ _______ _______ _____ _____    ______ ____

>  <TORSDO>
F 7

$$$$
=
 OpenBabel10232411033D

 39 43  0  0  1  0  0  0  0  0999 V2000
  187.2410  178.1950  143.3190 C   0  0  2  0  0  3  0  0  0  0  0  0
  191.4030  177.2820  141.9230 C   0  0  1  0  0  3  0  0  0  0  0  0
  187.2770  178.1160  148.9620 C   0  0  0  0  0  1  0  0  0  0  0  0
  187.2400  179.3980  140.5670 C   0  0  0  0  0  2  0  0  0  0  0  0
  188.8600  175.4490  143.0880 C   0  0  0  0  0  1  0  0  0  0  0  0
  188.1430  177.3030  146.7420 C   0  0  0  0  0  0  0  0  0  0  0  0
  189.7380  177.6530  140.0660 C   0  0  1  0  0  3  0  0  0  0  0  0
  187.1040  177.8810  147.4990 C   0  0  0  0  0  0  0  0  0  0  0  0
  190.7410  176.9520  145.7000 C   0  0  0  0  0  0  0  0  0  0  0  0
  192.5160  176.8870  141.1760 O   0  0  0  0  0  1  0  0  0  0  0  0
  190.1060  176.7640  141.2580 C   0  0  2  0  0  3  0  0  0  0  0  0
  189.6960  178.5050  143.8880 C   0  0  0  0  0  2  0  0  0  0  0  0
  190.6270  177.4560  139.0040 O   0  0  0  0  0  1  0  0  0  0  0  0
  185.9770  178.7520  141.1680 C   0  0  0  0  0  2  0  0  0  0  0  0
  188.6690  177.9920  142.9240 N   0  0  1  0  0  0  0  0  0  0  0  0
  188.2970  177.4740  139.5830 C   0  0  0  0  0  2  0  0  0  0  0  0
  190.7050  177.4550  144.3560 C   0  0  0  0  0  0  0  0  0  0  0  0
  186.9010  177.7080  144.7140 C   0  0  0  0  0  0  0  0  0  0  0  0
  187.7100  178.7840  139.3160 N   0  0  0  0  0  0  0  0  0  0  0  0
  185.8650  178.3070  145.4430 C   0  0  0  0  0  3  0  0  0  0  0  0
  188.9190  176.7070  142.2300 C   0  0  2  0  0  3  0  0  0  0  0  0
  187.9260  177.0920  145.4030 C   0  0  0  0  0  3  0  0  0  0  0  0
  192.3610  175.2840  145.0100 C   0  0  0  0  0  3  0  0  0  0  0  0
  192.3480  175.7810  143.7110 C   0  0  0  0  0  3  0  0  0  0  0  0
  185.9280  178.3180  146.8460 C   0  0  0  0  0  0  0  0  0  0  0  0
  191.5640  175.8640  145.9900 C   0  0  0  0  0  3  0  0  0  0  0  0
  191.5380  176.8670  143.3740 C   0  0  0  0  0  0  0  0  0  0  0  0
  189.8750  177.6730  147.1400 S   0  0  0  0  0  0  0  0  0  0  0  0
  186.2620  177.6970  142.2460 C   0  0  0  0  0  2  0  0  0  0  0  0
  184.8630  178.8450  147.5720 O   0  0  0  0  0  1  0  0  0  0  0  0
  186.6180  178.6380  138.4370 N   0  0  0  0  0  2  0  0  0  0  0  0
  187.4900  178.7890  136.2360 O   0  0  0  0  0  1  0  0  0  0  0  0
  187.0320  177.9130  137.2280 C   0  0  2  0  0  3  0  0  0  0  0  0
  185.8600  177.1020  136.6990 C   0  0  0  0  0  2  0  0  0  0  0  0
  184.8440  176.9710  137.7270 N   0  0  0  0  0  2  0  0  0  0  0  0
  184.0830  175.8390  137.4040 N   0  0  0  0  0  2  0  0  0  0  0  0
  185.0210  174.7760  137.0740 C   0  0  0  0  0  2  0  0  0  0  0  0
  185.6050  172.8390  138.0940 O   0  0  0  0  0  1  0  0  0  0  0  0
  184.5370  173.5060  137.5880 N   0  0  0  0  0  2  0  0  0  0  0  0
  1 29  1  6  0  0  0
  1 18  1  0  0  0  0
  2 10  1  6  0  0  0
  2 27  1  0  0  0  0
  4 14  1  0  0  0  0
  6 28  1  0  0  0  0
  6  8  1  0  0  0  0
  7 13  1  6  0  0  0
  7 11  1  0  0  0  0
  8  3  1  0  0  0  0
  9 26  1  0  0  0  0
  9 28  1  0  0  0  0
 11  2  1  0  0  0  0
 11 21  1  0  0  0  0
 12 17  1  0  0  0  0
 14 29  1  0  0  0  0
 15  1  1  0  0  0  0
 15 12  1  0  0  0  0
 16  7  1  0  0  0  0
 17  9  2  0  0  0  0
 18 22  1  0  0  0  0
 18 20  2  0  0  0  0
 19 16  1  0  0  0  0
 19  4  1  0  0  0  0
 20 25  1  0  0  0  0
 21 15  1  0  0  0  0
 21  5  1  0  0  0  0
 22  6  2  0  0  0  0
 23 26  2  0  0  0  0
 24 23  1  0  0  0  0
 25  8  2  0  0  0  0
 25 30  1  0  0  0  0
 27 24  2  0  0  0  0
 27 17  1  0  0  0  0
 31 19  1  0  0  0  0
 32 33  1  0  0  0  0
 33 31  1  0  0  0  0
 34 33  1  0  0  0  0
 34 35  1  0  0  0  0
 36 35  1  0  0  0  0
 37 36  1  0  0  0  0
 37 39  1  0  0  0  0
 39 38  1  0  0  0  0
M  END
>  <MODEL>
6

>  <REMARK>
 VINA RESULT:      -6.5      3.295      5.886
  Name = 
  7 active torsions:
  status: ('A' for Active; 'I' for Inactive)
    1  A    between atoms: C_3  and  N_23
    2  A    between atoms: C_3  and  N_27
    3  A    between atoms: N_9  and  N_27
    4  A    between atoms: N_9  and  C_32
    5  A    between atoms: N_22  and  N_25
    6  A    between atoms: N_25  and  C_39
    7  A    between atoms: C_32  and  C_39
                            x       y       z     vdW  Elec       q    Type
                         _______ _______ _______ _____ _____    ______ ____

>  <TORSDO>
F 7

$$$$
=
 OpenBabel10232411033D

 39 43  0  0  1  0  0  0  0  0999 V2000
  187.3250  178.2160  142.2140 C   0  0  2  0  0  3  0  0  0  0  0  0
  191.7200  177.3500  142.4130 C   0  0  1  0  0  3  0  0  0  0  0  0
  185.4890  178.9540  147.4990 C   0  0  0  0  0  1  0  0  0  0  0  0
  188.2300  179.0080  139.4610 C   0  0  0  0  0  2  0  0  0  0  0  0
  188.9460  175.5620  142.9530 C   0  0  0  0  0  1  0  0  0  0  0  0
  187.0460  177.8800  145.8390 C   0  0  0  0  0  0  0  0  0  0  0  0
  190.7640  177.3540  140.0810 C   0  0  1  0  0  3  0  0  0  0  0  0
  185.8120  178.5010  146.1140 C   0  0  0  0  0  0  0  0  0  0  0  0
  189.8450  177.5310  145.7700 C   0  0  0  0  0  0  0  0  0  0  0  0
  193.0200  176.9160  142.1420 O   0  0  0  0  0  1  0  0  0  0  0  0
  190.7200  176.6680  141.4500 C   0  0  2  0  0  3  0  0  0  0  0  0
  189.4510  178.7440  143.4990 C   0  0  0  0  0  2  0  0  0  0  0  0
  191.9560  177.0560  139.4120 O   0  0  0  0  0  1  0  0  0  0  0  0
  186.8440  178.3840  139.7090 C   0  0  0  0  0  2  0  0  0  0  0  0
  188.8050  178.0410  142.3430 N   0  0  1  0  0  0  0  0  0  0  0  0
  189.5650  177.0260  139.1880 C   0  0  0  0  0  2  0  0  0  0  0  0
  190.2540  177.8320  144.4270 C   0  0  0  0  0  0  0  0  0  0  0  0
  186.5450  177.9170  143.4780 C   0  0  0  0  0  0  0  0  0  0  0  0
  189.0920  178.2480  138.5440 N   0  0  0  0  0  0  0  0  0  0  0  0
  185.3230  178.5550  143.7270 C   0  0  0  0  0  3  0  0  0  0  0  0
  189.2790  176.6850  141.9770 C   0  0  2  0  0  3  0  0  0  0  0  0
  187.2870  177.4670  144.5510 C   0  0  0  0  0  3  0  0  0  0  0  0
  191.6120  175.8750  145.9150 C   0  0  0  0  0  3  0  0  0  0  0  0
  192.0280  176.1780  144.6220 C   0  0  0  0  0  3  0  0  0  0  0  0
  184.9170  178.7720  145.0540 C   0  0  0  0  0  0  0  0  0  0  0  0
  190.5310  176.5440  146.4780 C   0  0  0  0  0  3  0  0  0  0  0  0
  191.3690  177.1570  143.8750 C   0  0  0  0  0  0  0  0  0  0  0  0
  188.5460  178.4020  146.7180 S   0  0  0  0  0  0  0  0  0  0  0  0
  186.7610  177.5140  140.9700 C   0  0  0  0  0  2  0  0  0  0  0  0
  183.6680  179.3360  145.3010 O   0  0  0  0  0  1  0  0  0  0  0  0
  188.3550  177.9150  137.3900 N   0  0  0  0  0  2  0  0  0  0  0  0
  189.7450  177.0710  135.6640 O   0  0  0  0  0  1  0  0  0  0  0  0
  188.9270  176.7250  136.7460 C   0  0  2  0  0  3  0  0  0  0  0  0
  187.8030  175.8160  136.2740 C   0  0  0  0  0  2  0  0  0  0  0  0
  186.5320  176.2930  136.7860 N   0  0  0  0  0  2  0  0  0  0  0  0
  185.7240  175.1640  136.9820 N   0  0  0  0  0  2  0  0  0  0  0  0
  186.4210  174.0340  136.3870 C   0  0  0  0  0  2  0  0  0  0  0  0
  185.5710  172.9040  138.1570 O   0  0  0  0  0  1  0  0  0  0  0  0
  185.8190  172.7870  136.8290 N   0  0  0  0  0  2  0  0  0  0  0  0
  1 29  1  6  0  0  0
  1 15  1  0  0  0  0
  1 18  1  0  0  0  0
  2 10  1  1  0  0  0
  2 27  1  0  0  0  0
  4 14  1  0  0  0  0
  6  8  1  0  0  0  0
  6 28  1  0  0  0  0
  7 13  1  6  0  0  0
  7 11  1  0  0  0  0
  8  3  1  0  0  0  0
  9 26  1  0  0  0  0
  9 28  1  0  0  0  0
 11 21  1  0  0  0  0
 11  2  1  0  0  0  0
 12 17  1  0  0  0  0
 14 29  1  0  0  0  0
 15 12  1  0  0  0  0
 16  7  1  0  0  0  0
 17  9  2  0  0  0  0
 18 20  2  0  0  0  0
 18 22  1  0  0  0  0
 19 16  1  0  0  0  0
 19  4  1  0  0  0  0
 20 25  1  0  0  0  0
 21 15  1  0  0  0  0
 21  5  1  0  0  0  0
 22  6  2  0  0  0  0
 23 26  2  0  0  0  0
 24 23  1  0  0  0  0
 25 30  1  0  0  0  0
 25  8  2  0  0  0  0
 27 17  1  0  0  0  0
 27 24  2  0  0  0  0
 31 19  1  0  0  0  0
 32 33  1  0  0  0  0
 33 31  1  0  0  0  0
 34 33  1  0  0  0  0
 34 35  1  0  0  0  0
 35 36  1  0  0  0  0
 37 39  1  0  0  0  0
 37 36  1  0  0  0  0
 39 38  1  0  0  0  0
M  END
>  <MODEL>
7

>  <REMARK>
 VINA RESULT:      -6.4      2.850      5.551
  Name = 
  7 active torsions:
  status: ('A' for Active; 'I' for Inactive)
    1  A    between atoms: C_3  and  N_23
    2  A    between atoms: C_3  and  N_27
    3  A    between atoms: N_9  and  N_27
    4  A    between atoms: N_9  and  C_32
    5  A    between atoms: N_22  and  N_25
    6  A    between atoms: N_25  and  C_39
    7  A    between atoms: C_32  and  C_39
                            x       y       z     vdW  Elec       q    Type
                         _______ _______ _______ _____ _____    ______ ____

>  <TORSDO>
F 7

$$$$
=
 OpenBabel10232411033D

 39 43  0  0  1  0  0  0  0  0999 V2000
  185.1500  178.3840  141.3470 C   0  0  2  0  0  3  0  0  0  0  0  0
  184.2820  177.1550  137.1230 C   0  0  1  0  0  3  0  0  0  0  0  0
  180.2330  178.5920  144.1100 C   0  0  0  0  0  1  0  0  0  0  0  0
  187.7950  177.2510  140.4830 C   0  0  0  0  0  2  0  0  0  0  0  0
  184.0200  180.0120  138.8400 C   0  0  0  0  0  1  0  0  0  0  0  0
  181.5860  178.8300  142.0000 C   0  0  0  0  0  0  0  0  0  0  0  0
  186.7200  177.5730  137.6060 C   0  0  1  0  0  3  0  0  0  0  0  0
  181.5270  178.8410  143.4080 C   0  0  0  0  0  0  0  0  0  0  0  0
  181.2400  177.8660  139.3710 C   0  0  0  0  0  0  0  0  0  0  0  0
  184.3390  176.9480  135.7420 O   0  0  0  0  0  1  0  0  0  0  0  0
  185.3280  178.2120  137.5460 C   0  0  2  0  0  3  0  0  0  0  0  0
  183.6180  176.9520  139.9140 C   0  0  0  0  0  2  0  0  0  0  0  0
  187.1950  177.2920  136.3210 O   0  0  0  0  0  1  0  0  0  0  0  0
  187.7040  178.4390  141.4590 C   0  0  0  0  0  2  0  0  0  0  0  0
  184.8040  177.8670  139.9870 N   0  0  1  0  0  0  0  0  0  0  0  0
  187.7490  178.4070  138.3740 C   0  0  0  0  0  2  0  0  0  0  0  0
  182.5290  177.4040  138.9400 C   0  0  0  0  0  0  0  0  0  0  0  0
  183.9910  179.0120  142.0940 C   0  0  0  0  0  0  0  0  0  0  0  0
  188.5310  177.5310  139.2420 N   0  0  0  0  0  0  0  0  0  0  0  0
  183.9570  179.0020  143.4940 C   0  0  0  0  0  3  0  0  0  0  0  0
  185.0110  178.8560  138.9030 C   0  0  2  0  0  3  0  0  0  0  0  0
  182.7970  179.0810  141.4030 C   0  0  0  0  0  3  0  0  0  0  0  0
  180.7410  178.5360  137.0940 C   0  0  0  0  0  3  0  0  0  0  0  0
  181.9800  178.0700  136.6650 C   0  0  0  0  0  3  0  0  0  0  0  0
  182.7170  179.0010  144.1540 C   0  0  0  0  0  0  0  0  0  0  0  0
  180.3800  178.4360  138.4330 C   0  0  0  0  0  3  0  0  0  0  0  0
  182.8740  177.4950  137.5700 C   0  0  0  0  0  0  0  0  0  0  0  0
  180.5420  177.6870  141.0520 S   0  0  0  0  0  0  0  0  0  0  0  0
  186.4120  179.2580  141.3350 C   0  0  0  0  0  2  0  0  0  0  0  0
  182.6850  179.0680  145.5440 O   0  0  0  0  0  1  0  0  0  0  0  0
  189.7530  178.1570  139.5610 N   0  0  0  0  0  2  0  0  0  0  0  0
  190.4340  175.9110  139.2160 O   0  0  0  0  0  1  0  0  0  0  0  0
  190.8730  177.2360  139.3280 C   0  0  2  0  0  3  0  0  0  0  0  0
  191.8710  177.3540  140.4700 C   0  0  0  0  0  2  0  0  0  0  0  0
  191.1810  177.7240  141.6920 N   0  0  0  0  0  2  0  0  0  0  0  0
  191.6100  176.8310  142.6850 N   0  0  0  0  0  2  0  0  0  0  0  0
  191.5920  177.5570  143.9460 C   0  0  0  0  0  2  0  0  0  0  0  0
  191.9080  177.0360  146.1280 O   0  0  0  0  0  1  0  0  0  0  0  0
  191.2050  176.6670  145.0290 N   0  0  0  0  0  2  0  0  0  0  0  0
  1 29  1  6  0  0  0
  1 18  1  0  0  0  0
  2 10  1  6  0  0  0
  2 11  1  0  0  0  0
  2 27  1  0  0  0  0
  4 14  1  0  0  0  0
  5 21  1  0  0  0  0
  6  8  1  0  0  0  0
  7 13  1  6  0  0  0
  7 16  1  0  0  0  0
  8  3  1  0  0  0  0
  8 25  2  0  0  0  0
  9 28  1  0  0  0  0
 11  7  1  0  0  0  0
 11 21  1  0  0  0  0
 12 15  1  0  0  0  0
 15  1  1  0  0  0  0
 16 19  1  0  0  0  0
 17  9  1  0  0  0  0
 17 12  1  0  0  0  0
 18 20  2  0  0  0  0
 19 31  1  0  0  0  0
 19  4  1  0  0  0  0
 20 25  1  0  0  0  0
 21 15  1  0  0  0  0
 22  6  2  0  0  0  0
 22 18  1  0  0  0  0
 23 26  1  0  0  0  0
 24 23  2  0  0  0  0
 24 27  1  0  0  0  0
 25 30  1  0  0  0  0
 26  9  2  0  0  0  0
 27 17  2  0  0  0  0
 28  6  1  0  0  0  0
 29 14  1  0  0  0  0
 32 33  1  0  0  0  0
 33 31  1  0  0  0  0
 33 34  1  0  0  0  0
 34 35  1  0  0  0  0
 35 36  1  0  0  0  0
 36 37  1  0  0  0  0
 37 39  1  0  0  0  0
 39 38  1  0  0  0  0
M  END
>  <MODEL>
8

>  <REMARK>
 VINA RESULT:      -6.2      3.526      6.138
  Name = 
  7 active torsions:
  status: ('A' for Active; 'I' for Inactive)
    1  A    between atoms: C_3  and  N_23
    2  A    between atoms: C_3  and  N_27
    3  A    between atoms: N_9  and  N_27
    4  A    between atoms: N_9  and  C_32
    5  A    between atoms: N_22  and  N_25
    6  A    between atoms: N_25  and  C_39
    7  A    between atoms: C_32  and  C_39
                            x       y       z     vdW  Elec       q    Type
                         _______ _______ _______ _____ _____    ______ ____

>  <TORSDO>
F 7

$$$$
=
 OpenBabel10232411033D

 39 43  0  0  1  0  0  0  0  0999 V2000
  186.7920  177.6640  139.4590 C   0  0  2  0  0  3  0  0  0  0  0  0
  190.8790  176.2170  138.3170 C   0  0  1  0  0  3  0  0  0  0  0  0
  183.3980  176.8720  135.0200 C   0  0  0  0  0  1  0  0  0  0  0  0
  188.0140  177.1020  142.1450 C   0  0  0  0  0  2  0  0  0  0  0  0
  189.1040  178.9800  137.6890 C   0  0  0  0  0  1  0  0  0  0  0  0
  185.6650  177.3590  136.0000 C   0  0  0  0  0  0  0  0  0  0  0  0
  190.7180  177.1480  140.6550 C   0  0  1  0  0  3  0  0  0  0  0  0
  184.2620  177.3770  136.1270 C   0  0  0  0  0  0  0  0  0  0  0  0
  188.2380  176.3040  135.5190 C   0  0  0  0  0  0  0  0  0  0  0  0
  192.2580  176.0070  138.2340 O   0  0  0  0  0  1  0  0  0  0  0  0
  190.5840  177.4770  139.1640 C   0  0  2  0  0  3  0  0  0  0  0  0
  188.0280  175.9210  138.0870 C   0  0  0  0  0  2  0  0  0  0  0  0
  192.0590  176.9540  141.0040 O   0  0  0  0  0  1  0  0  0  0  0  0
  187.0180  178.2580  141.9350 C   0  0  0  0  0  2  0  0  0  0  0  0
  188.1010  177.0660  139.0520 N   0  0  1  0  0  0  0  0  0  0  0  0
  190.0820  178.1900  141.5770 C   0  0  0  0  0  2  0  0  0  0  0  0
  188.8420  176.1180  136.8080 C   0  0  0  0  0  0  0  0  0  0  0  0
  185.8890  178.0440  138.3030 C   0  0  0  0  0  0  0  0  0  0  0  0
  189.3380  177.5120  142.6340 N   0  0  0  0  0  0  0  0  0  0  0  0
  184.4970  178.0480  138.4580 C   0  0  0  0  0  3  0  0  0  0  0  0
  189.1890  178.0600  138.9010 C   0  0  2  0  0  3  0  0  0  0  0  0
  186.4140  177.8500  137.0410 C   0  0  0  0  0  3  0  0  0  0  0  0
  190.4200  176.8210  134.5930 C   0  0  0  0  0  3  0  0  0  0  0  0
  191.0150  176.6200  135.8350 C   0  0  0  0  0  3  0  0  0  0  0  0
  183.6790  177.7950  137.3450 C   0  0  0  0  0  0  0  0  0  0  0  0
  189.0460  176.6660  134.4420 C   0  0  0  0  0  3  0  0  0  0  0  0
  190.2440  176.2600  136.9420 C   0  0  0  0  0  0  0  0  0  0  0  0
  186.4820  176.0070  135.1040 S   0  0  0  0  0  0  0  0  0  0  0  0
  186.9580  178.7850  140.4950 C   0  0  0  0  0  2  0  0  0  0  0  0
  182.2960  177.8750  137.4830 O   0  0  0  0  0  1  0  0  0  0  0  0
  189.1750  178.3860  143.7280 N   0  0  0  0  0  2  0  0  0  0  0  0
  187.5060  178.0610  145.3820 O   0  0  0  0  0  1  0  0  0  0  0  0
  188.7590  177.6370  144.9210 C   0  0  2  0  0  3  0  0  0  0  0  0
  189.7980  177.8130  146.0170 C   0  0  0  0  0  2  0  0  0  0  0  0
  190.7880  176.7550  145.9350 N   0  0  0  0  0  2  0  0  0  0  0  0
  191.6500  176.9210  147.0270 N   0  0  0  0  0  2  0  0  0  0  0  0
  192.3500  175.6590  147.2130 C   0  0  0  0  0  2  0  0  0  0  0  0
  193.0460  176.9060  148.9710 O   0  0  0  0  0  1  0  0  0  0  0  0
  193.3450  175.7880  148.2640 N   0  0  0  0  0  2  0  0  0  0  0  0
  1 29  1  6  0  0  0
  2 10  1  6  0  0  0
  2 11  1  0  0  0  0
  3  8  1  0  0  0  0
  4 19  1  0  0  0  0
  5 21  1  0  0  0  0
  6  8  2  0  0  0  0
  6 22  1  0  0  0  0
  7 13  1  1  0  0  0
  7 16  1  0  0  0  0
  8 25  1  0  0  0  0
  9 17  1  0  0  0  0
 11  7  1  0  0  0  0
 12 15  1  0  0  0  0
 14  4  1  0  0  0  0
 15  1  1  0  0  0  0
 16 19  1  0  0  0  0
 17 27  2  0  0  0  0
 17 12  1  0  0  0  0
 18 20  1  0  0  0  0
 18  1  1  0  0  0  0
 19 31  1  0  0  0  0
 21 15  1  0  0  0  0
 21 11  1  0  0  0  0
 22 18  2  0  0  0  0
 23 24  2  0  0  0  0
 24 27  1  0  0  0  0
 25 30  1  0  0  0  0
 25 20  2  0  0  0  0
 26 23  1  0  0  0  0
 26  9  2  0  0  0  0
 27  2  1  0  0  0  0
 28  9  1  0  0  0  0
 28  6  1  0  0  0  0
 29 14  1  0  0  0  0
 31 33  1  0  0  0  0
 33 32  1  0  0  0  0
 33 34  1  0  0  0  0
 35 34  1  0  0  0  0
 35 36  1  0  0  0  0
 36 37  1  0  0  0  0
 37 39  1  0  0  0  0
 39 38  1  0  0  0  0
M  END
>  <MODEL>
9

>  <REMARK>
 VINA RESULT:      -6.2      3.562      8.344
  Name = 
  7 active torsions:
  status: ('A' for Active; 'I' for Inactive)
    1  A    between atoms: C_3  and  N_23
    2  A    between atoms: C_3  and  N_27
    3  A    between atoms: N_9  and  N_27
    4  A    between atoms: N_9  and  C_32
    5  A    between atoms: N_22  and  N_25
    6  A    between atoms: N_25  and  C_39
    7  A    between atoms: C_32  and  C_39
                            x       y       z     vdW  Elec       q    Type
                         _______ _______ _______ _____ _____    ______ ____

>  <TORSDO>
F 7

$$$$
