=
 OpenBabel10232412193D

 56 63  0  0  1  0  0  0  0  0999 V2000
  187.7200  177.3840  138.0240 C   0  0  0  0  0  0  0  0  0  0  0  0
  186.0720  178.4840  139.4050 C   0  0  0  0  0  0  0  0  0  0  0  0
  188.5300  178.2250  139.9910 N   0  0  0  0  0  0  0  0  0  0  0  0
  186.7740  177.0710  137.0490 C   0  0  0  0  0  3  0  0  0  0  0  0
  185.1040  178.1890  138.4310 C   0  0  0  0  0  3  0  0  0  0  0  0
  189.6530  177.5820  139.2970 C   0  0  0  0  0  3  0  0  0  0  0  0
  189.0960  177.0450  138.0490 N   0  0  0  0  0  0  0  0  0  0  0  0
  185.4420  177.4850  137.2540 C   0  0  0  0  0  0  0  0  0  0  0  0
  187.3880  178.0540  139.1640 C   0  0  0  0  0  0  0  0  0  0  0  0
  189.4020  174.9700  136.7770 C   0  0  0  0  0  2  0  0  0  0  0  0
  189.8470  176.4320  136.9520 C   0  0  2  0  0  3  0  0  0  0  0  0
  191.7750  174.1030  136.9960 C   0  0  2  0  0  3  0  0  0  0  0  0
  191.3670  176.5770  137.1670 C   0  0  0  0  0  2  0  0  0  0  0  0
  190.4990  174.1220  136.1370 C   0  0  0  0  0  2  0  0  0  0  0  0
  191.9450  175.3510  137.8680 C   0  0  0  0  0  2  0  0  0  0  0  0
  192.9410  173.9550  136.1390 N   0  0  0  0  0  2  0  0  0  0  0  0
  193.3470  172.7000  135.5910 C   0  0  0  0  0  0  0  0  0  0  0  0
  192.7010  171.6500  135.8570 O   0  0  0  0  0  0  0  0  0  0  0  0
  197.8930  171.9910  137.4260 O   0  0  0  0  0  1  0  0  0  0  0  0
  196.8610  173.4400  135.8050 C   0  0  1  0  0  3  0  0  0  0  0  0
  196.6700  172.3310  136.8500 C   0  0  1  0  0  3  0  0  0  0  0  0
  196.0210  171.0670  136.2700 C   0  0  0  0  0  2  0  0  0  0  0  0
  194.6270  172.6380  134.8150 C   0  0  2  0  0  3  0  0  0  0  0  0
  195.3390  171.2830  134.9140 C   0  0  0  0  0  2  0  0  0  0  0  0
  195.5230  173.8290  135.1750 C   0  0  0  0  0  2  0  0  0  0  0  0
  197.5970  174.9280  136.5240 S   0  0  2  0  0  3  0  0  0  0  0  0
  199.0880  174.6270  136.5570 O   0  0  0  0  0  1  0  0  0  0  0  0
  197.1400  174.8880  138.1920 O   0  0  0  0  0  0  0  0  0  0  0  0
  197.9590  175.9790  140.0600 O   0  0  0  0  0  0  0  0  0  0  0  0
  198.0720  175.0510  139.2170 C   0  0  0  0  0  3  0  0  0  0  0  0
  184.3880  177.1500  136.2820 C   0  0  0  0  0  0  0  0  0  0  0  0
  182.4570  176.8820  135.2550 C   0  0  0  0  0  0  0  0  0  0  0  0
  183.0870  177.2960  136.4930 C   0  0  0  0  0  2  0  0  0  0  0  0
  181.0530  176.8910  135.0360 N   0  0  0  0  0  1  0  0  0  0  0  0
  183.2980  176.5260  134.3460 N   0  0  0  0  0  0  0  0  0  0  0  0
  184.6380  176.6530  134.8950 C   0  0  0  0  0  3  0  0  0  0  0  0
  185.6820  179.1840  140.5940 N   0  0  0  0  0  2  0  0  0  0  0  0
  185.1490  178.5300  141.7790 C   0  0  0  0  0  2  0  0  0  0  0  0
  187.0820  178.0490  143.3440 C   0  0  0  0  0  0  0  0  0  0  0  0
  185.9700  178.8500  142.9360 N   0  0  0  0  0  2  0  0  0  0  0  0
  187.3710  176.9950  142.7180 O   0  0  0  0  0  0  0  0  0  0  0  0
  188.5810  177.2070  145.1710 C   0  0  2  0  0  3  0  0  0  0  0  0
  187.5630  178.7680  147.0600 C   0  0  0  0  0  2  0  0  0  0  0  0
  187.8900  178.4250  144.5500 C   0  0  2  0  0  3  0  0  0  0  0  0
  189.1960  178.2750  148.9350 C   0  0  0  0  0  2  0  0  0  0  0  0
  191.0430  177.2250  144.7580 C   0  0  0  0  0  2  0  0  0  0  0  0
  187.3670  177.8330  145.8610 C   0  0  1  0  0  0  0  0  0  0  0  0
  190.3590  178.1870  147.9410 C   0  0  0  0  0  2  0  0  0  0  0  0
  191.4560  175.0830  147.6940 C   0  0  0  0  0  1  0  0  0  0  0  0
  190.2020  177.0630  147.0240 N   0  0  2  0  0  0  0  0  0  0  0  0
  187.8310  177.9560  148.3250 C   0  0  0  0  0  2  0  0  0  0  0  0
  191.4930  176.3910  146.9300 C   0  0  2  0  0  3  0  0  0  0  0  0
  191.7660  176.1210  145.4710 C   0  0  0  0  0  2  0  0  0  0  0  0
  189.9400  177.6530  145.7100 C   0  0  2  0  0  3  0  0  0  0  0  0
  184.8590  177.8180  146.1710 C   0  0  0  0  0  1  0  0  0  0  0  0
  186.0820  176.9990  145.7940 C   0  0  0  0  0  2  0  0  0  0  0  0
  1  7  1  0  0  0  0
  1  9  1  0  0  0  0
  2 37  1  0  0  0  0
  4  8  1  0  0  0  0
  4  1  2  0  0  0  0
  5  2  1  0  0  0  0
  6  3  2  0  0  0  0
  7  6  1  0  0  0  0
  8  5  2  0  0  0  0
  9  2  2  0  0  0  0
  9  3  1  0  0  0  0
 10 11  1  0  0  0  0
 11 13  1  0  0  0  0
 11  7  1  0  0  0  0
 12 15  1  0  0  0  0
 13 15  1  0  0  0  0
 14 10  1  0  0  0  0
 14 12  1  0  0  0  0
 16 12  1  0  0  0  0
 17 18  2  0  0  0  0
 17 16  1  0  0  0  0
 20 26  1  1  0  0  0
 20 21  1  0  0  0  0
 21 19  1  6  0  0  0
 22 21  1  0  0  0  0
 23 24  1  0  0  0  0
 23 25  1  0  0  0  0
 23 17  1  1  0  0  0
 24 22  1  0  0  0  0
 25 20  1  0  0  0  0
 26 27  1  1  0  0  0
 26 28  1  0  0  0  0
 28 30  1  0  0  0  0
 30 29  2  0  0  0  0
 31 33  1  0  0  0  0
 31  8  1  0  0  0  0
 32 33  1  0  0  0  0
 34 32  1  0  0  0  0
 35 36  1  0  0  0  0
 35 32  2  0  0  0  0
 36 31  2  0  0  0  0
 37 38  1  0  0  0  0
 38 40  1  0  0  0  0
 39 44  1  0  0  0  0
 40 39  1  0  0  0  0
 41 39  2  0  0  0  0
 42 54  1  0  0  0  0
 42 47  1  0  0  0  0
 43 51  1  0  0  0  0
 44 42  1  0  0  0  0
 44 47  1  0  0  0  0
 46 53  1  0  0  0  0
 46 54  1  0  0  0  0
 47 43  1  0  0  0  0
 48 45  1  0  0  0  0
 50 48  1  0  0  0  0
 51 45  1  0  0  0  0
 52 50  1  0  0  0  0
 52 49  1  0  0  0  0
 53 52  1  0  0  0  0
 54 50  1  0  0  0  0
 56 47  1  0  0  0  0
 56 55  1  0  0  0  0
M  END
>  <MODEL>
1

>  <REMARK>
 VINA RESULT:      -8.1      0.000      0.000
  Name = 
  12 active torsions:
  status: ('A' for Active; 'I' for Inactive)
    1  A    between atoms: N_3  and  C_32
    2  A    between atoms: C_4  and  C_26
    3  A    between atoms: C_5  and  C_22
    4  A    between atoms: N_8  and  C_46
    5  A    between atoms: C_9  and  S_21
    6  A    between atoms: C_11  and  C_42
    7  A    between atoms: C_13  and  N_17
    8  A    between atoms: N_17  and  C_46
    9  A    between atoms: C_18  and  O_56
   10  A    between atoms: S_21  and  O_56
   11  A    between atoms: C_29  and  N_39
   12  A    between atoms: C_31  and  C_40
                            x       y       z     vdW  Elec       q    Type
                         _______ _______ _______ _____ _____    ______ ____

>  <TORSDO>
F 12

$$$$
=
 OpenBabel10232412193D

 56 63  0  0  1  0  0  0  0  0999 V2000
  188.4810  177.6010  140.6420 C   0  0  0  0  0  0  0  0  0  0  0  0
  186.4230  178.6830  141.2930 C   0  0  0  0  0  0  0  0  0  0  0  0
  187.2240  178.3890  138.9000 N   0  0  0  0  0  0  0  0  0  0  0  0
  188.8330  177.3500  141.9670 C   0  0  0  0  0  3  0  0  0  0  0  0
  186.7520  178.4320  142.6350 C   0  0  0  0  0  3  0  0  0  0  0  0
  188.4350  177.7870  138.3270 C   0  0  0  0  0  3  0  0  0  0  0  0
  189.2200  177.3030  139.4690 N   0  0  0  0  0  0  0  0  0  0  0  0
  187.9490  177.7690  142.9830 C   0  0  0  0  0  0  0  0  0  0  0  0
  187.3290  178.2490  140.3100 C   0  0  0  0  0  0  0  0  0  0  0  0
  191.6500  177.3850  139.7950 C   0  0  0  0  0  2  0  0  0  0  0  0
  190.4470  176.5080  139.4090 C   0  0  2  0  0  3  0  0  0  0  0  0
  192.8810  176.8400  137.6460 C   0  0  2  0  0  3  0  0  0  0  0  0
  190.6090  175.8360  138.0300 C   0  0  0  0  0  2  0  0  0  0  0  0
  192.9470  176.8600  139.1820 C   0  0  0  0  0  2  0  0  0  0  0  0
  191.4590  176.6920  137.0960 C   0  0  0  0  0  2  0  0  0  0  0  0
  193.7070  175.7590  137.1340 N   0  0  0  0  0  2  0  0  0  0  0  0
  194.2630  175.7640  135.8180 C   0  0  0  0  0  0  0  0  0  0  0  0
  194.0300  176.7230  135.0320 O   0  0  0  0  0  0  0  0  0  0  0  0
  195.7060  171.9180  138.5870 O   0  0  0  0  0  1  0  0  0  0  0  0
  196.6640  173.2960  136.8620 C   0  0  1  0  0  3  0  0  0  0  0  0
  195.4570  173.0210  137.7710 C   0  0  1  0  0  3  0  0  0  0  0  0
  194.1600  172.7800  136.9870 C   0  0  0  0  0  2  0  0  0  0  0  0
  195.0040  174.5490  135.3490 C   0  0  2  0  0  3  0  0  0  0  0  0
  194.2190  173.2440  135.5270 C   0  0  0  0  0  2  0  0  0  0  0  0
  196.4060  174.5110  135.9700 C   0  0  0  0  0  2  0  0  0  0  0  0
  198.1710  173.6080  137.8140 S   0  0  2  0  0  3  0  0  0  0  0  0
  198.1240  175.1010  138.1040 O   0  0  0  0  0  1  0  0  0  0  0  0
  199.4580  173.4590  136.6680 O   0  0  0  0  0  0  0  0  0  0  0  0
  199.6050  175.2590  135.2230 O   0  0  0  0  0  0  0  0  0  0  0  0
  200.1150  174.5730  136.1470 C   0  0  0  0  0  3  0  0  0  0  0  0
  188.2830  177.5710  144.4040 C   0  0  0  0  0  0  0  0  0  0  0  0
  188.2140  177.4650  146.6030 C   0  0  0  0  0  0  0  0  0  0  0  0
  187.4830  177.8690  145.4180 C   0  0  0  0  0  2  0  0  0  0  0  0
  187.7150  177.5940  147.9280 N   0  0  0  0  0  1  0  0  0  0  0  0
  189.3630  176.9430  146.3430 N   0  0  0  0  0  0  0  0  0  0  0  0
  189.5470  176.9500  144.9010 C   0  0  0  0  0  3  0  0  0  0  0  0
  185.2050  179.3750  140.9850 N   0  0  0  0  0  2  0  0  0  0  0  0
  184.4930  179.2370  139.7250 C   0  0  0  0  0  2  0  0  0  0  0  0
  183.8520  177.0950  138.5360 C   0  0  0  0  0  0  0  0  0  0  0  0
  183.8090  177.9550  139.6770 N   0  0  0  0  0  2  0  0  0  0  0  0
  184.4730  177.4450  137.4970 O   0  0  0  0  0  0  0  0  0  0  0  0
  183.1920  175.0920  137.1760 C   0  0  2  0  0  3  0  0  0  0  0  0
  180.7520  174.8970  138.1980 C   0  0  0  0  0  2  0  0  0  0  0  0
  183.1220  175.7840  138.5410 C   0  0  2  0  0  3  0  0  0  0  0  0
  180.0360  172.7000  137.1570 C   0  0  0  0  0  2  0  0  0  0  0  0
  184.7030  173.1050  137.2200 C   0  0  0  0  0  2  0  0  0  0  0  0
  181.8900  175.7540  137.6330 C   0  0  1  0  0  0  0  0  0  0  0  0
  181.4520  172.1340  137.3020 C   0  0  0  0  0  2  0  0  0  0  0  0
  182.8760  171.7710  134.3460 C   0  0  0  0  0  1  0  0  0  0  0  0
  182.4110  172.8600  136.4760 N   0  0  2  0  0  0  0  0  0  0  0  0
  179.9820  174.2250  137.0640 C   0  0  0  0  0  2  0  0  0  0  0  0
  183.2520  171.8710  135.8110 C   0  0  2  0  0  3  0  0  0  0  0  0
  184.6860  172.3250  135.9380 C   0  0  0  0  0  2  0  0  0  0  0  0
  183.2750  173.5840  137.4110 C   0  0  2  0  0  3  0  0  0  0  0  0
  181.7380  176.9170  135.3950 C   0  0  0  0  0  1  0  0  0  0  0  0
  181.5270  177.0470  136.8940 C   0  0  0  0  0  2  0  0  0  0  0  0
  1  4  1  0  0  0  0
  2  5  2  0  0  0  0
  3  9  1  0  0  0  0
  4  8  2  0  0  0  0
  5  8  1  0  0  0  0
  6  3  2  0  0  0  0
  6  7  1  0  0  0  0
  7  1  1  0  0  0  0
  8 31  1  0  0  0  0
  9  1  2  0  0  0  0
  9  2  1  0  0  0  0
 11  7  1  0  0  0  0
 11 10  1  0  0  0  0
 12 14  1  0  0  0  0
 13 11  1  0  0  0  0
 14 10  1  0  0  0  0
 15 12  1  0  0  0  0
 15 13  1  0  0  0  0
 16 12  1  0  0  0  0
 17 16  1  0  0  0  0
 18 17  2  0  0  0  0
 20 21  1  0  0  0  0
 20 26  1  1  0  0  0
 21 19  1  6  0  0  0
 22 21  1  0  0  0  0
 23 24  1  0  0  0  0
 23 17  1  1  0  0  0
 23 25  1  0  0  0  0
 24 22  1  0  0  0  0
 25 20  1  0  0  0  0
 26 27  1  6  0  0  0
 28 26  1  0  0  0  0
 29 30  2  0  0  0  0
 30 28  1  0  0  0  0
 31 36  2  0  0  0  0
 31 33  1  0  0  0  0
 32 34  1  0  0  0  0
 33 32  1  0  0  0  0
 35 32  2  0  0  0  0
 36 35  1  0  0  0  0
 37  2  1  0  0  0  0
 38 37  1  0  0  0  0
 39 44  1  0  0  0  0
 39 40  1  0  0  0  0
 40 38  1  0  0  0  0
 41 39  2  0  0  0  0
 42 54  1  0  0  0  0
 42 47  1  0  0  0  0
 42 44  1  0  0  0  0
 45 48  1  0  0  0  0
 46 54  1  0  0  0  0
 47 43  1  0  0  0  0
 47 44  1  0  0  0  0
 49 52  1  0  0  0  0
 50 48  1  0  0  0  0
 50 54  1  0  0  0  0
 51 45  1  0  0  0  0
 51 43  1  0  0  0  0
 52 53  1  0  0  0  0
 52 50  1  0  0  0  0
 53 46  1  0  0  0  0
 55 56  1  0  0  0  0
 56 47  1  0  0  0  0
M  END
>  <MODEL>
2

>  <REMARK>
 VINA RESULT:      -7.9      2.650      8.053
  Name = 
  12 active torsions:
  status: ('A' for Active; 'I' for Inactive)
    1  A    between atoms: N_3  and  C_32
    2  A    between atoms: C_4  and  C_26
    3  A    between atoms: C_5  and  C_22
    4  A    between atoms: N_8  and  C_46
    5  A    between atoms: C_9  and  S_21
    6  A    between atoms: C_11  and  C_42
    7  A    between atoms: C_13  and  N_17
    8  A    between atoms: N_17  and  C_46
    9  A    between atoms: C_18  and  O_56
   10  A    between atoms: S_21  and  O_56
   11  A    between atoms: C_29  and  N_39
   12  A    between atoms: C_31  and  C_40
                            x       y       z     vdW  Elec       q    Type
                         _______ _______ _______ _____ _____    ______ ____

>  <TORSDO>
F 12

$$$$
=
 OpenBabel10232412193D

 56 63  0  0  1  0  0  0  0  0999 V2000
  187.1180  177.1930  137.6140 C   0  0  0  0  0  0  0  0  0  0  0  0
  185.3220  178.3850  138.7030 C   0  0  0  0  0  0  0  0  0  0  0  0
  187.7870  178.6240  139.2690 N   0  0  0  0  0  0  0  0  0  0  0  0
  186.2340  176.5100  136.7810 C   0  0  0  0  0  3  0  0  0  0  0  0
  184.4130  177.7160  137.8670 C   0  0  0  0  0  3  0  0  0  0  0  0
  188.9940  177.9790  138.7370 C   0  0  0  0  0  3  0  0  0  0  0  0
  188.5280  177.0630  137.6890 N   0  0  0  0  0  0  0  0  0  0  0  0
  184.8560  176.7800  136.9060 C   0  0  0  0  0  0  0  0  0  0  0  0
  186.6870  178.0890  138.5460 C   0  0  0  0  0  0  0  0  0  0  0  0
  189.1970  174.7880  137.0590 C   0  0  0  0  0  2  0  0  0  0  0  0
  189.3660  176.2890  136.7710 C   0  0  2  0  0  3  0  0  0  0  0  0
  191.6920  174.4500  137.3630 C   0  0  2  0  0  3  0  0  0  0  0  0
  190.8350  176.7530  136.8330 C   0  0  0  0  0  2  0  0  0  0  0  0
  190.4250  173.9910  136.6220 C   0  0  0  0  0  2  0  0  0  0  0  0
  191.6380  175.9120  137.8200 C   0  0  0  0  0  2  0  0  0  0  0  0
  192.8550  174.2580  136.5110 N   0  0  0  0  0  2  0  0  0  0  0  0
  194.1710  174.0590  137.0290 C   0  0  0  0  0  0  0  0  0  0  0  0
  194.3740  174.0660  138.2740 O   0  0  0  0  0  0  0  0  0  0  0  0
  198.2130  171.2260  137.4420 O   0  0  0  0  0  1  0  0  0  0  0  0
  197.7210  173.5030  136.8410 C   0  0  1  0  0  3  0  0  0  0  0  0
  197.1770  172.1500  137.3230 C   0  0  1  0  0  3  0  0  0  0  0  0
  196.0970  171.5750  136.3960 C   0  0  0  0  0  2  0  0  0  0  0  0
  195.3160  173.9850  136.0650 C   0  0  2  0  0  3  0  0  0  0  0  0
  195.4950  172.6010  135.4300 C   0  0  0  0  0  2  0  0  0  0  0  0
  196.5930  174.5290  136.7180 C   0  0  0  0  0  2  0  0  0  0  0  0
  198.9680  174.1720  137.9690 S   0  0  2  0  0  3  0  0  0  0  0  0
  198.3340  175.4450  138.5100 O   0  0  0  0  0  1  0  0  0  0  0  0
  200.2300  174.7540  136.9400 O   0  0  0  0  0  0  0  0  0  0  0  0
  199.7970  175.5840  134.8250 O   0  0  0  0  0  0  0  0  0  0  0  0
  200.1700  174.6270  135.5520 C   0  0  0  0  0  3  0  0  0  0  0  0
  183.8670  176.0610  136.0850 C   0  0  0  0  0  0  0  0  0  0  0  0
  182.4000  174.6040  135.3220 C   0  0  0  0  0  0  0  0  0  0  0  0
  183.3380  174.8840  136.3920 C   0  0  0  0  0  2  0  0  0  0  0  0
  181.5950  173.4350  135.2570 N   0  0  0  0  0  1  0  0  0  0  0  0
  182.3390  175.5380  134.4360 N   0  0  0  0  0  0  0  0  0  0  0  0
  183.2740  176.5840  134.8170 C   0  0  0  0  0  3  0  0  0  0  0  0
  184.8280  179.3130  139.6770 N   0  0  0  0  0  2  0  0  0  0  0  0
  184.5220  178.9550  141.0530 C   0  0  0  0  0  2  0  0  0  0  0  0
  185.8470  179.1620  143.2020 C   0  0  0  0  0  0  0  0  0  0  0  0
  185.7520  178.8180  141.8170 N   0  0  0  0  0  2  0  0  0  0  0  0
  184.8510  179.6380  143.8100 O   0  0  0  0  0  0  0  0  0  0  0  0
  187.7690  177.6270  143.6970 C   0  0  2  0  0  3  0  0  0  0  0  0
  187.9750  178.3120  146.2520 C   0  0  0  0  0  2  0  0  0  0  0  0
  187.1440  179.0050  143.9390 C   0  0  2  0  0  3  0  0  0  0  0  0
  190.1060  177.0750  146.8460 C   0  0  0  0  0  2  0  0  0  0  0  0
  189.7790  177.7650  142.2230 C   0  0  0  0  0  2  0  0  0  0  0  0
  187.1100  177.9440  145.0420 C   0  0  1  0  0  0  0  0  0  0  0  0
  190.7010  177.3730  145.4660 C   0  0  0  0  0  2  0  0  0  0  0  0
  190.9400  174.6130  143.6710 C   0  0  0  0  0  1  0  0  0  0  0  0
  189.9500  176.7180  144.4010 N   0  0  2  0  0  0  0  0  0  0  0  0
  188.5780  177.0540  146.8730 C   0  0  0  0  0  2  0  0  0  0  0  0
  190.9180  176.1180  143.4890 C   0  0  2  0  0  3  0  0  0  0  0  0
  190.4930  176.4540  142.0800 C   0  0  0  0  0  2  0  0  0  0  0  0
  189.2880  177.7930  143.6590 C   0  0  2  0  0  3  0  0  0  0  0  0
  185.0080  177.8640  146.4420 C   0  0  0  0  0  1  0  0  0  0  0  0
  185.7760  177.2320  145.2930 C   0  0  0  0  0  2  0  0  0  0  0  0
  1  7  1  0  0  0  0
  1  9  1  0  0  0  0
  2 37  1  0  0  0  0
  4  8  1  0  0  0  0
  4  1  2  0  0  0  0
  5  2  1  0  0  0  0
  6  3  2  0  0  0  0
  7  6  1  0  0  0  0
  8  5  2  0  0  0  0
  9  2  2  0  0  0  0
  9  3  1  0  0  0  0
 11 13  1  0  0  0  0
 11 10  1  0  0  0  0
 11  7  1  0  0  0  0
 12 15  1  0  0  0  0
 13 15  1  0  0  0  0
 14 10  1  0  0  0  0
 14 12  1  0  0  0  0
 16 17  1  0  0  0  0
 16 12  1  0  0  0  0
 17 18  2  0  0  0  0
 20 21  1  0  0  0  0
 20 26  1  1  0  0  0
 21 19  1  6  0  0  0
 22 21  1  0  0  0  0
 23 25  1  0  0  0  0
 23 17  1  1  0  0  0
 24 23  1  0  0  0  0
 24 22  1  0  0  0  0
 25 20  1  0  0  0  0
 26 27  1  6  0  0  0
 28 26  1  0  0  0  0
 29 30  2  0  0  0  0
 30 28  1  0  0  0  0
 31 33  1  0  0  0  0
 31  8  1  0  0  0  0
 32 33  1  0  0  0  0
 34 32  1  0  0  0  0
 35 36  1  0  0  0  0
 35 32  2  0  0  0  0
 36 31  2  0  0  0  0
 37 38  1  0  0  0  0
 38 40  1  0  0  0  0
 39 41  2  0  0  0  0
 39 44  1  0  0  0  0
 40 39  1  0  0  0  0
 42 44  1  0  0  0  0
 42 47  1  0  0  0  0
 43 51  1  0  0  0  0
 44 47  1  0  0  0  0
 45 51  1  0  0  0  0
 46 54  1  0  0  0  0
 47 56  1  0  0  0  0
 47 43  1  0  0  0  0
 48 45  1  0  0  0  0
 50 48  1  0  0  0  0
 52 49  1  0  0  0  0
 52 50  1  0  0  0  0
 53 46  1  0  0  0  0
 53 52  1  0  0  0  0
 54 42  1  0  0  0  0
 54 50  1  0  0  0  0
 56 55  1  0  0  0  0
M  END
>  <MODEL>
3

>  <REMARK>
 VINA RESULT:      -7.9      1.623      2.102
  Name = 
  12 active torsions:
  status: ('A' for Active; 'I' for Inactive)
    1  A    between atoms: N_3  and  C_32
    2  A    between atoms: C_4  and  C_26
    3  A    between atoms: C_5  and  C_22
    4  A    between atoms: N_8  and  C_46
    5  A    between atoms: C_9  and  S_21
    6  A    between atoms: C_11  and  C_42
    7  A    between atoms: C_13  and  N_17
    8  A    between atoms: N_17  and  C_46
    9  A    between atoms: C_18  and  O_56
   10  A    between atoms: S_21  and  O_56
   11  A    between atoms: C_29  and  N_39
   12  A    between atoms: C_31  and  C_40
                            x       y       z     vdW  Elec       q    Type
                         _______ _______ _______ _____ _____    ______ ____

>  <TORSDO>
F 12

$$$$
=
 OpenBabel10232412193D

 56 63  0  0  1  0  0  0  0  0999 V2000
  189.3540  177.1170  141.5380 C   0  0  0  0  0  0  0  0  0  0  0  0
  187.3080  177.8600  142.5850 C   0  0  0  0  0  0  0  0  0  0  0  0
  187.7040  177.7360  140.0790 N   0  0  0  0  0  0  0  0  0  0  0  0
  189.9700  176.8990  142.7690 C   0  0  0  0  0  3  0  0  0  0  0  0
  187.9050  177.6370  143.8370 C   0  0  0  0  0  3  0  0  0  0  0  0
  188.8680  177.3360  139.2770 C   0  0  0  0  0  3  0  0  0  0  0  0
  189.9070  176.9580  140.2420 N   0  0  0  0  0  0  0  0  0  0  0  0
  189.2300  177.1600  143.9410 C   0  0  0  0  0  0  0  0  0  0  0  0
  188.0780  177.5880  141.4410 C   0  0  0  0  0  0  0  0  0  0  0  0
  192.2990  177.4420  139.9950 C   0  0  0  0  0  2  0  0  0  0  0  0
  191.2070  176.3600  139.9340 C   0  0  2  0  0  3  0  0  0  0  0  0
  193.0990  176.9260  137.6440 C   0  0  2  0  0  3  0  0  0  0  0  0
  191.1720  175.6150  138.5850 C   0  0  0  0  0  2  0  0  0  0  0  0
  193.4980  177.0780  139.1220 C   0  0  0  0  0  2  0  0  0  0  0  0
  191.6360  176.5150  137.4440 C   0  0  0  0  0  2  0  0  0  0  0  0
  193.9630  175.9490  137.0010 N   0  0  0  0  0  2  0  0  0  0  0  0
  194.2500  175.9690  135.6020 C   0  0  0  0  0  0  0  0  0  0  0  0
  193.7330  176.8480  134.8580 O   0  0  0  0  0  0  0  0  0  0  0  0
  196.6140  172.4080  138.1050 O   0  0  0  0  0  1  0  0  0  0  0  0
  197.0910  173.8580  136.2450 C   0  0  1  0  0  3  0  0  0  0  0  0
  196.0940  173.4500  137.3390 C   0  0  1  0  0  3  0  0  0  0  0  0
  194.7300  173.0250  136.7770 C   0  0  0  0  0  2  0  0  0  0  0  0
  195.0600  174.8510  135.0200 C   0  0  2  0  0  3  0  0  0  0  0  0
  194.4920  173.4590  135.3260 C   0  0  0  0  0  2  0  0  0  0  0  0
  196.5350  175.0090  135.4050 C   0  0  0  0  0  2  0  0  0  0  0  0
  198.6780  174.3850  136.9380 S   0  0  2  0  0  3  0  0  0  0  0  0
  199.1790  173.1610  137.6910 O   0  0  0  0  0  1  0  0  0  0  0  0
  198.2650  175.4940  138.1990 O   0  0  0  0  0  0  0  0  0  0  0  0
  197.4600  175.3960  140.3660 O   0  0  0  0  0  0  0  0  0  0  0  0
  198.3870  175.1590  139.5480 C   0  0  0  0  0  3  0  0  0  0  0  0
  189.8370  176.9890  145.2720 C   0  0  0  0  0  0  0  0  0  0  0  0
  191.2340  176.6060  146.9330 C   0  0  0  0  0  0  0  0  0  0  0  0
  191.0780  176.5750  145.4910 C   0  0  0  0  0  3  0  0  0  0  0  0
  192.4300  176.2470  147.6100 N   0  0  0  0  0  1  0  0  0  0  0  0
  190.1840  177.0230  147.5530 N   0  0  0  0  0  0  0  0  0  0  0  0
  189.1600  177.3170  146.5630 C   0  0  0  0  0  2  0  0  0  0  0  0
  185.9670  178.3630  142.5250 N   0  0  0  0  0  2  0  0  0  0  0  0
  185.5570  179.4710  141.6760 C   0  0  0  0  0  2  0  0  0  0  0  0
  184.5280  178.9850  139.4130 C   0  0  0  0  0  0  0  0  0  0  0  0
  184.4390  179.0670  140.8380 N   0  0  0  0  0  2  0  0  0  0  0  0
  185.5950  179.3000  138.8220 O   0  0  0  0  0  0  0  0  0  0  0  0
  182.8940  177.1410  138.9380 C   0  0  2  0  0  3  0  0  0  0  0  0
  182.8320  177.5410  136.3160 C   0  0  0  0  0  2  0  0  0  0  0  0
  183.3400  178.5670  138.5980 C   0  0  2  0  0  3  0  0  0  0  0  0
  180.9600  175.9490  135.6940 C   0  0  0  0  0  2  0  0  0  0  0  0
  180.7560  177.1180  140.2270 C   0  0  0  0  0  2  0  0  0  0  0  0
  183.6240  177.4230  137.6220 C   0  0  1  0  0  0  0  0  0  0  0  0
  180.2040  176.2860  136.9830 C   0  0  0  0  0  2  0  0  0  0  0  0
  180.1880  173.7060  139.0410 C   0  0  0  0  0  1  0  0  0  0  0  0
  180.9370  175.8550  138.1680 N   0  0  2  0  0  0  0  0  0  0  0  0
  182.4720  176.1540  135.7890 C   0  0  0  0  0  2  0  0  0  0  0  0
  179.9820  175.2070  139.0610 C   0  0  2  0  0  3  0  0  0  0  0  0
  180.2220  175.7350  140.4540 C   0  0  0  0  0  2  0  0  0  0  0  0
  181.3700  177.0820  138.8390 C   0  0  2  0  0  3  0  0  0  0  0  0
  185.7500  177.3020  136.2620 C   0  0  0  0  0  1  0  0  0  0  0  0
  185.0620  176.8960  137.5540 C   0  0  0  0  0  2  0  0  0  0  0  0
  1  4  1  0  0  0  0
  2  5  2  0  0  0  0
  3  9  1  0  0  0  0
  4  8  2  0  0  0  0
  5  8  1  0  0  0  0
  6  3  2  0  0  0  0
  6  7  1  0  0  0  0
  7  1  1  0  0  0  0
  8 31  1  0  0  0  0
  9  1  2  0  0  0  0
  9  2  1  0  0  0  0
 11 10  1  0  0  0  0
 11  7  1  0  0  0  0
 12 14  1  0  0  0  0
 13 11  1  0  0  0  0
 14 10  1  0  0  0  0
 15 12  1  0  0  0  0
 15 13  1  0  0  0  0
 16 12  1  0  0  0  0
 17 16  1  0  0  0  0
 18 17  2  0  0  0  0
 20 26  1  1  0  0  0
 20 21  1  0  0  0  0
 21 19  1  6  0  0  0
 22 21  1  0  0  0  0
 23 24  1  0  0  0  0
 23 25  1  0  0  0  0
 23 17  1  1  0  0  0
 24 22  1  0  0  0  0
 25 20  1  0  0  0  0
 26 27  1  1  0  0  0
 26 28  1  0  0  0  0
 28 30  1  0  0  0  0
 30 29  2  0  0  0  0
 31 33  2  0  0  0  0
 31 36  1  0  0  0  0
 32 35  2  0  0  0  0
 32 34  1  0  0  0  0
 33 32  1  0  0  0  0
 36 35  1  0  0  0  0
 37  2  1  0  0  0  0
 38 37  1  0  0  0  0
 39 40  1  0  0  0  0
 40 38  1  0  0  0  0
 41 39  2  0  0  0  0
 43 47  1  0  0  0  0
 44 42  1  0  0  0  0
 44 39  1  0  0  0  0
 45 51  1  0  0  0  0
 45 48  1  0  0  0  0
 46 53  1  0  0  0  0
 47 44  1  0  0  0  0
 47 42  1  0  0  0  0
 48 50  1  0  0  0  0
 49 52  1  0  0  0  0
 50 54  1  0  0  0  0
 50 52  1  0  0  0  0
 51 43  1  0  0  0  0
 52 53  1  0  0  0  0
 54 42  1  0  0  0  0
 54 46  1  0  0  0  0
 55 56  1  0  0  0  0
 56 47  1  0  0  0  0
M  END
>  <MODEL>
4

>  <REMARK>
 VINA RESULT:      -7.8      2.248      8.109
  Name = 
  12 active torsions:
  status: ('A' for Active; 'I' for Inactive)
    1  A    between atoms: N_3  and  C_32
    2  A    between atoms: C_4  and  C_26
    3  A    between atoms: C_5  and  C_22
    4  A    between atoms: N_8  and  C_46
    5  A    between atoms: C_9  and  S_21
    6  A    between atoms: C_11  and  C_42
    7  A    between atoms: C_13  and  N_17
    8  A    between atoms: N_17  and  C_46
    9  A    between atoms: C_18  and  O_56
   10  A    between atoms: S_21  and  O_56
   11  A    between atoms: C_29  and  N_39
   12  A    between atoms: C_31  and  C_40
                            x       y       z     vdW  Elec       q    Type
                         _______ _______ _______ _____ _____    ______ ____

>  <TORSDO>
F 12

$$$$
=
 OpenBabel10232412193D

 56 63  0  0  1  0  0  0  0  0999 V2000
  189.2780  177.1790  141.5640 C   0  0  0  0  0  0  0  0  0  0  0  0
  187.2440  177.9080  142.6420 C   0  0  0  0  0  0  0  0  0  0  0  0
  187.6050  177.7950  140.1310 N   0  0  0  0  0  0  0  0  0  0  0  0
  189.9130  176.9600  142.7860 C   0  0  0  0  0  3  0  0  0  0  0  0
  187.8590  177.6840  143.8850 C   0  0  0  0  0  3  0  0  0  0  0  0
  188.7600  177.4040  139.3110 C   0  0  0  0  0  3  0  0  0  0  0  0
  189.8140  177.0270  140.2600 N   0  0  0  0  0  0  0  0  0  0  0  0
  189.1880  177.2130  143.9690 C   0  0  0  0  0  0  0  0  0  0  0  0
  187.9990  177.6440  141.4870 C   0  0  0  0  0  0  0  0  0  0  0  0
  192.1820  177.5410  139.8810 C   0  0  0  0  0  2  0  0  0  0  0  0
  191.1120  176.4370  139.9320 C   0  0  2  0  0  3  0  0  0  0  0  0
  192.8930  176.9000  137.5330 C   0  0  2  0  0  3  0  0  0  0  0  0
  191.0360  175.6110  138.6320 C   0  0  0  0  0  2  0  0  0  0  0  0
  193.3510  177.1480  138.9790 C   0  0  0  0  0  2  0  0  0  0  0  0
  191.4330  176.4500  137.4210 C   0  0  0  0  0  2  0  0  0  0  0  0
  193.7500  175.9020  136.9110 N   0  0  0  0  0  2  0  0  0  0  0  0
  194.5180  176.1630  135.7360 C   0  0  0  0  0  0  0  0  0  0  0  0
  194.4590  177.2910  135.1740 O   0  0  0  0  0  0  0  0  0  0  0  0
  196.5280  172.2900  138.0810 O   0  0  0  0  0  1  0  0  0  0  0  0
  197.1830  173.8250  136.3470 C   0  0  1  0  0  3  0  0  0  0  0  0
  196.1120  173.4130  137.3680 C   0  0  1  0  0  3  0  0  0  0  0  0
  194.7510  173.1210  136.7220 C   0  0  0  0  0  2  0  0  0  0  0  0
  195.2790  175.0330  135.1110 C   0  0  2  0  0  3  0  0  0  0  0  0
  194.6080  173.6660  135.2960 C   0  0  0  0  0  2  0  0  0  0  0  0
  196.7420  175.0640  135.5670 C   0  0  0  0  0  2  0  0  0  0  0  0
  198.7680  174.1950  137.1400 S   0  0  2  0  0  3  0  0  0  0  0  0
  199.0490  172.9690  137.9970 O   0  0  0  0  0  1  0  0  0  0  0  0
  198.4060  175.4250  138.3010 O   0  0  0  0  0  0  0  0  0  0  0  0
  197.1630  175.5060  140.2500 O   0  0  0  0  0  0  0  0  0  0  0  0
  198.2040  175.1320  139.6490 C   0  0  0  0  0  3  0  0  0  0  0  0
  189.8150  177.0400  145.2910 C   0  0  0  0  0  0  0  0  0  0  0  0
  191.2200  176.6060  146.9310 C   0  0  0  0  0  0  0  0  0  0  0  0
  191.0250  176.5390  145.4960 C   0  0  0  0  0  3  0  0  0  0  0  0
  192.4020  176.1780  147.5930 N   0  0  0  0  0  1  0  0  0  0  0  0
  190.2210  177.1240  147.5600 N   0  0  0  0  0  0  0  0  0  0  0  0
  189.1980  177.4630  146.5850 C   0  0  0  0  0  2  0  0  0  0  0  0
  185.9000  178.4050  142.6040 N   0  0  0  0  0  2  0  0  0  0  0  0
  185.4340  179.4020  141.6520 C   0  0  0  0  0  2  0  0  0  0  0  0
  183.1340  178.5710  140.9930 C   0  0  0  0  0  0  0  0  0  0  0  0
  184.5170  178.7930  140.7020 N   0  0  0  0  0  2  0  0  0  0  0  0
  182.6640  178.8720  142.1220 O   0  0  0  0  0  0  0  0  0  0  0  0
  182.9600  177.7040  138.6450 C   0  0  2  0  0  3  0  0  0  0  0  0
  180.5070  178.6260  138.2270 C   0  0  0  0  0  2  0  0  0  0  0  0
  182.2350  177.9340  139.9760 C   0  0  2  0  0  3  0  0  0  0  0  0
  180.0330  177.5530  135.9800 C   0  0  0  0  0  2  0  0  0  0  0  0
  183.4440  175.2860  138.2570 C   0  0  0  0  0  2  0  0  0  0  0  0
  181.9260  178.8260  138.7710 C   0  0  1  0  0  0  0  0  0  0  0  0
  180.7910  176.2860  136.3910 C   0  0  0  0  0  2  0  0  0  0  0  0
  183.5930  175.9880  134.6710 C   0  0  0  0  0  1  0  0  0  0  0  0
  182.2110  176.5500  136.5990 N   0  0  2  0  0  0  0  0  0  0  0  0
  180.4900  178.8150  136.7130 C   0  0  0  0  0  2  0  0  0  0  0  0
  182.9550  175.4770  135.9470 C   0  0  2  0  0  3  0  0  0  0  0  0
  184.0270  175.0140  136.9020 C   0  0  0  0  0  2  0  0  0  0  0  0
  182.4380  176.4020  138.0370 C   0  0  2  0  0  3  0  0  0  0  0  0
  181.4160  181.3000  138.8290 C   0  0  0  0  0  1  0  0  0  0  0  0
  182.5070  180.2440  138.7770 C   0  0  0  0  0  2  0  0  0  0  0  0
  1  4  1  0  0  0  0
  2  5  2  0  0  0  0
  3  9  1  0  0  0  0
  4  8  2  0  0  0  0
  5  8  1  0  0  0  0
  6  3  2  0  0  0  0
  6  7  1  0  0  0  0
  7  1  1  0  0  0  0
  8 31  1  0  0  0  0
  9  1  2  0  0  0  0
  9  2  1  0  0  0  0
 10 11  1  0  0  0  0
 11  7  1  0  0  0  0
 12 14  1  0  0  0  0
 13 11  1  0  0  0  0
 14 10  1  0  0  0  0
 15 12  1  0  0  0  0
 15 13  1  0  0  0  0
 16 12  1  0  0  0  0
 17 16  1  0  0  0  0
 18 17  2  0  0  0  0
 20 26  1  1  0  0  0
 20 21  1  0  0  0  0
 21 19  1  6  0  0  0
 22 21  1  0  0  0  0
 23 24  1  0  0  0  0
 23 25  1  0  0  0  0
 23 17  1  1  0  0  0
 24 22  1  0  0  0  0
 25 20  1  0  0  0  0
 26 27  1  1  0  0  0
 26 28  1  0  0  0  0
 28 30  1  0  0  0  0
 30 29  2  0  0  0  0
 31 33  2  0  0  0  0
 31 36  1  0  0  0  0
 32 35  2  0  0  0  0
 32 34  1  0  0  0  0
 33 32  1  0  0  0  0
 36 35  1  0  0  0  0
 37  2  1  0  0  0  0
 38 37  1  0  0  0  0
 39 41  2  0  0  0  0
 40 39  1  0  0  0  0
 40 38  1  0  0  0  0
 42 47  1  0  0  0  0
 42 44  1  0  0  0  0
 43 47  1  0  0  0  0
 44 39  1  0  0  0  0
 45 48  1  0  0  0  0
 45 51  1  0  0  0  0
 47 56  1  0  0  0  0
 47 44  1  0  0  0  0
 48 50  1  0  0  0  0
 49 52  1  0  0  0  0
 50 54  1  0  0  0  0
 51 43  1  0  0  0  0
 52 50  1  0  0  0  0
 52 53  1  0  0  0  0
 53 46  1  0  0  0  0
 54 46  1  0  0  0  0
 54 42  1  0  0  0  0
 56 55  1  0  0  0  0
M  END
>  <MODEL>
5

>  <REMARK>
 VINA RESULT:      -7.5      2.142      8.076
  Name = 
  12 active torsions:
  status: ('A' for Active; 'I' for Inactive)
    1  A    between atoms: N_3  and  C_32
    2  A    between atoms: C_4  and  C_26
    3  A    between atoms: C_5  and  C_22
    4  A    between atoms: N_8  and  C_46
    5  A    between atoms: C_9  and  S_21
    6  A    between atoms: C_11  and  C_42
    7  A    between atoms: C_13  and  N_17
    8  A    between atoms: N_17  and  C_46
    9  A    between atoms: C_18  and  O_56
   10  A    between atoms: S_21  and  O_56
   11  A    between atoms: C_29  and  N_39
   12  A    between atoms: C_31  and  C_40
                            x       y       z     vdW  Elec       q    Type
                         _______ _______ _______ _____ _____    ______ ____

>  <TORSDO>
F 12

$$$$
=
 OpenBabel10232412193D

 56 63  0  0  1  0  0  0  0  0999 V2000
  190.3180  176.5540  137.8010 C   0  0  0  0  0  0  0  0  0  0  0  0
  188.4310  177.7730  138.6870 C   0  0  0  0  0  0  0  0  0  0  0  0
  190.8230  177.9800  139.5170 N   0  0  0  0  0  0  0  0  0  0  0  0
  189.5200  175.8800  136.8780 C   0  0  0  0  0  3  0  0  0  0  0  0
  187.6090  177.1140  137.7580 C   0  0  0  0  0  3  0  0  0  0  0  0
  192.0720  177.3160  139.1200 C   0  0  0  0  0  3  0  0  0  0  0  0
  191.7090  176.4040  138.0290 N   0  0  0  0  0  0  0  0  0  0  0  0
  188.1400  176.1690  136.8530 C   0  0  0  0  0  0  0  0  0  0  0  0
  189.8000  177.4570  138.6810 C   0  0  0  0  0  0  0  0  0  0  0  0
  192.2910  175.8100  135.7210 C   0  0  0  0  0  2  0  0  0  0  0  0
  192.6310  175.6170  137.2080 C   0  0  2  0  0  3  0  0  0  0  0  0
  192.0640  173.3140  135.3330 C   0  0  2  0  0  3  0  0  0  0  0  0
  192.6350  174.1370  137.6390 C   0  0  0  0  0  2  0  0  0  0  0  0
  192.7450  174.6170  134.8820 C   0  0  0  0  0  2  0  0  0  0  0  0
  191.6510  173.3180  136.8090 C   0  0  0  0  0  2  0  0  0  0  0  0
  192.9490  172.1870  135.0870 N   0  0  0  0  0  2  0  0  0  0  0  0
  192.4710  170.8820  134.7580 C   0  0  0  0  0  0  0  0  0  0  0  0
  191.2310  170.6560  134.6900 O   0  0  0  0  0  0  0  0  0  0  0  0
  194.4250  168.2380  138.4640 O   0  0  0  0  0  1  0  0  0  0  0  0
  195.2200  169.2990  136.4550 C   0  0  1  0  0  3  0  0  0  0  0  0
  194.0270  169.0240  137.3830 C   0  0  1  0  0  3  0  0  0  0  0  0
  192.8590  168.3340  136.6660 C   0  0  0  0  0  2  0  0  0  0  0  0
  193.4620  169.7650  134.6370 C   0  0  2  0  0  3  0  0  0  0  0  0
  192.9300  168.4160  135.1370 C   0  0  0  0  0  2  0  0  0  0  0  0
  194.7970  170.1710  135.2720 C   0  0  0  0  0  2  0  0  0  0  0  0
  196.5690  170.1410  137.3200 S   0  0  2  0  0  3  0  0  0  0  0  0
  196.0510  171.5570  137.5260 O   0  0  0  0  0  1  0  0  0  0  0  0
  197.8080  170.3340  136.1270 O   0  0  0  0  0  0  0  0  0  0  0  0
  199.8980  171.3070  136.3150 O   0  0  0  0  0  0  0  0  0  0  0  0
  199.1620  170.2950  136.4580 C   0  0  0  0  0  3  0  0  0  0  0  0
  187.2360  175.4620  135.9290 C   0  0  0  0  0  0  0  0  0  0  0  0
  186.1370  173.9200  134.8040 C   0  0  0  0  0  0  0  0  0  0  0  0
  187.1940  174.1470  135.7690 C   0  0  0  0  0  2  0  0  0  0  0  0
  185.7400  172.6340  134.3460 N   0  0  0  0  0  1  0  0  0  0  0  0
  185.5590  175.0030  134.4120 N   0  0  0  0  0  0  0  0  0  0  0  0
  186.1950  176.1240  135.0850 C   0  0  0  0  0  3  0  0  0  0  0  0
  187.8470  178.7100  139.6010 N   0  0  0  0  0  2  0  0  0  0  0  0
  186.8200  178.3610  140.5710 C   0  0  0  0  0  2  0  0  0  0  0  0
  188.2460  177.8750  142.6060 C   0  0  0  0  0  0  0  0  0  0  0  0
  187.2790  178.6710  141.9160 N   0  0  0  0  0  2  0  0  0  0  0  0
  188.7170  176.8370  142.0710 O   0  0  0  0  0  0  0  0  0  0  0  0
  189.1300  177.0080  144.7880 C   0  0  2  0  0  3  0  0  0  0  0  0
  187.6470  178.6040  146.3030 C   0  0  0  0  0  2  0  0  0  0  0  0
  188.6790  178.2400  143.9960 C   0  0  2  0  0  3  0  0  0  0  0  0
  188.6530  178.0830  148.5700 C   0  0  0  0  0  2  0  0  0  0  0  0
  191.6060  176.9650  145.1080 C   0  0  0  0  0  2  0  0  0  0  0  0
  187.7830  177.6680  145.0980 C   0  0  1  0  0  0  0  0  0  0  0  0
  190.0520  177.9610  147.9560 C   0  0  0  0  0  2  0  0  0  0  0  0
  191.0960  174.8310  148.0340 C   0  0  0  0  0  1  0  0  0  0  0  0
  190.1390  176.8360  147.0320 N   0  0  2  0  0  0  0  0  0  0  0  0
  187.5170  177.7930  147.5900 C   0  0  0  0  0  2  0  0  0  0  0  0
  191.3860  176.1330  147.3150 C   0  0  2  0  0  3  0  0  0  0  0  0
  192.0640  175.8480  145.9970 C   0  0  0  0  0  2  0  0  0  0  0  0
  190.2850  177.4250  145.6990 C   0  0  2  0  0  3  0  0  0  0  0  0
  185.3090  177.7330  144.5930 C   0  0  0  0  0  1  0  0  0  0  0  0
  186.5540  176.8640  144.6600 C   0  0  0  0  0  2  0  0  0  0  0  0
  1  7  1  0  0  0  0
  1  9  1  0  0  0  0
  2 37  1  0  0  0  0
  4  1  2  0  0  0  0
  5  2  1  0  0  0  0
  6  3  2  0  0  0  0
  7  6  1  0  0  0  0
  8  4  1  0  0  0  0
  8  5  2  0  0  0  0
  9  2  2  0  0  0  0
  9  3  1  0  0  0  0
 10 11  1  0  0  0  0
 11 13  1  0  0  0  0
 11  7  1  0  0  0  0
 12 15  1  0  0  0  0
 14 12  1  0  0  0  0
 14 10  1  0  0  0  0
 15 13  1  0  0  0  0
 16 12  1  0  0  0  0
 17 16  1  0  0  0  0
 18 17  2  0  0  0  0
 20 26  1  1  0  0  0
 20 21  1  0  0  0  0
 21 19  1  1  0  0  0
 22 21  1  0  0  0  0
 23 17  1  1  0  0  0
 23 24  1  0  0  0  0
 23 25  1  0  0  0  0
 24 22  1  0  0  0  0
 25 20  1  0  0  0  0
 26 27  1  6  0  0  0
 28 30  1  0  0  0  0
 28 26  1  0  0  0  0
 29 30  2  0  0  0  0
 31  8  1  0  0  0  0
 32 33  1  0  0  0  0
 33 31  1  0  0  0  0
 34 32  1  0  0  0  0
 35 32  2  0  0  0  0
 35 36  1  0  0  0  0
 36 31  2  0  0  0  0
 37 38  1  0  0  0  0
 38 40  1  0  0  0  0
 39 44  1  0  0  0  0
 40 39  1  0  0  0  0
 41 39  2  0  0  0  0
 42 47  1  0  0  0  0
 42 54  1  0  0  0  0
 43 51  1  0  0  0  0
 44 42  1  0  0  0  0
 44 47  1  0  0  0  0
 46 54  1  0  0  0  0
 46 53  1  0  0  0  0
 47 43  1  0  0  0  0
 48 45  1  0  0  0  0
 50 52  1  0  0  0  0
 50 48  1  0  0  0  0
 51 45  1  0  0  0  0
 52 49  1  0  0  0  0
 53 52  1  0  0  0  0
 54 50  1  0  0  0  0
 55 56  1  0  0  0  0
 56 47  1  0  0  0  0
M  END
>  <MODEL>
6

>  <REMARK>
 VINA RESULT:      -6.7      2.295      3.051
  Name = 
  12 active torsions:
  status: ('A' for Active; 'I' for Inactive)
    1  A    between atoms: N_3  and  C_32
    2  A    between atoms: C_4  and  C_26
    3  A    between atoms: C_5  and  C_22
    4  A    between atoms: N_8  and  C_46
    5  A    between atoms: C_9  and  S_21
    6  A    between atoms: C_11  and  C_42
    7  A    between atoms: C_13  and  N_17
    8  A    between atoms: N_17  and  C_46
    9  A    between atoms: C_18  and  O_56
   10  A    between atoms: S_21  and  O_56
   11  A    between atoms: C_29  and  N_39
   12  A    between atoms: C_31  and  C_40
                            x       y       z     vdW  Elec       q    Type
                         _______ _______ _______ _____ _____    ______ ____

>  <TORSDO>
F 12

$$$$
=
 OpenBabel10232412193D

 56 63  0  0  1  0  0  0  0  0999 V2000
  187.8360  177.0640  137.1300 C   0  0  0  0  0  0  0  0  0  0  0  0
  185.7470  177.9630  137.9400 C   0  0  0  0  0  0  0  0  0  0  0  0
  188.0030  179.1140  138.1310 N   0  0  0  0  0  0  0  0  0  0  0  0
  187.2220  175.8990  136.6710 C   0  0  0  0  0  3  0  0  0  0  0  0
  185.1040  176.8030  137.4760 C   0  0  0  0  0  3  0  0  0  0  0  0
  189.3570  178.7170  137.7220 C   0  0  0  0  0  3  0  0  0  0  0  0
  189.2140  177.3970  137.0960 N   0  0  0  0  0  0  0  0  0  0  0  0
  185.8280  175.7690  136.8440 C   0  0  0  0  0  0  0  0  0  0  0  0
  187.1360  178.0550  137.7490 C   0  0  0  0  0  0  0  0  0  0  0  0
  189.6190  175.6560  135.4160 C   0  0  0  0  0  2  0  0  0  0  0  0
  190.2610  176.6420  136.4070 C   0  0  2  0  0  3  0  0  0  0  0  0
  190.8330  173.6730  136.4280 C   0  0  2  0  0  3  0  0  0  0  0  0
  191.2060  175.9540  137.4130 C   0  0  0  0  0  2  0  0  0  0  0  0
  190.5300  174.4610  135.1430 C   0  0  0  0  0  2  0  0  0  0  0  0
  190.7610  174.5240  137.7000 C   0  0  0  0  0  2  0  0  0  0  0  0
  192.1500  173.0650  136.3330 N   0  0  0  0  0  2  0  0  0  0  0  0
  193.2310  173.6650  135.6180 C   0  0  0  0  0  0  0  0  0  0  0  0
  193.0660  174.7600  135.0130 O   0  0  0  0  0  0  0  0  0  0  0  0
  197.4650  174.5420  138.0350 O   0  0  0  0  0  1  0  0  0  0  0  0
  196.8070  174.0280  135.7790 C   0  0  1  0  0  3  0  0  0  0  0  0
  196.3580  174.3180  137.2180 C   0  0  1  0  0  3  0  0  0  0  0  0
  195.5130  173.1870  137.8200 C   0  0  0  0  0  2  0  0  0  0  0  0
  194.5140  172.9020  135.4860 C   0  0  2  0  0  3  0  0  0  0  0  0
  194.9520  172.2090  136.7820 C   0  0  0  0  0  2  0  0  0  0  0  0
  195.5990  173.7930  134.8700 C   0  0  0  0  0  2  0  0  0  0  0  0
  197.7740  175.3920  135.0840 S   0  0  2  0  0  3  0  0  0  0  0  0
  199.1370  175.2540  135.7450 O   0  0  0  0  0  1  0  0  0  0  0  0
  197.1150  176.8180  135.8090 O   0  0  0  0  0  0  0  0  0  0  0  0
  195.2290  177.3300  134.5710 O   0  0  0  0  0  0  0  0  0  0  0  0
  196.3110  177.7050  135.0940 C   0  0  0  0  0  3  0  0  0  0  0  0
  185.1250  174.5460  136.4190 C   0  0  0  0  0  0  0  0  0  0  0  0
  184.3130  172.5020  136.2930 C   0  0  0  0  0  0  0  0  0  0  0  0
  185.1910  173.3780  137.0440 C   0  0  0  0  0  2  0  0  0  0  0  0
  184.0740  171.1420  136.6260 N   0  0  0  0  0  1  0  0  0  0  0  0
  183.7380  173.0830  135.2970 N   0  0  0  0  0  0  0  0  0  0  0  0
  184.1910  174.4640  135.2560 C   0  0  0  0  0  3  0  0  0  0  0  0
  184.9760  178.9790  138.5940 N   0  0  0  0  0  2  0  0  0  0  0  0
  184.5670  178.9130  139.9880 C   0  0  0  0  0  2  0  0  0  0  0  0
  185.6930  179.1610  142.2430 C   0  0  0  0  0  0  0  0  0  0  0  0
  185.7390  178.8520  140.8480 N   0  0  0  0  0  2  0  0  0  0  0  0
  184.6160  179.5380  142.7780 O   0  0  0  0  0  0  0  0  0  0  0  0
  187.6130  177.7170  142.9660 C   0  0  2  0  0  3  0  0  0  0  0  0
  187.6090  178.5490  145.4850 C   0  0  0  0  0  2  0  0  0  0  0  0
  186.9350  179.0860  143.0810 C   0  0  2  0  0  3  0  0  0  0  0  0
  189.7220  177.4140  146.3040 C   0  0  0  0  0  2  0  0  0  0  0  0
  189.7230  177.8350  141.6370 C   0  0  0  0  0  2  0  0  0  0  0  0
  186.8470  178.0870  144.2380 C   0  0  1  0  0  0  0  0  0  0  0  0
  190.4100  177.6530  144.9570 C   0  0  0  0  0  2  0  0  0  0  0  0
  190.8570  174.8070  143.3470 C   0  0  0  0  0  1  0  0  0  0  0  0
  189.7590  176.9170  143.8790 N   0  0  2  0  0  0  0  0  0  0  0  0
  188.1970  177.3470  146.2200 C   0  0  0  0  0  2  0  0  0  0  0  0
  190.8080  176.2970  143.0760 C   0  0  2  0  0  3  0  0  0  0  0  0
  190.4820  176.5410  141.6240 C   0  0  0  0  0  2  0  0  0  0  0  0
  189.1260  177.9270  143.0300 C   0  0  2  0  0  3  0  0  0  0  0  0
  184.6990  177.9500  145.5620 C   0  0  0  0  0  1  0  0  0  0  0  0
  185.5180  177.3490  144.4320 C   0  0  0  0  0  2  0  0  0  0  0  0
  1  9  1  0  0  0  0
  2 37  1  0  0  0  0
  4  8  1  0  0  0  0
  4  1  2  0  0  0  0
  5  2  1  0  0  0  0
  6  3  2  0  0  0  0
  7  1  1  0  0  0  0
  7  6  1  0  0  0  0
  8  5  2  0  0  0  0
  9  2  2  0  0  0  0
  9  3  1  0  0  0  0
 10 11  1  0  0  0  0
 11  7  1  0  0  0  0
 11 13  1  0  0  0  0
 12 15  1  0  0  0  0
 13 15  1  0  0  0  0
 14 10  1  0  0  0  0
 14 12  1  0  0  0  0
 16 12  1  0  0  0  0
 17 16  1  0  0  0  0
 18 17  2  0  0  0  0
 20 26  1  6  0  0  0
 20 21  1  0  0  0  0
 21 22  1  0  0  0  0
 21 19  1  1  0  0  0
 23 17  1  1  0  0  0
 23 24  1  0  0  0  0
 24 22  1  0  0  0  0
 25 23  1  0  0  0  0
 25 20  1  0  0  0  0
 26 27  1  1  0  0  0
 26 28  1  0  0  0  0
 29 30  2  0  0  0  0
 30 28  1  0  0  0  0
 31  8  1  0  0  0  0
 31 33  1  0  0  0  0
 32 34  1  0  0  0  0
 32 33  1  0  0  0  0
 35 32  2  0  0  0  0
 36 35  1  0  0  0  0
 36 31  2  0  0  0  0
 37 38  1  0  0  0  0
 38 40  1  0  0  0  0
 39 41  2  0  0  0  0
 39 44  1  0  0  0  0
 40 39  1  0  0  0  0
 42 54  1  0  0  0  0
 42 44  1  0  0  0  0
 42 47  1  0  0  0  0
 43 51  1  0  0  0  0
 44 47  1  0  0  0  0
 46 54  1  0  0  0  0
 47 56  1  0  0  0  0
 47 43  1  0  0  0  0
 48 45  1  0  0  0  0
 50 48  1  0  0  0  0
 51 45  1  0  0  0  0
 52 49  1  0  0  0  0
 52 50  1  0  0  0  0
 53 46  1  0  0  0  0
 53 52  1  0  0  0  0
 54 50  1  0  0  0  0
 56 55  1  0  0  0  0
M  END
>  <MODEL>
7

>  <REMARK>
 VINA RESULT:      -6.7      2.156      2.715
  Name = 
  12 active torsions:
  status: ('A' for Active; 'I' for Inactive)
    1  A    between atoms: N_3  and  C_32
    2  A    between atoms: C_4  and  C_26
    3  A    between atoms: C_5  and  C_22
    4  A    between atoms: N_8  and  C_46
    5  A    between atoms: C_9  and  S_21
    6  A    between atoms: C_11  and  C_42
    7  A    between atoms: C_13  and  N_17
    8  A    between atoms: N_17  and  C_46
    9  A    between atoms: C_18  and  O_56
   10  A    between atoms: S_21  and  O_56
   11  A    between atoms: C_29  and  N_39
   12  A    between atoms: C_31  and  C_40
                            x       y       z     vdW  Elec       q    Type
                         _______ _______ _______ _____ _____    ______ ____

>  <TORSDO>
F 12

$$$$
=
 OpenBabel10232412193D

 56 63  0  0  1  0  0  0  0  0999 V2000
  191.0410  176.5620  138.6710 C   0  0  0  0  0  0  0  0  0  0  0  0
  189.2190  178.1180  138.3710 C   0  0  0  0  0  0  0  0  0  0  0  0
  190.5720  177.0750  136.4910 N   0  0  0  0  0  0  0  0  0  0  0  0
  190.9260  176.6090  140.0590 C   0  0  0  0  0  3  0  0  0  0  0  0
  189.0780  178.1730  139.7680 C   0  0  0  0  0  3  0  0  0  0  0  0
  191.7070  176.1420  136.4850 C   0  0  0  0  0  3  0  0  0  0  0  0
  191.9860  175.8450  137.8950 N   0  0  0  0  0  0  0  0  0  0  0  0
  189.9220  177.4260  140.6180 C   0  0  0  0  0  0  0  0  0  0  0  0
  190.2310  177.2920  137.8530 C   0  0  0  0  0  0  0  0  0  0  0  0
  194.2360  175.5710  138.8340 C   0  0  0  0  0  2  0  0  0  0  0  0
  192.9410  174.8600  138.4040 C   0  0  2  0  0  3  0  0  0  0  0  0
  195.6720  174.0930  137.3560 C   0  0  2  0  0  3  0  0  0  0  0  0
  193.1840  173.7350  137.3780 C   0  0  0  0  0  2  0  0  0  0  0  0
  195.4380  174.6300  138.7770 C   0  0  0  0  0  2  0  0  0  0  0  0
  194.3980  174.0370  136.5050 C   0  0  0  0  0  2  0  0  0  0  0  0
  196.2600  172.7650  137.4230 N   0  0  0  0  0  2  0  0  0  0  0  0
  197.1740  172.2710  136.4430 C   0  0  0  0  0  0  0  0  0  0  0  0
  197.4910  172.9820  135.4510 O   0  0  0  0  0  0  0  0  0  0  0  0
  194.9550  168.2920  134.4970 O   0  0  0  0  0  1  0  0  0  0  0  0
  195.9780  168.8810  136.5940 C   0  0  1  0  0  3  0  0  0  0  0  0
  195.5610  169.3400  135.1890 C   0  0  1  0  0  3  0  0  0  0  0  0
  196.7380  169.8720  134.3600 C   0  0  0  0  0  2  0  0  0  0  0  0
  197.6340  170.8480  136.5450 C   0  0  2  0  0  3  0  0  0  0  0  0
  197.9800  170.2170  135.1910 C   0  0  0  0  0  2  0  0  0  0  0  0
  196.6340  170.0260  137.3670 C   0  0  0  0  0  2  0  0  0  0  0  0
  194.5660  168.2890  137.5590 S   0  0  2  0  0  3  0  0  0  0  0  0
  193.4390  169.2440  137.1930 O   0  0  0  0  0  1  0  0  0  0  0  0
  194.9380  168.7110  139.1950 O   0  0  0  0  0  0  0  0  0  0  0  0
  194.5430  168.3810  141.4500 O   0  0  0  0  0  0  0  0  0  0  0  0
  194.1330  168.3110  140.2620 C   0  0  0  0  0  3  0  0  0  0  0  0
  189.7760  177.5510  142.0790 C   0  0  0  0  0  0  0  0  0  0  0  0
  189.0880  177.3720  144.1640 C   0  0  0  0  0  0  0  0  0  0  0  0
  188.7870  177.0260  142.7880 C   0  0  0  0  0  3  0  0  0  0  0  0
  188.2840  176.9940  145.2730 N   0  0  0  0  0  1  0  0  0  0  0  0
  190.1820  178.0400  144.2960 N   0  0  0  0  0  0  0  0  0  0  0  0
  190.7550  178.2370  142.9750 C   0  0  0  0  0  2  0  0  0  0  0  0
  188.3530  178.9080  137.5460 N   0  0  0  0  0  2  0  0  0  0  0  0
  187.4320  178.3450  136.5700 C   0  0  0  0  0  2  0  0  0  0  0  0
  185.3730  177.1800  137.4730 C   0  0  0  0  0  0  0  0  0  0  0  0
  186.0760  178.3660  137.0950 N   0  0  0  0  0  2  0  0  0  0  0  0
  185.9070  176.0480  137.3280 O   0  0  0  0  0  0  0  0  0  0  0  0
  183.3420  178.6310  137.7290 C   0  0  2  0  0  3  0  0  0  0  0  0
  182.7680  177.8150  140.1880 C   0  0  0  0  0  2  0  0  0  0  0  0
  183.9720  177.2610  138.0040 C   0  0  2  0  0  3  0  0  0  0  0  0
  180.5260  178.9570  140.4960 C   0  0  0  0  0  2  0  0  0  0  0  0
  181.5900  178.5060  135.9550 C   0  0  0  0  0  2  0  0  0  0  0  0
  183.7960  178.2670  139.1450 C   0  0  1  0  0  0  0  0  0  0  0  0
  180.1640  178.7100  139.0280 C   0  0  0  0  0  2  0  0  0  0  0  0
  180.1040  181.5470  137.3420 C   0  0  0  0  0  1  0  0  0  0  0  0
  181.0460  179.4390  138.1230 N   0  0  2  0  0  0  0  0  0  0  0  0
  182.0310  179.0220  140.7620 C   0  0  0  0  0  2  0  0  0  0  0  0
  180.2090  180.0540  137.0980 C   0  0  2  0  0  3  0  0  0  0  0  0
  180.8580  179.8010  135.7600 C   0  0  0  0  0  2  0  0  0  0  0  0
  181.8540  178.4220  137.4480 C   0  0  2  0  0  3  0  0  0  0  0  0
  185.5530  178.4450  140.9520 C   0  0  0  0  0  1  0  0  0  0  0  0
  185.0480  179.0050  139.6330 C   0  0  0  0  0  2  0  0  0  0  0  0
  1  4  1  0  0  0  0
  2  5  2  0  0  0  0
  3  9  1  0  0  0  0
  4  8  2  0  0  0  0
  5  8  1  0  0  0  0
  6  3  2  0  0  0  0
  6  7  1  0  0  0  0
  7 11  1  0  0  0  0
  7  1  1  0  0  0  0
  8 31  1  0  0  0  0
  9  2  1  0  0  0  0
  9  1  2  0  0  0  0
 11 10  1  0  0  0  0
 12 16  1  0  0  0  0
 12 14  1  0  0  0  0
 13 11  1  0  0  0  0
 14 10  1  0  0  0  0
 15 12  1  0  0  0  0
 15 13  1  0  0  0  0
 17 16  1  0  0  0  0
 18 17  2  0  0  0  0
 20 25  1  0  0  0  0
 20 26  1  1  0  0  0
 21 19  1  6  0  0  0
 21 20  1  0  0  0  0
 22 21  1  0  0  0  0
 22 24  1  0  0  0  0
 23 17  1  6  0  0  0
 23 25  1  0  0  0  0
 24 23  1  0  0  0  0
 26 27  1  6  0  0  0
 26 28  1  0  0  0  0
 28 30  1  0  0  0  0
 30 29  2  0  0  0  0
 31 33  2  0  0  0  0
 31 36  1  0  0  0  0
 32 35  2  0  0  0  0
 32 34  1  0  0  0  0
 33 32  1  0  0  0  0
 36 35  1  0  0  0  0
 37  2  1  0  0  0  0
 38 40  1  0  0  0  0
 38 37  1  0  0  0  0
 39 44  1  0  0  0  0
 40 39  1  0  0  0  0
 41 39  2  0  0  0  0
 42 44  1  0  0  0  0
 42 47  1  0  0  0  0
 43 51  1  0  0  0  0
 44 47  1  0  0  0  0
 45 51  1  0  0  0  0
 46 54  1  0  0  0  0
 47 56  1  0  0  0  0
 47 43  1  0  0  0  0
 48 45  1  0  0  0  0
 50 48  1  0  0  0  0
 52 49  1  0  0  0  0
 52 50  1  0  0  0  0
 53 46  1  0  0  0  0
 53 52  1  0  0  0  0
 54 42  1  0  0  0  0
 54 50  1  0  0  0  0
 56 55  1  0  0  0  0
M  END
>  <MODEL>
8

>  <REMARK>
 VINA RESULT:      -6.7      2.975      7.937
  Name = 
  12 active torsions:
  status: ('A' for Active; 'I' for Inactive)
    1  A    between atoms: N_3  and  C_32
    2  A    between atoms: C_4  and  C_26
    3  A    between atoms: C_5  and  C_22
    4  A    between atoms: N_8  and  C_46
    5  A    between atoms: C_9  and  S_21
    6  A    between atoms: C_11  and  C_42
    7  A    between atoms: C_13  and  N_17
    8  A    between atoms: N_17  and  C_46
    9  A    between atoms: C_18  and  O_56
   10  A    between atoms: S_21  and  O_56
   11  A    between atoms: C_29  and  N_39
   12  A    between atoms: C_31  and  C_40
                            x       y       z     vdW  Elec       q    Type
                         _______ _______ _______ _____ _____    ______ ____

>  <TORSDO>
F 12

$$$$
=
 OpenBabel10232412193D

 56 63  0  0  1  0  0  0  0  0999 V2000
  186.9230  178.0690  138.6990 C   0  0  0  0  0  0  0  0  0  0  0  0
  184.9810  178.4250  140.0880 C   0  0  0  0  0  0  0  0  0  0  0  0
  187.3650  179.0210  140.7320 N   0  0  0  0  0  0  0  0  0  0  0  0
  186.1600  177.5010  137.6800 C   0  0  0  0  0  3  0  0  0  0  0  0
  184.1890  177.8660  139.0710 C   0  0  0  0  0  3  0  0  0  0  0  0
  188.6490  178.8620  140.0370 C   0  0  0  0  0  3  0  0  0  0  0  0
  188.3300  178.2400  138.7460 N   0  0  0  0  0  0  0  0  0  0  0  0
  184.7660  177.4020  137.8680 C   0  0  0  0  0  0  0  0  0  0  0  0
  186.3650  178.5060  139.8630 C   0  0  0  0  0  0  0  0  0  0  0  0
  188.4750  177.5510  136.3960 C   0  0  0  0  0  2  0  0  0  0  0  0
  189.2590  178.0020  137.6400 C   0  0  2  0  0  3  0  0  0  0  0  0
  189.8660  175.4460  136.1440 C   0  0  2  0  0  3  0  0  0  0  0  0
  190.3670  177.0090  138.0480 C   0  0  0  0  0  2  0  0  0  0  0  0
  189.3450  176.7190  135.4560 C   0  0  0  0  0  2  0  0  0  0  0  0
  189.9940  175.5800  137.6650 C   0  0  0  0  0  2  0  0  0  0  0  0
  191.1580  175.0800  135.5860 N   0  0  0  0  0  2  0  0  0  0  0  0
  191.5940  173.7250  135.4600 C   0  0  0  0  0  0  0  0  0  0  0  0
  190.8600  172.7800  135.8600 O   0  0  0  0  0  0  0  0  0  0  0  0
  195.8030  174.7230  137.8740 O   0  0  0  0  0  1  0  0  0  0  0  0
  194.9640  174.9730  135.6330 C   0  0  1  0  0  3  0  0  0  0  0  0
  194.6740  174.5390  137.0770 C   0  0  1  0  0  3  0  0  0  0  0  0
  194.2190  173.0770  137.1830 C   0  0  0  0  0  2  0  0  0  0  0  0
  192.9880  173.4630  134.9780 C   0  0  2  0  0  3  0  0  0  0  0  0
  193.7630  172.4690  135.8520 C   0  0  0  0  0  2  0  0  0  0  0  0
  193.7280  174.7860  134.7520 C   0  0  0  0  0  2  0  0  0  0  0  0
  195.4660  176.7090  135.5350 S   0  0  2  0  0  3  0  0  0  0  0  0
  194.6840  177.2560  134.3510 O   0  0  0  0  0  1  0  0  0  0  0  0
  197.0970  176.6670  134.9580 O   0  0  0  0  0  0  0  0  0  0  0  0
  198.7120  175.3610  135.9750 O   0  0  0  0  0  0  0  0  0  0  0  0
  197.8810  175.5170  135.0430 C   0  0  0  0  0  3  0  0  0  0  0  0
  183.9080  176.7740  136.8480 C   0  0  0  0  0  0  0  0  0  0  0  0
  182.2810  175.7190  135.8020 C   0  0  0  0  0  0  0  0  0  0  0  0
  182.7920  176.1060  137.1030 C   0  0  0  0  0  2  0  0  0  0  0  0
  181.0800  174.9870  135.6060 N   0  0  0  0  0  1  0  0  0  0  0  0
  183.0110  176.1290  134.8230 N   0  0  0  0  0  0  0  0  0  0  0  0
  184.1440  176.8540  135.3740 C   0  0  0  0  0  3  0  0  0  0  0  0
  184.3570  178.8670  141.3010 N   0  0  0  0  0  2  0  0  0  0  0  0
  184.2830  178.0620  142.5110 C   0  0  0  0  0  2  0  0  0  0  0  0
  185.9890  178.8800  144.1940 C   0  0  0  0  0  0  0  0  0  0  0  0
  185.5910  177.9950  143.1440 N   0  0  0  0  0  2  0  0  0  0  0  0
  185.2140  179.7900  144.5900 O   0  0  0  0  0  0  0  0  0  0  0  0
  188.0240  177.4350  144.4570 C   0  0  2  0  0  3  0  0  0  0  0  0
  188.4230  178.0400  147.0100 C   0  0  0  0  0  2  0  0  0  0  0  0
  187.3540  178.7680  144.8080 C   0  0  2  0  0  3  0  0  0  0  0  0
  190.6590  176.9000  147.3650 C   0  0  0  0  0  2  0  0  0  0  0  0
  189.8840  177.7340  142.8190 C   0  0  0  0  0  2  0  0  0  0  0  0
  187.4730  177.6690  145.8660 C   0  0  1  0  0  0  0  0  0  0  0  0
  191.1120  177.2790  145.9510 C   0  0  0  0  0  2  0  0  0  0  0  0
  191.3290  174.6010  144.0330 C   0  0  0  0  0  1  0  0  0  0  0  0
  190.3030  176.6220  144.9300 N   0  0  2  0  0  0  0  0  0  0  0  0
  189.1420  176.7960  147.5240 C   0  0  0  0  0  2  0  0  0  0  0  0
  191.2140  176.1070  143.9130 C   0  0  2  0  0  3  0  0  0  0  0  0
  190.6490  176.4690  142.5620 C   0  0  0  0  0  2  0  0  0  0  0  0
  189.5230  177.6840  144.2930 C   0  0  2  0  0  3  0  0  0  0  0  0
  185.2770  177.6630  147.1160 C   0  0  0  0  0  1  0  0  0  0  0  0
  186.2050  176.8770  146.2050 C   0  0  0  0  0  2  0  0  0  0  0  0
  1  7  1  0  0  0  0
  1  9  1  0  0  0  0
  2 37  1  0  0  0  0
  4  8  1  0  0  0  0
  4  1  2  0  0  0  0
  5  2  1  0  0  0  0
  6  3  2  0  0  0  0
  7  6  1  0  0  0  0
  8  5  2  0  0  0  0
  9  2  2  0  0  0  0
  9  3  1  0  0  0  0
 10 11  1  0  0  0  0
 11 13  1  0  0  0  0
 11  7  1  0  0  0  0
 12 15  1  0  0  0  0
 14 12  1  0  0  0  0
 14 10  1  0  0  0  0
 15 13  1  0  0  0  0
 16 12  1  0  0  0  0
 17 16  1  0  0  0  0
 17 18  2  0  0  0  0
 20 26  1  1  0  0  0
 20 21  1  0  0  0  0
 21 22  1  0  0  0  0
 21 19  1  1  0  0  0
 23 17  1  1  0  0  0
 23 24  1  0  0  0  0
 24 22  1  0  0  0  0
 25 23  1  0  0  0  0
 25 20  1  0  0  0  0
 26 27  1  6  0  0  0
 28 30  1  0  0  0  0
 28 26  1  0  0  0  0
 30 29  2  0  0  0  0
 31 33  1  0  0  0  0
 31  8  1  0  0  0  0
 32 33  1  0  0  0  0
 34 32  1  0  0  0  0
 35 36  1  0  0  0  0
 35 32  2  0  0  0  0
 36 31  2  0  0  0  0
 37 38  1  0  0  0  0
 38 40  1  0  0  0  0
 39 41  2  0  0  0  0
 39 44  1  0  0  0  0
 40 39  1  0  0  0  0
 42 44  1  0  0  0  0
 42 47  1  0  0  0  0
 43 51  1  0  0  0  0
 44 47  1  0  0  0  0
 45 51  1  0  0  0  0
 46 54  1  0  0  0  0
 47 56  1  0  0  0  0
 47 43  1  0  0  0  0
 48 45  1  0  0  0  0
 50 48  1  0  0  0  0
 52 49  1  0  0  0  0
 52 50  1  0  0  0  0
 53 46  1  0  0  0  0
 53 52  1  0  0  0  0
 54 42  1  0  0  0  0
 54 50  1  0  0  0  0
 56 55  1  0  0  0  0
M  END
>  <MODEL>
9

>  <REMARK>
 VINA RESULT:      -6.5      1.759      2.294
  Name = 
  12 active torsions:
  status: ('A' for Active; 'I' for Inactive)
    1  A    between atoms: N_3  and  C_32
    2  A    between atoms: C_4  and  C_26
    3  A    between atoms: C_5  and  C_22
    4  A    between atoms: N_8  and  C_46
    5  A    between atoms: C_9  and  S_21
    6  A    between atoms: C_11  and  C_42
    7  A    between atoms: C_13  and  N_17
    8  A    between atoms: N_17  and  C_46
    9  A    between atoms: C_18  and  O_56
   10  A    between atoms: S_21  and  O_56
   11  A    between atoms: C_29  and  N_39
   12  A    between atoms: C_31  and  C_40
                            x       y       z     vdW  Elec       q    Type
                         _______ _______ _______ _____ _____    ______ ____

>  <TORSDO>
F 12

$$$$
