=
 OpenBabel10232411383D

 27 29  0  0  1  0  0  0  0  0999 V2000
  188.8130  177.8890  142.8760 C   0  0  2  0  0  3  0  0  0  0  0  0
  190.1160  176.4700  141.4600 O   0  0  0  0  0  0  0  0  0  0  0  0
  189.9020  176.8930  142.6280 C   0  0  0  0  0  0  0  0  0  0  0  0
  191.6580  176.1300  145.6600 C   0  0  0  0  0  0  0  0  0  0  0  0
  191.5530  175.4010  143.6730 O   0  0  0  0  0  0  0  0  0  0  0  0
  190.7220  176.4140  143.7460 C   0  0  0  0  0  0  0  0  0  0  0  0
  190.7370  176.9460  145.0230 C   0  0  0  0  0  3  0  0  0  0  0  0
  192.1400  175.1980  144.8140 N   0  0  0  0  0  0  0  0  0  0  0  0
  192.0670  176.2390  147.0640 C   0  0  0  0  0  0  0  0  0  0  0  0
  193.0060  175.3570  147.5860 O   0  0  0  0  0  0  0  0  0  0  0  0
  191.5720  177.1310  147.8030 O   0  0  0  0  0  1  0  0  0  0  0  0
  187.4960  177.1670  143.1430 C   0  0  0  0  0  2  0  0  0  0  0  0
  183.9210  179.0690  145.7010 N   0  0  0  0  0  0  0  0  0  0  0  0
  185.9020  178.4580  146.9210 N   0  0  0  0  0  0  0  0  0  0  0  0
  185.1560  178.5610  145.7990 C   0  0  0  0  0  0  0  0  0  0  0  0
  185.6380  178.1330  144.5380 C   0  0  2  0  0  3  0  0  0  0  0  0
  187.6470  177.5070  145.5990 N   0  0  0  0  0  0  0  0  0  0  0  0
  186.9140  177.5940  144.4500 C   0  0  0  0  0  0  0  0  0  0  0  0
  183.6160  178.9650  144.3800 C   0  0  0  0  0  3  0  0  0  0  0  0
  187.1560  177.9240  146.8120 C   0  0  0  0  0  3  0  0  0  0  0  0
  184.6490  178.3940  143.6210 C   0  0  0  0  0  3  0  0  0  0  0  0
  188.6860  178.7430  141.7730 O   0  0  0  0  0  0  0  0  0  0  0  0
  187.4690  178.3930  141.1800 C   0  0  0  0  0  2  0  0  0  0  0  0
  187.5930  178.4660  139.6970 C   0  0  0  0  0  0  0  0  0  0  0  0
  186.5680  178.3150  138.9780 O   0  0  0  0  0  0  0  0  0  0  0  0
  188.8720  178.7090  139.1030 N   0  0  0  0  0  2  0  0  0  0  0  0
  189.0530  178.7720  137.6620 C   0  0  0  0  0  1  0  0  0  0  0  0
  1 12  1  6  0  0  0
  2  3  2  0  0  0  0
  3  1  1  0  0  0  0
  3  6  1  0  0  0  0
  4  9  1  0  0  0  0
  5  6  1  0  0  0  0
  5  8  1  0  0  0  0
  6  7  2  0  0  0  0
  7  4  1  0  0  0  0
  8  4  2  0  0  0  0
  9 10  2  0  0  0  0
  9 11  1  0  0  0  0
 12 18  1  0  0  0  0
 13 15  2  0  0  0  0
 15 14  1  0  0  0  0
 16 21  1  6  0  0  0
 16 15  1  0  0  0  0
 17 20  1  0  0  0  0
 18 16  1  0  0  0  0
 18 17  2  0  0  0  0
 19 13  1  0  0  0  0
 20 14  2  0  0  0  0
 21 19  2  0  0  0  0
 22  1  1  0  0  0  0
 23 22  1  0  0  0  0
 24 23  1  0  0  0  0
 25 24  2  0  0  0  0
 26 24  1  0  0  0  0
 27 26  1  0  0  0  0
M  END
>  <MODEL>
1

>  <REMARK>
 VINA RESULT:      -8.3      0.000      0.000
  Name = 
  8 active torsions:
  status: ('A' for Active; 'I' for Inactive)
    1  A    between atoms: C_5  and  C_13
    2  A    between atoms: C_5  and  C_19
    3  A    between atoms: C_6  and  C_23
    4  A    between atoms: C_7  and  C_8
    5  A    between atoms: C_9  and  C_14
    6  A    between atoms: C_9  and  C_19
    7  A    between atoms: C_19  and  O_20
    8  A    between atoms: O_20  and  C_23
                            x       y       z     vdW  Elec       q    Type
                         _______ _______ _______ _____ _____    ______ ____

>  <TORSDO>
F 8

$$$$
=
 OpenBabel10232411383D

 27 29  0  0  1  0  0  0  0  0999 V2000
  188.6890  177.6940  142.0890 C   0  0  2  0  0  3  0  0  0  0  0  0
  191.0140  177.4530  141.5870 O   0  0  0  0  0  0  0  0  0  0  0  0
  190.1250  177.5290  142.4780 C   0  0  0  0  0  0  0  0  0  0  0  0
  191.2980  176.8800  145.8030 C   0  0  0  0  0  0  0  0  0  0  0  0
  190.1580  178.3530  144.7940 O   0  0  0  0  0  0  0  0  0  0  0  0
  190.4950  177.4580  143.8960 C   0  0  0  0  0  0  0  0  0  0  0  0
  191.2460  176.4570  144.4850 C   0  0  0  0  0  3  0  0  0  0  0  0
  190.6270  178.0360  145.9630 N   0  0  0  0  0  0  0  0  0  0  0  0
  191.9890  176.1850  146.8950 C   0  0  0  0  0  0  0  0  0  0  0  0
  192.1710  176.8200  148.1180 O   0  0  0  0  0  1  0  0  0  0  0  0
  192.4190  175.0130  146.7320 O   0  0  0  0  0  0  0  0  0  0  0  0
  187.7960  176.9150  143.0480 C   0  0  0  0  0  2  0  0  0  0  0  0
  185.0750  178.9890  146.4000 N   0  0  0  0  0  0  0  0  0  0  0  0
  184.3070  179.1820  144.1290 N   0  0  0  0  0  0  0  0  0  0  0  0
  185.1780  178.7820  145.0820 C   0  0  0  0  0  0  0  0  0  0  0  0
  186.3460  178.0470  144.7660 C   0  0  2  0  0  3  0  0  0  0  0  0
  185.7050  178.1390  142.5000 N   0  0  0  0  0  0  0  0  0  0  0  0
  186.6050  177.7260  143.4400 C   0  0  0  0  0  0  0  0  0  0  0  0
  186.1750  178.3870  146.9250 C   0  0  0  0  0  3  0  0  0  0  0  0
  184.5810  178.8550  142.8300 C   0  0  0  0  0  3  0  0  0  0  0  0
  186.9900  177.7890  145.9510 C   0  0  0  0  0  3  0  0  0  0  0  0
  188.4960  177.2520  140.7750 O   0  0  0  0  0  0  0  0  0  0  0  0
  188.2060  178.4070  140.0420 C   0  0  0  0  0  2  0  0  0  0  0  0
  188.9020  178.3560  138.7250 C   0  0  0  0  0  0  0  0  0  0  0  0
  188.9910  179.4020  138.0270 O   0  0  0  0  0  0  0  0  0  0  0  0
  189.4640  177.1230  138.2680 N   0  0  0  0  0  2  0  0  0  0  0  0
  190.1380  177.0120  136.9840 C   0  0  0  0  0  1  0  0  0  0  0  0
  1  3  1  0  0  0  0
  1 12  1  1  0  0  0
  2  3  2  0  0  0  0
  3  6  1  0  0  0  0
  4  8  2  0  0  0  0
  4  9  1  0  0  0  0
  5  8  1  0  0  0  0
  6  7  2  0  0  0  0
  6  5  1  0  0  0  0
  7  4  1  0  0  0  0
  9 10  1  0  0  0  0
 11  9  2  0  0  0  0
 12 18  1  0  0  0  0
 13 19  1  0  0  0  0
 14 15  1  0  0  0  0
 15 13  2  0  0  0  0
 16 15  1  0  0  0  0
 16 21  1  1  0  0  0
 17 20  1  0  0  0  0
 17 18  2  0  0  0  0
 18 16  1  0  0  0  0
 20 14  2  0  0  0  0
 21 19  2  0  0  0  0
 22  1  1  0  0  0  0
 23 22  1  0  0  0  0
 24 23  1  0  0  0  0
 25 24  2  0  0  0  0
 26 24  1  0  0  0  0
 27 26  1  0  0  0  0
M  END
>  <MODEL>
2

>  <REMARK>
 VINA RESULT:      -8.1      1.637      2.274
  Name = 
  8 active torsions:
  status: ('A' for Active; 'I' for Inactive)
    1  A    between atoms: C_5  and  C_13
    2  A    between atoms: C_5  and  C_19
    3  A    between atoms: C_6  and  C_23
    4  A    between atoms: C_7  and  C_8
    5  A    between atoms: C_9  and  C_14
    6  A    between atoms: C_9  and  C_19
    7  A    between atoms: C_19  and  O_20
    8  A    between atoms: O_20  and  C_23
                            x       y       z     vdW  Elec       q    Type
                         _______ _______ _______ _____ _____    ______ ____

>  <TORSDO>
F 8

$$$$
=
 OpenBabel10232411383D

 27 29  0  0  1  0  0  0  0  0999 V2000
  189.0910  177.2600  142.9350 C   0  0  2  0  0  3  0  0  0  0  0  0
  187.8030  178.8510  141.7010 O   0  0  0  0  0  0  0  0  0  0  0  0
  188.7080  177.9740  141.6780 C   0  0  0  0  0  0  0  0  0  0  0  0
  190.6570  176.8090  138.9020 C   0  0  0  0  0  0  0  0  0  0  0  0
  189.1320  178.2340  139.2700 O   0  0  0  0  0  0  0  0  0  0  0  0
  189.3890  177.6530  140.4180 C   0  0  0  0  0  0  0  0  0  0  0  0
  190.3830  176.7050  140.2560 C   0  0  0  0  0  3  0  0  0  0  0  0
  189.8820  177.7470  138.3260 N   0  0  0  0  0  0  0  0  0  0  0  0
  191.6470  176.0130  138.1690 C   0  0  0  0  0  0  0  0  0  0  0  0
  191.4800  174.6390  138.0450 O   0  0  0  0  0  1  0  0  0  0  0  0
  192.6510  176.5690  137.6490 O   0  0  0  0  0  0  0  0  0  0  0  0
  187.8820  176.5330  143.5120 C   0  0  0  0  0  2  0  0  0  0  0  0
  184.8350  179.1770  146.0930 N   0  0  0  0  0  0  0  0  0  0  0  0
  186.7720  178.3440  147.2500 N   0  0  0  0  0  0  0  0  0  0  0  0
  185.9770  178.4830  146.1650 C   0  0  0  0  0  0  0  0  0  0  0  0
  186.2990  177.8910  144.9210 C   0  0  2  0  0  3  0  0  0  0  0  0
  188.2510  177.0240  145.9190 N   0  0  0  0  0  0  0  0  0  0  0  0
  187.4640  177.1450  144.8090 C   0  0  0  0  0  0  0  0  0  0  0  0
  184.4280  179.0280  144.8040 C   0  0  0  0  0  3  0  0  0  0  0  0
  187.9150  177.6050  147.1180 C   0  0  0  0  0  3  0  0  0  0  0  0
  185.3040  178.2400  144.0410 C   0  0  0  0  0  3  0  0  0  0  0  0
  189.6020  178.1730  143.8660 O   0  0  0  0  0  0  0  0  0  0  0  0
  190.9920  178.0790  143.7440 C   0  0  0  0  0  2  0  0  0  0  0  0
  191.4910  176.9300  144.5510 C   0  0  0  0  0  0  0  0  0  0  0  0
  191.7820  175.8460  143.9760 O   0  0  0  0  0  0  0  0  0  0  0  0
  191.6380  177.0680  145.9660 N   0  0  0  0  0  2  0  0  0  0  0  0
  192.1030  175.9750  146.8040 C   0  0  0  0  0  1  0  0  0  0  0  0
  1 12  1  1  0  0  0
  1 22  1  0  0  0  0
  3  2  2  0  0  0  0
  3  1  1  0  0  0  0
  4  7  1  0  0  0  0
  5  6  1  0  0  0  0
  6  3  1  0  0  0  0
  7  6  2  0  0  0  0
  8  4  2  0  0  0  0
  8  5  1  0  0  0  0
  9  4  1  0  0  0  0
 10  9  1  0  0  0  0
 11  9  2  0  0  0  0
 12 18  1  0  0  0  0
 13 15  2  0  0  0  0
 15 14  1  0  0  0  0
 16 21  1  6  0  0  0
 16 15  1  0  0  0  0
 17 20  1  0  0  0  0
 18 16  1  0  0  0  0
 18 17  2  0  0  0  0
 19 13  1  0  0  0  0
 20 14  2  0  0  0  0
 21 19  2  0  0  0  0
 23 22  1  0  0  0  0
 23 24  1  0  0  0  0
 24 26  1  0  0  0  0
 25 24  2  0  0  0  0
 26 27  1  0  0  0  0
M  END
>  <MODEL>
3

>  <REMARK>
 VINA RESULT:      -8.1      1.969      5.285
  Name = 
  8 active torsions:
  status: ('A' for Active; 'I' for Inactive)
    1  A    between atoms: C_5  and  C_13
    2  A    between atoms: C_5  and  C_19
    3  A    between atoms: C_6  and  C_23
    4  A    between atoms: C_7  and  C_8
    5  A    between atoms: C_9  and  C_14
    6  A    between atoms: C_9  and  C_19
    7  A    between atoms: C_19  and  O_20
    8  A    between atoms: O_20  and  C_23
                            x       y       z     vdW  Elec       q    Type
                         _______ _______ _______ _____ _____    ______ ____

>  <TORSDO>
F 8

$$$$
=
 OpenBabel10232411383D

 27 29  0  0  1  0  0  0  0  0999 V2000
  188.3940  177.3160  142.7340 C   0  0  2  0  0  3  0  0  0  0  0  0
  187.9680  178.7790  140.8920 O   0  0  0  0  0  0  0  0  0  0  0  0
  187.5090  178.2000  141.9140 C   0  0  0  0  0  0  0  0  0  0  0  0
  184.2710  178.6550  143.3850 C   0  0  0  0  0  0  0  0  0  0  0  0
  185.1150  178.5120  141.4470 O   0  0  0  0  0  0  0  0  0  0  0  0
  186.1060  178.3910  142.2990 C   0  0  0  0  0  0  0  0  0  0  0  0
  185.6280  178.4730  143.5940 C   0  0  0  0  0  3  0  0  0  0  0  0
  183.9860  178.6740  142.0690 N   0  0  0  0  0  0  0  0  0  0  0  0
  183.2600  178.8140  144.4360 C   0  0  0  0  0  0  0  0  0  0  0  0
  183.6520  179.0800  145.7420 O   0  0  0  0  0  1  0  0  0  0  0  0
  182.0350  178.7110  144.1620 O   0  0  0  0  0  0  0  0  0  0  0  0
  189.3040  178.1620  143.6170 C   0  0  0  0  0  2  0  0  0  0  0  0
  191.1030  176.1670  147.5820 N   0  0  0  0  0  0  0  0  0  0  0  0
  188.8370  176.9600  147.7180 N   0  0  0  0  0  0  0  0  0  0  0  0
  190.0110  176.7550  147.0810 C   0  0  0  0  0  0  0  0  0  0  0  0
  190.2100  177.1500  145.7360 C   0  0  2  0  0  3  0  0  0  0  0  0
  187.9940  177.9530  145.7180 N   0  0  0  0  0  0  0  0  0  0  0  0
  189.1710  177.7640  145.0500 C   0  0  0  0  0  0  0  0  0  0  0  0
  191.9990  176.1860  146.5590 C   0  0  0  0  0  3  0  0  0  0  0  0
  187.8260  177.5660  147.0250 C   0  0  0  0  0  3  0  0  0  0  0  0
  191.4890  176.7830  145.3960 C   0  0  0  0  0  3  0  0  0  0  0  0
  189.1550  176.4920  141.8960 O   0  0  0  0  0  0  0  0  0  0  0  0
  190.4510  177.0150  141.9530 C   0  0  0  0  0  2  0  0  0  0  0  0
  191.0650  176.9860  140.5950 C   0  0  0  0  0  0  0  0  0  0  0  0
  192.1370  177.6150  140.3830 O   0  0  0  0  0  0  0  0  0  0  0  0
  190.4340  176.2460  139.5470 N   0  0  0  0  0  2  0  0  0  0  0  0
  190.9790  176.1990  138.2000 C   0  0  0  0  0  1  0  0  0  0  0  0
  1 12  1  6  0  0  0
  2  3  2  0  0  0  0
  3  6  1  0  0  0  0
  3  1  1  0  0  0  0
  4  7  1  0  0  0  0
  4  9  1  0  0  0  0
  5  8  1  0  0  0  0
  5  6  1  0  0  0  0
  6  7  2  0  0  0  0
  8  4  2  0  0  0  0
  9 10  1  0  0  0  0
 11  9  2  0  0  0  0
 12 18  1  0  0  0  0
 15 13  2  0  0  0  0
 15 14  1  0  0  0  0
 16 21  1  6  0  0  0
 16 15  1  0  0  0  0
 17 20  1  0  0  0  0
 18 17  2  0  0  0  0
 18 16  1  0  0  0  0
 19 13  1  0  0  0  0
 20 14  2  0  0  0  0
 21 19  2  0  0  0  0
 22 23  1  0  0  0  0
 22  1  1  0  0  0  0
 24 23  1  0  0  0  0
 25 24  2  0  0  0  0
 26 24  1  0  0  0  0
 27 26  1  0  0  0  0
M  END
>  <MODEL>
4

>  <REMARK>
 VINA RESULT:      -8.0      2.581      5.916
  Name = 
  8 active torsions:
  status: ('A' for Active; 'I' for Inactive)
    1  A    between atoms: C_5  and  C_13
    2  A    between atoms: C_5  and  C_19
    3  A    between atoms: C_6  and  C_23
    4  A    between atoms: C_7  and  C_8
    5  A    between atoms: C_9  and  C_14
    6  A    between atoms: C_9  and  C_19
    7  A    between atoms: C_19  and  O_20
    8  A    between atoms: O_20  and  C_23
                            x       y       z     vdW  Elec       q    Type
                         _______ _______ _______ _____ _____    ______ ____

>  <TORSDO>
F 8

$$$$
=
 OpenBabel10232411383D

 27 29  0  0  1  0  0  0  0  0999 V2000
  188.1670  177.9150  142.6320 C   0  0  2  0  0  3  0  0  0  0  0  0
  190.5340  178.1080  142.9060 O   0  0  0  0  0  0  0  0  0  0  0  0
  189.5770  177.7970  142.1470 C   0  0  0  0  0  0  0  0  0  0  0  0
  190.0080  177.1110  138.6540 C   0  0  0  0  0  0  0  0  0  0  0  0
  190.4060  176.1630  140.5070 O   0  0  0  0  0  0  0  0  0  0  0  0
  189.8440  177.3160  140.7860 C   0  0  0  0  0  0  0  0  0  0  0  0
  189.5520  177.9960  139.6180 C   0  0  0  0  0  3  0  0  0  0  0  0
  190.5220  176.0040  139.2220 N   0  0  0  0  0  0  0  0  0  0  0  0
  189.9560  177.3290  137.2040 C   0  0  0  0  0  0  0  0  0  0  0  0
  190.5710  176.4280  136.3430 O   0  0  0  0  0  0  0  0  0  0  0  0
  189.3550  178.3300  136.7320 O   0  0  0  0  0  1  0  0  0  0  0  0
  187.8440  176.7690  143.5850 C   0  0  0  0  0  2  0  0  0  0  0  0
  185.3930  178.9150  147.0960 N   0  0  0  0  0  0  0  0  0  0  0  0
  187.6430  178.2450  147.6170 N   0  0  0  0  0  0  0  0  0  0  0  0
  186.5700  178.3510  146.8020 C   0  0  0  0  0  0  0  0  0  0  0  0
  186.5910  177.8650  145.4730 C   0  0  2  0  0  3  0  0  0  0  0  0
  188.8140  177.1720  145.8360 N   0  0  0  0  0  0  0  0  0  0  0  0
  187.7450  177.2610  144.9910 C   0  0  0  0  0  0  0  0  0  0  0  0
  184.6620  178.7890  145.9560 C   0  0  0  0  0  3  0  0  0  0  0  0
  188.7690  177.6480  147.1240 C   0  0  0  0  0  3  0  0  0  0  0  0
  185.3640  178.1460  144.9230 C   0  0  0  0  0  3  0  0  0  0  0  0
  187.2850  177.9090  141.5450 O   0  0  0  0  0  0  0  0  0  0  0  0
  186.4950  179.0520  141.7100 C   0  0  0  0  0  2  0  0  0  0  0  0
  185.1700  178.8450  141.0620 C   0  0  0  0  0  0  0  0  0  0  0  0
  184.3340  178.0610  141.5890 O   0  0  0  0  0  0  0  0  0  0  0  0
  184.8560  179.5380  139.8510 N   0  0  0  0  0  2  0  0  0  0  0  0
  183.5860  179.3600  139.1670 C   0  0  0  0  0  1  0  0  0  0  0  0
  1 12  1  1  0  0  0
  3  1  1  0  0  0  0
  3  2  2  0  0  0  0
  4  8  2  0  0  0  0
  4  7  1  0  0  0  0
  5  6  1  0  0  0  0
  6  3  1  0  0  0  0
  7  6  2  0  0  0  0
  8  5  1  0  0  0  0
  9  4  1  0  0  0  0
 10  9  2  0  0  0  0
 11  9  1  0  0  0  0
 12 18  1  0  0  0  0
 15 13  2  0  0  0  0
 15 14  1  0  0  0  0
 16 21  1  6  0  0  0
 16 15  1  0  0  0  0
 17 20  1  0  0  0  0
 18 16  1  0  0  0  0
 18 17  2  0  0  0  0
 19 13  1  0  0  0  0
 20 14  2  0  0  0  0
 21 19  2  0  0  0  0
 22 23  1  0  0  0  0
 22  1  1  0  0  0  0
 24 25  2  0  0  0  0
 24 23  1  0  0  0  0
 26 24  1  0  0  0  0
 27 26  1  0  0  0  0
M  END
>  <MODEL>
5

>  <REMARK>
 VINA RESULT:      -7.8      2.532      4.759
  Name = 
  8 active torsions:
  status: ('A' for Active; 'I' for Inactive)
    1  A    between atoms: C_5  and  C_13
    2  A    between atoms: C_5  and  C_19
    3  A    between atoms: C_6  and  C_23
    4  A    between atoms: C_7  and  C_8
    5  A    between atoms: C_9  and  C_14
    6  A    between atoms: C_9  and  C_19
    7  A    between atoms: C_19  and  O_20
    8  A    between atoms: O_20  and  C_23
                            x       y       z     vdW  Elec       q    Type
                         _______ _______ _______ _____ _____    ______ ____

>  <TORSDO>
F 8

$$$$
=
 OpenBabel10232411383D

 27 29  0  0  1  0  0  0  0  0999 V2000
  188.6580  178.1720  141.7730 C   0  0  2  0  0  3  0  0  0  0  0  0
  190.1560  176.7550  140.5630 O   0  0  0  0  0  0  0  0  0  0  0  0
  189.2220  177.6000  140.5100 C   0  0  0  0  0  0  0  0  0  0  0  0
  187.6200  178.1480  137.3500 C   0  0  0  0  0  0  0  0  0  0  0  0
  188.9870  179.1530  138.6190 O   0  0  0  0  0  0  0  0  0  0  0  0
  188.6840  178.0220  139.2120 C   0  0  0  0  0  0  0  0  0  0  0  0
  187.7900  177.3060  138.4370 C   0  0  0  0  0  3  0  0  0  0  0  0
  188.3600  179.2640  137.4860 N   0  0  0  0  0  0  0  0  0  0  0  0
  186.7520  177.8850  136.1960 C   0  0  0  0  0  0  0  0  0  0  0  0
  187.0800  178.4000  134.9480 O   0  0  0  0  0  0  0  0  0  0  0  0
  185.7080  177.1930  136.3300 O   0  0  0  0  0  1  0  0  0  0  0  0
  188.2230  177.0480  142.7070 C   0  0  0  0  0  2  0  0  0  0  0  0
  188.7730  177.6150  147.4310 N   0  0  0  0  0  0  0  0  0  0  0  0
  190.7460  177.0250  146.1880 N   0  0  0  0  0  0  0  0  0  0  0  0
  189.4280  177.3020  146.3060 C   0  0  0  0  0  0  0  0  0  0  0  0
  188.5610  177.3050  145.1870 C   0  0  2  0  0  3  0  0  0  0  0  0
  190.4130  176.7450  143.8410 N   0  0  0  0  0  0  0  0  0  0  0  0
  189.0770  177.0160  143.9310 C   0  0  0  0  0  0  0  0  0  0  0  0
  187.4890  177.8180  147.0300 C   0  0  0  0  0  3  0  0  0  0  0  0
  191.2340  176.7440  144.9420 C   0  0  0  0  0  3  0  0  0  0  0  0
  187.3110  177.6390  145.6490 C   0  0  0  0  0  3  0  0  0  0  0  0
  187.5750  179.0080  141.4760 O   0  0  0  0  0  0  0  0  0  0  0  0
  186.4710  178.4020  142.0860 C   0  0  0  0  0  2  0  0  0  0  0  0
  185.2250  178.7880  141.3660 C   0  0  0  0  0  0  0  0  0  0  0  0
  185.2970  179.5390  140.3550 O   0  0  0  0  0  0  0  0  0  0  0  0
  183.9610  178.3040  141.8270 N   0  0  0  0  0  2  0  0  0  0  0  0
  182.7130  178.6630  141.1750 C   0  0  0  0  0  1  0  0  0  0  0  0
  1 12  1  1  0  0  0
  3  2  2  0  0  0  0
  3  1  1  0  0  0  0
  4  8  2  0  0  0  0
  4  7  1  0  0  0  0
  5  6  1  0  0  0  0
  6  3  1  0  0  0  0
  7  6  2  0  0  0  0
  8  5  1  0  0  0  0
  9 11  1  0  0  0  0
  9  4  1  0  0  0  0
 10  9  2  0  0  0  0
 12 18  1  0  0  0  0
 14 15  1  0  0  0  0
 15 13  2  0  0  0  0
 16 21  1  6  0  0  0
 16 15  1  0  0  0  0
 17 18  2  0  0  0  0
 17 20  1  0  0  0  0
 18 16  1  0  0  0  0
 19 13  1  0  0  0  0
 20 14  2  0  0  0  0
 21 19  2  0  0  0  0
 22  1  1  0  0  0  0
 22 23  1  0  0  0  0
 24 26  1  0  0  0  0
 24 23  1  0  0  0  0
 25 24  2  0  0  0  0
 27 26  1  0  0  0  0
M  END
>  <MODEL>
6

>  <REMARK>
 VINA RESULT:      -7.7      2.860      6.342
  Name = 
  8 active torsions:
  status: ('A' for Active; 'I' for Inactive)
    1  A    between atoms: C_5  and  C_13
    2  A    between atoms: C_5  and  C_19
    3  A    between atoms: C_6  and  C_23
    4  A    between atoms: C_7  and  C_8
    5  A    between atoms: C_9  and  C_14
    6  A    between atoms: C_9  and  C_19
    7  A    between atoms: C_19  and  O_20
    8  A    between atoms: O_20  and  C_23
                            x       y       z     vdW  Elec       q    Type
                         _______ _______ _______ _____ _____    ______ ____

>  <TORSDO>
F 8

$$$$
=
 OpenBabel10232411383D

 27 29  0  0  1  0  0  0  0  0999 V2000
  187.7580  178.1530  142.6540 C   0  0  2  0  0  3  0  0  0  0  0  0
  190.1070  178.1460  143.0960 O   0  0  0  0  0  0  0  0  0  0  0  0
  189.1900  178.0180  142.2410 C   0  0  0  0  0  0  0  0  0  0  0  0
  190.2760  176.8770  139.0200 C   0  0  0  0  0  0  0  0  0  0  0  0
  189.1380  178.4730  139.8250 O   0  0  0  0  0  0  0  0  0  0  0  0
  189.5240  177.7360  140.8400 C   0  0  0  0  0  0  0  0  0  0  0  0
  190.2780  176.6680  140.3900 C   0  0  0  0  0  3  0  0  0  0  0  0
  189.5750  177.9830  138.7040 N   0  0  0  0  0  0  0  0  0  0  0  0
  190.9330  176.0220  138.0260 C   0  0  0  0  0  0  0  0  0  0  0  0
  190.9830  174.6460  138.2170 O   0  0  0  0  0  1  0  0  0  0  0  0
  191.4540  176.5270  136.9970 O   0  0  0  0  0  0  0  0  0  0  0  0
  187.4030  177.0710  143.6680 C   0  0  0  0  0  2  0  0  0  0  0  0
  187.6760  178.2550  148.3010 N   0  0  0  0  0  0  0  0  0  0  0  0
  185.5960  178.7380  147.1950 N   0  0  0  0  0  0  0  0  0  0  0  0
  186.8680  178.2820  147.2350 C   0  0  0  0  0  0  0  0  0  0  0  0
  187.5030  177.7400  146.0920 C   0  0  2  0  0  3  0  0  0  0  0  0
  185.5180  178.1370  144.8860 N   0  0  0  0  0  0  0  0  0  0  0  0
  186.8030  177.6730  144.8960 C   0  0  0  0  0  0  0  0  0  0  0  0
  188.8270  177.6960  147.8400 C   0  0  0  0  0  3  0  0  0  0  0  0
  184.9230  178.6630  146.0070 C   0  0  0  0  0  3  0  0  0  0  0  0
  188.7660  177.3600  146.4790 C   0  0  0  0  0  3  0  0  0  0  0  0
  186.9260  178.0600  141.5310 O   0  0  0  0  0  0  0  0  0  0  0  0
  186.1360  179.2130  141.5680 C   0  0  0  0  0  2  0  0  0  0  0  0
  184.9060  179.0060  140.7520 C   0  0  0  0  0  0  0  0  0  0  0  0
  184.6930  179.7410  139.7500 O   0  0  0  0  0  0  0  0  0  0  0  0
  183.9820  177.9760  141.1110 N   0  0  0  0  0  2  0  0  0  0  0  0
  182.7580  177.7430  140.3620 C   0  0  0  0  0  1  0  0  0  0  0  0
  1 12  1  1  0  0  0
  3  1  1  0  0  0  0
  3  2  2  0  0  0  0
  4  7  1  0  0  0  0
  5  6  1  0  0  0  0
  6  3  1  0  0  0  0
  7  6  2  0  0  0  0
  8  4  2  0  0  0  0
  8  5  1  0  0  0  0
  9 10  1  0  0  0  0
  9  4  1  0  0  0  0
 11  9  2  0  0  0  0
 12 18  1  0  0  0  0
 14 15  1  0  0  0  0
 15 13  2  0  0  0  0
 16 21  1  1  0  0  0
 16 15  1  0  0  0  0
 17 18  2  0  0  0  0
 17 20  1  0  0  0  0
 18 16  1  0  0  0  0
 19 13  1  0  0  0  0
 20 14  2  0  0  0  0
 21 19  2  0  0  0  0
 22 23  1  0  0  0  0
 22  1  1  0  0  0  0
 24 26  1  0  0  0  0
 24 23  1  0  0  0  0
 25 24  2  0  0  0  0
 27 26  1  0  0  0  0
M  END
>  <MODEL>
7

>  <REMARK>
 VINA RESULT:      -7.7      2.762      4.990
  Name = 
  8 active torsions:
  status: ('A' for Active; 'I' for Inactive)
    1  A    between atoms: C_5  and  C_13
    2  A    between atoms: C_5  and  C_19
    3  A    between atoms: C_6  and  C_23
    4  A    between atoms: C_7  and  C_8
    5  A    between atoms: C_9  and  C_14
    6  A    between atoms: C_9  and  C_19
    7  A    between atoms: C_19  and  O_20
    8  A    between atoms: O_20  and  C_23
                            x       y       z     vdW  Elec       q    Type
                         _______ _______ _______ _____ _____    ______ ____

>  <TORSDO>
F 8

$$$$
=
 OpenBabel10232411383D

 27 29  0  0  1  0  0  0  0  0999 V2000
  188.9480  177.8500  142.1930 C   0  0  2  0  0  3  0  0  0  0  0  0
  190.4820  176.4230  141.0420 O   0  0  0  0  0  0  0  0  0  0  0  0
  189.5650  177.2840  140.9530 C   0  0  0  0  0  0  0  0  0  0  0  0
  188.3270  177.8300  137.6330 C   0  0  0  0  0  0  0  0  0  0  0  0
  189.0720  178.9840  139.2470 O   0  0  0  0  0  0  0  0  0  0  0  0
  189.1000  177.7310  139.6350 C   0  0  0  0  0  0  0  0  0  0  0  0
  188.6260  176.9120  138.6260 C   0  0  0  0  0  3  0  0  0  0  0  0
  188.6080  179.0830  138.0370 N   0  0  0  0  0  0  0  0  0  0  0  0
  187.7720  177.5080  136.3140 C   0  0  0  0  0  0  0  0  0  0  0  0
  187.0490  178.4650  135.6120 O   0  0  0  0  0  0  0  0  0  0  0  0
  187.9470  176.3670  135.8110 O   0  0  0  0  0  1  0  0  0  0  0  0
  188.6300  176.7290  143.1770 C   0  0  0  0  0  2  0  0  0  0  0  0
  189.0850  177.8700  147.8060 N   0  0  0  0  0  0  0  0  0  0  0  0
  191.0860  177.1560  146.6790 N   0  0  0  0  0  0  0  0  0  0  0  0
  189.7640  177.4300  146.7400 C   0  0  0  0  0  0  0  0  0  0  0  0
  188.9180  177.2880  145.6130 C   0  0  2  0  0  3  0  0  0  0  0  0
  190.8000  176.5910  144.3780 N   0  0  0  0  0  0  0  0  0  0  0  0
  189.4600  176.8560  144.4110 C   0  0  0  0  0  0  0  0  0  0  0  0
  187.8070  178.0090  147.3610 C   0  0  0  0  0  3  0  0  0  0  0  0
  191.6000  176.7320  145.4850 C   0  0  0  0  0  3  0  0  0  0  0  0
  187.6570  177.6610  146.0090 C   0  0  0  0  0  3  0  0  0  0  0  0
  187.7860  178.5590  141.8680 O   0  0  0  0  0  0  0  0  0  0  0  0
  186.7390  177.8170  142.4250 C   0  0  0  0  0  2  0  0  0  0  0  0
  185.5550  178.6960  142.6330 C   0  0  0  0  0  0  0  0  0  0  0  0
  185.2390  179.5360  141.7470 O   0  0  0  0  0  0  0  0  0  0  0  0
  184.7860  178.5780  143.8340 N   0  0  0  0  0  2  0  0  0  0  0  0
  183.6320  179.4220  144.0970 C   0  0  0  0  0  1  0  0  0  0  0  0
  1 12  1  1  0  0  0
  3  2  2  0  0  0  0
  3  1  1  0  0  0  0
  4  8  2  0  0  0  0
  4  7  1  0  0  0  0
  5  6  1  0  0  0  0
  6  3  1  0  0  0  0
  7  6  2  0  0  0  0
  8  5  1  0  0  0  0
  9  4  1  0  0  0  0
 10  9  2  0  0  0  0
 11  9  1  0  0  0  0
 12 18  1  0  0  0  0
 14 15  1  0  0  0  0
 15 13  2  0  0  0  0
 16 21  1  6  0  0  0
 16 15  1  0  0  0  0
 17 18  2  0  0  0  0
 17 20  1  0  0  0  0
 18 16  1  0  0  0  0
 19 13  1  0  0  0  0
 20 14  2  0  0  0  0
 21 19  2  0  0  0  0
 22  1  1  0  0  0  0
 22 23  1  0  0  0  0
 23 24  1  0  0  0  0
 24 26  1  0  0  0  0
 25 24  2  0  0  0  0
 26 27  1  0  0  0  0
M  END
>  <MODEL>
8

>  <REMARK>
 VINA RESULT:      -7.6      2.548      6.276
  Name = 
  8 active torsions:
  status: ('A' for Active; 'I' for Inactive)
    1  A    between atoms: C_5  and  C_13
    2  A    between atoms: C_5  and  C_19
    3  A    between atoms: C_6  and  C_23
    4  A    between atoms: C_7  and  C_8
    5  A    between atoms: C_9  and  C_14
    6  A    between atoms: C_9  and  C_19
    7  A    between atoms: C_19  and  O_20
    8  A    between atoms: O_20  and  C_23
                            x       y       z     vdW  Elec       q    Type
                         _______ _______ _______ _____ _____    ______ ____

>  <TORSDO>
F 8

$$$$
=
 OpenBabel10232411383D

 27 29  0  0  1  0  0  0  0  0999 V2000
  188.6190  178.0110  142.9100 C   0  0  2  0  0  3  0  0  0  0  0  0
  190.1040  176.3960  143.8590 O   0  0  0  0  0  0  0  0  0  0  0  0
  189.7590  177.0450  142.8350 C   0  0  0  0  0  0  0  0  0  0  0  0
  191.9110  176.8820  139.9720 C   0  0  0  0  0  0  0  0  0  0  0  0
  190.0060  176.1610  140.5540 O   0  0  0  0  0  0  0  0  0  0  0  0
  190.4720  176.8530  141.5670 C   0  0  0  0  0  0  0  0  0  0  0  0
  191.7210  177.3600  141.2590 C   0  0  0  0  0  3  0  0  0  0  0  0
  190.8520  176.1560  139.5680 N   0  0  0  0  0  0  0  0  0  0  0  0
  193.0990  177.1150  139.1430 C   0  0  0  0  0  0  0  0  0  0  0  0
  193.1680  176.5790  137.8630 O   0  0  0  0  0  0  0  0  0  0  0  0
  194.0590  177.8000  139.5850 O   0  0  0  0  0  1  0  0  0  0  0  0
  187.3150  177.2630  143.1670 C   0  0  0  0  0  2  0  0  0  0  0  0
  183.6510  179.1580  145.6010 N   0  0  0  0  0  0  0  0  0  0  0  0
  185.6100  178.6000  146.8800 N   0  0  0  0  0  0  0  0  0  0  0  0
  184.8900  178.6710  145.7380 C   0  0  0  0  0  0  0  0  0  0  0  0
  185.4100  178.2270  144.4990 C   0  0  2  0  0  3  0  0  0  0  0  0
  187.4010  177.6510  145.6200 N   0  0  0  0  0  0  0  0  0  0  0  0
  186.6950  177.7050  144.4510 C   0  0  0  0  0  0  0  0  0  0  0  0
  183.3800  179.0260  144.2750 C   0  0  0  0  0  3  0  0  0  0  0  0
  186.8740  178.0830  146.8120 C   0  0  0  0  0  3  0  0  0  0  0  0
  184.4400  178.4560  143.5530 C   0  0  0  0  0  3  0  0  0  0  0  0
  188.5350  178.7440  141.7210 O   0  0  0  0  0  0  0  0  0  0  0  0
  187.4010  178.2490  141.0680 C   0  0  0  0  0  2  0  0  0  0  0  0
  187.5220  178.4840  139.6010 C   0  0  0  0  0  0  0  0  0  0  0  0
  186.4960  178.4100  138.8720 O   0  0  0  0  0  0  0  0  0  0  0  0
  188.7990  178.7910  139.0360 N   0  0  0  0  0  2  0  0  0  0  0  0
  188.9790  179.0100  137.6100 C   0  0  0  0  0  1  0  0  0  0  0  0
  1 12  1  6  0  0  0
  3  1  1  0  0  0  0
  3  2  2  0  0  0  0
  4  7  1  0  0  0  0
  5  6  1  0  0  0  0
  6  3  1  0  0  0  0
  7  6  2  0  0  0  0
  8  4  2  0  0  0  0
  8  5  1  0  0  0  0
  9 11  1  0  0  0  0
  9  4  1  0  0  0  0
 10  9  2  0  0  0  0
 12 18  1  0  0  0  0
 13 15  2  0  0  0  0
 15 14  1  0  0  0  0
 16 21  1  6  0  0  0
 16 15  1  0  0  0  0
 17 20  1  0  0  0  0
 18 16  1  0  0  0  0
 18 17  2  0  0  0  0
 19 13  1  0  0  0  0
 20 14  2  0  0  0  0
 21 19  2  0  0  0  0
 22  1  1  0  0  0  0
 23 22  1  0  0  0  0
 24 23  1  0  0  0  0
 25 24  2  0  0  0  0
 26 24  1  0  0  0  0
 27 26  1  0  0  0  0
M  END
>  <MODEL>
9

>  <REMARK>
 VINA RESULT:      -7.4      2.109      3.537
  Name = 
  8 active torsions:
  status: ('A' for Active; 'I' for Inactive)
    1  A    between atoms: C_5  and  C_13
    2  A    between atoms: C_5  and  C_19
    3  A    between atoms: C_6  and  C_23
    4  A    between atoms: C_7  and  C_8
    5  A    between atoms: C_9  and  C_14
    6  A    between atoms: C_9  and  C_19
    7  A    between atoms: C_19  and  O_20
    8  A    between atoms: O_20  and  C_23
                            x       y       z     vdW  Elec       q    Type
                         _______ _______ _______ _____ _____    ______ ____

>  <TORSDO>
F 8

$$$$
