=
 OpenBabel10232409063D

 28 31  0  0  1  0  0  0  0  0999 V2000
  188.5700  179.0680  137.3210 C   0  0  0  0  0  2  0  0  0  0  0  0
  186.0090  176.5780  136.8720 C   0  0  0  0  0  3  0  0  0  0  0  0
  184.9500  178.6450  138.6350 C   0  0  0  0  0  2  0  0  0  0  0  0
  187.3380  178.5350  136.8880 O   0  0  0  0  0  0  0  0  0  0  0  0
  186.2350  177.8840  138.9750 C   0  0  1  0  0  3  0  0  0  0  0  0
  189.7190  178.1250  136.9600 C   0  0  0  0  0  2  0  0  0  0  0  0
  184.0910  177.8300  137.7170 C   0  0  0  0  0  0  0  0  0  0  0  0
  182.8540  178.0510  137.6560 O   0  0  0  0  0  0  0  0  0  0  0  0
  186.9600  177.4170  137.6900 C   0  0  1  0  0  0  0  0  0  0  0  0
  189.2930  176.6620  137.0850 C   0  0  2  0  0  3  0  0  0  0  0  0
  188.1430  176.5030  138.0760 C   0  0  0  0  0  2  0  0  0  0  0  0
  184.6900  176.7920  136.8640 C   0  0  0  0  0  3  0  0  0  0  0  0
  191.7210  176.3600  137.5460 O   0  0  0  0  0  0  0  0  0  0  0  0
  190.2870  174.5830  137.7350 O   0  0  0  0  0  1  0  0  0  0  0  0
  190.4520  175.8040  137.4720 C   0  0  0  0  0  0  0  0  0  0  0  0
  187.0840  178.6910  139.7860 O   0  0  0  0  0  0  0  0  0  0  0  0
  188.8640  176.9070  147.1720 N   0  0  0  0  0  1  0  0  0  0  0  0
  186.3800  177.8950  144.5960 C   0  0  0  0  0  3  0  0  0  0  0  0
  188.5660  177.6530  143.5930 C   0  0  0  0  0  0  0  0  0  0  0  0
  189.0760  177.3170  144.8080 N   0  0  0  0  0  0  0  0  0  0  0  0
  186.9290  177.5490  145.8320 C   0  0  0  0  0  3  0  0  0  0  0  0
  189.3990  177.6960  142.4760 C   0  0  0  0  0  3  0  0  0  0  0  0
  188.2930  177.2610  145.9190 C   0  0  0  0  0  0  0  0  0  0  0  0
  185.3050  178.5630  142.0840 O   0  0  0  0  0  1  0  0  0  0  0  0
  186.6660  178.2970  142.2020 C   0  0  0  0  0  0  0  0  0  0  0  0
  188.8780  178.0410  141.2290 C   0  0  0  0  0  3  0  0  0  0  0  0
  187.5210  178.3510  141.0750 C   0  0  0  0  0  0  0  0  0  0  0  0
  187.1930  177.9530  143.4590 C   0  0  0  0  0  0  0  0  0  0  0  0
  3  5  1  0  0  0  0
  4  1  1  0  0  0  0
  4  9  1  0  0  0  0
  5 16  1  6  0  0  0
  6 10  1  0  0  0  0
  6  1  1  0  0  0  0
  7  3  1  0  0  0  0
  8  7  2  0  0  0  0
  9  2  1  6  0  0  0
  9 11  1  0  0  0  0
  9  5  1  0  0  0  0
 10 15  1  1  0  0  0
 10 11  1  0  0  0  0
 12  2  2  0  0  0  0
 12  7  1  0  0  0  0
 15 13  2  0  0  0  0
 15 14  1  0  0  0  0
 16 27  1  0  0  0  0
 18 21  1  0  0  0  0
 19 20  2  0  0  0  0
 20 23  1  0  0  0  0
 21 23  2  0  0  0  0
 22 19  1  0  0  0  0
 23 17  1  0  0  0  0
 24 25  1  0  0  0  0
 25 28  1  0  0  0  0
 26 22  2  0  0  0  0
 27 26  1  0  0  0  0
 27 25  2  0  0  0  0
 28 19  1  0  0  0  0
 28 18  2  0  0  0  0
M  END
>  <MODEL>
1

>  <REMARK>
 VINA RESULT:      -7.7      0.000      0.000
  Name = 
  3 active torsions:
  status: ('A' for Active; 'I' for Inactive)
    1  A    between atoms: O_12  and  C_17
    2  A    between atoms: O_12  and  C_23
    3  A    between atoms: C_18  and  C_25
                            x       y       z     vdW  Elec       q    Type
                         _______ _______ _______ _____ _____    ______ ____

>  <TORSDO>
F 3

$$$$
=
 OpenBabel10232409063D

 28 31  0  0  1  0  0  0  0  0999 V2000
  188.5220  179.1460  137.5030 C   0  0  0  0  0  2  0  0  0  0  0  0
  185.9110  176.7490  136.8730 C   0  0  0  0  0  3  0  0  0  0  0  0
  184.8650  178.7500  138.7190 C   0  0  0  0  0  2  0  0  0  0  0  0
  187.2870  178.6680  137.0180 O   0  0  0  0  0  0  0  0  0  0  0  0
  186.1230  177.9400  139.0460 C   0  0  1  0  0  3  0  0  0  0  0  0
  189.6550  178.1940  137.1170 C   0  0  0  0  0  2  0  0  0  0  0  0
  184.0060  178.0050  137.7430 C   0  0  0  0  0  0  0  0  0  0  0  0
  182.7760  178.2610  137.6680 O   0  0  0  0  0  0  0  0  0  0  0  0
  186.8640  177.5200  137.7530 C   0  0  1  0  0  0  0  0  0  0  0  0
  189.1910  176.7370  137.1570 C   0  0  2  0  0  3  0  0  0  0  0  0
  188.0150  176.5580  138.1150 C   0  0  0  0  0  2  0  0  0  0  0  0
  184.5980  176.9970  136.8500 C   0  0  0  0  0  3  0  0  0  0  0  0
  191.5970  176.3530  137.6670 O   0  0  0  0  0  0  0  0  0  0  0  0
  190.1220  174.6010  137.7050 O   0  0  0  0  0  1  0  0  0  0  0  0
  190.3190  175.8320  137.5230 C   0  0  0  0  0  0  0  0  0  0  0  0
  186.9740  178.6810  139.9140 O   0  0  0  0  0  0  0  0  0  0  0  0
  188.9290  176.8540  147.2450 N   0  0  0  0  0  1  0  0  0  0  0  0
  189.8510  177.3460  143.6830 C   0  0  0  0  0  3  0  0  0  0  0  0
  187.4960  177.7900  144.0010 C   0  0  0  0  0  0  0  0  0  0  0  0
  187.6310  177.5060  145.3240 N   0  0  0  0  0  0  0  0  0  0  0  0
  189.9610  177.0580  145.0440 C   0  0  0  0  0  3  0  0  0  0  0  0
  186.2530  178.1610  143.4910 C   0  0  0  0  0  3  0  0  0  0  0  0
  188.8290  177.1440  145.8570 C   0  0  0  0  0  0  0  0  0  0  0  0
  189.5940  177.9590  140.9490 O   0  0  0  0  0  1  0  0  0  0  0  0
  188.4750  178.0120  141.7750 C   0  0  0  0  0  0  0  0  0  0  0  0
  186.1130  178.4520  142.1340 C   0  0  0  0  0  3  0  0  0  0  0  0
  187.2060  178.3750  141.2630 C   0  0  0  0  0  0  0  0  0  0  0  0
  188.6150  177.7150  143.1420 C   0  0  0  0  0  0  0  0  0  0  0  0
  3  5  1  0  0  0  0
  4  1  1  0  0  0  0
  4  9  1  0  0  0  0
  5 16  1  1  0  0  0
  6 10  1  0  0  0  0
  6  1  1  0  0  0  0
  7  3  1  0  0  0  0
  8  7  2  0  0  0  0
  9  2  1  6  0  0  0
  9 11  1  0  0  0  0
  9  5  1  0  0  0  0
 10 15  1  1  0  0  0
 10 11  1  0  0  0  0
 12  2  2  0  0  0  0
 12  7  1  0  0  0  0
 15 13  2  0  0  0  0
 15 14  1  0  0  0  0
 16 27  1  0  0  0  0
 18 21  1  0  0  0  0
 19 20  2  0  0  0  0
 20 23  1  0  0  0  0
 21 23  2  0  0  0  0
 22 19  1  0  0  0  0
 23 17  1  0  0  0  0
 24 25  1  0  0  0  0
 25 28  1  0  0  0  0
 26 22  2  0  0  0  0
 27 25  2  0  0  0  0
 27 26  1  0  0  0  0
 28 18  2  0  0  0  0
 28 19  1  0  0  0  0
M  END
>  <MODEL>
2

>  <REMARK>
 VINA RESULT:      -7.6      0.829      1.620
  Name = 
  3 active torsions:
  status: ('A' for Active; 'I' for Inactive)
    1  A    between atoms: O_12  and  C_17
    2  A    between atoms: O_12  and  C_23
    3  A    between atoms: C_18  and  C_25
                            x       y       z     vdW  Elec       q    Type
                         _______ _______ _______ _____ _____    ______ ____

>  <TORSDO>
F 3

$$$$
=
 OpenBabel10232409063D

 28 31  0  0  1  0  0  0  0  0999 V2000
  180.4370  179.7300  140.2330 C   0  0  0  0  0  2  0  0  0  0  0  0
  182.1620  178.1960  137.4710 C   0  0  0  0  0  3  0  0  0  0  0  0
  182.9820  176.8260  139.9110 C   0  0  0  0  0  2  0  0  0  0  0  0
  180.7770  178.7120  139.3180 O   0  0  0  0  0  0  0  0  0  0  0  0
  183.1590  178.3390  139.7440 C   0  0  1  0  0  3  0  0  0  0  0  0
  180.1840  181.0480  139.5000 C   0  0  0  0  0  2  0  0  0  0  0  0
  182.9320  176.1570  138.5710 C   0  0  0  0  0  0  0  0  0  0  0  0
  183.2170  174.9360  138.4710 O   0  0  0  0  0  0  0  0  0  0  0  0
  182.0870  178.9210  138.7920 C   0  0  1  0  0  0  0  0  0  0  0  0
  181.1280  181.2070  138.3070 C   0  0  2  0  0  3  0  0  0  0  0  0
  182.4110  180.4030  138.5060 C   0  0  0  0  0  2  0  0  0  0  0  0
  182.5230  176.9130  137.3770 C   0  0  0  0  0  3  0  0  0  0  0  0
  182.6550  183.1660  138.4710 O   0  0  0  0  0  1  0  0  0  0  0  0
  180.5980  183.3940  137.4890 O   0  0  0  0  0  0  0  0  0  0  0  0
  181.4340  182.6470  138.0630 C   0  0  0  0  0  0  0  0  0  0  0  0
  183.1300  178.9810  141.0140 O   0  0  0  0  0  0  0  0  0  0  0  0
  187.6610  177.7900  147.2560 N   0  0  0  0  0  1  0  0  0  0  0  0
  184.3750  178.6740  145.7700 C   0  0  0  0  0  3  0  0  0  0  0  0
  185.9820  178.2170  144.0230 C   0  0  0  0  0  0  0  0  0  0  0  0
  186.9260  177.9680  144.9690 N   0  0  0  0  0  0  0  0  0  0  0  0
  185.3630  178.4130  146.7210 C   0  0  0  0  0  3  0  0  0  0  0  0
  186.3060  178.1100  142.6710 C   0  0  0  0  0  3  0  0  0  0  0  0
  186.6460  178.0590  146.2970 C   0  0  0  0  0  0  0  0  0  0  0  0
  182.4040  179.1660  143.8250 O   0  0  0  0  0  1  0  0  0  0  0  0
  183.6960  178.8360  143.4280 C   0  0  0  0  0  0  0  0  0  0  0  0
  185.3380  178.3680  141.6990 C   0  0  0  0  0  3  0  0  0  0  0  0
  184.0370  178.7380  142.0570 C   0  0  0  0  0  0  0  0  0  0  0  0
  184.6730  178.5810  144.4060 C   0  0  0  0  0  0  0  0  0  0  0  0
  4  1  1  0  0  0  0
  5  3  1  0  0  0  0
  5 16  1  1  0  0  0
  6  1  1  0  0  0  0
  7  3  1  0  0  0  0
  8  7  2  0  0  0  0
  9  2  1  6  0  0  0
  9  4  1  0  0  0  0
  9  5  1  0  0  0  0
 10 15  1  1  0  0  0
 10 11  1  0  0  0  0
 10  6  1  0  0  0  0
 11  9  1  0  0  0  0
 12  2  2  0  0  0  0
 12  7  1  0  0  0  0
 14 15  2  0  0  0  0
 15 13  1  0  0  0  0
 16 27  1  0  0  0  0
 18 21  1  0  0  0  0
 19 28  1  0  0  0  0
 19 20  2  0  0  0  0
 20 23  1  0  0  0  0
 22 19  1  0  0  0  0
 23 21  2  0  0  0  0
 23 17  1  0  0  0  0
 25 24  1  0  0  0  0
 25 28  1  0  0  0  0
 26 27  1  0  0  0  0
 26 22  2  0  0  0  0
 27 25  2  0  0  0  0
 28 18  2  0  0  0  0
M  END
>  <MODEL>
3

>  <REMARK>
 VINA RESULT:      -7.6      4.096      5.952
  Name = 
  3 active torsions:
  status: ('A' for Active; 'I' for Inactive)
    1  A    between atoms: O_12  and  C_17
    2  A    between atoms: O_12  and  C_23
    3  A    between atoms: C_18  and  C_25
                            x       y       z     vdW  Elec       q    Type
                         _______ _______ _______ _____ _____    ______ ____

>  <TORSDO>
F 3

$$$$
=
 OpenBabel10232409063D

 28 31  0  0  1  0  0  0  0  0999 V2000
  183.8980  179.4880  139.3420 C   0  0  0  0  0  2  0  0  0  0  0  0
  181.0020  177.8000  140.6550 C   0  0  0  0  0  3  0  0  0  0  0  0
  182.2300  179.2980  142.8340 C   0  0  0  0  0  2  0  0  0  0  0  0
  182.6080  179.3630  139.8980 O   0  0  0  0  0  0  0  0  0  0  0  0
  183.0170  178.2510  142.0410 C   0  0  1  0  0  3  0  0  0  0  0  0
  184.0670  178.5350  138.1580 C   0  0  0  0  0  2  0  0  0  0  0  0
  180.7610  179.0110  142.7610 C   0  0  0  0  0  0  0  0  0  0  0  0
  179.9910  179.4580  143.6500 O   0  0  0  0  0  0  0  0  0  0  0  0
  182.4740  178.1260  140.5970 C   0  0  1  0  0  0  0  0  0  0  0  0
  183.3290  177.2180  138.3990 C   0  0  2  0  0  3  0  0  0  0  0  0
  183.1670  176.9400  139.8920 C   0  0  0  0  0  2  0  0  0  0  0  0
  180.2100  178.2360  141.6390 C   0  0  0  0  0  3  0  0  0  0  0  0
  183.7430  174.7820  138.0960 O   0  0  0  0  0  1  0  0  0  0  0  0
  184.8690  176.3070  136.8100 O   0  0  0  0  0  0  0  0  0  0  0  0
  184.0270  176.0870  137.7200 C   0  0  0  0  0  0  0  0  0  0  0  0
  184.4050  178.5680  142.0480 O   0  0  0  0  0  0  0  0  0  0  0  0
  189.7470  177.1590  147.5610 N   0  0  0  0  0  1  0  0  0  0  0  0
  188.8090  177.5120  143.9860 C   0  0  0  0  0  3  0  0  0  0  0  0
  186.8800  177.8910  145.3930 C   0  0  0  0  0  0  0  0  0  0  0  0
  187.6500  177.6740  146.4920 N   0  0  0  0  0  0  0  0  0  0  0  0
  189.5770  177.2940  145.1310 C   0  0  0  0  0  3  0  0  0  0  0  0
  185.5270  178.1940  145.5400 C   0  0  0  0  0  3  0  0  0  0  0  0
  188.9740  177.3790  146.3870 C   0  0  0  0  0  0  0  0  0  0  0  0
  187.2340  177.9850  141.7040 O   0  0  0  0  0  1  0  0  0  0  0  0
  186.6510  178.0390  142.9670 C   0  0  0  0  0  0  0  0  0  0  0  0
  184.7340  178.4150  144.4130 C   0  0  0  0  0  3  0  0  0  0  0  0
  185.2750  178.3340  143.1240 C   0  0  0  0  0  0  0  0  0  0  0  0
  187.4480  177.8120  144.1020 C   0  0  0  0  0  0  0  0  0  0  0  0
  1  4  1  0  0  0  0
  2 12  2  0  0  0  0
  4  9  1  0  0  0  0
  5 16  1  6  0  0  0
  5  3  1  0  0  0  0
  6 10  1  0  0  0  0
  6  1  1  0  0  0  0
  7  3  1  0  0  0  0
  7  8  2  0  0  0  0
  9 11  1  6  0  0  0
  9  2  1  0  0  0  0
  9  5  1  0  0  0  0
 10 15  1  1  0  0  0
 10 11  1  0  0  0  0
 12  7  1  0  0  0  0
 14 15  2  0  0  0  0
 15 13  1  0  0  0  0
 16 27  1  0  0  0  0
 18 28  2  0  0  0  0
 18 21  1  0  0  0  0
 19 22  1  0  0  0  0
 19 20  2  0  0  0  0
 21 23  2  0  0  0  0
 23 20  1  0  0  0  0
 23 17  1  0  0  0  0
 24 25  1  0  0  0  0
 25 27  2  0  0  0  0
 25 28  1  0  0  0  0
 26 22  2  0  0  0  0
 27 26  1  0  0  0  0
 28 19  1  0  0  0  0
M  END
>  <MODEL>
4

>  <REMARK>
 VINA RESULT:      -7.5      3.197      4.813
  Name = 
  3 active torsions:
  status: ('A' for Active; 'I' for Inactive)
    1  A    between atoms: O_12  and  C_17
    2  A    between atoms: O_12  and  C_23
    3  A    between atoms: C_18  and  C_25
                            x       y       z     vdW  Elec       q    Type
                         _______ _______ _______ _____ _____    ______ ____

>  <TORSDO>
F 3

$$$$
=
 OpenBabel10232409063D

 28 31  0  0  1  0  0  0  0  0999 V2000
  189.0880  178.0140  136.3220 C   0  0  0  0  0  2  0  0  0  0  0  0
  186.1570  175.9670  136.7410 C   0  0  0  0  0  3  0  0  0  0  0  0
  185.7200  178.4640  138.1820 C   0  0  0  0  0  2  0  0  0  0  0  0
  187.7370  177.6360  136.1800 O   0  0  0  0  0  0  0  0  0  0  0  0
  186.9210  177.5640  138.4870 C   0  0  1  0  0  3  0  0  0  0  0  0
  190.0120  176.8380  136.0020 C   0  0  0  0  0  2  0  0  0  0  0  0
  184.6100  177.6620  137.5750 C   0  0  0  0  0  0  0  0  0  0  0  0
  183.4250  178.0810  137.6430 O   0  0  0  0  0  0  0  0  0  0  0  0
  187.3430  176.7590  137.2340 C   0  0  1  0  0  0  0  0  0  0  0  0
  189.4070  175.5160  136.4750 C   0  0  2  0  0  3  0  0  0  0  0  0
  188.4300  175.7360  137.6280 C   0  0  0  0  0  2  0  0  0  0  0  0
  184.9000  176.4020  136.8730 C   0  0  0  0  0  3  0  0  0  0  0  0
  191.0930  174.6720  138.1020 O   0  0  0  0  0  1  0  0  0  0  0  0
  190.8280  173.6310  136.0780 O   0  0  0  0  0  0  0  0  0  0  0  0
  190.4790  174.5520  136.8630 C   0  0  0  0  0  0  0  0  0  0  0  0
  188.0020  178.3400  138.9940 O   0  0  0  0  0  0  0  0  0  0  0  0
  191.7080  176.6630  145.6540 N   0  0  0  0  0  1  0  0  0  0  0  0
  188.6600  177.7620  143.8410 C   0  0  0  0  0  3  0  0  0  0  0  0
  190.4440  177.3120  142.2720 C   0  0  0  0  0  0  0  0  0  0  0  0
  191.2580  176.9770  143.3080 N   0  0  0  0  0  0  0  0  0  0  0  0
  189.5170  177.4140  144.8860 C   0  0  0  0  0  3  0  0  0  0  0  0
  190.9210  177.2520  140.9640 C   0  0  0  0  0  3  0  0  0  0  0  0
  190.8260  177.0210  144.5980 C   0  0  0  0  0  0  0  0  0  0  0  0
  186.9550  178.4310  141.7060 O   0  0  0  0  0  1  0  0  0  0  0  0
  188.2710  178.0600  141.4470 C   0  0  0  0  0  0  0  0  0  0  0  0
  190.0870  177.5970  139.9000 C   0  0  0  0  0  3  0  0  0  0  0  0
  188.7680  178.0090  140.1220 C   0  0  0  0  0  0  0  0  0  0  0  0
  189.1130  177.7170  142.5190 C   0  0  0  0  0  0  0  0  0  0  0  0
  2 12  2  0  0  0  0
  3  5  1  0  0  0  0
  4  1  1  0  0  0  0
  4  9  1  0  0  0  0
  5 16  1  6  0  0  0
  6  1  1  0  0  0  0
  6 10  1  0  0  0  0
  7  8  2  0  0  0  0
  7  3  1  0  0  0  0
  9  2  1  6  0  0  0
  9 11  1  0  0  0  0
  9  5  1  0  0  0  0
 10 15  1  1  0  0  0
 10 11  1  0  0  0  0
 12  7  1  0  0  0  0
 14 15  2  0  0  0  0
 15 13  1  0  0  0  0
 16 27  1  0  0  0  0
 18 21  1  0  0  0  0
 19 28  1  0  0  0  0
 19 20  2  0  0  0  0
 20 23  1  0  0  0  0
 22 19  1  0  0  0  0
 23 21  2  0  0  0  0
 23 17  1  0  0  0  0
 25 24  1  0  0  0  0
 25 28  1  0  0  0  0
 26 27  1  0  0  0  0
 26 22  2  0  0  0  0
 27 25  2  0  0  0  0
 28 18  2  0  0  0  0
M  END
>  <MODEL>
5

>  <REMARK>
 VINA RESULT:      -7.5      1.481      1.792
  Name = 
  3 active torsions:
  status: ('A' for Active; 'I' for Inactive)
    1  A    between atoms: O_12  and  C_17
    2  A    between atoms: O_12  and  C_23
    3  A    between atoms: C_18  and  C_25
                            x       y       z     vdW  Elec       q    Type
                         _______ _______ _______ _____ _____    ______ ____

>  <TORSDO>
F 3

$$$$
=
 OpenBabel10232409063D

 28 31  0  0  1  0  0  0  0  0999 V2000
  188.3990  179.1230  137.3940 C   0  0  0  0  0  2  0  0  0  0  0  0
  186.6280  176.1170  136.5060 C   0  0  0  0  0  3  0  0  0  0  0  0
  184.6660  178.0850  137.3900 C   0  0  0  0  0  2  0  0  0  0  0  0
  187.5260  178.3010  136.6520 O   0  0  0  0  0  0  0  0  0  0  0  0
  185.8270  177.6510  138.2910 C   0  0  1  0  0  3  0  0  0  0  0  0
  189.7320  178.4110  137.6350 C   0  0  0  0  0  2  0  0  0  0  0  0
  184.3620  177.0170  136.3830 C   0  0  0  0  0  0  0  0  0  0  0  0
  183.2240  176.9660  135.8500 O   0  0  0  0  0  0  0  0  0  0  0  0
  187.0500  177.2170  137.4490 C   0  0  1  0  0  0  0  0  0  0  0  0
  189.5260  176.9110  137.8530 C   0  0  2  0  0  3  0  0  0  0  0  0
  188.1240  176.6170  138.3830 C   0  0  0  0  0  2  0  0  0  0  0  0
  185.3960  176.0470  135.9940 C   0  0  0  0  0  3  0  0  0  0  0  0
  191.2040  175.1710  138.4470 O   0  0  0  0  0  0  0  0  0  0  0  0
  190.8740  176.9670  139.8300 O   0  0  0  0  0  1  0  0  0  0  0  0
  190.5670  176.3610  138.7690 C   0  0  0  0  0  0  0  0  0  0  0  0
  186.1640  178.6970  139.1960 O   0  0  0  0  0  0  0  0  0  0  0  0
  184.8580  178.4140  146.8850 N   0  0  0  0  0  1  0  0  0  0  0  0
  183.6320  178.9090  143.4170 C   0  0  0  0  0  3  0  0  0  0  0  0
  186.0000  178.4230  143.4000 C   0  0  0  0  0  0  0  0  0  0  0  0
  185.9810  178.3310  144.7560 N   0  0  0  0  0  0  0  0  0  0  0  0
  183.6400  178.8100  144.8090 C   0  0  0  0  0  3  0  0  0  0  0  0
  187.1910  178.2220  142.7040 C   0  0  0  0  0  3  0  0  0  0  0  0
  184.8360  178.5180  145.4670 C   0  0  0  0  0  0  0  0  0  0  0  0
  183.6490  179.0750  140.6080 O   0  0  0  0  0  1  0  0  0  0  0  0
  184.8330  178.8100  141.2900 C   0  0  0  0  0  0  0  0  0  0  0  0
  187.2120  178.3170  141.3120 C   0  0  0  0  0  3  0  0  0  0  0  0
  186.0500  178.6180  140.5930 C   0  0  0  0  0  0  0  0  0  0  0  0
  184.8130  178.7180  142.6930 C   0  0  0  0  0  0  0  0  0  0  0  0
  1  6  1  0  0  0  0
  3  5  1  0  0  0  0
  4  1  1  0  0  0  0
  4  9  1  0  0  0  0
  5 16  1  1  0  0  0
  6 10  1  0  0  0  0
  7  3  1  0  0  0  0
  8  7  2  0  0  0  0
  9  2  1  6  0  0  0
  9  5  1  0  0  0  0
  9 11  1  0  0  0  0
 10 11  1  0  0  0  0
 10 15  1  1  0  0  0
 12  7  1  0  0  0  0
 12  2  2  0  0  0  0
 13 15  2  0  0  0  0
 15 14  1  0  0  0  0
 16 27  1  0  0  0  0
 18 21  1  0  0  0  0
 19 20  2  0  0  0  0
 20 23  1  0  0  0  0
 21 23  2  0  0  0  0
 22 19  1  0  0  0  0
 23 17  1  0  0  0  0
 24 25  1  0  0  0  0
 25 28  1  0  0  0  0
 26 22  2  0  0  0  0
 27 25  2  0  0  0  0
 27 26  1  0  0  0  0
 28 19  1  0  0  0  0
 28 18  2  0  0  0  0
M  END
>  <MODEL>
6

>  <REMARK>
 VINA RESULT:      -7.3      1.796      2.158
  Name = 
  3 active torsions:
  status: ('A' for Active; 'I' for Inactive)
    1  A    between atoms: O_12  and  C_17
    2  A    between atoms: O_12  and  C_23
    3  A    between atoms: C_18  and  C_25
                            x       y       z     vdW  Elec       q    Type
                         _______ _______ _______ _____ _____    ______ ____

>  <TORSDO>
F 3

$$$$
=
 OpenBabel10232409063D

 28 31  0  0  1  0  0  0  0  0999 V2000
  190.4740  179.1720  144.0960 C   0  0  0  0  0  2  0  0  0  0  0  0
  191.1760  176.7800  141.4990 C   0  0  0  0  0  3  0  0  0  0  0  0
  188.7250  178.1870  140.7810 C   0  0  0  0  0  2  0  0  0  0  0  0
  190.8200  178.7190  142.8060 O   0  0  0  0  0  0  0  0  0  0  0  0
  188.8560  177.4330  142.1080 C   0  0  1  0  0  3  0  0  0  0  0  0
  191.2930  178.4390  145.1590 C   0  0  0  0  0  2  0  0  0  0  0  0
  189.6760  177.6260  139.7680 C   0  0  0  0  0  0  0  0  0  0  0  0
  189.4500  177.7860  138.5410 O   0  0  0  0  0  0  0  0  0  0  0  0
  190.3290  177.3980  142.5830 C   0  0  1  0  0  0  0  0  0  0  0  0
  191.5310  176.9810  144.7660 C   0  0  2  0  0  3  0  0  0  0  0  0
  190.4440  176.4790  143.8180 C   0  0  0  0  0  2  0  0  0  0  0  0
  190.8880  176.9130  140.2010 C   0  0  0  0  0  3  0  0  0  0  0  0
  190.9000  176.4440  147.1130 O   0  0  0  0  0  1  0  0  0  0  0  0
  192.3510  175.0850  145.9760 O   0  0  0  0  0  0  0  0  0  0  0  0
  191.6240  176.1130  145.9760 C   0  0  0  0  0  0  0  0  0  0  0  0
  188.0070  178.0170  143.0910 O   0  0  0  0  0  0  0  0  0  0  0  0
  180.3330  179.4130  142.8270 N   0  0  0  0  0  1  0  0  0  0  0  0
  183.4380  178.7880  144.7640 C   0  0  0  0  0  3  0  0  0  0  0  0
  183.9220  178.7860  142.3950 C   0  0  0  0  0  0  0  0  0  0  0  0
  182.6090  179.0310  142.1370 N   0  0  0  0  0  0  0  0  0  0  0  0
  182.0970  179.0380  144.4710 C   0  0  0  0  0  3  0  0  0  0  0  0
  184.8280  178.6660  141.3430 C   0  0  0  0  0  3  0  0  0  0  0  0
  181.6970  179.1570  143.1380 C   0  0  0  0  0  0  0  0  0  0  0  0
  186.1550  178.3090  145.3150 O   0  0  0  0  0  1  0  0  0  0  0  0
  185.7270  178.4060  143.9950 C   0  0  0  0  0  0  0  0  0  0  0  0
  186.1750  178.4130  141.6060 C   0  0  0  0  0  3  0  0  0  0  0  0
  186.6390  178.2730  142.9200 C   0  0  0  0  0  0  0  0  0  0  0  0
  184.3700  178.6560  143.7280 C   0  0  0  0  0  0  0  0  0  0  0  0
  1  6  1  0  0  0  0
  3  5  1  0  0  0  0
  4  1  1  0  0  0  0
  5  9  1  0  0  0  0
  5 16  1  1  0  0  0
  7 12  1  0  0  0  0
  7  3  1  0  0  0  0
  8  7  2  0  0  0  0
  9  2  1  6  0  0  0
  9  4  1  0  0  0  0
  9 11  1  0  0  0  0
 10  6  1  0  0  0  0
 10 15  1  1  0  0  0
 11 10  1  0  0  0  0
 12  2  2  0  0  0  0
 15 14  2  0  0  0  0
 15 13  1  0  0  0  0
 17 23  1  0  0  0  0
 19 28  1  0  0  0  0
 20 19  2  0  0  0  0
 20 23  1  0  0  0  0
 21 18  1  0  0  0  0
 22 26  2  0  0  0  0
 22 19  1  0  0  0  0
 23 21  2  0  0  0  0
 25 24  1  0  0  0  0
 26 27  1  0  0  0  0
 27 16  1  0  0  0  0
 27 25  2  0  0  0  0
 28 25  1  0  0  0  0
 28 18  2  0  0  0  0
M  END
>  <MODEL>
7

>  <REMARK>
 VINA RESULT:      -7.3      4.030      6.248
  Name = 
  3 active torsions:
  status: ('A' for Active; 'I' for Inactive)
    1  A    between atoms: O_12  and  C_17
    2  A    between atoms: O_12  and  C_23
    3  A    between atoms: C_18  and  C_25
                            x       y       z     vdW  Elec       q    Type
                         _______ _______ _______ _____ _____    ______ ____

>  <TORSDO>
F 3

$$$$
=
 OpenBabel10232409063D

 28 31  0  0  1  0  0  0  0  0999 V2000
  188.1110  176.0470  143.2630 C   0  0  0  0  0  2  0  0  0  0  0  0
  187.9980  177.9150  146.3380 C   0  0  0  0  0  3  0  0  0  0  0  0
  185.4020  178.1750  145.0360 C   0  0  0  0  0  2  0  0  0  0  0  0
  187.7010  176.3670  144.5740 O   0  0  0  0  0  0  0  0  0  0  0  0
  186.6970  178.5870  144.3290 C   0  0  1  0  0  3  0  0  0  0  0  0
  189.6360  176.0910  143.1510 C   0  0  0  0  0  2  0  0  0  0  0  0
  185.5830  178.2230  146.5230 C   0  0  0  0  0  0  0  0  0  0  0  0
  184.5790  178.3440  147.2720 O   0  0  0  0  0  0  0  0  0  0  0  0
  187.8970  177.7550  144.8410 C   0  0  1  0  0  0  0  0  0  0  0  0
  190.2210  177.2090  144.0150 C   0  0  2  0  0  3  0  0  0  0  0  0
  189.2020  178.3230  144.2430 C   0  0  0  0  0  2  0  0  0  0  0  0
  186.9250  178.1000  147.1130 C   0  0  0  0  0  3  0  0  0  0  0  0
  192.0460  178.9000  143.9280 O   0  0  0  0  0  1  0  0  0  0  0  0
  192.0130  177.1680  142.4290 O   0  0  0  0  0  0  0  0  0  0  0  0
  191.4730  177.7480  143.4070 C   0  0  0  0  0  0  0  0  0  0  0  0
  186.5460  178.4670  142.9180 O   0  0  0  0  0  0  0  0  0  0  0  0
  180.1660  179.2460  138.4920 N   0  0  0  0  0  1  0  0  0  0  0  0
  183.8570  179.0410  138.8310 C   0  0  0  0  0  3  0  0  0  0  0  0
  182.8110  178.8410  141.0010 C   0  0  0  0  0  0  0  0  0  0  0  0
  181.5900  178.9620  140.4130 N   0  0  0  0  0  0  0  0  0  0  0  0
  182.5920  179.1640  138.2540 C   0  0  0  0  0  3  0  0  0  0  0  0
  182.9050  178.6740  142.3820 C   0  0  0  0  0  3  0  0  0  0  0  0
  181.4600  179.1220  139.0690 C   0  0  0  0  0  0  0  0  0  0  0  0
  186.3880  178.7640  140.0290 O   0  0  0  0  0  1  0  0  0  0  0  0
  185.2440  178.7510  140.8230 C   0  0  0  0  0  0  0  0  0  0  0  0
  184.1570  178.5520  142.9870 C   0  0  0  0  0  3  0  0  0  0  0  0
  185.3320  178.5960  142.2270 C   0  0  0  0  0  0  0  0  0  0  0  0
  183.9830  178.8800  140.2150 C   0  0  0  0  0  0  0  0  0  0  0  0
  1  4  1  0  0  0  0
  2 12  2  0  0  0  0
  3  7  1  0  0  0  0
  4  9  1  0  0  0  0
  5 16  1  6  0  0  0
  5  9  1  0  0  0  0
  5  3  1  0  0  0  0
  6  1  1  0  0  0  0
  6 10  1  0  0  0  0
  7 12  1  0  0  0  0
  7  8  2  0  0  0  0
  9 11  1  6  0  0  0
  9  2  1  0  0  0  0
 10 15  1  6  0  0  0
 10 11  1  0  0  0  0
 14 15  2  0  0  0  0
 15 13  1  0  0  0  0
 17 23  1  0  0  0  0
 18 28  1  0  0  0  0
 19 22  1  0  0  0  0
 20 19  1  0  0  0  0
 21 18  2  0  0  0  0
 21 23  1  0  0  0  0
 22 26  2  0  0  0  0
 23 20  2  0  0  0  0
 24 25  1  0  0  0  0
 25 27  2  0  0  0  0
 27 16  1  0  0  0  0
 27 26  1  0  0  0  0
 28 25  1  0  0  0  0
 28 19  2  0  0  0  0
M  END
>  <MODEL>
8

>  <REMARK>
 VINA RESULT:      -7.2      4.174      7.261
  Name = 
  3 active torsions:
  status: ('A' for Active; 'I' for Inactive)
    1  A    between atoms: O_12  and  C_17
    2  A    between atoms: O_12  and  C_23
    3  A    between atoms: C_18  and  C_25
                            x       y       z     vdW  Elec       q    Type
                         _______ _______ _______ _____ _____    ______ ____

>  <TORSDO>
F 3

$$$$
=
 OpenBabel10232409063D

 28 31  0  0  1  0  0  0  0  0999 V2000
  192.3790  177.6290  140.0700 C   0  0  0  0  0  2  0  0  0  0  0  0
  189.7300  177.3490  137.6480 C   0  0  0  0  0  3  0  0  0  0  0  0
  188.5100  177.7080  140.2720 C   0  0  0  0  0  2  0  0  0  0  0  0
  191.2830  178.0510  139.2890 O   0  0  0  0  0  0  0  0  0  0  0  0
  189.4760  176.5530  139.9900 C   0  0  1  0  0  3  0  0  0  0  0  0
  193.4140  176.9140  139.2010 C   0  0  0  0  0  2  0  0  0  0  0  0
  187.8720  178.1750  139.0000 C   0  0  0  0  0  0  0  0  0  0  0  0
  186.7740  178.7880  139.0380 O   0  0  0  0  0  0  0  0  0  0  0  0
  190.4900  176.9350  138.8850 C   0  0  1  0  0  0  0  0  0  0  0  0
  192.7390  176.0910  138.1020 C   0  0  2  0  0  3  0  0  0  0  0  0
  191.3200  175.6910  138.5030 C   0  0  0  0  0  2  0  0  0  0  0  0
  188.5370  177.9480  137.7080 C   0  0  0  0  0  3  0  0  0  0  0  0
  194.9310  174.9200  137.9470 O   0  0  0  0  0  1  0  0  0  0  0  0
  193.0080  173.8460  137.3160 O   0  0  0  0  0  0  0  0  0  0  0  0
  193.5550  174.8880  137.7640 C   0  0  0  0  0  0  0  0  0  0  0  0
  190.1380  176.1610  141.1890 O   0  0  0  0  0  0  0  0  0  0  0  0
  188.2830  177.7180  148.6080 N   0  0  0  0  0  1  0  0  0  0  0  0
  190.8210  177.0070  145.9930 C   0  0  0  0  0  3  0  0  0  0  0  0
  188.6080  177.0230  145.0210 C   0  0  0  0  0  0  0  0  0  0  0  0
  188.0820  177.2980  146.2440 N   0  0  0  0  0  0  0  0  0  0  0  0
  190.2550  177.2880  147.2380 C   0  0  0  0  0  3  0  0  0  0  0  0
  187.7690  176.8970  143.9150 C   0  0  0  0  0  3  0  0  0  0  0  0
  188.8710  177.4310  147.3450 C   0  0  0  0  0  0  0  0  0  0  0  0
  191.9260  176.4660  143.4630 O   0  0  0  0  0  1  0  0  0  0  0  0
  190.5460  176.5870  143.6010 C   0  0  0  0  0  0  0  0  0  0  0  0
  188.3060  176.6130  142.6590 C   0  0  0  0  0  3  0  0  0  0  0  0
  189.6850  176.4480  142.4850 C   0  0  0  0  0  0  0  0  0  0  0  0
  190.0030  176.8680  144.8670 C   0  0  0  0  0  0  0  0  0  0  0  0
  2 12  2  0  0  0  0
  4  1  1  0  0  0  0
  5  3  1  0  0  0  0
  5 16  1  1  0  0  0
  6  1  1  0  0  0  0
  7  8  2  0  0  0  0
  7  3  1  0  0  0  0
  9  2  1  6  0  0  0
  9  4  1  0  0  0  0
  9  5  1  0  0  0  0
 10 15  1  1  0  0  0
 10 11  1  0  0  0  0
 10  6  1  0  0  0  0
 11  9  1  0  0  0  0
 12  7  1  0  0  0  0
 14 15  2  0  0  0  0
 15 13  1  0  0  0  0
 16 27  1  0  0  0  0
 18 21  1  0  0  0  0
 19 20  2  0  0  0  0
 20 23  1  0  0  0  0
 21 23  2  0  0  0  0
 22 19  1  0  0  0  0
 23 17  1  0  0  0  0
 24 25  1  0  0  0  0
 25 28  1  0  0  0  0
 26 22  2  0  0  0  0
 27 26  1  0  0  0  0
 27 25  2  0  0  0  0
 28 19  1  0  0  0  0
 28 18  2  0  0  0  0
M  END
>  <MODEL>
9

>  <REMARK>
 VINA RESULT:      -7.2      2.453      3.761
  Name = 
  3 active torsions:
  status: ('A' for Active; 'I' for Inactive)
    1  A    between atoms: O_12  and  C_17
    2  A    between atoms: O_12  and  C_23
    3  A    between atoms: C_18  and  C_25
                            x       y       z     vdW  Elec       q    Type
                         _______ _______ _______ _____ _____    ______ ____

>  <TORSDO>
F 3

$$$$
