=
 OpenBabel10232409323D

 70 75  0  0  1  0  0  0  0  0999 V2000
  190.1620  176.8520  145.6310 N   0  0  0  0  0  0  0  0  0  0  0  0
  191.0020  176.8690  146.7970 C   0  0  0  0  0  0  0  0  0  0  0  0
  192.0710  175.9570  146.9130 C   0  0  0  0  0  3  0  0  0  0  0  0
  192.8740  175.9450  148.0370 C   0  0  0  0  0  3  0  0  0  0  0  0
  191.5850  177.7390  149.0030 C   0  0  0  0  0  3  0  0  0  0  0  0
  190.7940  177.7710  147.8550 C   0  0  0  0  0  3  0  0  0  0  0  0
  192.6300  176.8160  149.0990 C   0  0  0  0  0  3  0  0  0  0  0  0
  189.0600  177.8630  145.4550 C   0  0  0  0  0  2  0  0  0  0  0  0
  187.6470  177.3710  145.8510 C   0  0  0  0  0  2  0  0  0  0  0  0
  185.8930  177.6460  144.2840 N   0  0  0  0  0  0  0  0  0  0  0  0
  186.5510  178.1350  145.2810 N   0  0  0  0  0  0  0  0  0  0  0  0
  184.8060  178.4000  143.7120 C   0  0  0  0  0  0  0  0  0  0  0  0
  184.2470  179.2860  144.3820 O   0  0  0  0  0  0  0  0  0  0  0  0
  184.8820  178.8960  139.9960 C   0  0  0  0  0  2  0  0  0  0  0  0
  181.7740  180.1590  140.2160 O   0  0  0  0  0  1  0  0  0  0  0  0
  183.4970  178.6900  139.5440 N   0  0  0  0  0  0  0  0  0  0  0  0
  182.4430  178.9600  140.5250 C   0  0  1  0  0  3  0  0  0  0  0  0
  184.2200  178.0420  142.3260 C   0  0  1  0  0  3  0  0  0  0  0  0
  183.0460  179.0060  141.9790 C   0  0  0  0  0  2  0  0  0  0  0  0
  185.2900  178.0530  141.2660 C   0  0  0  0  0  2  0  0  0  0  0  0
  183.0480  178.5980  138.0760 C   0  0  2  0  0  3  0  0  0  0  0  0
  179.9830  177.8800  137.0650 C   0  0  0  0  0  2  0  0  0  0  0  0
  180.6380  176.0290  138.7250 O   0  0  0  0  0  0  0  0  0  0  0  0
  180.8490  179.0260  137.0890 N   0  0  0  0  0  2  0  0  0  0  0  0
  181.5290  178.4000  138.1970 C   0  0  1  0  0  3  0  0  0  0  0  0
  180.7330  177.1130  138.1440 C   0  0  0  0  0  0  0  0  0  0  0  0
  183.8700  177.5960  137.1510 C   0  0  1  0  0  3  0  0  0  0  0  0
  183.2320  176.3980  136.7930 O   0  0  0  0  0  0  0  0  0  0  0  0
  182.8620  176.0680  135.4500 C   0  0  0  0  0  0  0  0  0  0  0  0
  182.3350  176.8850  134.6960 O   0  0  0  0  0  0  0  0  0  0  0  0
  183.2560  174.7050  134.9980 C   0  0  0  0  0  2  0  0  0  0  0  0
  180.7470  173.9560  136.2550 O   0  0  0  0  0  1  0  0  0  0  0  0
  182.3340  173.4430  135.9710 P   0  0  0  0  0  0  0  0  0  0  0  0
  183.0980  173.1640  137.4640 O   0  0  0  0  0  1  0  0  0  0  0  0
  182.2510  172.1610  135.1520 O   0  0  0  0  0  0  0  0  0  0  0  0
  184.9490  178.1010  136.1530 C   0  0  0  0  0  2  0  0  0  0  0  0
  186.2830  177.3820  136.4230 C   0  0  0  0  0  2  0  0  0  0  0  0
  187.1150  179.6590  136.4280 O   0  0  0  0  0  1  0  0  0  0  0  0
  187.3550  178.3620  136.9020 C   0  0  0  0  0  2  0  0  0  0  0  0
  190.5580  175.9340  144.5150 C   0  0  0  0  0  2  0  0  0  0  0  0
  189.4880  175.1050  141.9210 O   0  0  0  0  0  0  0  0  0  0  0  0
  190.1050  176.4140  142.7830 P   0  0  1  0  0  0  0  0  0  0  0  0
  188.9550  177.3820  142.8650 O   0  0  0  0  0  1  0  0  0  0  0  0
  191.4900  176.9490  141.8740 O   0  0  0  0  0  0  0  0  0  0  0  0
  190.9700  177.7280  140.8160 C   0  0  0  0  0  2  0  0  0  0  0  0
  192.5330  175.2290  138.0660 C   0  0  2  0  0  3  0  0  0  0  0  0
  192.1230  176.1950  136.9660 C   0  0  0  0  0  2  0  0  0  0  0  0
  191.2470  177.1060  139.4600 C   0  0  0  0  0  0  0  0  0  0  0  0
  192.3650  176.0010  139.3870 C   0  0  0  0  0  2  0  0  0  0  0  0
  190.7970  177.0180  136.9580 C   0  0  2  0  0  3  0  0  0  0  0  0
  190.6540  177.5970  138.3330 C   0  0  0  0  0  3  0  0  0  0  0  0
  193.9430  174.3710  137.7040 C   0  0  1  0  0  3  0  0  0  0  0  0
  193.7130  174.1490  136.3780 O   0  0  0  0  0  0  0  0  0  0  0  0
  192.8880  171.9980  135.5550 C   0  0  0  0  0  2  0  0  0  0  0  0
  193.6370  171.6280  136.7820 C   0  0  2  0  0  3  0  0  0  0  0  0
  194.1160  172.8090  135.8630 C   0  0  2  0  0  3  0  0  0  0  0  0
  195.4340  169.7190  136.5510 O   0  0  0  0  0  1  0  0  0  0  0  0
  194.0830  170.1040  136.3630 C   0  0  0  0  0  2  0  0  0  0  0  0
  195.2830  174.8380  137.8440 O   0  0  0  0  0  0  0  0  0  0  0  0
  196.8780  174.8660  139.5880 O   0  0  0  0  0  1  0  0  0  0  0  0
  196.5270  173.6570  138.3630 P   0  0  2  0  0  0  0  0  0  0  0  0
  198.9700  173.9280  137.3320 O   0  0  0  0  0  0  0  0  0  0  0  0
  198.3690  173.0260  136.4180 C   0  0  0  0  0  2  0  0  0  0  0  0
  197.5980  174.1980  136.9240 C   0  0  1  0  0  3  0  0  0  0  0  0
  189.6390  176.2260  136.5160 O   0  0  0  0  0  0  0  0  0  0  0  0
  189.5920  174.8550  136.6170 C   0  0  0  0  0  0  0  0  0  0  0  0
  189.2940  174.2660  137.7510 O   0  0  0  0  0  0  0  0  0  0  0  0
  189.4160  172.8800  135.3190 O   0  0  0  0  0  1  0  0  0  0  0  0
  189.8900  174.0680  135.4830 C   0  0  0  0  0  0  0  0  0  0  0  0
  190.6280  174.5880  134.4510 O   0  0  0  0  0  0  0  0  0  0  0  0
  1  2  1  0  0  0  0
  2  3  2  0  0  0  0
  2  6  1  0  0  0  0
  3  4  1  0  0  0  0
  4  7  2  0  0  0  0
  5  7  1  0  0  0  0
  6  5  2  0  0  0  0
  8  1  1  0  0  0  0
  8  9  1  0  0  0  0
 10 11  2  0  0  0  0
 11  9  1  0  0  0  0
 12 10  1  0  0  0  0
 12 13  2  0  0  0  0
 14 20  1  0  0  0  0
 16 14  1  0  0  0  0
 16 17  1  0  0  0  0
 17 15  1  6  0  0  0
 17 19  1  0  0  0  0
 18 12  1  1  0  0  0
 19 18  1  0  0  0  0
 20 18  1  0  0  0  0
 21 27  1  1  0  0  0
 21 16  1  0  0  0  0
 22 24  1  0  0  0  0
 22 26  1  0  0  0  0
 24 25  1  0  0  0  0
 25 21  1  6  0  0  0
 26 25  1  0  0  0  0
 26 23  2  0  0  0  0
 27 36  1  6  0  0  0
 28 27  1  0  0  0  0
 29 28  1  0  0  0  0
 30 29  2  0  0  0  0
 31 29  1  0  0  0  0
 31 33  1  0  0  0  0
 33 32  1  0  0  0  0
 33 34  1  0  0  0  0
 35 33  2  0  0  0  0
 36 37  1  0  0  0  0
 37 39  1  0  0  0  0
 38 39  1  0  0  0  0
 40  1  1  0  0  0  0
 42 41  2  6  0  0  0
 42 43  1  0  0  0  0
 42 40  1  0  0  0  0
 44 42  1  0  0  0  0
 45 44  1  0  0  0  0
 46 52  1  6  0  0  0
 46 49  1  0  0  0  0
 47 46  1  0  0  0  0
 48 45  1  0  0  0  0
 49 48  1  0  0  0  0
 50 65  1  1  0  0  0
 50 47  1  0  0  0  0
 50 51  1  0  0  0  0
 51 48  2  0  0  0  0
 52 53  1  6  0  0  0
 52 59  1  0  0  0  0
 54 56  1  0  0  0  0
 54 55  1  0  0  0  0
 55 58  1  6  0  0  0
 56 53  1  1  0  0  0
 56 55  1  0  0  0  0
 58 57  1  0  0  0  0
 59 61  1  0  0  0  0
 61 60  1  1  0  0  0
 63 64  1  0  0  0  0
 63 62  1  0  0  0  0
 64 62  1  0  0  0  0
 64 61  1  1  0  0  0
 65 66  1  0  0  0  0
 66 67  2  0  0  0  0
 68 69  1  0  0  0  0
 69 66  1  0  0  0  0
 70 69  2  0  0  0  0
M  END
>  <MODEL>
1

>  <REMARK>
 VINA RESULT:      -3.1      0.000      0.000
  Name = 
  31 active torsions:
  status: ('A' for Active; 'I' for Inactive)
    1  A    between atoms: C_4  and  N_20
    2  A    between atoms: C_7  and  C_67
    3  A    between atoms: C_9  and  P_16
    4  A    between atoms: C_9  and  C_36
    5  A    between atoms: O_14  and  C_22
    6  A    between atoms: O_14  and  P_30
    7  A    between atoms: C_15  and  C_21
    8  A    between atoms: C_15  and  O_37
    9  A    between atoms: C_15  and  C_52
   10  A    between atoms: C_17  and  N_20
   11  A    between atoms: C_17  and  P_30
   12  A    between atoms: C_18  and  N_34
   13  A    between atoms: C_18  and  C_56
   14  A    between atoms: N_20  and  C_33
   15  A    between atoms: C_21  and  C_45
   16  A    between atoms: C_22  and  C_31
   17  A    between atoms: C_24  and  C_40
   18  A    between atoms: O_25  and  P_35
   19  A    between atoms: O_25  and  C_67
   20  A    between atoms: C_27  and  C_52
   21  A    between atoms: O_32  and  C_40
   22  A    between atoms: O_32  and  C_58
   23  A    between atoms: C_33  and  C_60
   24  A    between atoms: P_35  and  C_68
   25  A    between atoms: C_36  and  O_37
   26  A    between atoms: N_38  and  C_52
   27  A    between atoms: N_43  and  C_60
   28  A    between atoms: C_45  and  C_64
   29  A    between atoms: C_48  and  C_62
   30  A    between atoms: O_50  and  C_57
   31  A    between atoms: O_50  and  C_67
                            x       y       z     vdW  Elec       q    Type
                         _______ _______ _______ _____ _____    ______ ____

>  <TORSDO>
F 31

$$$$
