=
 OpenBabel10232411513D

 31 34  0  0  1  0  0  0  0  0999 V2000
  188.9400  177.0570  141.2100 C   0  0  0  0  0  2  0  0  0  0  0  0
  188.4230  178.3540  141.2520 O   0  0  0  0  0  0  0  0  0  0  0  0
  187.9040  178.5770  139.9720 C   0  0  2  0  0  3  0  0  0  0  0  0
  185.7260  178.1270  138.9010 C   0  0  0  0  0  3  0  0  0  0  0  0
  186.4060  178.5000  139.9920 C   0  0  0  0  0  0  0  0  0  0  0  0
  184.2200  178.0210  138.8470 C   0  0  0  0  0  0  0  0  0  0  0  0
  182.2630  179.4720  138.2060 N   0  0  0  0  0  1  0  0  0  0  0  0
  183.4770  178.4540  140.1400 C   0  0  0  0  0  0  0  0  0  0  0  0
  185.6980  178.9010  141.2120 C   0  0  0  0  0  3  0  0  0  0  0  0
  183.5200  179.3700  138.9260 C   0  0  1  0  0  0  0  0  0  0  0  0
  184.2870  180.5370  139.0210 O   0  0  0  0  0  1  0  0  0  0  0  0
  184.3700  178.8950  141.2780 C   0  0  0  0  0  3  0  0  0  0  0  0
  188.4930  177.5670  138.9950 C   0  0  0  0  0  2  0  0  0  0  0  0
  190.0230  177.5470  137.0240 O   0  0  0  0  0  0  0  0  0  0  0  0
  189.1780  178.2610  137.8650 C   0  0  0  0  0  0  0  0  0  0  0  0
  188.9700  179.4850  137.6570 O   0  0  0  0  0  1  0  0  0  0  0  0
  188.7820  176.3860  142.5680 C   0  0  0  0  0  2  0  0  0  0  0  0
  187.4140  176.6780  143.1700 C   0  0  0  0  0  2  0  0  0  0  0  0
  187.5240  177.7090  144.1860 N   0  0  0  0  0  0  0  0  0  0  0  0
  187.9320  177.0310  145.4280 C   0  0  2  0  0  3  0  0  0  0  0  0
  186.5190  177.3960  145.2120 C   0  0  1  0  0  3  0  0  0  0  0  0
  189.8390  178.6000  145.6560 O   0  0  0  0  0  0  0  0  0  0  0  0
  192.2770  176.0490  146.1680 O   0  0  0  0  0  0  0  0  0  0  0  0
  191.9060  178.3050  144.4960 C   0  0  0  0  0  1  0  0  0  0  0  0
  191.2130  176.7120  146.2850 C   0  0  0  0  0  0  0  0  0  0  0  0
  190.7390  177.6170  145.1800 C   0  0  1  0  0  3  0  0  0  0  0  0
  189.1850  177.3350  147.6250 C   0  0  0  0  0  2  0  0  0  0  0  0
  188.7410  177.9930  146.3170 C   0  0  2  0  0  3  0  0  0  0  0  0
  190.3790  176.5190  147.4260 N   0  0  0  0  0  2  0  0  0  0  0  0
  184.7500  178.4560  146.6020 C   0  0  0  0  0  1  0  0  0  0  0  0
  186.0550  178.6920  145.8690 C   0  0  0  0  0  2  0  0  0  0  0  0
  1  2  1  0  0  0  0
  1 17  1  0  0  0  0
  3 13  1  6  0  0  0
  3  5  1  0  0  0  0
  3  2  1  0  0  0  0
  4  5  1  0  0  0  0
  5  9  2  0  0  0  0
  6  4  2  3  0  0  0
  6 10  1  0  0  0  0
  6  8  1  0  0  0  0
  8 12  2  3  0  0  0
  9 12  1  0  0  0  0
 10  7  1  6  0  0  0
 10 11  1  0  0  0  0
 10  8  1  0  0  0  0
 14 15  2  0  0  0  0
 15 13  1  0  0  0  0
 16 15  1  0  0  0  0
 17 18  1  0  0  0  0
 18 19  1  0  0  0  0
 19 21  1  0  0  0  0
 20 19  1  6  0  0  0
 20 28  1  0  0  0  0
 21 20  1  0  0  0  0
 21 31  1  1  0  0  0
 22 28  1  0  0  0  0
 23 25  2  0  0  0  0
 25 29  1  0  0  0  0
 26 24  1  1  0  0  0
 26 22  1  0  0  0  0
 26 25  1  0  0  0  0
 28 27  1  1  0  0  0
 29 27  1  0  0  0  0
 31 30  1  0  0  0  0
M  END
>  <MODEL>
1

>  <REMARK>
 VINA RESULT:      -7.3      0.000      0.000
  Name = 
  10 active torsions:
  status: ('A' for Active; 'I' for Inactive)
    1  A    between atoms: C_4  and  C_16
    2  A    between atoms: N_5  and  C_31
    3  A    between atoms: O_6  and  C_9
    4  A    between atoms: O_6  and  C_22
    5  A    between atoms: C_8  and  C_25
    6  A    between atoms: C_9  and  C_29
    7  A    between atoms: C_11  and  C_22
    8  A    between atoms: C_16  and  C_22
    9  A    between atoms: C_21  and  C_27
   10  A    between atoms: C_29  and  C_31
                            x       y       z     vdW  Elec       q    Type
                         _______ _______ _______ _____ _____    ______ ____

>  <TORSDO>
F 10

$$$$
=
 OpenBabel10232411513D

 31 34  0  0  1  0  0  0  0  0999 V2000
  189.6350  176.9530  142.3540 C   0  0  0  0  0  2  0  0  0  0  0  0
  189.2090  177.9420  143.2430 O   0  0  0  0  0  0  0  0  0  0  0  0
  189.2900  177.3500  144.5080 C   0  0  2  0  0  3  0  0  0  0  0  0
  186.8330  177.2010  144.6820 C   0  0  0  0  0  3  0  0  0  0  0  0
  188.0000  177.5230  145.2530 C   0  0  0  0  0  0  0  0  0  0  0  0
  185.4960  177.3420  145.3710 C   0  0  0  0  0  0  0  0  0  0  0  0
  183.6570  179.0530  145.5590 N   0  0  0  0  0  1  0  0  0  0  0  0
  185.5420  177.9690  146.7910 C   0  0  0  0  0  0  0  0  0  0  0  0
  188.0380  178.1080  146.5970 C   0  0  0  0  0  3  0  0  0  0  0  0
  185.0840  178.7900  145.5940 C   0  0  1  0  0  0  0  0  0  0  0  0
  185.9250  179.8180  145.1530 O   0  0  0  0  0  1  0  0  0  0  0  0
  186.9240  178.3260  147.2920 C   0  0  0  0  0  3  0  0  0  0  0  0
  190.4570  177.9510  145.2830 C   0  0  0  0  0  2  0  0  0  0  0  0
  191.8750  176.8420  147.0100 O   0  0  0  0  0  1  0  0  0  0  0  0
  191.4200  176.8890  145.6970 C   0  0  0  0  0  0  0  0  0  0  0  0
  191.7970  176.0210  144.8680 O   0  0  0  0  0  0  0  0  0  0  0  0
  189.6120  177.4850  140.9280 C   0  0  0  0  0  2  0  0  0  0  0  0
  188.3950  178.3690  140.6890 C   0  0  0  0  0  2  0  0  0  0  0  0
  188.2380  178.6330  139.2700 N   0  0  0  0  0  0  0  0  0  0  0  0
  187.3990  177.5490  138.7330 C   0  0  2  0  0  3  0  0  0  0  0  0
  188.8640  177.5060  138.5620 C   0  0  1  0  0  3  0  0  0  0  0  0
  185.6610  179.0670  137.8240 O   0  0  0  0  0  0  0  0  0  0  0  0
  182.9150  177.0160  138.8040 O   0  0  0  0  0  0  0  0  0  0  0  0
  183.7280  179.7160  139.0660 C   0  0  0  0  0  1  0  0  0  0  0  0
  184.0240  177.3580  138.3150 C   0  0  0  0  0  0  0  0  0  0  0  0
  184.7220  178.6070  138.7780 C   0  0  1  0  0  3  0  0  0  0  0  0
  185.9330  176.9040  136.7520 C   0  0  0  0  0  2  0  0  0  0  0  0
  186.5990  178.0500  137.5160 C   0  0  2  0  0  3  0  0  0  0  0  0
  184.6900  176.4930  137.3960 N   0  0  0  0  0  2  0  0  0  0  0  0
  190.0390  176.8410  136.4740 C   0  0  0  0  0  1  0  0  0  0  0  0
  189.3940  177.9930  137.2180 C   0  0  0  0  0  2  0  0  0  0  0  0
  1  2  1  0  0  0  0
  2  3  1  0  0  0  0
  3  5  1  0  0  0  0
  3 13  1  1  0  0  0
  4  5  2  0  0  0  0
  4  6  1  0  0  0  0
  5  9  1  0  0  0  0
  6 10  1  0  0  0  0
  6  8  2  0  0  0  0
  7 10  1  0  0  0  0
  8 12  1  0  0  0  0
  9 12  2  0  0  0  0
 10 11  1  6  0  0  0
 10  8  1  0  0  0  0
 13 15  1  0  0  0  0
 15 14  1  0  0  0  0
 16 15  2  0  0  0  0
 17  1  1  0  0  0  0
 18 17  1  0  0  0  0
 19 18  1  0  0  0  0
 20 19  1  1  0  0  0
 21 31  1  6  0  0  0
 21 20  1  0  0  0  0
 21 19  1  0  0  0  0
 22 26  1  0  0  0  0
 25 26  1  0  0  0  0
 25 23  2  0  0  0  0
 26 24  1  6  0  0  0
 27 29  1  0  0  0  0
 28 27  1  1  0  0  0
 28 22  1  0  0  0  0
 28 20  1  0  0  0  0
 29 25  1  0  0  0  0
 30 31  1  0  0  0  0
M  END
>  <MODEL>
2

>  <REMARK>
 VINA RESULT:      -7.2      2.396      7.856
  Name = 
  10 active torsions:
  status: ('A' for Active; 'I' for Inactive)
    1  A    between atoms: C_4  and  C_16
    2  A    between atoms: N_5  and  C_31
    3  A    between atoms: O_6  and  C_9
    4  A    between atoms: O_6  and  C_22
    5  A    between atoms: C_8  and  C_25
    6  A    between atoms: C_9  and  C_29
    7  A    between atoms: C_11  and  C_22
    8  A    between atoms: C_16  and  C_22
    9  A    between atoms: C_21  and  C_27
   10  A    between atoms: C_29  and  C_31
                            x       y       z     vdW  Elec       q    Type
                         _______ _______ _______ _____ _____    ______ ____

>  <TORSDO>
F 10

$$$$
=
 OpenBabel10232411513D

 31 34  0  0  1  0  0  0  0  0999 V2000
  185.4390  178.8050  142.3110 C   0  0  0  0  0  2  0  0  0  0  0  0
  185.6300  177.6340  143.0480 O   0  0  0  0  0  0  0  0  0  0  0  0
  186.2690  178.0470  144.2220 C   0  0  2  0  0  3  0  0  0  0  0  0
  188.5180  177.9170  145.2310 C   0  0  0  0  0  3  0  0  0  0  0  0
  187.6820  177.5410  144.2570 C   0  0  0  0  0  0  0  0  0  0  0  0
  189.9490  177.4460  145.3350 C   0  0  0  0  0  0  0  0  0  0  0  0
  192.2330  178.2180  144.6040 N   0  0  0  0  0  1  0  0  0  0  0  0
  190.4350  176.5350  144.1750 C   0  0  0  0  0  0  0  0  0  0  0  0
  188.1450  176.6750  143.1680 C   0  0  0  0  0  3  0  0  0  0  0  0
  190.8450  177.9990  144.2370 C   0  0  1  0  0  0  0  0  0  0  0  0
  190.3030  178.8650  143.2800 O   0  0  0  0  0  1  0  0  0  0  0  0
  189.3970  176.2290  143.1190 C   0  0  0  0  0  3  0  0  0  0  0  0
  185.4820  177.5630  145.4340 C   0  0  0  0  0  2  0  0  0  0  0  0
  185.5700  179.3780  147.1430 O   0  0  0  0  0  1  0  0  0  0  0  0
  184.8580  178.7130  146.1520 C   0  0  0  0  0  0  0  0  0  0  0  0
  183.7000  179.0960  145.8430 O   0  0  0  0  0  0  0  0  0  0  0  0
  184.0690  178.7880  141.6470 C   0  0  0  0  0  2  0  0  0  0  0  0
  184.1750  179.0860  140.1570 C   0  0  0  0  0  2  0  0  0  0  0  0
  184.4600  177.8680  139.4210 N   0  0  0  0  0  0  0  0  0  0  0  0
  184.8810  178.2820  138.0730 C   0  0  2  0  0  3  0  0  0  0  0  0
  183.5010  177.8180  138.3080 C   0  0  1  0  0  3  0  0  0  0  0  0
  186.9490  176.9330  138.3070 O   0  0  0  0  0  0  0  0  0  0  0  0
  189.1460  179.5590  137.3140 O   0  0  0  0  0  0  0  0  0  0  0  0
  188.8890  177.7210  139.4540 C   0  0  0  0  0  1  0  0  0  0  0  0
  188.1650  178.7690  137.3100 C   0  0  0  0  0  0  0  0  0  0  0  0
  187.7090  178.0960  138.5760 C   0  0  1  0  0  3  0  0  0  0  0  0
  186.3090  177.6260  136.0680 C   0  0  0  0  0  2  0  0  0  0  0  0
  185.8440  177.2400  137.4730 C   0  0  2  0  0  3  0  0  0  0  0  0
  187.3970  178.5970  136.1200 N   0  0  0  0  0  2  0  0  0  0  0  0
  182.5180  175.6820  139.1170 C   0  0  0  0  0  1  0  0  0  0  0  0
  183.2180  176.3610  137.9580 C   0  0  0  0  0  2  0  0  0  0  0  0
  1  2  1  0  0  0  0
  2  3  1  0  0  0  0
  3  5  1  0  0  0  0
  3 13  1  1  0  0  0
  4  6  1  0  0  0  0
  5  4  2  0  0  0  0
  8 10  1  0  0  0  0
  8  6  2  0  0  0  0
  9  5  1  0  0  0  0
 10 11  1  6  0  0  0
 10  7  1  0  0  0  0
 10  6  1  0  0  0  0
 12  9  2  0  0  0  0
 12  8  1  0  0  0  0
 13 15  1  0  0  0  0
 15 14  1  0  0  0  0
 16 15  2  0  0  0  0
 17  1  1  0  0  0  0
 18 17  1  0  0  0  0
 19 18  1  0  0  0  0
 20 21  1  0  0  0  0
 20 19  1  1  0  0  0
 21 31  1  6  0  0  0
 21 19  1  0  0  0  0
 22 26  1  0  0  0  0
 25 23  2  0  0  0  0
 25 26  1  0  0  0  0
 26 24  1  1  0  0  0
 27 29  1  0  0  0  0
 28 27  1  6  0  0  0
 28 20  1  0  0  0  0
 28 22  1  0  0  0  0
 29 25  1  0  0  0  0
 31 30  1  0  0  0  0
M  END
>  <MODEL>
3

>  <REMARK>
 VINA RESULT:      -7.2      2.444      8.080
  Name = 
  10 active torsions:
  status: ('A' for Active; 'I' for Inactive)
    1  A    between atoms: C_4  and  C_16
    2  A    between atoms: N_5  and  C_31
    3  A    between atoms: O_6  and  C_9
    4  A    between atoms: O_6  and  C_22
    5  A    between atoms: C_8  and  C_25
    6  A    between atoms: C_9  and  C_29
    7  A    between atoms: C_11  and  C_22
    8  A    between atoms: C_16  and  C_22
    9  A    between atoms: C_21  and  C_27
   10  A    between atoms: C_29  and  C_31
                            x       y       z     vdW  Elec       q    Type
                         _______ _______ _______ _____ _____    ______ ____

>  <TORSDO>
F 10

$$$$
=
 OpenBabel10232411513D

 31 34  0  0  1  0  0  0  0  0999 V2000
  187.9360  177.9600  139.1270 C   0  0  0  0  0  2  0  0  0  0  0  0
  188.7600  178.6370  140.0290 O   0  0  0  0  0  0  0  0  0  0  0  0
  187.9780  178.8040  141.1770 C   0  0  2  0  0  3  0  0  0  0  0  0
  189.9700  178.2960  142.5420 C   0  0  0  0  0  3  0  0  0  0  0  0
  188.6490  178.1810  142.3660 C   0  0  0  0  0  0  0  0  0  0  0  0
  190.7140  177.7030  143.7150 C   0  0  0  0  0  0  0  0  0  0  0  0
  191.9510  175.5790  144.2670 N   0  0  0  0  0  1  0  0  0  0  0  0
  189.8490  176.8630  144.6940 C   0  0  0  0  0  0  0  0  0  0  0  0
  187.8370  177.3920  143.2970 C   0  0  0  0  0  3  0  0  0  0  0  0
  190.7650  176.1820  143.6870 C   0  0  1  0  0  0  0  0  0  0  0  0
  190.1640  175.4950  142.6260 O   0  0  0  0  0  1  0  0  0  0  0  0
  188.3800  176.7800  144.3460 C   0  0  0  0  0  3  0  0  0  0  0  0
  186.5960  178.2040  140.9490 C   0  0  0  0  0  2  0  0  0  0  0  0
  184.8180  179.6930  140.0280 O   0  0  0  0  0  0  0  0  0  0  0  0
  185.5340  179.2380  141.1290 C   0  0  0  0  0  0  0  0  0  0  0  0
  185.2690  179.6760  142.2780 O   0  0  0  0  0  1  0  0  0  0  0  0
  188.2680  178.3760  137.7000 C   0  0  0  0  0  2  0  0  0  0  0  0
  187.9200  177.2730  136.7100 C   0  0  0  0  0  2  0  0  0  0  0  0
  188.2990  175.9780  137.2480 N   0  0  0  0  0  0  0  0  0  0  0  0
  189.5170  175.5680  136.5290 C   0  0  2  0  0  3  0  0  0  0  0  0
  188.2040  175.0190  136.1380 C   0  0  1  0  0  3  0  0  0  0  0  0
  190.7680  175.2590  138.6480 O   0  0  0  0  0  0  0  0  0  0  0  0
  193.6930  176.9640  137.5300 O   0  0  0  0  0  0  0  0  0  0  0  0
  191.9250  177.0390  139.7420 C   0  0  0  0  0  1  0  0  0  0  0  0
  192.7120  176.1740  137.5400 C   0  0  0  0  0  0  0  0  0  0  0  0
  191.5140  176.4380  138.4100 C   0  0  1  0  0  3  0  0  0  0  0  0
  191.5930  174.1000  136.6780 C   0  0  0  0  0  2  0  0  0  0  0  0
  190.3800  174.6580  137.4240 C   0  0  2  0  0  3  0  0  0  0  0  0
  192.6770  175.0770  136.6290 N   0  0  0  0  0  2  0  0  0  0  0  0
  186.4270  173.6290  137.1840 C   0  0  0  0  0  1  0  0  0  0  0  0
  187.8620  173.6420  136.6950 C   0  0  0  0  0  2  0  0  0  0  0  0
  1  2  1  0  0  0  0
  2  3  1  0  0  0  0
  3 13  1  6  0  0  0
  3  5  1  0  0  0  0
  4  6  1  0  0  0  0
  5  4  2  0  0  0  0
  5  9  1  0  0  0  0
  6  8  2  0  0  0  0
  9 12  2  0  0  0  0
 10 11  1  6  0  0  0
 10  6  1  0  0  0  0
 10  7  1  0  0  0  0
 10  8  1  0  0  0  0
 12  8  1  0  0  0  0
 13 15  1  0  0  0  0
 14 15  2  0  0  0  0
 15 16  1  0  0  0  0
 17  1  1  0  0  0  0
 18 19  1  0  0  0  0
 18 17  1  0  0  0  0
 20 19  1  1  0  0  0
 20 28  1  0  0  0  0
 21 20  1  0  0  0  0
 21 31  1  1  0  0  0
 21 19  1  0  0  0  0
 23 25  2  0  0  0  0
 25 26  1  0  0  0  0
 26 22  1  0  0  0  0
 26 24  1  1  0  0  0
 28 27  1  6  0  0  0
 28 22  1  0  0  0  0
 29 27  1  0  0  0  0
 29 25  1  0  0  0  0
 31 30  1  0  0  0  0
M  END
>  <MODEL>
4

>  <REMARK>
 VINA RESULT:      -7.1      3.474      7.624
  Name = 
  10 active torsions:
  status: ('A' for Active; 'I' for Inactive)
    1  A    between atoms: C_4  and  C_16
    2  A    between atoms: N_5  and  C_31
    3  A    between atoms: O_6  and  C_9
    4  A    between atoms: O_6  and  C_22
    5  A    between atoms: C_8  and  C_25
    6  A    between atoms: C_9  and  C_29
    7  A    between atoms: C_11  and  C_22
    8  A    between atoms: C_16  and  C_22
    9  A    between atoms: C_21  and  C_27
   10  A    between atoms: C_29  and  C_31
                            x       y       z     vdW  Elec       q    Type
                         _______ _______ _______ _____ _____    ______ ____

>  <TORSDO>
F 10

$$$$
=
 OpenBabel10232411513D

 31 34  0  0  1  0  0  0  0  0999 V2000
  190.6210  177.9990  143.0010 C   0  0  0  0  0  2  0  0  0  0  0  0
  189.4160  178.3190  143.6300 O   0  0  0  0  0  0  0  0  0  0  0  0
  189.3660  177.4920  144.7570 C   0  0  2  0  0  3  0  0  0  0  0  0
  186.9090  177.2680  144.8080 C   0  0  0  0  0  3  0  0  0  0  0  0
  188.0360  177.6140  145.4400 C   0  0  0  0  0  0  0  0  0  0  0  0
  185.5360  177.3580  145.4320 C   0  0  0  0  0  0  0  0  0  0  0  0
  183.6400  179.0120  145.5560 N   0  0  0  0  0  1  0  0  0  0  0  0
  185.4950  177.9610  146.8620 C   0  0  0  0  0  0  0  0  0  0  0  0
  187.9910  178.1760  146.7940 C   0  0  0  0  0  3  0  0  0  0  0  0
  185.0710  178.7890  145.6570 C   0  0  1  0  0  0  0  0  0  0  0  0
  185.9020  179.8490  145.2750 O   0  0  0  0  0  1  0  0  0  0  0  0
  186.8390  178.3500  147.4360 C   0  0  0  0  0  3  0  0  0  0  0  0
  190.5060  177.8440  145.7050 C   0  0  0  0  0  2  0  0  0  0  0  0
  192.0090  175.8720  145.4320 O   0  0  0  0  0  0  0  0  0  0  0  0
  191.1510  176.6080  146.2400 C   0  0  0  0  0  0  0  0  0  0  0  0
  190.9390  176.2500  147.4270 O   0  0  0  0  0  1  0  0  0  0  0  0
  190.4460  176.7620  142.1310 C   0  0  0  0  0  2  0  0  0  0  0  0
  190.5120  177.1150  140.6510 C   0  0  0  0  0  2  0  0  0  0  0  0
  189.1930  177.0180  140.0540 N   0  0  0  0  0  0  0  0  0  0  0  0
  189.2580  177.7470  138.7760 C   0  0  2  0  0  3  0  0  0  0  0  0
  188.6710  178.3900  139.9670 C   0  0  1  0  0  3  0  0  0  0  0  0
  188.3740  175.7500  137.6000 O   0  0  0  0  0  0  0  0  0  0  0  0
  190.9120  175.7170  135.0970 O   0  0  0  0  0  0  0  0  0  0  0  0
  189.7530  173.9130  136.9470 C   0  0  0  0  0  1  0  0  0  0  0  0
  190.0120  176.1440  135.8660 C   0  0  0  0  0  0  0  0  0  0  0  0
  189.6690  175.4160  137.1370 C   0  0  1  0  0  3  0  0  0  0  0  0
  188.2840  177.8760  136.4260 C   0  0  0  0  0  2  0  0  0  0  0  0
  188.2520  177.1520  137.7730 C   0  0  2  0  0  3  0  0  0  0  0  0
  189.3870  177.3980  135.5970 N   0  0  0  0  0  2  0  0  0  0  0  0
  186.7160  178.7450  141.4620 C   0  0  0  0  0  1  0  0  0  0  0  0
  187.1500  178.3530  140.0640 C   0  0  0  0  0  2  0  0  0  0  0  0
  1  2  1  0  0  0  0
  2  3  1  0  0  0  0
  3  5  1  0  0  0  0
  3 13  1  1  0  0  0
  4  6  2  3  0  0  0
  4  5  1  0  0  0  0
  5  9  2  0  0  0  0
  6 10  1  0  0  0  0
  6  8  1  0  0  0  0
  7 10  1  0  0  0  0
  8 12  2  3  0  0  0
  9 12  1  0  0  0  0
 10 11  1  6  0  0  0
 10  8  1  0  0  0  0
 13 15  1  0  0  0  0
 14 15  2  0  0  0  0
 15 16  1  0  0  0  0
 17  1  1  0  0  0  0
 18 17  1  0  0  0  0
 19 18  1  0  0  0  0
 20 21  1  0  0  0  0
 20 19  1  1  0  0  0
 21 19  1  0  0  0  0
 21 31  1  6  0  0  0
 22 28  1  0  0  0  0
 23 25  2  0  0  0  0
 25 26  1  0  0  0  0
 26 24  1  6  0  0  0
 26 22  1  0  0  0  0
 28 27  1  6  0  0  0
 28 20  1  0  0  0  0
 29 25  1  0  0  0  0
 29 27  1  0  0  0  0
 31 30  1  0  0  0  0
M  END
>  <MODEL>
5

>  <REMARK>
 VINA RESULT:      -7.1      2.975      7.479
  Name = 
  10 active torsions:
  status: ('A' for Active; 'I' for Inactive)
    1  A    between atoms: C_4  and  C_16
    2  A    between atoms: N_5  and  C_31
    3  A    between atoms: O_6  and  C_9
    4  A    between atoms: O_6  and  C_22
    5  A    between atoms: C_8  and  C_25
    6  A    between atoms: C_9  and  C_29
    7  A    between atoms: C_11  and  C_22
    8  A    between atoms: C_16  and  C_22
    9  A    between atoms: C_21  and  C_27
   10  A    between atoms: C_29  and  C_31
                            x       y       z     vdW  Elec       q    Type
                         _______ _______ _______ _____ _____    ______ ____

>  <TORSDO>
F 10

$$$$
=
 OpenBabel10232411513D

 31 34  0  0  1  0  0  0  0  0999 V2000
  191.0500  177.2500  141.5340 C   0  0  0  0  0  2  0  0  0  0  0  0
  190.4120  176.4970  140.5460 O   0  0  0  0  0  0  0  0  0  0  0  0
  190.7800  177.1000  139.3380 C   0  0  2  0  0  3  0  0  0  0  0  0
  188.3600  177.5620  139.1810 C   0  0  0  0  0  3  0  0  0  0  0  0
  189.5640  177.5750  138.5970 C   0  0  0  0  0  0  0  0  0  0  0  0
  187.0950  178.0290  138.5010 C   0  0  0  0  0  0  0  0  0  0  0  0
  185.2160  177.0310  137.1500 N   0  0  0  0  0  1  0  0  0  0  0  0
  187.2580  178.4670  137.0200 C   0  0  0  0  0  0  0  0  0  0  0  0
  189.7140  177.9970  137.2010 C   0  0  0  0  0  3  0  0  0  0  0  0
  186.6500  177.1160  137.3670 C   0  0  1  0  0  0  0  0  0  0  0  0
  187.4000  175.9720  137.0720 O   0  0  0  0  0  1  0  0  0  0  0  0
  188.6680  178.3880  136.4780 C   0  0  0  0  0  3  0  0  0  0  0  0
  191.5880  176.1190  138.4980 C   0  0  0  0  0  2  0  0  0  0  0  0
  193.7030  176.9620  139.5170 O   0  0  0  0  0  1  0  0  0  0  0  0
  193.0070  176.5670  138.3810 C   0  0  0  0  0  0  0  0  0  0  0  0
  193.5800  176.5600  137.2610 O   0  0  0  0  0  0  0  0  0  0  0  0
  190.0240  178.0380  142.3370 C   0  0  0  0  0  2  0  0  0  0  0  0
  190.4920  178.2510  143.7700 C   0  0  0  0  0  2  0  0  0  0  0  0
  189.8030  177.3380  144.6640 N   0  0  0  0  0  0  0  0  0  0  0  0
  188.8440  178.1480  145.4320 C   0  0  2  0  0  3  0  0  0  0  0  0
  190.1350  177.7600  146.0320 C   0  0  1  0  0  3  0  0  0  0  0  0
  186.7870  176.9370  144.7600 O   0  0  0  0  0  0  0  0  0  0  0  0
  184.7250  179.8450  144.6900 O   0  0  0  0  0  0  0  0  0  0  0  0
  185.3680  177.6750  142.9870 C   0  0  0  0  0  1  0  0  0  0  0  0
  185.5620  178.9950  145.0930 C   0  0  0  0  0  0  0  0  0  0  0  0
  186.2810  178.0950  144.1240 C   0  0  1  0  0  3  0  0  0  0  0  0
  186.8310  177.9300  146.9780 C   0  0  0  0  0  2  0  0  0  0  0  0
  187.6320  177.2900  145.8420 C   0  0  2  0  0  3  0  0  0  0  0  0
  185.9280  178.9590  146.4710 N   0  0  0  0  0  2  0  0  0  0  0  0
  191.5210  176.1300  147.2990 C   0  0  0  0  0  1  0  0  0  0  0  0
  190.1060  176.5440  146.9510 C   0  0  0  0  0  2  0  0  0  0  0  0
  1 17  1  0  0  0  0
  2  1  1  0  0  0  0
  3 13  1  6  0  0  0
  3  2  1  0  0  0  0
  5  4  1  0  0  0  0
  5  3  1  0  0  0  0
  6  4  2  3  0  0  0
  7 10  1  0  0  0  0
  8 10  1  0  0  0  0
  8  6  1  0  0  0  0
  9  5  2  0  0  0  0
 10 11  1  6  0  0  0
 10  6  1  0  0  0  0
 12  8  2  3  0  0  0
 12  9  1  0  0  0  0
 15 13  1  0  0  0  0
 15 14  1  0  0  0  0
 16 15  2  0  0  0  0
 17 18  1  0  0  0  0
 18 19  1  0  0  0  0
 19 21  1  0  0  0  0
 20 19  1  6  0  0  0
 20 28  1  0  0  0  0
 20 21  1  0  0  0  0
 21 31  1  1  0  0  0
 22 28  1  0  0  0  0
 23 25  2  0  0  0  0
 25 29  1  0  0  0  0
 26 24  1  6  0  0  0
 26 22  1  0  0  0  0
 26 25  1  0  0  0  0
 28 27  1  1  0  0  0
 29 27  1  0  0  0  0
 31 30  1  0  0  0  0
M  END
>  <MODEL>
6

>  <REMARK>
 VINA RESULT:      -6.9      2.665      4.532
  Name = 
  10 active torsions:
  status: ('A' for Active; 'I' for Inactive)
    1  A    between atoms: C_4  and  C_16
    2  A    between atoms: N_5  and  C_31
    3  A    between atoms: O_6  and  C_9
    4  A    between atoms: O_6  and  C_22
    5  A    between atoms: C_8  and  C_25
    6  A    between atoms: C_9  and  C_29
    7  A    between atoms: C_11  and  C_22
    8  A    between atoms: C_16  and  C_22
    9  A    between atoms: C_21  and  C_27
   10  A    between atoms: C_29  and  C_31
                            x       y       z     vdW  Elec       q    Type
                         _______ _______ _______ _____ _____    ______ ____

>  <TORSDO>
F 10

$$$$
=
 OpenBabel10232411513D

 31 34  0  0  1  0  0  0  0  0999 V2000
  189.3320  178.3840  142.6650 C   0  0  0  0  0  2  0  0  0  0  0  0
  188.6200  177.2210  142.3630 O   0  0  0  0  0  0  0  0  0  0  0  0
  187.8760  177.5380  141.2220 C   0  0  2  0  0  3  0  0  0  0  0  0
  188.4920  178.3130  138.9600 C   0  0  0  0  0  3  0  0  0  0  0  0
  188.7480  177.5120  140.0010 C   0  0  0  0  0  0  0  0  0  0  0  0
  189.3270  178.3470  137.7020 C   0  0  0  0  0  0  0  0  0  0  0  0
  189.3350  177.2570  135.4310 N   0  0  0  0  0  1  0  0  0  0  0  0
  190.4890  177.3170  137.6480 C   0  0  0  0  0  0  0  0  0  0  0  0
  189.8510  176.5470  139.9470 C   0  0  0  0  0  3  0  0  0  0  0  0
  189.2040  177.0810  136.8660 C   0  0  1  0  0  0  0  0  0  0  0  0
  188.3610  176.0510  137.3000 O   0  0  0  0  0  1  0  0  0  0  0  0
  190.6330  176.4450  138.8760 C   0  0  0  0  0  3  0  0  0  0  0  0
  187.2200  178.9020  141.3990 C   0  0  0  0  0  2  0  0  0  0  0  0
  184.9540  177.9810  141.8920 O   0  0  0  0  0  1  0  0  0  0  0  0
  185.7540  178.8230  141.1290 C   0  0  0  0  0  0  0  0  0  0  0  0
  185.2390  179.5370  140.2300 O   0  0  0  0  0  0  0  0  0  0  0  0
  190.7790  178.0430  142.9920 C   0  0  0  0  0  2  0  0  0  0  0  0
  191.0860  178.2980  144.4620 C   0  0  0  0  0  2  0  0  0  0  0  0
  190.5910  177.2010  145.2740 N   0  0  0  0  0  0  0  0  0  0  0  0
  189.9220  177.8110  146.4350 C   0  0  2  0  0  3  0  0  0  0  0  0
  191.2940  177.2830  146.5620 C   0  0  1  0  0  3  0  0  0  0  0  0
  187.7020  176.7690  146.0610 O   0  0  0  0  0  0  0  0  0  0  0  0
  185.8410  179.6290  147.0970 O   0  0  0  0  0  0  0  0  0  0  0  0
  185.9380  177.8660  144.8820 C   0  0  0  0  0  1  0  0  0  0  0  0
  186.7040  178.7120  147.0980 C   0  0  0  0  0  0  0  0  0  0  0  0
  187.1190  178.0370  145.8190 C   0  0  1  0  0  3  0  0  0  0  0  0
  188.3330  177.2730  148.3530 C   0  0  0  0  0  2  0  0  0  0  0  0
  188.8010  176.8860  146.9480 C   0  0  2  0  0  3  0  0  0  0  0  0
  187.3900  178.3860  148.3060 N   0  0  0  0  0  2  0  0  0  0  0  0
  192.7060  175.7750  147.9460 C   0  0  0  0  0  1  0  0  0  0  0  0
  191.4200  175.8830  147.1530 C   0  0  0  0  0  2  0  0  0  0  0  0
  1 17  1  0  0  0  0
  2  1  1  0  0  0  0
  3 13  1  1  0  0  0
  3  2  1  0  0  0  0
  4  5  1  0  0  0  0
  5  3  1  0  0  0  0
  6  4  2  3  0  0  0
  8  6  1  0  0  0  0
  8 12  2  3  0  0  0
  9  5  2  0  0  0  0
 10  7  1  6  0  0  0
 10 11  1  0  0  0  0
 10  8  1  0  0  0  0
 10  6  1  0  0  0  0
 12  9  1  0  0  0  0
 15 13  1  0  0  0  0
 15 14  1  0  0  0  0
 16 15  2  0  0  0  0
 17 18  1  0  0  0  0
 18 19  1  0  0  0  0
 19 21  1  0  0  0  0
 20 19  1  6  0  0  0
 20 21  1  0  0  0  0
 20 28  1  0  0  0  0
 21 31  1  1  0  0  0
 22 28  1  0  0  0  0
 23 25  2  0  0  0  0
 25 29  1  0  0  0  0
 26 24  1  6  0  0  0
 26 22  1  0  0  0  0
 26 25  1  0  0  0  0
 28 27  1  1  0  0  0
 29 27  1  0  0  0  0
 31 30  1  0  0  0  0
M  END
>  <MODEL>
7

>  <REMARK>
 VINA RESULT:      -6.9      2.476      4.949
  Name = 
  10 active torsions:
  status: ('A' for Active; 'I' for Inactive)
    1  A    between atoms: C_4  and  C_16
    2  A    between atoms: N_5  and  C_31
    3  A    between atoms: O_6  and  C_9
    4  A    between atoms: O_6  and  C_22
    5  A    between atoms: C_8  and  C_25
    6  A    between atoms: C_9  and  C_29
    7  A    between atoms: C_11  and  C_22
    8  A    between atoms: C_16  and  C_22
    9  A    between atoms: C_21  and  C_27
   10  A    between atoms: C_29  and  C_31
                            x       y       z     vdW  Elec       q    Type
                         _______ _______ _______ _____ _____    ______ ____

>  <TORSDO>
F 10

$$$$
=
 OpenBabel10232411513D

 31 34  0  0  1  0  0  0  0  0999 V2000
  191.0760  177.1410  141.9500 C   0  0  0  0  0  2  0  0  0  0  0  0
  191.2770  177.7530  140.7110 O   0  0  0  0  0  0  0  0  0  0  0  0
  190.1880  177.3520  139.9300 C   0  0  2  0  0  3  0  0  0  0  0  0
  189.7930  176.6010  137.6120 C   0  0  0  0  0  3  0  0  0  0  0  0
  190.6580  176.8110  138.6110 C   0  0  0  0  0  0  0  0  0  0  0  0
  190.1920  176.0660  136.2570 C   0  0  0  0  0  0  0  0  0  0  0  0
  190.3520  173.8340  135.0990 N   0  0  0  0  0  1  0  0  0  0  0  0
  191.6920  175.6890  136.1060 C   0  0  0  0  0  0  0  0  0  0  0  0
  192.0730  176.4600  138.4610 C   0  0  0  0  0  3  0  0  0  0  0  0
  190.6340  174.6100  136.2930 C   0  0  1  0  0  0  0  0  0  0  0  0
  190.6210  173.9190  137.5100 O   0  0  0  0  0  1  0  0  0  0  0  0
  192.5430  175.9370  137.3320 C   0  0  0  0  0  3  0  0  0  0  0  0
  189.2350  178.5250  139.7350 C   0  0  0  0  0  2  0  0  0  0  0  0
  186.7680  178.7760  140.0110 O   0  0  0  0  0  0  0  0  0  0  0  0
  187.9800  178.3230  140.5180 C   0  0  0  0  0  0  0  0  0  0  0  0
  188.0160  177.7210  141.6220 O   0  0  0  0  0  1  0  0  0  0  0  0
  191.6350  178.0160  143.0640 C   0  0  0  0  0  2  0  0  0  0  0  0
  190.5380  178.4490  144.0270 C   0  0  0  0  0  2  0  0  0  0  0  0
  190.1100  177.3230  144.8380 N   0  0  0  0  0  0  0  0  0  0  0  0
  189.5970  177.8860  146.0980 C   0  0  2  0  0  3  0  0  0  0  0  0
  190.9600  177.3230  146.0370 C   0  0  1  0  0  3  0  0  0  0  0  0
  187.3370  176.8800  145.9130 O   0  0  0  0  0  0  0  0  0  0  0  0
  185.6250  179.7310  147.1980 O   0  0  0  0  0  0  0  0  0  0  0  0
  185.4830  178.0280  144.9390 C   0  0  0  0  0  1  0  0  0  0  0  0
  186.4720  178.8060  147.0920 C   0  0  0  0  0  0  0  0  0  0  0  0
  186.7520  178.1600  145.7620 C   0  0  1  0  0  3  0  0  0  0  0  0
  188.1930  177.3140  148.1450 C   0  0  0  0  0  2  0  0  0  0  0  0
  188.5190  176.9610  146.6930 C   0  0  2  0  0  3  0  0  0  0  0  0
  187.2660  178.4390  148.2190 N   0  0  0  0  0  2  0  0  0  0  0  0
  192.3480  175.7870  147.4140 C   0  0  0  0  0  1  0  0  0  0  0  0
  191.1150  175.8920  146.5400 C   0  0  0  0  0  2  0  0  0  0  0  0
  1 17  1  0  0  0  0
  2  1  1  0  0  0  0
  3 13  1  6  0  0  0
  3  2  1  0  0  0  0
  4  5  1  0  0  0  0
  5  3  1  0  0  0  0
  6 10  1  0  0  0  0
  6  4  2  3  0  0  0
  8  6  1  0  0  0  0
  8 10  1  0  0  0  0
  8 12  2  3  0  0  0
  9  5  2  0  0  0  0
 10  7  1  6  0  0  0
 10 11  1  0  0  0  0
 12  9  1  0  0  0  0
 13 15  1  0  0  0  0
 14 15  2  0  0  0  0
 15 16  1  0  0  0  0
 17 18  1  0  0  0  0
 18 19  1  0  0  0  0
 19 21  1  0  0  0  0
 20 19  1  6  0  0  0
 20 28  1  0  0  0  0
 21 20  1  0  0  0  0
 21 31  1  1  0  0  0
 22 28  1  0  0  0  0
 25 23  2  0  0  0  0
 25 29  1  0  0  0  0
 26 24  1  1  0  0  0
 26 22  1  0  0  0  0
 26 25  1  0  0  0  0
 27 29  1  0  0  0  0
 28 27  1  1  0  0  0
 31 30  1  0  0  0  0
M  END
>  <MODEL>
8

>  <REMARK>
 VINA RESULT:      -6.9      3.208      5.672
  Name = 
  10 active torsions:
  status: ('A' for Active; 'I' for Inactive)
    1  A    between atoms: C_4  and  C_16
    2  A    between atoms: N_5  and  C_31
    3  A    between atoms: O_6  and  C_9
    4  A    between atoms: O_6  and  C_22
    5  A    between atoms: C_8  and  C_25
    6  A    between atoms: C_9  and  C_29
    7  A    between atoms: C_11  and  C_22
    8  A    between atoms: C_16  and  C_22
    9  A    between atoms: C_21  and  C_27
   10  A    between atoms: C_29  and  C_31
                            x       y       z     vdW  Elec       q    Type
                         _______ _______ _______ _____ _____    ______ ____

>  <TORSDO>
F 10

$$$$
=
 OpenBabel10232411513D

 31 34  0  0  1  0  0  0  0  0999 V2000
  189.7370  177.1680  141.2450 C   0  0  0  0  0  2  0  0  0  0  0  0
  190.2920  176.1910  140.4160 O   0  0  0  0  0  0  0  0  0  0  0  0
  190.7420  176.8860  139.2880 C   0  0  2  0  0  3  0  0  0  0  0  0
  188.8130  176.2680  137.8770 C   0  0  0  0  0  3  0  0  0  0  0  0
  189.5900  177.2300  138.3890 C   0  0  0  0  0  0  0  0  0  0  0  0
  187.6350  176.5370  136.9710 C   0  0  0  0  0  0  0  0  0  0  0  0
  187.1680  176.6830  134.5000 N   0  0  0  0  0  1  0  0  0  0  0  0
  187.4130  178.0270  136.5940 C   0  0  0  0  0  0  0  0  0  0  0  0
  189.3720  178.6350  138.0340 C   0  0  0  0  0  3  0  0  0  0  0  0
  188.0380  177.0580  135.6000 C   0  0  1  0  0  0  0  0  0  0  0  0
  189.3960  177.2230  135.3000 O   0  0  0  0  0  1  0  0  0  0  0  0
  188.3950  178.9990  137.2090 C   0  0  0  0  0  3  0  0  0  0  0  0
  191.7840  176.0540  138.5530 C   0  0  0  0  0  2  0  0  0  0  0  0
  193.6520  177.1940  139.7520 O   0  0  0  0  0  1  0  0  0  0  0  0
  193.1090  176.7430  138.5540 C   0  0  0  0  0  0  0  0  0  0  0  0
  193.7450  176.8910  137.4780 O   0  0  0  0  0  0  0  0  0  0  0  0
  188.8880  176.5160  142.3280 C   0  0  0  0  0  2  0  0  0  0  0  0
  187.5340  177.2020  142.4540 C   0  0  0  0  0  2  0  0  0  0  0  0
  187.5320  178.1030  143.5920 N   0  0  0  0  0  0  0  0  0  0  0  0
  187.8560  177.2850  144.7730 C   0  0  2  0  0  3  0  0  0  0  0  0
  186.4550  177.6490  144.4840 C   0  0  1  0  0  3  0  0  0  0  0  0
  189.7490  178.7680  145.3760 O   0  0  0  0  0  0  0  0  0  0  0  0
  192.0460  176.1080  145.9740 O   0  0  0  0  0  0  0  0  0  0  0  0
  191.9420  178.5050  144.4680 C   0  0  0  0  0  1  0  0  0  0  0  0
  190.9910  176.7920  146.0100 C   0  0  0  0  0  0  0  0  0  0  0  0
  190.6820  177.7990  144.9360 C   0  0  1  0  0  3  0  0  0  0  0  0
  188.8190  177.3660  147.1300 C   0  0  0  0  0  2  0  0  0  0  0  0
  188.5630  178.1440  145.8370 C   0  0  2  0  0  3  0  0  0  0  0  0
  190.0110  176.5320  147.0150 N   0  0  0  0  0  2  0  0  0  0  0  0
  184.8820  178.3770  146.2670 C   0  0  0  0  0  1  0  0  0  0  0  0
  185.9040  178.8460  145.2510 C   0  0  0  0  0  2  0  0  0  0  0  0
  1 17  1  0  0  0  0
  2  1  1  0  0  0  0
  3 13  1  6  0  0  0
  3  2  1  0  0  0  0
  4  5  1  0  0  0  0
  5  3  1  0  0  0  0
  6  4  2  3  0  0  0
  8  6  1  0  0  0  0
  8 12  2  3  0  0  0
  9  5  2  0  0  0  0
 10  7  1  6  0  0  0
 10  8  1  0  0  0  0
 10  6  1  0  0  0  0
 11 10  1  0  0  0  0
 12  9  1  0  0  0  0
 13 15  1  0  0  0  0
 15 14  1  0  0  0  0
 16 15  2  0  0  0  0
 17 18  1  0  0  0  0
 18 19  1  0  0  0  0
 19 21  1  0  0  0  0
 20 19  1  6  0  0  0
 20 28  1  0  0  0  0
 21 20  1  0  0  0  0
 21 31  1  1  0  0  0
 22 28  1  0  0  0  0
 23 25  2  0  0  0  0
 25 29  1  0  0  0  0
 26 24  1  1  0  0  0
 26 22  1  0  0  0  0
 26 25  1  0  0  0  0
 28 27  1  1  0  0  0
 29 27  1  0  0  0  0
 31 30  1  0  0  0  0
M  END
>  <MODEL>
9

>  <REMARK>
 VINA RESULT:      -6.8      2.741      3.459
  Name = 
  10 active torsions:
  status: ('A' for Active; 'I' for Inactive)
    1  A    between atoms: C_4  and  C_16
    2  A    between atoms: N_5  and  C_31
    3  A    between atoms: O_6  and  C_9
    4  A    between atoms: O_6  and  C_22
    5  A    between atoms: C_8  and  C_25
    6  A    between atoms: C_9  and  C_29
    7  A    between atoms: C_11  and  C_22
    8  A    between atoms: C_16  and  C_22
    9  A    between atoms: C_21  and  C_27
   10  A    between atoms: C_29  and  C_31
                            x       y       z     vdW  Elec       q    Type
                         _______ _______ _______ _____ _____    ______ ____

>  <TORSDO>
F 10

$$$$
