=
 OpenBabel10232409563D

 34 38  0  0  1  0  0  0  0  0999 V2000
  190.5000  178.0030  148.1910 N   0  0  0  0  0  0  0  0  0  0  0  0
  191.6460  176.8030  146.5100 N   0  0  0  0  0  2  0  0  0  0  0  0
  187.9470  177.3040  148.0000 S   0  0  0  0  0  0  0  0  0  0  0  0
  190.7990  177.2560  141.9940 C   0  0  0  0  0  0  0  0  0  0  0  0
  190.4530  177.2380  147.1580 C   0  0  0  0  0  0  0  0  0  0  0  0
  189.2160  178.3740  148.7510 C   0  0  0  0  0  2  0  0  0  0  0  0
  190.9260  176.5770  144.2040 C   0  0  0  0  0  0  0  0  0  0  0  0
  189.6830  177.2330  144.2260 C   0  0  0  0  0  0  0  0  0  0  0  0
  191.5740  175.9010  145.3700 C   0  0  0  0  0  2  0  0  0  0  0  0
  189.1130  176.8170  146.6750 C   0  0  2  0  0  3  0  0  0  0  0  0
  189.3800  177.8430  142.6810 S   0  0  0  0  0  0  0  0  0  0  0  0
  191.5480  176.5860  142.9470 C   0  0  0  0  0  3  0  0  0  0  0  0
  188.8170  177.4350  145.3680 N   0  0  0  0  0  0  0  0  0  0  0  0
  191.2020  177.4360  140.6360 N   0  0  0  0  0  2  0  0  0  0  0  0
  190.6580  176.6250  139.5620 C   0  0  0  0  0  2  0  0  0  0  0  0
  188.3370  177.0840  138.1900 C   0  0  1  0  0  3  0  0  0  0  0  0
  190.5710  177.4640  138.2800 C   0  0  2  0  0  3  0  0  0  0  0  0
  187.8610  175.9040  136.0810 C   0  0  0  0  0  1  0  0  0  0  0  0
  188.6350  175.9510  137.3200 N   0  0  0  0  0  0  0  0  0  0  0  0
  189.4810  177.1760  137.2290 C   0  0  1  0  0  0  0  0  0  0  0  0
  190.7850  176.5990  137.2430 O   0  0  0  0  0  0  0  0  0  0  0  0
  187.4170  179.1740  137.0830 N   0  0  0  0  0  1  0  0  0  0  0  0
  185.9890  177.5720  137.9680 O   0  0  0  0  0  0  0  0  0  0  0  0
  187.1740  177.9500  137.7700 C   0  0  0  0  0  0  0  0  0  0  0  0
  187.6200  178.2570  145.1910 C   0  0  0  0  0  2  0  0  0  0  0  0
  186.5200  177.4440  144.5290 C   0  0  0  0  0  2  0  0  0  0  0  0
  185.5560  178.3650  143.7960 C   0  0  0  0  0  2  0  0  0  0  0  0
  185.0860  177.7350  142.4910 C   0  0  0  0  0  2  0  0  0  0  0  0
  184.9360  178.7630  141.4220 C   0  0  0  0  0  0  0  0  0  0  0  0
  182.2660  179.5250  138.7280 C   0  0  0  0  0  1  0  0  0  0  0  0
  185.8210  179.6490  141.2750 O   0  0  0  0  0  0  0  0  0  0  0  0
  183.7810  178.7300  140.5770 N   0  0  0  0  0  2  0  0  0  0  0  0
  183.5580  179.5960  139.4590 C   0  0  0  0  0  0  0  0  0  0  0  0
  184.4430  180.4060  139.0770 O   0  0  0  0  0  0  0  0  0  0  0  0
  1  6  1  0  0  0  0
  2  5  1  0  0  0  0
  3  6  1  0  0  0  0
  4 11  1  0  0  0  0
  4 12  2  0  0  0  0
  5  1  2  0  0  0  0
  7  8  2  0  0  0  0
  7  9  1  0  0  0  0
  8 13  1  0  0  0  0
  9  2  1  0  0  0  0
 10  5  1  1  0  0  0
 10  3  1  0  0  0  0
 11  8  1  0  0  0  0
 12  7  1  0  0  0  0
 13 10  1  0  0  0  0
 14  4  1  0  0  0  0
 15 14  1  0  0  0  0
 16 24  1  6  0  0  0
 17 15  1  1  0  0  0
 18 19  1  0  0  0  0
 19 16  1  0  0  0  0
 20 21  1  6  0  0  0
 20 19  1  0  0  0  0
 20 16  1  0  0  0  0
 20 17  1  0  0  0  0
 21 17  1  0  0  0  0
 22 24  1  0  0  0  0
 24 23  2  0  0  0  0
 25 13  1  0  0  0  0
 26 25  1  0  0  0  0
 27 26  1  0  0  0  0
 28 27  1  0  0  0  0
 29 28  1  0  0  0  0
 30 33  1  0  0  0  0
 31 29  2  0  0  0  0
 32 29  1  0  0  0  0
 33 32  1  0  0  0  0
 34 33  2  0  0  0  0
M  END
>  <MODEL>
1

>  <REMARK>
 VINA RESULT:      -7.8      0.000      0.000
  Name = 
  9 active torsions:
  status: ('A' for Active; 'I' for Inactive)
    1  A    between atoms: C_1  and  C_9
    2  A    between atoms: C_1  and  N_13
    3  A    between atoms: C_2  and  C_10
    4  A    between atoms: C_5  and  C_12
    5  A    between atoms: C_5  and  C_30
    6  A    between atoms: C_7  and  N_13
    7  A    between atoms: C_8  and  C_34
    8  A    between atoms: C_10  and  C_12
    9  A    between atoms: C_30  and  N_32
                            x       y       z     vdW  Elec       q    Type
                         _______ _______ _______ _____ _____    ______ ____

>  <TORSDO>
F 9

$$$$
=
 OpenBabel10232409563D

 34 38  0  0  1  0  0  0  0  0999 V2000
  191.6250  177.2490  146.3210 N   0  0  0  0  0  0  0  0  0  0  0  0
  191.4970  176.4400  144.1060 N   0  0  0  0  0  2  0  0  0  0  0  0
  189.2880  176.7010  147.4540 S   0  0  0  0  0  0  0  0  0  0  0  0
  188.4630  177.9680  140.9790 C   0  0  0  0  0  0  0  0  0  0  0  0
  190.9160  176.7500  145.3700 C   0  0  0  0  0  0  0  0  0  0  0  0
  190.9110  177.5220  147.5530 C   0  0  0  0  0  2  0  0  0  0  0  0
  189.6370  176.7850  142.5870 C   0  0  0  0  0  0  0  0  0  0  0  0
  188.7170  177.4590  143.4090 C   0  0  0  0  0  0  0  0  0  0  0  0
  190.6900  175.8340  143.0580 C   0  0  0  0  0  2  0  0  0  0  0  0
  189.4780  176.5000  145.6440 C   0  0  2  0  0  3  0  0  0  0  0  0
  187.7400  178.4240  142.4270 S   0  0  0  0  0  0  0  0  0  0  0  0
  189.4880  177.0680  141.2210 C   0  0  0  0  0  3  0  0  0  0  0  0
  188.6340  177.4170  144.8540 N   0  0  0  0  0  0  0  0  0  0  0  0
  188.1060  178.4480  139.6830 N   0  0  0  0  0  2  0  0  0  0  0  0
  188.9250  178.1790  138.5140 C   0  0  0  0  0  2  0  0  0  0  0  0
  190.3140  176.0390  137.5280 C   0  0  1  0  0  3  0  0  0  0  0  0
  188.2900  177.0500  137.6930 C   0  0  2  0  0  3  0  0  0  0  0  0
  190.8910  175.9000  135.1380 C   0  0  0  0  0  1  0  0  0  0  0  0
  190.4840  176.7420  136.2610 N   0  0  0  0  0  0  0  0  0  0  0  0
  189.1230  176.2750  136.6520 C   0  0  1  0  0  0  0  0  0  0  0  0
  188.3540  177.4460  136.3860 O   0  0  0  0  0  0  0  0  0  0  0  0
  192.1000  174.2480  137.7350 N   0  0  0  0  0  1  0  0  0  0  0  0
  189.8710  173.6730  137.4340 O   0  0  0  0  0  0  0  0  0  0  0  0
  190.7300  174.5890  137.5380 C   0  0  0  0  0  0  0  0  0  0  0  0
  187.6730  178.2970  145.5170 C   0  0  0  0  0  2  0  0  0  0  0  0
  186.2910  177.6650  145.5070 C   0  0  0  0  0  2  0  0  0  0  0  0
  185.2680  178.6320  146.0840 C   0  0  0  0  0  2  0  0  0  0  0  0
  183.9840  178.6210  145.2640 C   0  0  0  0  0  2  0  0  0  0  0  0
  184.2320  179.0890  143.8710 C   0  0  0  0  0  0  0  0  0  0  0  0
  183.3880  177.7310  140.3480 C   0  0  0  0  0  1  0  0  0  0  0  0
  184.8420  180.1740  143.6730 O   0  0  0  0  0  0  0  0  0  0  0  0
  183.7680  178.2960  142.7740 N   0  0  0  0  0  2  0  0  0  0  0  0
  184.0170  178.5800  141.3930 C   0  0  0  0  0  0  0  0  0  0  0  0
  184.7720  179.5270  141.0490 O   0  0  0  0  0  0  0  0  0  0  0  0
  1  6  1  0  0  0  0
  2  5  1  0  0  0  0
  3  6  1  0  0  0  0
  4 12  2  0  0  0  0
  4 11  1  0  0  0  0
  5  1  2  0  0  0  0
  7  9  1  0  0  0  0
  7  8  2  0  0  0  0
  8 13  1  0  0  0  0
  9  2  1  0  0  0  0
 10  5  1  1  0  0  0
 10  3  1  0  0  0  0
 11  8  1  0  0  0  0
 12  7  1  0  0  0  0
 13 25  1  0  0  0  0
 13 10  1  0  0  0  0
 14  4  1  0  0  0  0
 15 14  1  0  0  0  0
 16 24  1  6  0  0  0
 17 15  1  1  0  0  0
 18 19  1  0  0  0  0
 19 20  1  0  0  0  0
 19 16  1  0  0  0  0
 20 21  1  6  0  0  0
 20 16  1  0  0  0  0
 20 17  1  0  0  0  0
 21 17  1  0  0  0  0
 23 24  2  0  0  0  0
 24 22  1  0  0  0  0
 26 25  1  0  0  0  0
 26 27  1  0  0  0  0
 28 27  1  0  0  0  0
 29 28  1  0  0  0  0
 30 33  1  0  0  0  0
 31 29  2  0  0  0  0
 32 29  1  0  0  0  0
 33 32  1  0  0  0  0
 34 33  2  0  0  0  0
M  END
>  <MODEL>
2

>  <REMARK>
 VINA RESULT:      -7.6      1.935      2.763
  Name = 
  9 active torsions:
  status: ('A' for Active; 'I' for Inactive)
    1  A    between atoms: C_1  and  C_9
    2  A    between atoms: C_1  and  N_13
    3  A    between atoms: C_2  and  C_10
    4  A    between atoms: C_5  and  C_12
    5  A    between atoms: C_5  and  C_30
    6  A    between atoms: C_7  and  N_13
    7  A    between atoms: C_8  and  C_34
    8  A    between atoms: C_10  and  C_12
    9  A    between atoms: C_30  and  N_32
                            x       y       z     vdW  Elec       q    Type
                         _______ _______ _______ _____ _____    ______ ____

>  <TORSDO>
F 9

$$$$
=
 OpenBabel10232409563D

 34 38  0  0  1  0  0  0  0  0999 V2000
  190.2910  178.0350  148.2420 N   0  0  0  0  0  0  0  0  0  0  0  0
  191.5270  176.8670  146.6020 N   0  0  0  0  0  2  0  0  0  0  0  0
  187.7520  177.3400  147.9010 S   0  0  0  0  0  0  0  0  0  0  0  0
  190.9220  177.4070  142.0570 C   0  0  0  0  0  0  0  0  0  0  0  0
  190.3000  177.2890  147.1930 C   0  0  0  0  0  0  0  0  0  0  0  0
  188.9790  178.3950  148.7390 C   0  0  0  0  0  2  0  0  0  0  0  0
  190.9310  176.6860  144.2570 C   0  0  0  0  0  0  0  0  0  0  0  0
  189.6880  177.3410  144.2250 C   0  0  0  0  0  0  0  0  0  0  0  0
  191.5170  175.9880  145.4430 C   0  0  0  0  0  2  0  0  0  0  0  0
  188.9880  176.8780  146.6310 C   0  0  2  0  0  3  0  0  0  0  0  0
  189.4680  177.9810  142.6780 S   0  0  0  0  0  0  0  0  0  0  0  0
  191.6200  176.7190  143.0350 C   0  0  0  0  0  3  0  0  0  0  0  0
  188.7620  177.5220  145.3230 N   0  0  0  0  0  0  0  0  0  0  0  0
  191.3970  177.6140  140.7260 N   0  0  0  0  0  2  0  0  0  0  0  0
  190.9320  176.8050  139.6130 C   0  0  0  0  0  2  0  0  0  0  0  0
  189.5750  175.9030  137.4160 C   0  0  1  0  0  3  0  0  0  0  0  0
  189.4650  177.1380  139.3150 C   0  0  2  0  0  3  0  0  0  0  0  0
  189.1050  177.4000  135.5190 C   0  0  0  0  0  1  0  0  0  0  0  0
  189.9040  177.1390  136.7140 N   0  0  0  0  0  0  0  0  0  0  0  0
  188.9530  177.1900  137.8620 C   0  0  1  0  0  0  0  0  0  0  0  0
  189.4760  178.2970  138.5910 O   0  0  0  0  0  0  0  0  0  0  0  0
  187.2110  175.0290  137.1270 N   0  0  0  0  0  1  0  0  0  0  0  0
  188.9340  174.2640  135.7720 O   0  0  0  0  0  0  0  0  0  0  0  0
  188.5790  175.0000  136.7310 C   0  0  0  0  0  0  0  0  0  0  0  0
  187.5760  178.3470  145.0980 C   0  0  0  0  0  2  0  0  0  0  0  0
  186.4590  177.5070  144.4990 C   0  0  0  0  0  2  0  0  0  0  0  0
  185.4330  178.4040  143.8230 C   0  0  0  0  0  2  0  0  0  0  0  0
  184.9220  177.7740  142.5340 C   0  0  0  0  0  2  0  0  0  0  0  0
  184.8470  178.7810  141.4370 C   0  0  0  0  0  0  0  0  0  0  0  0
  182.2840  179.5960  138.6560 C   0  0  0  0  0  1  0  0  0  0  0  0
  185.7750  179.6210  141.2930 O   0  0  0  0  0  0  0  0  0  0  0  0
  183.7130  178.7790  140.5630 N   0  0  0  0  0  2  0  0  0  0  0  0
  183.5580  179.6260  139.4190 C   0  0  0  0  0  0  0  0  0  0  0  0
  184.4900  180.3850  139.0410 O   0  0  0  0  0  0  0  0  0  0  0  0
  1  6  1  0  0  0  0
  2  5  1  0  0  0  0
  3  6  1  0  0  0  0
  4 11  1  0  0  0  0
  4 12  2  0  0  0  0
  5  1  2  0  0  0  0
  7  9  1  0  0  0  0
  8  7  2  0  0  0  0
  8 13  1  0  0  0  0
  9  2  1  0  0  0  0
 10  5  1  1  0  0  0
 10  3  1  0  0  0  0
 11  8  1  0  0  0  0
 12  7  1  0  0  0  0
 13 10  1  0  0  0  0
 14  4  1  0  0  0  0
 15 14  1  0  0  0  0
 16 24  1  6  0  0  0
 16 20  1  0  0  0  0
 17 15  1  6  0  0  0
 18 19  1  0  0  0  0
 19 16  1  0  0  0  0
 19 20  1  0  0  0  0
 20 21  1  6  0  0  0
 20 17  1  0  0  0  0
 21 17  1  0  0  0  0
 23 24  2  0  0  0  0
 24 22  1  0  0  0  0
 25 13  1  0  0  0  0
 26 25  1  0  0  0  0
 27 26  1  0  0  0  0
 28 27  1  0  0  0  0
 29 28  1  0  0  0  0
 30 33  1  0  0  0  0
 31 29  2  0  0  0  0
 32 29  1  0  0  0  0
 33 32  1  0  0  0  0
 34 33  2  0  0  0  0
M  END
>  <MODEL>
3

>  <REMARK>
 VINA RESULT:      -7.5      1.096      1.481
  Name = 
  9 active torsions:
  status: ('A' for Active; 'I' for Inactive)
    1  A    between atoms: C_1  and  C_9
    2  A    between atoms: C_1  and  N_13
    3  A    between atoms: C_2  and  C_10
    4  A    between atoms: C_5  and  C_12
    5  A    between atoms: C_5  and  C_30
    6  A    between atoms: C_7  and  N_13
    7  A    between atoms: C_8  and  C_34
    8  A    between atoms: C_10  and  C_12
    9  A    between atoms: C_30  and  N_32
                            x       y       z     vdW  Elec       q    Type
                         _______ _______ _______ _____ _____    ______ ____

>  <TORSDO>
F 9

$$$$
=
 OpenBabel10232409563D

 34 38  0  0  1  0  0  0  0  0999 V2000
  190.1550  176.1880  147.1520 N   0  0  0  0  0  0  0  0  0  0  0  0
  188.2120  177.3220  147.8710 N   0  0  0  0  0  2  0  0  0  0  0  0
  191.2990  177.7450  145.3320 S   0  0  0  0  0  0  0  0  0  0  0  0
  184.6870  178.4040  145.0930 C   0  0  0  0  0  0  0  0  0  0  0  0
  189.3340  177.1680  147.0060 C   0  0  0  0  0  0  0  0  0  0  0  0
  191.2500  176.1450  146.2030 C   0  0  0  0  0  2  0  0  0  0  0  0
  186.5850  178.3850  146.4190 C   0  0  0  0  0  0  0  0  0  0  0  0
  187.1740  178.2150  145.1550 C   0  0  0  0  0  0  0  0  0  0  0  0
  187.3200  178.4610  147.7190 C   0  0  0  0  0  2  0  0  0  0  0  0
  189.6070  178.1350  145.9120 C   0  0  2  0  0  3  0  0  0  0  0  0
  185.9440  178.1800  143.9980 S   0  0  0  0  0  0  0  0  0  0  0  0
  185.1870  178.4970  146.3810 C   0  0  0  0  0  3  0  0  0  0  0  0
  188.5790  178.0270  144.8590 N   0  0  0  0  0  0  0  0  0  0  0  0
  183.2990  178.4630  144.7640 N   0  0  0  0  0  2  0  0  0  0  0  0
  182.8260  179.1140  143.5550 C   0  0  0  0  0  2  0  0  0  0  0  0
  181.6450  178.2850  141.2310 C   0  0  1  0  0  3  0  0  0  0  0  0
  181.3190  178.8710  143.3980 C   0  0  2  0  0  3  0  0  0  0  0  0
  180.3720  179.8590  139.8290 C   0  0  0  0  0  1  0  0  0  0  0  0
  181.3650  179.6740  140.8860 N   0  0  0  0  0  0  0  0  0  0  0  0
  180.6360  179.0510  142.0280 C   0  0  1  0  0  0  0  0  0  0  0  0
  180.7770  180.0670  143.0190 O   0  0  0  0  0  0  0  0  0  0  0  0
  181.5820  176.9220  139.0920 N   0  0  0  0  0  1  0  0  0  0  0  0
  179.9820  176.6120  140.7450 O   0  0  0  0  0  0  0  0  0  0  0  0
  180.9990  177.2430  140.3510 C   0  0  0  0  0  0  0  0  0  0  0  0
  188.9620  177.7440  143.4760 C   0  0  0  0  0  2  0  0  0  0  0  0
  189.0010  176.2420  143.2400 C   0  0  0  0  0  2  0  0  0  0  0  0
  190.1930  175.8790  142.3680 C   0  0  0  0  0  2  0  0  0  0  0  0
  190.5720  177.0360  141.4530 C   0  0  0  0  0  2  0  0  0  0  0  0
  190.1130  176.7890  140.0560 C   0  0  0  0  0  0  0  0  0  0  0  0
  187.0870  177.9370  137.9380 C   0  0  0  0  0  1  0  0  0  0  0  0
  190.7980  176.0580  139.2910 O   0  0  0  0  0  0  0  0  0  0  0  0
  188.8970  177.3920  139.6030 N   0  0  0  0  0  2  0  0  0  0  0  0
  188.2970  177.1660  138.3230 C   0  0  0  0  0  0  0  0  0  0  0  0
  188.7680  176.3140  137.5240 O   0  0  0  0  0  0  0  0  0  0  0  0
  3  6  1  0  0  0  0
  4 12  2  0  0  0  0
  5  1  2  0  0  0  0
  5  2  1  0  0  0  0
  6  1  1  0  0  0  0
  7  9  1  0  0  0  0
  8  7  2  0  0  0  0
  9  2  1  0  0  0  0
 10  3  1  6  0  0  0
 10  5  1  0  0  0  0
 11  4  1  0  0  0  0
 11  8  1  0  0  0  0
 12  7  1  0  0  0  0
 13  8  1  0  0  0  0
 13 10  1  0  0  0  0
 14  4  1  0  0  0  0
 15 14  1  0  0  0  0
 16 24  1  6  0  0  0
 16 20  1  0  0  0  0
 17 15  1  6  0  0  0
 18 19  1  0  0  0  0
 19 16  1  0  0  0  0
 19 20  1  0  0  0  0
 20 21  1  6  0  0  0
 20 17  1  0  0  0  0
 21 17  1  0  0  0  0
 22 24  1  0  0  0  0
 24 23  2  0  0  0  0
 25 13  1  0  0  0  0
 26 25  1  0  0  0  0
 27 26  1  0  0  0  0
 28 27  1  0  0  0  0
 29 28  1  0  0  0  0
 30 33  1  0  0  0  0
 31 29  2  0  0  0  0
 32 29  1  0  0  0  0
 33 32  1  0  0  0  0
 34 33  2  0  0  0  0
M  END
>  <MODEL>
4

>  <REMARK>
 VINA RESULT:      -7.3      2.643      6.405
  Name = 
  9 active torsions:
  status: ('A' for Active; 'I' for Inactive)
    1  A    between atoms: C_1  and  C_9
    2  A    between atoms: C_1  and  N_13
    3  A    between atoms: C_2  and  C_10
    4  A    between atoms: C_5  and  C_12
    5  A    between atoms: C_5  and  C_30
    6  A    between atoms: C_7  and  N_13
    7  A    between atoms: C_8  and  C_34
    8  A    between atoms: C_10  and  C_12
    9  A    between atoms: C_30  and  N_32
                            x       y       z     vdW  Elec       q    Type
                         _______ _______ _______ _____ _____    ______ ____

>  <TORSDO>
F 9

$$$$
=
 OpenBabel10232409563D

 34 38  0  0  1  0  0  0  0  0999 V2000
  191.9840  178.0700  143.4420 N   0  0  0  0  0  0  0  0  0  0  0  0
  191.4180  177.3480  141.2660 N   0  0  0  0  0  2  0  0  0  0  0  0
  190.2510  176.9140  145.0870 S   0  0  0  0  0  0  0  0  0  0  0  0
  187.3580  178.2100  139.2430 C   0  0  0  0  0  0  0  0  0  0  0  0
  191.1660  177.4520  142.6650 C   0  0  0  0  0  0  0  0  0  0  0  0
  191.6070  178.1060  144.8410 C   0  0  0  0  0  2  0  0  0  0  0  0
  189.1750  177.2880  140.3420 C   0  0  0  0  0  0  0  0  0  0  0  0
  188.3990  177.6780  141.4470 C   0  0  0  0  0  0  0  0  0  0  0  0
  190.5040  176.6060  140.4090 C   0  0  0  0  0  2  0  0  0  0  0  0
  189.9590  176.8430  143.2810 C   0  0  2  0  0  3  0  0  0  0  0  0
  186.9920  178.4130  140.8710 S   0  0  0  0  0  0  0  0  0  0  0  0
  188.5850  177.5820  139.1040 C   0  0  0  0  0  3  0  0  0  0  0  0
  188.7420  177.5560  142.8480 N   0  0  0  0  0  0  0  0  0  0  0  0
  186.5490  178.6420  138.1480 N   0  0  0  0  0  2  0  0  0  0  0  0
  186.2010  177.7510  137.0550 C   0  0  0  0  0  2  0  0  0  0  0  0
  186.1450  175.0490  136.6400 C   0  0  1  0  0  3  0  0  0  0  0  0
  185.0420  176.8420  137.4830 C   0  0  2  0  0  3  0  0  0  0  0  0
  184.7430  174.0720  134.8670 C   0  0  0  0  0  1  0  0  0  0  0  0
  185.4020  175.2610  135.4030 N   0  0  0  0  0  0  0  0  0  0  0  0
  184.7350  175.5470  136.7060 C   0  0  1  0  0  0  0  0  0  0  0  0
  184.1640  176.8250  136.4360 O   0  0  0  0  0  0  0  0  0  0  0  0
  187.1710  172.7360  136.4520 N   0  0  0  0  0  1  0  0  0  0  0  0
  185.6030  173.2080  138.0970 O   0  0  0  0  0  0  0  0  0  0  0  0
  186.2600  173.6170  137.1030 C   0  0  0  0  0  0  0  0  0  0  0  0
  187.8370  178.1430  143.8350 C   0  0  0  0  0  2  0  0  0  0  0  0
  186.9110  177.0750  144.3960 C   0  0  0  0  0  2  0  0  0  0  0  0
  186.2630  177.5670  145.6820 C   0  0  0  0  0  2  0  0  0  0  0  0
  185.7230  178.9810  145.5160 C   0  0  0  0  0  2  0  0  0  0  0  0
  184.3720  178.9700  144.8860 C   0  0  0  0  0  0  0  0  0  0  0  0
  183.0410  178.4190  141.2960 C   0  0  0  0  0  1  0  0  0  0  0  0
  183.3480  179.1630  145.5960 O   0  0  0  0  0  0  0  0  0  0  0  0
  184.2580  178.7340  143.4790 N   0  0  0  0  0  2  0  0  0  0  0  0
  183.0360  178.7870  142.7350 C   0  0  0  0  0  0  0  0  0  0  0  0
  181.9600  179.1550  143.2770 O   0  0  0  0  0  0  0  0  0  0  0  0
  1  6  1  0  0  0  0
  2  5  1  0  0  0  0
  4 11  1  0  0  0  0
  5  1  2  0  0  0  0
  6  3  1  0  0  0  0
  7  9  1  0  0  0  0
  7  8  2  0  0  0  0
  8 13  1  0  0  0  0
  9  2  1  0  0  0  0
 10  5  1  6  0  0  0
 10  3  1  0  0  0  0
 11  8  1  0  0  0  0
 12  4  2  0  0  0  0
 12  7  1  0  0  0  0
 13 10  1  0  0  0  0
 13 25  1  0  0  0  0
 14  4  1  0  0  0  0
 15 14  1  0  0  0  0
 16 20  1  0  0  0  0
 16 24  1  1  0  0  0
 17 15  1  6  0  0  0
 18 19  1  0  0  0  0
 19 16  1  0  0  0  0
 19 20  1  0  0  0  0
 20 21  1  1  0  0  0
 20 17  1  0  0  0  0
 21 17  1  0  0  0  0
 22 24  1  0  0  0  0
 24 23  2  0  0  0  0
 25 26  1  0  0  0  0
 26 27  1  0  0  0  0
 28 27  1  0  0  0  0
 29 28  1  0  0  0  0
 29 31  2  0  0  0  0
 30 33  1  0  0  0  0
 32 29  1  0  0  0  0
 33 34  2  0  0  0  0
 33 32  1  0  0  0  0
M  END
>  <MODEL>
5

>  <REMARK>
 VINA RESULT:      -7.1      2.772      4.287
  Name = 
  9 active torsions:
  status: ('A' for Active; 'I' for Inactive)
    1  A    between atoms: C_1  and  C_9
    2  A    between atoms: C_1  and  N_13
    3  A    between atoms: C_2  and  C_10
    4  A    between atoms: C_5  and  C_12
    5  A    between atoms: C_5  and  C_30
    6  A    between atoms: C_7  and  N_13
    7  A    between atoms: C_8  and  C_34
    8  A    between atoms: C_10  and  C_12
    9  A    between atoms: C_30  and  N_32
                            x       y       z     vdW  Elec       q    Type
                         _______ _______ _______ _____ _____    ______ ____

>  <TORSDO>
F 9

$$$$
=
 OpenBabel10232409563D

 34 38  0  0  1  0  0  0  0  0999 V2000
  186.4810  178.3590  139.8410 N   0  0  0  0  0  0  0  0  0  0  0  0
  187.6120  178.5150  137.7730 N   0  0  0  0  0  2  0  0  0  0  0  0
  188.2680  178.9390  141.7160 S   0  0  0  0  0  0  0  0  0  0  0  0
  191.2140  175.8730  136.6050 C   0  0  0  0  0  0  0  0  0  0  0  0
  187.5870  178.5000  139.1980 C   0  0  0  0  0  0  0  0  0  0  0  0
  186.5950  178.3570  141.2860 C   0  0  0  0  0  2  0  0  0  0  0  0
  189.7930  177.5690  137.2880 C   0  0  0  0  0  0  0  0  0  0  0  0
  190.1650  177.0490  138.5400 C   0  0  0  0  0  0  0  0  0  0  0  0
  188.8660  178.7210  137.0650 C   0  0  0  0  0  2  0  0  0  0  0  0
  188.8300  178.6580  139.9960 C   0  0  2  0  0  3  0  0  0  0  0  0
  191.2160  175.7530  138.2820 S   0  0  0  0  0  0  0  0  0  0  0  0
  190.3890  176.9100  136.2020 C   0  0  0  0  0  3  0  0  0  0  0  0
  189.6970  177.4750  139.8420 N   0  0  0  0  0  0  0  0  0  0  0  0
  191.9290  175.0220  135.7090 N   0  0  0  0  0  2  0  0  0  0  0  0
  193.3490  175.1910  135.4610 C   0  0  0  0  0  2  0  0  0  0  0  0
  195.1120  174.7540  137.5060 C   0  0  1  0  0  3  0  0  0  0  0  0
  194.0740  173.8600  135.6990 C   0  0  2  0  0  3  0  0  0  0  0  0
  197.5380  174.6830  137.0900 C   0  0  0  0  0  1  0  0  0  0  0  0
  196.2170  175.0930  136.6170 N   0  0  0  0  0  0  0  0  0  0  0  0
  195.4570  173.8330  136.3780 C   0  0  1  0  0  0  0  0  0  0  0  0
  195.2310  173.9210  134.9740 O   0  0  0  0  0  0  0  0  0  0  0  0
  195.9600  175.0410  139.8810 N   0  0  0  0  0  1  0  0  0  0  0  0
  195.3570  172.9480  139.0800 O   0  0  0  0  0  0  0  0  0  0  0  0
  195.4970  174.1780  138.8470 C   0  0  0  0  0  0  0  0  0  0  0  0
  190.1230  176.7100  141.0130 C   0  0  0  0  0  2  0  0  0  0  0  0
  191.4070  177.2940  141.5810 C   0  0  0  0  0  2  0  0  0  0  0  0
  191.5990  176.8360  143.0190 C   0  0  0  0  0  2  0  0  0  0  0  0
  191.5850  178.0210  143.9760 C   0  0  0  0  0  2  0  0  0  0  0  0
  190.9320  177.6610  145.2670 C   0  0  0  0  0  0  0  0  0  0  0  0
  187.2930  177.6710  146.5790 C   0  0  0  0  0  1  0  0  0  0  0  0
  191.6310  177.2320  146.2240 O   0  0  0  0  0  0  0  0  0  0  0  0
  189.5150  177.8070  145.3990 N   0  0  0  0  0  2  0  0  0  0  0  0
  188.7760  177.5860  146.6050 C   0  0  0  0  0  0  0  0  0  0  0  0
  189.3630  177.3360  147.6910 O   0  0  0  0  0  0  0  0  0  0  0  0
  1  6  1  0  0  0  0
  2  5  1  0  0  0  0
  4 11  1  0  0  0  0
  5  1  2  0  0  0  0
  6  3  1  0  0  0  0
  7  8  2  0  0  0  0
  8 13  1  0  0  0  0
  9  7  1  0  0  0  0
  9  2  1  0  0  0  0
 10  5  1  6  0  0  0
 10  3  1  0  0  0  0
 11  8  1  0  0  0  0
 12  4  2  0  0  0  0
 12  7  1  0  0  0  0
 13 10  1  0  0  0  0
 13 25  1  0  0  0  0
 14  4  1  0  0  0  0
 15 14  1  0  0  0  0
 16 24  1  1  0  0  0
 17 15  1  1  0  0  0
 17 20  1  0  0  0  0
 19 18  1  0  0  0  0
 19 16  1  0  0  0  0
 20 21  1  1  0  0  0
 20 19  1  0  0  0  0
 20 16  1  0  0  0  0
 21 17  1  0  0  0  0
 24 23  2  0  0  0  0
 24 22  1  0  0  0  0
 25 26  1  0  0  0  0
 26 27  1  0  0  0  0
 27 28  1  0  0  0  0
 28 29  1  0  0  0  0
 29 32  1  0  0  0  0
 29 31  2  0  0  0  0
 30 33  1  0  0  0  0
 32 33  1  0  0  0  0
 33 34  2  0  0  0  0
M  END
>  <MODEL>
6

>  <REMARK>
 VINA RESULT:      -7.1      4.081      7.622
  Name = 
  9 active torsions:
  status: ('A' for Active; 'I' for Inactive)
    1  A    between atoms: C_1  and  C_9
    2  A    between atoms: C_1  and  N_13
    3  A    between atoms: C_2  and  C_10
    4  A    between atoms: C_5  and  C_12
    5  A    between atoms: C_5  and  C_30
    6  A    between atoms: C_7  and  N_13
    7  A    between atoms: C_8  and  C_34
    8  A    between atoms: C_10  and  C_12
    9  A    between atoms: C_30  and  N_32
                            x       y       z     vdW  Elec       q    Type
                         _______ _______ _______ _____ _____    ______ ____

>  <TORSDO>
F 9

$$$$
=
 OpenBabel10232409563D

 34 38  0  0  1  0  0  0  0  0999 V2000
  187.8720  178.9220  137.4520 N   0  0  0  0  0  0  0  0  0  0  0  0
  187.6120  178.5550  139.7710 N   0  0  0  0  0  2  0  0  0  0  0  0
  188.9160  176.6940  136.4550 S   0  0  0  0  0  0  0  0  0  0  0  0
  191.1180  177.6940  142.6490 C   0  0  0  0  0  0  0  0  0  0  0  0
  188.0890  178.1800  138.4810 C   0  0  0  0  0  0  0  0  0  0  0  0
  188.4140  178.4270  136.2020 C   0  0  0  0  0  2  0  0  0  0  0  0
  189.2850  177.5880  141.2390 C   0  0  0  0  0  0  0  0  0  0  0  0
  190.3050  177.2560  140.3310 C   0  0  0  0  0  0  0  0  0  0  0  0
  187.8280  177.6820  140.9140 C   0  0  0  0  0  2  0  0  0  0  0  0
  188.8420  176.9170  138.2710 C   0  0  2  0  0  3  0  0  0  0  0  0
  191.7780  177.2880  141.1560 S   0  0  0  0  0  0  0  0  0  0  0  0
  189.7430  177.8280  142.5420 C   0  0  0  0  0  3  0  0  0  0  0  0
  190.1690  176.9940  138.9130 N   0  0  0  0  0  0  0  0  0  0  0  0
  191.8540  177.9020  143.8540 N   0  0  0  0  0  2  0  0  0  0  0  0
  191.1910  178.1330  145.1260 C   0  0  0  0  0  2  0  0  0  0  0  0
  188.6440  178.0920  146.1210 C   0  0  1  0  0  3  0  0  0  0  0  0
  190.4630  176.8570  145.5640 C   0  0  2  0  0  3  0  0  0  0  0  0
  188.2340  177.7790  148.5290 C   0  0  0  0  0  1  0  0  0  0  0  0
  189.1800  178.1430  147.4770 N   0  0  0  0  0  0  0  0  0  0  0  0
  189.3840  176.9090  146.6640 C   0  0  1  0  0  0  0  0  0  0  0  0
  190.7730  176.6740  146.8830 O   0  0  0  0  0  0  0  0  0  0  0  0
  186.2410  178.6670  146.6990 N   0  0  0  0  0  1  0  0  0  0  0  0
  186.7290  176.9120  145.2600 O   0  0  0  0  0  0  0  0  0  0  0  0
  187.1620  177.8290  146.0070 C   0  0  0  0  0  0  0  0  0  0  0  0
  191.3850  176.7870  138.1290 C   0  0  0  0  0  2  0  0  0  0  0  0
  191.7430  175.3090  138.0990 C   0  0  0  0  0  2  0  0  0  0  0  0
  192.6380  175.0110  136.9050 C   0  0  0  0  0  2  0  0  0  0  0  0
  193.8950  174.2670  137.3380 C   0  0  0  0  0  2  0  0  0  0  0  0
  195.1230  175.0360  136.9850 C   0  0  0  0  0  0  0  0  0  0  0  0
  195.9140  177.9470  134.5630 C   0  0  0  0  0  1  0  0  0  0  0  0
  196.2150  174.7680  137.5540 O   0  0  0  0  0  0  0  0  0  0  0  0
  195.0400  176.0740  136.0030 N   0  0  0  0  0  2  0  0  0  0  0  0
  196.1530  176.8240  135.5060 C   0  0  0  0  0  0  0  0  0  0  0  0
  197.3320  176.5390  135.8440 O   0  0  0  0  0  0  0  0  0  0  0  0
  1  5  2  0  0  0  0
  2  9  1  0  0  0  0
  4 14  1  0  0  0  0
  5  2  1  0  0  0  0
  6  3  1  0  0  0  0
  6  1  1  0  0  0  0
  7 12  1  0  0  0  0
  8 11  1  0  0  0  0
  8  7  2  0  0  0  0
  9  7  1  0  0  0  0
 10  3  1  6  0  0  0
 10  5  1  0  0  0  0
 10 13  1  0  0  0  0
 11  4  1  0  0  0  0
 12  4  2  0  0  0  0
 13  8  1  0  0  0  0
 14 15  1  0  0  0  0
 16 24  1  1  0  0  0
 16 20  1  0  0  0  0
 16 19  1  0  0  0  0
 17 15  1  1  0  0  0
 17 20  1  0  0  0  0
 17 21  1  0  0  0  0
 19 18  1  0  0  0  0
 20 21  1  1  0  0  0
 20 19  1  0  0  0  0
 23 24  2  0  0  0  0
 24 22  1  0  0  0  0
 25 13  1  0  0  0  0
 26 25  1  0  0  0  0
 27 28  1  0  0  0  0
 27 26  1  0  0  0  0
 29 28  1  0  0  0  0
 29 31  2  0  0  0  0
 30 33  1  0  0  0  0
 32 29  1  0  0  0  0
 33 34  2  0  0  0  0
 33 32  1  0  0  0  0
M  END
>  <MODEL>
7

>  <REMARK>
 VINA RESULT:      -7.0      3.701      9.338
  Name = 
  9 active torsions:
  status: ('A' for Active; 'I' for Inactive)
    1  A    between atoms: C_1  and  C_9
    2  A    between atoms: C_1  and  N_13
    3  A    between atoms: C_2  and  C_10
    4  A    between atoms: C_5  and  C_12
    5  A    between atoms: C_5  and  C_30
    6  A    between atoms: C_7  and  N_13
    7  A    between atoms: C_8  and  C_34
    8  A    between atoms: C_10  and  C_12
    9  A    between atoms: C_30  and  N_32
                            x       y       z     vdW  Elec       q    Type
                         _______ _______ _______ _____ _____    ______ ____

>  <TORSDO>
F 9

$$$$
=
 OpenBabel10232409563D

 34 38  0  0  1  0  0  0  0  0999 V2000
  187.1010  174.6150  135.7040 N   0  0  0  0  0  0  0  0  0  0  0  0
  189.1530  174.7320  136.8680 N   0  0  0  0  0  2  0  0  0  0  0  0
  186.6800  177.0300  134.6870 S   0  0  0  0  0  0  0  0  0  0  0  0
  189.9090  177.5070  140.4800 C   0  0  0  0  0  0  0  0  0  0  0  0
  188.0700  175.3290  136.1610 C   0  0  0  0  0  0  0  0  0  0  0  0
  186.0620  175.3460  135.0080 C   0  0  0  0  0  2  0  0  0  0  0  0
  189.8040  176.4990  138.3980 C   0  0  0  0  0  0  0  0  0  0  0  0
  188.7200  177.3860  138.2890 C   0  0  0  0  0  0  0  0  0  0  0  0
  190.2620  175.5490  137.3370 C   0  0  0  0  0  2  0  0  0  0  0  0
  188.0210  176.7920  135.9120 C   0  0  2  0  0  3  0  0  0  0  0  0
  188.5890  178.2410  139.7400 S   0  0  0  0  0  0  0  0  0  0  0  0
  190.4750  176.5730  139.6280 C   0  0  0  0  0  3  0  0  0  0  0  0
  187.8060  177.5250  137.1740 N   0  0  0  0  0  0  0  0  0  0  0  0
  190.3750  177.7750  141.8020 N   0  0  0  0  0  2  0  0  0  0  0  0
  189.4620  178.0840  142.8880 C   0  0  0  0  0  2  0  0  0  0  0  0
  189.3860  177.8670  145.6140 C   0  0  1  0  0  3  0  0  0  0  0  0
  189.0990  176.7950  143.6360 C   0  0  2  0  0  3  0  0  0  0  0  0
  191.1820  176.7120  146.8400 C   0  0  0  0  0  1  0  0  0  0  0  0
  190.7570  177.3690  145.6060 N   0  0  0  0  0  0  0  0  0  0  0  0
  189.6740  176.5150  145.0390 C   0  0  1  0  0  0  0  0  0  0  0  0
  190.2710  176.1110  143.8090 O   0  0  0  0  0  0  0  0  0  0  0  0
  189.2330  178.3670  148.0970 N   0  0  0  0  0  1  0  0  0  0  0  0
  187.5230  177.2380  147.0060 O   0  0  0  0  0  0  0  0  0  0  0  0
  188.6600  177.7770  146.9340 C   0  0  0  0  0  0  0  0  0  0  0  0
  186.6670  178.4290  137.3220 C   0  0  0  0  0  2  0  0  0  0  0  0
  185.5170  177.7150  138.0150 C   0  0  0  0  0  2  0  0  0  0  0  0
  184.9380  178.5950  139.1130 C   0  0  0  0  0  2  0  0  0  0  0  0
  183.6290  178.0210  139.6380 C   0  0  0  0  0  2  0  0  0  0  0  0
  183.4430  178.3430  141.0820 C   0  0  0  0  0  0  0  0  0  0  0  0
  185.7240  178.2810  144.2060 C   0  0  0  0  0  1  0  0  0  0  0  0
  182.3230  178.7500  141.4940 O   0  0  0  0  0  0  0  0  0  0  0  0
  184.5450  178.1870  141.9810 N   0  0  0  0  0  2  0  0  0  0  0  0
  184.4800  178.3720  143.3990 C   0  0  0  0  0  0  0  0  0  0  0  0
  183.3830  178.5950  143.9760 O   0  0  0  0  0  0  0  0  0  0  0  0
  1  5  2  0  0  0  0
  2  9  1  0  0  0  0
  3  6  1  0  0  0  0
  4 14  1  0  0  0  0
  5  2  1  0  0  0  0
  6  1  1  0  0  0  0
  7 12  1  0  0  0  0
  8  7  2  0  0  0  0
  8 11  1  0  0  0  0
  9  7  1  0  0  0  0
 10  3  1  6  0  0  0
 10  5  1  0  0  0  0
 10 13  1  0  0  0  0
 11  4  1  0  0  0  0
 12  4  2  0  0  0  0
 13 25  1  0  0  0  0
 13  8  1  0  0  0  0
 14 15  1  0  0  0  0
 16 24  1  1  0  0  0
 17 15  1  6  0  0  0
 17 21  1  0  0  0  0
 17 20  1  0  0  0  0
 19 16  1  0  0  0  0
 19 18  1  0  0  0  0
 20 21  1  1  0  0  0
 20 19  1  0  0  0  0
 20 16  1  0  0  0  0
 24 23  2  0  0  0  0
 24 22  1  0  0  0  0
 25 26  1  0  0  0  0
 26 27  1  0  0  0  0
 27 28  1  0  0  0  0
 28 29  1  0  0  0  0
 29 31  2  0  0  0  0
 29 32  1  0  0  0  0
 32 33  1  0  0  0  0
 33 34  2  0  0  0  0
 33 30  1  0  0  0  0
M  END
>  <MODEL>
8

>  <REMARK>
 VINA RESULT:      -6.9      2.682      7.864
  Name = 
  9 active torsions:
  status: ('A' for Active; 'I' for Inactive)
    1  A    between atoms: C_1  and  C_9
    2  A    between atoms: C_1  and  N_13
    3  A    between atoms: C_2  and  C_10
    4  A    between atoms: C_5  and  C_12
    5  A    between atoms: C_5  and  C_30
    6  A    between atoms: C_7  and  N_13
    7  A    between atoms: C_8  and  C_34
    8  A    between atoms: C_10  and  C_12
    9  A    between atoms: C_30  and  N_32
                            x       y       z     vdW  Elec       q    Type
                         _______ _______ _______ _____ _____    ______ ____

>  <TORSDO>
F 9

$$$$
=
 OpenBabel10232409563D

 34 38  0  0  1  0  0  0  0  0999 V2000
  190.1640  178.1790  148.3710 N   0  0  0  0  0  0  0  0  0  0  0  0
  191.5690  177.0710  146.8300 N   0  0  0  0  0  2  0  0  0  0  0  0
  187.7130  177.2520  147.9470 S   0  0  0  0  0  0  0  0  0  0  0  0
  191.1300  177.4040  142.2460 C   0  0  0  0  0  0  0  0  0  0  0  0
  190.2850  177.4030  147.3520 C   0  0  0  0  0  0  0  0  0  0  0  0
  188.8030  178.4390  148.7980 C   0  0  0  0  0  2  0  0  0  0  0  0
  191.1010  176.7600  144.4690 C   0  0  0  0  0  0  0  0  0  0  0  0
  189.8080  177.3020  144.3600 C   0  0  0  0  0  0  0  0  0  0  0  0
  191.6890  176.1560  145.7050 C   0  0  0  0  0  2  0  0  0  0  0  0
  189.0410  176.8590  146.7500 C   0  0  2  0  0  3  0  0  0  0  0  0
  189.6050  177.8680  142.7820 S   0  0  0  0  0  0  0  0  0  0  0  0
  191.8390  176.8130  143.2780 C   0  0  0  0  0  3  0  0  0  0  0  0
  188.8200  177.4370  145.4100 N   0  0  0  0  0  0  0  0  0  0  0  0
  191.6460  177.6070  140.9300 N   0  0  0  0  0  2  0  0  0  0  0  0
  190.7810  177.6370  139.7640 C   0  0  0  0  0  2  0  0  0  0  0  0
  191.7820  176.5380  137.4680 C   0  0  1  0  0  3  0  0  0  0  0  0
  190.4930  176.2030  139.3030 C   0  0  2  0  0  3  0  0  0  0  0  0
  190.3560  176.2400  135.4840 C   0  0  0  0  0  1  0  0  0  0  0  0
  190.5620  176.9140  136.7640 N   0  0  0  0  0  0  0  0  0  0  0  0
  190.4980  175.8460  137.8040 C   0  0  1  0  0  0  0  0  0  0  0  0
  189.3560  176.2670  138.5460 O   0  0  0  0  0  0  0  0  0  0  0  0
  193.3150  176.0930  135.4960 N   0  0  0  0  0  1  0  0  0  0  0  0
  193.0540  174.5140  137.1770 O   0  0  0  0  0  0  0  0  0  0  0  0
  192.7300  175.6390  136.7130 C   0  0  0  0  0  0  0  0  0  0  0  0
  187.5790  178.1460  145.1040 C   0  0  0  0  0  2  0  0  0  0  0  0
  186.6420  177.2450  144.3160 C   0  0  0  0  0  2  0  0  0  0  0  0
  185.8030  178.0750  143.3540 C   0  0  0  0  0  2  0  0  0  0  0  0
  184.7550  178.8860  144.1040 C   0  0  0  0  0  2  0  0  0  0  0  0
  183.4360  178.8320  143.4110 C   0  0  0  0  0  0  0  0  0  0  0  0
  182.2630  177.8480  139.8580 C   0  0  0  0  0  1  0  0  0  0  0  0
  182.3870  179.1490  144.0330 O   0  0  0  0  0  0  0  0  0  0  0  0
  183.3820  178.4140  142.0430 N   0  0  0  0  0  2  0  0  0  0  0  0
  182.2010  178.4050  141.2340 C   0  0  0  0  0  0  0  0  0  0  0  0
  181.1140  178.8740  141.6640 O   0  0  0  0  0  0  0  0  0  0  0  0
  1  6  1  0  0  0  0
  2  5  1  0  0  0  0
  3  6  1  0  0  0  0
  4 11  1  0  0  0  0
  4 12  2  0  0  0  0
  5  1  2  0  0  0  0
  7  9  1  0  0  0  0
  8  7  2  0  0  0  0
  8 13  1  0  0  0  0
  9  2  1  0  0  0  0
 10  5  1  1  0  0  0
 10  3  1  0  0  0  0
 11  8  1  0  0  0  0
 12  7  1  0  0  0  0
 13 10  1  0  0  0  0
 14  4  1  0  0  0  0
 15 14  1  0  0  0  0
 16 24  1  6  0  0  0
 16 20  1  0  0  0  0
 17 15  1  6  0  0  0
 18 19  1  0  0  0  0
 19 16  1  0  0  0  0
 19 20  1  0  0  0  0
 20 21  1  6  0  0  0
 20 17  1  0  0  0  0
 21 17  1  0  0  0  0
 22 24  1  0  0  0  0
 24 23  2  0  0  0  0
 25 13  1  0  0  0  0
 26 25  1  0  0  0  0
 27 28  1  0  0  0  0
 27 26  1  0  0  0  0
 29 31  2  0  0  0  0
 29 28  1  0  0  0  0
 30 33  1  0  0  0  0
 32 29  1  0  0  0  0
 33 34  2  0  0  0  0
 33 32  1  0  0  0  0
M  END
>  <MODEL>
9

>  <REMARK>
 VINA RESULT:      -6.9      1.965      2.681
  Name = 
  9 active torsions:
  status: ('A' for Active; 'I' for Inactive)
    1  A    between atoms: C_1  and  C_9
    2  A    between atoms: C_1  and  N_13
    3  A    between atoms: C_2  and  C_10
    4  A    between atoms: C_5  and  C_12
    5  A    between atoms: C_5  and  C_30
    6  A    between atoms: C_7  and  N_13
    7  A    between atoms: C_8  and  C_34
    8  A    between atoms: C_10  and  C_12
    9  A    between atoms: C_30  and  N_32
                            x       y       z     vdW  Elec       q    Type
                         _______ _______ _______ _____ _____    ______ ____

>  <TORSDO>
F 9

$$$$
