=
 OpenBabel10232410003D

 26 29  0  0  1  0  0  0  0  0999 V2000
  186.5200  177.1000  143.6960 O   0  0  0  0  0  1  0  0  0  0  0  0
  189.4080  177.1770  145.7360 C   0  0  0  0  0  0  0  0  0  0  0  0
  185.7180  179.1990  146.7680 C   0  0  0  0  0  2  0  0  0  0  0  0
  189.6350  176.9630  147.1290 C   0  0  0  0  0  3  0  0  0  0  0  0
  187.1630  177.7380  145.8340 C   0  0  2  0  0  3  0  0  0  0  0  0
  186.4320  178.1760  144.6670 C   0  0  2  0  0  3  0  0  0  0  0  0
  187.0990  178.6630  146.9350 C   0  0  2  0  0  3  0  0  0  0  0  0
  188.8220  177.2620  148.1920 C   0  0  0  0  0  2  0  0  0  0  0  0
  185.0690  178.5010  145.3900 C   0  0  2  0  0  3  0  0  0  0  0  0
  188.3780  177.6510  145.2250 C   0  0  0  0  0  2  0  0  0  0  0  0
  187.4310  177.8450  148.2120 C   0  0  0  0  0  2  0  0  0  0  0  0
  184.3200  179.4600  144.5370 N   0  0  0  0  0  2  0  0  0  0  0  0
  183.8100  178.8660  142.3800 O   0  0  0  0  0  1  0  0  0  0  0  0
  181.9830  178.9080  143.9050 C   0  0  0  0  0  1  0  0  0  0  0  0
  183.4730  178.6110  143.7340 C   0  0  2  0  0  3  0  0  0  0  0  0
  190.6210  177.0080  144.8450 C   0  0  0  0  0  2  0  0  0  0  0  0
  191.7350  176.9630  142.6230 N   0  0  0  0  0  2  0  0  0  0  0  0
  190.5040  177.7590  142.4080 C   0  0  2  0  0  3  0  0  0  0  0  0
  190.4660  176.5500  143.3290 C   0  0  2  0  0  3  0  0  0  0  0  0
  188.7990  177.9340  140.5630 N   0  0  0  0  0  0  0  0  0  0  0  0
  190.9350  176.9660  139.9810 C   0  0  0  0  0  3  0  0  0  0  0  0
  189.1790  177.3450  138.2910 C   0  0  0  0  0  3  0  0  0  0  0  0
  187.0520  178.3580  138.9520 N   0  0  0  0  0  1  0  0  0  0  0  0
  188.3950  177.8560  139.2940 C   0  0  0  0  0  0  0  0  0  0  0  0
  190.4920  176.8720  138.6680 C   0  0  0  0  0  3  0  0  0  0  0  0
  190.0920  177.5220  140.9600 C   0  0  0  0  0  0  0  0  0  0  0  0
  2  4  2  0  0  0  0
  4  8  1  0  0  0  0
  5 10  1  6  0  0  0
  5  7  1  0  0  0  0
  6  1  1  6  0  0  0
  6  9  1  0  0  0  0
  6  5  1  0  0  0  0
  7  3  1  1  0  0  0
  7 11  1  0  0  0  0
  8 11  1  0  0  0  0
  9 12  1  6  0  0  0
  9  3  1  0  0  0  0
 10  2  1  0  0  0  0
 13 15  1  0  0  0  0
 15 14  1  6  0  0  0
 15 12  1  0  0  0  0
 16  2  1  0  0  0  0
 17 19  1  0  0  0  0
 18 26  1  6  0  0  0
 18 17  1  0  0  0  0
 18 19  1  0  0  0  0
 19 16  1  1  0  0  0
 20 26  1  0  0  0  0
 21 26  2  0  0  0  0
 22 25  2  0  0  0  0
 22 24  1  0  0  0  0
 23 24  1  0  0  0  0
 24 20  2  0  0  0  0
 25 21  1  0  0  0  0
M  END
>  <MODEL>
1

>  <REMARK>
 VINA RESULT:      -9.0      0.000      0.000
  Name = 
  5 active torsions:
  status: ('A' for Active; 'I' for Inactive)
    1  A    between atoms: C_2  and  C_26
    2  A    between atoms: C_3  and  C_18
    3  A    between atoms: C_5  and  C_18
    4  A    between atoms: N_7  and  C_13
    5  A    between atoms: N_7  and  C_21
                            x       y       z     vdW  Elec       q    Type
                         _______ _______ _______ _____ _____    ______ ____

>  <TORSDO>
F 5

$$$$
=
 OpenBabel10232410003D

 26 29  0  0  1  0  0  0  0  0999 V2000
  188.5800  178.3460  143.1590 O   0  0  0  0  0  1  0  0  0  0  0  0
  185.0490  178.4120  143.3460 C   0  0  0  0  0  0  0  0  0  0  0  0
  187.5740  177.1010  146.6120 C   0  0  0  0  0  2  0  0  0  0  0  0
  184.1230  178.9090  144.3120 C   0  0  0  0  0  3  0  0  0  0  0  0
  186.8850  178.1420  144.7320 C   0  0  2  0  0  3  0  0  0  0  0  0
  188.1120  177.5350  144.2690 C   0  0  2  0  0  3  0  0  0  0  0  0
  186.3300  177.5040  145.8970 C   0  0  2  0  0  3  0  0  0  0  0  0
  184.2410  178.9510  145.6780 C   0  0  0  0  0  2  0  0  0  0  0  0
  188.8740  177.5370  145.6490 C   0  0  2  0  0  3  0  0  0  0  0  0
  186.1800  177.9530  143.5820 C   0  0  0  0  0  2  0  0  0  0  0  0
  185.3930  178.5470  146.5620 C   0  0  0  0  0  2  0  0  0  0  0  0
  189.9360  176.4990  145.5810 N   0  0  0  0  0  2  0  0  0  0  0  0
  191.8830  177.6890  145.3460 O   0  0  0  0  0  1  0  0  0  0  0  0
  191.8630  176.0640  147.0850 C   0  0  0  0  0  1  0  0  0  0  0  0
  191.0330  177.0880  146.3090 C   0  0  2  0  0  3  0  0  0  0  0  0
  184.4980  178.2380  141.9460 C   0  0  0  0  0  2  0  0  0  0  0  0
  184.7220  179.5940  139.8730 N   0  0  0  0  0  2  0  0  0  0  0  0
  184.6360  178.1950  139.3960 C   0  0  2  0  0  3  0  0  0  0  0  0
  185.4080  178.5090  140.6680 C   0  0  2  0  0  3  0  0  0  0  0  0
  186.7140  178.7590  138.0910 N   0  0  0  0  0  0  0  0  0  0  0  0
  185.0360  177.4490  136.9500 C   0  0  0  0  0  3  0  0  0  0  0  0
  187.1950  177.9960  135.8910 C   0  0  0  0  0  3  0  0  0  0  0  0
  188.8570  179.3030  137.1230 N   0  0  0  0  0  1  0  0  0  0  0  0
  187.5300  178.6680  137.0400 C   0  0  0  0  0  0  0  0  0  0  0  0
  185.8880  177.3800  135.8550 C   0  0  0  0  0  3  0  0  0  0  0  0
  185.4470  178.1330  138.1070 C   0  0  0  0  0  0  0  0  0  0  0  0
  2 10  1  0  0  0  0
  2  4  2  0  0  0  0
  4  8  1  0  0  0  0
  5 10  1  6  0  0  0
  5  7  1  0  0  0  0
  6  1  1  6  0  0  0
  6  5  1  0  0  0  0
  6  9  1  0  0  0  0
  7 11  1  1  0  0  0
  7  3  1  0  0  0  0
  8 11  1  0  0  0  0
  9 12  1  6  0  0  0
  9  3  1  0  0  0  0
 12 15  1  0  0  0  0
 13 15  1  0  0  0  0
 15 14  1  6  0  0  0
 16  2  1  0  0  0  0
 17 19  1  0  0  0  0
 18 26  1  6  0  0  0
 18 17  1  0  0  0  0
 18 19  1  0  0  0  0
 19 16  1  1  0  0  0
 20 26  1  0  0  0  0
 21 26  2  0  0  0  0
 22 24  1  0  0  0  0
 24 23  1  0  0  0  0
 24 20  2  0  0  0  0
 25 22  2  0  0  0  0
 25 21  1  0  0  0  0
M  END
>  <MODEL>
2

>  <REMARK>
 VINA RESULT:      -8.6      2.644      5.476
  Name = 
  5 active torsions:
  status: ('A' for Active; 'I' for Inactive)
    1  A    between atoms: C_2  and  C_26
    2  A    between atoms: C_3  and  C_18
    3  A    between atoms: C_5  and  C_18
    4  A    between atoms: N_7  and  C_13
    5  A    between atoms: N_7  and  C_21
                            x       y       z     vdW  Elec       q    Type
                         _______ _______ _______ _____ _____    ______ ____

>  <TORSDO>
F 5

$$$$
=
 OpenBabel10232410003D

 26 29  0  0  1  0  0  0  0  0999 V2000
  188.8490  178.5900  142.9500 O   0  0  0  0  0  1  0  0  0  0  0  0
  188.6600  177.6910  146.3650 C   0  0  0  0  0  0  0  0  0  0  0  0
  191.4000  175.8340  143.5710 C   0  0  0  0  0  2  0  0  0  0  0  0
  189.6370  177.5010  147.3890 C   0  0  0  0  0  3  0  0  0  0  0  0
  190.0190  177.3450  144.5220 C   0  0  2  0  0  3  0  0  0  0  0  0
  189.4910  177.3080  143.1770 C   0  0  2  0  0  3  0  0  0  0  0  0
  190.7700  176.1700  144.8790 C   0  0  2  0  0  3  0  0  0  0  0  0
  190.9130  177.0090  147.2840 C   0  0  0  0  0  2  0  0  0  0  0  0
  190.8340  176.9340  142.4400 C   0  0  2  0  0  3  0  0  0  0  0  0
  188.8190  177.4730  145.1510 C   0  0  0  0  0  2  0  0  0  0  0  0
  191.6860  176.5800  146.0630 C   0  0  0  0  0  2  0  0  0  0  0  0
  190.4800  176.3160  141.1360 N   0  0  0  0  0  2  0  0  0  0  0  0
  189.7100  177.9420  139.7130 O   0  0  0  0  0  1  0  0  0  0  0  0
  191.5920  176.7000  138.9510 C   0  0  0  0  0  1  0  0  0  0  0  0
  190.8920  177.3030  140.1690 C   0  0  2  0  0  3  0  0  0  0  0  0
  187.2540  177.9740  146.8520 C   0  0  0  0  0  2  0  0  0  0  0  0
  184.8710  178.6500  146.6260 N   0  0  0  0  0  2  0  0  0  0  0  0
  185.1290  177.7890  145.4480 C   0  0  2  0  0  3  0  0  0  0  0  0
  186.2080  178.7440  145.9310 C   0  0  2  0  0  3  0  0  0  0  0  0
  184.6940  178.2470  143.0110 N   0  0  0  0  0  0  0  0  0  0  0  0
  182.9090  178.7740  144.5520 C   0  0  0  0  0  3  0  0  0  0  0  0
  182.6340  179.0270  142.1140 C   0  0  0  0  0  3  0  0  0  0  0  0
  184.4790  178.4460  140.6150 N   0  0  0  0  0  1  0  0  0  0  0  0
  183.9240  178.5810  141.9740 C   0  0  0  0  0  0  0  0  0  0  0  0
  182.1260  179.1360  143.4630 C   0  0  0  0  0  3  0  0  0  0  0  0
  184.2160  178.3000  144.3400 C   0  0  0  0  0  0  0  0  0  0  0  0
  2 16  1  0  0  0  0
  2  4  2  0  0  0  0
  5  7  1  0  0  0  0
  5 10  1  1  0  0  0
  6  1  1  6  0  0  0
  6  5  1  0  0  0  0
  7  3  1  6  0  0  0
  7 11  1  0  0  0  0
  8  4  1  0  0  0  0
  9 12  1  6  0  0  0
  9  6  1  0  0  0  0
  9  3  1  0  0  0  0
 10  2  1  0  0  0  0
 11  8  1  0  0  0  0
 13 15  1  0  0  0  0
 15 14  1  6  0  0  0
 15 12  1  0  0  0  0
 18 26  1  6  0  0  0
 18 19  1  0  0  0  0
 18 17  1  0  0  0  0
 19 17  1  0  0  0  0
 19 16  1  1  0  0  0
 20 26  1  0  0  0  0
 22 25  2  0  0  0  0
 23 24  1  0  0  0  0
 24 22  1  0  0  0  0
 24 20  2  0  0  0  0
 25 21  1  0  0  0  0
 26 21  2  0  0  0  0
M  END
>  <MODEL>
3

>  <REMARK>
 VINA RESULT:      -8.5      1.834      6.143
  Name = 
  5 active torsions:
  status: ('A' for Active; 'I' for Inactive)
    1  A    between atoms: C_2  and  C_26
    2  A    between atoms: C_3  and  C_18
    3  A    between atoms: C_5  and  C_18
    4  A    between atoms: N_7  and  C_13
    5  A    between atoms: N_7  and  C_21
                            x       y       z     vdW  Elec       q    Type
                         _______ _______ _______ _____ _____    ______ ____

>  <TORSDO>
F 5

$$$$
=
 OpenBabel10232410003D

 26 29  0  0  1  0  0  0  0  0999 V2000
  188.5320  178.4390  143.2990 O   0  0  0  0  0  1  0  0  0  0  0  0
  186.4580  178.4310  146.1640 C   0  0  0  0  0  0  0  0  0  0  0  0
  190.3400  176.5140  146.0400 C   0  0  0  0  0  2  0  0  0  0  0  0
  186.6850  178.7150  147.5450 C   0  0  0  0  0  3  0  0  0  0  0  0
  188.6310  177.9060  145.5570 C   0  0  2  0  0  3  0  0  0  0  0  0
  188.9600  177.4160  144.2380 C   0  0  2  0  0  3  0  0  0  0  0  0
  189.0720  177.0400  146.6200 C   0  0  2  0  0  3  0  0  0  0  0  0
  187.8060  178.4820  148.3010 C   0  0  0  0  0  2  0  0  0  0  0  0
  190.4910  177.1470  144.4960 C   0  0  2  0  0  3  0  0  0  0  0  0
  187.2820  177.9450  145.3700 C   0  0  0  0  0  2  0  0  0  0  0  0
  189.1450  177.9190  147.8960 C   0  0  0  0  0  2  0  0  0  0  0  0
  190.9540  176.1550  143.4910 N   0  0  0  0  0  2  0  0  0  0  0  0
  191.9870  178.1860  143.2240 O   0  0  0  0  0  1  0  0  0  0  0  0
  191.0900  177.2080  141.2470 C   0  0  0  0  0  1  0  0  0  0  0  0
  191.7660  176.9350  142.5910 C   0  0  2  0  0  3  0  0  0  0  0  0
  185.0180  178.5380  145.7060 C   0  0  0  0  0  2  0  0  0  0  0  0
  183.1720  178.9760  144.0990 N   0  0  0  0  0  2  0  0  0  0  0  0
  184.1340  178.1400  143.3440 C   0  0  2  0  0  3  0  0  0  0  0  0
  184.6510  179.1980  144.3050 C   0  0  2  0  0  3  0  0  0  0  0  0
  185.1710  178.5450  141.0850 N   0  0  0  0  0  0  0  0  0  0  0  0
  182.7870  178.8980  141.2670 C   0  0  0  0  0  3  0  0  0  0  0  0
  183.9700  179.1140  139.1140 C   0  0  0  0  0  3  0  0  0  0  0  0
  186.3810  178.7130  139.0030 N   0  0  0  0  0  1  0  0  0  0  0  0
  185.1280  178.7970  139.7760 C   0  0  0  0  0  0  0  0  0  0  0  0
  182.7630  179.1770  139.9060 C   0  0  0  0  0  3  0  0  0  0  0  0
  184.0040  178.5550  141.8830 C   0  0  0  0  0  0  0  0  0  0  0  0
  2  4  2  0  0  0  0
  4  8  1  0  0  0  0
  5 10  1  6  0  0  0
  5  7  1  0  0  0  0
  6  1  1  6  0  0  0
  6  9  1  0  0  0  0
  6  5  1  0  0  0  0
  7  3  1  6  0  0  0
  7 11  1  0  0  0  0
  9 12  1  6  0  0  0
  9  3  1  0  0  0  0
 10  2  1  0  0  0  0
 11  8  1  0  0  0  0
 15 14  1  6  0  0  0
 15 13  1  0  0  0  0
 15 12  1  0  0  0  0
 16  2  1  0  0  0  0
 17 19  1  0  0  0  0
 18 26  1  6  0  0  0
 18 17  1  0  0  0  0
 18 19  1  0  0  0  0
 19 16  1  1  0  0  0
 20 26  1  0  0  0  0
 21 26  2  0  0  0  0
 22 24  1  0  0  0  0
 22 25  2  0  0  0  0
 23 24  1  0  0  0  0
 24 20  2  0  0  0  0
 25 21  1  0  0  0  0
M  END
>  <MODEL>
4

>  <REMARK>
 VINA RESULT:      -8.5      2.163      5.664
  Name = 
  5 active torsions:
  status: ('A' for Active; 'I' for Inactive)
    1  A    between atoms: C_2  and  C_26
    2  A    between atoms: C_3  and  C_18
    3  A    between atoms: C_5  and  C_18
    4  A    between atoms: N_7  and  C_13
    5  A    between atoms: N_7  and  C_21
                            x       y       z     vdW  Elec       q    Type
                         _______ _______ _______ _____ _____    ______ ____

>  <TORSDO>
F 5

$$$$
=
 OpenBabel10232410003D

 26 29  0  0  1  0  0  0  0  0999 V2000
  187.8060  176.9780  143.1760 O   0  0  0  0  0  1  0  0  0  0  0  0
  185.5820  178.3890  145.5370 C   0  0  0  0  0  0  0  0  0  0  0  0
  185.4510  179.3130  141.3070 C   0  0  0  0  0  2  0  0  0  0  0  0
  184.1650  178.5560  145.5780 C   0  0  0  0  0  3  0  0  0  0  0  0
  185.8450  178.2200  143.2420 C   0  0  2  0  0  3  0  0  0  0  0  0
  187.1490  178.1500  142.6240 C   0  0  2  0  0  3  0  0  0  0  0  0
  185.0230  179.2870  142.7340 C   0  0  2  0  0  3  0  0  0  0  0  0
  183.2940  178.7990  144.5460 C   0  0  0  0  0  2  0  0  0  0  0  0
  186.6660  178.1720  141.1230 C   0  0  2  0  0  3  0  0  0  0  0  0
  186.2920  178.3950  144.5160 C   0  0  0  0  0  2  0  0  0  0  0  0
  183.5560  178.9040  143.0650 C   0  0  0  0  0  2  0  0  0  0  0  0
  187.8010  178.6440  140.2880 N   0  0  0  0  0  2  0  0  0  0  0  0
  189.6770  177.3250  140.2370 O   0  0  0  0  0  1  0  0  0  0  0  0
  188.4230  177.4260  138.2160 C   0  0  0  0  0  1  0  0  0  0  0  0
  188.3510  177.4270  139.7430 C   0  0  2  0  0  3  0  0  0  0  0  0
  186.2810  178.4280  146.8810 C   0  0  0  0  0  2  0  0  0  0  0  0
  188.4230  178.2230  148.1270 N   0  0  0  0  0  2  0  0  0  0  0  0
  188.8060  178.0930  146.7020 C   0  0  2  0  0  3  0  0  0  0  0  0
  187.5100  177.4660  147.1920 C   0  0  2  0  0  3  0  0  0  0  0  0
  190.4430  176.6710  145.4210 N   0  0  0  0  0  0  0  0  0  0  0  0
  190.8040  176.8680  147.8020 C   0  0  0  0  0  3  0  0  0  0  0  0
  192.3680  175.6300  146.3510 C   0  0  0  0  0  3  0  0  0  0  0  0
  191.9510  175.5000  143.9440 N   0  0  0  0  0  1  0  0  0  0  0  0
  191.5600  175.9520  145.2910 C   0  0  0  0  0  0  0  0  0  0  0  0
  191.9530  176.1010  147.6530 C   0  0  0  0  0  3  0  0  0  0  0  0
  190.0300  177.1850  146.6710 C   0  0  0  0  0  0  0  0  0  0  0  0
  2  4  2  0  0  0  0
  2 16  1  0  0  0  0
  5 10  1  1  0  0  0
  6  1  1  1  0  0  0
  6  5  1  0  0  0  0
  7  3  1  6  0  0  0
  7 11  1  0  0  0  0
  7  5  1  0  0  0  0
  8  4  1  0  0  0  0
  9 12  1  6  0  0  0
  9  3  1  0  0  0  0
  9  6  1  0  0  0  0
 10  2  1  0  0  0  0
 11  8  1  0  0  0  0
 15 14  1  6  0  0  0
 15 13  1  0  0  0  0
 15 12  1  0  0  0  0
 18 26  1  1  0  0  0
 18 19  1  0  0  0  0
 18 17  1  0  0  0  0
 19 16  1  6  0  0  0
 19 17  1  0  0  0  0
 20 26  1  0  0  0  0
 22 25  2  0  0  0  0
 23 24  1  0  0  0  0
 24 20  2  0  0  0  0
 24 22  1  0  0  0  0
 25 21  1  0  0  0  0
 26 21  2  0  0  0  0
M  END
>  <MODEL>
5

>  <REMARK>
 VINA RESULT:      -8.4      2.179      5.971
  Name = 
  5 active torsions:
  status: ('A' for Active; 'I' for Inactive)
    1  A    between atoms: C_2  and  C_26
    2  A    between atoms: C_3  and  C_18
    3  A    between atoms: C_5  and  C_18
    4  A    between atoms: N_7  and  C_13
    5  A    between atoms: N_7  and  C_21
                            x       y       z     vdW  Elec       q    Type
                         _______ _______ _______ _____ _____    ______ ____

>  <TORSDO>
F 5

$$$$
=
 OpenBabel10232410003D

 26 29  0  0  1  0  0  0  0  0999 V2000
  186.7070  177.0890  144.1990 O   0  0  0  0  0  1  0  0  0  0  0  0
  190.1900  177.5460  144.6090 C   0  0  0  0  0  0  0  0  0  0  0  0
  187.3310  178.0990  147.8160 C   0  0  0  0  0  2  0  0  0  0  0  0
  191.1350  177.0970  145.5800 C   0  0  0  0  0  3  0  0  0  0  0  0
  188.2690  177.3820  145.8920 C   0  0  2  0  0  3  0  0  0  0  0  0
  186.9850  177.8400  145.4110 C   0  0  2  0  0  3  0  0  0  0  0  0
  188.6570  177.9700  147.1480 C   0  0  2  0  0  3  0  0  0  0  0  0
  190.9580  176.8920  146.9250 C   0  0  0  0  0  2  0  0  0  0  0  0
  186.1660  177.5740  146.7310 C   0  0  2  0  0  3  0  0  0  0  0  0
  188.9900  177.7990  144.8150 C   0  0  0  0  0  2  0  0  0  0  0  0
  189.7140  177.0190  147.7670 C   0  0  0  0  0  2  0  0  0  0  0  0
  184.9570  178.4380  146.6960 N   0  0  0  0  0  2  0  0  0  0  0  0
  185.2460  180.2960  145.3830 O   0  0  0  0  0  1  0  0  0  0  0  0
  183.5410  178.7870  144.6870 C   0  0  0  0  0  1  0  0  0  0  0  0
  184.9190  178.9160  145.3370 C   0  0  2  0  0  3  0  0  0  0  0  0
  190.7750  177.9510  143.2710 C   0  0  0  0  0  2  0  0  0  0  0  0
  190.4410  176.1670  141.5700 N   0  0  0  0  0  2  0  0  0  0  0  0
  191.0570  177.2870  140.8210 C   0  0  2  0  0  3  0  0  0  0  0  0
  190.0360  177.5820  141.9100 C   0  0  2  0  0  3  0  0  0  0  0  0
  189.7390  178.2640  138.9100 N   0  0  0  0  0  0  0  0  0  0  0  0
  190.8010  176.1280  138.5210 C   0  0  0  0  0  3  0  0  0  0  0  0
  189.5750  177.3120  136.7380 C   0  0  0  0  0  3  0  0  0  0  0  0
  188.5510  179.4860  137.2010 N   0  0  0  0  0  1  0  0  0  0  0  0
  189.3160  178.3070  137.6460 C   0  0  0  0  0  0  0  0  0  0  0  0
  190.3350  176.1790  137.2120 C   0  0  0  0  0  3  0  0  0  0  0  0
  190.5210  177.1920  139.3970 C   0  0  0  0  0  0  0  0  0  0  0  0
  2 10  1  0  0  0  0
  2  4  2  0  0  0  0
  4  8  1  0  0  0  0
  5 10  1  6  0  0  0
  5  7  1  0  0  0  0
  6  1  1  6  0  0  0
  6  5  1  0  0  0  0
  6  9  1  0  0  0  0
  7 11  1  1  0  0  0
  7  3  1  0  0  0  0
  8 11  1  0  0  0  0
  9 12  1  6  0  0  0
  9  3  1  0  0  0  0
 15 14  1  1  0  0  0
 15 13  1  0  0  0  0
 15 12  1  0  0  0  0
 16  2  1  0  0  0  0
 17 19  1  0  0  0  0
 18 26  1  6  0  0  0
 18 17  1  0  0  0  0
 18 19  1  0  0  0  0
 19 16  1  1  0  0  0
 20 26  1  0  0  0  0
 21 26  2  0  0  0  0
 22 25  2  0  0  0  0
 22 24  1  0  0  0  0
 23 24  1  0  0  0  0
 24 20  2  0  0  0  0
 25 21  1  0  0  0  0
M  END
>  <MODEL>
6

>  <REMARK>
 VINA RESULT:      -8.1      1.474      1.951
  Name = 
  5 active torsions:
  status: ('A' for Active; 'I' for Inactive)
    1  A    between atoms: C_2  and  C_26
    2  A    between atoms: C_3  and  C_18
    3  A    between atoms: C_5  and  C_18
    4  A    between atoms: N_7  and  C_13
    5  A    between atoms: N_7  and  C_21
                            x       y       z     vdW  Elec       q    Type
                         _______ _______ _______ _____ _____    ______ ____

>  <TORSDO>
F 5

$$$$
=
 OpenBabel10232410003D

 26 29  0  0  1  0  0  0  0  0999 V2000
  184.9440  177.6640  142.1840 O   0  0  0  0  0  1  0  0  0  0  0  0
  187.7790  177.6560  144.2980 C   0  0  0  0  0  0  0  0  0  0  0  0
  183.9570  179.3310  145.4600 C   0  0  0  0  0  2  0  0  0  0  0  0
  187.9900  177.2900  145.6620 C   0  0  0  0  0  3  0  0  0  0  0  0
  185.5040  178.0750  144.3990 C   0  0  2  0  0  3  0  0  0  0  0  0
  184.7730  178.6090  143.2730 C   0  0  2  0  0  3  0  0  0  0  0  0
  185.3630  178.8570  145.6010 C   0  0  2  0  0  3  0  0  0  0  0  0
  187.1380  177.4140  146.7300 C   0  0  0  0  0  2  0  0  0  0  0  0
  183.3780  178.7690  143.9920 C   0  0  2  0  0  3  0  0  0  0  0  0
  186.7340  178.1300  143.8190 C   0  0  0  0  0  2  0  0  0  0  0  0
  185.7160  177.9120  146.7800 C   0  0  0  0  0  2  0  0  0  0  0  0
  182.5920  179.7790  143.2380 N   0  0  0  0  0  2  0  0  0  0  0  0
  180.4820  180.0510  142.3790 O   0  0  0  0  0  1  0  0  0  0  0  0
  180.7040  178.4140  144.0930 C   0  0  0  0  0  1  0  0  0  0  0  0
  181.3790  179.0800  142.8930 C   0  0  2  0  0  3  0  0  0  0  0  0
  189.0190  177.6630  143.4270 C   0  0  0  0  0  2  0  0  0  0  0  0
  190.2930  176.2390  141.8360 N   0  0  0  0  0  2  0  0  0  0  0  0
  190.1620  177.5440  141.1470 C   0  0  2  0  0  3  0  0  0  0  0  0
  189.0030  177.0120  141.9750 C   0  0  2  0  0  3  0  0  0  0  0  0
  190.6640  176.0040  139.2190 N   0  0  0  0  0  0  0  0  0  0  0  0
  189.5500  178.0810  138.6900 C   0  0  0  0  0  3  0  0  0  0  0  0
  190.0120  176.3810  136.9640 C   0  0  0  0  0  3  0  0  0  0  0  0
  191.1190  174.2880  137.5830 N   0  0  0  0  0  1  0  0  0  0  0  0
  190.5840  175.6130  137.9460 C   0  0  0  0  0  0  0  0  0  0  0  0
  189.4920  177.6690  137.3640 C   0  0  0  0  0  3  0  0  0  0  0  0
  190.1280  177.2370  139.6550 C   0  0  0  0  0  0  0  0  0  0  0  0
  2  4  2  0  0  0  0
  4  8  1  0  0  0  0
  5 10  1  6  0  0  0
  5  7  1  0  0  0  0
  6  1  1  6  0  0  0
  6  9  1  0  0  0  0
  6  5  1  0  0  0  0
  7  3  1  1  0  0  0
  7 11  1  0  0  0  0
  8 11  1  0  0  0  0
  9 12  1  6  0  0  0
  9  3  1  0  0  0  0
 10  2  1  0  0  0  0
 13 15  1  0  0  0  0
 15 12  1  0  0  0  0
 15 14  1  1  0  0  0
 16  2  1  0  0  0  0
 17 19  1  0  0  0  0
 18 26  1  6  0  0  0
 18 17  1  0  0  0  0
 18 19  1  0  0  0  0
 19 16  1  1  0  0  0
 20 26  1  0  0  0  0
 21 26  2  0  0  0  0
 22 25  2  0  0  0  0
 22 24  1  0  0  0  0
 23 24  1  0  0  0  0
 24 20  2  0  0  0  0
 25 21  1  0  0  0  0
M  END
>  <MODEL>
7

>  <REMARK>
 VINA RESULT:      -8.0      1.833      2.495
  Name = 
  5 active torsions:
  status: ('A' for Active; 'I' for Inactive)
    1  A    between atoms: C_2  and  C_26
    2  A    between atoms: C_3  and  C_18
    3  A    between atoms: C_5  and  C_18
    4  A    between atoms: N_7  and  C_13
    5  A    between atoms: N_7  and  C_21
                            x       y       z     vdW  Elec       q    Type
                         _______ _______ _______ _____ _____    ______ ____

>  <TORSDO>
F 5

$$$$
=
 OpenBabel10232410003D

 26 29  0  0  1  0  0  0  0  0999 V2000
  189.2520  178.0440  144.1150 O   0  0  0  0  0  1  0  0  0  0  0  0
  185.7490  178.4310  143.8240 C   0  0  0  0  0  0  0  0  0  0  0  0
  187.6860  176.9950  147.4220 C   0  0  0  0  0  2  0  0  0  0  0  0
  184.7520  179.0370  144.6480 C   0  0  0  0  0  3  0  0  0  0  0  0
  187.3510  178.0380  145.4490 C   0  0  2  0  0  3  0  0  0  0  0  0
  188.5670  177.3110  145.1650 C   0  0  2  0  0  3  0  0  0  0  0  0
  186.5900  177.4860  146.5390 C   0  0  2  0  0  3  0  0  0  0  0  0
  184.6920  179.1080  146.0160 C   0  0  0  0  0  2  0  0  0  0  0  0
  189.1370  177.2840  146.6350 C   0  0  2  0  0  3  0  0  0  0  0  0
  186.7910  177.8790  144.2180 C   0  0  0  0  0  2  0  0  0  0  0  0
  185.6740  178.6280  147.0540 C   0  0  0  0  0  2  0  0  0  0  0  0
  190.0980  176.1540  146.7290 N   0  0  0  0  0  2  0  0  0  0  0  0
  191.9310  177.2510  145.8910 O   0  0  0  0  0  1  0  0  0  0  0  0
  192.3300  175.8430  147.7690 C   0  0  0  0  0  1  0  0  0  0  0  0
  191.3380  176.7920  147.0960 C   0  0  2  0  0  3  0  0  0  0  0  0
  185.3740  178.2660  142.3650 C   0  0  0  0  0  2  0  0  0  0  0  0
  185.4730  179.2900  140.1010 N   0  0  0  0  0  2  0  0  0  0  0  0
  186.1050  177.9600  139.9370 C   0  0  2  0  0  3  0  0  0  0  0  0
  186.3510  178.7580  141.2080 C   0  0  2  0  0  3  0  0  0  0  0  0
  186.6880  178.0650  137.4900 N   0  0  0  0  0  0  0  0  0  0  0  0
  188.5070  178.3490  139.0550 C   0  0  0  0  0  3  0  0  0  0  0  0
  188.8480  178.5480  136.6200 C   0  0  0  0  0  3  0  0  0  0  0  0
  186.9500  178.2760  135.1000 N   0  0  0  0  0  1  0  0  0  0  0  0
  187.5100  178.2900  136.4630 C   0  0  0  0  0  0  0  0  0  0  0  0
  189.3540  178.5610  137.9740 C   0  0  0  0  0  3  0  0  0  0  0  0
  187.1390  178.1130  138.8290 C   0  0  0  0  0  0  0  0  0  0  0  0
  2 10  1  0  0  0  0
  2  4  2  0  0  0  0
  4  8  1  0  0  0  0
  5 10  1  6  0  0  0
  5  7  1  0  0  0  0
  6  1  1  6  0  0  0
  6  5  1  0  0  0  0
  6  9  1  0  0  0  0
  7 11  1  1  0  0  0
  7  3  1  0  0  0  0
  8 11  1  0  0  0  0
  9 12  1  6  0  0  0
  9  3  1  0  0  0  0
 12 15  1  0  0  0  0
 13 15  1  0  0  0  0
 15 14  1  6  0  0  0
 16  2  1  0  0  0  0
 17 19  1  0  0  0  0
 18 26  1  6  0  0  0
 18 17  1  0  0  0  0
 18 19  1  0  0  0  0
 19 16  1  1  0  0  0
 20 26  1  0  0  0  0
 22 25  2  0  0  0  0
 23 24  1  0  0  0  0
 24 22  1  0  0  0  0
 24 20  2  0  0  0  0
 25 21  1  0  0  0  0
 26 21  2  0  0  0  0
M  END
>  <MODEL>
8

>  <REMARK>
 VINA RESULT:      -8.0      2.510      5.101
  Name = 
  5 active torsions:
  status: ('A' for Active; 'I' for Inactive)
    1  A    between atoms: C_2  and  C_26
    2  A    between atoms: C_3  and  C_18
    3  A    between atoms: C_5  and  C_18
    4  A    between atoms: N_7  and  C_13
    5  A    between atoms: N_7  and  C_21
                            x       y       z     vdW  Elec       q    Type
                         _______ _______ _______ _____ _____    ______ ____

>  <TORSDO>
F 5

$$$$
=
 OpenBabel10232410003D

 26 29  0  0  1  0  0  0  0  0999 V2000
  191.0780  178.8510  143.4100 O   0  0  0  0  0  1  0  0  0  0  0  0
  187.9040  178.0280  142.0850 C   0  0  0  0  0  0  0  0  0  0  0  0
  189.1610  176.9350  146.0830 C   0  0  0  0  0  2  0  0  0  0  0  0
  186.5690  178.1470  142.5780 C   0  0  0  0  0  3  0  0  0  0  0  0
  189.0240  178.0250  144.1120 C   0  0  2  0  0  3  0  0  0  0  0  0
  190.4500  177.8050  144.1980 C   0  0  2  0  0  3  0  0  0  0  0  0
  188.2500  177.1170  144.9170 C   0  0  2  0  0  3  0  0  0  0  0  0
  186.1120  178.0280  143.8660 C   0  0  0  0  0  2  0  0  0  0  0  0
  190.5610  177.8020  145.7710 C   0  0  2  0  0  3  0  0  0  0  0  0
  188.9240  177.8300  142.7680 C   0  0  0  0  0  2  0  0  0  0  0  0
  186.8750  177.7990  145.1460 C   0  0  0  0  0  2  0  0  0  0  0  0
  191.8040  177.0740  146.1370 N   0  0  0  0  0  2  0  0  0  0  0  0
  191.9800  177.2910  148.4140 O   0  0  0  0  0  1  0  0  0  0  0  0
  192.1150  175.0700  147.5680 C   0  0  0  0  0  1  0  0  0  0  0  0
  191.4730  176.4470  147.3920 C   0  0  2  0  0  3  0  0  0  0  0  0
  188.0330  177.9200  140.5790 C   0  0  0  0  0  2  0  0  0  0  0  0
  189.6140  178.2440  138.6880 N   0  0  0  0  0  2  0  0  0  0  0  0
  189.0940  176.8680  138.5080 C   0  0  2  0  0  3  0  0  0  0  0  0
  189.3750  177.3890  139.9090 C   0  0  2  0  0  3  0  0  0  0  0  0
  191.4880  176.6720  137.7540 N   0  0  0  0  0  0  0  0  0  0  0  0
  190.0620  174.7630  137.3540 C   0  0  0  0  0  3  0  0  0  0  0  0
  192.4670  174.7220  136.8090 C   0  0  0  0  0  3  0  0  0  0  0  0
  193.8530  176.6850  137.2710 N   0  0  0  0  0  1  0  0  0  0  0  0
  192.5430  176.0090  137.2780 C   0  0  0  0  0  0  0  0  0  0  0  0
  191.1660  174.0930  136.8420 C   0  0  0  0  0  3  0  0  0  0  0  0
  190.2110  176.0740  137.8420 C   0  0  0  0  0  0  0  0  0  0  0  0
  2  4  2  0  0  0  0
  2 10  1  0  0  0  0
  4  8  1  0  0  0  0
  5 10  1  6  0  0  0
  5  6  1  0  0  0  0
  5  7  1  0  0  0  0
  6  1  1  6  0  0  0
  6  9  1  0  0  0  0
  7 11  1  1  0  0  0
  7  3  1  0  0  0  0
  8 11  1  0  0  0  0
  9  3  1  0  0  0  0
  9 12  1  6  0  0  0
 12 15  1  0  0  0  0
 15 14  1  6  0  0  0
 15 13  1  0  0  0  0
 16  2  1  0  0  0  0
 17 19  1  0  0  0  0
 18 26  1  6  0  0  0
 18 17  1  0  0  0  0
 18 19  1  0  0  0  0
 19 16  1  1  0  0  0
 20 26  1  0  0  0  0
 21 26  2  0  0  0  0
 22 25  2  0  0  0  0
 22 24  1  0  0  0  0
 23 24  1  0  0  0  0
 24 20  2  0  0  0  0
 25 21  1  0  0  0  0
M  END
>  <MODEL>
9

>  <REMARK>
 VINA RESULT:      -8.0      2.995      5.562
  Name = 
  5 active torsions:
  status: ('A' for Active; 'I' for Inactive)
    1  A    between atoms: C_2  and  C_26
    2  A    between atoms: C_3  and  C_18
    3  A    between atoms: C_5  and  C_18
    4  A    between atoms: N_7  and  C_13
    5  A    between atoms: N_7  and  C_21
                            x       y       z     vdW  Elec       q    Type
                         _______ _______ _______ _____ _____    ______ ____

>  <TORSDO>
F 5

$$$$
