=
 OpenBabel10232409253D

 52 58  0  0  1  0  0  0  0  0999 V2000
  184.4150  174.8250  136.5040 C   0  0  0  0  0  0  0  0  0  0  0  0
  189.0670  174.6810  136.8620 C   0  0  1  0  0  3  0  0  0  0  0  0
  190.9550  173.5610  135.8780 C   0  0  0  0  0  0  0  0  0  0  0  0
  183.8440  173.4430  136.6880 C   0  0  1  0  0  3  0  0  0  0  0  0
  190.4830  173.1590  134.6880 C   0  0  0  0  0  3  0  0  0  0  0  0
  190.0660  173.6110  137.0820 C   0  0  1  0  0  3  0  0  0  0  0  0
  186.6750  172.7050  136.2650 C   0  0  0  0  0  0  0  0  0  0  0  0
  187.8470  171.7580  136.3830 C   0  0  0  0  0  2  0  0  0  0  0  0
  182.3850  173.4540  136.7130 N   0  0  0  0  0  1  0  0  0  0  0  0
  185.7440  175.0050  136.6140 C   0  0  0  0  0  3  0  0  0  0  0  0
  188.5810  171.5350  135.0510 C   0  0  0  0  0  2  0  0  0  0  0  0
  187.8890  174.3160  137.5380 O   0  0  0  0  0  0  0  0  0  0  0  0
  184.2930  172.5790  135.6040 N   0  0  0  0  0  0  0  0  0  0  0  0
  186.7620  173.9480  136.8090 C   0  0  0  0  0  0  0  0  0  0  0  0
  190.1360  174.8410  137.7540 O   0  0  0  0  0  0  0  0  0  0  0  0
  185.5400  172.2310  135.4320 C   0  0  0  0  0  3  0  0  0  0  0  0
  189.0510  172.8390  134.4020 C   0  0  0  0  0  2  0  0  0  0  0  0
  194.1080  175.7700  135.9340 C   0  0  0  0  0  0  0  0  0  0  0  0
  194.3100  176.9650  136.2090 O   0  0  0  0  0  0  0  0  0  0  0  0
  192.3810  173.9020  136.0150 C   0  0  0  0  0  0  0  0  0  0  0  0
  192.7710  175.2820  136.0130 N   0  0  0  0  0  2  0  0  0  0  0  0
  193.2410  172.9880  136.1520 O   0  0  0  0  0  0  0  0  0  0  0  0
  195.2570  174.8760  135.5560 C   0  0  0  0  0  2  0  0  0  0  0  0
  198.7220  174.3250  136.5320 C   0  0  0  0  0  2  0  0  0  0  0  0
  196.3830  174.9180  136.5690 C   0  0  1  0  0  3  0  0  0  0  0  0
  196.5370  173.5530  137.2320 C   0  0  1  0  0  3  0  0  0  0  0  0
  197.6920  175.2100  135.8690 C   0  0  0  0  0  2  0  0  0  0  0  0
  197.9610  173.0870  136.9720 C   0  0  0  0  0  2  0  0  0  0  0  0
  195.2410  172.8650  139.1090 O   0  0  0  0  0  1  0  0  0  0  0  0
  196.2960  173.6920  138.7210 C   0  0  0  0  0  2  0  0  0  0  0  0
  183.5330  176.0090  136.1580 C   0  0  2  0  0  3  0  0  0  0  0  0
  184.3690  177.2720  135.9900 C   0  0  0  0  0  1  0  0  0  0  0  0
  182.5530  176.2220  137.1360 O   0  0  0  0  0  0  0  0  0  0  0  0
  183.2620  176.9750  139.3210 C   0  0  2  0  0  3  0  0  0  0  0  0
  180.6000  178.2750  137.5820 C   0  0  0  0  0  2  0  0  0  0  0  0
  182.9810  177.3340  137.8610 C   0  0  2  0  0  3  0  0  0  0  0  0
  180.3790  179.3070  138.6720 C   0  0  0  0  0  2  0  0  0  0  0  0
  182.2020  176.2820  139.8720 O   0  0  0  0  0  1  0  0  0  0  0  0
  183.5490  178.2280  140.1200 C   0  0  1  0  0  3  0  0  0  0  0  0
  182.0870  178.5700  137.6120 C   0  0  2  0  0  3  0  0  0  0  0  0
  182.3110  179.0940  140.1600 C   0  0  0  0  0  2  0  0  0  0  0  0
  181.8740  179.5560  138.7680 C   0  0  2  0  0  3  0  0  0  0  0  0
  183.9610  177.9020  141.4830 N   0  0  0  0  0  2  0  0  0  0  0  0
  185.0890  178.7620  141.8230 C   0  0  2  0  0  3  0  0  0  0  0  0
  186.0730  178.7880  140.6670 C   0  0  0  0  0  1  0  0  0  0  0  0
  185.7320  178.1320  145.5110 C   0  0  0  0  0  0  0  0  0  0  0  0
  185.7550  178.3330  143.1050 C   0  0  0  0  0  0  0  0  0  0  0  0
  185.1310  178.5790  144.3360 C   0  0  0  0  0  3  0  0  0  0  0  0
  187.5160  177.1810  144.2140 C   0  0  0  0  0  3  0  0  0  0  0  0
  186.9300  177.6400  143.0800 N   0  0  0  0  0  0  0  0  0  0  0  0
  186.9270  177.4180  145.4550 C   0  0  0  0  0  3  0  0  0  0  0  0
  185.0980  178.4170  146.8180 C   0  0  0  0  0  1  0  0  0  0  0  0
  1 10  2  0  0  0  0
  1  4  1  0  0  0  0
  2  6  1  0  0  0  0
  2 12  1  1  0  0  0
  2 15  1  0  0  0  0
  3 20  1  0  0  0  0
  4  9  1  6  0  0  0
  5  3  2  0  0  0  0
  6  3  1  6  0  0  0
  6 15  1  0  0  0  0
  7  8  1  0  0  0  0
  7 14  2  0  0  0  0
 10 14  1  0  0  0  0
 11  8  1  0  0  0  0
 13  4  1  0  0  0  0
 14 12  1  0  0  0  0
 16 13  2  0  0  0  0
 16  7  1  0  0  0  0
 17  5  1  0  0  0  0
 17 11  1  0  0  0  0
 18 21  1  0  0  0  0
 18 19  2  0  0  0  0
 20 22  2  0  0  0  0
 21 20  1  0  0  0  0
 23 18  1  0  0  0  0
 24 28  1  0  0  0  0
 25 23  1  6  0  0  0
 25 26  1  0  0  0  0
 26 30  1  1  0  0  0
 27 24  1  0  0  0  0
 27 25  1  0  0  0  0
 28 26  1  0  0  0  0
 30 29  1  0  0  0  0
 31 32  1  1  0  0  0
 31  1  1  0  0  0  0
 31 33  1  0  0  0  0
 34 38  1  1  0  0  0
 34 39  1  0  0  0  0
 35 37  1  0  0  0  0
 36 33  1  1  0  0  0
 36 34  1  0  0  0  0
 39 41  1  0  0  0  0
 39 43  1  1  0  0  0
 40 35  1  1  0  0  0
 40 36  1  0  0  0  0
 40 42  1  0  0  0  0
 42 37  1  1  0  0  0
 42 41  1  0  0  0  0
 43 44  1  0  0  0  0
 44 45  1  6  0  0  0
 44 47  1  0  0  0  0
 46 52  1  0  0  0  0
 47 48  1  0  0  0  0
 48 46  2  0  0  0  0
 49 51  2  0  0  0  0
 50 47  2  0  0  0  0
 50 49  1  0  0  0  0
 51 46  1  0  0  0  0
M  END
>  <MODEL>
1

>  <REMARK>
 VINA RESULT:      -8.0      0.000      0.000
  Name = 
  10 active torsions:
  status: ('A' for Active; 'I' for Inactive)
    1  A    between atoms: C_1  and  C_30
    2  A    between atoms: C_6  and  C_30
    3  A    between atoms: C_8  and  C_33
    4  A    between atoms: C_9  and  O_18
    5  A    between atoms: C_10  and  C_16
    6  A    between atoms: C_12  and  C_52
    7  A    between atoms: C_13  and  C_17
    8  A    between atoms: C_16  and  N_48
    9  A    between atoms: O_18  and  C_33
   10  A    between atoms: C_23  and  N_48
                            x       y       z     vdW  Elec       q    Type
                         _______ _______ _______ _____ _____    ______ ____

>  <TORSDO>
F 10

$$$$
=
 OpenBabel10232409253D

 52 58  0  0  1  0  0  0  0  0999 V2000
  182.1400  177.8550  140.1640 C   0  0  0  0  0  0  0  0  0  0  0  0
  186.5390  178.0720  141.7110 C   0  0  1  0  0  3  0  0  0  0  0  0
  187.7630  178.1140  143.7820 C   0  0  0  0  0  0  0  0  0  0  0  0
  181.3320  178.9800  140.7580 C   0  0  1  0  0  3  0  0  0  0  0  0
  186.8990  177.5720  144.6550 C   0  0  0  0  0  3  0  0  0  0  0  0
  187.2780  178.9550  142.6410 C   0  0  1  0  0  3  0  0  0  0  0  0
  183.6790  179.1200  142.5500 C   0  0  0  0  0  0  0  0  0  0  0  0
  184.5800  179.8390  143.5280 C   0  0  0  0  0  2  0  0  0  0  0  0
  179.9820  179.0330  140.2070 N   0  0  0  0  0  1  0  0  0  0  0  0
  183.4510  177.7660  140.4540 C   0  0  0  0  0  3  0  0  0  0  0  0
  184.8440  179.0350  144.8110 C   0  0  0  0  0  2  0  0  0  0  0  0
  185.5420  178.8430  141.0860 O   0  0  0  0  0  0  0  0  0  0  0  0
  181.2480  178.8130  142.2040 N   0  0  0  0  0  0  0  0  0  0  0  0
  184.2040  178.6220  141.3990 C   0  0  0  0  0  0  0  0  0  0  0  0
  187.8190  178.5570  141.4090 O   0  0  0  0  0  0  0  0  0  0  0  0
  182.2790  178.9010  142.9980 C   0  0  0  0  0  3  0  0  0  0  0  0
  185.4100  177.6400  144.5360 C   0  0  0  0  0  2  0  0  0  0  0  0
  191.0920  176.2310  144.2130 C   0  0  0  0  0  0  0  0  0  0  0  0
  191.5140  175.1350  143.8070 O   0  0  0  0  0  0  0  0  0  0  0  0
  189.2090  177.9270  143.9820 C   0  0  0  0  0  0  0  0  0  0  0  0
  189.7660  176.6120  143.8580 N   0  0  0  0  0  2  0  0  0  0  0  0
  189.9470  178.9190  144.2380 O   0  0  0  0  0  0  0  0  0  0  0  0
  191.9800  177.1260  145.0330 C   0  0  0  0  0  2  0  0  0  0  0  0
  191.5130  174.9950  147.9500 C   0  0  0  0  0  2  0  0  0  0  0  0
  191.7950  176.9210  146.5240 C   0  0  1  0  0  3  0  0  0  0  0  0
  190.3120  176.7860  146.8500 C   0  0  1  0  0  3  0  0  0  0  0  0
  192.4520  175.6260  146.9490 C   0  0  0  0  0  2  0  0  0  0  0  0
  190.1230  175.4380  147.5280 C   0  0  0  0  0  2  0  0  0  0  0  0
  188.6980  177.5840  148.4100 O   0  0  0  0  0  1  0  0  0  0  0  0
  189.9040  177.9050  147.7880 C   0  0  0  0  0  2  0  0  0  0  0  0
  181.5030  176.7990  139.2830 C   0  0  2  0  0  3  0  0  0  0  0  0
  182.0540  175.4180  139.6130 C   0  0  0  0  0  1  0  0  0  0  0  0
  181.7060  177.0730  137.9250 O   0  0  0  0  0  0  0  0  0  0  0  0
  183.7190  176.4370  136.7460 C   0  0  2  0  0  3  0  0  0  0  0  0
  180.5320  175.6860  135.7050 C   0  0  0  0  0  2  0  0  0  0  0  0
  182.4250  175.9870  137.4260 C   0  0  2  0  0  3  0  0  0  0  0  0
  181.0900  174.8940  134.5360 C   0  0  0  0  0  2  0  0  0  0  0  0
  183.4740  177.4500  135.8400 O   0  0  0  0  0  1  0  0  0  0  0  0
  184.3840  175.2620  136.0610 C   0  0  1  0  0  3  0  0  0  0  0  0
  181.5270  175.0120  136.6290 C   0  0  2  0  0  3  0  0  0  0  0  0
  183.5020  174.7700  134.9370 C   0  0  0  0  0  2  0  0  0  0  0  0
  182.1430  174.2710  135.4350 C   0  0  2  0  0  3  0  0  0  0  0  0
  185.6920  175.6340  135.5260 N   0  0  0  0  0  2  0  0  0  0  0  0
  186.7040  174.9160  136.2910 C   0  0  2  0  0  3  0  0  0  0  0  0
  186.0280  173.9290  137.2260 C   0  0  0  0  0  1  0  0  0  0  0  0
  189.7570  176.3460  138.0370 C   0  0  0  0  0  0  0  0  0  0  0  0
  187.6110  175.8550  137.0440 C   0  0  0  0  0  0  0  0  0  0  0  0
  188.9090  175.4500  137.3870 C   0  0  0  0  0  3  0  0  0  0  0  0
  188.0310  178.0140  137.9470 C   0  0  0  0  0  3  0  0  0  0  0  0
  187.2110  177.1250  137.3340 N   0  0  0  0  0  0  0  0  0  0  0  0
  189.3250  177.6410  138.3110 C   0  0  0  0  0  3  0  0  0  0  0  0
  191.1170  175.9170  138.4340 C   0  0  0  0  0  1  0  0  0  0  0  0
  1 10  2  0  0  0  0
  1  4  1  0  0  0  0
  2 12  1  6  0  0  0
  2  6  1  0  0  0  0
  3 20  1  0  0  0  0
  3  5  2  0  0  0  0
  4  9  1  6  0  0  0
  4 13  1  0  0  0  0
  6 15  1  6  0  0  0
  6  3  1  0  0  0  0
  7 16  1  0  0  0  0
  7  8  1  0  0  0  0
  8 11  1  0  0  0  0
 10 14  1  0  0  0  0
 12 14  1  0  0  0  0
 13 16  2  0  0  0  0
 14  7  2  0  0  0  0
 15  2  1  0  0  0  0
 17  5  1  0  0  0  0
 17 11  1  0  0  0  0
 18 23  1  0  0  0  0
 19 18  2  0  0  0  0
 20 22  2  0  0  0  0
 21 20  1  0  0  0  0
 21 18  1  0  0  0  0
 25 23  1  6  0  0  0
 25 26  1  0  0  0  0
 25 27  1  0  0  0  0
 26 28  1  0  0  0  0
 26 30  1  1  0  0  0
 27 24  1  0  0  0  0
 28 24  1  0  0  0  0
 30 29  1  0  0  0  0
 31 32  1  1  0  0  0
 31  1  1  0  0  0  0
 33 31  1  0  0  0  0
 34 38  1  6  0  0  0
 34 36  1  0  0  0  0
 36 33  1  6  0  0  0
 37 35  1  0  0  0  0
 39 43  1  6  0  0  0
 39 34  1  0  0  0  0
 40 35  1  6  0  0  0
 40 36  1  0  0  0  0
 41 42  1  0  0  0  0
 41 39  1  0  0  0  0
 42 37  1  6  0  0  0
 42 40  1  0  0  0  0
 43 44  1  0  0  0  0
 44 47  1  0  0  0  0
 44 45  1  1  0  0  0
 46 51  1  0  0  0  0
 46 52  1  0  0  0  0
 47 50  2  0  0  0  0
 47 48  1  0  0  0  0
 48 46  2  0  0  0  0
 49 51  2  0  0  0  0
 50 49  1  0  0  0  0
M  END
>  <MODEL>
2

>  <REMARK>
 VINA RESULT:      -7.4      3.882      8.479
  Name = 
  10 active torsions:
  status: ('A' for Active; 'I' for Inactive)
    1  A    between atoms: C_1  and  C_30
    2  A    between atoms: C_6  and  C_30
    3  A    between atoms: C_8  and  C_33
    4  A    between atoms: C_9  and  O_18
    5  A    between atoms: C_10  and  C_16
    6  A    between atoms: C_12  and  C_52
    7  A    between atoms: C_13  and  C_17
    8  A    between atoms: C_16  and  N_48
    9  A    between atoms: O_18  and  C_33
   10  A    between atoms: C_23  and  N_48
                            x       y       z     vdW  Elec       q    Type
                         _______ _______ _______ _____ _____    ______ ____

>  <TORSDO>
F 10

$$$$
=
 OpenBabel10232409253D

 52 58  0  0  1  0  0  0  0  0999 V2000
  183.9730  178.7050  142.1430 C   0  0  0  0  0  0  0  0  0  0  0  0
  188.2450  178.2120  140.3260 C   0  0  1  0  0  3  0  0  0  0  0  0
  190.3290  177.1070  140.7970 C   0  0  0  0  0  0  0  0  0  0  0  0
  184.0730  179.2310  143.5520 C   0  0  1  0  0  3  0  0  0  0  0  0
  189.9670  176.1150  141.6250 C   0  0  0  0  0  3  0  0  0  0  0  0
  189.6230  178.4270  140.8220 C   0  0  1  0  0  3  0  0  0  0  0  0
  186.8920  178.4270  143.1740 C   0  0  0  0  0  0  0  0  0  0  0  0
  188.3640  178.4900  143.5160 C   0  0  0  0  0  2  0  0  0  0  0  0
  182.7600  179.5240  144.1190 N   0  0  0  0  0  1  0  0  0  0  0  0
  185.0990  178.5330  141.4270 C   0  0  0  0  0  3  0  0  0  0  0  0
  188.9930  177.1060  143.7370 C   0  0  0  0  0  2  0  0  0  0  0  0
  187.4080  179.1490  140.9600 O   0  0  0  0  0  0  0  0  0  0  0  0
  184.7460  178.2520  144.3950 N   0  0  0  0  0  0  0  0  0  0  0  0
  186.4870  178.7180  141.9090 C   0  0  0  0  0  0  0  0  0  0  0  0
  189.2190  178.8480  139.5460 O   0  0  0  0  0  0  0  0  0  0  0  0
  185.9990  177.9160  144.2450 C   0  0  0  0  0  3  0  0  0  0  0  0
  188.7920  176.1620  142.5490 C   0  0  0  0  0  2  0  0  0  0  0  0
  192.2510  175.9610  137.6650 C   0  0  0  0  0  0  0  0  0  0  0  0
  191.9260  175.7840  136.4790 O   0  0  0  0  0  0  0  0  0  0  0  0
  191.4750  176.9150  139.8940 C   0  0  0  0  0  0  0  0  0  0  0  0
  191.2460  176.3910  138.5790 N   0  0  0  0  0  2  0  0  0  0  0  0
  192.6390  177.2280  140.2700 O   0  0  0  0  0  0  0  0  0  0  0  0
  193.6760  175.7460  138.0990 C   0  0  0  0  0  2  0  0  0  0  0  0
  195.0990  172.4170  137.7030 C   0  0  0  0  0  2  0  0  0  0  0  0
  194.3780  174.6810  137.2810 C   0  0  1  0  0  3  0  0  0  0  0  0
  195.8750  174.7060  137.5680 C   0  0  1  0  0  3  0  0  0  0  0  0
  193.8820  173.3110  137.6880 C   0  0  0  0  0  2  0  0  0  0  0  0
  196.2570  173.3250  138.0800 C   0  0  0  0  0  2  0  0  0  0  0  0
  197.7500  175.7880  136.5740 O   0  0  0  0  0  1  0  0  0  0  0  0
  196.6240  175.0160  136.2880 C   0  0  0  0  0  2  0  0  0  0  0  0
  182.6400  178.3250  141.5300 C   0  0  2  0  0  3  0  0  0  0  0  0
  182.6890  176.9100  140.9680 C   0  0  0  0  0  1  0  0  0  0  0  0
  182.2670  179.2190  140.5180 O   0  0  0  0  0  0  0  0  0  0  0  0
  183.2060  178.2720  138.5020 C   0  0  2  0  0  3  0  0  0  0  0  0
  180.4710  180.3500  138.5880 C   0  0  0  0  0  2  0  0  0  0  0  0
  181.9810  178.4300  139.4050 C   0  0  2  0  0  3  0  0  0  0  0  0
  180.2930  180.1930  137.0880 C   0  0  0  0  0  2  0  0  0  0  0  0
  183.7780  179.4980  138.2260 O   0  0  0  0  0  1  0  0  0  0  0  0
  182.8210  177.5650  137.2200 C   0  0  1  0  0  3  0  0  0  0  0  0
  180.6630  178.8510  138.7160 C   0  0  2  0  0  3  0  0  0  0  0  0
  181.8640  178.4330  136.4350 C   0  0  0  0  0  2  0  0  0  0  0  0
  180.5610  178.7020  137.1920 C   0  0  2  0  0  3  0  0  0  0  0  0
  183.9970  177.2740  136.4040 N   0  0  0  0  0  2  0  0  0  0  0  0
  184.2060  175.8310  136.4260 C   0  0  2  0  0  3  0  0  0  0  0  0
  183.2560  175.1960  137.4270 C   0  0  0  0  0  1  0  0  0  0  0  0
  187.3850  173.8210  136.9430 C   0  0  0  0  0  0  0  0  0  0  0  0
  185.6400  175.4760  136.7250 C   0  0  0  0  0  0  0  0  0  0  0  0
  186.0450  174.1340  136.7170 C   0  0  0  0  0  3  0  0  0  0  0  0
  187.8800  176.1640  137.1340 C   0  0  0  0  0  3  0  0  0  0  0  0
  186.5690  176.4520  136.9330 N   0  0  0  0  0  0  0  0  0  0  0  0
  188.3140  174.8390  137.1420 C   0  0  0  0  0  3  0  0  0  0  0  0
  187.8170  172.4050  136.9700 C   0  0  0  0  0  1  0  0  0  0  0  0
  1  4  1  0  0  0  0
  2 15  1  6  0  0  0
  2  6  1  0  0  0  0
  2 12  1  0  0  0  0
  3  6  1  0  0  0  0
  3  5  2  0  0  0  0
  4  9  1  1  0  0  0
  4 13  1  0  0  0  0
  5 17  1  0  0  0  0
  6 15  1  6  0  0  0
  7  8  1  0  0  0  0
  7 16  1  0  0  0  0
  8 11  1  0  0  0  0
 10 14  1  0  0  0  0
 10  1  2  0  0  0  0
 12 14  1  0  0  0  0
 14  7  2  0  0  0  0
 16 13  2  0  0  0  0
 17 11  1  0  0  0  0
 18 23  1  0  0  0  0
 18 21  1  0  0  0  0
 19 18  2  0  0  0  0
 20 22  2  0  0  0  0
 20  3  1  0  0  0  0
 21 20  1  0  0  0  0
 24 28  1  0  0  0  0
 25 26  1  0  0  0  0
 25 27  1  0  0  0  0
 25 23  1  1  0  0  0
 26 30  1  6  0  0  0
 26 28  1  0  0  0  0
 27 24  1  0  0  0  0
 30 29  1  0  0  0  0
 31 32  1  6  0  0  0
 31  1  1  0  0  0  0
 33 31  1  0  0  0  0
 34 38  1  6  0  0  0
 34 36  1  0  0  0  0
 36 33  1  1  0  0  0
 37 42  1  0  0  0  0
 37 35  1  0  0  0  0
 39 43  1  6  0  0  0
 39 34  1  0  0  0  0
 40 35  1  6  0  0  0
 40 36  1  0  0  0  0
 41 39  1  0  0  0  0
 42 41  1  6  0  0  0
 42 40  1  0  0  0  0
 43 44  1  0  0  0  0
 44 47  1  0  0  0  0
 44 45  1  1  0  0  0
 46 52  1  0  0  0  0
 46 51  1  0  0  0  0
 47 50  2  0  0  0  0
 48 47  1  0  0  0  0
 48 46  2  0  0  0  0
 49 51  2  0  0  0  0
 50 49  1  0  0  0  0
M  END
>  <MODEL>
3

>  <REMARK>
 VINA RESULT:      -7.2      2.489      6.270
  Name = 
  10 active torsions:
  status: ('A' for Active; 'I' for Inactive)
    1  A    between atoms: C_1  and  C_30
    2  A    between atoms: C_6  and  C_30
    3  A    between atoms: C_8  and  C_33
    4  A    between atoms: C_9  and  O_18
    5  A    between atoms: C_10  and  C_16
    6  A    between atoms: C_12  and  C_52
    7  A    between atoms: C_13  and  C_17
    8  A    between atoms: C_16  and  N_48
    9  A    between atoms: O_18  and  C_33
   10  A    between atoms: C_23  and  N_48
                            x       y       z     vdW  Elec       q    Type
                         _______ _______ _______ _____ _____    ______ ____

>  <TORSDO>
F 10

$$$$
=
 OpenBabel10232409253D

 52 58  0  0  1  0  0  0  0  0999 V2000
  187.2100  177.8630  139.5060 C   0  0  0  0  0  0  0  0  0  0  0  0
  190.2000  174.9140  137.4670 C   0  0  1  0  0  3  0  0  0  0  0  0
  191.6590  174.8000  135.5580 C   0  0  0  0  0  0  0  0  0  0  0  0
  186.1510  178.2830  138.5200 C   0  0  1  0  0  3  0  0  0  0  0  0
  191.8730  176.0910  135.2620 C   0  0  0  0  0  3  0  0  0  0  0  0
  190.3430  174.3440  136.1090 C   0  0  1  0  0  3  0  0  0  0  0  0
  188.0900  177.1110  136.6230 C   0  0  0  0  0  0  0  0  0  0  0  0
  188.4640  176.5000  135.2900 C   0  0  0  0  0  2  0  0  0  0  0  0
  185.1180  179.1040  139.1440 N   0  0  0  0  0  1  0  0  0  0  0  0
  188.1470  176.9770  139.1240 C   0  0  0  0  0  3  0  0  0  0  0  0
  189.6780  177.1770  134.6350 C   0  0  0  0  0  2  0  0  0  0  0  0
  188.8280  175.1180  137.7060 O   0  0  0  0  0  0  0  0  0  0  0  0
  186.7630  179.0360  137.4330 N   0  0  0  0  0  0  0  0  0  0  0  0
  188.3240  176.4130  137.7660 C   0  0  0  0  0  0  0  0  0  0  0  0
  190.4840  173.5580  137.2620 O   0  0  0  0  0  0  0  0  0  0  0  0
  187.6000  178.5120  136.5790 C   0  0  0  0  0  3  0  0  0  0  0  0
  190.9110  177.2010  135.5420 C   0  0  0  0  0  2  0  0  0  0  0  0
  193.6700  171.5370  135.9140 C   0  0  0  0  0  0  0  0  0  0  0  0
  193.3720  170.3830  136.2660 O   0  0  0  0  0  0  0  0  0  0  0  0
  192.7120  173.8090  135.2830 C   0  0  0  0  0  0  0  0  0  0  0  0
  192.6410  172.5230  135.9140 N   0  0  0  0  0  2  0  0  0  0  0  0
  193.6520  174.0870  134.4860 O   0  0  0  0  0  0  0  0  0  0  0  0
  195.0740  171.8560  135.4790 C   0  0  0  0  0  2  0  0  0  0  0  0
  195.5160  173.5130  138.6930 C   0  0  0  0  0  2  0  0  0  0  0  0
  195.9390  172.3460  136.6240 C   0  0  1  0  0  3  0  0  0  0  0  0
  196.2900  173.8150  136.4200 C   0  0  1  0  0  3  0  0  0  0  0  0
  195.1680  172.2610  137.9230 C   0  0  0  0  0  2  0  0  0  0  0  0
  195.7790  174.5720  137.6360 C   0  0  0  0  0  2  0  0  0  0  0  0
  198.1320  175.3040  136.1650 O   0  0  0  0  0  1  0  0  0  0  0  0
  197.7950  173.9580  136.3070 C   0  0  0  0  0  2  0  0  0  0  0  0
  187.2690  178.4470  140.9040 C   0  0  2  0  0  3  0  0  0  0  0  0
  188.7130  178.5820  141.3710 C   0  0  0  0  0  1  0  0  0  0  0  0
  186.5520  177.6640  141.8180 O   0  0  0  0  0  0  0  0  0  0  0  0
  187.0930  177.3300  144.1500 C   0  0  2  0  0  3  0  0  0  0  0  0
  184.1270  178.6330  143.0060 C   0  0  0  0  0  2  0  0  0  0  0  0
  186.6820  178.3080  143.0480 C   0  0  2  0  0  3  0  0  0  0  0  0
  183.6660  178.8620  144.4340 C   0  0  0  0  0  2  0  0  0  0  0  0
  186.2790  176.2150  144.1500 O   0  0  0  0  0  1  0  0  0  0  0  0
  187.0520  178.0170  145.4990 C   0  0  1  0  0  3  0  0  0  0  0  0
  185.4780  179.2280  143.3530 C   0  0  2  0  0  3  0  0  0  0  0  0
  185.6270  178.3990  145.8250 C   0  0  0  0  0  2  0  0  0  0  0  0
  185.0390  179.3870  144.8150 C   0  0  2  0  0  3  0  0  0  0  0  0
  187.5770  177.1490  146.5500 N   0  0  0  0  0  2  0  0  0  0  0  0
  188.8590  177.6950  146.9770 C   0  0  2  0  0  3  0  0  0  0  0  0
  188.6520  179.0860  147.5510 C   0  0  0  0  0  1  0  0  0  0  0  0
  191.3360  176.5210  144.3510 C   0  0  0  0  0  0  0  0  0  0  0  0
  189.8670  177.7060  145.8570 C   0  0  0  0  0  0  0  0  0  0  0  0
  190.4450  176.5050  145.4230 C   0  0  0  0  0  3  0  0  0  0  0  0
  191.0220  178.8930  144.1500 C   0  0  0  0  0  3  0  0  0  0  0  0
  190.1720  178.8650  145.2070 N   0  0  0  0  0  0  0  0  0  0  0  0
  191.6220  177.7180  143.6990 C   0  0  0  0  0  3  0  0  0  0  0  0
  191.9780  175.2620  143.9070 C   0  0  0  0  0  1  0  0  0  0  0  0
  1 31  1  0  0  0  0
  2 15  1  1  0  0  0
  2 12  1  0  0  0  0
  4  9  1  1  0  0  0
  4  1  1  0  0  0  0
  5 17  1  0  0  0  0
  5  3  2  0  0  0  0
  6  3  1  1  0  0  0
  6 15  1  0  0  0  0
  6  2  1  0  0  0  0
  7 14  2  0  0  0  0
  8  7  1  0  0  0  0
 10  1  2  0  0  0  0
 11  8  1  0  0  0  0
 11 17  1  0  0  0  0
 12 14  1  0  0  0  0
 13  4  1  0  0  0  0
 14 10  1  0  0  0  0
 16  7  1  0  0  0  0
 16 13  2  0  0  0  0
 18 19  2  0  0  0  0
 20  3  1  0  0  0  0
 20 21  1  0  0  0  0
 21 18  1  0  0  0  0
 22 20  2  0  0  0  0
 23 18  1  0  0  0  0
 25 23  1  6  0  0  0
 25 27  1  0  0  0  0
 26 30  1  1  0  0  0
 26 25  1  0  0  0  0
 26 28  1  0  0  0  0
 27 24  1  0  0  0  0
 28 24  1  0  0  0  0
 29 30  1  0  0  0  0
 31 32  1  1  0  0  0
 31 33  1  0  0  0  0
 34 38  1  1  0  0  0
 34 39  1  0  0  0  0
 35 37  1  0  0  0  0
 36 33  1  6  0  0  0
 36 40  1  0  0  0  0
 36 34  1  0  0  0  0
 39 41  1  0  0  0  0
 39 43  1  1  0  0  0
 40 35  1  6  0  0  0
 40 42  1  0  0  0  0
 42 37  1  6  0  0  0
 42 41  1  0  0  0  0
 43 44  1  0  0  0  0
 44 45  1  6  0  0  0
 46 48  1  0  0  0  0
 47 44  1  0  0  0  0
 48 47  2  0  0  0  0
 49 50  2  0  0  0  0
 50 47  1  0  0  0  0
 51 49  1  0  0  0  0
 51 46  2  0  0  0  0
 52 46  1  0  0  0  0
M  END
>  <MODEL>
4

>  <REMARK>
 VINA RESULT:      -7.1      3.323      5.139
  Name = 
  10 active torsions:
  status: ('A' for Active; 'I' for Inactive)
    1  A    between atoms: C_1  and  C_30
    2  A    between atoms: C_6  and  C_30
    3  A    between atoms: C_8  and  C_33
    4  A    between atoms: C_9  and  O_18
    5  A    between atoms: C_10  and  C_16
    6  A    between atoms: C_12  and  C_52
    7  A    between atoms: C_13  and  C_17
    8  A    between atoms: C_16  and  N_48
    9  A    between atoms: O_18  and  C_33
   10  A    between atoms: C_23  and  N_48
                            x       y       z     vdW  Elec       q    Type
                         _______ _______ _______ _____ _____    ______ ____

>  <TORSDO>
F 10

$$$$
=
 OpenBabel10232409253D

 52 58  0  0  1  0  0  0  0  0999 V2000
  187.1020  177.9200  139.4440 C   0  0  0  0  0  0  0  0  0  0  0  0
  189.6530  174.7310  137.1810 C   0  0  1  0  0  3  0  0  0  0  0  0
  191.0100  174.5230  135.2060 C   0  0  0  0  0  0  0  0  0  0  0  0
  186.0570  178.4900  138.5200 C   0  0  1  0  0  3  0  0  0  0  0  0
  191.3560  175.7930  134.9400 C   0  0  0  0  0  3  0  0  0  0  0  0
  189.6740  174.1980  135.8010 C   0  0  1  0  0  3  0  0  0  0  0  0
  187.7720  177.1780  136.5010 C   0  0  0  0  0  0  0  0  0  0  0  0
  188.0190  176.5780  135.1350 C   0  0  0  0  0  2  0  0  0  0  0  0
  185.1510  179.3980  139.2150 N   0  0  0  0  0  1  0  0  0  0  0  0
  187.9170  176.9490  138.9920 C   0  0  0  0  0  3  0  0  0  0  0  0
  189.2740  177.1380  134.4470 C   0  0  0  0  0  2  0  0  0  0  0  0
  188.3240  175.0770  137.4880 O   0  0  0  0  0  0  0  0  0  0  0  0
  186.7050  179.2090  137.4300 N   0  0  0  0  0  0  0  0  0  0  0  0
  187.9720  176.4180  137.6110 C   0  0  0  0  0  0  0  0  0  0  0  0
  189.7730  173.3600  136.9220 O   0  0  0  0  0  0  0  0  0  0  0  0
  187.4410  178.6260  136.5230 C   0  0  0  0  0  3  0  0  0  0  0  0
  190.5380  176.9920  135.2980 C   0  0  0  0  0  2  0  0  0  0  0  0
  192.2330  170.9090  134.6950 C   0  0  0  0  0  0  0  0  0  0  0  0
  191.6590  169.8440  134.4140 O   0  0  0  0  0  0  0  0  0  0  0  0
  191.9320  173.4320  134.8530 C   0  0  0  0  0  0  0  0  0  0  0  0
  191.4380  172.0860  134.8190 N   0  0  0  0  0  2  0  0  0  0  0  0
  193.1350  173.6860  134.5650 O   0  0  0  0  0  0  0  0  0  0  0  0
  193.7270  170.9400  134.8720 C   0  0  0  0  0  2  0  0  0  0  0  0
  195.9050  171.3690  137.7600 C   0  0  0  0  0  2  0  0  0  0  0  0
  194.1520  170.6050  136.2880 C   0  0  1  0  0  3  0  0  0  0  0  0
  195.2740  169.5730  136.2640 C   0  0  1  0  0  3  0  0  0  0  0  0
  194.7110  171.8390  136.9610 C   0  0  0  0  0  2  0  0  0  0  0  0
  196.4630  170.1880  136.9850 C   0  0  0  0  0  2  0  0  0  0  0  0
  193.4970  168.4760  137.4100 O   0  0  0  0  0  1  0  0  0  0  0  0
  194.8150  168.3210  136.9830 C   0  0  0  0  0  2  0  0  0  0  0  0
  187.2840  178.4430  140.8550 C   0  0  2  0  0  3  0  0  0  0  0  0
  188.7620  178.6520  141.1650 C   0  0  0  0  0  1  0  0  0  0  0  0
  186.7250  177.5740  141.8010 O   0  0  0  0  0  0  0  0  0  0  0  0
  187.1790  177.2990  144.1590 C   0  0  2  0  0  3  0  0  0  0  0  0
  184.2460  178.5400  142.8720 C   0  0  0  0  0  2  0  0  0  0  0  0
  186.8000  178.2470  143.0200 C   0  0  2  0  0  3  0  0  0  0  0  0
  183.7260  178.7960  144.2750 C   0  0  0  0  0  2  0  0  0  0  0  0
  186.3780  176.1740  144.1530 O   0  0  0  0  0  1  0  0  0  0  0  0
  187.0770  178.0150  145.4890 C   0  0  1  0  0  3  0  0  0  0  0  0
  185.5750  179.1590  143.2570 C   0  0  2  0  0  3  0  0  0  0  0  0
  185.6360  178.3870  145.7510 C   0  0  0  0  0  2  0  0  0  0  0  0
  185.0770  179.3460  144.6970 C   0  0  2  0  0  3  0  0  0  0  0  0
  187.5700  177.1770  146.5790 N   0  0  0  0  0  2  0  0  0  0  0  0
  188.8650  177.7040  146.9930 C   0  0  2  0  0  3  0  0  0  0  0  0
  188.6840  179.0950  147.5760 C   0  0  0  0  0  1  0  0  0  0  0  0
  191.3300  176.5120  144.3630 C   0  0  0  0  0  0  0  0  0  0  0  0
  189.8590  177.7070  145.8600 C   0  0  0  0  0  0  0  0  0  0  0  0
  190.4530  176.5060  145.4460 C   0  0  0  0  0  3  0  0  0  0  0  0
  190.9720  178.8740  144.1110 C   0  0  0  0  0  3  0  0  0  0  0  0
  190.1350  178.8550  145.1790 N   0  0  0  0  0  0  0  0  0  0  0  0
  191.5860  177.6990  143.6800 C   0  0  0  0  0  3  0  0  0  0  0  0
  191.9890  175.2550  143.9410 C   0  0  0  0  0  1  0  0  0  0  0  0
  1 31  1  0  0  0  0
  2 15  1  1  0  0  0
  2 12  1  0  0  0  0
  4  9  1  1  0  0  0
  4  1  1  0  0  0  0
  5  3  2  0  0  0  0
  5 17  1  0  0  0  0
  6  3  1  6  0  0  0
  6 15  1  0  0  0  0
  6  2  1  0  0  0  0
  7 16  1  0  0  0  0
  7 14  2  0  0  0  0
  8  7  1  0  0  0  0
 10  1  2  0  0  0  0
 11  8  1  0  0  0  0
 11 17  1  0  0  0  0
 12 14  1  0  0  0  0
 13  4  1  0  0  0  0
 14 10  1  0  0  0  0
 16 13  2  0  0  0  0
 18 21  1  0  0  0  0
 18 23  1  0  0  0  0
 19 18  2  0  0  0  0
 20  3  1  0  0  0  0
 21 20  1  0  0  0  0
 22 20  2  0  0  0  0
 25 23  1  6  0  0  0
 25 27  1  0  0  0  0
 26 25  1  0  0  0  0
 26 30  1  1  0  0  0
 26 28  1  0  0  0  0
 27 24  1  0  0  0  0
 28 24  1  0  0  0  0
 30 29  1  0  0  0  0
 31 32  1  1  0  0  0
 31 33  1  0  0  0  0
 34 38  1  1  0  0  0
 34 39  1  0  0  0  0
 35 37  1  0  0  0  0
 36 33  1  6  0  0  0
 36 40  1  0  0  0  0
 36 34  1  0  0  0  0
 39 41  1  0  0  0  0
 39 43  1  1  0  0  0
 40 35  1  6  0  0  0
 40 42  1  0  0  0  0
 42 37  1  6  0  0  0
 42 41  1  0  0  0  0
 43 44  1  0  0  0  0
 44 45  1  6  0  0  0
 46 48  1  0  0  0  0
 47 44  1  0  0  0  0
 48 47  2  0  0  0  0
 49 50  2  0  0  0  0
 50 47  1  0  0  0  0
 51 49  1  0  0  0  0
 51 46  2  0  0  0  0
 52 46  1  0  0  0  0
M  END
>  <MODEL>
5

>  <REMARK>
 VINA RESULT:      -6.9      3.491      5.333
  Name = 
  10 active torsions:
  status: ('A' for Active; 'I' for Inactive)
    1  A    between atoms: C_1  and  C_30
    2  A    between atoms: C_6  and  C_30
    3  A    between atoms: C_8  and  C_33
    4  A    between atoms: C_9  and  O_18
    5  A    between atoms: C_10  and  C_16
    6  A    between atoms: C_12  and  C_52
    7  A    between atoms: C_13  and  C_17
    8  A    between atoms: C_16  and  N_48
    9  A    between atoms: O_18  and  C_33
   10  A    between atoms: C_23  and  N_48
                            x       y       z     vdW  Elec       q    Type
                         _______ _______ _______ _____ _____    ______ ____

>  <TORSDO>
F 10

$$$$
=
 OpenBabel10232409253D

 52 58  0  0  1  0  0  0  0  0999 V2000
  181.7330  176.5770  136.5260 C   0  0  0  0  0  0  0  0  0  0  0  0
  183.3450  177.6430  140.7750 C   0  0  1  0  0  3  0  0  0  0  0  0
  182.6760  178.8410  142.7510 C   0  0  0  0  0  0  0  0  0  0  0  0
  181.3690  177.8370  135.7850 C   0  0  1  0  0  3  0  0  0  0  0  0
  181.3380  178.8760  142.6470 C   0  0  0  0  0  3  0  0  0  0  0  0
  183.5450  178.8990  141.5330 C   0  0  1  0  0  3  0  0  0  0  0  0
  181.5860  178.9660  138.5080 C   0  0  0  0  0  0  0  0  0  0  0  0
  181.7750  180.1140  139.4740 C   0  0  0  0  0  2  0  0  0  0  0  0
  180.9800  177.5660  134.4040 N   0  0  0  0  0  1  0  0  0  0  0  0
  182.2590  176.6720  137.7600 C   0  0  0  0  0  3  0  0  0  0  0  0
  180.6970  180.1650  140.5690 C   0  0  0  0  0  2  0  0  0  0  0  0
  183.5350  177.9290  139.4100 O   0  0  0  0  0  0  0  0  0  0  0  0
  180.2670  178.5060  136.4650 N   0  0  0  0  0  0  0  0  0  0  0  0
  182.4450  177.9130  138.5460 C   0  0  0  0  0  0  0  0  0  0  0  0
  184.5130  177.8840  141.5110 O   0  0  0  0  0  0  0  0  0  0  0  0
  180.3700  179.0280  137.6570 C   0  0  0  0  0  3  0  0  0  0  0  0
  180.5830  178.8580  141.3560 C   0  0  0  0  0  2  0  0  0  0  0  0
  185.2550  179.5940  145.5070 C   0  0  0  0  0  0  0  0  0  0  0  0
  186.0180  180.5510  145.7270 O   0  0  0  0  0  0  0  0  0  0  0  0
  183.2980  178.8060  144.0840 C   0  0  0  0  0  0  0  0  0  0  0  0
  184.4230  179.6530  144.3520 N   0  0  0  0  0  2  0  0  0  0  0  0
  182.8290  178.0520  144.9830 O   0  0  0  0  0  0  0  0  0  0  0  0
  185.2090  178.4300  146.4590 C   0  0  0  0  0  2  0  0  0  0  0  0
  188.5200  177.0770  147.1470 C   0  0  0  0  0  2  0  0  0  0  0  0
  186.3240  177.4330  146.2130 C   0  0  1  0  0  3  0  0  0  0  0  0
  187.3490  178.0260  145.2520 C   0  0  1  0  0  3  0  0  0  0  0  0
  187.0540  177.1510  147.5060 C   0  0  0  0  0  2  0  0  0  0  0  0
  188.6900  178.0230  145.9700 C   0  0  0  0  0  2  0  0  0  0  0  0
  188.6130  176.4440  143.9980 O   0  0  0  0  0  1  0  0  0  0  0  0
  187.4200  177.1670  144.0060 C   0  0  0  0  0  2  0  0  0  0  0  0
  181.4810  175.2060  135.9310 C   0  0  2  0  0  3  0  0  0  0  0  0
  181.0430  174.2230  137.0110 C   0  0  0  0  0  1  0  0  0  0  0  0
  182.6180  174.7110  135.2800 O   0  0  0  0  0  0  0  0  0  0  0  0
  184.8460  175.4920  135.7990 C   0  0  2  0  0  3  0  0  0  0  0  0
  183.9140  172.1870  135.7020 C   0  0  0  0  0  2  0  0  0  0  0  0
  183.6240  174.6880  136.2450 C   0  0  2  0  0  3  0  0  0  0  0  0
  185.3020  171.7720  136.1560 C   0  0  0  0  0  2  0  0  0  0  0  0
  185.2390  175.1280  134.5270 O   0  0  0  0  0  1  0  0  0  0  0  0
  185.9820  175.3020  136.7810 C   0  0  1  0  0  3  0  0  0  0  0  0
  183.8900  173.2600  136.7740 C   0  0  2  0  0  3  0  0  0  0  0  0
  186.4320  173.8590  136.7560 C   0  0  0  0  0  2  0  0  0  0  0  0
  185.3240  172.8930  137.1810 C   0  0  2  0  0  3  0  0  0  0  0  0
  187.1120  176.1700  136.4560 N   0  0  0  0  0  2  0  0  0  0  0  0
  186.8430  177.4810  137.0340 C   0  0  2  0  0  3  0  0  0  0  0  0
  187.2120  178.5620  136.0320 C   0  0  0  0  0  1  0  0  0  0  0  0
  189.5660  177.5040  139.6790 C   0  0  0  0  0  0  0  0  0  0  0  0
  187.5610  177.6760  138.3440 C   0  0  0  0  0  0  0  0  0  0  0  0
  188.8960  177.2720  138.4780 C   0  0  0  0  0  3  0  0  0  0  0  0
  187.5930  178.5600  140.5520 C   0  0  0  0  0  3  0  0  0  0  0  0
  186.9490  178.3090  139.3850 N   0  0  0  0  0  0  0  0  0  0  0  0
  188.9190  178.1630  140.7220 C   0  0  0  0  0  3  0  0  0  0  0  0
  190.9660  177.0510  139.8420 C   0  0  0  0  0  1  0  0  0  0  0  0
  1 10  2  0  0  0  0
  2 12  1  6  0  0  0
  2 15  1  0  0  0  0
  2  6  1  0  0  0  0
  3 20  1  0  0  0  0
  4  9  1  6  0  0  0
  4 13  1  0  0  0  0
  4  1  1  0  0  0  0
  5  3  2  0  0  0  0
  6 15  1  1  0  0  0
  6  3  1  0  0  0  0
  7 14  2  0  0  0  0
  7  8  1  0  0  0  0
  8 11  1  0  0  0  0
 10 14  1  0  0  0  0
 11 17  1  0  0  0  0
 13 16  2  0  0  0  0
 14 12  1  0  0  0  0
 16  7  1  0  0  0  0
 17  5  1  0  0  0  0
 18 19  2  0  0  0  0
 18 23  1  0  0  0  0
 20 21  1  0  0  0  0
 20 22  2  0  0  0  0
 21 18  1  0  0  0  0
 24 27  1  0  0  0  0
 25 23  1  1  0  0  0
 25 27  1  0  0  0  0
 26 30  1  6  0  0  0
 26 28  1  0  0  0  0
 26 25  1  0  0  0  0
 28 24  1  0  0  0  0
 29 30  1  0  0  0  0
 31  1  1  0  0  0  0
 31 32  1  1  0  0  0
 33 31  1  0  0  0  0
 34 38  1  6  0  0  0
 34 36  1  0  0  0  0
 34 39  1  0  0  0  0
 35 37  1  0  0  0  0
 36 33  1  6  0  0  0
 36 40  1  0  0  0  0
 39 43  1  6  0  0  0
 40 35  1  6  0  0  0
 40 42  1  0  0  0  0
 41 39  1  0  0  0  0
 41 42  1  0  0  0  0
 42 37  1  6  0  0  0
 43 44  1  0  0  0  0
 44 45  1  6  0  0  0
 44 47  1  0  0  0  0
 46 52  1  0  0  0  0
 46 51  1  0  0  0  0
 47 48  1  0  0  0  0
 47 50  2  0  0  0  0
 48 46  2  0  0  0  0
 49 51  2  0  0  0  0
 50 49  1  0  0  0  0
M  END
>  <MODEL>
6

>  <REMARK>
 VINA RESULT:      -6.9      4.337      9.249
  Name = 
  10 active torsions:
  status: ('A' for Active; 'I' for Inactive)
    1  A    between atoms: C_1  and  C_30
    2  A    between atoms: C_6  and  C_30
    3  A    between atoms: C_8  and  C_33
    4  A    between atoms: C_9  and  O_18
    5  A    between atoms: C_10  and  C_16
    6  A    between atoms: C_12  and  C_52
    7  A    between atoms: C_13  and  C_17
    8  A    between atoms: C_16  and  N_48
    9  A    between atoms: O_18  and  C_33
   10  A    between atoms: C_23  and  N_48
                            x       y       z     vdW  Elec       q    Type
                         _______ _______ _______ _____ _____    ______ ____

>  <TORSDO>
F 10

$$$$
=
 OpenBabel10232409253D

 52 58  0  0  1  0  0  0  0  0999 V2000
  190.2410  177.5230  144.5640 C   0  0  0  0  0  0  0  0  0  0  0  0
  185.8590  178.0220  143.0360 C   0  0  1  0  0  3  0  0  0  0  0  0
  183.7500  178.9280  143.7570 C   0  0  0  0  0  0  0  0  0  0  0  0
  190.2450  176.7980  145.8850 C   0  0  1  0  0  3  0  0  0  0  0  0
  184.1070  179.8130  144.7010 C   0  0  0  0  0  3  0  0  0  0  0  0
  184.5220  177.6600  143.5590 C   0  0  1  0  0  3  0  0  0  0  0  0
  187.3730  177.4860  145.7580 C   0  0  0  0  0  0  0  0  0  0  0  0
  185.9260  177.2910  146.1550 C   0  0  0  0  0  2  0  0  0  0  0  0
  191.5990  176.5040  146.3430 N   0  0  0  0  0  1  0  0  0  0  0  0
  189.0720  177.7300  143.9330 C   0  0  0  0  0  3  0  0  0  0  0  0
  185.2420  178.5920  146.6010 C   0  0  0  0  0  2  0  0  0  0  0  0
  186.7740  177.0540  143.4890 O   0  0  0  0  0  0  0  0  0  0  0  0
  189.5690  177.6090  146.8910 N   0  0  0  0  0  0  0  0  0  0  0  0
  187.7230  177.3990  144.4470 C   0  0  0  0  0  0  0  0  0  0  0  0
  184.8770  177.4480  142.2180 O   0  0  0  0  0  0  0  0  0  0  0  0
  188.2960  177.8910  146.8490 C   0  0  0  0  0  3  0  0  0  0  0  0
  185.3310  179.7040  145.5530 C   0  0  0  0  0  2  0  0  0  0  0  0
  181.0460  178.2920  141.0920 C   0  0  0  0  0  0  0  0  0  0  0  0
  180.5440  177.2620  140.6120 O   0  0  0  0  0  0  0  0  0  0  0  0
  182.5500  179.1810  142.9440 C   0  0  0  0  0  0  0  0  0  0  0  0
  182.0610  178.1440  142.0810 N   0  0  0  0  0  2  0  0  0  0  0  0
  181.9500  180.2890  143.0250 O   0  0  0  0  0  0  0  0  0  0  0  0
  180.5630  179.6460  140.6490 C   0  0  0  0  0  2  0  0  0  0  0  0
  181.1020  181.0380  137.3260 C   0  0  0  0  0  2  0  0  0  0  0  0
  181.4500  180.2590  139.5830 C   0  0  1  0  0  3  0  0  0  0  0  0
  181.9390  179.1760  138.6270 C   0  0  1  0  0  3  0  0  0  0  0  0
  180.6530  181.2410  138.7540 C   0  0  0  0  0  2  0  0  0  0  0  0
  181.4800  179.5700  137.2320 C   0  0  0  0  0  2  0  0  0  0  0  0
  183.9590  180.2890  139.2230 O   0  0  0  0  0  1  0  0  0  0  0  0
  183.4520  179.1080  138.6810 C   0  0  0  0  0  2  0  0  0  0  0  0
  191.5200  178.0600  143.9510 C   0  0  2  0  0  3  0  0  0  0  0  0
  191.2910  179.4440  143.3550 C   0  0  0  0  0  1  0  0  0  0  0  0
  192.0160  177.2010  142.9620 O   0  0  0  0  0  0  0  0  0  0  0  0
  190.3000  177.1720  141.2600 C   0  0  2  0  0  3  0  0  0  0  0  0
  193.6260  176.5350  140.6840 C   0  0  0  0  0  2  0  0  0  0  0  0
  191.6250  177.7600  141.7470 C   0  0  2  0  0  3  0  0  0  0  0  0
  193.3540  176.4060  139.1960 C   0  0  0  0  0  2  0  0  0  0  0  0
  190.3310  175.7920  141.2930 O   0  0  0  0  0  1  0  0  0  0  0  0
  189.9940  177.6620  139.8610 C   0  0  1  0  0  3  0  0  0  0  0  0
  192.7840  177.7950  140.7230 C   0  0  2  0  0  3  0  0  0  0  0  0
  191.0340  177.1300  138.9030 C   0  0  0  0  0  2  0  0  0  0  0  0
  192.4440  177.6220  139.2370 C   0  0  2  0  0  3  0  0  0  0  0  0
  188.6660  177.2310  139.4290 N   0  0  0  0  0  2  0  0  0  0  0  0
  188.6390  177.2740  137.9720 C   0  0  2  0  0  3  0  0  0  0  0  0
  188.4940  178.7140  137.5100 C   0  0  0  0  0  1  0  0  0  0  0  0
  186.8120  174.2700  136.5410 C   0  0  0  0  0  0  0  0  0  0  0  0
  187.5500  176.4010  137.4050 C   0  0  0  0  0  0  0  0  0  0  0  0
  187.8380  175.0850  137.0160 C   0  0  0  0  0  3  0  0  0  0  0  0
  185.2520  176.0630  136.8900 C   0  0  0  0  0  3  0  0  0  0  0  0
  186.2650  176.8510  137.3300 N   0  0  0  0  0  0  0  0  0  0  0  0
  185.5070  174.7530  136.4860 C   0  0  0  0  0  3  0  0  0  0  0  0
  187.1130  172.8900  136.0960 C   0  0  0  0  0  1  0  0  0  0  0  0
  1  4  1  0  0  0  0
  2 15  1  6  0  0  0
  2 12  1  0  0  0  0
  2  6  1  0  0  0  0
  3  5  2  0  0  0  0
  4  9  1  1  0  0  0
  4 13  1  0  0  0  0
  5 17  1  0  0  0  0
  6 15  1  6  0  0  0
  6  3  1  0  0  0  0
  7  8  1  0  0  0  0
  7 16  1  0  0  0  0
  8 11  1  0  0  0  0
 10 14  1  0  0  0  0
 10  1  2  0  0  0  0
 12 14  1  0  0  0  0
 14  7  2  0  0  0  0
 16 13  2  0  0  0  0
 17 11  1  0  0  0  0
 18 21  1  0  0  0  0
 19 18  2  0  0  0  0
 20 22  2  0  0  0  0
 20  3  1  0  0  0  0
 21 20  1  0  0  0  0
 23 18  1  0  0  0  0
 24 27  1  0  0  0  0
 25 23  1  1  0  0  0
 26 30  1  6  0  0  0
 26 25  1  0  0  0  0
 27 25  1  0  0  0  0
 28 24  1  0  0  0  0
 28 26  1  0  0  0  0
 30 29  1  0  0  0  0
 31 32  1  6  0  0  0
 31  1  1  0  0  0  0
 33 31  1  0  0  0  0
 34 38  1  6  0  0  0
 34 36  1  0  0  0  0
 36 33  1  1  0  0  0
 37 42  1  0  0  0  0
 37 35  1  0  0  0  0
 39 43  1  6  0  0  0
 39 34  1  0  0  0  0
 40 35  1  1  0  0  0
 40 36  1  0  0  0  0
 41 39  1  0  0  0  0
 42 41  1  1  0  0  0
 42 40  1  0  0  0  0
 44 45  1  1  0  0  0
 44 43  1  0  0  0  0
 46 48  1  0  0  0  0
 47 44  1  0  0  0  0
 48 47  2  0  0  0  0
 49 50  2  0  0  0  0
 50 47  1  0  0  0  0
 51 46  2  0  0  0  0
 51 49  1  0  0  0  0
 52 46  1  0  0  0  0
M  END
>  <MODEL>
7

>  <REMARK>
 VINA RESULT:      -6.8      3.391     11.732
  Name = 
  10 active torsions:
  status: ('A' for Active; 'I' for Inactive)
    1  A    between atoms: C_1  and  C_30
    2  A    between atoms: C_6  and  C_30
    3  A    between atoms: C_8  and  C_33
    4  A    between atoms: C_9  and  O_18
    5  A    between atoms: C_10  and  C_16
    6  A    between atoms: C_12  and  C_52
    7  A    between atoms: C_13  and  C_17
    8  A    between atoms: C_16  and  N_48
    9  A    between atoms: O_18  and  C_33
   10  A    between atoms: C_23  and  N_48
                            x       y       z     vdW  Elec       q    Type
                         _______ _______ _______ _____ _____    ______ ____

>  <TORSDO>
F 10

$$$$
=
 OpenBabel10232409253D

 52 58  0  0  1  0  0  0  0  0999 V2000
  190.2750  177.4720  143.9110 C   0  0  0  0  0  0  0  0  0  0  0  0
  185.8120  178.0820  142.6870 C   0  0  1  0  0  3  0  0  0  0  0  0
  183.7480  178.9090  143.6050 C   0  0  0  0  0  0  0  0  0  0  0  0
  190.3540  176.6320  145.1600 C   0  0  1  0  0  3  0  0  0  0  0  0
  184.1580  179.7080  144.6030 C   0  0  0  0  0  3  0  0  0  0  0  0
  184.5080  177.6680  143.2510 C   0  0  1  0  0  3  0  0  0  0  0  0
  187.4800  177.3120  145.2590 C   0  0  0  0  0  0  0  0  0  0  0  0
  186.0590  177.0750  145.7180 C   0  0  0  0  0  2  0  0  0  0  0  0
  191.7320  176.3050  145.5120 N   0  0  0  0  0  1  0  0  0  0  0  0
  189.0720  177.7280  143.3690 C   0  0  0  0  0  3  0  0  0  0  0  0
  185.4000  178.3270  146.3180 C   0  0  0  0  0  2  0  0  0  0  0  0
  186.7530  177.0820  142.9990 O   0  0  0  0  0  0  0  0  0  0  0  0
  189.7380  177.3450  146.2710 N   0  0  0  0  0  0  0  0  0  0  0  0
  187.7540  177.3450  143.9270 C   0  0  0  0  0  0  0  0  0  0  0  0
  184.7850  177.5780  141.8780 O   0  0  0  0  0  0  0  0  0  0  0  0
  188.4640  177.6230  146.3270 C   0  0  0  0  0  3  0  0  0  0  0  0
  185.4290  179.5290  145.3710 C   0  0  0  0  0  2  0  0  0  0  0  0
  180.9320  178.5380  141.0070 C   0  0  0  0  0  0  0  0  0  0  0  0
  180.4330  177.5630  140.4190 O   0  0  0  0  0  0  0  0  0  0  0  0
  182.5030  179.2260  142.8880 C   0  0  0  0  0  0  0  0  0  0  0  0
  181.9990  178.2960  141.9210 N   0  0  0  0  0  2  0  0  0  0  0  0
  181.8800  180.2960  143.1410 O   0  0  0  0  0  0  0  0  0  0  0  0
  180.3940  179.9220  140.7660 C   0  0  0  0  0  2  0  0  0  0  0  0
  180.7050  181.2910  137.4050 C   0  0  0  0  0  2  0  0  0  0  0  0
  181.1610  180.6650  139.6910 C   0  0  1  0  0  3  0  0  0  0  0  0
  181.8700  179.6720  138.7770 C   0  0  1  0  0  3  0  0  0  0  0  0
  180.2010  181.4450  138.8210 C   0  0  0  0  0  2  0  0  0  0  0  0
  181.3670  179.9240  137.3640 C   0  0  0  0  0  2  0  0  0  0  0  0
  184.0440  178.7270  138.5380 O   0  0  0  0  0  1  0  0  0  0  0  0
  183.3660  179.9050  138.8500 C   0  0  0  0  0  2  0  0  0  0  0  0
  191.5160  178.0690  143.2770 C   0  0  2  0  0  3  0  0  0  0  0  0
  191.9710  179.3050  144.0430 C   0  0  0  0  0  1  0  0  0  0  0  0
  191.2960  178.4040  141.9350 O   0  0  0  0  0  0  0  0  0  0  0  0
  193.0250  177.3980  140.5780 C   0  0  2  0  0  3  0  0  0  0  0  0
  189.8010  177.9520  139.5290 C   0  0  0  0  0  2  0  0  0  0  0  0
  191.6350  177.2670  141.2020 C   0  0  2  0  0  3  0  0  0  0  0  0
  190.1040  177.2730  138.2050 C   0  0  0  0  0  2  0  0  0  0  0  0
  193.1520  178.5950  139.9020 O   0  0  0  0  0  1  0  0  0  0  0  0
  193.2900  176.2330  139.6470 C   0  0  1  0  0  3  0  0  0  0  0  0
  190.4930  176.8190  140.2620 C   0  0  2  0  0  3  0  0  0  0  0  0
  192.3300  176.2910  138.4820 C   0  0  0  0  0  2  0  0  0  0  0  0
  190.8680  176.1730  138.9210 C   0  0  2  0  0  3  0  0  0  0  0  0
  194.6630  176.2570  139.1490 N   0  0  0  0  0  2  0  0  0  0  0  0
  195.3210  175.0380  139.6030 C   0  0  2  0  0  3  0  0  0  0  0  0
  196.5240  175.3980  140.4560 C   0  0  0  0  0  1  0  0  0  0  0  0
  195.6800  171.9860  137.3740 C   0  0  0  0  0  0  0  0  0  0  0  0
  195.7090  174.1470  138.4510 C   0  0  0  0  0  0  0  0  0  0  0  0
  195.3630  172.7890  138.4690 C   0  0  0  0  0  3  0  0  0  0  0  0
  196.6300  173.8970  136.2730 C   0  0  0  0  0  3  0  0  0  0  0  0
  196.3320  174.6610  137.3530 N   0  0  0  0  0  0  0  0  0  0  0  0
  196.3080  172.5400  136.2620 C   0  0  0  0  0  3  0  0  0  0  0  0
  195.3490  170.5430  137.3980 C   0  0  0  0  0  1  0  0  0  0  0  0
  1  4  1  0  0  0  0
  2 15  1  6  0  0  0
  2 12  1  0  0  0  0
  2  6  1  0  0  0  0
  3  5  2  0  0  0  0
  4  9  1  1  0  0  0
  4 13  1  0  0  0  0
  5 17  1  0  0  0  0
  6 15  1  6  0  0  0
  6  3  1  0  0  0  0
  7  8  1  0  0  0  0
  7 16  1  0  0  0  0
  8 11  1  0  0  0  0
 10  1  2  0  0  0  0
 10 14  1  0  0  0  0
 12 14  1  0  0  0  0
 13 16  2  0  0  0  0
 14  7  2  0  0  0  0
 17 11  1  0  0  0  0
 18 21  1  0  0  0  0
 19 18  2  0  0  0  0
 20 22  2  0  0  0  0
 20  3  1  0  0  0  0
 21 20  1  0  0  0  0
 23 18  1  0  0  0  0
 24 27  1  0  0  0  0
 25 23  1  1  0  0  0
 26 30  1  6  0  0  0
 26 25  1  0  0  0  0
 27 25  1  0  0  0  0
 28 24  1  0  0  0  0
 28 26  1  0  0  0  0
 29 30  1  0  0  0  0
 31  1  1  0  0  0  0
 31 32  1  1  0  0  0
 33 31  1  0  0  0  0
 34 38  1  6  0  0  0
 34 36  1  0  0  0  0
 36 33  1  6  0  0  0
 37 35  1  0  0  0  0
 39 43  1  6  0  0  0
 39 34  1  0  0  0  0
 40 35  1  6  0  0  0
 40 36  1  0  0  0  0
 41 42  1  0  0  0  0
 41 39  1  0  0  0  0
 42 37  1  6  0  0  0
 42 40  1  0  0  0  0
 43 44  1  0  0  0  0
 44 45  1  6  0  0  0
 46 52  1  0  0  0  0
 46 48  1  0  0  0  0
 47 48  2  0  0  0  0
 47 44  1  0  0  0  0
 49 50  2  0  0  0  0
 50 47  1  0  0  0  0
 51 49  1  0  0  0  0
 51 46  2  0  0  0  0
M  END
>  <MODEL>
8

>  <REMARK>
 VINA RESULT:      -6.8      4.062     12.427
  Name = 
  10 active torsions:
  status: ('A' for Active; 'I' for Inactive)
    1  A    between atoms: C_1  and  C_30
    2  A    between atoms: C_6  and  C_30
    3  A    between atoms: C_8  and  C_33
    4  A    between atoms: C_9  and  O_18
    5  A    between atoms: C_10  and  C_16
    6  A    between atoms: C_12  and  C_52
    7  A    between atoms: C_13  and  C_17
    8  A    between atoms: C_16  and  N_48
    9  A    between atoms: O_18  and  C_33
   10  A    between atoms: C_23  and  N_48
                            x       y       z     vdW  Elec       q    Type
                         _______ _______ _______ _____ _____    ______ ____

>  <TORSDO>
F 10

$$$$
=
 OpenBabel10232409253D

 52 58  0  0  1  0  0  0  0  0999 V2000
  189.8810  174.8350  135.7530 C   0  0  0  0  0  0  0  0  0  0  0  0
  185.4880  176.2130  136.5200 C   0  0  1  0  0  3  0  0  0  0  0  0
  183.3620  175.3030  137.1830 C   0  0  0  0  0  0  0  0  0  0  0  0
  189.9000  173.7290  134.7290 C   0  0  1  0  0  3  0  0  0  0  0  0
  183.7020  174.1710  137.8190 C   0  0  0  0  0  3  0  0  0  0  0  0
  184.1600  175.7990  136.0160 C   0  0  1  0  0  3  0  0  0  0  0  0
  187.0150  173.6970  135.3700 C   0  0  0  0  0  0  0  0  0  0  0  0
  185.5730  173.3650  135.0550 C   0  0  0  0  0  2  0  0  0  0  0  0
  191.2600  173.3500  134.3590 N   0  0  0  0  0  1  0  0  0  0  0  0
  188.7070  175.4010  136.0830 C   0  0  0  0  0  3  0  0  0  0  0  0
  184.8630  172.6190  136.1960 C   0  0  0  0  0  2  0  0  0  0  0  0
  186.4240  176.0050  135.4900 O   0  0  0  0  0  0  0  0  0  0  0  0
  189.2100  172.5590  135.2580 N   0  0  0  0  0  0  0  0  0  0  0  0
  187.3660  174.9880  135.6110 C   0  0  0  0  0  0  0  0  0  0  0  0
  184.5170  177.1500  136.1420 O   0  0  0  0  0  0  0  0  0  0  0  0
  187.9300  172.5360  135.5160 C   0  0  0  0  0  3  0  0  0  0  0  0
  184.9280  173.3650  137.5300 C   0  0  0  0  0  2  0  0  0  0  0  0
  180.6730  178.0570  137.1640 C   0  0  0  0  0  0  0  0  0  0  0  0
  180.1960  178.7810  136.2730 O   0  0  0  0  0  0  0  0  0  0  0  0
  182.1560  176.0350  137.6000 C   0  0  0  0  0  0  0  0  0  0  0  0
  181.6920  177.1300  136.7990 N   0  0  0  0  0  2  0  0  0  0  0  0
  181.5300  175.6860  138.6400 O   0  0  0  0  0  0  0  0  0  0  0  0
  180.1590  178.1550  138.5740 C   0  0  0  0  0  2  0  0  0  0  0  0
  183.3720  179.5360  139.5950 C   0  0  0  0  0  2  0  0  0  0  0  0
  181.0110  179.0610  139.4410 C   0  0  1  0  0  3  0  0  0  0  0  0
  181.5780  178.2720  140.6170 C   0  0  1  0  0  3  0  0  0  0  0  0
  182.1940  179.5670  138.6480 C   0  0  0  0  0  2  0  0  0  0  0  0
  183.0930  178.3800  140.5400 C   0  0  0  0  0  2  0  0  0  0  0  0
  180.5110  180.1280  141.6630 O   0  0  0  0  0  1  0  0  0  0  0  0
  181.0750  178.8770  141.9120 C   0  0  0  0  0  2  0  0  0  0  0  0
  191.1480  175.2940  136.4480 C   0  0  2  0  0  3  0  0  0  0  0  0
  191.6070  174.2590  137.4680 C   0  0  0  0  0  1  0  0  0  0  0  0
  190.9660  176.5290  137.0830 O   0  0  0  0  0  0  0  0  0  0  0  0
  189.7320  177.0140  139.1040 C   0  0  2  0  0  3  0  0  0  0  0  0
  193.1140  177.4850  138.7260 C   0  0  0  0  0  2  0  0  0  0  0  0
  190.8760  176.2420  138.4450 C   0  0  2  0  0  3  0  0  0  0  0  0
  193.2270  177.9130  140.1780 C   0  0  0  0  0  2  0  0  0  0  0  0
  189.7940  178.3560  138.7860 O   0  0  0  0  0  1  0  0  0  0  0  0
  189.7720  176.8230  140.6060 C   0  0  1  0  0  3  0  0  0  0  0  0
  192.2520  176.3100  139.1460 C   0  0  2  0  0  3  0  0  0  0  0  0
  191.0340  177.4430  141.1590 C   0  0  0  0  0  2  0  0  0  0  0  0
  192.3010  176.7880  140.6030 C   0  0  2  0  0  3  0  0  0  0  0  0
  188.6080  177.4310  141.2470 N   0  0  0  0  0  2  0  0  0  0  0  0
  188.7430  177.2380  142.6850 C   0  0  2  0  0  3  0  0  0  0  0  0
  189.1110  175.7930  142.9710 C   0  0  0  0  0  1  0  0  0  0  0  0
  186.3610  178.1500  145.4970 C   0  0  0  0  0  0  0  0  0  0  0  0
  187.4960  177.6470  143.4260 C   0  0  0  0  0  0  0  0  0  0  0  0
  187.5050  177.7210  144.8260 C   0  0  0  0  0  3  0  0  0  0  0  0
  185.2590  178.4560  143.3850 C   0  0  0  0  0  3  0  0  0  0  0  0
  186.3730  178.0170  142.7470 N   0  0  0  0  0  0  0  0  0  0  0  0
  185.2320  178.5320  144.7770 C   0  0  0  0  0  3  0  0  0  0  0  0
  186.3500  178.1990  146.9770 C   0  0  0  0  0  1  0  0  0  0  0  0
  1 10  2  0  0  0  0
  1 31  1  0  0  0  0
  2 12  1  6  0  0  0
  3 20  1  0  0  0  0
  3  5  2  0  0  0  0
  4  9  1  1  0  0  0
  4 13  1  0  0  0  0
  4  1  1  0  0  0  0
  6 15  1  1  0  0  0
  6  2  1  0  0  0  0
  6  3  1  0  0  0  0
  7 16  1  0  0  0  0
  7 14  2  0  0  0  0
  8  7  1  0  0  0  0
  8 11  1  0  0  0  0
 11 17  1  0  0  0  0
 12 14  1  0  0  0  0
 13 16  2  0  0  0  0
 14 10  1  0  0  0  0
 15  2  1  0  0  0  0
 17  5  1  0  0  0  0
 18 23  1  0  0  0  0
 19 18  2  0  0  0  0
 20 22  2  0  0  0  0
 21 18  1  0  0  0  0
 21 20  1  0  0  0  0
 24 28  1  0  0  0  0
 25 23  1  6  0  0  0
 25 26  1  0  0  0  0
 26 30  1  1  0  0  0
 27 25  1  0  0  0  0
 27 24  1  0  0  0  0
 28 26  1  0  0  0  0
 29 30  1  0  0  0  0
 31 33  1  0  0  0  0
 31 32  1  1  0  0  0
 34 38  1  1  0  0  0
 34 39  1  0  0  0  0
 35 37  1  0  0  0  0
 36 33  1  6  0  0  0
 36 34  1  0  0  0  0
 36 40  1  0  0  0  0
 39 41  1  0  0  0  0
 39 43  1  1  0  0  0
 40 35  1  6  0  0  0
 40 42  1  0  0  0  0
 42 37  1  6  0  0  0
 42 41  1  0  0  0  0
 43 44  1  0  0  0  0
 44 45  1  6  0  0  0
 44 47  1  0  0  0  0
 46 52  1  0  0  0  0
 47 48  2  0  0  0  0
 48 46  1  0  0  0  0
 49 51  1  0  0  0  0
 50 49  2  0  0  0  0
 50 47  1  0  0  0  0
 51 46  2  0  0  0  0
M  END
>  <MODEL>
9

>  <REMARK>
 VINA RESULT:      -6.7      2.819      9.298
  Name = 
  10 active torsions:
  status: ('A' for Active; 'I' for Inactive)
    1  A    between atoms: C_1  and  C_30
    2  A    between atoms: C_6  and  C_30
    3  A    between atoms: C_8  and  C_33
    4  A    between atoms: C_9  and  O_18
    5  A    between atoms: C_10  and  C_16
    6  A    between atoms: C_12  and  C_52
    7  A    between atoms: C_13  and  C_17
    8  A    between atoms: C_16  and  N_48
    9  A    between atoms: O_18  and  C_33
   10  A    between atoms: C_23  and  N_48
                            x       y       z     vdW  Elec       q    Type
                         _______ _______ _______ _____ _____    ______ ____

>  <TORSDO>
F 10

$$$$
