=
 OpenBabel10222421413D

 47 53  0  0  1  0  0  0  0  0999 V2000
  185.5470  179.4130  142.8940 C   0  0  1  0  0  3  0  0  0  0  0  0
  184.2420  178.7550  142.8020 C   0  0  2  0  0  0  0  0  0  0  0  0
  185.3840  178.0340  143.4050 N   0  0  0  0  0  0  0  0  0  0  0  0
  186.0760  179.4350  141.4520 C   0  0  2  0  0  3  0  0  0  0  0  0
  184.0250  178.5060  141.3540 C   0  0  0  0  0  0  0  0  0  0  0  0
  183.1960  179.4420  143.6770 C   0  0  0  0  0  1  0  0  0  0  0  0
  185.0270  178.8630  140.6280 N   0  0  0  0  0  0  0  0  0  0  0  0
  180.5950  176.5840  139.7330 C   0  0  0  0  0  3  0  0  0  0  0  0
  182.9880  176.7280  139.9400 C   0  0  0  0  0  3  0  0  0  0  0  0
  182.8420  177.8360  140.7850 C   0  0  0  0  0  0  0  0  0  0  0  0
  181.8660  176.0940  139.4050 C   0  0  0  0  0  0  0  0  0  0  0  0
  181.5510  178.2870  141.0810 C   0  0  0  0  0  3  0  0  0  0  0  0
  180.4660  177.6580  140.5560 N   0  0  0  0  0  0  0  0  0  0  0  0
  182.0460  174.9930  138.5560 O   0  0  0  0  0  0  0  0  0  0  0  0
  183.0650  174.9100  137.5620 C   0  0  0  0  0  0  0  0  0  0  0  0
  182.6880  174.0240  136.5700 F   0  0  0  0  0  0  0  0  0  0  0  0
  184.2540  174.4930  138.1360 F   0  0  0  0  0  0  0  0  0  0  0  0
  183.2510  176.1600  137.0000 F   0  0  0  0  0  0  0  0  0  0  0  0
  185.3210  178.1320  144.8020 N   0  0  0  0  0  2  0  0  0  0  0  0
  186.2520  177.2130  145.3190 N   0  0  0  0  0  2  0  0  0  0  0  0
  189.3910  176.7950  146.0290 C   0  0  2  0  0  3  0  0  0  0  0  0
  188.2930  177.6290  146.6790 C   0  0  0  0  0  2  0  0  0  0  0  0
  190.7000  177.5920  146.1490 C   0  0  0  0  0  2  0  0  0  0  0  0
  188.6350  176.8860  144.6880 C   0  0  1  0  0  3  0  0  0  0  0  0
  191.4070  177.8090  144.8220 C   0  0  0  0  0  2  0  0  0  0  0  0
  187.6000  177.7960  145.3310 C   0  0  1  0  0  3  0  0  0  0  0  0
  189.3560  177.5330  143.4950 C   0  0  0  0  0  2  0  0  0  0  0  0
  190.4490  178.5110  143.8840 C   0  0  0  0  0  2  0  0  0  0  0  0
  187.3660  178.6360  141.3150 C   0  0  0  0  0  2  0  0  0  0  0  0
  188.6690  177.1600  139.8250 C   0  0  0  0  0  2  0  0  0  0  0  0
  188.9030  178.5900  139.3870 C   0  0  2  0  0  3  0  0  0  0  0  0
  187.5350  178.1600  139.8880 C   0  0  2  0  0  3  0  0  0  0  0  0
  188.7460  177.5220  137.0940 N   0  0  0  0  0  2  0  0  0  0  0  0
  188.8730  178.6990  137.8980 C   0  0  0  0  0  0  0  0  0  0  0  0
  188.9930  179.8290  137.3560 O   0  0  0  0  0  0  0  0  0  0  0  0
  186.3290  173.0550  135.9250 C   0  0  0  0  0  2  0  0  0  0  0  0
  189.6580  176.4260  135.0300 C   0  0  0  0  0  2  0  0  0  0  0  0
  188.8150  177.5670  135.6380 C   0  0  1  0  0  3  0  0  0  0  0  0
  190.8110  173.5680  134.3470 O   0  0  0  0  0  1  0  0  0  0  0  0
  186.7230  175.4310  135.6060 C   0  0  0  0  0  3  0  0  0  0  0  0
  189.7710  175.1990  135.9370 C   0  0  0  0  0  2  0  0  0  0  0  0
  189.7320  173.9360  135.1420 C   0  0  0  0  0  0  0  0  0  0  0  0
  187.4370  177.6930  135.0330 C   0  0  0  0  0  3  0  0  0  0  0  0
  187.5590  172.4880  135.2660 C   0  0  0  0  0  3  0  0  0  0  0  0
  186.4990  176.7430  135.0130 C   0  0  0  0  0  3  0  0  0  0  0  0
  185.9520  174.3870  135.3460 C   0  0  0  0  0  3  0  0  0  0  0  0
  188.6700  173.1780  135.2020 C   0  0  0  0  0  0  0  0  0  0  0  0
  1  3  1  1  0  0  0
  2  1  1  0  0  0  0
  2  3  1  0  0  0  0
  2  6  1  1  0  0  0
  3 19  1  0  0  0  0
  4 29  1  1  0  0  0
  4  1  1  0  0  0  0
  5  2  1  0  0  0  0
  7  5  2  0  0  0  0
  7  4  1  0  0  0  0
  8 13  1  0  0  0  0
  9 10  2  0  0  0  0
 10 12  1  0  0  0  0
 10  5  1  0  0  0  0
 11  8  2  0  0  0  0
 11  9  1  0  0  0  0
 13 12  2  0  0  0  0
 14 11  1  0  0  0  0
 15 17  1  0  0  0  0
 15 14  1  0  0  0  0
 16 15  1  0  0  0  0
 18 15  1  0  0  0  0
 19 20  1  0  0  0  0
 21 23  1  6  0  0  0
 21 22  1  0  0  0  0
 24 27  1  6  0  0  0
 24 26  1  0  0  0  0
 24 21  1  0  0  0  0
 25 23  1  0  0  0  0
 26 20  1  1  0  0  0
 26 22  1  0  0  0  0
 27 28  1  0  0  0  0
 28 25  1  0  0  0  0
 30 32  1  0  0  0  0
 31 34  1  6  0  0  0
 31 30  1  0  0  0  0
 31 32  1  0  0  0  0
 32 29  1  1  0  0  0
 33 34  1  0  0  0  0
 35 34  2  0  0  0  0
 37 38  1  0  0  0  0
 37 41  1  0  0  0  0
 38 33  1  1  0  0  0
 39 42  1  0  0  0  0
 42 47  2  0  0  0  0
 42 41  1  0  0  0  0
 43 38  1  0  0  0  0
 44 36  1  0  0  0  0
 45 43  2  0  0  0  0
 45 40  1  0  0  0  0
 46 40  2  0  0  0  0
 46 36  1  0  0  0  0
 47 44  2  0  0  0  0
M  END
>  <MODEL>
1

>  <REMARK>
 VINA RESULT:      -8.5      0.000      0.000
  Name = 
  10 active torsions:
  status: ('A' for Active; 'I' for Inactive)
    1  A    between atoms: N_3  and  C_5
    2  A    between atoms: C_6  and  C_38
    3  A    between atoms: C_12  and  O_18
    4  A    between atoms: N_16  and  N_24
    5  A    between atoms: N_16  and  N_32
    6  A    between atoms: O_18  and  C_41
    7  A    between atoms: C_21  and  C_26
    8  A    between atoms: C_21  and  C_45
    9  A    between atoms: C_27  and  N_32
   10  A    between atoms: C_29  and  C_39
                            x       y       z     vdW  Elec       q    Type
                         _______ _______ _______ _____ _____    ______ ____

>  <TORSDO>
F 10

$$$$
=
 OpenBabel10222421413D

 47 53  0  0  1  0  0  0  0  0999 V2000
  186.8680  177.5460  142.0320 C   0  0  1  0  0  3  0  0  0  0  0  0
  186.7970  177.8970  143.4520 C   0  0  2  0  0  0  0  0  0  0  0  0
  186.9290  178.9670  142.4390 N   0  0  0  0  0  0  0  0  0  0  0  0
  188.2670  176.9380  141.8490 C   0  0  2  0  0  3  0  0  0  0  0  0
  188.0740  177.4170  144.0420 C   0  0  0  0  0  0  0  0  0  0  0  0
  185.4380  177.5500  144.0560 C   0  0  0  0  0  1  0  0  0  0  0  0
  188.8720  176.9120  143.1680 N   0  0  0  0  0  0  0  0  0  0  0  0
  189.1550  177.8930  148.1280 C   0  0  0  0  0  3  0  0  0  0  0  0
  189.7630  177.3000  145.8760 C   0  0  0  0  0  3  0  0  0  0  0  0
  188.4560  177.5760  145.4570 C   0  0  0  0  0  0  0  0  0  0  0  0
  190.1240  177.4530  147.2160 C   0  0  0  0  0  0  0  0  0  0  0  0
  187.5260  178.0120  146.4070 C   0  0  0  0  0  3  0  0  0  0  0  0
  187.8910  178.1610  147.7080 N   0  0  0  0  0  0  0  0  0  0  0  0
  191.4380  177.1600  147.6060 O   0  0  0  0  0  0  0  0  0  0  0  0
  192.0520  175.8830  147.4450 C   0  0  0  0  0  0  0  0  0  0  0  0
  193.1790  175.7960  148.2420 F   0  0  0  0  0  0  0  0  0  0  0  0
  192.4000  175.6880  146.1190 F   0  0  0  0  0  0  0  0  0  0  0  0
  191.1570  174.9000  147.8240 F   0  0  0  0  0  0  0  0  0  0  0  0
  185.6690  179.5150  142.1640 N   0  0  0  0  0  2  0  0  0  0  0  0
  185.5220  179.5200  140.7650 N   0  0  0  0  0  2  0  0  0  0  0  0
  183.2270  177.3310  140.0760 C   0  0  2  0  0  3  0  0  0  0  0  0
  183.9910  178.3270  139.2100 C   0  0  0  0  0  2  0  0  0  0  0  0
  181.7990  177.2410  139.5170 C   0  0  0  0  0  2  0  0  0  0  0  0
  183.4480  178.2550  141.2920 C   0  0  1  0  0  3  0  0  0  0  0  0
  180.7190  177.5040  140.5520 C   0  0  0  0  0  2  0  0  0  0  0  0
  184.1210  179.2790  140.3930 C   0  0  1  0  0  3  0  0  0  0  0  0
  182.2080  178.8010  142.0160 C   0  0  0  0  0  2  0  0  0  0  0  0
  180.9620  178.8720  141.1530 C   0  0  0  0  0  2  0  0  0  0  0  0
  189.1130  177.7560  140.8820 C   0  0  0  0  0  2  0  0  0  0  0  0
  190.9880  176.9740  139.4780 C   0  0  0  0  0  2  0  0  0  0  0  0
  190.0810  177.8240  138.6150 C   0  0  2  0  0  3  0  0  0  0  0  0
  189.4900  176.9170  139.6800 C   0  0  2  0  0  3  0  0  0  0  0  0
  188.5760  177.0340  136.7350 N   0  0  0  0  0  2  0  0  0  0  0  0
  189.8920  177.2000  137.2720 C   0  0  0  0  0  0  0  0  0  0  0  0
  190.8960  176.7930  136.6300 O   0  0  0  0  0  0  0  0  0  0  0  0
  184.0570  174.6840  137.8410 C   0  0  0  0  0  2  0  0  0  0  0  0
  188.3330  174.8020  135.6170 C   0  0  0  0  0  2  0  0  0  0  0  0
  188.3340  176.3380  135.4760 C   0  0  1  0  0  3  0  0  0  0  0  0
  187.7150  171.8690  136.6050 O   0  0  0  0  0  1  0  0  0  0  0  0
  185.5060  175.9710  136.3770 C   0  0  0  0  0  3  0  0  0  0  0  0
  188.0140  174.3170  137.0330 C   0  0  0  0  0  2  0  0  0  0  0  0
  187.1730  173.0840  137.0030 C   0  0  0  0  0  0  0  0  0  0  0  0
  187.1100  176.8860  134.7810 C   0  0  0  0  0  3  0  0  0  0  0  0
  184.6570  173.3130  137.6750 C   0  0  0  0  0  3  0  0  0  0  0  0
  185.8450  176.7230  135.1760 C   0  0  0  0  0  3  0  0  0  0  0  0
  184.2810  175.5400  136.6290 C   0  0  0  0  0  3  0  0  0  0  0  0
  185.9180  173.1600  137.3560 C   0  0  0  0  0  0  0  0  0  0  0  0
  1  3  1  6  0  0  0
  1  2  1  0  0  0  0
  2  5  1  0  0  0  0
  2  6  1  1  0  0  0
  3  2  1  0  0  0  0
  4 29  1  6  0  0  0
  4  1  1  0  0  0  0
  4  7  1  0  0  0  0
  5 10  1  0  0  0  0
  7  5  2  0  0  0  0
  9 11  1  0  0  0  0
 10  9  2  0  0  0  0
 10 12  1  0  0  0  0
 11 14  1  0  0  0  0
 11  8  2  0  0  0  0
 12 13  2  0  0  0  0
 13  8  1  0  0  0  0
 15 14  1  0  0  0  0
 15 18  1  0  0  0  0
 15 16  1  0  0  0  0
 17 15  1  0  0  0  0
 19  3  1  0  0  0  0
 20 19  1  0  0  0  0
 21 22  1  6  0  0  0
 21 24  1  0  0  0  0
 22 26  1  0  0  0  0
 23 21  1  0  0  0  0
 23 25  1  0  0  0  0
 24 27  1  6  0  0  0
 25 28  1  0  0  0  0
 26 20  1  1  0  0  0
 26 24  1  0  0  0  0
 28 27  1  0  0  0  0
 30 32  1  0  0  0  0
 31 34  1  6  0  0  0
 31 30  1  0  0  0  0
 31 32  1  0  0  0  0
 32 29  1  1  0  0  0
 33 34  1  0  0  0  0
 35 34  2  0  0  0  0
 37 41  1  0  0  0  0
 38 37  1  0  0  0  0
 38 33  1  1  0  0  0
 39 42  1  0  0  0  0
 40 46  2  0  0  0  0
 42 41  1  0  0  0  0
 42 47  2  0  0  0  0
 43 45  2  0  0  0  0
 43 38  1  0  0  0  0
 44 36  1  0  0  0  0
 45 40  1  0  0  0  0
 46 36  1  0  0  0  0
 47 44  2  0  0  0  0
M  END
>  <MODEL>
2

>  <REMARK>
 VINA RESULT:      -8.5      3.899      7.117
  Name = 
  10 active torsions:
  status: ('A' for Active; 'I' for Inactive)
    1  A    between atoms: N_3  and  C_5
    2  A    between atoms: C_6  and  C_38
    3  A    between atoms: C_12  and  O_18
    4  A    between atoms: N_16  and  N_24
    5  A    between atoms: N_16  and  N_32
    6  A    between atoms: O_18  and  C_41
    7  A    between atoms: C_21  and  C_26
    8  A    between atoms: C_21  and  C_45
    9  A    between atoms: C_27  and  N_32
   10  A    between atoms: C_29  and  C_39
                            x       y       z     vdW  Elec       q    Type
                         _______ _______ _______ _____ _____    ______ ____

>  <TORSDO>
F 10

$$$$
=
 OpenBabel10222421413D

 47 53  0  0  1  0  0  0  0  0999 V2000
  190.1950  177.6650  138.3380 C   0  0  1  0  0  3  0  0  0  0  0  0
  189.8670  177.4070  139.7420 C   0  0  2  0  0  0  0  0  0  0  0  0
  189.8630  176.2900  138.7720 N   0  0  0  0  0  0  0  0  0  0  0  0
  188.9700  178.4060  137.7810 C   0  0  2  0  0  3  0  0  0  0  0  0
  188.5520  178.0590  139.9680 C   0  0  0  0  0  0  0  0  0  0  0  0
  191.0650  177.6470  140.6580 C   0  0  0  0  0  1  0  0  0  0  0  0
  188.0640  178.5860  138.9000 N   0  0  0  0  0  0  0  0  0  0  0  0
  186.4050  178.0250  143.6390 C   0  0  0  0  0  3  0  0  0  0  0  0
  188.3640  177.4280  142.3760 C   0  0  0  0  0  3  0  0  0  0  0  0
  187.8130  178.0400  141.2440 C   0  0  0  0  0  0  0  0  0  0  0  0
  187.6640  177.4120  143.5840 C   0  0  0  0  0  0  0  0  0  0  0  0
  186.5530  178.6360  141.3510 C   0  0  0  0  0  3  0  0  0  0  0  0
  185.8820  178.6180  142.5340 N   0  0  0  0  0  0  0  0  0  0  0  0
  188.2380  176.7840  144.6970 O   0  0  0  0  0  0  0  0  0  0  0  0
  188.9220  177.4760  145.7390 C   0  0  0  0  0  0  0  0  0  0  0  0
  188.0140  177.9420  146.6730 F   0  0  0  0  0  0  0  0  0  0  0  0
  189.6400  178.5370  145.2130 F   0  0  0  0  0  0  0  0  0  0  0  0
  189.7970  176.6050  146.3610 F   0  0  0  0  0  0  0  0  0  0  0  0
  191.0760  175.5920  138.8480 N   0  0  0  0  0  2  0  0  0  0  0  0
  190.9740  174.4970  137.9720 N   0  0  0  0  0  2  0  0  0  0  0  0
  193.3830  176.0960  136.4980 C   0  0  2  0  0  3  0  0  0  0  0  0
  192.1200  175.4250  135.9690 C   0  0  0  0  0  2  0  0  0  0  0  0
  194.4860  175.8820  135.4500 C   0  0  0  0  0  2  0  0  0  0  0  0
  193.3630  175.1310  137.7020 C   0  0  1  0  0  3  0  0  0  0  0  0
  195.7460  175.2430  136.0090 C   0  0  0  0  0  2  0  0  0  0  0  0
  192.1610  174.4140  137.1100 C   0  0  1  0  0  3  0  0  0  0  0  0
  194.5770  174.2130  137.9120 C   0  0  0  0  0  2  0  0  0  0  0  0
  195.3650  173.9240  136.6480 C   0  0  0  0  0  2  0  0  0  0  0  0
  188.2980  177.6180  136.6630 C   0  0  0  0  0  2  0  0  0  0  0  0
  187.6850  175.2340  136.4580 C   0  0  0  0  0  2  0  0  0  0  0  0
  186.4420  176.0600  136.2020 C   0  0  2  0  0  3  0  0  0  0  0  0
  187.4520  176.5060  137.2460 C   0  0  2  0  0  3  0  0  0  0  0  0
  184.1400  176.2790  137.2380 N   0  0  0  0  0  2  0  0  0  0  0  0
  185.2570  175.4590  136.8830 C   0  0  0  0  0  0  0  0  0  0  0  0
  185.2640  174.2330  137.1720 O   0  0  0  0  0  0  0  0  0  0  0  0
  181.1340  180.5330  137.4180 C   0  0  0  0  0  2  0  0  0  0  0  0
  182.8140  176.4520  139.3600 C   0  0  0  0  0  2  0  0  0  0  0  0
  183.0060  175.7600  137.9940 C   0  0  1  0  0  3  0  0  0  0  0  0
  182.4700  178.6480  141.6010 O   0  0  0  0  0  1  0  0  0  0  0  0
  181.4660  178.1520  137.0730 C   0  0  0  0  0  3  0  0  0  0  0  0
  183.4220  177.8550  139.4260 C   0  0  0  0  0  2  0  0  0  0  0  0
  182.5610  178.7790  140.2210 C   0  0  0  0  0  0  0  0  0  0  0  0
  181.7570  175.7300  137.1460 C   0  0  0  0  0  3  0  0  0  0  0  0
  181.2080  180.5990  138.9210 C   0  0  0  0  0  3  0  0  0  0  0  0
  181.0630  176.7930  136.7340 C   0  0  0  0  0  3  0  0  0  0  0  0
  180.6580  179.1920  136.9440 C   0  0  0  0  0  3  0  0  0  0  0  0
  181.8920  179.7150  139.6040 C   0  0  0  0  0  0  0  0  0  0  0  0
  1  3  1  6  0  0  0
  1  2  1  0  0  0  0
  2  5  1  0  0  0  0
  2  6  1  1  0  0  0
  3 19  1  0  0  0  0
  3  2  1  0  0  0  0
  4 29  1  6  0  0  0
  4  1  1  0  0  0  0
  4  7  1  0  0  0  0
  5 10  1  0  0  0  0
  7  5  2  0  0  0  0
  9 11  2  0  0  0  0
 10 12  2  0  0  0  0
 10  9  1  0  0  0  0
 11  8  1  0  0  0  0
 11 14  1  0  0  0  0
 12 13  1  0  0  0  0
 13  8  2  0  0  0  0
 14 15  1  0  0  0  0
 15 18  1  0  0  0  0
 15 16  1  0  0  0  0
 17 15  1  0  0  0  0
 20 19  1  0  0  0  0
 21 23  1  6  0  0  0
 21 24  1  0  0  0  0
 22 21  1  0  0  0  0
 22 26  1  0  0  0  0
 23 25  1  0  0  0  0
 24 27  1  6  0  0  0
 25 28  1  0  0  0  0
 26 24  1  0  0  0  0
 26 20  1  1  0  0  0
 28 27  1  0  0  0  0
 30 32  1  0  0  0  0
 31 30  1  0  0  0  0
 31 34  1  1  0  0  0
 31 32  1  0  0  0  0
 32 29  1  6  0  0  0
 34 35  2  0  0  0  0
 34 33  1  0  0  0  0
 36 44  1  0  0  0  0
 37 41  1  0  0  0  0
 38 33  1  6  0  0  0
 38 37  1  0  0  0  0
 41 42  1  0  0  0  0
 42 39  1  0  0  0  0
 43 38  1  0  0  0  0
 44 47  2  0  0  0  0
 45 40  1  0  0  0  0
 45 43  2  0  0  0  0
 46 40  2  0  0  0  0
 46 36  1  0  0  0  0
 47 42  2  0  0  0  0
M  END
>  <MODEL>
3

>  <REMARK>
 VINA RESULT:      -8.0      3.926      8.096
  Name = 
  10 active torsions:
  status: ('A' for Active; 'I' for Inactive)
    1  A    between atoms: N_3  and  C_5
    2  A    between atoms: C_6  and  C_38
    3  A    between atoms: C_12  and  O_18
    4  A    between atoms: N_16  and  N_24
    5  A    between atoms: N_16  and  N_32
    6  A    between atoms: O_18  and  C_41
    7  A    between atoms: C_21  and  C_26
    8  A    between atoms: C_21  and  C_45
    9  A    between atoms: C_27  and  N_32
   10  A    between atoms: C_29  and  C_39
                            x       y       z     vdW  Elec       q    Type
                         _______ _______ _______ _____ _____    ______ ____

>  <TORSDO>
F 10

$$$$
=
 OpenBabel10222421413D

 47 53  0  0  1  0  0  0  0  0999 V2000
  190.2530  177.8250  138.8350 C   0  0  1  0  0  3  0  0  0  0  0  0
  190.0180  177.3360  140.1960 C   0  0  2  0  0  0  0  0  0  0  0  0
  190.0120  176.3830  139.0640 N   0  0  0  0  0  0  0  0  0  0  0  0
  188.9640  178.5730  138.4610 C   0  0  2  0  0  3  0  0  0  0  0  0
  188.6880  177.8710  140.5850 C   0  0  0  0  0  0  0  0  0  0  0  0
  191.2540  177.4990  141.0790 C   0  0  0  0  0  1  0  0  0  0  0  0
  188.1150  178.5280  139.6380 N   0  0  0  0  0  0  0  0  0  0  0  0
  186.7930  177.1070  144.3150 C   0  0  0  0  0  3  0  0  0  0  0  0
  186.7340  178.0970  142.1220 C   0  0  0  0  0  3  0  0  0  0  0  0
  188.0250  177.6140  141.8760 C   0  0  0  0  0  0  0  0  0  0  0  0
  186.1070  177.8500  143.3450 C   0  0  0  0  0  0  0  0  0  0  0  0
  188.6670  176.8790  142.8780 C   0  0  0  0  0  3  0  0  0  0  0  0
  188.0440  176.6420  144.0630 N   0  0  0  0  0  0  0  0  0  0  0  0
  184.8180  178.3550  143.5630 O   0  0  0  0  0  0  0  0  0  0  0  0
  184.4630  179.1860  144.6660 C   0  0  0  0  0  0  0  0  0  0  0  0
  185.5580  179.9250  145.0750 F   0  0  0  0  0  0  0  0  0  0  0  0
  184.0020  178.4100  145.7160 F   0  0  0  0  0  0  0  0  0  0  0  0
  183.4590  180.0530  144.2730 F   0  0  0  0  0  0  0  0  0  0  0  0
  191.2590  175.7510  138.9700 N   0  0  0  0  0  2  0  0  0  0  0  0
  191.1070  174.6750  138.0770 N   0  0  0  0  0  2  0  0  0  0  0  0
  193.5550  176.2750  136.6690 C   0  0  2  0  0  3  0  0  0  0  0  0
  192.2170  175.7700  136.1390 C   0  0  0  0  0  2  0  0  0  0  0  0
  194.5820  176.1190  135.5360 C   0  0  0  0  0  2  0  0  0  0  0  0
  193.5210  175.1670  137.7420 C   0  0  1  0  0  3  0  0  0  0  0  0
  195.8150  175.3250  135.9320 C   0  0  0  0  0  2  0  0  0  0  0  0
  192.2370  174.6200  137.1400 C   0  0  1  0  0  3  0  0  0  0  0  0
  194.6690  174.1450  137.7600 C   0  0  0  0  0  2  0  0  0  0  0  0
  195.3650  173.9660  136.4240 C   0  0  0  0  0  2  0  0  0  0  0  0
  188.2680  177.9310  137.2690 C   0  0  0  0  0  2  0  0  0  0  0  0
  187.7460  175.5390  136.9410 C   0  0  0  0  0  2  0  0  0  0  0  0
  186.5150  176.3410  136.5740 C   0  0  2  0  0  3  0  0  0  0  0  0
  187.3960  176.7820  137.7300 C   0  0  2  0  0  3  0  0  0  0  0  0
  184.1650  176.4910  137.5110 N   0  0  0  0  0  2  0  0  0  0  0  0
  185.2820  175.6920  137.1110 C   0  0  0  0  0  0  0  0  0  0  0  0
  185.2460  174.4390  137.2400 O   0  0  0  0  0  0  0  0  0  0  0  0
  181.0310  180.6550  137.5700 C   0  0  0  0  0  2  0  0  0  0  0  0
  182.6410  176.5420  139.5030 C   0  0  0  0  0  2  0  0  0  0  0  0
  182.9810  175.9120  138.1360 C   0  0  1  0  0  3  0  0  0  0  0  0
  182.0240  178.6340  141.7840 O   0  0  0  0  0  1  0  0  0  0  0  0
  181.4650  178.3000  137.1660 C   0  0  0  0  0  3  0  0  0  0  0  0
  183.1990  177.9560  139.6810 C   0  0  0  0  0  2  0  0  0  0  0  0
  182.2400  178.8240  140.4260 C   0  0  0  0  0  0  0  0  0  0  0  0
  181.8180  175.8850  137.1730 C   0  0  0  0  0  3  0  0  0  0  0  0
  180.9620  180.6610  139.0740 C   0  0  0  0  0  3  0  0  0  0  0  0
  181.1360  176.9460  136.7380 C   0  0  0  0  0  3  0  0  0  0  0  0
  180.6420  179.3230  137.0000 C   0  0  0  0  0  3  0  0  0  0  0  0
  181.6040  179.7670  139.7840 C   0  0  0  0  0  0  0  0  0  0  0  0
  1  3  1  6  0  0  0
  1  2  1  0  0  0  0
  2  5  1  0  0  0  0
  2  6  1  1  0  0  0
  3  2  1  0  0  0  0
  4 29  1  6  0  0  0
  4  1  1  0  0  0  0
  4  7  1  0  0  0  0
  5 10  1  0  0  0  0
  7  5  2  0  0  0  0
  9 11  1  0  0  0  0
 10  9  2  0  0  0  0
 10 12  1  0  0  0  0
 11 14  1  0  0  0  0
 11  8  2  0  0  0  0
 12 13  2  0  0  0  0
 13  8  1  0  0  0  0
 14 15  1  0  0  0  0
 15 16  1  0  0  0  0
 15 17  1  0  0  0  0
 18 15  1  0  0  0  0
 19  3  1  0  0  0  0
 20 19  1  0  0  0  0
 21 23  1  6  0  0  0
 21 24  1  0  0  0  0
 22 21  1  0  0  0  0
 22 26  1  0  0  0  0
 23 25  1  0  0  0  0
 24 27  1  6  0  0  0
 25 28  1  0  0  0  0
 26 24  1  0  0  0  0
 26 20  1  1  0  0  0
 28 27  1  0  0  0  0
 30 32  1  0  0  0  0
 31 30  1  0  0  0  0
 31 34  1  1  0  0  0
 31 32  1  0  0  0  0
 32 29  1  6  0  0  0
 34 35  2  0  0  0  0
 34 33  1  0  0  0  0
 36 44  1  0  0  0  0
 37 41  1  0  0  0  0
 38 33  1  6  0  0  0
 38 37  1  0  0  0  0
 41 42  1  0  0  0  0
 42 39  1  0  0  0  0
 43 38  1  0  0  0  0
 44 47  2  0  0  0  0
 45 40  1  0  0  0  0
 45 43  2  0  0  0  0
 46 40  2  0  0  0  0
 46 36  1  0  0  0  0
 47 42  2  0  0  0  0
M  END
>  <MODEL>
4

>  <REMARK>
 VINA RESULT:      -8.0      3.716      7.920
  Name = 
  10 active torsions:
  status: ('A' for Active; 'I' for Inactive)
    1  A    between atoms: N_3  and  C_5
    2  A    between atoms: C_6  and  C_38
    3  A    between atoms: C_12  and  O_18
    4  A    between atoms: N_16  and  N_24
    5  A    between atoms: N_16  and  N_32
    6  A    between atoms: O_18  and  C_41
    7  A    between atoms: C_21  and  C_26
    8  A    between atoms: C_21  and  C_45
    9  A    between atoms: C_27  and  N_32
   10  A    between atoms: C_29  and  C_39
                            x       y       z     vdW  Elec       q    Type
                         _______ _______ _______ _____ _____    ______ ____

>  <TORSDO>
F 10

$$$$
=
 OpenBabel10222421413D

 47 53  0  0  1  0  0  0  0  0999 V2000
  189.6350  178.0480  140.5920 C   0  0  1  0  0  3  0  0  0  0  0  0
  190.5150  177.3970  141.5650 C   0  0  2  0  0  0  0  0  0  0  0  0
  189.7010  176.5710  140.6460 N   0  0  0  0  0  0  0  0  0  0  0  0
  188.4720  178.6040  141.4280 C   0  0  2  0  0  3  0  0  0  0  0  0
  189.9040  177.6640  142.8920 C   0  0  0  0  0  0  0  0  0  0  0  0
  191.9890  177.6760  141.2730 C   0  0  0  0  0  1  0  0  0  0  0  0
  188.7910  178.3050  142.8120 N   0  0  0  0  0  0  0  0  0  0  0  0
  191.4610  176.2340  146.5830 C   0  0  0  0  0  3  0  0  0  0  0  0
  189.8990  177.6210  145.3880 C   0  0  0  0  0  3  0  0  0  0  0  0
  190.4400  177.1760  144.1760 C   0  0  0  0  0  0  0  0  0  0  0  0
  190.4060  177.1560  146.6030 C   0  0  0  0  0  0  0  0  0  0  0  0
  191.4930  176.2560  144.2100 C   0  0  0  0  0  3  0  0  0  0  0  0
  191.9760  175.8080  145.4000 N   0  0  0  0  0  0  0  0  0  0  0  0
  189.8480  177.6280  147.7990 O   0  0  0  0  0  0  0  0  0  0  0  0
  188.4550  177.5850  148.1020 C   0  0  0  0  0  0  0  0  0  0  0  0
  187.7470  178.3280  147.1750 F   0  0  0  0  0  0  0  0  0  0  0  0
  188.2310  178.0850  149.3730 F   0  0  0  0  0  0  0  0  0  0  0  0
  188.0220  176.2730  148.0510 F   0  0  0  0  0  0  0  0  0  0  0  0
  190.4830  176.1670  139.5550 N   0  0  0  0  0  2  0  0  0  0  0  0
  189.6380  175.4460  138.6920 N   0  0  0  0  0  2  0  0  0  0  0  0
  187.6680  175.7920  136.1360 C   0  0  2  0  0  3  0  0  0  0  0  0
  189.1580  175.4860  136.2510 C   0  0  0  0  0  2  0  0  0  0  0  0
  187.4780  176.6720  134.8910 C   0  0  0  0  0  2  0  0  0  0  0  0
  187.7330  176.5090  137.5000 C   0  0  1  0  0  3  0  0  0  0  0  0
  186.7430  177.9730  135.1680 C   0  0  0  0  0  2  0  0  0  0  0  0
  189.2340  176.2800  137.5510 C   0  0  1  0  0  3  0  0  0  0  0  0
  187.3420  177.9950  137.5530 C   0  0  0  0  0  2  0  0  0  0  0  0
  187.5050  178.7290  136.2350 C   0  0  0  0  0  2  0  0  0  0  0  0
  187.1440  177.9740  141.0310 C   0  0  0  0  0  2  0  0  0  0  0  0
  185.9820  178.9040  143.0030 C   0  0  0  0  0  2  0  0  0  0  0  0
  185.0150  177.9940  142.2760 C   0  0  2  0  0  3  0  0  0  0  0  0
  185.9950  178.8470  141.4900 C   0  0  2  0  0  3  0  0  0  0  0  0
  182.8720  178.4940  141.0180 N   0  0  0  0  0  2  0  0  0  0  0  0
  183.6570  178.6110  142.2090 C   0  0  0  0  0  0  0  0  0  0  0  0
  183.2210  179.2610  143.1960 O   0  0  0  0  0  0  0  0  0  0  0  0
  180.6130  175.3690  137.5120 C   0  0  0  0  0  2  0  0  0  0  0  0
  181.3490  179.7220  139.4490 C   0  0  0  0  0  2  0  0  0  0  0  0
  181.5860  179.1650  140.8680 C   0  0  1  0  0  3  0  0  0  0  0  0
  181.1080  179.9680  136.3120 O   0  0  0  0  0  1  0  0  0  0  0  0
  180.5850  176.6670  139.5650 C   0  0  0  0  0  3  0  0  0  0  0  0
  182.1690  179.0140  138.3680 C   0  0  0  0  0  2  0  0  0  0  0  0
  181.3840  178.8640  137.1080 C   0  0  0  0  0  0  0  0  0  0  0  0
  180.4590  178.2970  141.3770 C   0  0  0  0  0  3  0  0  0  0  0  0
  180.5170  176.4750  136.4950 C   0  0  0  0  0  3  0  0  0  0  0  0
  180.0060  177.1830  140.7990 C   0  0  0  0  0  3  0  0  0  0  0  0
  179.9820  175.7580  138.8170 C   0  0  0  0  0  3  0  0  0  0  0  0
  180.9580  177.6790  136.7610 C   0  0  0  0  0  0  0  0  0  0  0  0
  1  3  1  6  0  0  0
  1  4  1  0  0  0  0
  1  2  1  0  0  0  0
  2  6  1  6  0  0  0
  2  5  1  0  0  0  0
  3  2  1  0  0  0  0
  4 29  1  6  0  0  0
  4  7  1  0  0  0  0
  5 10  1  0  0  0  0
  7  5  2  0  0  0  0
  8 11  1  0  0  0  0
  9 11  2  0  0  0  0
 10 12  2  0  0  0  0
 10  9  1  0  0  0  0
 11 14  1  0  0  0  0
 12 13  1  0  0  0  0
 13  8  2  0  0  0  0
 14 15  1  0  0  0  0
 15 17  1  0  0  0  0
 16 15  1  0  0  0  0
 18 15  1  0  0  0  0
 19  3  1  0  0  0  0
 20 19  1  0  0  0  0
 21 23  1  6  0  0  0
 21 22  1  0  0  0  0
 21 24  1  0  0  0  0
 22 26  1  0  0  0  0
 23 25  1  0  0  0  0
 24 26  1  0  0  0  0
 24 27  1  6  0  0  0
 25 28  1  0  0  0  0
 26 20  1  1  0  0  0
 28 27  1  0  0  0  0
 31 34  1  6  0  0  0
 31 30  1  0  0  0  0
 32 29  1  1  0  0  0
 32 31  1  0  0  0  0
 32 30  1  0  0  0  0
 33 34  1  0  0  0  0
 34 35  2  0  0  0  0
 36 46  1  0  0  0  0
 37 38  1  0  0  0  0
 38 33  1  6  0  0  0
 38 43  1  0  0  0  0
 39 42  1  0  0  0  0
 40 45  1  0  0  0  0
 41 37  1  0  0  0  0
 42 41  1  0  0  0  0
 44 47  2  0  0  0  0
 44 36  1  0  0  0  0
 45 43  2  0  0  0  0
 46 40  2  0  0  0  0
 47 42  2  0  0  0  0
M  END
>  <MODEL>
5

>  <REMARK>
 VINA RESULT:      -7.5      4.083      8.865
  Name = 
  10 active torsions:
  status: ('A' for Active; 'I' for Inactive)
    1  A    between atoms: N_3  and  C_5
    2  A    between atoms: C_6  and  C_38
    3  A    between atoms: C_12  and  O_18
    4  A    between atoms: N_16  and  N_24
    5  A    between atoms: N_16  and  N_32
    6  A    between atoms: O_18  and  C_41
    7  A    between atoms: C_21  and  C_26
    8  A    between atoms: C_21  and  C_45
    9  A    between atoms: C_27  and  N_32
   10  A    between atoms: C_29  and  C_39
                            x       y       z     vdW  Elec       q    Type
                         _______ _______ _______ _____ _____    ______ ____

>  <TORSDO>
F 10

$$$$
=
 OpenBabel10222421413D

 47 53  0  0  1  0  0  0  0  0999 V2000
  191.0260  177.6530  141.0060 C   0  0  1  0  0  3  0  0  0  0  0  0
  189.9610  177.9880  141.9530 C   0  0  2  0  0  0  0  0  0  0  0  0
  190.6890  176.7080  142.0940 N   0  0  0  0  0  0  0  0  0  0  0  0
  190.2940  177.3120  139.6990 C   0  0  2  0  0  3  0  0  0  0  0  0
  188.7000  177.9200  141.1710 C   0  0  0  0  0  0  0  0  0  0  0  0
  190.3240  179.1980  142.8120 C   0  0  0  0  0  1  0  0  0  0  0  0
  188.8840  177.5410  139.9550 N   0  0  0  0  0  0  0  0  0  0  0  0
  184.8140  178.6380  142.7450 C   0  0  0  0  0  3  0  0  0  0  0  0
  187.0500  177.8000  143.0410 C   0  0  0  0  0  3  0  0  0  0  0  0
  187.3540  178.1620  141.7230 C   0  0  0  0  0  0  0  0  0  0  0  0
  185.7770  178.0320  143.5640 C   0  0  0  0  0  0  0  0  0  0  0  0
  186.3580  178.7630  140.9470 C   0  0  0  0  0  3  0  0  0  0  0  0
  185.1220  178.9870  141.4680 N   0  0  0  0  0  0  0  0  0  0  0  0
  185.5020  177.6500  144.8830 O   0  0  0  0  0  0  0  0  0  0  0  0
  185.2190  178.5680  145.9370 C   0  0  0  0  0  0  0  0  0  0  0  0
  185.7890  179.7980  145.6610 F   0  0  0  0  0  0  0  0  0  0  0  0
  185.7140  178.0820  147.1360 F   0  0  0  0  0  0  0  0  0  0  0  0
  183.8490  178.7230  146.0460 F   0  0  0  0  0  0  0  0  0  0  0  0
  191.6940  176.8400  143.0620 N   0  0  0  0  0  2  0  0  0  0  0  0
  191.7360  175.6290  143.7760 N   0  0  0  0  0  2  0  0  0  0  0  0
  191.5950  177.1900  146.6180 C   0  0  2  0  0  3  0  0  0  0  0  0
  192.0340  175.7790  146.2410 C   0  0  0  0  0  2  0  0  0  0  0  0
  190.9090  177.1020  147.9900 C   0  0  0  0  0  2  0  0  0  0  0  0
  190.6790  177.2120  145.3770 C   0  0  1  0  0  3  0  0  0  0  0  0
  189.5100  177.6940  148.0140 C   0  0  0  0  0  2  0  0  0  0  0  0
  191.0560  175.7710  145.0710 C   0  0  1  0  0  3  0  0  0  0  0  0
  189.1720  177.4130  145.5950 C   0  0  0  0  0  2  0  0  0  0  0  0
  188.6790  176.9870  146.9650 C   0  0  0  0  0  2  0  0  0  0  0  0
  190.5400  175.8700  139.2770 C   0  0  0  0  0  2  0  0  0  0  0  0
  191.5070  176.4380  137.0760 C   0  0  0  0  0  2  0  0  0  0  0  0
  190.1520  177.1070  137.1790 C   0  0  2  0  0  3  0  0  0  0  0  0
  190.3700  175.7280  137.7790 C   0  0  2  0  0  3  0  0  0  0  0  0
  187.9860  176.7540  135.9130 N   0  0  0  0  0  2  0  0  0  0  0  0
  189.3990  176.9750  135.8960 C   0  0  0  0  0  0  0  0  0  0  0  0
  190.0220  177.0280  134.8030 O   0  0  0  0  0  0  0  0  0  0  0  0
  183.8870  174.1990  137.8730 C   0  0  0  0  0  2  0  0  0  0  0  0
  187.0720  175.0200  134.3470 C   0  0  0  0  0  2  0  0  0  0  0  0
  187.2240  176.5160  134.6920 C   0  0  1  0  0  3  0  0  0  0  0  0
  186.4660  171.9290  134.5510 O   0  0  0  0  0  1  0  0  0  0  0  0
  184.8770  175.8890  136.4370 C   0  0  0  0  0  3  0  0  0  0  0  0
  187.2150  174.0950  135.5580 C   0  0  0  0  0  2  0  0  0  0  0  0
  186.2640  172.9470  135.4740 C   0  0  0  0  0  0  0  0  0  0  0  0
  185.9160  177.2720  134.7140 C   0  0  0  0  0  3  0  0  0  0  0  0
  184.2040  172.9570  137.0830 C   0  0  0  0  0  3  0  0  0  0  0  0
  184.8640  176.9950  135.4880 C   0  0  0  0  0  3  0  0  0  0  0  0
  183.7770  175.4060  136.9900 C   0  0  0  0  0  3  0  0  0  0  0  0
  185.2380  172.9100  136.2810 C   0  0  0  0  0  0  0  0  0  0  0  0
  1  2  1  0  0  0  0
  1  3  1  1  0  0  0
  2  3  1  0  0  0  0
  2  6  1  1  0  0  0
  3 19  1  0  0  0  0
  4 29  1  1  0  0  0
  4  7  1  0  0  0  0
  4  1  1  0  0  0  0
  5 10  1  0  0  0  0
  5  2  1  0  0  0  0
  7  5  2  0  0  0  0
  8 11  1  0  0  0  0
  9 11  2  0  0  0  0
 10  9  1  0  0  0  0
 11 14  1  0  0  0  0
 12 13  1  0  0  0  0
 12 10  2  0  0  0  0
 13  8  2  0  0  0  0
 14 15  1  0  0  0  0
 15 18  1  0  0  0  0
 15 17  1  0  0  0  0
 16 15  1  0  0  0  0
 19 20  1  0  0  0  0
 21 22  1  6  0  0  0
 21 23  1  0  0  0  0
 23 25  1  0  0  0  0
 24 27  1  1  0  0  0
 24 21  1  0  0  0  0
 26 20  1  6  0  0  0
 26 24  1  0  0  0  0
 26 22  1  0  0  0  0
 27 28  1  0  0  0  0
 28 25  1  0  0  0  0
 30 31  1  0  0  0  0
 30 32  1  0  0  0  0
 31 34  1  6  0  0  0
 31 32  1  0  0  0  0
 32 29  1  1  0  0  0
 34 33  1  0  0  0  0
 35 34  2  0  0  0  0
 37 38  1  0  0  0  0
 37 41  1  0  0  0  0
 38 43  1  0  0  0  0
 38 33  1  1  0  0  0
 39 42  1  0  0  0  0
 40 46  2  0  0  0  0
 42 41  1  0  0  0  0
 42 47  2  0  0  0  0
 43 45  2  0  0  0  0
 44 36  1  0  0  0  0
 45 40  1  0  0  0  0
 46 36  1  0  0  0  0
 47 44  2  0  0  0  0
M  END
>  <MODEL>
6

>  <REMARK>
 VINA RESULT:      -7.3      3.454      5.063
  Name = 
  10 active torsions:
  status: ('A' for Active; 'I' for Inactive)
    1  A    between atoms: N_3  and  C_5
    2  A    between atoms: C_6  and  C_38
    3  A    between atoms: C_12  and  O_18
    4  A    between atoms: N_16  and  N_24
    5  A    between atoms: N_16  and  N_32
    6  A    between atoms: O_18  and  C_41
    7  A    between atoms: C_21  and  C_26
    8  A    between atoms: C_21  and  C_45
    9  A    between atoms: C_27  and  N_32
   10  A    between atoms: C_29  and  C_39
                            x       y       z     vdW  Elec       q    Type
                         _______ _______ _______ _____ _____    ______ ____

>  <TORSDO>
F 10

$$$$
=
 OpenBabel10222421413D

 47 53  0  0  1  0  0  0  0  0999 V2000
  183.8510  177.7530  139.7030 C   0  0  1  0  0  3  0  0  0  0  0  0
  183.4430  178.3320  138.4210 C   0  0  2  0  0  0  0  0  0  0  0  0
  184.7530  178.6950  139.0060 N   0  0  0  0  0  0  0  0  0  0  0  0
  182.9750  178.4600  140.7480 C   0  0  2  0  0  3  0  0  0  0  0  0
  182.3260  179.2570  138.7430 C   0  0  0  0  0  0  0  0  0  0  0  0
  183.3380  177.2730  137.3270 C   0  0  0  0  0  1  0  0  0  0  0  0
  182.0850  179.3330  140.0040 N   0  0  0  0  0  0  0  0  0  0  0  0
  180.2740  181.6310  135.8710 C   0  0  0  0  0  3  0  0  0  0  0  0
  181.2720  181.4120  138.0500 C   0  0  0  0  0  3  0  0  0  0  0  0
  181.6110  180.0860  137.7550 C   0  0  0  0  0  0  0  0  0  0  0  0
  180.5980  182.1960  137.1120 C   0  0  0  0  0  0  0  0  0  0  0  0
  181.2640  179.5680  136.5020 C   0  0  0  0  0  3  0  0  0  0  0  0
  180.6110  180.3430  135.5960 N   0  0  0  0  0  0  0  0  0  0  0  0
  180.2650  183.5160  137.4410 O   0  0  0  0  0  0  0  0  0  0  0  0
  181.1280  184.6330  137.2320 C   0  0  0  0  0  0  0  0  0  0  0  0
  182.3920  184.3520  137.7200 F   0  0  0  0  0  0  0  0  0  0  0  0
  180.6180  185.7520  137.8690 F   0  0  0  0  0  0  0  0  0  0  0  0
  181.2170  184.8880  135.8760 F   0  0  0  0  0  0  0  0  0  0  0  0
  185.7630  177.9200  138.4200 N   0  0  0  0  0  2  0  0  0  0  0  0
  186.6100  178.8050  137.7290 N   0  0  0  0  0  2  0  0  0  0  0  0
  188.9400  177.2920  139.4080 C   0  0  2  0  0  3  0  0  0  0  0  0
  188.7490  178.7480  138.9980 C   0  0  0  0  0  2  0  0  0  0  0  0
  190.4460  176.9950  139.3500 C   0  0  0  0  0  2  0  0  0  0  0  0
  188.0930  176.8630  138.1930 C   0  0  1  0  0  3  0  0  0  0  0  0
  190.8010  175.7960  138.4870 C   0  0  0  0  0  2  0  0  0  0  0  0
  187.9950  178.3130  137.7470 C   0  0  1  0  0  3  0  0  0  0  0  0
  188.7450  175.9460  137.1460 C   0  0  0  0  0  2  0  0  0  0  0  0
  190.2590  176.0380  137.0940 C   0  0  0  0  0  2  0  0  0  0  0  0
  183.8140  179.2590  141.7370 C   0  0  0  0  0  2  0  0  0  0  0  0
  183.0950  179.0020  144.0850 C   0  0  0  0  0  2  0  0  0  0  0  0
  184.5580  179.3930  144.0840 C   0  0  2  0  0  3  0  0  0  0  0  0
  184.0150  178.4660  143.0100 C   0  0  2  0  0  3  0  0  0  0  0  0
  186.5880  178.0280  144.7460 N   0  0  0  0  0  2  0  0  0  0  0  0
  185.3190  178.5940  145.0900 C   0  0  0  0  0  0  0  0  0  0  0  0
  184.8220  178.3950  146.2300 O   0  0  0  0  0  0  0  0  0  0  0  0
  191.4820  179.1480  143.3490 C   0  0  0  0  0  2  0  0  0  0  0  0
  188.1340  176.0630  144.9360 C   0  0  0  0  0  2  0  0  0  0  0  0
  187.3200  177.1560  145.6580 C   0  0  1  0  0  3  0  0  0  0  0  0
  190.1130  174.5850  142.9700 O   0  0  0  0  0  1  0  0  0  0  0  0
  189.7610  178.7610  145.0190 C   0  0  0  0  0  3  0  0  0  0  0  0
  188.4880  176.4170  143.4900 C   0  0  0  0  0  2  0  0  0  0  0  0
  189.8580  175.9400  143.1380 C   0  0  0  0  0  0  0  0  0  0  0  0
  188.1280  177.9630  146.6470 C   0  0  0  0  0  3  0  0  0  0  0  0
  191.7450  177.7340  142.9030 C   0  0  0  0  0  3  0  0  0  0  0  0
  189.2200  178.6790  146.3690 C   0  0  0  0  0  3  0  0  0  0  0  0
  190.9830  179.2000  144.7630 C   0  0  0  0  0  3  0  0  0  0  0  0
  190.8170  176.8140  142.9890 C   0  0  0  0  0  0  0  0  0  0  0  0
  1  3  1  1  0  0  0
  1  4  1  0  0  0  0
  2  6  1  6  0  0  0
  2  5  1  0  0  0  0
  2  3  1  0  0  0  0
  2  1  1  0  0  0  0
  4 29  1  1  0  0  0
  5  7  2  0  0  0  0
  7  4  1  0  0  0  0
  8 11  1  0  0  0  0
 10  9  1  0  0  0  0
 10  5  1  0  0  0  0
 11 14  1  0  0  0  0
 11  9  2  0  0  0  0
 12 10  2  0  0  0  0
 13  8  2  0  0  0  0
 13 12  1  0  0  0  0
 15 14  1  0  0  0  0
 15 16  1  0  0  0  0
 15 17  1  0  0  0  0
 18 15  1  0  0  0  0
 19  3  1  0  0  0  0
 20 19  1  0  0  0  0
 21 22  1  6  0  0  0
 23 21  1  0  0  0  0
 24 27  1  6  0  0  0
 24 21  1  0  0  0  0
 25 23  1  0  0  0  0
 26 20  1  1  0  0  0
 26 24  1  0  0  0  0
 26 22  1  0  0  0  0
 28 27  1  0  0  0  0
 28 25  1  0  0  0  0
 31 30  1  0  0  0  0
 31 34  1  1  0  0  0
 32 29  1  6  0  0  0
 32 31  1  0  0  0  0
 32 30  1  0  0  0  0
 33 34  1  0  0  0  0
 34 35  2  0  0  0  0
 36 46  1  0  0  0  0
 37 38  1  0  0  0  0
 38 33  1  6  0  0  0
 38 43  1  0  0  0  0
 39 42  1  0  0  0  0
 40 45  1  0  0  0  0
 41 37  1  0  0  0  0
 42 41  1  0  0  0  0
 44 47  2  0  0  0  0
 44 36  1  0  0  0  0
 45 43  2  0  0  0  0
 46 40  2  0  0  0  0
 47 42  2  0  0  0  0
M  END
>  <MODEL>
7

>  <REMARK>
 VINA RESULT:      -7.3      4.045      7.853
  Name = 
  10 active torsions:
  status: ('A' for Active; 'I' for Inactive)
    1  A    between atoms: N_3  and  C_5
    2  A    between atoms: C_6  and  C_38
    3  A    between atoms: C_12  and  O_18
    4  A    between atoms: N_16  and  N_24
    5  A    between atoms: N_16  and  N_32
    6  A    between atoms: O_18  and  C_41
    7  A    between atoms: C_21  and  C_26
    8  A    between atoms: C_21  and  C_45
    9  A    between atoms: C_27  and  N_32
   10  A    between atoms: C_29  and  C_39
                            x       y       z     vdW  Elec       q    Type
                         _______ _______ _______ _____ _____    ______ ____

>  <TORSDO>
F 10

$$$$
=
 OpenBabel10222421413D

 47 53  0  0  1  0  0  0  0  0999 V2000
  189.6600  178.0700  140.3630 C   0  0  1  0  0  3  0  0  0  0  0  0
  190.5140  177.4220  141.3610 C   0  0  2  0  0  0  0  0  0  0  0  0
  189.6960  176.5930  140.4490 N   0  0  0  0  0  0  0  0  0  0  0  0
  188.4980  178.6670  141.1710 C   0  0  2  0  0  3  0  0  0  0  0  0
  189.8910  177.7290  142.6740 C   0  0  0  0  0  0  0  0  0  0  0  0
  191.9970  177.6650  141.0840 C   0  0  0  0  0  1  0  0  0  0  0  0
  188.7930  178.3910  142.5660 N   0  0  0  0  0  0  0  0  0  0  0  0
  191.3690  176.3460  146.4150 C   0  0  0  0  0  3  0  0  0  0  0  0
  189.8730  177.7610  145.1700 C   0  0  0  0  0  3  0  0  0  0  0  0
  190.4000  177.2580  143.9750 C   0  0  0  0  0  0  0  0  0  0  0  0
  190.3540  177.3120  146.4010 C   0  0  0  0  0  0  0  0  0  0  0  0
  191.4130  176.2960  144.0430 C   0  0  0  0  0  3  0  0  0  0  0  0
  191.8710  175.8640  145.2480 N   0  0  0  0  0  0  0  0  0  0  0  0
  189.8110  177.8420  147.5800 O   0  0  0  0  0  0  0  0  0  0  0  0
  188.4860  177.5800  148.0360 C   0  0  0  0  0  0  0  0  0  0  0  0
  187.5690  178.2110  147.2150 F   0  0  0  0  0  0  0  0  0  0  0  0
  188.3350  178.0280  149.3380 F   0  0  0  0  0  0  0  0  0  0  0  0
  188.2560  176.2180  148.0000 F   0  0  0  0  0  0  0  0  0  0  0  0
  190.4830  176.1500  139.3770 N   0  0  0  0  0  2  0  0  0  0  0  0
  189.6280  175.4610  138.4980 N   0  0  0  0  0  2  0  0  0  0  0  0
  191.6210  176.1380  136.0270 C   0  0  2  0  0  3  0  0  0  0  0  0
  190.1420  175.7690  136.0840 C   0  0  0  0  0  2  0  0  0  0  0  0
  192.2020  175.4950  134.7580 C   0  0  0  0  0  2  0  0  0  0  0  0
  191.8350  175.3850  137.3560 C   0  0  1  0  0  3  0  0  0  0  0  0
  193.4170  174.6200  135.0170 C   0  0  0  0  0  2  0  0  0  0  0  0
  190.3800  174.9470  137.3460 C   0  0  1  0  0  3  0  0  0  0  0  0
  192.8250  174.2090  137.3680 C   0  0  0  0  0  2  0  0  0  0  0  0
  193.0270  173.5510  136.0150 C   0  0  0  0  0  2  0  0  0  0  0  0
  187.1620  178.0550  140.7700 C   0  0  0  0  0  2  0  0  0  0  0  0
  186.0590  178.7550  142.8660 C   0  0  0  0  0  2  0  0  0  0  0  0
  185.0750  177.9170  142.0770 C   0  0  2  0  0  3  0  0  0  0  0  0
  186.0230  178.8610  141.3570 C   0  0  2  0  0  3  0  0  0  0  0  0
  182.8300  178.3900  141.0010 N   0  0  0  0  0  2  0  0  0  0  0  0
  183.7110  178.5220  142.1200 C   0  0  0  0  0  0  0  0  0  0  0  0
  183.3550  179.1770  143.1360 O   0  0  0  0  0  0  0  0  0  0  0  0
  180.7070  175.9430  136.9180 C   0  0  0  0  0  2  0  0  0  0  0  0
  181.3020  179.8620  139.6630 C   0  0  0  0  0  2  0  0  0  0  0  0
  181.5300  179.0490  140.9550 C   0  0  1  0  0  3  0  0  0  0  0  0
  181.1060  180.6960  136.6250 O   0  0  0  0  0  1  0  0  0  0  0  0
  180.6140  176.8240  139.1800 C   0  0  0  0  0  3  0  0  0  0  0  0
  182.1570  179.3900  138.4840 C   0  0  0  0  0  2  0  0  0  0  0  0
  181.3960  179.4660  137.2030 C   0  0  0  0  0  0  0  0  0  0  0  0
  180.4180  178.0760  141.2650 C   0  0  0  0  0  3  0  0  0  0  0  0
  180.6000  177.2200  136.1280 C   0  0  0  0  0  3  0  0  0  0  0  0
  180.0020  177.0820  140.4770 C   0  0  0  0  0  3  0  0  0  0  0  0
  180.0460  176.0620  138.2590 C   0  0  0  0  0  3  0  0  0  0  0  0
  181.0060  178.3610  136.6280 C   0  0  0  0  0  0  0  0  0  0  0  0
  1  3  1  6  0  0  0
  1  4  1  0  0  0  0
  1  2  1  0  0  0  0
  2  6  1  6  0  0  0
  2  5  1  0  0  0  0
  3  2  1  0  0  0  0
  4 29  1  6  0  0  0
  4  7  1  0  0  0  0
  5 10  1  0  0  0  0
  7  5  2  0  0  0  0
  9 11  2  0  0  0  0
 10 12  2  0  0  0  0
 10  9  1  0  0  0  0
 11  8  1  0  0  0  0
 11 14  1  0  0  0  0
 12 13  1  0  0  0  0
 13  8  2  0  0  0  0
 14 15  1  0  0  0  0
 15 17  1  0  0  0  0
 16 15  1  0  0  0  0
 18 15  1  0  0  0  0
 19  3  1  0  0  0  0
 20 19  1  0  0  0  0
 21 23  1  6  0  0  0
 21 22  1  0  0  0  0
 21 24  1  0  0  0  0
 22 26  1  0  0  0  0
 23 25  1  0  0  0  0
 24 27  1  6  0  0  0
 25 28  1  0  0  0  0
 26 24  1  0  0  0  0
 26 20  1  1  0  0  0
 28 27  1  0  0  0  0
 31 34  1  1  0  0  0
 31 30  1  0  0  0  0
 32 29  1  6  0  0  0
 32 31  1  0  0  0  0
 32 30  1  0  0  0  0
 33 34  1  0  0  0  0
 34 35  2  0  0  0  0
 36 46  1  0  0  0  0
 37 38  1  0  0  0  0
 38 33  1  6  0  0  0
 38 43  1  0  0  0  0
 39 42  1  0  0  0  0
 40 45  1  0  0  0  0
 41 37  1  0  0  0  0
 42 41  1  0  0  0  0
 44 47  2  0  0  0  0
 44 36  1  0  0  0  0
 45 43  2  0  0  0  0
 46 40  2  0  0  0  0
 47 42  2  0  0  0  0
M  END
>  <MODEL>
8

>  <REMARK>
 VINA RESULT:      -7.1      4.323      8.958
  Name = 
  10 active torsions:
  status: ('A' for Active; 'I' for Inactive)
    1  A    between atoms: N_3  and  C_5
    2  A    between atoms: C_6  and  C_38
    3  A    between atoms: C_12  and  O_18
    4  A    between atoms: N_16  and  N_24
    5  A    between atoms: N_16  and  N_32
    6  A    between atoms: O_18  and  C_41
    7  A    between atoms: C_21  and  C_26
    8  A    between atoms: C_21  and  C_45
    9  A    between atoms: C_27  and  N_32
   10  A    between atoms: C_29  and  C_39
                            x       y       z     vdW  Elec       q    Type
                         _______ _______ _______ _____ _____    ______ ____

>  <TORSDO>
F 10

$$$$
=
 OpenBabel10222421413D

 47 53  0  0  1  0  0  0  0  0999 V2000
  190.5760  177.2870  138.1580 C   0  0  1  0  0  3  0  0  0  0  0  0
  189.3530  176.4820  138.1730 C   0  0  2  0  0  0  0  0  0  0  0  0
  190.2700  176.4430  139.3340 N   0  0  0  0  0  0  0  0  0  0  0  0
  191.5010  176.5730  137.1610 C   0  0  2  0  0  3  0  0  0  0  0  0
  189.5650  175.4190  137.1580 C   0  0  0  0  0  0  0  0  0  0  0  0
  188.0990  177.3540  138.1920 C   0  0  0  0  0  1  0  0  0  0  0  0
  190.7350  175.4640  136.6230 N   0  0  0  0  0  0  0  0  0  0  0  0
  186.7930  172.3280  136.2380 C   0  0  0  0  0  3  0  0  0  0  0  0
  187.2350  174.6470  136.7060 C   0  0  0  0  0  3  0  0  0  0  0  0
  188.5970  174.3530  136.8430 C   0  0  0  0  0  0  0  0  0  0  0  0
  186.3190  173.6360  136.4060 C   0  0  0  0  0  0  0  0  0  0  0  0
  189.0180  173.0310  136.6670 C   0  0  0  0  0  3  0  0  0  0  0  0
  188.1180  172.0560  136.3700 N   0  0  0  0  0  0  0  0  0  0  0  0
  184.9620  173.9610  136.2850 O   0  0  0  0  0  0  0  0  0  0  0  0
  184.0730  174.1010  137.3910 C   0  0  0  0  0  0  0  0  0  0  0  0
  182.8060  173.6720  137.0380 F   0  0  0  0  0  0  0  0  0  0  0  0
  184.0240  175.4240  137.7950 F   0  0  0  0  0  0  0  0  0  0  0  0
  184.5320  173.3270  138.4400 F   0  0  0  0  0  0  0  0  0  0  0  0
  189.8040  177.3070  140.3340 N   0  0  0  0  0  2  0  0  0  0  0  0
  190.2860  176.8130  141.5590 N   0  0  0  0  0  2  0  0  0  0  0  0
  187.8470  176.5950  143.6900 C   0  0  2  0  0  3  0  0  0  0  0  0
  188.0630  177.4730  142.4620 C   0  0  0  0  0  2  0  0  0  0  0  0
  187.0960  177.4430  144.7290 C   0  0  0  0  0  2  0  0  0  0  0  0
  189.3770  176.4820  143.8500 C   0  0  1  0  0  3  0  0  0  0  0  0
  187.7850  177.5040  146.0820 C   0  0  0  0  0  2  0  0  0  0  0  0
  189.5720  177.4360  142.6830 C   0  0  1  0  0  3  0  0  0  0  0  0
  190.0040  176.9860  145.1590 C   0  0  0  0  0  2  0  0  0  0  0  0
  189.1850  178.0420  145.8770 C   0  0  0  0  0  2  0  0  0  0  0  0
  192.7740  176.0750  137.8330 C   0  0  0  0  0  2  0  0  0  0  0  0
  194.3220  174.1670  138.0860 C   0  0  0  0  0  2  0  0  0  0  0  0
  194.5200  174.7490  136.7030 C   0  0  2  0  0  3  0  0  0  0  0  0
  193.1310  174.6970  137.3170 C   0  0  2  0  0  3  0  0  0  0  0  0
  194.7430  172.2980  136.1010 N   0  0  0  0  0  2  0  0  0  0  0  0
  194.6530  173.6640  135.6860 C   0  0  0  0  0  0  0  0  0  0  0  0
  194.7170  173.9630  134.4640 O   0  0  0  0  0  0  0  0  0  0  0  0
  195.0640  168.2650  139.3870 C   0  0  0  0  0  2  0  0  0  0  0  0
  196.3490  170.5320  135.3310 C   0  0  0  0  0  2  0  0  0  0  0  0
  194.9760  171.2130  135.1540 C   0  0  1  0  0  3  0  0  0  0  0  0
  198.8560  169.0920  136.5980 O   0  0  0  0  0  1  0  0  0  0  0  0
  194.2580  169.3170  137.3520 C   0  0  0  0  0  3  0  0  0  0  0  0
  196.9370  170.6940  136.7350 C   0  0  0  0  0  2  0  0  0  0  0  0
  197.6420  169.4520  137.1700 C   0  0  0  0  0  0  0  0  0  0  0  0
  193.8150  170.2470  135.1390 C   0  0  0  0  0  3  0  0  0  0  0  0
  196.4890  167.9760  138.9930 C   0  0  0  0  0  3  0  0  0  0  0  0
  193.4910  169.3960  136.1160 C   0  0  0  0  0  3  0  0  0  0  0  0
  194.1550  168.3020  138.1950 C   0  0  0  0  0  3  0  0  0  0  0  0
  197.1040  168.7060  138.0970 C   0  0  0  0  0  0  0  0  0  0  0  0
  1  2  1  0  0  0  0
  1  3  1  1  0  0  0
  2  6  1  1  0  0  0
  2  3  1  0  0  0  0
  3 19  1  0  0  0  0
  4 29  1  1  0  0  0
  4  1  1  0  0  0  0
  5  2  1  0  0  0  0
  7  5  2  0  0  0  0
  7  4  1  0  0  0  0
  8 13  2  0  0  0  0
  8 11  1  0  0  0  0
  9 10  1  0  0  0  0
 10  5  1  0  0  0  0
 11  9  2  0  0  0  0
 12 10  2  0  0  0  0
 13 12  1  0  0  0  0
 14 11  1  0  0  0  0
 14 15  1  0  0  0  0
 15 17  1  0  0  0  0
 15 18  1  0  0  0  0
 16 15  1  0  0  0  0
 19 20  1  0  0  0  0
 21 22  1  6  0  0  0
 21 24  1  0  0  0  0
 21 23  1  0  0  0  0
 22 26  1  0  0  0  0
 23 25  1  0  0  0  0
 24 27  1  1  0  0  0
 26 20  1  6  0  0  0
 26 24  1  0  0  0  0
 27 28  1  0  0  0  0
 28 25  1  0  0  0  0
 31 34  1  6  0  0  0
 31 32  1  0  0  0  0
 31 30  1  0  0  0  0
 32 29  1  1  0  0  0
 32 30  1  0  0  0  0
 34 33  1  0  0  0  0
 35 34  2  0  0  0  0
 37 41  1  0  0  0  0
 38 37  1  0  0  0  0
 38 33  1  1  0  0  0
 39 42  1  0  0  0  0
 40 46  2  0  0  0  0
 41 42  1  0  0  0  0
 42 47  2  0  0  0  0
 43 38  1  0  0  0  0
 43 45  2  0  0  0  0
 44 36  1  0  0  0  0
 45 40  1  0  0  0  0
 46 36  1  0  0  0  0
 47 44  2  0  0  0  0
M  END
>  <MODEL>
9

>  <REMARK>
 VINA RESULT:      -7.0      4.818      7.303
  Name = 
  10 active torsions:
  status: ('A' for Active; 'I' for Inactive)
    1  A    between atoms: N_3  and  C_5
    2  A    between atoms: C_6  and  C_38
    3  A    between atoms: C_12  and  O_18
    4  A    between atoms: N_16  and  N_24
    5  A    between atoms: N_16  and  N_32
    6  A    between atoms: O_18  and  C_41
    7  A    between atoms: C_21  and  C_26
    8  A    between atoms: C_21  and  C_45
    9  A    between atoms: C_27  and  N_32
   10  A    between atoms: C_29  and  C_39
                            x       y       z     vdW  Elec       q    Type
                         _______ _______ _______ _____ _____    ______ ____

>  <TORSDO>
F 10

$$$$
