=
 OpenBabel10232411023D

 26 27  0  0  1  0  0  0  0  0999 V2000
  186.9390  178.5740  139.3930 N   0  0  0  0  0  2  0  0  0  0  0  0
  186.5660  178.5300  140.7740 C   0  0  0  0  0  0  0  0  0  0  0  0
  188.1370  178.0130  138.8380 C   0  0  0  0  0  0  0  0  0  0  0  0
  185.2850  179.1420  141.2850 C   0  0  0  0  0  2  0  0  0  0  0  0
  184.5560  179.0520  143.7830 C   0  0  0  0  0  3  0  0  0  0  0  0
  186.5920  178.1230  142.9030 C   0  0  0  0  0  0  0  0  0  0  0  0
  187.4750  178.7800  136.5340 C   0  0  0  0  0  1  0  0  0  0  0  0
  188.3960  178.1160  137.4390 N   0  0  0  0  0  2  0  0  0  0  0  0
  187.2950  177.9610  141.6850 N   0  0  0  0  0  0  0  0  0  0  0  0
  184.9400  178.5830  145.0510 C   0  0  0  0  0  3  0  0  0  0  0  0
  185.4200  178.7990  142.7220 C   0  0  0  0  0  0  0  0  0  0  0  0
  186.9650  177.6690  144.1660 C   0  0  0  0  0  0  0  0  0  0  0  0
  186.1190  177.9050  145.2140 N   0  0  0  0  0  0  0  0  0  0  0  0
  188.9740  177.4260  139.5750 O   0  0  0  0  0  0  0  0  0  0  0  0
  188.2280  176.8890  144.3530 C   0  0  1  0  0  3  0  0  0  0  0  0
  188.3480  175.8840  143.3890 O   0  0  0  0  0  1  0  0  0  0  0  0
  189.4550  177.8070  144.3820 C   0  0  2  0  0  3  0  0  0  0  0  0
  190.6230  177.3060  143.5300 C   0  0  0  0  0  2  0  0  0  0  0  0
  191.8140  177.9480  143.8760 O   0  0  0  0  0  1  0  0  0  0  0  0
  189.8950  178.1170  145.8090 C   0  0  0  0  0  2  0  0  0  0  0  0
  189.9360  176.8490  146.6590 C   0  0  1  0  0  3  0  0  0  0  0  0
  192.1200  175.4770  146.5360 C   0  0  0  0  0  1  0  0  0  0  0  0
  191.8070  177.2320  148.0640 O   0  0  0  0  0  0  0  0  0  0  0  0
  191.3220  176.5680  147.1610 C   0  0  0  0  0  0  0  0  0  0  0  0
  188.4640  178.2520  148.1870 C   0  0  0  0  0  1  0  0  0  0  0  0
  188.8950  176.8490  147.7850 C   0  0  0  0  0  2  0  0  0  0  0  0
  1  2  1  0  0  0  0
  2  4  1  0  0  0  0
  2  9  2  0  0  0  0
  3  1  1  0  0  0  0
  3 14  2  0  0  0  0
  4 11  1  0  0  0  0
  5 10  1  0  0  0  0
  6 12  2  0  0  0  0
  7  8  1  0  0  0  0
  8  3  1  0  0  0  0
  9  6  1  0  0  0  0
 10 13  2  0  0  0  0
 11  6  1  0  0  0  0
 11  5  2  0  0  0  0
 12 15  1  0  0  0  0
 12 13  1  0  0  0  0
 15 16  1  6  0  0  0
 15 17  1  0  0  0  0
 17 18  1  6  0  0  0
 17 20  1  0  0  0  0
 18 19  1  0  0  0  0
 21 20  1  1  0  0  0
 21 24  1  0  0  0  0
 21 26  1  0  0  0  0
 22 24  1  0  0  0  0
 24 23  2  0  0  0  0
 26 25  1  0  0  0  0
M  END
>  <MODEL>
1

>  <REMARK>
 VINA RESULT:      -8.2      0.000      0.000
  Name = 
  7 active torsions:
  status: ('A' for Active; 'I' for Inactive)
    1  A    between atoms: C_10  and  C_16
    2  A    between atoms: C_10  and  C_18
    3  A    between atoms: C_11  and  C_16
    4  A    between atoms: C_13  and  C_16
    5  A    between atoms: C_13  and  C_23
    6  A    between atoms: C_17  and  C_18
    7  A    between atoms: C_18  and  C_26
                            x       y       z     vdW  Elec       q    Type
                         _______ _______ _______ _____ _____    ______ ____

>  <TORSDO>
F 7

$$$$
=
 OpenBabel10232411023D

 26 27  0  0  1  0  0  0  0  0999 V2000
  184.2110  178.6180  144.6780 N   0  0  0  0  0  2  0  0  0  0  0  0
  185.4150  178.4350  145.4300 C   0  0  0  0  0  0  0  0  0  0  0  0
  184.1270  178.6910  143.2480 C   0  0  0  0  0  0  0  0  0  0  0  0
  185.4260  178.3660  146.9370 C   0  0  0  0  0  2  0  0  0  0  0  0
  187.5910  178.0000  148.3350 C   0  0  0  0  0  3  0  0  0  0  0  0
  187.5020  178.1460  145.9370 C   0  0  0  0  0  0  0  0  0  0  0  0
  181.6290  178.9840  143.3710 C   0  0  0  0  0  1  0  0  0  0  0  0
  182.8630  178.8700  142.6130 N   0  0  0  0  0  2  0  0  0  0  0  0
  186.5820  178.3120  144.8740 N   0  0  0  0  0  0  0  0  0  0  0  0
  188.9790  177.8070  148.2300 C   0  0  0  0  0  3  0  0  0  0  0  0
  186.8800  178.1680  147.1510 C   0  0  0  0  0  0  0  0  0  0  0  0
  188.8800  177.9600  145.8460 C   0  0  0  0  0  0  0  0  0  0  0  0
  189.5870  177.7860  147.0030 N   0  0  0  0  0  0  0  0  0  0  0  0
  185.1630  178.5990  142.5380 O   0  0  0  0  0  0  0  0  0  0  0  0
  189.5540  177.8910  144.5120 C   0  0  1  0  0  3  0  0  0  0  0  0
  190.5380  178.8760  144.3920 O   0  0  0  0  0  1  0  0  0  0  0  0
  190.1070  176.4880  144.2350 C   0  0  2  0  0  3  0  0  0  0  0  0
  191.6220  176.3740  144.4180 C   0  0  0  0  0  2  0  0  0  0  0  0
  192.0850  175.1140  144.0320 O   0  0  0  0  0  1  0  0  0  0  0  0
  189.6660  175.9650  142.8730 C   0  0  0  0  0  2  0  0  0  0  0  0
  189.6540  177.0840  141.8330 C   0  0  1  0  0  3  0  0  0  0  0  0
  192.0010  177.5530  140.8650 C   0  0  0  0  0  1  0  0  0  0  0  0
  190.4710  176.0990  139.8370 O   0  0  0  0  0  0  0  0  0  0  0  0
  190.6880  176.8560  140.7700 C   0  0  0  0  0  0  0  0  0  0  0  0
  188.1570  178.6890  140.5460 C   0  0  0  0  0  1  0  0  0  0  0  0
  188.2610  177.3420  141.2480 C   0  0  0  0  0  2  0  0  0  0  0  0
  1  2  1  0  0  0  0
  2  4  1  0  0  0  0
  3  1  1  0  0  0  0
  4 11  1  0  0  0  0
  6 11  1  0  0  0  0
  8  3  1  0  0  0  0
  8  7  1  0  0  0  0
  9  2  2  0  0  0  0
  9  6  1  0  0  0  0
 10  5  1  0  0  0  0
 11  5  2  0  0  0  0
 12  6  2  0  0  0  0
 12 13  1  0  0  0  0
 13 10  2  0  0  0  0
 14  3  2  0  0  0  0
 15 16  1  1  0  0  0
 15 12  1  0  0  0  0
 17 20  1  6  0  0  0
 17 18  1  0  0  0  0
 17 15  1  0  0  0  0
 19 18  1  0  0  0  0
 21 26  1  6  0  0  0
 21 20  1  0  0  0  0
 23 24  2  0  0  0  0
 24 22  1  0  0  0  0
 24 21  1  0  0  0  0
 25 26  1  0  0  0  0
M  END
>  <MODEL>
2

>  <REMARK>
 VINA RESULT:      -7.9      2.770      5.303
  Name = 
  7 active torsions:
  status: ('A' for Active; 'I' for Inactive)
    1  A    between atoms: C_10  and  C_16
    2  A    between atoms: C_10  and  C_18
    3  A    between atoms: C_11  and  C_16
    4  A    between atoms: C_13  and  C_16
    5  A    between atoms: C_13  and  C_23
    6  A    between atoms: C_17  and  C_18
    7  A    between atoms: C_18  and  C_26
                            x       y       z     vdW  Elec       q    Type
                         _______ _______ _______ _____ _____    ______ ____

>  <TORSDO>
F 7

$$$$
=
 OpenBabel10232411023D

 26 27  0  0  1  0  0  0  0  0999 V2000
  184.3230  178.5930  144.2760 N   0  0  0  0  0  2  0  0  0  0  0  0
  185.5610  178.2680  144.9170 C   0  0  0  0  0  0  0  0  0  0  0  0
  184.0290  178.3880  142.8870 C   0  0  0  0  0  0  0  0  0  0  0  0
  185.7980  178.5120  146.3870 C   0  0  0  0  0  2  0  0  0  0  0  0
  188.0230  177.9030  147.5950 C   0  0  0  0  0  3  0  0  0  0  0  0
  187.5850  177.5690  145.2550 C   0  0  0  0  0  0  0  0  0  0  0  0
  181.7130  179.3250  143.2000 C   0  0  0  0  0  1  0  0  0  0  0  0
  182.7510  178.7480  142.3650 N   0  0  0  0  0  2  0  0  0  0  0  0
  186.5660  177.7410  144.2870 N   0  0  0  0  0  0  0  0  0  0  0  0
  189.2980  177.3460  147.3930 C   0  0  0  0  0  3  0  0  0  0  0  0
  187.1870  177.9980  146.4870 C   0  0  0  0  0  0  0  0  0  0  0  0
  188.8530  177.0250  145.0650 C   0  0  0  0  0  0  0  0  0  0  0  0
  189.6790  176.9190  146.1490 N   0  0  0  0  0  0  0  0  0  0  0  0
  184.8900  177.8910  142.1130 O   0  0  0  0  0  0  0  0  0  0  0  0
  189.2700  176.5130  143.7230 C   0  0  1  0  0  3  0  0  0  0  0  0
  188.2140  175.8590  143.0820 O   0  0  0  0  0  1  0  0  0  0  0  0
  189.8650  177.6290  142.8570 C   0  0  2  0  0  3  0  0  0  0  0  0
  190.2680  178.8770  143.6450 C   0  0  0  0  0  2  0  0  0  0  0  0
  191.6540  178.9590  143.7890 O   0  0  0  0  0  1  0  0  0  0  0  0
  188.9570  177.9780  141.6820 C   0  0  0  0  0  2  0  0  0  0  0  0
  189.4690  177.3510  140.3870 C   0  0  1  0  0  3  0  0  0  0  0  0
  187.9900  177.1730  138.2780 C   0  0  0  0  0  1  0  0  0  0  0  0
  189.0160  179.1770  138.9440 O   0  0  0  0  0  0  0  0  0  0  0  0
  188.8440  177.9920  139.1830 C   0  0  0  0  0  0  0  0  0  0  0  0
  191.5040  176.6820  139.0160 C   0  0  0  0  0  1  0  0  0  0  0  0
  190.9990  177.3160  140.3040 C   0  0  0  0  0  2  0  0  0  0  0  0
  1  2  1  0  0  0  0
  2  4  1  0  0  0  0
  3  1  1  0  0  0  0
  4 11  1  0  0  0  0
  6 11  1  0  0  0  0
  8  3  1  0  0  0  0
  8  7  1  0  0  0  0
  9  2  2  0  0  0  0
  9  6  1  0  0  0  0
 10  5  1  0  0  0  0
 11  5  2  0  0  0  0
 12  6  2  0  0  0  0
 12 13  1  0  0  0  0
 13 10  2  0  0  0  0
 14  3  2  0  0  0  0
 15 16  1  6  0  0  0
 15 12  1  0  0  0  0
 17 20  1  6  0  0  0
 17 18  1  0  0  0  0
 17 15  1  0  0  0  0
 18 19  1  0  0  0  0
 21 26  1  6  0  0  0
 21 20  1  0  0  0  0
 22 24  1  0  0  0  0
 23 24  2  0  0  0  0
 24 21  1  0  0  0  0
 25 26  1  0  0  0  0
M  END
>  <MODEL>
3

>  <REMARK>
 VINA RESULT:      -7.6      2.513      5.714
  Name = 
  7 active torsions:
  status: ('A' for Active; 'I' for Inactive)
    1  A    between atoms: C_10  and  C_16
    2  A    between atoms: C_10  and  C_18
    3  A    between atoms: C_11  and  C_16
    4  A    between atoms: C_13  and  C_16
    5  A    between atoms: C_13  and  C_23
    6  A    between atoms: C_17  and  C_18
    7  A    between atoms: C_18  and  C_26
                            x       y       z     vdW  Elec       q    Type
                         _______ _______ _______ _____ _____    ______ ____

>  <TORSDO>
F 7

$$$$
=
 OpenBabel10232411023D

 26 27  0  0  1  0  0  0  0  0999 V2000
  185.0760  178.6860  142.7890 N   0  0  0  0  0  2  0  0  0  0  0  0
  186.3080  178.3830  142.1250 C   0  0  0  0  0  0  0  0  0  0  0  0
  184.7850  178.4070  144.1660 C   0  0  0  0  0  0  0  0  0  0  0  0
  186.5430  178.7090  140.6710 C   0  0  0  0  0  2  0  0  0  0  0  0
  188.7800  178.2050  139.4380 C   0  0  0  0  0  3  0  0  0  0  0  0
  188.3260  177.6920  141.7420 C   0  0  0  0  0  0  0  0  0  0  0  0
  182.4890  179.4110  143.9230 C   0  0  0  0  0  1  0  0  0  0  0  0
  183.5190  178.7630  144.7170 N   0  0  0  0  0  2  0  0  0  0  0  0
  187.3100  177.8120  142.7210 N   0  0  0  0  0  0  0  0  0  0  0  0
  190.0660  177.6670  139.6150 C   0  0  0  0  0  3  0  0  0  0  0  0
  187.9300  178.1990  140.5390 C   0  0  0  0  0  0  0  0  0  0  0  0
  189.6010  177.1540  141.9040 C   0  0  0  0  0  0  0  0  0  0  0  0
  190.4470  177.1630  140.8300 N   0  0  0  0  0  0  0  0  0  0  0  0
  185.6390  177.8460  144.9030 O   0  0  0  0  0  0  0  0  0  0  0  0
  190.0480  176.6400  143.2360 C   0  0  1  0  0  3  0  0  0  0  0  0
  191.3920  176.2570  143.2030 O   0  0  0  0  0  1  0  0  0  0  0  0
  189.7670  177.6540  144.3520 C   0  0  2  0  0  3  0  0  0  0  0  0
  190.9790  178.5050  144.7350 C   0  0  0  0  0  2  0  0  0  0  0  0
  191.0100  179.6970  144.0090 O   0  0  0  0  0  1  0  0  0  0  0  0
  189.1400  176.9900  145.5720 C   0  0  0  0  0  2  0  0  0  0  0  0
  189.9410  177.2940  146.8360 C   0  0  1  0  0  3  0  0  0  0  0  0
  187.6200  178.0320  147.6940 C   0  0  0  0  0  1  0  0  0  0  0  0
  189.6090  178.4960  148.8530 O   0  0  0  0  0  0  0  0  0  0  0  0
  189.0990  177.9850  147.8680 C   0  0  0  0  0  0  0  0  0  0  0  0
  192.0920  175.9370  146.8900 C   0  0  0  0  0  1  0  0  0  0  0  0
  190.6620  176.0630  147.3980 C   0  0  0  0  0  2  0  0  0  0  0  0
  1  3  1  0  0  0  0
  2  9  2  0  0  0  0
  2  1  1  0  0  0  0
  3  8  1  0  0  0  0
  3 14  2  0  0  0  0
  4  2  1  0  0  0  0
  5 10  2  0  0  0  0
  5 11  1  0  0  0  0
  6 12  1  0  0  0  0
  6  9  1  0  0  0  0
  7  8  1  0  0  0  0
 10 13  1  0  0  0  0
 11  4  1  0  0  0  0
 11  6  2  0  0  0  0
 12 15  1  0  0  0  0
 13 12  2  0  0  0  0
 15 16  1  6  0  0  0
 15 17  1  0  0  0  0
 17 18  1  1  0  0  0
 17 20  1  0  0  0  0
 19 18  1  0  0  0  0
 21 20  1  6  0  0  0
 21 26  1  0  0  0  0
 21 24  1  0  0  0  0
 22 24  1  0  0  0  0
 24 23  2  0  0  0  0
 25 26  1  0  0  0  0
M  END
>  <MODEL>
4

>  <REMARK>
 VINA RESULT:      -7.6      2.036      4.417
  Name = 
  7 active torsions:
  status: ('A' for Active; 'I' for Inactive)
    1  A    between atoms: C_10  and  C_16
    2  A    between atoms: C_10  and  C_18
    3  A    between atoms: C_11  and  C_16
    4  A    between atoms: C_13  and  C_16
    5  A    between atoms: C_13  and  C_23
    6  A    between atoms: C_17  and  C_18
    7  A    between atoms: C_18  and  C_26
                            x       y       z     vdW  Elec       q    Type
                         _______ _______ _______ _____ _____    ______ ____

>  <TORSDO>
F 7

$$$$
=
 OpenBabel10232411023D

 26 27  0  0  1  0  0  0  0  0999 V2000
  186.7390  178.5430  140.2730 N   0  0  0  0  0  2  0  0  0  0  0  0
  185.7860  178.6460  141.3360 C   0  0  0  0  0  0  0  0  0  0  0  0
  188.1620  178.6410  140.4200 C   0  0  0  0  0  0  0  0  0  0  0  0
  184.3000  178.5310  141.1050 C   0  0  0  0  0  2  0  0  0  0  0  0
  182.5400  178.6790  143.0180 C   0  0  0  0  0  3  0  0  0  0  0  0
  184.9190  178.8800  143.3090 C   0  0  0  0  0  0  0  0  0  0  0  0
  188.4810  178.2860  137.9480 C   0  0  0  0  0  1  0  0  0  0  0  0
  189.0110  178.5150  139.2810 N   0  0  0  0  0  2  0  0  0  0  0  0
  186.1280  178.8430  142.5740 N   0  0  0  0  0  0  0  0  0  0  0  0
  182.3990  178.8480  144.4060 C   0  0  0  0  0  3  0  0  0  0  0  0
  183.8330  178.7010  142.5020 C   0  0  0  0  0  0  0  0  0  0  0  0
  184.7660  179.0530  144.6830 C   0  0  0  0  0  0  0  0  0  0  0  0
  183.5010  179.0250  145.2000 N   0  0  0  0  0  0  0  0  0  0  0  0
  188.6800  178.8400  141.5520 O   0  0  0  0  0  0  0  0  0  0  0  0
  185.9600  179.2030  145.5700 C   0  0  1  0  0  3  0  0  0  0  0  0
  185.5850  179.5810  146.8630 O   0  0  0  0  0  1  0  0  0  0  0  0
  186.8230  177.9350  145.5700 C   0  0  2  0  0  3  0  0  0  0  0  0
  186.9000  177.2390  146.9300 C   0  0  0  0  0  2  0  0  0  0  0  0
  187.7320  177.9350  147.8080 O   0  0  0  0  0  1  0  0  0  0  0  0
  188.2100  178.1960  144.9930 C   0  0  0  0  0  2  0  0  0  0  0  0
  189.0420  176.9160  144.9630 C   0  0  1  0  0  3  0  0  0  0  0  0
  190.2210  175.8970  142.9040 C   0  0  0  0  0  1  0  0  0  0  0  0
  187.8840  175.9610  143.1270 O   0  0  0  0  0  0  0  0  0  0  0  0
  188.9640  176.2420  143.6240 C   0  0  0  0  0  0  0  0  0  0  0  0
  190.7260  176.6460  146.8500 C   0  0  0  0  0  1  0  0  0  0  0  0
  190.4870  177.1300  145.4270 C   0  0  0  0  0  2  0  0  0  0  0  0
  1  3  1  0  0  0  0
  1  2  1  0  0  0  0
  2  9  2  0  0  0  0
  3 14  2  0  0  0  0
  4  2  1  0  0  0  0
  4 11  1  0  0  0  0
  5 10  1  0  0  0  0
  6 12  2  0  0  0  0
  7  8  1  0  0  0  0
  8  3  1  0  0  0  0
  9  6  1  0  0  0  0
 10 13  2  0  0  0  0
 11  5  2  0  0  0  0
 11  6  1  0  0  0  0
 12 13  1  0  0  0  0
 12 15  1  0  0  0  0
 15 16  1  1  0  0  0
 17 20  1  1  0  0  0
 17 15  1  0  0  0  0
 17 18  1  0  0  0  0
 18 19  1  0  0  0  0
 21 20  1  6  0  0  0
 21 26  1  0  0  0  0
 22 24  1  0  0  0  0
 23 24  2  0  0  0  0
 24 21  1  0  0  0  0
 26 25  1  0  0  0  0
M  END
>  <MODEL>
5

>  <REMARK>
 VINA RESULT:      -7.5      2.045      3.209
  Name = 
  7 active torsions:
  status: ('A' for Active; 'I' for Inactive)
    1  A    between atoms: C_10  and  C_16
    2  A    between atoms: C_10  and  C_18
    3  A    between atoms: C_11  and  C_16
    4  A    between atoms: C_13  and  C_16
    5  A    between atoms: C_13  and  C_23
    6  A    between atoms: C_17  and  C_18
    7  A    between atoms: C_18  and  C_26
                            x       y       z     vdW  Elec       q    Type
                         _______ _______ _______ _____ _____    ______ ____

>  <TORSDO>
F 7

$$$$
=
 OpenBabel10232411023D

 26 27  0  0  1  0  0  0  0  0999 V2000
  190.7890  176.7650  147.8520 N   0  0  0  0  0  2  0  0  0  0  0  0
  189.5530  177.2000  147.2760 C   0  0  0  0  0  0  0  0  0  0  0  0
  191.9010  176.2260  147.1230 C   0  0  0  0  0  0  0  0  0  0  0  0
  188.4260  177.7590  148.1080 C   0  0  0  0  0  2  0  0  0  0  0  0
  186.1770  178.5920  147.0940 C   0  0  0  0  0  3  0  0  0  0  0  0
  188.0050  177.6670  145.8340 C   0  0  0  0  0  0  0  0  0  0  0  0
  193.2160  175.9560  149.2520 C   0  0  0  0  0  1  0  0  0  0  0  0
  193.0860  175.8320  147.8110 N   0  0  0  0  0  2  0  0  0  0  0  0
  189.3120  177.1500  146.0010 N   0  0  0  0  0  0  0  0  0  0  0  0
  185.4820  178.7590  145.8840 C   0  0  0  0  0  3  0  0  0  0  0  0
  187.4510  178.0360  147.0250 C   0  0  0  0  0  0  0  0  0  0  0  0
  187.3030  177.8310  144.6410 C   0  0  0  0  0  0  0  0  0  0  0  0
  186.0540  178.3850  144.6970 N   0  0  0  0  0  0  0  0  0  0  0  0
  191.8460  176.0940  145.8710 O   0  0  0  0  0  0  0  0  0  0  0  0
  187.9300  177.4690  143.3320 C   0  0  1  0  0  3  0  0  0  0  0  0
  187.4800  176.2230  142.8850 O   0  0  0  0  0  1  0  0  0  0  0  0
  187.7150  178.5670  142.2840 C   0  0  2  0  0  3  0  0  0  0  0  0
  186.4630  178.3690  141.4270 C   0  0  0  0  0  2  0  0  0  0  0  0
  185.6950  179.5340  141.3750 O   0  0  0  0  0  1  0  0  0  0  0  0
  188.9560  178.7770  141.4230 C   0  0  0  0  0  2  0  0  0  0  0  0
  189.1880  177.5860  140.4950 C   0  0  1  0  0  3  0  0  0  0  0  0
  189.5290  177.0030  138.0030 C   0  0  0  0  0  1  0  0  0  0  0  0
  188.9810  179.1650  138.7380 O   0  0  0  0  0  0  0  0  0  0  0  0
  189.2190  178.0100  139.0560 C   0  0  0  0  0  0  0  0  0  0  0  0
  191.6340  177.6090  141.1920 C   0  0  0  0  0  1  0  0  0  0  0  0
  190.4130  176.7530  140.8860 C   0  0  0  0  0  2  0  0  0  0  0  0
  2  1  1  0  0  0  0
  2  4  1  0  0  0  0
  3  8  1  0  0  0  0
  3  1  1  0  0  0  0
  6  9  1  0  0  0  0
  6 11  2  0  0  0  0
  8  7  1  0  0  0  0
  9  2  2  0  0  0  0
 10  5  2  0  0  0  0
 11  5  1  0  0  0  0
 11  4  1  0  0  0  0
 12 13  2  0  0  0  0
 12  6  1  0  0  0  0
 13 10  1  0  0  0  0
 14  3  2  0  0  0  0
 15 16  1  6  0  0  0
 15 12  1  0  0  0  0
 17 20  1  6  0  0  0
 17 15  1  0  0  0  0
 18 17  1  0  0  0  0
 19 18  1  0  0  0  0
 21 26  1  1  0  0  0
 21 20  1  0  0  0  0
 22 24  1  0  0  0  0
 23 24  2  0  0  0  0
 24 21  1  0  0  0  0
 26 25  1  0  0  0  0
M  END
>  <MODEL>
6

>  <REMARK>
 VINA RESULT:      -7.2      2.673      6.930
  Name = 
  7 active torsions:
  status: ('A' for Active; 'I' for Inactive)
    1  A    between atoms: C_10  and  C_16
    2  A    between atoms: C_10  and  C_18
    3  A    between atoms: C_11  and  C_16
    4  A    between atoms: C_13  and  C_16
    5  A    between atoms: C_13  and  C_23
    6  A    between atoms: C_17  and  C_18
    7  A    between atoms: C_18  and  C_26
                            x       y       z     vdW  Elec       q    Type
                         _______ _______ _______ _____ _____    ______ ____

>  <TORSDO>
F 7

$$$$
=
 OpenBabel10232411023D

 26 27  0  0  1  0  0  0  0  0999 V2000
  185.0190  178.7460  138.5830 N   0  0  0  0  0  2  0  0  0  0  0  0
  186.3720  178.3330  138.7980 C   0  0  0  0  0  0  0  0  0  0  0  0
  184.1370  179.2620  139.5900 C   0  0  0  0  0  0  0  0  0  0  0  0
  187.2420  177.8010  137.6870 C   0  0  0  0  0  2  0  0  0  0  0  0
  189.7180  177.0720  138.0340 C   0  0  0  0  0  3  0  0  0  0  0  0
  188.2660  177.9030  139.7610 C   0  0  0  0  0  0  0  0  0  0  0  0
  182.2980  179.5360  137.8940 C   0  0  0  0  0  1  0  0  0  0  0  0
  182.8070  179.6470  139.2490 N   0  0  0  0  0  2  0  0  0  0  0  0
  186.9510  178.3880  139.9600 N   0  0  0  0  0  0  0  0  0  0  0  0
  190.7330  176.9610  138.9990 C   0  0  0  0  0  3  0  0  0  0  0  0
  188.4840  177.5530  138.4600 C   0  0  0  0  0  0  0  0  0  0  0  0
  189.2790  177.7820  140.7100 C   0  0  0  0  0  0  0  0  0  0  0  0
  190.4970  177.3190  140.3000 N   0  0  0  0  0  0  0  0  0  0  0  0
  184.5240  179.3800  140.7830 O   0  0  0  0  0  0  0  0  0  0  0  0
  189.0520  178.2100  142.1260 C   0  0  1  0  0  3  0  0  0  0  0  0
  187.7030  178.1010  142.4760 O   0  0  0  0  0  1  0  0  0  0  0  0
  189.9600  177.4450  143.0960 C   0  0  2  0  0  3  0  0  0  0  0  0
  189.5730  175.9760  143.2780 C   0  0  0  0  0  2  0  0  0  0  0  0
  190.6410  175.1300  142.9750 O   0  0  0  0  0  1  0  0  0  0  0  0
  190.0870  178.1610  144.4350 C   0  0  0  0  0  2  0  0  0  0  0  0
  189.3780  177.3850  145.5430 C   0  0  1  0  0  3  0  0  0  0  0  0
  191.6380  176.4500  146.3700 C   0  0  0  0  0  1  0  0  0  0  0  0
  190.0050  177.3000  147.8280 O   0  0  0  0  0  0  0  0  0  0  0  0
  190.3130  177.0590  146.6700 C   0  0  0  0  0  0  0  0  0  0  0  0
  186.8580  177.2020  145.8370 C   0  0  0  0  0  1  0  0  0  0  0  0
  188.0940  178.0700  146.0260 C   0  0  0  0  0  2  0  0  0  0  0  0
  1  2  1  0  0  0  0
  1  3  1  0  0  0  0
  2  9  2  0  0  0  0
  3 14  2  0  0  0  0
  4 11  1  0  0  0  0
  4  2  1  0  0  0  0
  5 11  2  0  0  0  0
  5 10  1  0  0  0  0
  6  9  1  0  0  0  0
  6 12  2  0  0  0  0
  7  8  1  0  0  0  0
  8  3  1  0  0  0  0
 10 13  2  0  0  0  0
 11  6  1  0  0  0  0
 12 15  1  0  0  0  0
 13 12  1  0  0  0  0
 15 16  1  1  0  0  0
 15 17  1  0  0  0  0
 17 18  1  1  0  0  0
 17 20  1  0  0  0  0
 19 18  1  0  0  0  0
 21 20  1  6  0  0  0
 21 26  1  0  0  0  0
 21 24  1  0  0  0  0
 22 24  1  0  0  0  0
 24 23  2  0  0  0  0
 25 26  1  0  0  0  0
M  END
>  <MODEL>
7

>  <REMARK>
 VINA RESULT:      -7.1      2.336      4.074
  Name = 
  7 active torsions:
  status: ('A' for Active; 'I' for Inactive)
    1  A    between atoms: C_10  and  C_16
    2  A    between atoms: C_10  and  C_18
    3  A    between atoms: C_11  and  C_16
    4  A    between atoms: C_13  and  C_16
    5  A    between atoms: C_13  and  C_23
    6  A    between atoms: C_17  and  C_18
    7  A    between atoms: C_18  and  C_26
                            x       y       z     vdW  Elec       q    Type
                         _______ _______ _______ _____ _____    ______ ____

>  <TORSDO>
F 7

$$$$
=
 OpenBabel10232411023D

 26 27  0  0  1  0  0  0  0  0999 V2000
  192.3010  176.2690  137.1620 N   0  0  0  0  0  2  0  0  0  0  0  0
  191.3180  176.7380  138.0920 C   0  0  0  0  0  0  0  0  0  0  0  0
  193.5870  175.7380  137.5110 C   0  0  0  0  0  0  0  0  0  0  0  0
  189.9830  177.2840  137.6500 C   0  0  0  0  0  2  0  0  0  0  0  0
  188.1590  178.1140  139.3120 C   0  0  0  0  0  3  0  0  0  0  0  0
  190.3160  177.2580  139.9410 C   0  0  0  0  0  0  0  0  0  0  0  0
  194.1320  175.3610  135.0820 C   0  0  0  0  0  1  0  0  0  0  0  0
  194.4800  175.2950  136.4900 N   0  0  0  0  0  2  0  0  0  0  0  0
  191.5000  176.7270  139.3770 N   0  0  0  0  0  0  0  0  0  0  0  0
  187.8730  178.2820  140.6780 C   0  0  0  0  0  3  0  0  0  0  0  0
  189.4060  177.5930  138.9810 C   0  0  0  0  0  0  0  0  0  0  0  0
  190.0240  177.4360  141.2920 C   0  0  0  0  0  0  0  0  0  0  0  0
  188.7980  177.9390  141.6280 N   0  0  0  0  0  0  0  0  0  0  0  0
  193.9440  175.6560  138.7160 O   0  0  0  0  0  0  0  0  0  0  0  0
  191.0050  177.0250  142.3440 C   0  0  1  0  0  3  0  0  0  0  0  0
  192.3170  177.2890  141.9410 O   0  0  0  0  0  1  0  0  0  0  0  0
  190.6800  177.6690  143.6970 C   0  0  2  0  0  3  0  0  0  0  0  0
  191.6090  178.8250  144.0720 C   0  0  0  0  0  2  0  0  0  0  0  0
  190.9220  180.0400  144.0970 O   0  0  0  0  0  1  0  0  0  0  0  0
  190.5970  176.6320  144.8110 C   0  0  0  0  0  2  0  0  0  0  0  0
  189.4010  176.8970  145.7220 C   0  0  1  0  0  3  0  0  0  0  0  0
  188.8990  177.9870  148.0080 C   0  0  0  0  0  1  0  0  0  0  0  0
  190.9450  176.9440  147.5210 O   0  0  0  0  0  0  0  0  0  0  0  0
  189.8370  177.2560  147.1120 C   0  0  0  0  0  0  0  0  0  0  0  0
  187.0820  177.2930  144.7540 C   0  0  0  0  0  1  0  0  0  0  0  0
  188.4170  177.9160  145.1360 C   0  0  0  0  0  2  0  0  0  0  0  0
  1  3  1  0  0  0  0
  1  2  1  0  0  0  0
  2  9  2  0  0  0  0
  3 14  2  0  0  0  0
  4  2  1  0  0  0  0
  4 11  1  0  0  0  0
  5 10  1  0  0  0  0
  6 12  2  0  0  0  0
  7  8  1  0  0  0  0
  8  3  1  0  0  0  0
  9  6  1  0  0  0  0
 10 13  2  0  0  0  0
 11  5  2  0  0  0  0
 11  6  1  0  0  0  0
 12 13  1  0  0  0  0
 12 15  1  0  0  0  0
 15 16  1  6  0  0  0
 15 17  1  0  0  0  0
 17 18  1  1  0  0  0
 17 20  1  0  0  0  0
 18 19  1  0  0  0  0
 21 20  1  6  0  0  0
 21 24  1  0  0  0  0
 24 23  2  0  0  0  0
 24 22  1  0  0  0  0
 25 26  1  0  0  0  0
 26 21  1  0  0  0  0
M  END
>  <MODEL>
8

>  <REMARK>
 VINA RESULT:      -7.0      3.163      4.605
  Name = 
  7 active torsions:
  status: ('A' for Active; 'I' for Inactive)
    1  A    between atoms: C_10  and  C_16
    2  A    between atoms: C_10  and  C_18
    3  A    between atoms: C_11  and  C_16
    4  A    between atoms: C_13  and  C_16
    5  A    between atoms: C_13  and  C_23
    6  A    between atoms: C_17  and  C_18
    7  A    between atoms: C_18  and  C_26
                            x       y       z     vdW  Elec       q    Type
                         _______ _______ _______ _____ _____    ______ ____

>  <TORSDO>
F 7

$$$$
=
 OpenBabel10232411023D

 26 27  0  0  1  0  0  0  0  0999 V2000
  186.1830  178.7890  139.8050 N   0  0  0  0  0  2  0  0  0  0  0  0
  187.5320  178.3630  140.0210 C   0  0  0  0  0  0  0  0  0  0  0  0
  185.1420  178.7850  140.7920 C   0  0  0  0  0  0  0  0  0  0  0  0
  188.5750  178.3980  138.9310 C   0  0  0  0  0  2  0  0  0  0  0  0
  191.0470  177.6650  139.2960 C   0  0  0  0  0  3  0  0  0  0  0  0
  189.3270  177.6130  140.9760 C   0  0  0  0  0  0  0  0  0  0  0  0
  183.5040  179.7190  139.1250 C   0  0  0  0  0  1  0  0  0  0  0  0
  183.8330  179.2400  140.4560 N   0  0  0  0  0  2  0  0  0  0  0  0
  187.9590  177.9220  141.1650 N   0  0  0  0  0  0  0  0  0  0  0  0
  191.9440  177.1730  140.2590 C   0  0  0  0  0  3  0  0  0  0  0  0
  189.7320  177.8740  139.6990 C   0  0  0  0  0  0  0  0  0  0  0  0
  190.2240  177.1190  141.9200 C   0  0  0  0  0  0  0  0  0  0  0  0
  191.5210  176.9180  141.5360 N   0  0  0  0  0  0  0  0  0  0  0  0
  185.3690  178.3800  141.9640 O   0  0  0  0  0  0  0  0  0  0  0  0
  189.7900  176.8760  143.3310 C   0  0  1  0  0  3  0  0  0  0  0  0
  190.5750  175.8920  143.9390 O   0  0  0  0  0  1  0  0  0  0  0  0
  189.7690  178.1770  144.1430 C   0  0  2  0  0  3  0  0  0  0  0  0
  190.8600  179.1730  143.7450 C   0  0  0  0  0  2  0  0  0  0  0  0
  192.0590  178.9000  144.4050 O   0  0  0  0  0  1  0  0  0  0  0  0
  189.7770  177.9060  145.6430 C   0  0  0  0  0  2  0  0  0  0  0  0
  188.3740  177.5780  146.1500 C   0  0  1  0  0  3  0  0  0  0  0  0
  189.4020  178.0380  148.4730 C   0  0  0  0  0  1  0  0  0  0  0  0
  187.1020  178.2340  148.0400 O   0  0  0  0  0  0  0  0  0  0  0  0
  188.2050  177.9660  147.5890 C   0  0  0  0  0  0  0  0  0  0  0  0
  186.3550  177.0700  144.6890 C   0  0  0  0  0  1  0  0  0  0  0  0
  187.2670  178.1480  145.2560 C   0  0  0  0  0  2  0  0  0  0  0  0
  1  2  1  0  0  0  0
  1  3  1  0  0  0  0
  2  9  2  0  0  0  0
  3 14  2  0  0  0  0
  4 11  1  0  0  0  0
  4  2  1  0  0  0  0
  5 11  2  0  0  0  0
  5 10  1  0  0  0  0
  6  9  1  0  0  0  0
  6 12  2  0  0  0  0
  7  8  1  0  0  0  0
  8  3  1  0  0  0  0
 10 13  2  0  0  0  0
 11  6  1  0  0  0  0
 12 15  1  0  0  0  0
 13 12  1  0  0  0  0
 15 16  1  1  0  0  0
 15 17  1  0  0  0  0
 17 18  1  6  0  0  0
 17 20  1  0  0  0  0
 18 19  1  0  0  0  0
 20 21  1  0  0  0  0
 21 26  1  6  0  0  0
 21 24  1  0  0  0  0
 24 23  2  0  0  0  0
 24 22  1  0  0  0  0
 25 26  1  0  0  0  0
M  END
>  <MODEL>
9

>  <REMARK>
 VINA RESULT:      -6.8      2.271      4.133
  Name = 
  7 active torsions:
  status: ('A' for Active; 'I' for Inactive)
    1  A    between atoms: C_10  and  C_16
    2  A    between atoms: C_10  and  C_18
    3  A    between atoms: C_11  and  C_16
    4  A    between atoms: C_13  and  C_16
    5  A    between atoms: C_13  and  C_23
    6  A    between atoms: C_17  and  C_18
    7  A    between atoms: C_18  and  C_26
                            x       y       z     vdW  Elec       q    Type
                         _______ _______ _______ _____ _____    ______ ____

>  <TORSDO>
F 7

$$$$
