=
 OpenBabel10232408443D

 55 61  0  0  1  0  0  0  0  0999 V2000
  184.8630  179.0470  142.3200 C   0  0  0  0  0  3  0  0  0  0  0  0
  182.5270  178.7560  141.7110 C   0  0  0  0  0  0  0  0  0  0  0  0
  185.2110  179.1320  140.9710 C   0  0  0  0  0  3  0  0  0  0  0  0
  184.2230  179.0300  139.9880 C   0  0  0  0  0  0  0  0  0  0  0  0
  183.5310  178.8510  142.6980 C   0  0  0  0  0  0  0  0  0  0  0  0
  182.8870  178.8550  140.3570 C   0  0  0  0  0  3  0  0  0  0  0  0
  181.0870  178.5800  142.0960 C   0  0  2  0  0  3  0  0  0  0  0  0
  180.4150  177.4930  141.2720 C   0  0  0  0  0  1  0  0  0  0  0  0
  180.2230  180.6130  142.9320 O   0  0  0  0  0  0  0  0  0  0  0  0
  180.3480  179.8750  141.9690 C   0  0  0  0  0  3  0  0  0  0  0  0
  184.5840  179.1300  138.5460 C   0  0  0  0  0  2  0  0  0  0  0  0
  187.8780  174.0260  136.0820 C   0  0  0  0  0  3  0  0  0  0  0  0
  190.1030  176.4120  137.8420 C   0  0  0  0  0  0  0  0  0  0  0  0
  186.5190  173.8580  135.7800 C   0  0  0  0  0  0  0  0  0  0  0  0
  189.6640  175.3010  137.1030 C   0  0  0  0  0  3  0  0  0  0  0  0
  183.8000  176.7870  137.1890 O   0  0  0  0  0  0  0  0  0  0  0  0
  187.3720  176.0970  137.2530 C   0  0  0  0  0  0  0  0  0  0  0  0
  185.5910  174.8100  136.2210 C   0  0  0  0  0  3  0  0  0  0  0  0
  188.3080  175.1370  136.8100 C   0  0  0  0  0  0  0  0  0  0  0  0
  187.8140  177.2130  137.9860 C   0  0  0  0  0  0  0  0  0  0  0  0
  189.1720  177.3610  138.2790 C   0  0  0  0  0  3  0  0  0  0  0  0
  185.0300  176.9260  137.4300 C   0  0  0  0  0  0  0  0  0  0  0  0
  186.0060  175.9270  136.9590 C   0  0  0  0  0  0  0  0  0  0  0  0
  185.5030  178.0640  138.1670 N   0  0  0  0  0  0  0  0  0  0  0  0
  186.8790  178.2040  138.4240 N   0  0  0  0  0  2  0  0  0  0  0  0
  186.8660  171.7590  134.7340 O   0  0  0  0  0  1  0  0  0  0  0  0
  186.0640  172.6890  135.0120 C   0  0  0  0  0  0  0  0  0  0  0  0
  184.7400  172.5970  134.5930 O   0  0  0  0  0  0  0  0  0  0  0  0
  191.4520  176.5900  138.1610 O   0  0  0  0  0  0  0  0  0  0  0  0
  192.5000  176.3010  137.2470 C   0  0  0  0  0  2  0  0  0  0  0  0
  193.2850  175.1000  137.7410 C   0  0  0  0  0  2  0  0  0  0  0  0
  194.4110  175.5230  138.4520 O   0  0  0  0  0  0  0  0  0  0  0  0
  195.4680  174.9760  137.8010 N   0  0  0  0  0  0  0  0  0  0  0  0
  197.7140  174.2200  138.2600 C   0  0  0  0  0  1  0  0  0  0  0  0
  196.3110  174.3820  138.8080 C   0  0  2  0  0  3  0  0  0  0  0  0
  195.4520  173.6190  138.0810 O   0  0  0  0  0  0  0  0  0  0  0  0
  183.2040  178.7960  144.1530 C   0  0  0  0  0  2  0  0  0  0  0  0
  184.3000  179.2980  144.9060 O   0  0  0  0  0  0  0  0  0  0  0  0
  184.9580  178.5450  145.8850 C   0  0  0  0  0  0  0  0  0  0  0  0
  184.4160  178.4220  147.0150 O   0  0  0  0  0  0  0  0  0  0  0  0
  186.2820  177.9310  145.6560 C   0  0  0  0  0  0  0  0  0  0  0  0
  186.9380  177.5110  146.6450 O   0  0  0  0  0  0  0  0  0  0  0  0
  186.8250  177.7770  144.3760 O   0  0  0  0  0  0  0  0  0  0  0  0
  187.6230  176.6610  143.9910 C   0  0  0  0  0  2  0  0  0  0  0  0
  188.6350  177.0470  142.9040 C   0  0  2  0  0  0  0  0  0  0  0  0
  189.5830  178.1770  143.3070 C   0  0  2  0  0  3  0  0  0  0  0  0
  191.5160  176.2560  144.1120 C   0  0  0  0  0  2  0  0  0  0  0  0
  187.9620  177.4160  141.7390 O   0  0  0  0  0  1  0  0  0  0  0  0
  192.2880  178.2860  145.0750 F   0  0  0  0  0  0  0  0  0  0  0  0
  191.2350  177.3890  145.1170 C   0  0  2  0  0  0  0  0  0  0  0  0
  191.1540  176.8030  146.5110 C   0  0  0  0  0  1  0  0  0  0  0  0
  190.7610  177.9460  142.5710 O   0  0  0  0  0  0  0  0  0  0  0  0
  190.9540  176.5580  142.7090 C   0  0  2  0  0  3  0  0  0  0  0  0
  189.5820  175.9130  142.5950 C   0  0  0  0  0  2  0  0  0  0  0  0
  189.9300  178.1510  144.8160 C   0  0  0  0  0  2  0  0  0  0  0  0
  1  5  1  0  0  0  0
  2  7  1  0  0  0  0
  2  5  2  0  0  0  0
  3  1  2  0  0  0  0
  4  6  2  0  0  0  0
  4  3  1  0  0  0  0
  5 37  1  0  0  0  0
  6  2  1  0  0  0  0
  7  8  1  6  0  0  0
 10  7  1  0  0  0  0
 10  9  2  0  0  0  0
 11  4  1  0  0  0  0
 12 19  1  0  0  0  0
 13 29  1  0  0  0  0
 13 21  1  0  0  0  0
 14 12  2  0  0  0  0
 14 18  1  0  0  0  0
 15 13  2  0  0  0  0
 16 22  2  0  0  0  0
 17 20  1  0  0  0  0
 18 23  2  0  0  0  0
 19 15  1  0  0  0  0
 19 17  2  0  0  0  0
 20 21  2  0  0  0  0
 20 25  1  0  0  0  0
 22 24  1  0  0  0  0
 23 17  1  0  0  0  0
 23 22  1  0  0  0  0
 24 25  1  0  0  0  0
 24 11  1  0  0  0  0
 26 27  1  0  0  0  0
 27 14  1  0  0  0  0
 28 27  2  0  0  0  0
 30 31  1  0  0  0  0
 30 29  1  0  0  0  0
 31 32  1  0  0  0  0
 33 36  1  0  0  0  0
 33 32  1  0  0  0  0
 33 35  1  0  0  0  0
 35 34  1  6  0  0  0
 36 35  1  0  0  0  0
 37 38  1  0  0  0  0
 38 39  1  0  0  0  0
 39 40  2  0  0  0  0
 41 39  1  0  0  0  0
 41 42  2  0  0  0  0
 43 41  1  0  0  0  0
 44 43  1  0  0  0  0
 45 48  1  6  0  0  0
 45 46  1  0  0  0  0
 45 44  1  0  0  0  0
 46 55  1  1  0  0  0
 47 50  1  0  0  0  0
 49 50  1  0  0  0  0
 50 51  1  1  0  0  0
 52 53  1  0  0  0  0
 52 46  1  0  0  0  0
 53 54  1  1  0  0  0
 53 47  1  0  0  0  0
 54 45  1  0  0  0  0
 55 50  1  0  0  0  0
M  END
>  <MODEL>
1

>  <REMARK>
 VINA RESULT:      -8.8      0.000      0.000
  Name = 
  17 active torsions:
  status: ('A' for Active; 'I' for Inactive)
    1  A    between atoms: C_2  and  C_8
    2  A    between atoms: C_2  and  O_48
    3  A    between atoms: O_3  and  C_4
    4  A    between atoms: O_3  and  C_8
    5  A    between atoms: C_4  and  C_7
    6  A    between atoms: C_5  and  C_16
    7  A    between atoms: C_5  and  C_47
    8  A    between atoms: C_6  and  C_22
    9  A    between atoms: C_6  and  N_52
   10  A    between atoms: N_10  and  O_28
   11  A    between atoms: C_11  and  O_36
   12  A    between atoms: C_12  and  C_39
   13  A    between atoms: O_28  and  C_34
   14  A    between atoms: C_34  and  C_44
   15  A    between atoms: O_36  and  C_44
   16  A    between atoms: C_43  and  O_48
   17  A    between atoms: C_43  and  C_49
                            x       y       z     vdW  Elec       q    Type
                         _______ _______ _______ _____ _____    ______ ____

>  <TORSDO>
F 17

$$$$
=
 OpenBabel10232408443D

 55 61  0  0  1  0  0  0  0  0999 V2000
  185.0250  179.0360  142.4000 C   0  0  0  0  0  3  0  0  0  0  0  0
  182.6330  178.7600  142.0570 C   0  0  0  0  0  0  0  0  0  0  0  0
  185.2200  179.1230  141.0200 C   0  0  0  0  0  3  0  0  0  0  0  0
  184.1270  179.0290  140.1550 C   0  0  0  0  0  0  0  0  0  0  0  0
  183.7430  178.8460  142.9250 C   0  0  0  0  0  0  0  0  0  0  0  0
  182.8400  178.8600  140.6720 C   0  0  0  0  0  3  0  0  0  0  0  0
  181.2450  178.5900  142.6010 C   0  0  2  0  0  3  0  0  0  0  0  0
  180.3410  177.8670  141.6150 C   0  0  0  0  0  1  0  0  0  0  0  0
  180.0100  180.5570  142.1730 O   0  0  0  0  0  0  0  0  0  0  0  0
  180.6650  179.9170  142.9780 C   0  0  0  0  0  3  0  0  0  0  0  0
  184.3250  179.1320  138.6810 C   0  0  0  0  0  2  0  0  0  0  0  0
  187.1480  173.8190  136.0790 C   0  0  0  0  0  3  0  0  0  0  0  0
  189.5940  176.5250  136.7360 C   0  0  0  0  0  0  0  0  0  0  0  0
  185.7780  173.5590  136.2280 C   0  0  0  0  0  0  0  0  0  0  0  0
  189.0480  175.2980  136.3270 C   0  0  0  0  0  3  0  0  0  0  0  0
  183.3660  176.5780  137.9660 O   0  0  0  0  0  0  0  0  0  0  0  0
  186.8440  176.0290  137.0470 C   0  0  0  0  0  0  0  0  0  0  0  0
  184.9470  174.5360  136.7900 C   0  0  0  0  0  3  0  0  0  0  0  0
  187.6830  175.0440  136.4820 C   0  0  0  0  0  0  0  0  0  0  0  0
  187.3910  177.2610  137.4490 C   0  0  0  0  0  0  0  0  0  0  0  0
  188.7590  177.5000  137.2950 C   0  0  0  0  0  3  0  0  0  0  0  0
  184.5980  176.7960  137.8030 C   0  0  0  0  0  0  0  0  0  0  0  0
  185.4690  175.7690  137.2050 C   0  0  0  0  0  0  0  0  0  0  0  0
  185.1740  178.0500  138.1970 N   0  0  0  0  0  0  0  0  0  0  0  0
  186.5490  178.2760  138.0050 N   0  0  0  0  0  2  0  0  0  0  0  0
  183.9750  172.0580  135.8860 O   0  0  0  0  0  1  0  0  0  0  0  0
  185.2130  172.2690  135.8040 C   0  0  0  0  0  0  0  0  0  0  0  0
  186.0430  171.2720  135.2980 O   0  0  0  0  0  0  0  0  0  0  0  0
  190.9580  176.7980  136.6060 O   0  0  0  0  0  0  0  0  0  0  0  0
  191.9640  175.8900  137.0330 C   0  0  0  0  0  2  0  0  0  0  0  0
  193.1760  176.0160  136.1290 C   0  0  0  0  0  2  0  0  0  0  0  0
  194.3470  176.0080  136.8920 O   0  0  0  0  0  0  0  0  0  0  0  0
  194.1810  175.0010  137.7860 N   0  0  0  0  0  0  0  0  0  0  0  0
  195.3180  173.0070  138.5340 C   0  0  0  0  0  1  0  0  0  0  0  0
  195.4800  174.4120  137.9890 C   0  0  2  0  0  3  0  0  0  0  0  0
  194.9750  175.3040  138.8810 O   0  0  0  0  0  0  0  0  0  0  0  0
  183.5810  178.7890  144.4080 C   0  0  0  0  0  2  0  0  0  0  0  0
  184.7850  179.2130  145.0330 O   0  0  0  0  0  0  0  0  0  0  0  0
  185.2790  178.6280  146.2050 C   0  0  0  0  0  0  0  0  0  0  0  0
  184.4840  178.4300  147.1610 O   0  0  0  0  0  0  0  0  0  0  0  0
  186.7040  178.2780  146.3760 C   0  0  0  0  0  0  0  0  0  0  0  0
  187.1630  178.1450  147.5400 O   0  0  0  0  0  0  0  0  0  0  0  0
  187.5590  178.0670  145.2900 O   0  0  0  0  0  0  0  0  0  0  0  0
  188.2910  176.8610  145.0890 C   0  0  0  0  0  2  0  0  0  0  0  0
  189.8030  177.1080  145.1520 C   0  0  2  0  0  0  0  0  0  0  0  0
  190.6090  176.3190  144.1190 C   0  0  2  0  0  3  0  0  0  0  0  0
  190.5400  178.5560  142.3690 C   0  0  0  0  0  2  0  0  0  0  0  0
  190.2810  176.8030  146.4260 O   0  0  0  0  0  1  0  0  0  0  0  0
  191.2350  176.7600  140.9780 F   0  0  0  0  0  0  0  0  0  0  0  0
  190.1670  177.2000  141.7410 C   0  0  2  0  0  0  0  0  0  0  0  0
  188.9690  177.3890  140.8340 C   0  0  0  0  0  1  0  0  0  0  0  0
  191.7480  177.1050  143.8650 O   0  0  0  0  0  0  0  0  0  0  0  0
  191.2170  178.4050  143.7450 C   0  0  2  0  0  3  0  0  0  0  0  0
  190.1500  178.5390  144.8190 C   0  0  0  0  0  2  0  0  0  0  0  0
  189.8380  176.1210  142.7900 C   0  0  0  0  0  2  0  0  0  0  0  0
  1  5  1  0  0  0  0
  2  7  1  0  0  0  0
  2  5  2  0  0  0  0
  3  1  2  0  0  0  0
  4  6  2  0  0  0  0
  4  3  1  0  0  0  0
  5 37  1  0  0  0  0
  6  2  1  0  0  0  0
  7  8  1  6  0  0  0
  7 10  1  0  0  0  0
  9 10  2  0  0  0  0
 11  4  1  0  0  0  0
 12 14  2  0  0  0  0
 12 19  1  0  0  0  0
 13 21  1  0  0  0  0
 14 18  1  0  0  0  0
 15 19  1  0  0  0  0
 15 13  2  0  0  0  0
 17 23  1  0  0  0  0
 17 20  1  0  0  0  0
 18 23  2  0  0  0  0
 19 17  2  0  0  0  0
 20 25  1  0  0  0  0
 21 20  2  0  0  0  0
 22 16  2  0  0  0  0
 22 24  1  0  0  0  0
 23 22  1  0  0  0  0
 24 11  1  0  0  0  0
 25 24  1  0  0  0  0
 27 26  1  0  0  0  0
 27 14  1  0  0  0  0
 28 27  2  0  0  0  0
 29 13  1  0  0  0  0
 29 30  1  0  0  0  0
 31 32  1  0  0  0  0
 31 30  1  0  0  0  0
 32 33  1  0  0  0  0
 33 35  1  0  0  0  0
 33 36  1  0  0  0  0
 35 34  1  1  0  0  0
 35 36  1  0  0  0  0
 37 38  1  0  0  0  0
 38 39  1  0  0  0  0
 39 41  1  0  0  0  0
 39 40  2  0  0  0  0
 41 42  2  0  0  0  0
 43 41  1  0  0  0  0
 44 45  1  0  0  0  0
 44 43  1  0  0  0  0
 45 48  1  1  0  0  0
 46 55  1  6  0  0  0
 46 45  1  0  0  0  0
 49 50  1  0  0  0  0
 50 51  1  6  0  0  0
 50 47  1  0  0  0  0
 50 55  1  0  0  0  0
 52 46  1  0  0  0  0
 53 47  1  6  0  0  0
 53 52  1  0  0  0  0
 53 54  1  0  0  0  0
 54 45  1  0  0  0  0
M  END
>  <MODEL>
2

>  <REMARK>
 VINA RESULT:      -8.6      1.285      1.923
  Name = 
  17 active torsions:
  status: ('A' for Active; 'I' for Inactive)
    1  A    between atoms: C_2  and  C_8
    2  A    between atoms: C_2  and  O_48
    3  A    between atoms: O_3  and  C_4
    4  A    between atoms: O_3  and  C_8
    5  A    between atoms: C_4  and  C_7
    6  A    between atoms: C_5  and  C_16
    7  A    between atoms: C_5  and  C_47
    8  A    between atoms: C_6  and  C_22
    9  A    between atoms: C_6  and  N_52
   10  A    between atoms: N_10  and  O_28
   11  A    between atoms: C_11  and  O_36
   12  A    between atoms: C_12  and  C_39
   13  A    between atoms: O_28  and  C_34
   14  A    between atoms: C_34  and  C_44
   15  A    between atoms: O_36  and  C_44
   16  A    between atoms: C_43  and  O_48
   17  A    between atoms: C_43  and  C_49
                            x       y       z     vdW  Elec       q    Type
                         _______ _______ _______ _____ _____    ______ ____

>  <TORSDO>
F 17

$$$$
=
 OpenBabel10232408443D

 55 61  0  0  1  0  0  0  0  0999 V2000
  190.0140  175.3110  137.2280 C   0  0  0  0  0  3  0  0  0  0  0  0
  187.7020  174.9460  136.5660 C   0  0  0  0  0  0  0  0  0  0  0  0
  189.6740  176.5620  137.7460 C   0  0  0  0  0  3  0  0  0  0  0  0
  188.3540  177.0110  137.6770 C   0  0  0  0  0  0  0  0  0  0  0  0
  189.0410  174.5030  136.6310 C   0  0  0  0  0  0  0  0  0  0  0  0
  187.3700  176.2020  137.1000 C   0  0  0  0  0  3  0  0  0  0  0  0
  186.6360  174.0810  135.9600 C   0  0  2  0  0  3  0  0  0  0  0  0
  185.8170  174.8400  134.9280 C   0  0  0  0  0  1  0  0  0  0  0  0
  186.2210  172.8320  137.9210 O   0  0  0  0  0  0  0  0  0  0  0  0
  185.7520  173.5150  137.0260 C   0  0  0  0  0  3  0  0  0  0  0  0
  187.9810  178.3410  138.2370 C   0  0  0  0  0  2  0  0  0  0  0  0
  185.8070  177.9930  144.4110 C   0  0  0  0  0  3  0  0  0  0  0  0
  189.2960  176.7850  144.0840 C   0  0  0  0  0  0  0  0  0  0  0  0
  184.7840  178.5270  143.6160 C   0  0  0  0  0  0  0  0  0  0  0  0
  188.0520  177.1200  144.6440 C   0  0  0  0  0  3  0  0  0  0  0  0
  185.5800  179.1160  139.4960 O   0  0  0  0  0  0  0  0  0  0  0  0
  187.2620  177.8580  142.4670 C   0  0  0  0  0  0  0  0  0  0  0  0
  185.0060  178.7280  142.2480 C   0  0  0  0  0  3  0  0  0  0  0  0
  187.0390  177.6560  143.8460 C   0  0  0  0  0  0  0  0  0  0  0  0
  188.5050  177.5140  141.9060 C   0  0  0  0  0  0  0  0  0  0  0  0
  189.5130  176.9850  142.7160 C   0  0  0  0  0  3  0  0  0  0  0  0
  186.4780  178.6180  140.2280 C   0  0  0  0  0  0  0  0  0  0  0  0
  186.2390  178.4010  141.6660 C   0  0  0  0  0  0  0  0  0  0  0  0
  187.7500  178.2510  139.6740 N   0  0  0  0  0  0  0  0  0  0  0  0
  188.7380  177.6940  140.5050 N   0  0  0  0  0  2  0  0  0  0  0  0
  182.4580  178.9700  143.4880 O   0  0  0  0  0  0  0  0  0  0  0  0
  183.4860  178.8820  144.2090 C   0  0  0  0  0  0  0  0  0  0  0  0
  183.3810  179.1160  145.5770 O   0  0  0  0  0  1  0  0  0  0  0  0
  190.3310  176.2620  144.8630 O   0  0  0  0  0  0  0  0  0  0  0  0
  191.3880  177.0640  145.3710 C   0  0  0  0  0  2  0  0  0  0  0  0
  191.4580  176.9130  146.8790 C   0  0  0  0  0  2  0  0  0  0  0  0
  190.1990  176.5790  147.3860 O   0  0  0  0  0  0  0  0  0  0  0  0
  189.5450  177.7600  147.5180 N   0  0  0  0  0  0  0  0  0  0  0  0
  187.3260  178.5840  147.9940 C   0  0  0  0  0  1  0  0  0  0  0  0
  188.3340  177.4820  148.2480 C   0  0  2  0  0  3  0  0  0  0  0  0
  189.4210  177.9990  148.8780 O   0  0  0  0  0  0  0  0  0  0  0  0
  189.4450  173.1610  136.1190 C   0  0  0  0  0  2  0  0  0  0  0  0
  190.7090  173.2590  135.4760 O   0  0  0  0  0  0  0  0  0  0  0  0
  191.5410  172.1550  135.2640 C   0  0  0  0  0  0  0  0  0  0  0  0
  191.0340  171.0970  134.8070 O   0  0  0  0  0  0  0  0  0  0  0  0
  192.9800  172.1700  135.6010 C   0  0  0  0  0  0  0  0  0  0  0  0
  193.4880  171.1580  136.1500 O   0  0  0  0  0  0  0  0  0  0  0  0
  193.8050  173.2610  135.3120 O   0  0  0  0  0  0  0  0  0  0  0  0
  195.2280  173.2010  135.3460 C   0  0  0  0  0  2  0  0  0  0  0  0
  195.8400  174.5790  135.6260 C   0  0  2  0  0  0  0  0  0  0  0  0
  196.6030  174.6670  136.9480 C   0  0  2  0  0  3  0  0  0  0  0  0
  199.0280  174.1160  135.5750 C   0  0  0  0  0  2  0  0  0  0  0  0
  194.8410  175.5520  135.6170 O   0  0  0  0  0  1  0  0  0  0  0  0
  199.5760  173.7840  137.8620 F   0  0  0  0  0  0  0  0  0  0  0  0
  198.7740  173.2880  136.8480 C   0  0  2  0  0  0  0  0  0  0  0  0
  199.1610  171.8470  136.5860 C   0  0  0  0  0  1  0  0  0  0  0  0
  197.5850  175.6530  136.7400 O   0  0  0  0  0  0  0  0  0  0  0  0
  198.0900  175.3330  135.4640 C   0  0  2  0  0  3  0  0  0  0  0  0
  196.8960  174.9390  134.6090 C   0  0  0  0  0  2  0  0  0  0  0  0
  197.3080  173.3370  137.3160 C   0  0  0  0  0  2  0  0  0  0  0  0
  1  3  1  0  0  0  0
  2  5  1  0  0  0  0
  2  6  2  0  0  0  0
  4  3  2  0  0  0  0
  4 11  1  0  0  0  0
  5  1  2  0  0  0  0
  6  4  1  0  0  0  0
  7  8  1  6  0  0  0
  7  2  1  0  0  0  0
  7 10  1  0  0  0  0
 10  9  2  0  0  0  0
 11 24  1  0  0  0  0
 13 15  1  0  0  0  0
 13 29  1  0  0  0  0
 14 27  1  0  0  0  0
 14 12  2  0  0  0  0
 16 22  2  0  0  0  0
 17 19  1  0  0  0  0
 18 14  1  0  0  0  0
 19 12  1  0  0  0  0
 19 15  2  0  0  0  0
 20 17  2  0  0  0  0
 20 21  1  0  0  0  0
 21 13  2  0  0  0  0
 22 23  1  0  0  0  0
 23 18  2  0  0  0  0
 23 17  1  0  0  0  0
 24 22  1  0  0  0  0
 24 25  1  0  0  0  0
 25 20  1  0  0  0  0
 26 27  2  0  0  0  0
 27 28  1  0  0  0  0
 29 30  1  0  0  0  0
 30 31  1  0  0  0  0
 31 32  1  0  0  0  0
 32 33  1  0  0  0  0
 33 35  1  0  0  0  0
 33 36  1  0  0  0  0
 35 34  1  6  0  0  0
 35 36  1  0  0  0  0
 37  5  1  0  0  0  0
 38 37  1  0  0  0  0
 39 38  1  0  0  0  0
 39 41  1  0  0  0  0
 40 39  2  0  0  0  0
 41 42  2  0  0  0  0
 43 44  1  0  0  0  0
 43 41  1  0  0  0  0
 44 45  1  0  0  0  0
 45 48  1  6  0  0  0
 45 46  1  0  0  0  0
 46 55  1  6  0  0  0
 47 50  1  0  0  0  0
 50 51  1  6  0  0  0
 50 55  1  0  0  0  0
 50 49  1  0  0  0  0
 52 46  1  0  0  0  0
 53 54  1  6  0  0  0
 53 47  1  0  0  0  0
 53 52  1  0  0  0  0
 54 45  1  0  0  0  0
M  END
>  <MODEL>
3

>  <REMARK>
 VINA RESULT:      -8.1      3.076      9.931
  Name = 
  17 active torsions:
  status: ('A' for Active; 'I' for Inactive)
    1  A    between atoms: C_2  and  C_8
    2  A    between atoms: C_2  and  O_48
    3  A    between atoms: O_3  and  C_4
    4  A    between atoms: O_3  and  C_8
    5  A    between atoms: C_4  and  C_7
    6  A    between atoms: C_5  and  C_16
    7  A    between atoms: C_5  and  C_47
    8  A    between atoms: C_6  and  C_22
    9  A    between atoms: C_6  and  N_52
   10  A    between atoms: N_10  and  O_28
   11  A    between atoms: C_11  and  O_36
   12  A    between atoms: C_12  and  C_39
   13  A    between atoms: O_28  and  C_34
   14  A    between atoms: C_34  and  C_44
   15  A    between atoms: O_36  and  C_44
   16  A    between atoms: C_43  and  O_48
   17  A    between atoms: C_43  and  C_49
                            x       y       z     vdW  Elec       q    Type
                         _______ _______ _______ _____ _____    ______ ____

>  <TORSDO>
F 17

$$$$
=
 OpenBabel10232408443D

 55 61  0  0  1  0  0  0  0  0999 V2000
  187.6240  176.6150  135.7530 C   0  0  0  0  0  3  0  0  0  0  0  0
  185.5960  175.4250  136.3770 C   0  0  0  0  0  0  0  0  0  0  0  0
  187.2140  177.7190  136.5040 C   0  0  0  0  0  3  0  0  0  0  0  0
  186.0000  177.6820  137.1920 C   0  0  0  0  0  0  0  0  0  0  0  0
  186.8210  175.4730  135.6760 C   0  0  0  0  0  0  0  0  0  0  0  0
  185.2000  176.5360  137.1380 C   0  0  0  0  0  3  0  0  0  0  0  0
  184.7360  174.1960  136.3350 C   0  0  2  0  0  3  0  0  0  0  0  0
  183.3250  174.5150  135.8680 C   0  0  0  0  0  1  0  0  0  0  0  0
  185.0550  172.3630  137.7900 O   0  0  0  0  0  0  0  0  0  0  0  0
  184.7130  173.5280  137.6740 C   0  0  0  0  0  3  0  0  0  0  0  0
  185.5600  178.8510  138.0050 C   0  0  0  0  0  2  0  0  0  0  0  0
  186.5180  178.1820  144.4550 C   0  0  0  0  0  3  0  0  0  0  0  0
  189.6000  177.5230  142.5060 C   0  0  0  0  0  0  0  0  0  0  0  0
  185.1810  178.5520  144.2460 C   0  0  0  0  0  0  0  0  0  0  0  0
  188.7170  177.6640  143.5880 C   0  0  0  0  0  3  0  0  0  0  0  0
  183.9190  179.2510  140.2630 O   0  0  0  0  0  0  0  0  0  0  0  0
  186.9260  178.2690  142.0590 C   0  0  0  0  0  0  0  0  0  0  0  0
  184.7250  178.7830  142.9430 C   0  0  0  0  0  3  0  0  0  0  0  0
  187.3880  178.0370  143.3730 C   0  0  0  0  0  0  0  0  0  0  0  0
  187.8100  178.1200  140.9750 C   0  0  0  0  0  0  0  0  0  0  0  0
  189.1390  177.7530  141.2040 C   0  0  0  0  0  3  0  0  0  0  0  0
  185.1110  178.8980  140.4740 C   0  0  0  0  0  0  0  0  0  0  0  0
  185.5870  178.6480  141.8470 C   0  0  0  0  0  0  0  0  0  0  0  0
  186.0260  178.7290  139.3810 N   0  0  0  0  0  0  0  0  0  0  0  0
  187.3510  178.3310  139.6360 N   0  0  0  0  0  2  0  0  0  0  0  0
  183.0780  179.0880  145.2010 O   0  0  0  0  0  0  0  0  0  0  0  0
  184.2630  178.7050  145.3850 C   0  0  0  0  0  0  0  0  0  0  0  0
  184.6940  178.4180  146.6770 O   0  0  0  0  0  1  0  0  0  0  0  0
  190.9380  177.1650  142.6950 O   0  0  0  0  0  0  0  0  0  0  0  0
  191.6080  177.3380  143.9360 C   0  0  0  0  0  2  0  0  0  0  0  0
  191.5930  176.0300  144.7050 C   0  0  0  0  0  2  0  0  0  0  0  0
  191.9890  176.2470  146.0280 O   0  0  0  0  0  0  0  0  0  0  0  0
  191.1460  177.1990  146.4990 N   0  0  0  0  0  0  0  0  0  0  0  0
  188.8840  177.4070  147.3150 C   0  0  0  0  0  1  0  0  0  0  0  0
  190.1000  176.5100  147.2120 C   0  0  2  0  0  3  0  0  0  0  0  0
  191.1380  177.0790  147.8800 O   0  0  0  0  0  0  0  0  0  0  0  0
  187.3140  174.3070  134.8850 C   0  0  0  0  0  2  0  0  0  0  0  0
  188.3000  173.6090  135.6330 O   0  0  0  0  0  0  0  0  0  0  0  0
  188.5880  172.2540  135.4320 C   0  0  0  0  0  0  0  0  0  0  0  0
  187.7310  171.3990  135.7780 O   0  0  0  0  0  0  0  0  0  0  0  0
  189.8750  171.7910  134.8740 C   0  0  0  0  0  0  0  0  0  0  0  0
  189.9350  170.6510  134.3460 O   0  0  0  0  0  0  0  0  0  0  0  0
  191.0270  172.5850  134.8900 O   0  0  0  0  0  0  0  0  0  0  0  0
  191.7900  172.8370  136.0670 C   0  0  0  0  0  2  0  0  0  0  0  0
  192.8160  173.9540  135.8380 C   0  0  2  0  0  0  0  0  0  0  0  0
  192.1980  175.3070  135.4840 C   0  0  2  0  0  3  0  0  0  0  0  0
  192.3110  176.0660  138.2190 C   0  0  0  0  0  2  0  0  0  0  0  0
  193.7020  173.5850  134.8260 O   0  0  0  0  0  1  0  0  0  0  0  0
  190.8550  177.6670  137.2400 F   0  0  0  0  0  0  0  0  0  0  0  0
  190.9680  176.3140  137.5080 C   0  0  2  0  0  0  0  0  0  0  0  0
  189.8390  175.9080  138.4330 C   0  0  0  0  0  1  0  0  0  0  0  0
  193.1140  176.2650  135.9570 O   0  0  0  0  0  0  0  0  0  0  0  0
  193.4570  175.7720  137.2320 C   0  0  2  0  0  3  0  0  0  0  0  0
  193.5940  174.2640  137.0940 C   0  0  0  0  0  2  0  0  0  0  0  0
  190.8350  175.5390  136.1840 C   0  0  0  0  0  2  0  0  0  0  0  0
  1  3  1  0  0  0  0
  2  6  2  0  0  0  0
  3  4  2  0  0  0  0
  4 11  1  0  0  0  0
  5  1  2  0  0  0  0
  5  2  1  0  0  0  0
  6  4  1  0  0  0  0
  7  8  1  1  0  0  0
  7  2  1  0  0  0  0
  7 10  1  0  0  0  0
 10  9  2  0  0  0  0
 11 24  1  0  0  0  0
 13 29  1  0  0  0  0
 13 15  2  0  0  0  0
 14 12  1  0  0  0  0
 14 27  1  0  0  0  0
 16 22  2  0  0  0  0
 17 19  1  0  0  0  0
 18 14  2  0  0  0  0
 19 15  1  0  0  0  0
 19 12  2  0  0  0  0
 20 21  2  0  0  0  0
 20 17  1  0  0  0  0
 21 13  1  0  0  0  0
 22 23  1  0  0  0  0
 23 17  2  0  0  0  0
 23 18  1  0  0  0  0
 24 25  1  0  0  0  0
 24 22  1  0  0  0  0
 25 20  1  0  0  0  0
 26 27  2  0  0  0  0
 27 28  1  0  0  0  0
 29 30  1  0  0  0  0
 30 31  1  0  0  0  0
 31 32  1  0  0  0  0
 32 33  1  0  0  0  0
 33 35  1  0  0  0  0
 33 36  1  0  0  0  0
 35 34  1  1  0  0  0
 35 36  1  0  0  0  0
 37 38  1  0  0  0  0
 37  5  1  0  0  0  0
 39 38  1  0  0  0  0
 39 40  2  0  0  0  0
 41 43  1  0  0  0  0
 41 39  1  0  0  0  0
 42 41  2  0  0  0  0
 43 44  1  0  0  0  0
 45 48  1  6  0  0  0
 45 44  1  0  0  0  0
 45 54  1  0  0  0  0
 46 45  1  0  0  0  0
 46 52  1  0  0  0  0
 46 55  1  1  0  0  0
 49 50  1  0  0  0  0
 50 47  1  0  0  0  0
 50 51  1  1  0  0  0
 52 53  1  0  0  0  0
 53 54  1  6  0  0  0
 53 47  1  0  0  0  0
 55 50  1  0  0  0  0
M  END
>  <MODEL>
4

>  <REMARK>
 VINA RESULT:      -7.9      2.695      8.665
  Name = 
  17 active torsions:
  status: ('A' for Active; 'I' for Inactive)
    1  A    between atoms: C_2  and  C_8
    2  A    between atoms: C_2  and  O_48
    3  A    between atoms: O_3  and  C_4
    4  A    between atoms: O_3  and  C_8
    5  A    between atoms: C_4  and  C_7
    6  A    between atoms: C_5  and  C_16
    7  A    between atoms: C_5  and  C_47
    8  A    between atoms: C_6  and  C_22
    9  A    between atoms: C_6  and  N_52
   10  A    between atoms: N_10  and  O_28
   11  A    between atoms: C_11  and  O_36
   12  A    between atoms: C_12  and  C_39
   13  A    between atoms: O_28  and  C_34
   14  A    between atoms: C_34  and  C_44
   15  A    between atoms: O_36  and  C_44
   16  A    between atoms: C_43  and  O_48
   17  A    between atoms: C_43  and  C_49
                            x       y       z     vdW  Elec       q    Type
                         _______ _______ _______ _____ _____    ______ ____

>  <TORSDO>
F 17

$$$$
=
 OpenBabel10232408443D

 55 61  0  0  1  0  0  0  0  0999 V2000
  188.2740  177.9410  143.4400 C   0  0  0  0  0  3  0  0  0  0  0  0
  189.6040  177.2470  145.3550 C   0  0  0  0  0  0  0  0  0  0  0  0
  189.4290  178.0170  142.6580 C   0  0  0  0  0  3  0  0  0  0  0  0
  190.6710  177.7100  143.2170 C   0  0  0  0  0  0  0  0  0  0  0  0
  188.3530  177.5680  144.7860 C   0  0  0  0  0  0  0  0  0  0  0  0
  190.7570  177.3160  144.5560 C   0  0  0  0  0  3  0  0  0  0  0  0
  189.7060  176.8110  146.7870 C   0  0  2  0  0  3  0  0  0  0  0  0
  189.3420  177.9360  147.7430 C   0  0  0  0  0  1  0  0  0  0  0  0
  191.8850  176.9760  147.6830 O   0  0  0  0  0  0  0  0  0  0  0  0
  191.0780  176.2900  147.0790 C   0  0  0  0  0  3  0  0  0  0  0  0
  191.9070  177.7780  142.3870 C   0  0  0  0  0  2  0  0  0  0  0  0
  191.7090  175.8850  136.1140 C   0  0  0  0  0  3  0  0  0  0  0  0
  188.3220  176.2480  137.5750 C   0  0  0  0  0  0  0  0  0  0  0  0
  193.0530  176.0410  136.4830 C   0  0  0  0  0  0  0  0  0  0  0  0
  189.3530  175.9830  136.6590 C   0  0  0  0  0  3  0  0  0  0  0  0
  193.8860  177.3610  140.4220 O   0  0  0  0  0  0  0  0  0  0  0  0
  191.0090  176.5730  138.3390 C   0  0  0  0  0  0  0  0  0  0  0  0
  193.3680  176.4670  137.7790 C   0  0  0  0  0  3  0  0  0  0  0  0
  190.6900  176.1450  137.0320 C   0  0  0  0  0  0  0  0  0  0  0  0
  189.9750  176.8320  139.2580 C   0  0  0  0  0  0  0  0  0  0  0  0
  188.6420  176.6720  138.8700 C   0  0  0  0  0  3  0  0  0  0  0  0
  192.6850  177.1940  140.0730 C   0  0  0  0  0  0  0  0  0  0  0  0
  192.3560  176.7390  138.7100 C   0  0  0  0  0  0  0  0  0  0  0  0
  191.6160  177.4420  140.9980 N   0  0  0  0  0  0  0  0  0  0  0  0
  190.2840  177.2460  140.5920 N   0  0  0  0  0  2  0  0  0  0  0  0
  193.8680  175.2240  134.4120 O   0  0  0  0  0  0  0  0  0  0  0  0
  194.1280  175.7680  135.5170 C   0  0  0  0  0  0  0  0  0  0  0  0
  195.4430  176.1160  135.8140 O   0  0  0  0  0  1  0  0  0  0  0  0
  186.9770  176.1090  137.2220 O   0  0  0  0  0  0  0  0  0  0  0  0
  186.4430  174.8990  136.7030 C   0  0  0  0  0  2  0  0  0  0  0  0
  184.9480  175.0530  136.4990 C   0  0  0  0  0  2  0  0  0  0  0  0
  184.4020  173.8560  136.0260 O   0  0  0  0  0  0  0  0  0  0  0  0
  183.5470  173.4480  136.9970 N   0  0  0  0  0  0  0  0  0  0  0  0
  181.4560  172.2630  137.2200 C   0  0  0  0  0  1  0  0  0  0  0  0
  182.7350  172.4070  136.4210 C   0  0  2  0  0  3  0  0  0  0  0  0
  183.7980  172.1020  137.2110 O   0  0  0  0  0  0  0  0  0  0  0  0
  187.0890  177.4720  145.5730 C   0  0  0  0  0  2  0  0  0  0  0  0
  185.9750  177.6100  144.7020 O   0  0  0  0  0  0  0  0  0  0  0  0
  185.0420  178.6470  144.8180 C   0  0  0  0  0  0  0  0  0  0  0  0
  185.0270  179.3260  145.8780 O   0  0  0  0  0  0  0  0  0  0  0  0
  184.0490  178.9430  143.7650 C   0  0  0  0  0  0  0  0  0  0  0  0
  182.9090  179.3550  144.1020 O   0  0  0  0  0  0  0  0  0  0  0  0
  184.3370  178.8020  142.4040 O   0  0  0  0  0  0  0  0  0  0  0  0
  183.4100  178.2840  141.4540 C   0  0  0  0  0  2  0  0  0  0  0  0
  183.7100  178.8000  140.0410 C   0  0  2  0  0  0  0  0  0  0  0  0
  183.8610  177.6970  138.9930 C   0  0  2  0  0  3  0  0  0  0  0  0
  181.1270  178.0070  138.2850 C   0  0  0  0  0  2  0  0  0  0  0  0
  184.8720  179.5720  140.0550 O   0  0  0  0  0  1  0  0  0  0  0  0
  181.7460  175.9380  137.2950 F   0  0  0  0  0  0  0  0  0  0  0  0
  181.6010  176.5600  138.5230 C   0  0  2  0  0  0  0  0  0  0  0  0
  180.5450  175.8200  139.3180 C   0  0  0  0  0  1  0  0  0  0  0  0
  183.4650  178.2890  137.7790 O   0  0  0  0  0  0  0  0  0  0  0  0
  182.3000  178.9950  138.1360 C   0  0  2  0  0  3  0  0  0  0  0  0
  182.5700  179.6240  139.4940 C   0  0  0  0  0  2  0  0  0  0  0  0
  182.9430  176.4810  139.2730 C   0  0  0  0  0  2  0  0  0  0  0  0
  1  5  1  0  0  0  0
  2  7  1  0  0  0  0
  3  4  1  0  0  0  0
  3  1  2  0  0  0  0
  4  6  2  0  0  0  0
  5  2  2  0  0  0  0
  5 37  1  0  0  0  0
  6  2  1  0  0  0  0
  7 10  1  0  0  0  0
  7  8  1  1  0  0  0
 10  9  2  0  0  0  0
 11  4  1  0  0  0  0
 12 14  2  0  0  0  0
 12 19  1  0  0  0  0
 13 21  1  0  0  0  0
 14 18  1  0  0  0  0
 15 19  1  0  0  0  0
 15 13  2  0  0  0  0
 17 23  1  0  0  0  0
 17 20  1  0  0  0  0
 18 23  2  0  0  0  0
 19 17  2  0  0  0  0
 20 25  1  0  0  0  0
 21 20  2  0  0  0  0
 22 16  2  0  0  0  0
 22 24  1  0  0  0  0
 23 22  1  0  0  0  0
 24 11  1  0  0  0  0
 25 24  1  0  0  0  0
 26 27  2  0  0  0  0
 27 28  1  0  0  0  0
 27 14  1  0  0  0  0
 29 13  1  0  0  0  0
 30 29  1  0  0  0  0
 31 30  1  0  0  0  0
 32 31  1  0  0  0  0
 32 33  1  0  0  0  0
 33 36  1  0  0  0  0
 35 33  1  0  0  0  0
 35 36  1  0  0  0  0
 35 34  1  1  0  0  0
 38 39  1  0  0  0  0
 38 37  1  0  0  0  0
 39 40  2  0  0  0  0
 41 42  2  0  0  0  0
 41 39  1  0  0  0  0
 43 41  1  0  0  0  0
 44 43  1  0  0  0  0
 45 48  1  1  0  0  0
 45 44  1  0  0  0  0
 46 55  1  1  0  0  0
 46 45  1  0  0  0  0
 47 50  1  0  0  0  0
 49 50  1  0  0  0  0
 50 55  1  0  0  0  0
 50 51  1  1  0  0  0
 52 53  1  0  0  0  0
 52 46  1  0  0  0  0
 53 47  1  1  0  0  0
 53 54  1  0  0  0  0
 54 45  1  0  0  0  0
M  END
>  <MODEL>
5

>  <REMARK>
 VINA RESULT:      -7.9      2.995      8.255
  Name = 
  17 active torsions:
  status: ('A' for Active; 'I' for Inactive)
    1  A    between atoms: C_2  and  C_8
    2  A    between atoms: C_2  and  O_48
    3  A    between atoms: O_3  and  C_4
    4  A    between atoms: O_3  and  C_8
    5  A    between atoms: C_4  and  C_7
    6  A    between atoms: C_5  and  C_16
    7  A    between atoms: C_5  and  C_47
    8  A    between atoms: C_6  and  C_22
    9  A    between atoms: C_6  and  N_52
   10  A    between atoms: N_10  and  O_28
   11  A    between atoms: C_11  and  O_36
   12  A    between atoms: C_12  and  C_39
   13  A    between atoms: O_28  and  C_34
   14  A    between atoms: C_34  and  C_44
   15  A    between atoms: O_36  and  C_44
   16  A    between atoms: C_43  and  O_48
   17  A    between atoms: C_43  and  C_49
                            x       y       z     vdW  Elec       q    Type
                         _______ _______ _______ _____ _____    ______ ____

>  <TORSDO>
F 17

$$$$
=
 OpenBabel10232408443D

 55 61  0  0  1  0  0  0  0  0999 V2000
  185.1750  178.9700  141.9690 C   0  0  0  0  0  3  0  0  0  0  0  0
  182.8480  178.5940  141.3700 C   0  0  0  0  0  0  0  0  0  0  0  0
  185.5070  179.1040  140.6190 C   0  0  0  0  0  3  0  0  0  0  0  0
  184.5160  178.9840  139.6420 C   0  0  0  0  0  0  0  0  0  0  0  0
  183.8560  178.7070  142.3510 C   0  0  0  0  0  0  0  0  0  0  0  0
  183.1910  178.7420  140.0160 C   0  0  0  0  0  3  0  0  0  0  0  0
  181.4200  178.3460  141.7620 C   0  0  2  0  0  3  0  0  0  0  0  0
  180.7340  177.3870  140.8010 C   0  0  0  0  0  1  0  0  0  0  0  0
  180.5720  180.2260  142.9120 O   0  0  0  0  0  0  0  0  0  0  0  0
  180.6690  179.6370  141.8480 C   0  0  0  0  0  3  0  0  0  0  0  0
  184.8600  179.1360  138.2000 C   0  0  0  0  0  2  0  0  0  0  0  0
  188.9290  174.2130  136.7220 C   0  0  0  0  0  3  0  0  0  0  0  0
  185.4190  173.4520  135.8060 C   0  0  0  0  0  0  0  0  0  0  0  0
  189.6840  175.2520  137.2860 C   0  0  0  0  0  0  0  0  0  0  0  0
  186.8040  173.3140  135.9900 C   0  0  0  0  0  3  0  0  0  0  0  0
  187.6550  178.8060  138.3820 O   0  0  0  0  0  0  0  0  0  0  0  0
  186.9100  175.5510  136.9360 C   0  0  0  0  0  0  0  0  0  0  0  0
  189.0470  176.4390  137.6690 C   0  0  0  0  0  3  0  0  0  0  0  0
  187.5510  174.3550  136.5490 C   0  0  0  0  0  0  0  0  0  0  0  0
  185.5210  175.6850  136.7590 C   0  0  0  0  0  0  0  0  0  0  0  0
  184.7860  174.6400  136.1920 C   0  0  0  0  0  3  0  0  0  0  0  0
  186.9940  177.8500  137.8910 C   0  0  0  0  0  0  0  0  0  0  0  0
  187.6660  176.5990  137.4960 C   0  0  0  0  0  0  0  0  0  0  0  0
  185.5740  177.9620  137.7120 N   0  0  0  0  0  0  0  0  0  0  0  0
  184.8540  176.8840  137.1660 N   0  0  0  0  0  2  0  0  0  0  0  0
  191.8380  174.5600  136.5780 O   0  0  0  0  0  0  0  0  0  0  0  0
  191.1350  175.1040  137.4700 C   0  0  0  0  0  0  0  0  0  0  0  0
  191.7470  175.5730  138.6290 O   0  0  0  0  0  1  0  0  0  0  0  0
  184.6530  172.4320  135.2360 O   0  0  0  0  0  0  0  0  0  0  0  0
  183.8090  171.5870  136.0050 C   0  0  0  0  0  2  0  0  0  0  0  0
  183.2140  172.3770  137.1550 C   0  0  0  0  0  2  0  0  0  0  0  0
  181.8790  172.6890  136.8820 O   0  0  0  0  0  0  0  0  0  0  0  0
  181.5690  173.6970  137.7350 N   0  0  0  0  0  0  0  0  0  0  0  0
  180.0210  175.5410  137.9100 C   0  0  0  0  0  1  0  0  0  0  0  0
  180.2400  174.1350  137.3920 C   0  0  2  0  0  3  0  0  0  0  0  0
  180.4450  173.2930  138.4390 O   0  0  0  0  0  0  0  0  0  0  0  0
  183.5440  178.6010  143.8070 C   0  0  0  0  0  2  0  0  0  0  0  0
  184.6080  179.1660  144.5620 O   0  0  0  0  0  0  0  0  0  0  0  0
  185.1560  178.5390  145.6870 C   0  0  0  0  0  0  0  0  0  0  0  0
  184.4250  178.3690  146.6980 O   0  0  0  0  0  0  0  0  0  0  0  0
  186.5700  178.1140  145.7480 C   0  0  0  0  0  0  0  0  0  0  0  0
  187.0630  177.7960  146.8610 O   0  0  0  0  0  0  0  0  0  0  0  0
  187.3760  178.0300  144.6080 O   0  0  0  0  0  0  0  0  0  0  0  0
  187.6420  176.8100  143.9220 C   0  0  0  0  0  2  0  0  0  0  0  0
  188.7590  176.9840  142.8850 C   0  0  2  0  0  0  0  0  0  0  0  0
  189.7900  178.0510  143.2520 C   0  0  2  0  0  3  0  0  0  0  0  0
  191.4540  176.0440  144.3810 C   0  0  0  0  0  2  0  0  0  0  0  0
  188.2090  177.2960  141.6430 O   0  0  0  0  0  1  0  0  0  0  0  0
  192.3670  178.0770  145.2060 F   0  0  0  0  0  0  0  0  0  0  0  0
  191.2250  177.2950  145.2510 C   0  0  2  0  0  0  0  0  0  0  0  0
  190.9900  176.8640  146.6830 C   0  0  0  0  0  1  0  0  0  0  0  0
  190.9840  177.6350  142.6340 O   0  0  0  0  0  0  0  0  0  0  0  0
  191.0230  176.2550  142.9170 C   0  0  2  0  0  3  0  0  0  0  0  0
  189.6020  175.7380  142.7580 C   0  0  0  0  0  2  0  0  0  0  0  0
  190.0310  178.1460  144.7800 C   0  0  0  0  0  2  0  0  0  0  0  0
  1  5  1  0  0  0  0
  2  7  1  0  0  0  0
  2  5  2  0  0  0  0
  3  1  2  0  0  0  0
  4  6  2  0  0  0  0
  4  3  1  0  0  0  0
  5 37  1  0  0  0  0
  6  2  1  0  0  0  0
  7  8  1  6  0  0  0
  7 10  1  0  0  0  0
 10  9  2  0  0  0  0
 11  4  1  0  0  0  0
 12 14  1  0  0  0  0
 13 15  2  0  0  0  0
 13 21  1  0  0  0  0
 14 27  1  0  0  0  0
 14 18  2  0  0  0  0
 15 19  1  0  0  0  0
 17 23  2  0  0  0  0
 19 12  2  0  0  0  0
 19 17  1  0  0  0  0
 20 17  1  0  0  0  0
 20 25  1  0  0  0  0
 21 20  2  0  0  0  0
 22 16  2  0  0  0  0
 23 18  1  0  0  0  0
 23 22  1  0  0  0  0
 24 22  1  0  0  0  0
 24 11  1  0  0  0  0
 25 24  1  0  0  0  0
 26 27  2  0  0  0  0
 27 28  1  0  0  0  0
 29 13  1  0  0  0  0
 29 30  1  0  0  0  0
 30 31  1  0  0  0  0
 32 31  1  0  0  0  0
 32 33  1  0  0  0  0
 33 36  1  0  0  0  0
 35 33  1  0  0  0  0
 35 34  1  1  0  0  0
 35 36  1  0  0  0  0
 37 38  1  0  0  0  0
 38 39  1  0  0  0  0
 39 41  1  0  0  0  0
 39 40  2  0  0  0  0
 41 42  2  0  0  0  0
 43 41  1  0  0  0  0
 44 43  1  0  0  0  0
 45 48  1  6  0  0  0
 45 46  1  0  0  0  0
 45 44  1  0  0  0  0
 46 55  1  1  0  0  0
 47 50  1  0  0  0  0
 49 50  1  0  0  0  0
 50 51  1  1  0  0  0
 52 53  1  0  0  0  0
 52 46  1  0  0  0  0
 53 54  1  1  0  0  0
 53 47  1  0  0  0  0
 54 45  1  0  0  0  0
 55 50  1  0  0  0  0
M  END
>  <MODEL>
6

>  <REMARK>
 VINA RESULT:      -7.5      2.164      5.649
  Name = 
  17 active torsions:
  status: ('A' for Active; 'I' for Inactive)
    1  A    between atoms: C_2  and  C_8
    2  A    between atoms: C_2  and  O_48
    3  A    between atoms: O_3  and  C_4
    4  A    between atoms: O_3  and  C_8
    5  A    between atoms: C_4  and  C_7
    6  A    between atoms: C_5  and  C_16
    7  A    between atoms: C_5  and  C_47
    8  A    between atoms: C_6  and  C_22
    9  A    between atoms: C_6  and  N_52
   10  A    between atoms: N_10  and  O_28
   11  A    between atoms: C_11  and  O_36
   12  A    between atoms: C_12  and  C_39
   13  A    between atoms: O_28  and  C_34
   14  A    between atoms: C_34  and  C_44
   15  A    between atoms: O_36  and  C_44
   16  A    between atoms: C_43  and  O_48
   17  A    between atoms: C_43  and  C_49
                            x       y       z     vdW  Elec       q    Type
                         _______ _______ _______ _____ _____    ______ ____

>  <TORSDO>
F 17

$$$$
=
 OpenBabel10232408443D

 55 61  0  0  1  0  0  0  0  0999 V2000
  188.7020  175.8360  137.0230 C   0  0  0  0  0  3  0  0  0  0  0  0
  189.7630  176.5870  139.0790 C   0  0  0  0  0  0  0  0  0  0  0  0
  187.7110  176.8090  137.1720 C   0  0  0  0  0  3  0  0  0  0  0  0
  187.7400  177.6710  138.2700 C   0  0  0  0  0  0  0  0  0  0  0  0
  189.7220  175.7120  137.9720 C   0  0  0  0  0  0  0  0  0  0  0  0
  188.7670  177.5680  139.2120 C   0  0  0  0  0  3  0  0  0  0  0  0
  190.8670  176.4930  140.0910 C   0  0  2  0  0  3  0  0  0  0  0  0
  190.3850  176.8650  141.4840 C   0  0  0  0  0  1  0  0  0  0  0  0
  193.1320  177.1600  140.1560 O   0  0  0  0  0  0  0  0  0  0  0  0
  192.0240  177.3510  139.6840 C   0  0  0  0  0  3  0  0  0  0  0  0
  186.6930  178.7190  138.4300 C   0  0  0  0  0  2  0  0  0  0  0  0
  183.3200  178.6140  144.0500 C   0  0  0  0  0  3  0  0  0  0  0  0
  186.9270  177.9360  144.5680 C   0  0  0  0  0  0  0  0  0  0  0  0
  182.4280  178.9070  143.0090 C   0  0  0  0  0  0  0  0  0  0  0  0
  185.5600  178.1250  144.8260 C   0  0  0  0  0  3  0  0  0  0  0  0
  183.9980  179.2270  139.0860 O   0  0  0  0  0  0  0  0  0  0  0  0
  185.1600  178.5250  142.4620 C   0  0  0  0  0  0  0  0  0  0  0  0
  182.9080  179.0120  141.6980 C   0  0  0  0  0  3  0  0  0  0  0  0
  184.6770  178.4210  143.7850 C   0  0  0  0  0  0  0  0  0  0  0  0
  186.5280  178.3280  142.2040 C   0  0  0  0  0  0  0  0  0  0  0  0
  187.4020  178.0400  143.2550 C   0  0  0  0  0  3  0  0  0  0  0  0
  184.7770  178.9440  140.0370 C   0  0  0  0  0  0  0  0  0  0  0  0
  184.2680  178.8270  141.4150 C   0  0  0  0  0  0  0  0  0  0  0  0
  186.1750  178.7290  139.7930 N   0  0  0  0  0  0  0  0  0  0  0  0
  187.0280  178.4110  140.8650 N   0  0  0  0  0  2  0  0  0  0  0  0
  180.3350  178.2280  143.8920 O   0  0  0  0  0  1  0  0  0  0  0  0
  180.9980  179.1110  143.2870 C   0  0  0  0  0  0  0  0  0  0  0  0
  180.3670  180.2870  142.8910 O   0  0  0  0  0  0  0  0  0  0  0  0
  187.8320  177.6540  145.5950 O   0  0  0  0  0  0  0  0  0  0  0  0
  187.5340  177.8850  146.9640 C   0  0  0  0  0  2  0  0  0  0  0  0
  188.4840  177.0820  147.8310 C   0  0  0  0  0  2  0  0  0  0  0  0
  189.7890  177.5620  147.6850 O   0  0  0  0  0  0  0  0  0  0  0  0
  190.4590  176.5770  147.0370 N   0  0  0  0  0  0  0  0  0  0  0  0
  191.6100  176.2090  144.9470 C   0  0  0  0  0  1  0  0  0  0  0  0
  191.2540  177.2180  146.0200 C   0  0  2  0  0  3  0  0  0  0  0  0
  191.8100  176.8380  147.2000 O   0  0  0  0  0  0  0  0  0  0  0  0
  190.7750  174.6770  137.7550 C   0  0  0  0  0  2  0  0  0  0  0  0
  191.3750  174.8700  136.4810 O   0  0  0  0  0  0  0  0  0  0  0  0
  191.7750  173.8080  135.6620 C   0  0  0  0  0  0  0  0  0  0  0  0
  190.8960  173.0250  135.2180 O   0  0  0  0  0  0  0  0  0  0  0  0
  193.1930  173.5480  135.3380 C   0  0  0  0  0  0  0  0  0  0  0  0
  193.5130  172.4320  134.8540 O   0  0  0  0  0  0  0  0  0  0  0  0
  194.1930  174.5070  135.5300 O   0  0  0  0  0  0  0  0  0  0  0  0
  194.8990  174.6720  136.7560 C   0  0  0  0  0  2  0  0  0  0  0  0
  196.4100  174.4930  136.5600 C   0  0  2  0  0  0  0  0  0  0  0  0
  197.0680  173.5740  137.5900 C   0  0  2  0  0  3  0  0  0  0  0  0
  196.7980  171.3850  135.7990 C   0  0  0  0  0  2  0  0  0  0  0  0
  197.0440  175.7340  136.5920 O   0  0  0  0  0  1  0  0  0  0  0  0
  197.2910  170.3620  137.8860 F   0  0  0  0  0  0  0  0  0  0  0  0
  196.3350  171.1310  137.2460 C   0  0  2  0  0  0  0  0  0  0  0  0
  195.0320  170.3590  137.2180 C   0  0  0  0  0  1  0  0  0  0  0  0
  198.1740  173.0110  136.9250 O   0  0  0  0  0  0  0  0  0  0  0  0
  197.6440  172.6660  135.6660 C   0  0  2  0  0  3  0  0  0  0  0  0
  196.7250  173.8050  135.2540 C   0  0  0  0  0  2  0  0  0  0  0  0
  196.1310  172.4290  138.0500 C   0  0  0  0  0  2  0  0  0  0  0  0
  1  3  2  0  0  0  0
  1  5  1  0  0  0  0
  2  6  1  0  0  0  0
  2  7  1  0  0  0  0
  3  4  1  0  0  0  0
  4 11  1  0  0  0  0
  4  6  2  0  0  0  0
  5  2  2  0  0  0  0
  7  8  1  1  0  0  0
 10  7  1  0  0  0  0
 10  9  2  0  0  0  0
 11 24  1  0  0  0  0
 13 15  1  0  0  0  0
 13 29  1  0  0  0  0
 14 27  1  0  0  0  0
 14 12  2  0  0  0  0
 16 22  2  0  0  0  0
 17 19  1  0  0  0  0
 18 14  1  0  0  0  0
 19 12  1  0  0  0  0
 19 15  2  0  0  0  0
 20 17  2  0  0  0  0
 20 21  1  0  0  0  0
 21 13  2  0  0  0  0
 22 23  1  0  0  0  0
 23 18  2  0  0  0  0
 23 17  1  0  0  0  0
 24 22  1  0  0  0  0
 24 25  1  0  0  0  0
 25 20  1  0  0  0  0
 27 26  1  0  0  0  0
 28 27  2  0  0  0  0
 29 30  1  0  0  0  0
 30 31  1  0  0  0  0
 32 31  1  0  0  0  0
 33 36  1  0  0  0  0
 33 32  1  0  0  0  0
 35 34  1  6  0  0  0
 35 33  1  0  0  0  0
 35 36  1  0  0  0  0
 37  5  1  0  0  0  0
 38 37  1  0  0  0  0
 39 38  1  0  0  0  0
 40 39  2  0  0  0  0
 41 43  1  0  0  0  0
 41 39  1  0  0  0  0
 42 41  2  0  0  0  0
 43 44  1  0  0  0  0
 45 48  1  1  0  0  0
 45 44  1  0  0  0  0
 45 46  1  0  0  0  0
 46 55  1  6  0  0  0
 47 50  1  0  0  0  0
 50 51  1  6  0  0  0
 50 49  1  0  0  0  0
 50 55  1  0  0  0  0
 52 46  1  0  0  0  0
 53 54  1  1  0  0  0
 53 47  1  0  0  0  0
 53 52  1  0  0  0  0
 54 45  1  0  0  0  0
M  END
>  <MODEL>
7

>  <REMARK>
 VINA RESULT:      -7.4      3.062      9.799
  Name = 
  17 active torsions:
  status: ('A' for Active; 'I' for Inactive)
    1  A    between atoms: C_2  and  C_8
    2  A    between atoms: C_2  and  O_48
    3  A    between atoms: O_3  and  C_4
    4  A    between atoms: O_3  and  C_8
    5  A    between atoms: C_4  and  C_7
    6  A    between atoms: C_5  and  C_16
    7  A    between atoms: C_5  and  C_47
    8  A    between atoms: C_6  and  C_22
    9  A    between atoms: C_6  and  N_52
   10  A    between atoms: N_10  and  O_28
   11  A    between atoms: C_11  and  O_36
   12  A    between atoms: C_12  and  C_39
   13  A    between atoms: O_28  and  C_34
   14  A    between atoms: C_34  and  C_44
   15  A    between atoms: O_36  and  C_44
   16  A    between atoms: C_43  and  O_48
   17  A    between atoms: C_43  and  C_49
                            x       y       z     vdW  Elec       q    Type
                         _______ _______ _______ _____ _____    ______ ____

>  <TORSDO>
F 17

$$$$
=
 OpenBabel10232408443D

 55 61  0  0  1  0  0  0  0  0999 V2000
  189.0900  176.2570  137.6300 C   0  0  0  0  0  3  0  0  0  0  0  0
  187.0070  175.1430  137.0520 C   0  0  0  0  0  0  0  0  0  0  0  0
  188.3910  177.4320  137.9130 C   0  0  0  0  0  3  0  0  0  0  0  0
  187.0020  177.4690  137.7690 C   0  0  0  0  0  0  0  0  0  0  0  0
  188.4110  175.1160  137.1920 C   0  0  0  0  0  0  0  0  0  0  0  0
  186.3130  176.3270  137.3510 C   0  0  0  0  0  3  0  0  0  0  0  0
  186.2550  173.9200  136.6170 C   0  0  2  0  0  3  0  0  0  0  0  0
  185.6720  174.0870  135.2220 C   0  0  0  0  0  1  0  0  0  0  0  0
  184.6610  172.4830  137.6020 O   0  0  0  0  0  0  0  0  0  0  0  0
  185.1820  173.5850  137.6040 C   0  0  0  0  0  3  0  0  0  0  0  0
  186.2470  178.7160  138.0790 C   0  0  0  0  0  2  0  0  0  0  0  0
  183.2780  178.6460  143.9230 C   0  0  0  0  0  3  0  0  0  0  0  0
  186.9060  177.9390  144.1870 C   0  0  0  0  0  0  0  0  0  0  0  0
  182.3170  178.9450  142.9470 C   0  0  0  0  0  0  0  0  0  0  0  0
  185.5620  178.1400  144.5410 C   0  0  0  0  0  3  0  0  0  0  0  0
  183.6090  179.2460  138.9230 O   0  0  0  0  0  0  0  0  0  0  0  0
  185.0000  178.5400  142.2100 C   0  0  0  0  0  0  0  0  0  0  0  0
  182.7040  179.0440  141.6050 C   0  0  0  0  0  3  0  0  0  0  0  0
  184.6110  178.4410  143.5630 C   0  0  0  0  0  0  0  0  0  0  0  0
  186.3460  178.3320  141.8560 C   0  0  0  0  0  0  0  0  0  0  0  0
  187.2890  178.0370  142.8440 C   0  0  0  0  0  3  0  0  0  0  0  0
  184.4510  178.9590  139.8170 C   0  0  0  0  0  0  0  0  0  0  0  0
  184.0400  178.8480  141.2280 C   0  0  0  0  0  0  0  0  0  0  0  0
  185.8270  178.7310  139.4760 N   0  0  0  0  0  0  0  0  0  0  0  0
  186.7510  178.4080  140.4860 N   0  0  0  0  0  2  0  0  0  0  0  0
  180.3090  180.2060  142.9650 O   0  0  0  0  0  0  0  0  0  0  0  0
  180.9120  179.1600  143.3240 C   0  0  0  0  0  0  0  0  0  0  0  0
  180.2330  178.2050  144.0750 O   0  0  0  0  0  1  0  0  0  0  0  0
  187.8800  177.6520  145.1480 O   0  0  0  0  0  0  0  0  0  0  0  0
  189.2070  178.1510  145.0660 C   0  0  0  0  0  2  0  0  0  0  0  0
  190.1290  177.2750  145.8920 C   0  0  0  0  0  2  0  0  0  0  0  0
  191.0340  176.6110  145.0590 O   0  0  0  0  0  0  0  0  0  0  0  0
  190.5000  176.6970  143.8150 N   0  0  0  0  0  0  0  0  0  0  0  0
  191.1630  177.2890  141.5710 C   0  0  0  0  0  1  0  0  0  0  0  0
  191.6050  176.6880  142.8900 C   0  0  2  0  0  3  0  0  0  0  0  0
  190.8920  175.5570  143.1320 O   0  0  0  0  0  0  0  0  0  0  0  0
  189.1980  173.8760  136.9300 C   0  0  0  0  0  2  0  0  0  0  0  0
  190.4200  173.9260  137.6540 O   0  0  0  0  0  0  0  0  0  0  0  0
  191.6590  174.1440  137.0410 C   0  0  0  0  0  0  0  0  0  0  0  0
  192.4230  175.0220  137.5210 O   0  0  0  0  0  0  0  0  0  0  0  0
  192.0810  173.4160  135.8260 C   0  0  0  0  0  0  0  0  0  0  0  0
  191.9310  173.9650  134.7040 O   0  0  0  0  0  0  0  0  0  0  0  0
  192.6620  172.1450  135.8790 O   0  0  0  0  0  0  0  0  0  0  0  0
  193.5390  171.6400  134.8760 C   0  0  0  0  0  2  0  0  0  0  0  0
  194.5160  170.6090  135.4550 C   0  0  2  0  0  0  0  0  0  0  0  0
  195.9780  171.0550  135.4350 C   0  0  2  0  0  3  0  0  0  0  0  0
  195.7220  171.9860  138.1070 C   0  0  0  0  0  2  0  0  0  0  0  0
  194.4020  169.4050  134.7610 O   0  0  0  0  0  1  0  0  0  0  0  0
  197.7450  172.9730  137.3470 F   0  0  0  0  0  0  0  0  0  0  0  0
  196.3800  172.9630  137.1150 C   0  0  2  0  0  0  0  0  0  0  0  0
  195.8380  174.3560  137.3610 C   0  0  0  0  0  1  0  0  0  0  0  0
  196.5790  170.3890  136.5200 O   0  0  0  0  0  0  0  0  0  0  0  0
  195.6350  170.5510  137.5530 C   0  0  2  0  0  3  0  0  0  0  0  0
  194.2640  170.3640  136.9230 C   0  0  0  0  0  2  0  0  0  0  0  0
  196.1370  172.5820  135.6430 C   0  0  0  0  0  2  0  0  0  0  0  0
  1  3  1  0  0  0  0
  2  5  1  0  0  0  0
  2  6  2  0  0  0  0
  4  3  2  0  0  0  0
  4 11  1  0  0  0  0
  5  1  2  0  0  0  0
  6  4  1  0  0  0  0
  7  8  1  6  0  0  0
  7  2  1  0  0  0  0
  7 10  1  0  0  0  0
  9 10  2  0  0  0  0
 11 24  1  0  0  0  0
 13 15  1  0  0  0  0
 13 29  1  0  0  0  0
 14 27  1  0  0  0  0
 14 12  2  0  0  0  0
 16 22  2  0  0  0  0
 17 19  1  0  0  0  0
 18 14  1  0  0  0  0
 19 12  1  0  0  0  0
 19 15  2  0  0  0  0
 20 17  2  0  0  0  0
 20 21  1  0  0  0  0
 21 13  2  0  0  0  0
 22 23  1  0  0  0  0
 23 18  2  0  0  0  0
 23 17  1  0  0  0  0
 24 22  1  0  0  0  0
 24 25  1  0  0  0  0
 25 20  1  0  0  0  0
 26 27  2  0  0  0  0
 27 28  1  0  0  0  0
 30 29  1  0  0  0  0
 30 31  1  0  0  0  0
 32 31  1  0  0  0  0
 33 32  1  0  0  0  0
 35 34  1  6  0  0  0
 35 36  1  0  0  0  0
 35 33  1  0  0  0  0
 36 33  1  0  0  0  0
 37  5  1  0  0  0  0
 37 38  1  0  0  0  0
 39 40  2  0  0  0  0
 39 38  1  0  0  0  0
 41 43  1  0  0  0  0
 41 39  1  0  0  0  0
 42 41  2  0  0  0  0
 44 45  1  0  0  0  0
 44 43  1  0  0  0  0
 45 48  1  6  0  0  0
 45 54  1  0  0  0  0
 46 45  1  0  0  0  0
 46 55  1  1  0  0  0
 46 52  1  0  0  0  0
 50 49  1  0  0  0  0
 50 51  1  1  0  0  0
 50 47  1  0  0  0  0
 52 53  1  0  0  0  0
 53 54  1  6  0  0  0
 53 47  1  0  0  0  0
 55 50  1  0  0  0  0
M  END
>  <MODEL>
8

>  <REMARK>
 VINA RESULT:      -7.3      2.963      9.138
  Name = 
  17 active torsions:
  status: ('A' for Active; 'I' for Inactive)
    1  A    between atoms: C_2  and  C_8
    2  A    between atoms: C_2  and  O_48
    3  A    between atoms: O_3  and  C_4
    4  A    between atoms: O_3  and  C_8
    5  A    between atoms: C_4  and  C_7
    6  A    between atoms: C_5  and  C_16
    7  A    between atoms: C_5  and  C_47
    8  A    between atoms: C_6  and  C_22
    9  A    between atoms: C_6  and  N_52
   10  A    between atoms: N_10  and  O_28
   11  A    between atoms: C_11  and  O_36
   12  A    between atoms: C_12  and  C_39
   13  A    between atoms: O_28  and  C_34
   14  A    between atoms: C_34  and  C_44
   15  A    between atoms: O_36  and  C_44
   16  A    between atoms: C_43  and  O_48
   17  A    between atoms: C_43  and  C_49
                            x       y       z     vdW  Elec       q    Type
                         _______ _______ _______ _____ _____    ______ ____

>  <TORSDO>
F 17

$$$$
=
 OpenBabel10232408443D

 55 61  0  0  1  0  0  0  0  0999 V2000
  189.5550  175.4460  138.0880 C   0  0  0  0  0  3  0  0  0  0  0  0
  187.9210  176.7470  136.8430 C   0  0  0  0  0  0  0  0  0  0  0  0
  189.7080  176.4960  138.9960 C   0  0  0  0  0  3  0  0  0  0  0  0
  188.9730  177.6720  138.8340 C   0  0  0  0  0  0  0  0  0  0  0  0
  188.6750  175.5660  137.0080 C   0  0  0  0  0  0  0  0  0  0  0  0
  188.0750  177.7920  137.7690 C   0  0  0  0  0  3  0  0  0  0  0  0
  186.9460  176.8830  135.7100 C   0  0  2  0  0  3  0  0  0  0  0  0
  187.5780  177.5600  134.5040 C   0  0  0  0  0  1  0  0  0  0  0  0
  184.6260  177.1020  136.0970 O   0  0  0  0  0  0  0  0  0  0  0  0
  185.7260  177.6260  136.1560 C   0  0  0  0  0  3  0  0  0  0  0  0
  189.1220  178.7920  139.8040 C   0  0  0  0  0  2  0  0  0  0  0  0
  187.1670  177.5680  145.9400 C   0  0  0  0  0  3  0  0  0  0  0  0
  184.3260  178.3620  143.6970 C   0  0  0  0  0  0  0  0  0  0  0  0
  188.5620  177.4300  145.8880 C   0  0  0  0  0  0  0  0  0  0  0  0
  185.0580  178.0380  144.8500 C   0  0  0  0  0  3  0  0  0  0  0  0
  190.4710  177.9930  142.1480 O   0  0  0  0  0  0  0  0  0  0  0  0
  187.1210  178.0870  143.5650 C   0  0  0  0  0  0  0  0  0  0  0  0
  189.2290  177.6170  144.6720 C   0  0  0  0  0  3  0  0  0  0  0  0
  186.4470  177.8970  144.7900 C   0  0  0  0  0  0  0  0  0  0  0  0
  186.3870  178.4190  142.4110 C   0  0  0  0  0  0  0  0  0  0  0  0
  184.9970  178.5500  142.4830 C   0  0  0  0  0  3  0  0  0  0  0  0
  189.2200  178.1320  142.2240 C   0  0  0  0  0  0  0  0  0  0  0  0
  188.5200  177.9410  143.5070 C   0  0  0  0  0  0  0  0  0  0  0  0
  188.4530  178.4810  141.0610 N   0  0  0  0  0  0  0  0  0  0  0  0
  187.0590  178.6350  141.1670 N   0  0  0  0  0  2  0  0  0  0  0  0
  188.8020  177.2150  148.2370 O   0  0  0  0  0  1  0  0  0  0  0  0
  189.3230  177.0840  147.0990 C   0  0  0  0  0  0  0  0  0  0  0  0
  190.6240  176.6000  146.9950 O   0  0  0  0  0  0  0  0  0  0  0  0
  182.9350  178.4930  143.7270 O   0  0  0  0  0  0  0  0  0  0  0  0
  182.2390  179.4550  142.9470 C   0  0  0  0  0  2  0  0  0  0  0  0
  181.2590  178.7490  142.0290 C   0  0  0  0  0  2  0  0  0  0  0  0
  181.3030  179.3160  140.7530 O   0  0  0  0  0  0  0  0  0  0  0  0
  181.5190  178.2760  139.9090 N   0  0  0  0  0  0  0  0  0  0  0  0
  181.7840  177.8540  137.5470 C   0  0  0  0  0  1  0  0  0  0  0  0
  182.0090  178.8390  138.6760 C   0  0  2  0  0  3  0  0  0  0  0  0
  182.8660  178.3000  139.5820 O   0  0  0  0  0  0  0  0  0  0  0  0
  188.5230  174.4060  136.0810 C   0  0  0  0  0  2  0  0  0  0  0  0
  187.4290  173.6030  136.5010 O   0  0  0  0  0  0  0  0  0  0  0  0
  186.4780  173.0890  135.6120 C   0  0  0  0  0  0  0  0  0  0  0  0
  185.7700  173.8960  134.9550 O   0  0  0  0  0  0  0  0  0  0  0  0
  186.2450  171.6390  135.4520 C   0  0  0  0  0  0  0  0  0  0  0  0
  187.1570  170.8350  135.7770 O   0  0  0  0  0  0  0  0  0  0  0  0
  185.0360  171.1230  134.9730 O   0  0  0  0  0  0  0  0  0  0  0  0
  184.0990  170.4280  135.7910 C   0  0  0  0  0  2  0  0  0  0  0  0
  182.6560  170.7290  135.3660 C   0  0  2  0  0  0  0  0  0  0  0  0
  181.7700  171.2580  136.4940 C   0  0  2  0  0  3  0  0  0  0  0  0
  182.3310  173.9200  135.6740 C   0  0  0  0  0  2  0  0  0  0  0  0
  182.0700  169.5810  134.8320 O   0  0  0  0  0  1  0  0  0  0  0  0
  181.3870  174.1730  137.8390 F   0  0  0  0  0  0  0  0  0  0  0  0
  182.4790  173.6350  137.1810 C   0  0  2  0  0  0  0  0  0  0  0  0
  183.7340  174.3140  137.6900 C   0  0  0  0  0  1  0  0  0  0  0  0
  180.8070  172.0630  135.8570 O   0  0  0  0  0  0  0  0  0  0  0  0
  181.5730  172.8020  134.9330 C   0  0  2  0  0  3  0  0  0  0  0  0
  182.5940  171.8400  134.3460 C   0  0  0  0  0  2  0  0  0  0  0  0
  182.5540  172.1310  137.5050 C   0  0  0  0  0  2  0  0  0  0  0  0
  1  3  1  0  0  0  0
  2  5  1  0  0  0  0
  2  6  2  0  0  0  0
  4  3  2  0  0  0  0
  4 11  1  0  0  0  0
  5  1  2  0  0  0  0
  6  4  1  0  0  0  0
  7  8  1  6  0  0  0
  7 10  1  0  0  0  0
  7  2  1  0  0  0  0
  9 10  2  0  0  0  0
 11 24  1  0  0  0  0
 13 29  1  0  0  0  0
 13 15  2  0  0  0  0
 14 12  1  0  0  0  0
 14 27  1  0  0  0  0
 16 22  2  0  0  0  0
 17 19  1  0  0  0  0
 18 14  2  0  0  0  0
 19 15  1  0  0  0  0
 19 12  2  0  0  0  0
 20 21  2  0  0  0  0
 20 17  1  0  0  0  0
 21 13  1  0  0  0  0
 22 23  1  0  0  0  0
 23 17  2  0  0  0  0
 23 18  1  0  0  0  0
 24 25  1  0  0  0  0
 24 22  1  0  0  0  0
 25 20  1  0  0  0  0
 27 26  1  0  0  0  0
 28 27  2  0  0  0  0
 30 29  1  0  0  0  0
 31 30  1  0  0  0  0
 32 31  1  0  0  0  0
 33 32  1  0  0  0  0
 35 34  1  6  0  0  0
 35 36  1  0  0  0  0
 35 33  1  0  0  0  0
 36 33  1  0  0  0  0
 37 38  1  0  0  0  0
 37  5  1  0  0  0  0
 39 38  1  0  0  0  0
 40 39  2  0  0  0  0
 41 39  1  0  0  0  0
 41 42  2  0  0  0  0
 43 41  1  0  0  0  0
 43 44  1  0  0  0  0
 45 48  1  6  0  0  0
 45 44  1  0  0  0  0
 45 46  1  0  0  0  0
 46 55  1  1  0  0  0
 47 50  1  0  0  0  0
 50 55  1  0  0  0  0
 50 51  1  1  0  0  0
 50 49  1  0  0  0  0
 52 46  1  0  0  0  0
 53 54  1  1  0  0  0
 53 47  1  0  0  0  0
 53 52  1  0  0  0  0
 54 45  1  0  0  0  0
M  END
>  <MODEL>
9

>  <REMARK>
 VINA RESULT:      -7.3      3.503     10.748
  Name = 
  17 active torsions:
  status: ('A' for Active; 'I' for Inactive)
    1  A    between atoms: C_2  and  C_8
    2  A    between atoms: C_2  and  O_48
    3  A    between atoms: O_3  and  C_4
    4  A    between atoms: O_3  and  C_8
    5  A    between atoms: C_4  and  C_7
    6  A    between atoms: C_5  and  C_16
    7  A    between atoms: C_5  and  C_47
    8  A    between atoms: C_6  and  C_22
    9  A    between atoms: C_6  and  N_52
   10  A    between atoms: N_10  and  O_28
   11  A    between atoms: C_11  and  O_36
   12  A    between atoms: C_12  and  C_39
   13  A    between atoms: O_28  and  C_34
   14  A    between atoms: C_34  and  C_44
   15  A    between atoms: O_36  and  C_44
   16  A    between atoms: C_43  and  O_48
   17  A    between atoms: C_43  and  C_49
                            x       y       z     vdW  Elec       q    Type
                         _______ _______ _______ _____ _____    ______ ____

>  <TORSDO>
F 17

$$$$
