=
 OpenBabel10232410493D

 35 38  0  0  1  0  0  0  0  0999 V2000
  190.2670  177.6940  140.9810 O   0  0  0  0  0  0  0  0  0  0  0  0
  190.4830  175.9560  142.6460 C   0  0  1  0  0  3  0  0  0  0  0  0
  190.5730  178.5520  144.0030 S   0  0  0  0  0  0  0  0  0  0  0  0
  191.6600  176.1760  144.8140 N   0  0  0  0  0  2  0  0  0  0  0  0
  189.5990  176.6180  141.5960 C   0  0  1  0  0  3  0  0  0  0  0  0
  190.5080  178.1430  145.7860 C   0  0  2  0  0  3  0  0  0  0  0  0
  191.6070  176.4660  147.1280 O   0  0  0  0  0  0  0  0  0  0  0  0
  191.8650  176.4990  142.3390 C   0  0  1  0  0  3  0  0  0  0  0  0
  191.2920  176.8840  145.9830 C   0  0  0  0  0  0  0  0  0  0  0  0
  191.6410  177.5340  141.2470 C   0  0  1  0  0  3  0  0  0  0  0  0
  191.1840  176.8670  143.6410 C   0  0  1  0  0  0  0  0  0  0  0  0
  187.2720  177.1360  147.3800 N   0  0  0  0  0  0  0  0  0  0  0  0
  189.0830  177.9600  146.2050 C   0  0  0  0  0  0  0  0  0  0  0  0
  186.6590  177.8580  146.4190 C   0  0  0  0  0  0  0  0  0  0  0  0
  187.7600  178.5860  145.3780 S   0  0  0  0  0  0  0  0  0  0  0  0
  185.1820  177.9800  146.3020 C   0  0  0  0  0  1  0  0  0  0  0  0
  188.6270  177.1820  147.2660 C   0  0  0  0  0  3  0  0  0  0  0  0
  187.7680  178.2750  140.2300 O   0  0  0  0  0  0  0  0  0  0  0  0
  188.2840  177.0100  142.1270 N   0  0  0  0  0  0  0  0  0  0  0  0
  187.4930  177.9980  141.4280 C   0  0  0  0  0  0  0  0  0  0  0  0
  187.8140  176.4260  143.3790 C   0  0  0  0  0  1  0  0  0  0  0  0
  186.3560  178.7110  142.0580 C   0  0  0  0  0  0  0  0  0  0  0  0
  186.4530  179.9480  142.2740 O   0  0  0  0  0  0  0  0  0  0  0  0
  185.1180  178.0030  142.5210 C   0  0  0  0  0  2  0  0  0  0  0  0
  183.3380  177.6560  140.8650 N   0  0  0  0  0  1  0  0  0  0  0  0
  183.8380  178.5560  141.8920 C   0  0  1  0  0  3  0  0  0  0  0  0
  183.2830  179.6280  143.9530 O   0  0  0  0  0  1  0  0  0  0  0  0
  182.7680  178.8200  142.9390 C   0  0  0  0  0  2  0  0  0  0  0  0
  192.3710  177.1490  140.0030 C   0  0  0  0  0  0  0  0  0  0  0  0
  191.6580  176.5690  138.9030 N   0  0  0  0  0  2  0  0  0  0  0  0
  193.6170  177.3240  139.9390 O   0  0  0  0  0  0  0  0  0  0  0  0
  192.6540  174.6950  137.7380 C   0  0  0  0  0  1  0  0  0  0  0  0
  193.4280  176.9130  137.4150 O   0  0  0  0  0  1  0  0  0  0  0  0
  192.2770  176.1590  137.6470 C   0  0  0  0  0  0  0  0  0  0  0  0
  191.3050  176.3450  136.4970 C   0  0  0  0  0  1  0  0  0  0  0  0
  1 10  1  0  0  0  0
  1  5  1  0  0  0  0
  2 11  1  0  0  0  0
  3  6  1  0  0  0  0
  4  9  1  0  0  0  0
  5 19  1  0  0  0  0
  5  2  1  0  0  0  0
  6  9  1  0  0  0  0
  6 13  1  0  0  0  0
  8  2  1  0  0  0  0
  8 11  1  0  0  0  0
  9  7  2  0  0  0  0
 10  8  1  0  0  0  0
 11  3  1  0  0  0  0
 11  4  1  0  0  0  0
 13 17  2  0  0  0  0
 14 12  2  0  0  0  0
 15 13  1  0  0  0  0
 15 14  1  0  0  0  0
 16 14  1  0  0  0  0
 17 12  1  0  0  0  0
 18 20  2  0  0  0  0
 19 21  1  0  0  0  0
 20 22  1  0  0  0  0
 20 19  1  0  0  0  0
 22 23  2  0  0  0  0
 22 24  1  0  0  0  0
 25 26  1  0  0  0  0
 26 24  1  0  0  0  0
 26 28  1  0  0  0  0
 28 27  1  0  0  0  0
 29 10  1  0  0  0  0
 30 29  1  0  0  0  0
 31 29  2  0  0  0  0
 33 34  1  0  0  0  0
 34 32  1  0  0  0  0
 34 30  1  0  0  0  0
 35 34  1  0  0  0  0
M  END
>  <MODEL>
1

>  <REMARK>
 VINA RESULT:      -6.9      0.000      0.000
  Name = 
  8 active torsions:
  status: ('A' for Active; 'I' for Inactive)
    1  A    between atoms: N_4  and  C_11
    2  A    between atoms: C_10  and  CA_30
    3  A    between atoms: C_12  and  C_19
    4  A    between atoms: C_12  and  C_29
    5  A    between atoms: C_14  and  C_15
    6  A    between atoms: C_20  and  C_22
    7  A    between atoms: N_23  and  C_26
    8  A    between atoms: C_29  and  CA_30
                            x       y       z     vdW  Elec       q    Type
                         _______ _______ _______ _____ _____    ______ ____

>  <TORSDO>
F 8

$$$$
=
 OpenBabel10232410493D

 35 38  0  0  1  0  0  0  0  0999 V2000
  184.7220  177.6700  142.2130 O   0  0  0  0  0  0  0  0  0  0  0  0
  185.5510  179.5940  143.4180 C   0  0  1  0  0  3  0  0  0  0  0  0
  185.4890  177.3110  145.2530 S   0  0  0  0  0  0  0  0  0  0  0  0
  185.3270  179.9740  145.8550 N   0  0  0  0  0  2  0  0  0  0  0  0
  185.7850  178.5910  142.2940 C   0  0  1  0  0  3  0  0  0  0  0  0
  186.3470  177.9040  146.7570 C   0  0  2  0  0  3  0  0  0  0  0  0
  186.2460  179.9700  147.9990 O   0  0  0  0  0  0  0  0  0  0  0  0
  184.0840  179.4150  143.7540 C   0  0  1  0  0  3  0  0  0  0  0  0
  185.9820  179.3430  146.9390 C   0  0  0  0  0  0  0  0  0  0  0  0
  183.6340  178.2310  142.9110 C   0  0  1  0  0  3  0  0  0  0  0  0
  185.1400  179.0400  144.7720 C   0  0  1  0  0  0  0  0  0  0  0  0
  189.9050  177.8730  145.5890 N   0  0  0  0  0  0  0  0  0  0  0  0
  187.8250  177.7410  146.5870 C   0  0  0  0  0  0  0  0  0  0  0  0
  190.1740  177.1060  146.6670 C   0  0  0  0  0  0  0  0  0  0  0  0
  188.8050  176.8270  147.6000 S   0  0  0  0  0  0  0  0  0  0  0  0
  191.5280  176.5730  146.9750 C   0  0  0  0  0  1  0  0  0  0  0  0
  188.5940  178.2280  145.5320 C   0  0  0  0  0  3  0  0  0  0  0  0
  188.1660  179.6040  141.1690 O   0  0  0  0  0  0  0  0  0  0  0  0
  187.0920  177.9240  142.3920 N   0  0  0  0  0  0  0  0  0  0  0  0
  188.2160  178.4350  141.6380 C   0  0  0  0  0  0  0  0  0  0  0  0
  187.2280  176.7290  143.2170 C   0  0  0  0  0  1  0  0  0  0  0  0
  189.4430  177.6430  141.3860 C   0  0  0  0  0  0  0  0  0  0  0  0
  190.4060  177.7320  142.1930 O   0  0  0  0  0  0  0  0  0  0  0  0
  189.6170  176.7940  140.1630 C   0  0  0  0  0  2  0  0  0  0  0  0
  191.2300  176.7690  138.3110 N   0  0  0  0  0  1  0  0  0  0  0  0
  190.2070  177.5590  138.9780 C   0  0  1  0  0  3  0  0  0  0  0  0
  189.0190  179.3720  137.9720 O   0  0  0  0  0  1  0  0  0  0  0  0
  189.1300  177.9810  137.9900 C   0  0  0  0  0  2  0  0  0  0  0  0
  182.5610  178.6430  141.9590 C   0  0  0  0  0  0  0  0  0  0  0  0
  182.7360  178.4460  140.5510 N   0  0  0  0  0  2  0  0  0  0  0  0
  181.5130  179.1790  142.4060 O   0  0  0  0  0  0  0  0  0  0  0  0
  182.4040  178.7660  138.1740 C   0  0  0  0  0  1  0  0  0  0  0  0
  181.2860  180.1070  139.7780 O   0  0  0  0  0  1  0  0  0  0  0  0
  181.7510  178.8130  139.5400 C   0  0  0  0  0  0  0  0  0  0  0  0
  180.5870  177.8410  139.5610 C   0  0  0  0  0  1  0  0  0  0  0  0
  1  5  1  0  0  0  0
  1 10  1  0  0  0  0
  2  8  1  0  0  0  0
  2 11  1  0  0  0  0
  3  6  1  0  0  0  0
  4  9  1  0  0  0  0
  5 19  1  0  0  0  0
  5  2  1  0  0  0  0
  6  9  1  0  0  0  0
  8 11  1  0  0  0  0
  9  7  2  0  0  0  0
 10  8  1  0  0  0  0
 11  3  1  0  0  0  0
 11  4  1  0  0  0  0
 12 14  2  0  0  0  0
 13  6  1  0  0  0  0
 13 15  1  0  0  0  0
 14 16  1  0  0  0  0
 14 15  1  0  0  0  0
 17 12  1  0  0  0  0
 17 13  2  0  0  0  0
 18 20  2  0  0  0  0
 19 21  1  0  0  0  0
 20 19  1  0  0  0  0
 22 20  1  0  0  0  0
 22 23  2  0  0  0  0
 24 22  1  0  0  0  0
 25 26  1  0  0  0  0
 26 24  1  0  0  0  0
 27 28  1  0  0  0  0
 28 26  1  0  0  0  0
 29 31  2  0  0  0  0
 29 10  1  0  0  0  0
 30 29  1  0  0  0  0
 32 34  1  0  0  0  0
 34 35  1  0  0  0  0
 34 33  1  0  0  0  0
 34 30  1  0  0  0  0
M  END
>  <MODEL>
2

>  <REMARK>
 VINA RESULT:      -6.7      2.442      7.026
  Name = 
  8 active torsions:
  status: ('A' for Active; 'I' for Inactive)
    1  A    between atoms: N_4  and  C_11
    2  A    between atoms: C_10  and  CA_30
    3  A    between atoms: C_12  and  C_19
    4  A    between atoms: C_12  and  C_29
    5  A    between atoms: C_14  and  C_15
    6  A    between atoms: C_20  and  C_22
    7  A    between atoms: N_23  and  C_26
    8  A    between atoms: C_29  and  CA_30
                            x       y       z     vdW  Elec       q    Type
                         _______ _______ _______ _____ _____    ______ ____

>  <TORSDO>
F 8

$$$$
=
 OpenBabel10232410493D

 35 38  0  0  1  0  0  0  0  0999 V2000
  191.1130  175.5830  138.4510 O   0  0  0  0  0  0  0  0  0  0  0  0
  190.2680  176.7510  136.5120 C   0  0  1  0  0  3  0  0  0  0  0  0
  188.1060  175.1110  137.6180 S   0  0  0  0  0  0  0  0  0  0  0  0
  188.4390  175.9650  135.0400 N   0  0  0  0  0  2  0  0  0  0  0  0
  190.8150  176.8570  137.9310 C   0  0  1  0  0  3  0  0  0  0  0  0
  186.6170  175.6220  136.6840 C   0  0  2  0  0  3  0  0  0  0  0  0
  186.2130  176.0600  134.3460 O   0  0  0  0  0  0  0  0  0  0  0  0
  190.6170  175.3340  136.1030 C   0  0  1  0  0  3  0  0  0  0  0  0
  187.0450  175.8940  135.2770 C   0  0  0  0  0  0  0  0  0  0  0  0
  191.1930  174.6980  137.3580 C   0  0  1  0  0  3  0  0  0  0  0  0
  189.1650  175.7350  136.2640 C   0  0  1  0  0  0  0  0  0  0  0  0
  185.8730  179.0340  138.0370 N   0  0  0  0  0  0  0  0  0  0  0  0
  186.0260  176.8440  137.3140 C   0  0  0  0  0  0  0  0  0  0  0  0
  184.7620  178.4940  138.5820 C   0  0  0  0  0  0  0  0  0  0  0  0
  184.6120  176.8600  138.2210 S   0  0  0  0  0  0  0  0  0  0  0  0
  183.7970  179.2670  139.4090 C   0  0  0  0  0  1  0  0  0  0  0  0
  186.5900  178.1190  137.3310 C   0  0  0  0  0  3  0  0  0  0  0  0
  190.6410  176.4610  140.7200 O   0  0  0  0  0  0  0  0  0  0  0  0
  189.9350  177.6300  138.8210 N   0  0  0  0  0  0  0  0  0  0  0  0
  189.7910  177.2370  140.2060 C   0  0  0  0  0  0  0  0  0  0  0  0
  189.1840  178.7590  138.2840 C   0  0  0  0  0  1  0  0  0  0  0  0
  188.6800  177.7090  141.0650 C   0  0  0  0  0  0  0  0  0  0  0  0
  187.5330  177.8500  140.5630 O   0  0  0  0  0  0  0  0  0  0  0  0
  188.8820  178.1030  142.4980 C   0  0  0  0  0  2  0  0  0  0  0  0
  188.2510  175.8330  143.1920 N   0  0  0  0  0  1  0  0  0  0  0  0
  188.0740  177.2480  143.4760 C   0  0  1  0  0  3  0  0  0  0  0  0
  187.3420  178.1050  145.5830 O   0  0  0  0  0  1  0  0  0  0  0  0
  188.4390  177.5530  144.9210 C   0  0  0  0  0  2  0  0  0  0  0  0
  192.6080  174.2780  137.1310 C   0  0  0  0  0  0  0  0  0  0  0  0
  193.6200  174.6170  138.0870 N   0  0  0  0  0  2  0  0  0  0  0  0
  192.9010  173.6410  136.0850 O   0  0  0  0  0  0  0  0  0  0  0  0
  195.7350  174.5530  139.2640 C   0  0  0  0  0  1  0  0  0  0  0  0
  195.6180  175.0040  136.9390 O   0  0  0  0  0  1  0  0  0  0  0  0
  195.0270  174.2560  137.9580 C   0  0  0  0  0  0  0  0  0  0  0  0
  195.1650  172.7770  137.6510 C   0  0  0  0  0  1  0  0  0  0  0  0
  2  5  1  0  0  0  0
  4  9  1  0  0  0  0
  4 11  1  0  0  0  0
  5  1  1  0  0  0  0
  5 19  1  0  0  0  0
  6 13  1  0  0  0  0
  6  3  1  0  0  0  0
  7  9  2  0  0  0  0
  8 11  1  0  0  0  0
  8  2  1  0  0  0  0
  8 10  1  0  0  0  0
  9  6  1  0  0  0  0
 10  1  1  0  0  0  0
 11  2  1  0  0  0  0
 11  3  1  0  0  0  0
 12 14  2  0  0  0  0
 13 17  2  0  0  0  0
 13 15  1  0  0  0  0
 14 16  1  0  0  0  0
 15 14  1  0  0  0  0
 17 12  1  0  0  0  0
 19 20  1  0  0  0  0
 20 18  2  0  0  0  0
 20 22  1  0  0  0  0
 21 19  1  0  0  0  0
 22 24  1  0  0  0  0
 23 22  2  0  0  0  0
 24 26  1  0  0  0  0
 25 26  1  0  0  0  0
 26 28  1  0  0  0  0
 28 27  1  0  0  0  0
 29 10  1  0  0  0  0
 29 30  1  0  0  0  0
 31 29  2  0  0  0  0
 33 34  1  0  0  0  0
 34 30  1  0  0  0  0
 34 32  1  0  0  0  0
 35 34  1  0  0  0  0
M  END
>  <MODEL>
3

>  <REMARK>
 VINA RESULT:      -6.4      3.512      6.713
  Name = 
  8 active torsions:
  status: ('A' for Active; 'I' for Inactive)
    1  A    between atoms: N_4  and  C_11
    2  A    between atoms: C_10  and  CA_30
    3  A    between atoms: C_12  and  C_19
    4  A    between atoms: C_12  and  C_29
    5  A    between atoms: C_14  and  C_15
    6  A    between atoms: C_20  and  C_22
    7  A    between atoms: N_23  and  C_26
    8  A    between atoms: C_29  and  CA_30
                            x       y       z     vdW  Elec       q    Type
                         _______ _______ _______ _____ _____    ______ ____

>  <TORSDO>
F 8

$$$$
=
 OpenBabel10232410493D

 35 38  0  0  1  0  0  0  0  0999 V2000
  184.7840  178.1530  141.1250 O   0  0  0  0  0  0  0  0  0  0  0  0
  185.6030  179.5570  142.9130 C   0  0  1  0  0  3  0  0  0  0  0  0
  186.3730  176.7890  143.4870 S   0  0  0  0  0  0  0  0  0  0  0  0
  185.9760  178.8390  145.2530 N   0  0  0  0  0  2  0  0  0  0  0  0
  185.6790  179.1950  141.4340 C   0  0  1  0  0  3  0  0  0  0  0  0
  187.4980  176.9110  144.9250 C   0  0  2  0  0  3  0  0  0  0  0  0
  187.4190  178.1910  146.9680 O   0  0  0  0  0  0  0  0  0  0  0  0
  184.3210  178.8930  143.3740 C   0  0  1  0  0  3  0  0  0  0  0  0
  186.9820  178.0070  145.8010 C   0  0  0  0  0  0  0  0  0  0  0  0
  183.8480  178.0860  142.1760 C   0  0  1  0  0  3  0  0  0  0  0  0
  185.6530  178.4140  143.9140 C   0  0  1  0  0  0  0  0  0  0  0  0
  190.9120  178.3060  144.2730 N   0  0  0  0  0  0  0  0  0  0  0  0
  188.8850  177.2100  144.4490 C   0  0  0  0  0  0  0  0  0  0  0  0
  191.0060  177.4090  143.2680 C   0  0  0  0  0  0  0  0  0  0  0  0
  189.6300  176.4530  143.1470 S   0  0  0  0  0  0  0  0  0  0  0  0
  192.1910  177.2990  142.3770 C   0  0  0  0  0  1  0  0  0  0  0  0
  189.7290  178.2070  144.9350 C   0  0  0  0  0  3  0  0  0  0  0  0
  186.3660  178.4120  138.8110 O   0  0  0  0  0  0  0  0  0  0  0  0
  187.0510  178.9000  140.9930 N   0  0  0  0  0  0  0  0  0  0  0  0
  187.2780  178.3420  139.6780 C   0  0  0  0  0  0  0  0  0  0  0  0
  188.1640  179.1340  141.9060 C   0  0  0  0  0  1  0  0  0  0  0  0
  188.5480  177.6850  139.2900 C   0  0  0  0  0  0  0  0  0  0  0  0
  189.6300  178.1020  139.7830 O   0  0  0  0  0  0  0  0  0  0  0  0
  188.6080  176.5880  138.2700 C   0  0  0  0  0  2  0  0  0  0  0  0
  190.5030  175.0350  138.0930 N   0  0  0  0  0  1  0  0  0  0  0  0
  190.0160  176.3540  137.7200 C   0  0  1  0  0  3  0  0  0  0  0  0
  189.3320  177.6620  135.8420 O   0  0  0  0  0  1  0  0  0  0  0  0
  190.0670  176.5350  136.2110 C   0  0  0  0  0  2  0  0  0  0  0  0
  182.5120  178.5660  141.7150 C   0  0  0  0  0  0  0  0  0  0  0  0
  182.2670  178.7740  140.3180 N   0  0  0  0  0  2  0  0  0  0  0  0
  181.6130  178.8000  142.5660 O   0  0  0  0  0  0  0  0  0  0  0  0
  181.2230  179.7080  138.3440 C   0  0  0  0  0  1  0  0  0  0  0  0
  180.5140  180.3060  140.5250 O   0  0  0  0  0  1  0  0  0  0  0  0
  181.0000  179.2400  139.7660 C   0  0  0  0  0  0  0  0  0  0  0  0
  179.9830  178.1140  139.7580 C   0  0  0  0  0  1  0  0  0  0  0  0
  1  5  1  0  0  0  0
  1 10  1  0  0  0  0
  2  8  1  0  0  0  0
  2 11  1  0  0  0  0
  3 11  1  0  0  0  0
  3  6  1  0  0  0  0
  4  9  1  0  0  0  0
  5  2  1  0  0  0  0
  6  9  1  0  0  0  0
  8 11  1  0  0  0  0
  9  7  2  0  0  0  0
 10  8  1  0  0  0  0
 11  4  1  0  0  0  0
 12 17  1  0  0  0  0
 13  6  1  0  0  0  0
 13 17  2  0  0  0  0
 14 12  2  0  0  0  0
 15 14  1  0  0  0  0
 15 13  1  0  0  0  0
 16 14  1  0  0  0  0
 18 20  2  0  0  0  0
 19  5  1  0  0  0  0
 19 21  1  0  0  0  0
 20 19  1  0  0  0  0
 22 20  1  0  0  0  0
 22 23  2  0  0  0  0
 24 22  1  0  0  0  0
 26 25  1  0  0  0  0
 26 24  1  0  0  0  0
 27 28  1  0  0  0  0
 28 26  1  0  0  0  0
 29 10  1  0  0  0  0
 29 31  2  0  0  0  0
 30 29  1  0  0  0  0
 32 34  1  0  0  0  0
 34 30  1  0  0  0  0
 34 33  1  0  0  0  0
 35 34  1  0  0  0  0
M  END
>  <MODEL>
4

>  <REMARK>
 VINA RESULT:      -6.1      2.498      7.379
  Name = 
  8 active torsions:
  status: ('A' for Active; 'I' for Inactive)
    1  A    between atoms: N_4  and  C_11
    2  A    between atoms: C_10  and  CA_30
    3  A    between atoms: C_12  and  C_19
    4  A    between atoms: C_12  and  C_29
    5  A    between atoms: C_14  and  C_15
    6  A    between atoms: C_20  and  C_22
    7  A    between atoms: N_23  and  C_26
    8  A    between atoms: C_29  and  CA_30
                            x       y       z     vdW  Elec       q    Type
                         _______ _______ _______ _____ _____    ______ ____

>  <TORSDO>
F 8

$$$$
=
 OpenBabel10232410493D

 35 38  0  0  1  0  0  0  0  0999 V2000
  188.4900  177.4200  140.6150 O   0  0  0  0  0  0  0  0  0  0  0  0
  189.5490  178.2770  138.6180 C   0  0  1  0  0  3  0  0  0  0  0  0
  188.3700  175.6680  137.9920 S   0  0  0  0  0  0  0  0  0  0  0  0
  190.4910  176.9050  136.7850 N   0  0  0  0  0  2  0  0  0  0  0  0
  188.4410  178.4470  139.6520 C   0  0  1  0  0  3  0  0  0  0  0  0
  188.5330  175.5130  136.1760 C   0  0  2  0  0  3  0  0  0  0  0  0
  190.3270  176.0030  134.6390 O   0  0  0  0  0  0  0  0  0  0  0  0
  190.4830  177.2720  139.2620 C   0  0  1  0  0  3  0  0  0  0  0  0
  189.8350  176.1390  135.7900 C   0  0  0  0  0  0  0  0  0  0  0  0
  189.7700  176.8360  140.5320 C   0  0  1  0  0  3  0  0  0  0  0  0
  189.7240  176.8970  138.0060 C   0  0  1  0  0  0  0  0  0  0  0  0
  186.2350  177.8360  134.3460 N   0  0  0  0  0  0  0  0  0  0  0  0
  187.3850  176.2040  135.5100 C   0  0  0  0  0  0  0  0  0  0  0  0
  185.2290  177.0210  134.7270 C   0  0  0  0  0  0  0  0  0  0  0  0
  185.7820  175.7140  135.6260 S   0  0  0  0  0  0  0  0  0  0  0  0
  183.8020  177.2700  134.3900 C   0  0  0  0  0  1  0  0  0  0  0  0
  187.4440  177.3910  134.7830 C   0  0  0  0  0  3  0  0  0  0  0  0
  186.0490  178.7570  141.1170 O   0  0  0  0  0  0  0  0  0  0  0  0
  187.1100  178.5750  139.0410 N   0  0  0  0  0  0  0  0  0  0  0  0
  185.9310  178.5570  139.8780 C   0  0  0  0  0  0  0  0  0  0  0  0
  186.9940  178.6750  137.5900 C   0  0  0  0  0  1  0  0  0  0  0  0
  184.5690  178.3140  139.3470 C   0  0  0  0  0  0  0  0  0  0  0  0
  184.4060  177.4390  138.4550 O   0  0  0  0  0  0  0  0  0  0  0  0
  183.3820  179.1240  139.7720 C   0  0  0  0  0  2  0  0  0  0  0  0
  182.8380  178.7450  142.1370 N   0  0  0  0  0  1  0  0  0  0  0  0
  182.4820  178.3950  140.7710 C   0  0  1  0  0  3  0  0  0  0  0  0
  180.7230  178.5040  139.1590 O   0  0  0  0  0  1  0  0  0  0  0  0
  181.0110  178.6800  140.5130 C   0  0  0  0  0  2  0  0  0  0  0  0
  190.5810  177.1850  141.7350 C   0  0  0  0  0  0  0  0  0  0  0  0
  189.9450  177.3270  143.0120 N   0  0  0  0  0  2  0  0  0  0  0  0
  191.8200  177.3700  141.6110 O   0  0  0  0  0  0  0  0  0  0  0  0
  191.2400  179.0520  144.1110 C   0  0  0  0  0  1  0  0  0  0  0  0
  191.6730  176.7500  144.4770 O   0  0  0  0  0  1  0  0  0  0  0  0
  190.6460  177.6660  144.2460 C   0  0  0  0  0  0  0  0  0  0  0  0
  189.6820  177.6580  145.4180 C   0  0  0  0  0  1  0  0  0  0  0  0
  2  8  1  0  0  0  0
  2  5  1  0  0  0  0
  3 11  1  0  0  0  0
  4 11  1  0  0  0  0
  5  1  1  0  0  0  0
  6  3  1  0  0  0  0
  7  9  2  0  0  0  0
  8 10  1  0  0  0  0
  9  6  1  0  0  0  0
  9  4  1  0  0  0  0
 10  1  1  0  0  0  0
 10 29  1  0  0  0  0
 11  2  1  0  0  0  0
 11  8  1  0  0  0  0
 12 14  2  0  0  0  0
 12 17  1  0  0  0  0
 13 15  1  0  0  0  0
 13  6  1  0  0  0  0
 14 15  1  0  0  0  0
 16 14  1  0  0  0  0
 17 13  2  0  0  0  0
 19  5  1  0  0  0  0
 19 20  1  0  0  0  0
 20 18  2  0  0  0  0
 21 19  1  0  0  0  0
 22 24  1  0  0  0  0
 22 20  1  0  0  0  0
 23 22  2  0  0  0  0
 24 26  1  0  0  0  0
 26 25  1  0  0  0  0
 27 28  1  0  0  0  0
 28 26  1  0  0  0  0
 29 30  1  0  0  0  0
 30 34  1  0  0  0  0
 31 29  2  0  0  0  0
 32 34  1  0  0  0  0
 34 33  1  0  0  0  0
 34 35  1  0  0  0  0
M  END
>  <MODEL>
5

>  <REMARK>
 VINA RESULT:      -6.1      3.888      7.256
  Name = 
  8 active torsions:
  status: ('A' for Active; 'I' for Inactive)
    1  A    between atoms: N_4  and  C_11
    2  A    between atoms: C_10  and  CA_30
    3  A    between atoms: C_12  and  C_19
    4  A    between atoms: C_12  and  C_29
    5  A    between atoms: C_14  and  C_15
    6  A    between atoms: C_20  and  C_22
    7  A    between atoms: N_23  and  C_26
    8  A    between atoms: C_29  and  CA_30
                            x       y       z     vdW  Elec       q    Type
                         _______ _______ _______ _____ _____    ______ ____

>  <TORSDO>
F 8

$$$$
=
 OpenBabel10232410493D

 35 38  0  0  1  0  0  0  0  0999 V2000
  190.7310  176.5600  142.0930 O   0  0  0  0  0  0  0  0  0  0  0  0
  189.3720  178.5560  142.1950 C   0  0  1  0  0  3  0  0  0  0  0  0
  187.8300  176.3300  143.3150 S   0  0  0  0  0  0  0  0  0  0  0  0
  186.8970  178.6170  142.1400 N   0  0  0  0  0  2  0  0  0  0  0  0
  190.6250  177.8360  142.6800 C   0  0  1  0  0  3  0  0  0  0  0  0
  186.3400  177.1150  144.0310 C   0  0  2  0  0  3  0  0  0  0  0  0
  184.8510  178.8400  143.2400 O   0  0  0  0  0  0  0  0  0  0  0  0
  188.9420  177.7440  140.9880 C   0  0  1  0  0  3  0  0  0  0  0  0
  185.9550  178.2430  143.1290 C   0  0  0  0  0  0  0  0  0  0  0  0
  189.8830  176.5500  140.9680 C   0  0  1  0  0  3  0  0  0  0  0  0
  188.0670  177.7780  142.2240 C   0  0  1  0  0  0  0  0  0  0  0  0
  186.6240  179.0000  147.2540 N   0  0  0  0  0  0  0  0  0  0  0  0
  186.6490  177.6090  145.4090 C   0  0  0  0  0  0  0  0  0  0  0  0
  187.5580  178.0950  147.6160 C   0  0  0  0  0  0  0  0  0  0  0  0
  187.8020  176.9320  146.4280 S   0  0  0  0  0  0  0  0  0  0  0  0
  188.2820  178.1390  148.9140 C   0  0  0  0  0  1  0  0  0  0  0  0
  186.1150  178.7410  146.0210 C   0  0  0  0  0  3  0  0  0  0  0  0
  192.1260  175.9180  144.1060 O   0  0  0  0  0  0  0  0  0  0  0  0
  190.7160  177.7840  144.1470 N   0  0  0  0  0  0  0  0  0  0  0  0
  191.3700  176.6630  144.7850 C   0  0  0  0  0  0  0  0  0  0  0  0
  190.1080  178.8450  144.9410 C   0  0  0  0  0  1  0  0  0  0  0  0
  191.1950  176.3410  146.2220 C   0  0  0  0  0  0  0  0  0  0  0  0
  190.5830  175.2870  146.5440 O   0  0  0  0  0  0  0  0  0  0  0  0
  191.6510  177.2600  147.3150 C   0  0  0  0  0  2  0  0  0  0  0  0
  193.4410  175.7160  147.9820 N   0  0  0  0  0  1  0  0  0  0  0  0
  192.3370  176.5280  148.4690 C   0  0  1  0  0  3  0  0  0  0  0  0
  194.1280  177.1860  149.9080 O   0  0  0  0  0  1  0  0  0  0  0  0
  192.8180  177.4960  149.5400 C   0  0  0  0  0  2  0  0  0  0  0  0
  190.6870  176.5380  139.7100 C   0  0  0  0  0  0  0  0  0  0  0  0
  190.6050  175.4210  138.8170 N   0  0  0  0  0  2  0  0  0  0  0  0
  191.4470  177.5090  139.4550 O   0  0  0  0  0  0  0  0  0  0  0  0
  191.1270  173.9330  136.9800 C   0  0  0  0  0  1  0  0  0  0  0  0
  192.7110  175.4910  137.8060 O   0  0  0  0  0  1  0  0  0  0  0  0
  191.3480  175.3110  137.5660 C   0  0  0  0  0  0  0  0  0  0  0  0
  190.8630  176.3510  136.5730 C   0  0  0  0  0  1  0  0  0  0  0  0
  1  5  1  0  0  0  0
  2 11  1  0  0  0  0
  2  5  1  0  0  0  0
  3  6  1  0  0  0  0
  4 11  1  0  0  0  0
  4  9  1  0  0  0  0
  5 19  1  0  0  0  0
  6 13  1  0  0  0  0
  8  2  1  0  0  0  0
  8 11  1  0  0  0  0
  9  7  2  0  0  0  0
  9  6  1  0  0  0  0
 10  8  1  0  0  0  0
 10  1  1  0  0  0  0
 11  3  1  0  0  0  0
 12 14  2  0  0  0  0
 13 17  2  0  0  0  0
 13 15  1  0  0  0  0
 14 16  1  0  0  0  0
 15 14  1  0  0  0  0
 17 12  1  0  0  0  0
 18 20  2  0  0  0  0
 19 20  1  0  0  0  0
 19 21  1  0  0  0  0
 20 22  1  0  0  0  0
 22 23  2  0  0  0  0
 22 24  1  0  0  0  0
 24 26  1  0  0  0  0
 25 26  1  0  0  0  0
 26 28  1  0  0  0  0
 28 27  1  0  0  0  0
 29 10  1  0  0  0  0
 30 29  1  0  0  0  0
 31 29  2  0  0  0  0
 32 34  1  0  0  0  0
 34 33  1  0  0  0  0
 34 30  1  0  0  0  0
 35 34  1  0  0  0  0
M  END
>  <MODEL>
6

>  <REMARK>
 VINA RESULT:      -5.9      2.000      5.665
  Name = 
  8 active torsions:
  status: ('A' for Active; 'I' for Inactive)
    1  A    between atoms: N_4  and  C_11
    2  A    between atoms: C_10  and  CA_30
    3  A    between atoms: C_12  and  C_19
    4  A    between atoms: C_12  and  C_29
    5  A    between atoms: C_14  and  C_15
    6  A    between atoms: C_20  and  C_22
    7  A    between atoms: N_23  and  C_26
    8  A    between atoms: C_29  and  CA_30
                            x       y       z     vdW  Elec       q    Type
                         _______ _______ _______ _____ _____    ______ ____

>  <TORSDO>
F 8

$$$$
=
 OpenBabel10232410493D

 35 38  0  0  1  0  0  0  0  0999 V2000
  187.2520  176.0510  137.4340 O   0  0  0  0  0  0  0  0  0  0  0  0
  185.8670  175.7650  135.4740 C   0  0  1  0  0  3  0  0  0  0  0  0
  184.5870  174.3850  137.7200 S   0  0  0  0  0  0  0  0  0  0  0  0
  184.3530  173.8530  135.0470 N   0  0  0  0  0  2  0  0  0  0  0  0
  186.4510  176.7330  136.4970 C   0  0  1  0  0  3  0  0  0  0  0  0
  182.9420  173.8960  137.0830 C   0  0  2  0  0  3  0  0  0  0  0  0
  182.2060  172.9400  134.9940 O   0  0  0  0  0  0  0  0  0  0  0  0
  186.6900  174.5070  135.6670 C   0  0  1  0  0  3  0  0  0  0  0  0
  183.1150  173.5190  135.6470 C   0  0  0  0  0  0  0  0  0  0  0  0
  187.5680  174.7980  136.8740 C   0  0  1  0  0  3  0  0  0  0  0  0
  185.2140  174.5000  136.0060 C   0  0  1  0  0  0  0  0  0  0  0  0
  180.5200  176.7130  136.6070 N   0  0  0  0  0  0  0  0  0  0  0  0
  181.9890  175.0410  137.2290 C   0  0  0  0  0  0  0  0  0  0  0  0
  180.6700  176.9660  137.9250 C   0  0  0  0  0  0  0  0  0  0  0  0
  181.7230  175.8820  138.6590 S   0  0  0  0  0  0  0  0  0  0  0  0
  179.9830  178.0810  138.6280 C   0  0  0  0  0  1  0  0  0  0  0  0
  181.2580  175.6420  136.2070 C   0  0  0  0  0  3  0  0  0  0  0  0
  186.9370  178.4230  138.7040 O   0  0  0  0  0  0  0  0  0  0  0  0
  185.4230  177.5640  137.1430 N   0  0  0  0  0  0  0  0  0  0  0  0
  185.7320  178.2620  138.3700 C   0  0  0  0  0  0  0  0  0  0  0  0
  184.0890  177.6370  136.5570 C   0  0  0  0  0  1  0  0  0  0  0  0
  184.6890  178.8100  139.2700 C   0  0  0  0  0  0  0  0  0  0  0  0
  184.4210  180.0400  139.2190 O   0  0  0  0  0  0  0  0  0  0  0  0
  183.9910  177.9720  140.2980 C   0  0  0  0  0  2  0  0  0  0  0  0
  182.0640  178.6120  141.6790 N   0  0  0  0  0  1  0  0  0  0  0  0
  183.4970  178.7800  141.4990 C   0  0  1  0  0  3  0  0  0  0  0  0
  184.8290  179.5430  143.3290 O   0  0  0  0  0  1  0  0  0  0  0  0
  184.2420  178.4070  142.7710 C   0  0  0  0  0  2  0  0  0  0  0  0
  189.0110  174.7450  136.4970 C   0  0  0  0  0  0  0  0  0  0  0  0
  189.9850  175.4370  137.2880 N   0  0  0  0  0  2  0  0  0  0  0  0
  189.3570  174.1020  135.4700 O   0  0  0  0  0  0  0  0  0  0  0  0
  192.1120  176.3390  138.0130 C   0  0  0  0  0  1  0  0  0  0  0  0
  191.6430  175.9500  135.7220 O   0  0  0  0  0  1  0  0  0  0  0  0
  191.4160  175.4490  137.0040 C   0  0  0  0  0  0  0  0  0  0  0  0
  191.9860  174.0470  137.1120 C   0  0  0  0  0  1  0  0  0  0  0  0
  2  8  1  0  0  0  0
  2 11  1  0  0  0  0
  2  5  1  0  0  0  0
  4  9  1  0  0  0  0
  4 11  1  0  0  0  0
  5 19  1  0  0  0  0
  5  1  1  0  0  0  0
  6 13  1  0  0  0  0
  6  3  1  0  0  0  0
  7  9  2  0  0  0  0
  8 11  1  0  0  0  0
  8 10  1  0  0  0  0
  9  6  1  0  0  0  0
 10  1  1  0  0  0  0
 11  3  1  0  0  0  0
 12 14  2  0  0  0  0
 13 15  1  0  0  0  0
 14 16  1  0  0  0  0
 14 15  1  0  0  0  0
 17 12  1  0  0  0  0
 17 13  2  0  0  0  0
 19 20  1  0  0  0  0
 20 18  2  0  0  0  0
 20 22  1  0  0  0  0
 21 19  1  0  0  0  0
 22 24  1  0  0  0  0
 23 22  2  0  0  0  0
 24 26  1  0  0  0  0
 26 25  1  0  0  0  0
 26 28  1  0  0  0  0
 28 27  1  0  0  0  0
 29 10  1  0  0  0  0
 29 30  1  0  0  0  0
 31 29  2  0  0  0  0
 33 34  1  0  0  0  0
 34 35  1  0  0  0  0
 34 30  1  0  0  0  0
 34 32  1  0  0  0  0
M  END
>  <MODEL>
7

>  <REMARK>
 VINA RESULT:      -5.7      5.028      7.925
  Name = 
  8 active torsions:
  status: ('A' for Active; 'I' for Inactive)
    1  A    between atoms: N_4  and  C_11
    2  A    between atoms: C_10  and  CA_30
    3  A    between atoms: C_12  and  C_19
    4  A    between atoms: C_12  and  C_29
    5  A    between atoms: C_14  and  C_15
    6  A    between atoms: C_20  and  C_22
    7  A    between atoms: N_23  and  C_26
    8  A    between atoms: C_29  and  CA_30
                            x       y       z     vdW  Elec       q    Type
                         _______ _______ _______ _____ _____    ______ ____

>  <TORSDO>
F 8

$$$$
=
 OpenBabel10232410493D

 35 38  0  0  1  0  0  0  0  0999 V2000
  188.8350  177.8170  141.2360 O   0  0  0  0  0  0  0  0  0  0  0  0
  189.5270  175.9600  142.6190 C   0  0  1  0  0  3  0  0  0  0  0  0
  190.3550  178.4470  143.9290 S   0  0  0  0  0  0  0  0  0  0  0  0
  191.4630  175.9570  144.1630 N   0  0  0  0  0  2  0  0  0  0  0  0
  188.3650  176.7470  142.0220 C   0  0  1  0  0  3  0  0  0  0  0  0
  190.9480  177.9240  145.5790 C   0  0  2  0  0  3  0  0  0  0  0  0
  192.3320  176.0940  146.3240 O   0  0  0  0  0  0  0  0  0  0  0  0
  190.7240  176.4330  141.8180 C   0  0  1  0  0  3  0  0  0  0  0  0
  191.6370  176.6080  145.4080 C   0  0  0  0  0  0  0  0  0  0  0  0
  190.1860  177.5510  140.9390 C   0  0  1  0  0  3  0  0  0  0  0  0
  190.6330  176.7550  143.2950 C   0  0  1  0  0  0  0  0  0  0  0  0
  187.9170  178.4400  147.7180 N   0  0  0  0  0  0  0  0  0  0  0  0
  189.7850  177.8060  146.5140 C   0  0  0  0  0  0  0  0  0  0  0  0
  188.1550  177.2100  148.2210 C   0  0  0  0  0  0  0  0  0  0  0  0
  189.5010  176.4900  147.5190 S   0  0  0  0  0  0  0  0  0  0  0  0
  187.3180  176.5820  149.2780 C   0  0  0  0  0  1  0  0  0  0  0  0
  188.8260  178.7850  146.7670 C   0  0  0  0  0  3  0  0  0  0  0  0
  186.2010  178.4820  141.5030 O   0  0  0  0  0  0  0  0  0  0  0  0
  187.3970  177.1860  143.0390 N   0  0  0  0  0  0  0  0  0  0  0  0
  186.4280  178.2080  142.7120 C   0  0  0  0  0  0  0  0  0  0  0  0
  187.4550  176.6130  144.3790 C   0  0  0  0  0  1  0  0  0  0  0  0
  185.6730  178.9610  143.7420 C   0  0  0  0  0  0  0  0  0  0  0  0
  186.1570  179.0680  144.9000 O   0  0  0  0  0  0  0  0  0  0  0  0
  184.3140  179.5370  143.4830 C   0  0  0  0  0  2  0  0  0  0  0  0
  183.0770  179.1650  145.5730 N   0  0  0  0  0  1  0  0  0  0  0  0
  183.1900  178.7660  144.1790 C   0  0  1  0  0  3  0  0  0  0  0  0
  182.0270  178.7400  142.0930 O   0  0  0  0  0  1  0  0  0  0  0  0
  181.8610  178.9440  143.4630 C   0  0  0  0  0  2  0  0  0  0  0  0
  190.3430  177.2040  139.4950 C   0  0  0  0  0  0  0  0  0  0  0  0
  190.8630  175.9240  139.1170 N   0  0  0  0  0  2  0  0  0  0  0  0
  190.0300  178.0540  138.6200 O   0  0  0  0  0  0  0  0  0  0  0  0
  189.8590  175.9140  136.9140 C   0  0  0  0  0  1  0  0  0  0  0  0
  191.1740  174.1000  137.6890 O   0  0  0  0  0  1  0  0  0  0  0  0
  191.0570  175.4900  137.7380 C   0  0  0  0  0  0  0  0  0  0  0  0
  192.3040  176.1270  137.1550 C   0  0  0  0  0  1  0  0  0  0  0  0
  1  5  1  0  0  0  0
  2 11  1  0  0  0  0
  3  6  1  0  0  0  0
  4  9  1  0  0  0  0
  5  2  1  0  0  0  0
  5 19  1  0  0  0  0
  6 13  1  0  0  0  0
  8  2  1  0  0  0  0
  8 11  1  0  0  0  0
  9  6  1  0  0  0  0
  9  7  2  0  0  0  0
 10  1  1  0  0  0  0
 10  8  1  0  0  0  0
 11  3  1  0  0  0  0
 11  4  1  0  0  0  0
 12 14  2  0  0  0  0
 13 17  2  0  0  0  0
 13 15  1  0  0  0  0
 14 16  1  0  0  0  0
 15 14  1  0  0  0  0
 17 12  1  0  0  0  0
 18 20  2  0  0  0  0
 19 21  1  0  0  0  0
 20 19  1  0  0  0  0
 20 22  1  0  0  0  0
 22 23  2  0  0  0  0
 24 22  1  0  0  0  0
 24 26  1  0  0  0  0
 26 25  1  0  0  0  0
 27 28  1  0  0  0  0
 28 26  1  0  0  0  0
 29 10  1  0  0  0  0
 30 29  1  0  0  0  0
 31 29  2  0  0  0  0
 32 34  1  0  0  0  0
 33 34  1  0  0  0  0
 34 30  1  0  0  0  0
 35 34  1  0  0  0  0
M  END
>  <MODEL>
8

>  <REMARK>
 VINA RESULT:      -5.6      1.857      2.136
  Name = 
  8 active torsions:
  status: ('A' for Active; 'I' for Inactive)
    1  A    between atoms: N_4  and  C_11
    2  A    between atoms: C_10  and  CA_30
    3  A    between atoms: C_12  and  C_19
    4  A    between atoms: C_12  and  C_29
    5  A    between atoms: C_14  and  C_15
    6  A    between atoms: C_20  and  C_22
    7  A    between atoms: N_23  and  C_26
    8  A    between atoms: C_29  and  CA_30
                            x       y       z     vdW  Elec       q    Type
                         _______ _______ _______ _____ _____    ______ ____

>  <TORSDO>
F 8

$$$$
=
 OpenBabel10232410493D

 35 38  0  0  1  0  0  0  0  0999 V2000
  190.8690  176.0660  139.1400 O   0  0  0  0  0  0  0  0  0  0  0  0
  190.0740  177.6730  137.5200 C   0  0  1  0  0  3  0  0  0  0  0  0
  188.2210  175.4030  137.5550 S   0  0  0  0  0  0  0  0  0  0  0  0
  188.7290  177.1460  135.5090 N   0  0  0  0  0  2  0  0  0  0  0  0
  190.3590  177.3700  138.9870 C   0  0  1  0  0  3  0  0  0  0  0  0
  186.8130  175.9410  136.5180 C   0  0  2  0  0  3  0  0  0  0  0  0
  186.6750  177.0910  134.4020 O   0  0  0  0  0  0  0  0  0  0  0  0
  190.8080  176.5710  136.7810 C   0  0  1  0  0  3  0  0  0  0  0  0
  187.3720  176.7570  135.3970 C   0  0  0  0  0  0  0  0  0  0  0  0
  191.3220  175.6470  137.8740 C   0  0  1  0  0  3  0  0  0  0  0  0
  189.2950  176.6330  136.7320 C   0  0  1  0  0  0  0  0  0  0  0  0
  183.9890  177.2350  138.6100 N   0  0  0  0  0  0  0  0  0  0  0  0
  185.8610  176.7460  137.3470 C   0  0  0  0  0  0  0  0  0  0  0  0
  184.5450  178.4580  138.4710 C   0  0  0  0  0  0  0  0  0  0  0  0
  185.9560  178.4100  137.5610 S   0  0  0  0  0  0  0  0  0  0  0  0
  183.9600  179.6940  139.0550 C   0  0  0  0  0  1  0  0  0  0  0  0
  184.7140  176.2720  137.9800 C   0  0  0  0  0  3  0  0  0  0  0  0
  190.4340  177.2720  141.8060 O   0  0  0  0  0  0  0  0  0  0  0  0
  189.1960  177.6180  139.8520 N   0  0  0  0  0  0  0  0  0  0  0  0
  189.2960  177.3770  141.2740 C   0  0  0  0  0  0  0  0  0  0  0  0
  187.9420  178.0660  139.2580 C   0  0  0  0  0  1  0  0  0  0  0  0
  188.1110  177.2460  142.1540 C   0  0  0  0  0  0  0  0  0  0  0  0
  187.9270  176.1680  142.7800 O   0  0  0  0  0  0  0  0  0  0  0  0
  187.0730  178.3220  142.2720 C   0  0  0  0  0  2  0  0  0  0  0  0
  186.0920  178.3890  144.5230 N   0  0  0  0  0  1  0  0  0  0  0  0
  185.8920  177.9240  143.1600 C   0  0  1  0  0  3  0  0  0  0  0  0
  183.6310  178.5350  143.6300 O   0  0  0  0  0  1  0  0  0  0  0  0
  184.5740  178.4440  142.6060 C   0  0  0  0  0  2  0  0  0  0  0  0
  192.8130  175.5840  137.8480 C   0  0  0  0  0  0  0  0  0  0  0  0
  193.4760  174.3180  137.7370 N   0  0  0  0  0  2  0  0  0  0  0  0
  193.4770  176.6500  137.9420 O   0  0  0  0  0  0  0  0  0  0  0  0
  195.2480  172.6710  137.6420 C   0  0  0  0  0  1  0  0  0  0  0  0
  195.4930  174.6910  138.8590 O   0  0  0  0  0  1  0  0  0  0  0  0
  194.9250  174.1490  137.7050 C   0  0  0  0  0  0  0  0  0  0  0  0
  195.5070  174.8320  136.4810 C   0  0  0  0  0  1  0  0  0  0  0  0
  2  5  1  0  0  0  0
  4 11  1  0  0  0  0
  5  1  1  0  0  0  0
  5 19  1  0  0  0  0
  6 13  1  0  0  0  0
  6  3  1  0  0  0  0
  7  9  2  0  0  0  0
  8  2  1  0  0  0  0
  8 10  1  0  0  0  0
  9  4  1  0  0  0  0
  9  6  1  0  0  0  0
 10  1  1  0  0  0  0
 11  8  1  0  0  0  0
 11  2  1  0  0  0  0
 11  3  1  0  0  0  0
 13 15  1  0  0  0  0
 13 17  2  0  0  0  0
 14 12  2  0  0  0  0
 14 16  1  0  0  0  0
 15 14  1  0  0  0  0
 17 12  1  0  0  0  0
 19 20  1  0  0  0  0
 20 18  2  0  0  0  0
 20 22  1  0  0  0  0
 21 19  1  0  0  0  0
 22 24  1  0  0  0  0
 22 23  2  0  0  0  0
 24 26  1  0  0  0  0
 26 25  1  0  0  0  0
 28 26  1  0  0  0  0
 28 27  1  0  0  0  0
 29 10  1  0  0  0  0
 29 31  2  0  0  0  0
 30 29  1  0  0  0  0
 32 34  1  0  0  0  0
 34 30  1  0  0  0  0
 34 33  1  0  0  0  0
 35 34  1  0  0  0  0
M  END
>  <MODEL>
9

>  <REMARK>
 VINA RESULT:      -5.5      3.380      6.227
  Name = 
  8 active torsions:
  status: ('A' for Active; 'I' for Inactive)
    1  A    between atoms: N_4  and  C_11
    2  A    between atoms: C_10  and  CA_30
    3  A    between atoms: C_12  and  C_19
    4  A    between atoms: C_12  and  C_29
    5  A    between atoms: C_14  and  C_15
    6  A    between atoms: C_20  and  C_22
    7  A    between atoms: N_23  and  C_26
    8  A    between atoms: C_29  and  CA_30
                            x       y       z     vdW  Elec       q    Type
                         _______ _______ _______ _____ _____    ______ ____

>  <TORSDO>
F 8

$$$$
