=
 OpenBabel10232411323D

 27 29  0  0  1  0  0  0  0  0999 V2000
  186.7890  178.1640  141.9710 N   0  0  0  0  0  0  0  0  0  0  0  0
  188.0690  177.9230  141.9390 C   0  0  0  0  0  0  0  0  0  0  0  0
  191.1260  177.2600  144.8780 C   0  0  0  0  0  0  0  0  0  0  0  0
  190.0320  178.8550  143.2520 C   0  0  0  0  0  2  0  0  0  0  0  0
  190.2140  176.3540  144.6680 N   0  0  0  0  0  0  0  0  0  0  0  0
  189.3890  176.3720  143.4600 C   0  0  0  0  0  2  0  0  0  0  0  0
  191.3480  178.3490  143.8620 C   0  0  0  0  0  2  0  0  0  0  0  0
  188.9180  177.8010  143.1750 C   0  0  2  0  0  3  0  0  0  0  0  0
  191.9560  177.2060  146.0440 N   0  0  0  0  0  2  0  0  0  0  0  0
  191.8010  175.3110  147.7610 N   0  0  0  0  0  0  0  0  0  0  0  0
  191.8730  176.1680  146.9840 C   0  0  0  0  0  0  0  0  0  0  0  0
  189.9410  176.7740  140.1950 S   0  0  0  0  0  0  0  0  0  0  0  0
  190.0590  177.3670  138.6300 C   0  0  0  0  0  0  0  0  0  0  0  0
  188.7470  177.8760  140.6330 C   0  0  0  0  0  0  0  0  0  0  0  0
  189.1620  178.4170  138.4850 C   0  0  0  0  0  3  0  0  0  0  0  0
  188.4340  178.6870  139.6010 N   0  0  0  0  0  0  0  0  0  0  0  0
  190.5400  176.6810  136.4120 O   0  0  0  0  0  0  0  0  0  0  0  0
  190.9600  176.8580  137.5880 C   0  0  0  0  0  0  0  0  0  0  0  0
  192.2900  176.5910  137.8900 O   0  0  0  0  0  1  0  0  0  0  0  0
  185.9450  178.2380  143.1270 C   0  0  0  0  0  0  0  0  0  0  0  0
  186.4380  178.1060  144.2820 O   0  0  0  0  0  0  0  0  0  0  0  0
  184.4920  178.4410  142.9680 C   0  0  0  0  0  0  0  0  0  0  0  0
  182.5270  178.6140  141.5720 C   0  0  0  0  0  3  0  0  0  0  0  0
  181.7810  178.9350  142.6670 N   0  0  0  0  0  0  0  0  0  0  0  0
  182.3330  179.0110  143.9070 C   0  0  0  0  0  3  0  0  0  0  0  0
  183.6960  178.7660  144.0790 C   0  0  0  0  0  3  0  0  0  0  0  0
  183.8990  178.3670  141.7010 C   0  0  0  0  0  3  0  0  0  0  0  0
  1 20  1  0  0  0  0
  2  1  2  0  0  0  0
  3  9  1  0  0  0  0
  4  7  1  0  0  0  0
  5  3  2  0  0  0  0
  6  5  1  0  0  0  0
  7  3  1  0  0  0  0
  8  2  1  6  0  0  0
  8  4  1  0  0  0  0
  8  6  1  0  0  0  0
  9 11  1  0  0  0  0
 11 10  3  0  0  0  0
 12 14  1  0  0  0  0
 13 12  1  0  0  0  0
 14  2  1  0  0  0  0
 15 13  2  0  0  0  0
 15 16  1  0  0  0  0
 16 14  2  0  0  0  0
 17 18  2  0  0  0  0
 18 19  1  0  0  0  0
 18 13  1  0  0  0  0
 20 21  2  0  0  0  0
 22 20  1  0  0  0  0
 22 26  1  0  0  0  0
 23 27  1  0  0  0  0
 23 24  2  0  0  0  0
 24 25  1  0  0  0  0
 25 26  2  0  0  0  0
 27 22  2  0  0  0  0
M  END
>  <MODEL>
1

>  <REMARK>
 VINA RESULT:      -7.7      0.000      0.000
  Name = 
  6 active torsions:
  status: ('A' for Active; 'I' for Inactive)
    1  A    between atoms: C_1  and  C_8
    2  A    between atoms: N_6  and  C_8
    3  A    between atoms: C_9  and  N_25
    4  A    between atoms: C_10  and  C_11
    5  A    between atoms: C_15  and  C_16
    6  A    between atoms: C_15  and  C_24
                            x       y       z     vdW  Elec       q    Type
                         _______ _______ _______ _____ _____    ______ ____

>  <TORSDO>
F 6

$$$$
=
 OpenBabel10232411323D

 27 29  0  0  1  0  0  0  0  0999 V2000
  188.8330  178.4670  143.3740 N   0  0  0  0  0  0  0  0  0  0  0  0
  188.4220  178.2370  142.1580 C   0  0  0  0  0  0  0  0  0  0  0  0
  190.4130  176.7470  138.6600 C   0  0  0  0  0  0  0  0  0  0  0  0
  188.8690  178.4730  139.6700 C   0  0  0  0  0  2  0  0  0  0  0  0
  190.6810  176.2410  139.8300 N   0  0  0  0  0  0  0  0  0  0  0  0
  189.7930  176.4550  140.9720 C   0  0  0  0  0  2  0  0  0  0  0  0
  189.1640  177.5650  138.4660 C   0  0  0  0  0  2  0  0  0  0  0  0
  189.3530  177.9210  141.0180 C   0  0  2  0  0  3  0  0  0  0  0  0
  191.2690  176.4940  137.5400 N   0  0  0  0  0  2  0  0  0  0  0  0
  193.3240  174.9710  137.6890 N   0  0  0  0  0  0  0  0  0  0  0  0
  192.3950  175.6620  137.6210 C   0  0  0  0  0  0  0  0  0  0  0  0
  185.7290  178.1500  142.9360 S   0  0  0  0  0  0  0  0  0  0  0  0
  184.5540  178.6190  141.8340 C   0  0  0  0  0  0  0  0  0  0  0  0
  186.9920  178.4010  141.8520 C   0  0  0  0  0  0  0  0  0  0  0  0
  185.1750  178.9600  140.6410 C   0  0  0  0  0  3  0  0  0  0  0  0
  186.5300  178.8410  140.6630 N   0  0  0  0  0  0  0  0  0  0  0  0
  182.2870  178.5070  141.1490 O   0  0  0  0  0  0  0  0  0  0  0  0
  183.1090  178.6630  142.0930 C   0  0  0  0  0  0  0  0  0  0  0  0
  182.6400  178.8520  143.3870 O   0  0  0  0  0  1  0  0  0  0  0  0
  190.1690  178.3530  143.8790 C   0  0  0  0  0  0  0  0  0  0  0  0
  191.1290  178.8870  143.2570 O   0  0  0  0  0  0  0  0  0  0  0  0
  190.4290  177.5860  145.1120 C   0  0  0  0  0  0  0  0  0  0  0  0
  189.8060  176.9130  147.3480 C   0  0  0  0  0  3  0  0  0  0  0  0
  190.9820  176.2340  147.4680 N   0  0  0  0  0  0  0  0  0  0  0  0
  191.8900  176.1970  146.4560 C   0  0  0  0  0  3  0  0  0  0  0  0
  191.6300  176.8730  145.2620 C   0  0  0  0  0  3  0  0  0  0  0  0
  189.5100  177.6070  146.1690 C   0  0  0  0  0  3  0  0  0  0  0  0
  1 20  1  0  0  0  0
  2  1  2  0  0  0  0
  3  5  2  0  0  0  0
  4  8  1  0  0  0  0
  5  6  1  0  0  0  0
  6  8  1  0  0  0  0
  7  3  1  0  0  0  0
  7  4  1  0  0  0  0
  8  2  1  1  0  0  0
  9 11  1  0  0  0  0
  9  3  1  0  0  0  0
 11 10  3  0  0  0  0
 13 18  1  0  0  0  0
 13 12  1  0  0  0  0
 14  2  1  0  0  0  0
 14 12  1  0  0  0  0
 15 16  1  0  0  0  0
 15 13  2  0  0  0  0
 16 14  2  0  0  0  0
 17 18  2  0  0  0  0
 18 19  1  0  0  0  0
 20 22  1  0  0  0  0
 21 20  2  0  0  0  0
 22 26  2  0  0  0  0
 22 27  1  0  0  0  0
 23 24  1  0  0  0  0
 25 24  2  0  0  0  0
 26 25  1  0  0  0  0
 27 23  2  0  0  0  0
M  END
>  <MODEL>
2

>  <REMARK>
 VINA RESULT:      -7.0      2.746      6.978
  Name = 
  6 active torsions:
  status: ('A' for Active; 'I' for Inactive)
    1  A    between atoms: C_1  and  C_8
    2  A    between atoms: N_6  and  C_8
    3  A    between atoms: C_9  and  N_25
    4  A    between atoms: C_10  and  C_11
    5  A    between atoms: C_15  and  C_16
    6  A    between atoms: C_15  and  C_24
                            x       y       z     vdW  Elec       q    Type
                         _______ _______ _______ _____ _____    ______ ____

>  <TORSDO>
F 6

$$$$
=
 OpenBabel10232411323D

 27 29  0  0  1  0  0  0  0  0999 V2000
  189.6610  177.7600  140.0700 N   0  0  0  0  0  0  0  0  0  0  0  0
  188.8850  177.8460  141.1130 C   0  0  0  0  0  0  0  0  0  0  0  0
  189.4290  177.0440  145.2940 C   0  0  0  0  0  0  0  0  0  0  0  0
  188.1340  176.5720  143.1760 C   0  0  0  0  0  2  0  0  0  0  0  0
  190.2880  177.7840  144.6540 N   0  0  0  0  0  0  0  0  0  0  0  0
  189.9650  178.3710  143.3530 C   0  0  0  0  0  2  0  0  0  0  0  0
  188.0710  176.7840  144.6970 C   0  0  0  0  0  2  0  0  0  0  0  0
  189.2690  177.3290  142.4730 C   0  0  2  0  0  3  0  0  0  0  0  0
  189.7420  176.5100  146.5860 N   0  0  0  0  0  2  0  0  0  0  0  0
  191.9450  177.0180  147.7920 N   0  0  0  0  0  0  0  0  0  0  0  0
  190.9480  176.7900  147.2470 C   0  0  0  0  0  0  0  0  0  0  0  0
  186.6600  178.3830  139.4930 S   0  0  0  0  0  0  0  0  0  0  0  0
  185.2840  179.0360  140.1980 C   0  0  0  0  0  0  0  0  0  0  0  0
  187.5210  178.3720  140.9380 C   0  0  0  0  0  0  0  0  0  0  0  0
  185.5300  179.2330  141.5490 C   0  0  0  0  0  3  0  0  0  0  0  0
  186.7730  178.8560  141.9520 N   0  0  0  0  0  0  0  0  0  0  0  0
  183.8960  180.4360  138.8810 O   0  0  0  0  0  0  0  0  0  0  0  0
  184.0300  179.3440  139.4990 C   0  0  0  0  0  0  0  0  0  0  0  0
  182.9910  178.4210  139.4950 O   0  0  0  0  0  1  0  0  0  0  0  0
  191.0140  177.2920  140.0270 C   0  0  0  0  0  0  0  0  0  0  0  0
  191.8180  177.5890  140.9530 O   0  0  0  0  0  0  0  0  0  0  0  0
  191.4790  176.4830  138.8830 C   0  0  0  0  0  0  0  0  0  0  0  0
  193.2150  175.8180  137.3380 C   0  0  0  0  0  3  0  0  0  0  0  0
  192.3150  175.0480  136.6640 N   0  0  0  0  0  0  0  0  0  0  0  0
  191.0170  174.9590  137.0570 C   0  0  0  0  0  3  0  0  0  0  0  0
  190.5760  175.6750  138.1720 C   0  0  0  0  0  3  0  0  0  0  0  0
  192.8130  176.5550  138.4580 C   0  0  0  0  0  3  0  0  0  0  0  0
  1  2  2  0  0  0  0
  3  9  1  0  0  0  0
  4  7  1  0  0  0  0
  5  3  2  0  0  0  0
  6  5  1  0  0  0  0
  7  3  1  0  0  0  0
  8  2  1  6  0  0  0
  8  4  1  0  0  0  0
  8  6  1  0  0  0  0
  9 11  1  0  0  0  0
 11 10  3  0  0  0  0
 12 13  1  0  0  0  0
 12 14  1  0  0  0  0
 13 15  2  0  0  0  0
 14  2  1  0  0  0  0
 14 16  2  0  0  0  0
 15 16  1  0  0  0  0
 17 18  2  0  0  0  0
 18 13  1  0  0  0  0
 19 18  1  0  0  0  0
 20  1  1  0  0  0  0
 20 21  2  0  0  0  0
 22 20  1  0  0  0  0
 23 27  2  0  0  0  0
 24 25  2  0  0  0  0
 24 23  1  0  0  0  0
 25 26  1  0  0  0  0
 26 22  2  0  0  0  0
 27 22  1  0  0  0  0
M  END
>  <MODEL>
3

>  <REMARK>
 VINA RESULT:      -7.0      2.700      6.435
  Name = 
  6 active torsions:
  status: ('A' for Active; 'I' for Inactive)
    1  A    between atoms: C_1  and  C_8
    2  A    between atoms: N_6  and  C_8
    3  A    between atoms: C_9  and  N_25
    4  A    between atoms: C_10  and  C_11
    5  A    between atoms: C_15  and  C_16
    6  A    between atoms: C_15  and  C_24
                            x       y       z     vdW  Elec       q    Type
                         _______ _______ _______ _____ _____    ______ ____

>  <TORSDO>
F 6

$$$$
=
 OpenBabel10232411323D

 27 29  0  0  1  0  0  0  0  0999 V2000
  188.9980  177.9740  139.7920 N   0  0  0  0  0  0  0  0  0  0  0  0
  190.1280  177.3560  139.9950 C   0  0  0  0  0  0  0  0  0  0  0  0
  193.0490  175.5480  137.4220 C   0  0  0  0  0  0  0  0  0  0  0  0
  190.6450  175.6430  138.1940 C   0  0  0  0  0  2  0  0  0  0  0  0
  193.3640  176.5900  138.1370 N   0  0  0  0  0  0  0  0  0  0  0  0
  192.5390  177.0120  139.2690 C   0  0  0  0  0  2  0  0  0  0  0  0
  191.8180  174.7490  137.7630 C   0  0  0  0  0  2  0  0  0  0  0  0
  191.0590  176.9500  138.8840 C   0  0  2  0  0  3  0  0  0  0  0  0
  193.8870  175.1210  136.3420 N   0  0  0  0  0  2  0  0  0  0  0  0
  196.1000  176.2780  135.7670 N   0  0  0  0  0  0  0  0  0  0  0  0
  195.0990  175.7550  136.0290 C   0  0  0  0  0  0  0  0  0  0  0  0
  191.2350  177.8860  142.5160 S   0  0  0  0  0  0  0  0  0  0  0  0
  191.1370  176.7080  143.7070 C   0  0  0  0  0  0  0  0  0  0  0  0
  190.4650  176.9320  141.3630 C   0  0  0  0  0  0  0  0  0  0  0  0
  190.5070  175.5920  143.1750 C   0  0  0  0  0  3  0  0  0  0  0  0
  190.1320  175.7290  141.8750 N   0  0  0  0  0  0  0  0  0  0  0  0
  191.6970  177.9730  145.6320 O   0  0  0  0  0  0  0  0  0  0  0  0
  191.6350  176.8390  145.0820 C   0  0  0  0  0  0  0  0  0  0  0  0
  192.0190  175.7090  145.7930 O   0  0  0  0  0  1  0  0  0  0  0  0
  188.4910  178.4760  138.5490 C   0  0  0  0  0  0  0  0  0  0  0  0
  189.0170  179.4910  138.0130 O   0  0  0  0  0  0  0  0  0  0  0  0
  187.3330  177.8250  137.9070 C   0  0  0  0  0  0  0  0  0  0  0  0
  186.4070  176.3140  136.2640 C   0  0  0  0  0  3  0  0  0  0  0  0
  185.1490  176.6920  136.6300 N   0  0  0  0  0  0  0  0  0  0  0  0
  184.9380  177.6060  137.6140 C   0  0  0  0  0  3  0  0  0  0  0  0
  186.0250  178.1890  138.2680 C   0  0  0  0  0  3  0  0  0  0  0  0
  187.5230  176.8780  136.8920 C   0  0  0  0  0  3  0  0  0  0  0  0
  1  2  2  0  0  0  0
  2 14  1  0  0  0  0
  3  7  1  0  0  0  0
  3  5  2  0  0  0  0
  4  8  1  0  0  0  0
  5  6  1  0  0  0  0
  7  4  1  0  0  0  0
  8  6  1  0  0  0  0
  8  2  1  1  0  0  0
  9  3  1  0  0  0  0
 10 11  3  0  0  0  0
 11  9  1  0  0  0  0
 12 13  1  0  0  0  0
 13 18  1  0  0  0  0
 14 16  2  0  0  0  0
 14 12  1  0  0  0  0
 15 13  2  0  0  0  0
 16 15  1  0  0  0  0
 18 17  2  0  0  0  0
 18 19  1  0  0  0  0
 20  1  1  0  0  0  0
 21 20  2  0  0  0  0
 22 26  1  0  0  0  0
 22 20  1  0  0  0  0
 23 24  2  0  0  0  0
 23 27  1  0  0  0  0
 24 25  1  0  0  0  0
 25 26  2  0  0  0  0
 27 22  2  0  0  0  0
M  END
>  <MODEL>
4

>  <REMARK>
 VINA RESULT:      -7.0      3.893      6.941
  Name = 
  6 active torsions:
  status: ('A' for Active; 'I' for Inactive)
    1  A    between atoms: C_1  and  C_8
    2  A    between atoms: N_6  and  C_8
    3  A    between atoms: C_9  and  N_25
    4  A    between atoms: C_10  and  C_11
    5  A    between atoms: C_15  and  C_16
    6  A    between atoms: C_15  and  C_24
                            x       y       z     vdW  Elec       q    Type
                         _______ _______ _______ _____ _____    ______ ____

>  <TORSDO>
F 6

$$$$
=
 OpenBabel10232411323D

 27 29  0  0  1  0  0  0  0  0999 V2000
  188.4130  178.4660  144.7310 N   0  0  0  0  0  0  0  0  0  0  0  0
  187.6320  178.0670  143.7670 C   0  0  0  0  0  0  0  0  0  0  0  0
  189.8720  176.8070  140.3300 C   0  0  0  0  0  0  0  0  0  0  0  0
  189.1330  176.3210  142.6970 C   0  0  0  0  0  2  0  0  0  0  0  0
  189.1020  177.8550  140.2590 N   0  0  0  0  0  0  0  0  0  0  0  0
  188.6130  178.5210  141.4660 C   0  0  0  0  0  2  0  0  0  0  0  0
  190.2790  176.2640  141.6750 C   0  0  0  0  0  2  0  0  0  0  0  0
  188.1430  177.4750  142.4810 C   0  0  2  0  0  3  0  0  0  0  0  0
  190.3780  176.1890  139.1410 N   0  0  0  0  0  2  0  0  0  0  0  0
  189.9140  177.1130  136.7960 N   0  0  0  0  0  0  0  0  0  0  0  0
  190.1220  176.6970  137.8580 C   0  0  0  0  0  0  0  0  0  0  0  0
  185.1020  178.3880  142.5990 S   0  0  0  0  0  0  0  0  0  0  0  0
  183.7690  178.5870  143.5980 C   0  0  0  0  0  0  0  0  0  0  0  0
  186.1840  178.3060  143.8860 C   0  0  0  0  0  0  0  0  0  0  0  0
  184.2010  178.5880  144.9170 C   0  0  0  0  0  3  0  0  0  0  0  0
  185.5430  178.4250  145.0660 N   0  0  0  0  0  0  0  0  0  0  0  0
  181.4380  178.7650  143.9890 O   0  0  0  0  0  1  0  0  0  0  0  0
  182.3800  178.7340  143.1490 C   0  0  0  0  0  0  0  0  0  0  0  0
  182.0970  178.8650  141.7950 O   0  0  0  0  0  0  0  0  0  0  0  0
  189.8360  178.3210  144.8160 C   0  0  0  0  0  0  0  0  0  0  0  0
  190.5910  179.0220  144.0860 O   0  0  0  0  0  0  0  0  0  0  0  0
  190.4230  177.3280  145.7370 C   0  0  0  0  0  0  0  0  0  0  0  0
  190.4330  176.1640  147.8550 C   0  0  0  0  0  3  0  0  0  0  0  0
  191.5970  175.5460  147.5060 N   0  0  0  0  0  0  0  0  0  0  0  0
  192.1930  175.7750  146.3060 C   0  0  0  0  0  3  0  0  0  0  0  0
  191.6180  176.6700  145.4020 C   0  0  0  0  0  3  0  0  0  0  0  0
  189.8270  177.0720  146.9790 C   0  0  0  0  0  3  0  0  0  0  0  0
  1 20  1  0  0  0  0
  2 14  1  0  0  0  0
  2  1  2  0  0  0  0
  3  7  1  0  0  0  0
  5  3  2  0  0  0  0
  5  6  1  0  0  0  0
  6  8  1  0  0  0  0
  7  4  1  0  0  0  0
  8  4  1  0  0  0  0
  8  2  1  1  0  0  0
  9  3  1  0  0  0  0
 10 11  3  0  0  0  0
 11  9  1  0  0  0  0
 12 13  1  0  0  0  0
 12 14  1  0  0  0  0
 13 15  2  0  0  0  0
 14 16  2  0  0  0  0
 15 16  1  0  0  0  0
 18 13  1  0  0  0  0
 18 17  1  0  0  0  0
 19 18  2  0  0  0  0
 20 22  1  0  0  0  0
 21 20  2  0  0  0  0
 22 27  1  0  0  0  0
 24 23  1  0  0  0  0
 25 24  2  0  0  0  0
 26 22  2  0  0  0  0
 26 25  1  0  0  0  0
 27 23  2  0  0  0  0
M  END
>  <MODEL>
5

>  <REMARK>
 VINA RESULT:      -7.0      2.921      7.491
  Name = 
  6 active torsions:
  status: ('A' for Active; 'I' for Inactive)
    1  A    between atoms: C_1  and  C_8
    2  A    between atoms: N_6  and  C_8
    3  A    between atoms: C_9  and  N_25
    4  A    between atoms: C_10  and  C_11
    5  A    between atoms: C_15  and  C_16
    6  A    between atoms: C_15  and  C_24
                            x       y       z     vdW  Elec       q    Type
                         _______ _______ _______ _____ _____    ______ ____

>  <TORSDO>
F 6

$$$$
=
 OpenBabel10232411323D

 27 29  0  0  1  0  0  0  0  0999 V2000
  186.4830  178.7270  140.5290 N   0  0  0  0  0  0  0  0  0  0  0  0
  187.6460  178.3170  140.9490 C   0  0  0  0  0  0  0  0  0  0  0  0
  189.2050  177.5220  144.8680 C   0  0  0  0  0  0  0  0  0  0  0  0
  189.5340  178.6240  142.6180 C   0  0  0  0  0  2  0  0  0  0  0  0
  187.9860  177.1750  144.5680 N   0  0  0  0  0  0  0  0  0  0  0  0
  187.5400  177.0970  143.1770 C   0  0  0  0  0  2  0  0  0  0  0  0
  190.1850  177.8440  143.7710 C   0  0  0  0  0  2  0  0  0  0  0  0
  188.0460  178.3160  142.4000 C   0  0  2  0  0  3  0  0  0  0  0  0
  189.6410  177.5540  146.2320 N   0  0  0  0  0  2  0  0  0  0  0  0
  188.1320  176.8610  148.1840 N   0  0  0  0  0  0  0  0  0  0  0  0
  188.8140  177.1730  147.3000 C   0  0  0  0  0  0  0  0  0  0  0  0
  189.6560  176.5830  140.0450 S   0  0  0  0  0  0  0  0  0  0  0  0
  190.3800  176.8860  138.5620 C   0  0  0  0  0  0  0  0  0  0  0  0
  188.6640  177.9390  139.9560 C   0  0  0  0  0  0  0  0  0  0  0  0
  189.8310  178.0450  138.0310 C   0  0  0  0  0  3  0  0  0  0  0  0
  188.8750  178.6190  138.8090 N   0  0  0  0  0  0  0  0  0  0  0  0
  192.3580  176.6020  137.2870 O   0  0  0  0  0  0  0  0  0  0  0  0
  191.4190  176.0620  137.9340 C   0  0  0  0  0  0  0  0  0  0  0  0
  191.3860  174.6790  138.0710 O   0  0  0  0  0  1  0  0  0  0  0  0
  185.3600  179.1260  141.3240 C   0  0  0  0  0  0  0  0  0  0  0  0
  185.5250  179.8770  142.3260 O   0  0  0  0  0  0  0  0  0  0  0  0
  184.0080  178.6360  140.9920 C   0  0  0  0  0  0  0  0  0  0  0  0
  182.4410  177.6710  139.4250 C   0  0  0  0  0  3  0  0  0  0  0  0
  181.4400  177.8220  140.3370 N   0  0  0  0  0  0  0  0  0  0  0  0
  181.6710  178.3560  141.5660 C   0  0  0  0  0  3  0  0  0  0  0  0
  182.9570  178.7730  141.9140 C   0  0  0  0  0  3  0  0  0  0  0  0
  183.7440  178.0800  139.7330 C   0  0  0  0  0  3  0  0  0  0  0  0
  1  2  2  0  0  0  0
  1 20  1  0  0  0  0
  3  9  1  0  0  0  0
  4  7  1  0  0  0  0
  5  3  2  0  0  0  0
  6  5  1  0  0  0  0
  7  3  1  0  0  0  0
  8  2  1  6  0  0  0
  8  4  1  0  0  0  0
  8  6  1  0  0  0  0
  9 11  1  0  0  0  0
 11 10  3  0  0  0  0
 13 12  1  0  0  0  0
 14 12  1  0  0  0  0
 14  2  1  0  0  0  0
 15 13  2  0  0  0  0
 15 16  1  0  0  0  0
 16 14  2  0  0  0  0
 17 18  2  0  0  0  0
 18 19  1  0  0  0  0
 18 13  1  0  0  0  0
 20 21  2  0  0  0  0
 22 20  1  0  0  0  0
 22 26  1  0  0  0  0
 23 27  1  0  0  0  0
 23 24  2  0  0  0  0
 24 25  1  0  0  0  0
 25 26  2  0  0  0  0
 27 22  2  0  0  0  0
M  END
>  <MODEL>
6

>  <REMARK>
 VINA RESULT:      -6.9      1.775      2.014
  Name = 
  6 active torsions:
  status: ('A' for Active; 'I' for Inactive)
    1  A    between atoms: C_1  and  C_8
    2  A    between atoms: N_6  and  C_8
    3  A    between atoms: C_9  and  N_25
    4  A    between atoms: C_10  and  C_11
    5  A    between atoms: C_15  and  C_16
    6  A    between atoms: C_15  and  C_24
                            x       y       z     vdW  Elec       q    Type
                         _______ _______ _______ _____ _____    ______ ____

>  <TORSDO>
F 6

$$$$
=
 OpenBabel10232411323D

 27 29  0  0  1  0  0  0  0  0999 V2000
  189.8060  177.6750  137.3230 N   0  0  0  0  0  0  0  0  0  0  0  0
  190.4570  177.1090  138.2990 C   0  0  0  0  0  0  0  0  0  0  0  0
  190.1780  177.2890  142.5780 C   0  0  0  0  0  0  0  0  0  0  0  0
  191.5780  177.6630  140.5080 C   0  0  0  0  0  2  0  0  0  0  0  0
  189.1240  177.0100  141.8660 N   0  0  0  0  0  0  0  0  0  0  0  0
  189.2390  176.5910  140.4690 C   0  0  0  0  0  2  0  0  0  0  0  0
  191.5490  177.1740  141.9650 C   0  0  0  0  0  2  0  0  0  0  0  0
  190.2600  177.4750  139.7450 C   0  0  2  0  0  3  0  0  0  0  0  0
  190.0530  177.6570  143.9560 N   0  0  0  0  0  2  0  0  0  0  0  0
  187.7960  177.7140  145.1680 N   0  0  0  0  0  0  0  0  0  0  0  0
  188.8180  177.6900  144.6220 C   0  0  0  0  0  0  0  0  0  0  0  0
  193.1100  176.5380  137.5880 S   0  0  0  0  0  0  0  0  0  0  0  0
  193.5860  174.9350  137.4620 C   0  0  0  0  0  0  0  0  0  0  0  0
  191.5200  176.1430  137.9730 C   0  0  0  0  0  0  0  0  0  0  0  0
  192.4890  174.1250  137.7210 C   0  0  0  0  0  3  0  0  0  0  0  0
  191.3480  174.8060  138.0100 N   0  0  0  0  0  0  0  0  0  0  0  0
  195.1100  173.5660  136.2680 O   0  0  0  0  0  0  0  0  0  0  0  0
  194.9390  174.4690  137.1330 C   0  0  0  0  0  0  0  0  0  0  0  0
  196.0420  175.0390  137.7580 O   0  0  0  0  0  1  0  0  0  0  0  0
  188.7370  178.6250  137.4230 C   0  0  0  0  0  0  0  0  0  0  0  0
  188.9820  179.8270  137.7210 O   0  0  0  0  0  0  0  0  0  0  0  0
  187.3430  178.1920  137.2080 C   0  0  0  0  0  0  0  0  0  0  0  0
  185.1280  177.7160  138.0510 C   0  0  0  0  0  3  0  0  0  0  0  0
  184.7580  177.2690  136.8180 N   0  0  0  0  0  0  0  0  0  0  0  0
  185.6240  177.2720  135.7700 C   0  0  0  0  0  3  0  0  0  0  0  0
  186.9300  177.7320  135.9460 C   0  0  0  0  0  3  0  0  0  0  0  0
  186.4300  178.1800  138.2710 C   0  0  0  0  0  3  0  0  0  0  0  0
  1 20  1  0  0  0  0
  1  2  2  0  0  0  0
  3  9  1  0  0  0  0
  4  7  1  0  0  0  0
  5  3  2  0  0  0  0
  6  5  1  0  0  0  0
  7  3  1  0  0  0  0
  8  2  1  6  0  0  0
  8  6  1  0  0  0  0
  8  4  1  0  0  0  0
  9 11  1  0  0  0  0
 11 10  3  0  0  0  0
 12 14  1  0  0  0  0
 13 12  1  0  0  0  0
 13 15  2  0  0  0  0
 14 16  2  0  0  0  0
 14  2  1  0  0  0  0
 15 16  1  0  0  0  0
 17 18  2  0  0  0  0
 18 13  1  0  0  0  0
 18 19  1  0  0  0  0
 20 21  2  0  0  0  0
 22 20  1  0  0  0  0
 22 27  1  0  0  0  0
 23 27  2  0  0  0  0
 24 23  1  0  0  0  0
 25 26  1  0  0  0  0
 25 24  2  0  0  0  0
 26 22  2  0  0  0  0
M  END
>  <MODEL>
7

>  <REMARK>
 VINA RESULT:      -6.7      3.730      5.145
  Name = 
  6 active torsions:
  status: ('A' for Active; 'I' for Inactive)
    1  A    between atoms: C_1  and  C_8
    2  A    between atoms: N_6  and  C_8
    3  A    between atoms: C_9  and  N_25
    4  A    between atoms: C_10  and  C_11
    5  A    between atoms: C_15  and  C_16
    6  A    between atoms: C_15  and  C_24
                            x       y       z     vdW  Elec       q    Type
                         _______ _______ _______ _____ _____    ______ ____

>  <TORSDO>
F 6

$$$$
=
 OpenBabel10232411323D

 27 29  0  0  1  0  0  0  0  0999 V2000
  189.4560  177.7330  142.8330 N   0  0  0  0  0  0  0  0  0  0  0  0
  188.8250  177.7110  143.9730 C   0  0  0  0  0  0  0  0  0  0  0  0
  184.6960  178.4360  144.8910 C   0  0  0  0  0  0  0  0  0  0  0  0
  187.1100  178.6120  145.6140 C   0  0  0  0  0  2  0  0  0  0  0  0
  185.0360  178.0080  143.7090 N   0  0  0  0  0  0  0  0  0  0  0  0
  186.3520  177.4160  143.4660 C   0  0  0  0  0  2  0  0  0  0  0  0
  185.6630  178.3180  146.0390 C   0  0  0  0  0  2  0  0  0  0  0  0
  187.4320  178.2520  144.1570 C   0  0  2  0  0  3  0  0  0  0  0  0
  183.3890  178.9750  145.1250 N   0  0  0  0  0  2  0  0  0  0  0  0
  181.5870  179.0650  143.3060 N   0  0  0  0  0  0  0  0  0  0  0  0
  182.4020  179.0260  144.1280 C   0  0  0  0  0  0  0  0  0  0  0  0
  191.2120  177.0920  145.3090 S   0  0  0  0  0  0  0  0  0  0  0  0
  191.1380  176.6010  146.9120 C   0  0  0  0  0  0  0  0  0  0  0  0
  189.5410  177.2360  145.1690 C   0  0  0  0  0  0  0  0  0  0  0  0
  189.8070  176.5580  147.3010 C   0  0  0  0  0  3  0  0  0  0  0  0
  188.9280  176.9190  146.3280 N   0  0  0  0  0  0  0  0  0  0  0  0
  193.0080  175.2670  147.5000 O   0  0  0  0  0  0  0  0  0  0  0  0
  192.2920  176.2730  147.7590 C   0  0  0  0  0  0  0  0  0  0  0  0
  192.6140  177.0860  148.8380 O   0  0  0  0  0  1  0  0  0  0  0  0
  188.9420  178.1440  141.5600 C   0  0  0  0  0  0  0  0  0  0  0  0
  188.1250  179.1030  141.4850 O   0  0  0  0  0  0  0  0  0  0  0  0
  189.3450  177.4260  140.3360 C   0  0  0  0  0  0  0  0  0  0  0  0
  191.0100  176.2690  139.0200 C   0  0  0  0  0  3  0  0  0  0  0  0
  190.1270  176.1790  137.9860 N   0  0  0  0  0  0  0  0  0  0  0  0
  188.8660  176.6800  138.0810 C   0  0  0  0  0  3  0  0  0  0  0  0
  188.4540  177.3120  139.2550 C   0  0  0  0  0  3  0  0  0  0  0  0
  190.6370  176.8990  140.2130 C   0  0  0  0  0  3  0  0  0  0  0  0
  1  2  2  0  0  0  0
  2 14  1  0  0  0  0
  3  9  1  0  0  0  0
  3  7  1  0  0  0  0
  4  7  1  0  0  0  0
  5  3  2  0  0  0  0
  6  5  1  0  0  0  0
  6  8  1  0  0  0  0
  8  2  1  1  0  0  0
  8  4  1  0  0  0  0
 10 11  3  0  0  0  0
 11  9  1  0  0  0  0
 12 13  1  0  0  0  0
 13 15  2  0  0  0  0
 13 18  1  0  0  0  0
 14 12  1  0  0  0  0
 14 16  2  0  0  0  0
 16 15  1  0  0  0  0
 17 18  2  0  0  0  0
 18 19  1  0  0  0  0
 20  1  1  0  0  0  0
 21 20  2  0  0  0  0
 22 20  1  0  0  0  0
 23 27  2  0  0  0  0
 24 25  2  0  0  0  0
 24 23  1  0  0  0  0
 25 26  1  0  0  0  0
 26 22  2  0  0  0  0
 27 22  1  0  0  0  0
M  END
>  <MODEL>
8

>  <REMARK>
 VINA RESULT:      -6.6      2.987      7.446
  Name = 
  6 active torsions:
  status: ('A' for Active; 'I' for Inactive)
    1  A    between atoms: C_1  and  C_8
    2  A    between atoms: N_6  and  C_8
    3  A    between atoms: C_9  and  N_25
    4  A    between atoms: C_10  and  C_11
    5  A    between atoms: C_15  and  C_16
    6  A    between atoms: C_15  and  C_24
                            x       y       z     vdW  Elec       q    Type
                         _______ _______ _______ _____ _____    ______ ____

>  <TORSDO>
F 6

$$$$
=
 OpenBabel10232411323D

 27 29  0  0  1  0  0  0  0  0999 V2000
  187.3510  178.1010  141.4310 N   0  0  0  0  0  0  0  0  0  0  0  0
  186.9310  178.0650  142.6640 C   0  0  0  0  0  0  0  0  0  0  0  0
  189.0240  177.1850  146.3060 C   0  0  0  0  0  0  0  0  0  0  0  0
  186.8730  177.0440  144.9880 C   0  0  0  0  0  2  0  0  0  0  0  0
  189.6680  177.6740  145.2850 N   0  0  0  0  0  0  0  0  0  0  0  0
  188.9590  178.3130  144.1760 C   0  0  0  0  0  2  0  0  0  0  0  0
  187.5220  177.2790  146.3610 C   0  0  0  0  0  2  0  0  0  0  0  0
  187.7340  177.4780  143.7940 C   0  0  2  0  0  3  0  0  0  0  0  0
  189.7320  176.6000  147.4050 N   0  0  0  0  0  2  0  0  0  0  0  0
  192.2910  176.5360  147.5260 N   0  0  0  0  0  0  0  0  0  0  0  0
  191.1340  176.5660  147.4700 C   0  0  0  0  0  0  0  0  0  0  0  0
  184.1840  178.0700  142.0990 S   0  0  0  0  0  0  0  0  0  0  0  0
  183.1510  178.9210  143.1110 C   0  0  0  0  0  0  0  0  0  0  0  0
  185.5610  178.5160  142.9580 C   0  0  0  0  0  0  0  0  0  0  0  0
  183.9070  179.5390  144.0970 C   0  0  0  0  0  3  0  0  0  0  0  0
  185.2440  179.3020  144.0070 N   0  0  0  0  0  0  0  0  0  0  0  0
  181.1680  179.2360  141.8510 O   0  0  0  0  0  0  0  0  0  0  0  0
  181.6920  178.9980  142.9740 C   0  0  0  0  0  0  0  0  0  0  0  0
  180.8770  178.7830  144.0790 O   0  0  0  0  0  1  0  0  0  0  0  0
  188.6420  177.7230  140.9390 C   0  0  0  0  0  0  0  0  0  0  0  0
  189.5980  177.5370  141.7430 O   0  0  0  0  0  0  0  0  0  0  0  0
  188.8660  177.5780  139.4880 C   0  0  0  0  0  0  0  0  0  0  0  0
  190.2700  176.9550  137.6220 C   0  0  0  0  0  3  0  0  0  0  0  0
  189.3220  177.4160  136.7580 N   0  0  0  0  0  0  0  0  0  0  0  0
  188.1510  177.9470  137.2020 C   0  0  0  0  0  3  0  0  0  0  0  0
  187.9040  178.0390  138.5730 C   0  0  0  0  0  3  0  0  0  0  0  0
  190.0620  177.0330  139.0040 C   0  0  0  0  0  3  0  0  0  0  0  0
  1  2  2  0  0  0  0
  2 14  1  0  0  0  0
  3  7  1  0  0  0  0
  3  9  1  0  0  0  0
  4  7  1  0  0  0  0
  5  3  2  0  0  0  0
  6  5  1  0  0  0  0
  8  2  1  6  0  0  0
  8  6  1  0  0  0  0
  8  4  1  0  0  0  0
  9 11  1  0  0  0  0
 11 10  3  0  0  0  0
 12 14  1  0  0  0  0
 12 13  1  0  0  0  0
 13 15  2  0  0  0  0
 14 16  2  0  0  0  0
 16 15  1  0  0  0  0
 17 18  2  0  0  0  0
 18 13  1  0  0  0  0
 18 19  1  0  0  0  0
 20  1  1  0  0  0  0
 20 21  2  0  0  0  0
 22 20  1  0  0  0  0
 23 27  2  0  0  0  0
 24 25  2  0  0  0  0
 24 23  1  0  0  0  0
 25 26  1  0  0  0  0
 26 22  2  0  0  0  0
 27 22  1  0  0  0  0
M  END
>  <MODEL>
9

>  <REMARK>
 VINA RESULT:      -6.6      2.660      6.402
  Name = 
  6 active torsions:
  status: ('A' for Active; 'I' for Inactive)
    1  A    between atoms: C_1  and  C_8
    2  A    between atoms: N_6  and  C_8
    3  A    between atoms: C_9  and  N_25
    4  A    between atoms: C_10  and  C_11
    5  A    between atoms: C_15  and  C_16
    6  A    between atoms: C_15  and  C_24
                            x       y       z     vdW  Elec       q    Type
                         _______ _______ _______ _____ _____    ______ ____

>  <TORSDO>
F 6

$$$$
