=
 OpenBabel10232409263D

 52 58  0  0  1  0  0  0  0  0999 V2000
  190.3420  174.0670  136.9040 C   0  0  0  0  0  0  0  0  0  0  0  0
  189.6570  175.2540  137.0500 C   0  0  0  0  0  0  0  0  0  0  0  0
  188.5140  175.0990  136.2970 C   0  0  0  0  0  0  0  0  0  0  0  0
  189.5950  173.2520  136.0720 C   0  0  0  0  0  3  0  0  0  0  0  0
  188.5060  173.9110  135.7320 O   0  0  0  0  0  0  0  0  0  0  0  0
  192.8640  173.7280  136.8890 C   0  0  0  0  0  0  0  0  0  0  0  0
  192.9780  173.9920  135.6640 O   0  0  0  0  0  0  0  0  0  0  0  0
  191.5860  173.7480  137.5350 N   0  0  0  0  0  2  0  0  0  0  0  0
  194.0820  173.4110  137.6870 C   0  0  0  0  0  2  0  0  0  0  0  0
  194.5490  175.6560  138.2190 O   0  0  0  0  0  0  0  0  0  0  0  0
  194.9750  174.6070  137.7600 C   0  0  0  0  0  0  0  0  0  0  0  0
  197.3020  174.8280  138.3910 N   0  0  0  0  0  0  0  0  0  0  0  0
  199.0980  173.9170  137.0580 C   0  0  0  0  0  2  0  0  0  0  0  0
  199.4790  174.9190  139.4180 C   0  0  0  0  0  1  0  0  0  0  0  0
  198.5660  174.6010  138.2840 C   0  0  0  0  0  0  0  0  0  0  0  0
  196.3960  174.4960  137.3080 C   0  0  1  0  0  3  0  0  0  0  0  0
  196.6860  173.0930  136.7430 C   0  0  0  0  0  2  0  0  0  0  0  0
  198.1870  172.7370  136.7120 C   0  0  0  0  0  2  0  0  0  0  0  0
  191.4290  176.9070  137.5770 C   0  0  0  0  0  1  0  0  0  0  0  0
  190.0200  176.4430  137.8900 C   0  0  2  0  0  3  0  0  0  0  0  0
  189.8960  176.1300  139.3740 C   0  0  0  0  0  2  0  0  0  0  0  0
  189.0810  177.1910  146.4200 C   0  0  0  0  0  3  0  0  0  0  0  0
  191.2800  176.7810  147.3620 C   0  0  0  0  0  3  0  0  0  0  0  0
  188.9480  178.0660  140.7500 C   0  0  2  0  0  3  0  0  0  0  0  0
  190.2290  177.3540  140.2310 C   0  0  1  0  0  3  0  0  0  0  0  0
  187.2410  177.8620  142.5740 N   0  0  0  0  0  2  0  0  0  0  0  0
  190.9590  176.6310  144.9680 C   0  0  0  0  0  0  0  0  0  0  0  0
  187.5240  177.7420  143.8120 N   0  0  0  0  0  0  0  0  0  0  0  0
  188.2120  177.1540  141.7380 C   0  0  2  0  0  3  0  0  0  0  0  0
  191.1020  176.9610  141.3530 N   0  0  0  0  0  0  0  0  0  0  0  0
  189.5900  176.9520  145.1400 C   0  0  0  0  0  0  0  0  0  0  0  0
  191.7960  176.5480  146.0840 C   0  0  0  0  0  3  0  0  0  0  0  0
  190.6290  176.5950  142.5100 C   0  0  0  0  0  0  0  0  0  0  0  0
  188.7280  177.0030  143.9440 C   0  0  0  0  0  0  0  0  0  0  0  0
  189.1870  176.6950  142.7540 C   0  0  1  0  0  3  0  0  0  0  0  0
  189.9270  177.1050  147.5300 C   0  0  0  0  0  3  0  0  0  0  0  0
  188.0370  178.4890  139.6100 C   0  0  0  0  0  1  0  0  0  0  0  0
  191.4960  176.4560  143.6430 N   0  0  0  0  0  2  0  0  0  0  0  0
  187.4180  176.1070  136.1590 C   0  0  2  0  0  3  0  0  0  0  0  0
  187.1050  178.6530  136.1210 C   0  0  0  0  0  2  0  0  0  0  0  0
  187.2370  178.1450  134.6970 C   0  0  0  0  0  2  0  0  0  0  0  0
  188.0220  177.4800  135.8110 C   0  0  0  0  0  3  0  0  0  0  0  0
  186.5870  176.1120  137.3620 N   0  0  0  0  0  2  0  0  0  0  0  0
  185.2780  175.5920  136.9890 C   0  0  2  0  0  3  0  0  0  0  0  0
  184.1700  174.3180  135.2680 O   0  0  0  0  0  1  0  0  0  0  0  0
  185.2540  175.1600  135.5240 C   0  0  0  0  0  2  0  0  0  0  0  0
  184.1820  176.6000  137.3110 C   0  0  0  0  0  2  0  0  0  0  0  0
  184.4840  177.3160  138.4720 O   0  0  0  0  0  0  0  0  0  0  0  0
  183.5970  178.3920  138.4610 C   0  0  0  0  0  2  0  0  0  0  0  0
  184.7320  179.2270  140.5530 N   0  0  0  0  0  1  0  0  0  0  0  0
  184.0810  180.6870  138.8660 O   0  0  0  0  0  0  0  0  0  0  0  0
  184.1510  179.5020  139.2830 C   0  0  0  0  0  0  0  0  0  0  0  0
  1  2  1  0  0  0  0
  1  8  1  0  0  0  0
  2 20  1  0  0  0  0
  3  2  2  0  0  0  0
  4  1  2  0  0  0  0
  5  4  1  0  0  0  0
  5  3  1  0  0  0  0
  6  8  1  0  0  0  0
  6  9  1  0  0  0  0
  7  6  2  0  0  0  0
  9 11  1  0  0  0  0
 11 10  2  0  0  0  0
 13 15  1  0  0  0  0
 15 12  2  0  0  0  0
 15 14  1  0  0  0  0
 16 11  1  1  0  0  0
 16 12  1  0  0  0  0
 17 16  1  0  0  0  0
 18 17  1  0  0  0  0
 18 13  1  0  0  0  0
 20 19  1  1  0  0  0
 20 21  1  0  0  0  0
 22 36  1  0  0  0  0
 23 36  2  0  0  0  0
 24 37  1  6  0  0  0
 24 29  1  0  0  0  0
 25 21  1  1  0  0  0
 25 24  1  0  0  0  0
 25 30  1  0  0  0  0
 26 28  1  0  0  0  0
 27 31  1  0  0  0  0
 27 32  2  0  0  0  0
 28 34  2  0  0  0  0
 29 26  1  1  0  0  0
 29 35  1  0  0  0  0
 30 33  2  0  0  0  0
 31 22  2  0  0  0  0
 32 23  1  0  0  0  0
 33 38  1  0  0  0  0
 34 31  1  0  0  0  0
 35 33  1  6  0  0  0
 35 34  1  0  0  0  0
 38 27  1  0  0  0  0
 39  3  1  0  0  0  0
 39 43  1  1  0  0  0
 41 42  1  0  0  0  0
 41 40  1  0  0  0  0
 42 40  1  0  0  0  0
 42 39  1  0  0  0  0
 44 46  1  6  0  0  0
 44 47  1  0  0  0  0
 44 43  1  0  0  0  0
 45 46  1  0  0  0  0
 47 48  1  0  0  0  0
 49 48  1  0  0  0  0
 49 52  1  0  0  0  0
 51 52  2  0  0  0  0
 52 50  1  0  0  0  0
M  END
>  <MODEL>
1

>  <REMARK>
 VINA RESULT:      -7.7      0.000      0.000
  Name = 
  16 active torsions:
  status: ('A' for Active; 'I' for Inactive)
    1  A    between atoms: C_2  and  N_12
    2  A    between atoms: C_2  and  C_39
    3  A    between atoms: C_2  and  C_42
    4  A    between atoms: C_3  and  O_25
    5  A    between atoms: C_3  and  C_41
    6  A    between atoms: C_5  and  C_6
    7  A    between atoms: C_5  and  C_35
    8  A    between atoms: C_6  and  C_15
    9  A    between atoms: N_12  and  C_28
   10  A    between atoms: C_14  and  C_52
   11  A    between atoms: C_18  and  N_26
   12  A    between atoms: O_25  and  C_39
   13  A    between atoms: C_28  and  C_43
   14  A    between atoms: C_28  and  C_50
   15  A    between atoms: C_32  and  C_44
   16  A    between atoms: C_44  and  C_52
                            x       y       z     vdW  Elec       q    Type
                         _______ _______ _______ _____ _____    ______ ____

>  <TORSDO>
F 16

$$$$
=
 OpenBabel10232409263D

 52 58  0  0  1  0  0  0  0  0999 V2000
  189.2340  176.1730  136.6650 C   0  0  0  0  0  0  0  0  0  0  0  0
  188.0530  176.6740  137.1690 C   0  0  0  0  0  0  0  0  0  0  0  0
  187.0660  175.9110  136.5870 C   0  0  0  0  0  0  0  0  0  0  0  0
  188.9170  175.1410  135.8010 C   0  0  0  0  0  3  0  0  0  0  0  0
  187.6040  175.0170  135.7850 O   0  0  0  0  0  0  0  0  0  0  0  0
  191.3080  176.2000  138.1410 C   0  0  0  0  0  0  0  0  0  0  0  0
  190.8510  175.3450  138.9440 O   0  0  0  0  0  0  0  0  0  0  0  0
  190.5430  176.6370  137.0120 N   0  0  0  0  0  2  0  0  0  0  0  0
  192.6770  176.7490  138.3540 C   0  0  0  0  0  2  0  0  0  0  0  0
  194.2230  176.7920  136.5800 O   0  0  0  0  0  0  0  0  0  0  0  0
  193.6410  176.1090  137.4090 C   0  0  0  0  0  0  0  0  0  0  0  0
  194.1150  174.0670  136.1980 N   0  0  0  0  0  0  0  0  0  0  0  0
  194.9570  172.0810  137.2830 C   0  0  0  0  0  2  0  0  0  0  0  0
  194.7950  172.3020  134.7060 C   0  0  0  0  0  1  0  0  0  0  0  0
  194.5650  172.8670  136.0660 C   0  0  0  0  0  0  0  0  0  0  0  0
  193.9150  174.6420  137.5140 C   0  0  1  0  0  3  0  0  0  0  0  0
  195.1190  174.3710  138.4350 C   0  0  0  0  0  2  0  0  0  0  0  0
  195.7610  172.9850  138.2210 C   0  0  0  0  0  2  0  0  0  0  0  0
  188.8670  178.8780  137.9660 C   0  0  0  0  0  1  0  0  0  0  0  0
  187.8600  177.7650  138.1810 C   0  0  2  0  0  3  0  0  0  0  0  0
  187.9770  177.2290  139.6010 C   0  0  0  0  0  2  0  0  0  0  0  0
  188.9890  176.9560  146.6960 C   0  0  0  0  0  3  0  0  0  0  0  0
  191.3980  176.8520  146.9700 C   0  0  0  0  0  3  0  0  0  0  0  0
  187.1630  178.6870  141.5380 C   0  0  2  0  0  3  0  0  0  0  0  0
  188.3430  178.3410  140.5870 C   0  0  1  0  0  3  0  0  0  0  0  0
  186.0780  177.8510  143.6380 N   0  0  0  0  0  2  0  0  0  0  0  0
  190.4540  177.0270  144.7470 C   0  0  0  0  0  0  0  0  0  0  0  0
  186.7060  177.5930  144.7170 N   0  0  0  0  0  0  0  0  0  0  0  0
  186.8760  177.4970  142.4620 C   0  0  2  0  0  3  0  0  0  0  0  0
  189.5420  177.9570  141.3570 N   0  0  0  0  0  0  0  0  0  0  0  0
  189.1540  177.0330  145.3090 C   0  0  0  0  0  0  0  0  0  0  0  0
  191.5700  176.9370  145.5850 C   0  0  0  0  0  3  0  0  0  0  0  0
  189.4680  177.3220  142.4910 C   0  0  0  0  0  0  0  0  0  0  0  0
  187.9980  177.1010  144.3970 C   0  0  0  0  0  0  0  0  0  0  0  0
  188.1520  177.0880  143.0930 C   0  0  1  0  0  3  0  0  0  0  0  0
  190.1120  176.8650  147.5240 C   0  0  0  0  0  3  0  0  0  0  0  0
  185.9180  179.0940  140.7670 C   0  0  0  0  0  1  0  0  0  0  0  0
  190.6250  177.1800  143.3260 N   0  0  0  0  0  2  0  0  0  0  0  0
  185.5990  176.0410  136.8420 C   0  0  2  0  0  3  0  0  0  0  0  0
  184.1280  174.1700  137.7990 C   0  0  0  0  0  2  0  0  0  0  0  0
  185.5080  173.6130  137.4970 C   0  0  0  0  0  2  0  0  0  0  0  0
  184.9120  174.6840  136.6020 C   0  0  0  0  0  3  0  0  0  0  0  0
  185.0460  177.1350  136.0460 N   0  0  0  0  0  2  0  0  0  0  0  0
  183.5950  177.0090  136.0800 C   0  0  2  0  0  3  0  0  0  0  0  0
  181.9200  178.2640  134.8830 O   0  0  0  0  0  1  0  0  0  0  0  0
  182.9780  177.3650  134.7300 C   0  0  0  0  0  2  0  0  0  0  0  0
  183.0070  177.8340  137.2190 C   0  0  0  0  0  2  0  0  0  0  0  0
  182.1130  177.0770  137.9780 O   0  0  0  0  0  0  0  0  0  0  0  0
  181.0980  177.9710  138.3200 C   0  0  0  0  0  2  0  0  0  0  0  0
  182.3750  177.9260  140.4950 N   0  0  0  0  0  1  0  0  0  0  0  0
  180.4050  179.1400  140.2740 O   0  0  0  0  0  0  0  0  0  0  0  0
  181.2630  178.3930  139.7380 C   0  0  0  0  0  0  0  0  0  0  0  0
  1  8  1  0  0  0  0
  1  2  1  0  0  0  0
  2 20  1  0  0  0  0
  3 39  1  0  0  0  0
  3  2  2  0  0  0  0
  4  1  2  0  0  0  0
  5  4  1  0  0  0  0
  5  3  1  0  0  0  0
  6  9  1  0  0  0  0
  6  7  2  0  0  0  0
  8  6  1  0  0  0  0
 10 11  2  0  0  0  0
 11  9  1  0  0  0  0
 12 16  1  0  0  0  0
 13 18  1  0  0  0  0
 14 15  1  0  0  0  0
 15 12  2  0  0  0  0
 15 13  1  0  0  0  0
 16 11  1  6  0  0  0
 16 17  1  0  0  0  0
 18 17  1  0  0  0  0
 20 19  1  6  0  0  0
 20 21  1  0  0  0  0
 22 36  1  0  0  0  0
 23 36  2  0  0  0  0
 24 37  1  6  0  0  0
 24 29  1  0  0  0  0
 25 21  1  6  0  0  0
 25 30  1  0  0  0  0
 25 24  1  0  0  0  0
 26 28  1  0  0  0  0
 27 31  1  0  0  0  0
 27 32  2  0  0  0  0
 29 35  1  0  0  0  0
 29 26  1  1  0  0  0
 30 33  2  0  0  0  0
 31 22  2  0  0  0  0
 32 23  1  0  0  0  0
 33 38  1  0  0  0  0
 34 28  2  0  0  0  0
 34 31  1  0  0  0  0
 35 33  1  1  0  0  0
 35 34  1  0  0  0  0
 38 27  1  0  0  0  0
 39 43  1  6  0  0  0
 41 40  1  0  0  0  0
 42 39  1  0  0  0  0
 42 41  1  0  0  0  0
 42 40  1  0  0  0  0
 43 44  1  0  0  0  0
 44 46  1  6  0  0  0
 44 47  1  0  0  0  0
 46 45  1  0  0  0  0
 47 48  1  0  0  0  0
 48 49  1  0  0  0  0
 49 52  1  0  0  0  0
 52 51  2  0  0  0  0
 52 50  1  0  0  0  0
M  END
>  <MODEL>
2

>  <REMARK>
 VINA RESULT:      -7.6      2.041      2.915
  Name = 
  16 active torsions:
  status: ('A' for Active; 'I' for Inactive)
    1  A    between atoms: C_2  and  N_12
    2  A    between atoms: C_2  and  C_39
    3  A    between atoms: C_2  and  C_42
    4  A    between atoms: C_3  and  O_25
    5  A    between atoms: C_3  and  C_41
    6  A    between atoms: C_5  and  C_6
    7  A    between atoms: C_5  and  C_35
    8  A    between atoms: C_6  and  C_15
    9  A    between atoms: N_12  and  C_28
   10  A    between atoms: C_14  and  C_52
   11  A    between atoms: C_18  and  N_26
   12  A    between atoms: O_25  and  C_39
   13  A    between atoms: C_28  and  C_43
   14  A    between atoms: C_28  and  C_50
   15  A    between atoms: C_32  and  C_44
   16  A    between atoms: C_44  and  C_52
                            x       y       z     vdW  Elec       q    Type
                         _______ _______ _______ _____ _____    ______ ____

>  <TORSDO>
F 16

$$$$
=
 OpenBabel10232409263D

 52 58  0  0  1  0  0  0  0  0999 V2000
  188.9770  176.0560  137.2680 C   0  0  0  0  0  0  0  0  0  0  0  0
  188.1080  177.0560  137.6490 C   0  0  0  0  0  0  0  0  0  0  0  0
  186.8550  176.4960  137.5440 C   0  0  0  0  0  0  0  0  0  0  0  0
  188.2200  174.9450  136.9420 C   0  0  0  0  0  3  0  0  0  0  0  0
  186.9520  175.2530  137.1230 O   0  0  0  0  0  0  0  0  0  0  0  0
  191.2260  176.1070  136.0760 C   0  0  0  0  0  0  0  0  0  0  0  0
  190.7200  175.9380  134.9350 O   0  0  0  0  0  0  0  0  0  0  0  0
  190.4040  176.1660  137.2470 N   0  0  0  0  0  2  0  0  0  0  0  0
  192.7000  176.2730  136.2070 C   0  0  0  0  0  2  0  0  0  0  0  0
  193.6420  175.0220  134.4490 O   0  0  0  0  0  0  0  0  0  0  0  0
  193.4050  175.0810  135.6460 C   0  0  0  0  0  0  0  0  0  0  0  0
  194.7920  173.1110  135.8940 N   0  0  0  0  0  0  0  0  0  0  0  0
  195.3100  172.1540  138.0490 C   0  0  0  0  0  2  0  0  0  0  0  0
  196.4430  171.3590  135.8580 C   0  0  0  0  0  1  0  0  0  0  0  0
  195.4560  172.2290  136.5570 C   0  0  0  0  0  0  0  0  0  0  0  0
  193.8490  173.9870  136.5650 C   0  0  1  0  0  3  0  0  0  0  0  0
  194.4440  174.5640  137.8620 C   0  0  0  0  0  2  0  0  0  0  0  0
  195.3470  173.5720  138.6240 C   0  0  0  0  0  2  0  0  0  0  0  0
  188.9820  179.2890  137.0150 C   0  0  0  0  0  1  0  0  0  0  0  0
  188.4330  178.4350  138.1420 C   0  0  2  0  0  3  0  0  0  0  0  0
  189.4290  178.3930  139.2910 C   0  0  0  0  0  2  0  0  0  0  0  0
  189.5940  177.5930  146.4170 C   0  0  0  0  0  3  0  0  0  0  0  0
  187.2620  177.5780  147.0880 C   0  0  0  0  0  3  0  0  0  0  0  0
  190.5630  176.6940  140.8320 C   0  0  2  0  0  3  0  0  0  0  0  0
  189.2390  177.1370  140.1460 C   0  0  1  0  0  3  0  0  0  0  0  0
  191.9700  177.2500  142.8300 N   0  0  0  0  0  2  0  0  0  0  0  0
  187.8290  177.7600  144.7410 C   0  0  0  0  0  0  0  0  0  0  0  0
  191.5260  177.3270  144.0230 N   0  0  0  0  0  0  0  0  0  0  0  0
  190.9870  177.7450  141.8650 C   0  0  2  0  0  3  0  0  0  0  0  0
  188.1800  177.3650  141.1480 N   0  0  0  0  0  0  0  0  0  0  0  0
  189.2040  177.7140  145.0790 C   0  0  0  0  0  0  0  0  0  0  0  0
  186.8660  177.6910  145.7510 C   0  0  0  0  0  3  0  0  0  0  0  0
  188.4340  177.8300  142.3370 C   0  0  0  0  0  0  0  0  0  0  0  0
  190.1950  177.8180  143.9920 C   0  0  0  0  0  0  0  0  0  0  0  0
  189.8290  178.0160  142.7470 C   0  0  1  0  0  3  0  0  0  0  0  0
  188.6220  177.5260  147.4190 C   0  0  0  0  0  3  0  0  0  0  0  0
  191.6660  176.4450  139.8190 C   0  0  0  0  0  1  0  0  0  0  0  0
  187.4290  177.8110  143.3600 N   0  0  0  0  0  2  0  0  0  0  0  0
  185.5660  177.1740  137.8830 C   0  0  2  0  0  3  0  0  0  0  0  0
  183.2690  177.0100  136.7530 C   0  0  0  0  0  2  0  0  0  0  0  0
  184.2280  176.0480  136.0750 C   0  0  0  0  0  2  0  0  0  0  0  0
  184.7370  177.3770  136.6020 C   0  0  0  0  0  3  0  0  0  0  0  0
  185.8270  178.4080  138.6230 N   0  0  0  0  0  2  0  0  0  0  0  0
  184.6710  178.6600  139.4710 C   0  0  2  0  0  3  0  0  0  0  0  0
  182.5100  179.6220  139.0020 O   0  0  0  0  0  1  0  0  0  0  0  0
  183.8830  179.8740  138.9840 C   0  0  0  0  0  2  0  0  0  0  0  0
  185.0890  178.7910  140.9310 C   0  0  0  0  0  2  0  0  0  0  0  0
  184.0120  179.1830  141.7290 O   0  0  0  0  0  0  0  0  0  0  0  0
  184.1270  178.4050  142.8800 C   0  0  0  0  0  2  0  0  0  0  0  0
  183.5990  179.1250  145.2400 N   0  0  0  0  0  1  0  0  0  0  0  0
  181.9540  179.0610  143.5990 O   0  0  0  0  0  0  0  0  0  0  0  0
  183.1620  178.8880  143.9060 C   0  0  0  0  0  0  0  0  0  0  0  0
  1  2  1  0  0  0  0
  2 20  1  0  0  0  0
  3  2  2  0  0  0  0
  3 39  1  0  0  0  0
  4  5  1  0  0  0  0
  4  1  2  0  0  0  0
  5  3  1  0  0  0  0
  6  9  1  0  0  0  0
  6  8  1  0  0  0  0
  7  6  2  0  0  0  0
  8  1  1  0  0  0  0
 10 11  2  0  0  0  0
 11  9  1  0  0  0  0
 12 15  2  0  0  0  0
 12 16  1  0  0  0  0
 13 18  1  0  0  0  0
 14 15  1  0  0  0  0
 15 13  1  0  0  0  0
 16 11  1  6  0  0  0
 16 17  1  0  0  0  0
 17 18  1  0  0  0  0
 20 19  1  6  0  0  0
 20 21  1  0  0  0  0
 22 36  1  0  0  0  0
 23 36  2  0  0  0  0
 24 37  1  6  0  0  0
 24 29  1  0  0  0  0
 25 21  1  1  0  0  0
 25 24  1  0  0  0  0
 25 30  1  0  0  0  0
 26 28  1  0  0  0  0
 27 31  1  0  0  0  0
 27 32  2  0  0  0  0
 29 35  1  0  0  0  0
 29 26  1  1  0  0  0
 30 33  2  0  0  0  0
 31 22  2  0  0  0  0
 32 23  1  0  0  0  0
 33 38  1  0  0  0  0
 34 28  2  0  0  0  0
 34 31  1  0  0  0  0
 35 33  1  6  0  0  0
 35 34  1  0  0  0  0
 38 27  1  0  0  0  0
 39 43  1  6  0  0  0
 41 42  1  0  0  0  0
 41 40  1  0  0  0  0
 42 40  1  0  0  0  0
 42 39  1  0  0  0  0
 43 44  1  0  0  0  0
 44 46  1  6  0  0  0
 44 47  1  0  0  0  0
 46 45  1  0  0  0  0
 47 48  1  0  0  0  0
 48 49  1  0  0  0  0
 49 52  1  0  0  0  0
 51 52  2  0  0  0  0
 52 50  1  0  0  0  0
M  END
>  <MODEL>
3

>  <REMARK>
 VINA RESULT:      -7.4      2.100      3.615
  Name = 
  16 active torsions:
  status: ('A' for Active; 'I' for Inactive)
    1  A    between atoms: C_2  and  N_12
    2  A    between atoms: C_2  and  C_39
    3  A    between atoms: C_2  and  C_42
    4  A    between atoms: C_3  and  O_25
    5  A    between atoms: C_3  and  C_41
    6  A    between atoms: C_5  and  C_6
    7  A    between atoms: C_5  and  C_35
    8  A    between atoms: C_6  and  C_15
    9  A    between atoms: N_12  and  C_28
   10  A    between atoms: C_14  and  C_52
   11  A    between atoms: C_18  and  N_26
   12  A    between atoms: O_25  and  C_39
   13  A    between atoms: C_28  and  C_43
   14  A    between atoms: C_28  and  C_50
   15  A    between atoms: C_32  and  C_44
   16  A    between atoms: C_44  and  C_52
                            x       y       z     vdW  Elec       q    Type
                         _______ _______ _______ _____ _____    ______ ____

>  <TORSDO>
F 16

$$$$
=
 OpenBabel10232409263D

 52 58  0  0  1  0  0  0  0  0999 V2000
  185.2540  176.0320  136.9730 C   0  0  0  0  0  0  0  0  0  0  0  0
  185.0090  177.2020  137.6590 C   0  0  0  0  0  0  0  0  0  0  0  0
  183.6370  177.2950  137.7240 C   0  0  0  0  0  0  0  0  0  0  0  0
  184.0310  175.4730  136.6470 C   0  0  0  0  0  3  0  0  0  0  0  0
  183.0880  176.2640  137.1180 O   0  0  0  0  0  0  0  0  0  0  0  0
  187.1020  175.3110  135.3770 C   0  0  0  0  0  0  0  0  0  0  0  0
  186.4450  175.6090  134.3460 O   0  0  0  0  0  0  0  0  0  0  0  0
  186.5520  175.4990  136.6860 N   0  0  0  0  0  2  0  0  0  0  0  0
  188.4860  174.7760  135.2350 C   0  0  0  0  0  2  0  0  0  0  0  0
  189.4050  176.9110  134.8640 O   0  0  0  0  0  0  0  0  0  0  0  0
  189.4840  175.8600  135.4810 C   0  0  0  0  0  0  0  0  0  0  0  0
  191.8560  175.9620  135.9570 N   0  0  0  0  0  0  0  0  0  0  0  0
  192.7300  175.9280  138.2070 C   0  0  0  0  0  2  0  0  0  0  0  0
  194.2180  176.3990  136.1390 C   0  0  0  0  0  1  0  0  0  0  0  0
  192.8900  176.0570  136.7210 C   0  0  0  0  0  0  0  0  0  0  0  0
  190.5510  175.6610  136.5110 C   0  0  1  0  0  3  0  0  0  0  0  0
  190.2660  176.5030  137.7680 C   0  0  0  0  0  2  0  0  0  0  0  0
  191.5100  176.7410  138.6490 C   0  0  0  0  0  2  0  0  0  0  0  0
  187.0440  178.5610  137.2510 C   0  0  0  0  0  1  0  0  0  0  0  0
  186.0000  178.1480  138.2710 C   0  0  2  0  0  3  0  0  0  0  0  0
  186.6780  177.5310  139.4850 C   0  0  0  0  0  2  0  0  0  0  0  0
  189.2350  177.0520  146.1690 C   0  0  0  0  0  3  0  0  0  0  0  0
  191.6380  176.8570  145.8950 C   0  0  0  0  0  3  0  0  0  0  0  0
  186.3740  178.9690  141.5790 C   0  0  2  0  0  3  0  0  0  0  0  0
  187.2980  178.6060  140.3820 C   0  0  1  0  0  3  0  0  0  0  0  0
  185.7530  178.1210  143.8540 N   0  0  0  0  0  2  0  0  0  0  0  0
  190.2310  177.1190  143.9430 C   0  0  0  0  0  0  0  0  0  0  0  0
  186.5950  177.8150  144.7610 N   0  0  0  0  0  0  0  0  0  0  0  0
  186.2540  177.7690  142.5240 C   0  0  2  0  0  3  0  0  0  0  0  0
  188.6220  178.1620  140.8580 N   0  0  0  0  0  0  0  0  0  0  0  0
  189.0900  177.1570  144.7820 C   0  0  0  0  0  0  0  0  0  0  0  0
  191.5000  176.9690  144.5080 C   0  0  0  0  0  3  0  0  0  0  0  0
  188.7780  177.5020  141.9700 C   0  0  0  0  0  0  0  0  0  0  0  0
  187.7630  177.2870  144.1520 C   0  0  0  0  0  0  0  0  0  0  0  0
  187.6210  177.3000  142.8470 C   0  0  1  0  0  3  0  0  0  0  0  0
  190.5090  176.9010  146.7230 C   0  0  0  0  0  3  0  0  0  0  0  0
  185.0060  179.4390  141.1120 C   0  0  0  0  0  1  0  0  0  0  0  0
  190.0860  177.3000  142.5220 N   0  0  0  0  0  2  0  0  0  0  0  0
  182.8680  178.3800  138.4060 C   0  0  2  0  0  3  0  0  0  0  0  0
  181.9830  178.1750  140.8060 C   0  0  0  0  0  2  0  0  0  0  0  0
  182.4910  176.8210  140.3450 C   0  0  0  0  0  2  0  0  0  0  0  0
  181.8260  177.7560  139.3520 C   0  0  0  0  0  3  0  0  0  0  0  0
  182.3000  179.2920  137.4150 N   0  0  0  0  0  2  0  0  0  0  0  0
  180.8900  179.4640  137.7400 C   0  0  2  0  0  3  0  0  0  0  0  0
  180.4760  177.9410  135.9170 O   0  0  0  0  0  1  0  0  0  0  0  0
  180.0010  179.0880  136.5560 C   0  0  0  0  0  2  0  0  0  0  0  0
  180.6180  180.8780  138.2400 C   0  0  0  0  0  2  0  0  0  0  0  0
  181.3630  181.8160  137.5220 O   0  0  0  0  0  0  0  0  0  0  0  0
  180.5170  182.9180  137.4000 C   0  0  0  0  0  2  0  0  0  0  0  0
  182.2150  184.7730  137.5890 N   0  0  0  0  0  1  0  0  0  0  0  0
  181.0390  184.4060  135.6180 O   0  0  0  0  0  0  0  0  0  0  0  0
  181.2660  184.0580  136.8050 C   0  0  0  0  0  0  0  0  0  0  0  0
  1  2  1  0  0  0  0
  2  3  2  0  0  0  0
  2 20  1  0  0  0  0
  3 39  1  0  0  0  0
  4  1  2  0  0  0  0
  4  5  1  0  0  0  0
  5  3  1  0  0  0  0
  6  8  1  0  0  0  0
  7  6  2  0  0  0  0
  8  1  1  0  0  0  0
  9  6  1  0  0  0  0
  9 11  1  0  0  0  0
 10 11  2  0  0  0  0
 12 16  1  0  0  0  0
 12 15  2  0  0  0  0
 13 18  1  0  0  0  0
 14 15  1  0  0  0  0
 15 13  1  0  0  0  0
 16 11  1  6  0  0  0
 16 17  1  0  0  0  0
 17 18  1  0  0  0  0
 20 19  1  6  0  0  0
 20 21  1  0  0  0  0
 22 36  1  0  0  0  0
 23 36  2  0  0  0  0
 24 37  1  6  0  0  0
 24 29  1  0  0  0  0
 25 21  1  1  0  0  0
 25 30  1  0  0  0  0
 25 24  1  0  0  0  0
 26 28  1  0  0  0  0
 27 32  2  0  0  0  0
 27 31  1  0  0  0  0
 29 35  1  0  0  0  0
 29 26  1  1  0  0  0
 30 33  2  0  0  0  0
 31 22  2  0  0  0  0
 32 23  1  0  0  0  0
 33 38  1  0  0  0  0
 34 28  2  0  0  0  0
 34 31  1  0  0  0  0
 35 33  1  6  0  0  0
 35 34  1  0  0  0  0
 38 27  1  0  0  0  0
 39 43  1  6  0  0  0
 39 42  1  0  0  0  0
 41 40  1  0  0  0  0
 42 41  1  0  0  0  0
 42 40  1  0  0  0  0
 43 44  1  0  0  0  0
 44 46  1  6  0  0  0
 44 47  1  0  0  0  0
 45 46  1  0  0  0  0
 48 47  1  0  0  0  0
 49 48  1  0  0  0  0
 51 52  2  0  0  0  0
 52 49  1  0  0  0  0
 52 50  1  0  0  0  0
M  END
>  <MODEL>
4

>  <REMARK>
 VINA RESULT:      -7.3      2.740      5.107
  Name = 
  16 active torsions:
  status: ('A' for Active; 'I' for Inactive)
    1  A    between atoms: C_2  and  N_12
    2  A    between atoms: C_2  and  C_39
    3  A    between atoms: C_2  and  C_42
    4  A    between atoms: C_3  and  O_25
    5  A    between atoms: C_3  and  C_41
    6  A    between atoms: C_5  and  C_6
    7  A    between atoms: C_5  and  C_35
    8  A    between atoms: C_6  and  C_15
    9  A    between atoms: N_12  and  C_28
   10  A    between atoms: C_14  and  C_52
   11  A    between atoms: C_18  and  N_26
   12  A    between atoms: O_25  and  C_39
   13  A    between atoms: C_28  and  C_43
   14  A    between atoms: C_28  and  C_50
   15  A    between atoms: C_32  and  C_44
   16  A    between atoms: C_44  and  C_52
                            x       y       z     vdW  Elec       q    Type
                         _______ _______ _______ _____ _____    ______ ____

>  <TORSDO>
F 16

$$$$
=
 OpenBabel10232409263D

 52 58  0  0  1  0  0  0  0  0999 V2000
  184.7140  177.2320  137.4740 C   0  0  0  0  0  0  0  0  0  0  0  0
  186.0820  177.2410  137.6360 C   0  0  0  0  0  0  0  0  0  0  0  0
  186.5420  176.2250  136.8280 C   0  0  0  0  0  0  0  0  0  0  0  0
  184.4030  176.2160  136.5880 C   0  0  0  0  0  3  0  0  0  0  0  0
  185.5300  175.6380  136.2250 O   0  0  0  0  0  0  0  0  0  0  0  0
  182.6210  177.7710  138.8180 C   0  0  0  0  0  0  0  0  0  0  0  0
  182.2880  176.5630  138.9440 O   0  0  0  0  0  0  0  0  0  0  0  0
  183.8020  178.1420  138.0990 N   0  0  0  0  0  2  0  0  0  0  0  0
  181.7850  178.8310  139.4490 C   0  0  0  0  0  2  0  0  0  0  0  0
  182.7200  180.9450  139.0030 O   0  0  0  0  0  0  0  0  0  0  0  0
  181.8970  180.1030  138.6750 C   0  0  0  0  0  0  0  0  0  0  0  0
  181.0850  181.7020  137.0480 N   0  0  0  0  0  0  0  0  0  0  0  0
  179.9830  181.0300  135.0070 C   0  0  0  0  0  2  0  0  0  0  0  0
  180.6750  183.4830  135.4780 C   0  0  0  0  0  1  0  0  0  0  0  0
  180.5770  182.0630  135.9200 C   0  0  0  0  0  0  0  0  0  0  0  0
  181.0250  180.3190  137.4780 C   0  0  1  0  0  3  0  0  0  0  0  0
  181.4090  179.3580  136.3380 C   0  0  0  0  0  2  0  0  0  0  0  0
  180.9200  179.8200  134.9490 C   0  0  0  0  0  2  0  0  0  0  0  0
  188.1650  178.5870  137.6890 C   0  0  0  0  0  1  0  0  0  0  0  0
  186.9190  178.1820  138.4520 C   0  0  2  0  0  3  0  0  0  0  0  0
  187.3070  177.5620  139.7860 C   0  0  0  0  0  2  0  0  0  0  0  0
  189.0340  176.9660  146.7220 C   0  0  0  0  0  3  0  0  0  0  0  0
  191.4580  176.8510  146.7440 C   0  0  0  0  0  3  0  0  0  0  0  0
  186.7000  178.9300  141.8600 C   0  0  2  0  0  3  0  0  0  0  0  0
  187.7770  178.6290  140.7790 C   0  0  1  0  0  3  0  0  0  0  0  0
  185.8310  177.9980  144.0190 N   0  0  0  0  0  2  0  0  0  0  0  0
  190.2940  177.1270  144.6400 C   0  0  0  0  0  0  0  0  0  0  0  0
  186.5650  177.6910  145.0160 N   0  0  0  0  0  0  0  0  0  0  0  0
  186.5040  177.6990  142.7540 C   0  0  2  0  0  3  0  0  0  0  0  0
  189.0460  178.2100  141.4050 N   0  0  0  0  0  0  0  0  0  0  0  0
  189.0580  177.1070  145.3310 C   0  0  0  0  0  0  0  0  0  0  0  0
  191.4890  176.9990  145.3540 C   0  0  0  0  0  3  0  0  0  0  0  0
  189.0850  177.5240  142.5110 C   0  0  0  0  0  0  0  0  0  0  0  0
  187.8150  177.2160  144.5440 C   0  0  0  0  0  0  0  0  0  0  0  0
  187.8350  177.2620  143.2320 C   0  0  1  0  0  3  0  0  0  0  0  0
  190.2350  176.8380  147.4260 C   0  0  0  0  0  3  0  0  0  0  0  0
  185.3860  179.3720  141.2390 C   0  0  0  0  0  1  0  0  0  0  0  0
  190.3200  177.3440  143.2170 N   0  0  0  0  0  2  0  0  0  0  0  0
  187.9750  175.8510  136.6270 C   0  0  2  0  0  3  0  0  0  0  0  0
  189.3490  176.5590  134.5790 C   0  0  0  0  0  2  0  0  0  0  0  0
  187.8900  176.9090  134.3460 C   0  0  0  0  0  2  0  0  0  0  0  0
  188.2520  175.6580  135.1250 C   0  0  0  0  0  3  0  0  0  0  0  0
  188.3110  174.6880  137.4470 N   0  0  0  0  0  2  0  0  0  0  0  0
  188.7380  173.6280  136.5440 C   0  0  2  0  0  3  0  0  0  0  0  0
  186.6220  172.6570  137.1700 O   0  0  0  0  0  1  0  0  0  0  0  0
  187.9230  172.3550  136.7630 C   0  0  0  0  0  2  0  0  0  0  0  0
  190.2370  173.3820  136.6700 C   0  0  0  0  0  2  0  0  0  0  0  0
  190.8030  174.2120  137.6380 O   0  0  0  0  0  0  0  0  0  0  0  0
  191.9880  174.6680  137.0610 C   0  0  0  0  0  2  0  0  0  0  0  0
  193.7130  175.9740  138.3580 N   0  0  0  0  0  1  0  0  0  0  0  0
  191.6560  176.9040  137.8070 O   0  0  0  0  0  0  0  0  0  0  0  0
  192.4290  175.9140  137.7460 C   0  0  0  0  0  0  0  0  0  0  0  0
  1  2  1  0  0  0  0
  1  8  1  0  0  0  0
  2 20  1  0  0  0  0
  3  2  2  0  0  0  0
  4  1  2  0  0  0  0
  5  4  1  0  0  0  0
  5  3  1  0  0  0  0
  6  7  2  0  0  0  0
  6  9  1  0  0  0  0
  8  6  1  0  0  0  0
 11 10  2  0  0  0  0
 11  9  1  0  0  0  0
 12 16  1  0  0  0  0
 13 15  1  0  0  0  0
 14 15  1  0  0  0  0
 15 12  2  0  0  0  0
 16 11  1  1  0  0  0
 17 16  1  0  0  0  0
 18 13  1  0  0  0  0
 18 17  1  0  0  0  0
 20 19  1  6  0  0  0
 20 21  1  0  0  0  0
 22 36  1  0  0  0  0
 23 36  2  0  0  0  0
 24 37  1  6  0  0  0
 24 29  1  0  0  0  0
 25 21  1  6  0  0  0
 25 30  1  0  0  0  0
 25 24  1  0  0  0  0
 26 28  1  0  0  0  0
 27 31  1  0  0  0  0
 27 32  2  0  0  0  0
 29 35  1  0  0  0  0
 29 26  1  1  0  0  0
 30 33  2  0  0  0  0
 31 22  2  0  0  0  0
 32 23  1  0  0  0  0
 33 38  1  0  0  0  0
 34 28  2  0  0  0  0
 34 31  1  0  0  0  0
 35 33  1  1  0  0  0
 35 34  1  0  0  0  0
 38 27  1  0  0  0  0
 39  3  1  0  0  0  0
 39 43  1  1  0  0  0
 40 42  1  0  0  0  0
 41 40  1  0  0  0  0
 41 42  1  0  0  0  0
 42 39  1  0  0  0  0
 44 47  1  1  0  0  0
 44 46  1  0  0  0  0
 44 43  1  0  0  0  0
 46 45  1  0  0  0  0
 47 48  1  0  0  0  0
 49 48  1  0  0  0  0
 49 52  1  0  0  0  0
 52 51  2  0  0  0  0
 52 50  1  0  0  0  0
M  END
>  <MODEL>
5

>  <REMARK>
 VINA RESULT:      -7.3      2.751      8.827
  Name = 
  16 active torsions:
  status: ('A' for Active; 'I' for Inactive)
    1  A    between atoms: C_2  and  N_12
    2  A    between atoms: C_2  and  C_39
    3  A    between atoms: C_2  and  C_42
    4  A    between atoms: C_3  and  O_25
    5  A    between atoms: C_3  and  C_41
    6  A    between atoms: C_5  and  C_6
    7  A    between atoms: C_5  and  C_35
    8  A    between atoms: C_6  and  C_15
    9  A    between atoms: N_12  and  C_28
   10  A    between atoms: C_14  and  C_52
   11  A    between atoms: C_18  and  N_26
   12  A    between atoms: O_25  and  C_39
   13  A    between atoms: C_28  and  C_43
   14  A    between atoms: C_28  and  C_50
   15  A    between atoms: C_32  and  C_44
   16  A    between atoms: C_44  and  C_52
                            x       y       z     vdW  Elec       q    Type
                         _______ _______ _______ _____ _____    ______ ____

>  <TORSDO>
F 16

$$$$
=
 OpenBabel10232409263D

 52 58  0  0  1  0  0  0  0  0999 V2000
  190.5000  176.9930  138.8070 C   0  0  0  0  0  0  0  0  0  0  0  0
  190.1060  176.9370  137.4880 C   0  0  0  0  0  0  0  0  0  0  0  0
  190.9930  176.0720  136.8880 C   0  0  0  0  0  0  0  0  0  0  0  0
  191.6050  176.1730  138.9500 C   0  0  0  0  0  3  0  0  0  0  0  0
  191.8660  175.6390  137.7730 O   0  0  0  0  0  0  0  0  0  0  0  0
  189.5960  177.2960  141.1670 C   0  0  0  0  0  0  0  0  0  0  0  0
  189.9390  176.1430  141.5380 O   0  0  0  0  0  0  0  0  0  0  0  0
  189.8490  177.7500  139.8330 N   0  0  0  0  0  2  0  0  0  0  0  0
  188.9380  178.2140  142.1400 C   0  0  0  0  0  2  0  0  0  0  0  0
  190.7130  178.4650  143.6650 O   0  0  0  0  0  0  0  0  0  0  0  0
  189.5690  178.0750  143.4860 C   0  0  0  0  0  0  0  0  0  0  0  0
  189.3100  177.9390  145.8900 N   0  0  0  0  0  0  0  0  0  0  0  0
  187.3050  177.0870  146.9320 C   0  0  0  0  0  2  0  0  0  0  0  0
  189.2070  178.2200  148.2800 C   0  0  0  0  0  1  0  0  0  0  0  0
  188.6610  177.7290  146.9840 C   0  0  0  0  0  0  0  0  0  0  0  0
  188.7770  177.4960  144.6160 C   0  0  1  0  0  3  0  0  0  0  0  0
  187.2840  177.8460  144.4790 C   0  0  0  0  0  2  0  0  0  0  0  0
  186.4960  177.7220  145.7990 C   0  0  0  0  0  2  0  0  0  0  0  0
  188.9690  179.1030  137.0760 C   0  0  0  0  0  1  0  0  0  0  0  0
  188.9310  177.6060  136.8370 C   0  0  2  0  0  3  0  0  0  0  0  0
  187.6160  177.0340  137.3470 C   0  0  0  0  0  2  0  0  0  0  0  0
  180.8280  176.8490  139.6540 C   0  0  0  0  0  3  0  0  0  0  0  0
  180.7520  178.4560  141.4720 C   0  0  0  0  0  3  0  0  0  0  0  0
  185.3620  177.2810  136.1630 C   0  0  2  0  0  3  0  0  0  0  0  0
  186.4450  177.9720  137.0390 C   0  0  1  0  0  3  0  0  0  0  0  0
  183.4160  175.7180  136.3910 N   0  0  0  0  0  2  0  0  0  0  0  0
  182.8150  178.1330  140.2470 C   0  0  0  0  0  0  0  0  0  0  0  0
  182.4620  175.8750  137.2230 N   0  0  0  0  0  0  0  0  0  0  0  0
  184.6920  176.1550  136.9590 C   0  0  2  0  0  3  0  0  0  0  0  0
  185.8600  178.4750  138.2960 N   0  0  0  0  0  0  0  0  0  0  0  0
  182.1750  177.1590  139.4420 C   0  0  0  0  0  0  0  0  0  0  0  0
  182.0970  178.7760  141.2590 C   0  0  0  0  0  3  0  0  0  0  0  0
  184.8830  177.8660  138.9040 C   0  0  0  0  0  0  0  0  0  0  0  0
  182.9690  176.4790  138.4020 C   0  0  0  0  0  0  0  0  0  0  0  0
  184.2540  176.7090  138.2600 C   0  0  1  0  0  3  0  0  0  0  0  0
  180.1190  177.4980  140.6700 C   0  0  0  0  0  3  0  0  0  0  0  0
  185.9400  176.7610  134.8580 C   0  0  0  0  0  1  0  0  0  0  0  0
  184.1810  178.5020  139.9800 N   0  0  0  0  0  2  0  0  0  0  0  0
  190.9650  175.6490  135.4550 C   0  0  2  0  0  3  0  0  0  0  0  0
  189.5350  173.7180  134.5570 C   0  0  0  0  0  2  0  0  0  0  0  0
  189.4710  173.7230  136.0740 C   0  0  0  0  0  2  0  0  0  0  0  0
  190.7530  174.1270  135.3710 C   0  0  0  0  0  3  0  0  0  0  0  0
  192.1680  176.1190  134.7690 N   0  0  0  0  0  2  0  0  0  0  0  0
  193.3160  175.5610  135.4700 C   0  0  2  0  0  3  0  0  0  0  0  0
  194.5370  177.3270  134.3750 O   0  0  0  0  0  1  0  0  0  0  0  0
  194.4610  176.5680  135.5440 C   0  0  0  0  0  2  0  0  0  0  0  0
  193.7470  174.2420  134.8380 C   0  0  0  0  0  2  0  0  0  0  0  0
  194.8510  173.7050  135.5020 O   0  0  0  0  0  0  0  0  0  0  0  0
  194.3500  173.2850  136.7330 C   0  0  0  0  0  2  0  0  0  0  0  0
  196.5280  174.2650  137.5440 N   0  0  0  0  0  1  0  0  0  0  0  0
  195.3230  172.7600  138.8420 O   0  0  0  0  0  0  0  0  0  0  0  0
  195.4070  173.4170  137.7730 C   0  0  0  0  0  0  0  0  0  0  0  0
  1  4  2  0  0  0  0
  1  8  1  0  0  0  0
  2  1  1  0  0  0  0
  3  2  2  0  0  0  0
  3  5  1  0  0  0  0
  5  4  1  0  0  0  0
  6  7  2  0  0  0  0
  6  9  1  0  0  0  0
  8  6  1  0  0  0  0
  9 11  1  0  0  0  0
 11 10  2  0  0  0  0
 12 15  2  0  0  0  0
 13 15  1  0  0  0  0
 15 14  1  0  0  0  0
 16 11  1  6  0  0  0
 16 12  1  0  0  0  0
 17 16  1  0  0  0  0
 17 18  1  0  0  0  0
 18 13  1  0  0  0  0
 20 19  1  1  0  0  0
 20 21  1  0  0  0  0
 20  2  1  0  0  0  0
 22 36  1  0  0  0  0
 24 37  1  6  0  0  0
 24 29  1  0  0  0  0
 24 25  1  0  0  0  0
 25 21  1  1  0  0  0
 25 30  1  0  0  0  0
 26 28  1  0  0  0  0
 27 32  2  0  0  0  0
 28 34  2  0  0  0  0
 29 26  1  6  0  0  0
 29 35  1  0  0  0  0
 30 33  2  0  0  0  0
 31 22  2  0  0  0  0
 31 27  1  0  0  0  0
 32 23  1  0  0  0  0
 33 38  1  0  0  0  0
 34 31  1  0  0  0  0
 35 34  1  6  0  0  0
 35 33  1  0  0  0  0
 36 23  2  0  0  0  0
 38 27  1  0  0  0  0
 39 43  1  1  0  0  0
 39  3  1  0  0  0  0
 40 42  1  0  0  0  0
 40 41  1  0  0  0  0
 42 39  1  0  0  0  0
 42 41  1  0  0  0  0
 43 44  1  0  0  0  0
 44 47  1  6  0  0  0
 44 46  1  0  0  0  0
 45 46  1  0  0  0  0
 47 48  1  0  0  0  0
 48 49  1  0  0  0  0
 49 52  1  0  0  0  0
 50 52  1  0  0  0  0
 52 51  2  0  0  0  0
M  END
>  <MODEL>
6

>  <REMARK>
 VINA RESULT:      -7.0      2.789      9.010
  Name = 
  16 active torsions:
  status: ('A' for Active; 'I' for Inactive)
    1  A    between atoms: C_2  and  N_12
    2  A    between atoms: C_2  and  C_39
    3  A    between atoms: C_2  and  C_42
    4  A    between atoms: C_3  and  O_25
    5  A    between atoms: C_3  and  C_41
    6  A    between atoms: C_5  and  C_6
    7  A    between atoms: C_5  and  C_35
    8  A    between atoms: C_6  and  C_15
    9  A    between atoms: N_12  and  C_28
   10  A    between atoms: C_14  and  C_52
   11  A    between atoms: C_18  and  N_26
   12  A    between atoms: O_25  and  C_39
   13  A    between atoms: C_28  and  C_43
   14  A    between atoms: C_28  and  C_50
   15  A    between atoms: C_32  and  C_44
   16  A    between atoms: C_44  and  C_52
                            x       y       z     vdW  Elec       q    Type
                         _______ _______ _______ _____ _____    ______ ____

>  <TORSDO>
F 16

$$$$
=
 OpenBabel10232409263D

 52 58  0  0  1  0  0  0  0  0999 V2000
  191.9030  177.1350  139.2490 C   0  0  0  0  0  0  0  0  0  0  0  0
  191.3060  176.6330  138.1120 C   0  0  0  0  0  0  0  0  0  0  0  0
  192.3420  176.1200  137.3640 C   0  0  0  0  0  0  0  0  0  0  0  0
  193.2640  176.9140  139.1400 C   0  0  0  0  0  3  0  0  0  0  0  0
  193.4830  176.3010  137.9940 O   0  0  0  0  0  0  0  0  0  0  0  0
  190.5140  177.0460  141.3800 C   0  0  0  0  0  0  0  0  0  0  0  0
  190.4530  175.7890  141.3890 O   0  0  0  0  0  0  0  0  0  0  0  0
  191.2120  177.7460  140.3440 N   0  0  0  0  0  2  0  0  0  0  0  0
  189.8710  177.8190  142.4790 C   0  0  0  0  0  2  0  0  0  0  0  0
  191.3420  176.8970  144.0680 O   0  0  0  0  0  0  0  0  0  0  0  0
  190.1890  177.1990  143.8000 C   0  0  0  0  0  0  0  0  0  0  0  0
  189.4650  177.5610  146.0830 N   0  0  0  0  0  0  0  0  0  0  0  0
  187.1670  177.2890  146.7720 C   0  0  0  0  0  2  0  0  0  0  0  0
  188.9830  178.2940  148.3250 C   0  0  0  0  0  1  0  0  0  0  0  0
  188.5950  177.6770  147.0260 C   0  0  0  0  0  0  0  0  0  0  0  0
  189.0970  176.9910  144.8010 C   0  0  1  0  0  3  0  0  0  0  0  0
  187.7650  177.5710  144.2900 C   0  0  0  0  0  2  0  0  0  0  0  0
  186.7370  177.8380  145.4100 C   0  0  0  0  0  2  0  0  0  0  0  0
  189.3620  175.1470  137.7090 C   0  0  0  0  0  1  0  0  0  0  0  0
  189.8460  176.5820  137.7710 C   0  0  2  0  0  3  0  0  0  0  0  0
  189.5620  177.2820  136.4500 C   0  0  0  0  0  2  0  0  0  0  0  0
  183.5490  178.1750  140.2560 C   0  0  0  0  0  3  0  0  0  0  0  0
  184.2860  179.1630  142.3470 C   0  0  0  0  0  3  0  0  0  0  0  0
  187.3270  178.4180  135.9430 C   0  0  2  0  0  3  0  0  0  0  0  0
  188.7040  178.5330  136.6570 C   0  0  1  0  0  3  0  0  0  0  0  0
  185.0620  177.4020  136.2890 N   0  0  0  0  0  2  0  0  0  0  0  0
  185.9070  178.6900  140.6120 C   0  0  0  0  0  0  0  0  0  0  0  0
  184.3600  177.5520  137.3440 N   0  0  0  0  0  0  0  0  0  0  0  0
  186.4880  177.3200  136.6080 C   0  0  2  0  0  3  0  0  0  0  0  0
  188.5270  178.7900  138.0990 N   0  0  0  0  0  0  0  0  0  0  0  0
  184.8690  178.1810  139.7930 C   0  0  0  0  0  0  0  0  0  0  0  0
  185.6060  179.1790  141.8870 C   0  0  0  0  0  3  0  0  0  0  0  0
  187.5290  178.3010  138.7770 C   0  0  0  0  0  0  0  0  0  0  0  0
  185.2240  177.6460  138.4660 C   0  0  0  0  0  0  0  0  0  0  0  0
  186.4730  177.5740  138.0670 C   0  0  1  0  0  3  0  0  0  0  0  0
  183.2600  178.6660  141.5330 C   0  0  0  0  0  3  0  0  0  0  0  0
  187.4840  178.1630  134.4540 C   0  0  0  0  0  1  0  0  0  0  0  0
  187.2530  178.7620  140.1060 N   0  0  0  0  0  2  0  0  0  0  0  0
  192.2060  175.4270  136.0470 C   0  0  2  0  0  3  0  0  0  0  0  0
  192.0500  173.0600  135.0710 C   0  0  0  0  0  2  0  0  0  0  0  0
  191.2810  173.1110  136.3800 C   0  0  0  0  0  2  0  0  0  0  0  0
  192.5450  173.9340  136.2130 C   0  0  0  0  0  3  0  0  0  0  0  0
  193.0110  176.1090  135.0350 N   0  0  0  0  0  2  0  0  0  0  0  0
  194.3700  176.2040  135.5510 C   0  0  2  0  0  3  0  0  0  0  0  0
  196.3730  177.5430  135.4700 O   0  0  0  0  0  1  0  0  0  0  0  0
  195.1610  177.2910  134.8250 C   0  0  0  0  0  2  0  0  0  0  0  0
  195.0660  174.8490  135.4960 C   0  0  0  0  0  2  0  0  0  0  0  0
  195.7090  174.5660  136.7020 O   0  0  0  0  0  0  0  0  0  0  0  0
  196.6660  173.6070  136.3730 C   0  0  0  0  0  2  0  0  0  0  0  0
  195.7270  172.5660  138.4690 N   0  0  0  0  0  1  0  0  0  0  0  0
  197.4100  171.5230  137.2510 O   0  0  0  0  0  0  0  0  0  0  0  0
  196.6270  172.5010  137.3690 C   0  0  0  0  0  0  0  0  0  0  0  0
  1  8  1  0  0  0  0
  2  1  1  0  0  0  0
  3  5  1  0  0  0  0
  3  2  2  0  0  0  0
  4  1  2  0  0  0  0
  5  4  1  0  0  0  0
  6  7  2  0  0  0  0
  6  9  1  0  0  0  0
  8  6  1  0  0  0  0
  9 11  1  0  0  0  0
 11 10  2  0  0  0  0
 12 15  2  0  0  0  0
 13 15  1  0  0  0  0
 15 14  1  0  0  0  0
 16 11  1  6  0  0  0
 16 12  1  0  0  0  0
 17 16  1  0  0  0  0
 17 18  1  0  0  0  0
 18 13  1  0  0  0  0
 20 19  1  6  0  0  0
 20  2  1  0  0  0  0
 21 20  1  0  0  0  0
 22 36  1  0  0  0  0
 24 37  1  6  0  0  0
 24 29  1  0  0  0  0
 24 25  1  0  0  0  0
 25 21  1  1  0  0  0
 25 30  1  0  0  0  0
 26 28  1  0  0  0  0
 27 32  2  0  0  0  0
 28 34  2  0  0  0  0
 29 26  1  6  0  0  0
 29 35  1  0  0  0  0
 30 33  2  0  0  0  0
 31 22  2  0  0  0  0
 31 27  1  0  0  0  0
 32 23  1  0  0  0  0
 33 38  1  0  0  0  0
 34 31  1  0  0  0  0
 35 34  1  6  0  0  0
 35 33  1  0  0  0  0
 36 23  2  0  0  0  0
 38 27  1  0  0  0  0
 39 43  1  6  0  0  0
 39 42  1  0  0  0  0
 39  3  1  0  0  0  0
 40 42  1  0  0  0  0
 40 41  1  0  0  0  0
 42 41  1  0  0  0  0
 43 44  1  0  0  0  0
 44 46  1  6  0  0  0
 46 45  1  0  0  0  0
 47 44  1  0  0  0  0
 47 48  1  0  0  0  0
 49 48  1  0  0  0  0
 49 52  1  0  0  0  0
 51 52  2  0  0  0  0
 52 50  1  0  0  0  0
M  END
>  <MODEL>
7

>  <REMARK>
 VINA RESULT:      -6.9      2.865      8.850
  Name = 
  16 active torsions:
  status: ('A' for Active; 'I' for Inactive)
    1  A    between atoms: C_2  and  N_12
    2  A    between atoms: C_2  and  C_39
    3  A    between atoms: C_2  and  C_42
    4  A    between atoms: C_3  and  O_25
    5  A    between atoms: C_3  and  C_41
    6  A    between atoms: C_5  and  C_6
    7  A    between atoms: C_5  and  C_35
    8  A    between atoms: C_6  and  C_15
    9  A    between atoms: N_12  and  C_28
   10  A    between atoms: C_14  and  C_52
   11  A    between atoms: C_18  and  N_26
   12  A    between atoms: O_25  and  C_39
   13  A    between atoms: C_28  and  C_43
   14  A    between atoms: C_28  and  C_50
   15  A    between atoms: C_32  and  C_44
   16  A    between atoms: C_44  and  C_52
                            x       y       z     vdW  Elec       q    Type
                         _______ _______ _______ _____ _____    ______ ____

>  <TORSDO>
F 16

$$$$
=
 OpenBabel10232409263D

 52 58  0  0  1  0  0  0  0  0999 V2000
  191.9900  174.1530  137.0150 C   0  0  0  0  0  0  0  0  0  0  0  0
  191.1560  175.2480  137.0920 C   0  0  0  0  0  0  0  0  0  0  0  0
  190.1150  174.9620  136.2370 C   0  0  0  0  0  0  0  0  0  0  0  0
  191.4280  173.2600  136.1200 C   0  0  0  0  0  3  0  0  0  0  0  0
  190.3030  173.7860  135.6780 O   0  0  0  0  0  0  0  0  0  0  0  0
  194.5150  174.3070  137.2970 C   0  0  0  0  0  0  0  0  0  0  0  0
  194.7000  174.7790  136.1450 O   0  0  0  0  0  0  0  0  0  0  0  0
  193.2000  173.9810  137.7610 N   0  0  0  0  0  2  0  0  0  0  0  0
  195.6810  174.1060  138.2020 C   0  0  0  0  0  2  0  0  0  0  0  0
  197.6180  174.8340  137.0800 O   0  0  0  0  0  0  0  0  0  0  0  0
  196.9220  173.8830  137.4030 C   0  0  0  0  0  0  0  0  0  0  0  0
  196.4610  171.5230  137.6890 N   0  0  0  0  0  0  0  0  0  0  0  0
  197.3830  169.8360  136.2290 C   0  0  0  0  0  2  0  0  0  0  0  0
  195.5810  169.3050  138.0140 C   0  0  0  0  0  1  0  0  0  0  0  0
  196.4960  170.2790  137.3560 C   0  0  0  0  0  0  0  0  0  0  0  0
  197.3240  172.4890  137.0360 C   0  0  1  0  0  3  0  0  0  0  0  0
  197.3240  172.3000  135.5080 C   0  0  0  0  0  2  0  0  0  0  0  0
  197.2450  170.8230  135.0680 C   0  0  0  0  0  2  0  0  0  0  0  0
  192.7400  176.9170  138.0180 C   0  0  0  0  0  1  0  0  0  0  0  0
  191.2940  176.4650  137.9580 C   0  0  2  0  0  3  0  0  0  0  0  0
  190.7750  176.2050  139.3650 C   0  0  0  0  0  2  0  0  0  0  0  0
  188.7480  177.2770  146.1610 C   0  0  0  0  0  3  0  0  0  0  0  0
  190.7900  177.0570  147.4530 C   0  0  0  0  0  3  0  0  0  0  0  0
  189.4680  178.0730  140.5230 C   0  0  2  0  0  3  0  0  0  0  0  0
  190.8680  177.4620  140.2340 C   0  0  1  0  0  3  0  0  0  0  0  0
  187.5090  177.7520  142.0540 N   0  0  0  0  0  2  0  0  0  0  0  0
  190.8740  176.8540  145.0430 C   0  0  0  0  0  0  0  0  0  0  0  0
  187.5950  177.6690  143.3240 N   0  0  0  0  0  0  0  0  0  0  0  0
  188.6550  177.1150  141.4020 C   0  0  2  0  0  3  0  0  0  0  0  0
  191.5760  177.1540  141.4910 N   0  0  0  0  0  0  0  0  0  0  0  0
  189.4750  177.0650  144.9850 C   0  0  0  0  0  0  0  0  0  0  0  0
  191.5230  176.8520  146.2800 C   0  0  0  0  0  3  0  0  0  0  0  0
  190.9510  176.7640  142.5650 C   0  0  0  0  0  0  0  0  0  0  0  0
  188.8160  177.0320  143.6660 C   0  0  0  0  0  0  0  0  0  0  0  0
  189.4850  176.7490  142.5720 C   0  0  1  0  0  3  0  0  0  0  0  0
  189.4070  177.2720  147.3940 C   0  0  0  0  0  3  0  0  0  0  0  0
  188.7230  178.4080  139.2420 C   0  0  0  0  0  1  0  0  0  0  0  0
  191.6310  176.7080  143.8270 N   0  0  0  0  0  2  0  0  0  0  0  0
  188.9240  175.8320  135.9940 C   0  0  2  0  0  3  0  0  0  0  0  0
  188.7740  177.8200  134.3790 C   0  0  0  0  0  2  0  0  0  0  0  0
  190.1900  177.2700  134.3640 C   0  0  0  0  0  2  0  0  0  0  0  0
  189.3890  177.2590  135.6530 C   0  0  0  0  0  3  0  0  0  0  0  0
  188.0100  175.7620  137.1330 N   0  0  0  0  0  2  0  0  0  0  0  0
  186.6530  175.8120  136.6070 C   0  0  2  0  0  3  0  0  0  0  0  0
  185.3270  177.2740  137.9920 O   0  0  0  0  0  1  0  0  0  0  0  0
  186.0400  177.1980  136.7930 C   0  0  0  0  0  2  0  0  0  0  0  0
  185.7930  174.7140  137.2220 C   0  0  0  0  0  2  0  0  0  0  0  0
  184.6620  174.4670  136.4420 O   0  0  0  0  0  0  0  0  0  0  0  0
  183.6740  174.1100  137.3610 C   0  0  0  0  0  2  0  0  0  0  0  0
  181.6260  175.1400  138.4130 N   0  0  0  0  0  1  0  0  0  0  0  0
  182.6060  176.0630  136.5180 O   0  0  0  0  0  0  0  0  0  0  0  0
  182.6250  175.1650  137.3990 C   0  0  0  0  0  0  0  0  0  0  0  0
  1  2  1  0  0  0  0
  1  8  1  0  0  0  0
  2 20  1  0  0  0  0
  3  2  2  0  0  0  0
  4  1  2  0  0  0  0
  5  4  1  0  0  0  0
  5  3  1  0  0  0  0
  6  8  1  0  0  0  0
  6  9  1  0  0  0  0
  7  6  2  0  0  0  0
 10 11  2  0  0  0  0
 11  9  1  0  0  0  0
 13 15  1  0  0  0  0
 15 12  2  0  0  0  0
 15 14  1  0  0  0  0
 16 11  1  6  0  0  0
 16 12  1  0  0  0  0
 17 16  1  0  0  0  0
 18 17  1  0  0  0  0
 18 13  1  0  0  0  0
 20 19  1  1  0  0  0
 20 21  1  0  0  0  0
 22 36  1  0  0  0  0
 24 37  1  6  0  0  0
 24 29  1  0  0  0  0
 25 21  1  1  0  0  0
 25 24  1  0  0  0  0
 25 30  1  0  0  0  0
 26 28  1  0  0  0  0
 27 32  2  0  0  0  0
 28 34  2  0  0  0  0
 29 26  1  1  0  0  0
 29 35  1  0  0  0  0
 30 33  2  0  0  0  0
 31 27  1  0  0  0  0
 31 22  2  0  0  0  0
 32 23  1  0  0  0  0
 33 38  1  0  0  0  0
 34 31  1  0  0  0  0
 35 33  1  1  0  0  0
 35 34  1  0  0  0  0
 36 23  2  0  0  0  0
 38 27  1  0  0  0  0
 39  3  1  0  0  0  0
 39 43  1  1  0  0  0
 40 42  1  0  0  0  0
 41 40  1  0  0  0  0
 41 42  1  0  0  0  0
 42 39  1  0  0  0  0
 44 46  1  1  0  0  0
 44 43  1  0  0  0  0
 44 47  1  0  0  0  0
 46 45  1  0  0  0  0
 48 47  1  0  0  0  0
 48 49  1  0  0  0  0
 49 52  1  0  0  0  0
 51 52  2  0  0  0  0
 52 50  1  0  0  0  0
M  END
>  <MODEL>
8

>  <REMARK>
 VINA RESULT:      -6.9      1.752      2.566
  Name = 
  16 active torsions:
  status: ('A' for Active; 'I' for Inactive)
    1  A    between atoms: C_2  and  N_12
    2  A    between atoms: C_2  and  C_39
    3  A    between atoms: C_2  and  C_42
    4  A    between atoms: C_3  and  O_25
    5  A    between atoms: C_3  and  C_41
    6  A    between atoms: C_5  and  C_6
    7  A    between atoms: C_5  and  C_35
    8  A    between atoms: C_6  and  C_15
    9  A    between atoms: N_12  and  C_28
   10  A    between atoms: C_14  and  C_52
   11  A    between atoms: C_18  and  N_26
   12  A    between atoms: O_25  and  C_39
   13  A    between atoms: C_28  and  C_43
   14  A    between atoms: C_28  and  C_50
   15  A    between atoms: C_32  and  C_44
   16  A    between atoms: C_44  and  C_52
                            x       y       z     vdW  Elec       q    Type
                         _______ _______ _______ _____ _____    ______ ____

>  <TORSDO>
F 16

$$$$
=
 OpenBabel10232409263D

 52 58  0  0  1  0  0  0  0  0999 V2000
  188.3070  177.9250  137.5490 C   0  0  0  0  0  0  0  0  0  0  0  0
  187.3270  177.9020  138.5180 C   0  0  0  0  0  0  0  0  0  0  0  0
  186.1410  177.9860  137.8250 C   0  0  0  0  0  0  0  0  0  0  0  0
  187.6790  178.0290  136.3200 C   0  0  0  0  0  3  0  0  0  0  0  0
  186.3790  178.0620  136.5340 O   0  0  0  0  0  0  0  0  0  0  0  0
  190.5820  176.8200  137.2670 C   0  0  0  0  0  0  0  0  0  0  0  0
  190.1400  175.9030  136.5260 O   0  0  0  0  0  0  0  0  0  0  0  0
  189.7140  177.8290  137.7940 N   0  0  0  0  0  2  0  0  0  0  0  0
  192.0380  176.8700  137.5810 C   0  0  0  0  0  2  0  0  0  0  0  0
  192.1430  174.5800  138.1190 O   0  0  0  0  0  0  0  0  0  0  0  0
  192.6330  175.5030  137.4850 C   0  0  0  0  0  0  0  0  0  0  0  0
  194.2660  176.5190  136.0140 N   0  0  0  0  0  0  0  0  0  0  0  0
  196.2490  175.3560  135.2780 C   0  0  0  0  0  2  0  0  0  0  0  0
  195.8600  177.8780  134.8240 C   0  0  0  0  0  1  0  0  0  0  0  0
  195.3820  176.5780  135.3740 C   0  0  0  0  0  0  0  0  0  0  0  0
  193.8020  175.2680  136.5810 C   0  0  1  0  0  3  0  0  0  0  0  0
  194.9330  174.5340  137.3240 C   0  0  0  0  0  2  0  0  0  0  0  0
  196.3130  174.6820  136.6510 C   0  0  0  0  0  2  0  0  0  0  0  0
  186.7030  178.8190  140.7360 C   0  0  0  0  0  1  0  0  0  0  0  0
  187.4880  177.7500  140.0020 C   0  0  2  0  0  3  0  0  0  0  0  0
  188.9530  177.8120  140.4100 C   0  0  0  0  0  2  0  0  0  0  0  0
  189.8030  178.2830  147.5150 C   0  0  0  0  0  3  0  0  0  0  0  0
  187.6860  177.5390  148.4390 C   0  0  0  0  0  3  0  0  0  0  0  0
  190.7210  176.9060  142.0200 C   0  0  2  0  0  3  0  0  0  0  0  0
  189.2920  176.7270  141.4350 C   0  0  1  0  0  3  0  0  0  0  0  0
  191.9310  178.2440  143.7610 N   0  0  0  0  0  2  0  0  0  0  0  0
  188.0120  177.5320  146.0400 C   0  0  0  0  0  0  0  0  0  0  0  0
  191.5580  178.3470  144.9760 N   0  0  0  0  0  0  0  0  0  0  0  0
  190.7820  178.1900  142.8550 C   0  0  2  0  0  3  0  0  0  0  0  0
  188.2820  176.7180  142.5100 N   0  0  0  0  0  0  0  0  0  0  0  0
  189.3220  178.0380  146.2250 C   0  0  0  0  0  0  0  0  0  0  0  0
  187.2010  177.2850  147.1510 C   0  0  0  0  0  3  0  0  0  0  0  0
  188.4110  177.4270  143.5940 C   0  0  0  0  0  0  0  0  0  0  0  0
  190.1400  178.3150  145.0300 C   0  0  0  0  0  0  0  0  0  0  0  0
  189.6580  178.1660  143.8180 C   0  0  1  0  0  3  0  0  0  0  0  0
  188.9840  178.0330  148.6200 C   0  0  0  0  0  3  0  0  0  0  0  0
  191.7800  176.9100  140.9310 C   0  0  0  0  0  1  0  0  0  0  0  0
  187.5440  177.2130  144.7160 N   0  0  0  0  0  2  0  0  0  0  0  0
  184.7740  177.9630  138.4310 C   0  0  2  0  0  3  0  0  0  0  0  0
  183.1340  175.9910  138.4120 C   0  0  0  0  0  2  0  0  0  0  0  0
  184.3650  175.6230  137.6030 C   0  0  0  0  0  2  0  0  0  0  0  0
  183.8560  177.0520  137.5960 C   0  0  0  0  0  3  0  0  0  0  0  0
  184.2720  179.3270  138.5900 N   0  0  0  0  0  2  0  0  0  0  0  0
  182.9320  179.2350  139.1540 C   0  0  2  0  0  3  0  0  0  0  0  0
  182.2180  181.4590  138.5570 O   0  0  0  0  0  1  0  0  0  0  0  0
  181.9450  180.1010  138.3750 C   0  0  0  0  0  2  0  0  0  0  0  0
  182.9460  179.5700  140.6410 C   0  0  0  0  0  2  0  0  0  0  0  0
  182.7300  178.4290  141.4150 O   0  0  0  0  0  0  0  0  0  0  0  0
  183.5990  178.5700  142.4970 C   0  0  0  0  0  2  0  0  0  0  0  0
  181.3900  178.7850  143.6950 N   0  0  0  0  0  1  0  0  0  0  0  0
  183.4060  178.9860  144.8330 O   0  0  0  0  0  0  0  0  0  0  0  0
  182.8130  178.7820  143.7430 C   0  0  0  0  0  0  0  0  0  0  0  0
  1  8  1  0  0  0  0
  1  2  1  0  0  0  0
  2 20  1  0  0  0  0
  3 39  1  0  0  0  0
  3  2  2  0  0  0  0
  4  5  1  0  0  0  0
  4  1  2  0  0  0  0
  5  3  1  0  0  0  0
  6  9  1  0  0  0  0
  6  8  1  0  0  0  0
  7  6  2  0  0  0  0
 11  9  1  0  0  0  0
 11 10  2  0  0  0  0
 12 16  1  0  0  0  0
 13 15  1  0  0  0  0
 13 18  1  0  0  0  0
 14 15  1  0  0  0  0
 15 12  2  0  0  0  0
 16 17  1  0  0  0  0
 16 11  1  1  0  0  0
 18 17  1  0  0  0  0
 20 21  1  0  0  0  0
 20 19  1  1  0  0  0
 22 36  1  0  0  0  0
 23 36  2  0  0  0  0
 24 37  1  6  0  0  0
 24 29  1  0  0  0  0
 25 21  1  6  0  0  0
 25 24  1  0  0  0  0
 25 30  1  0  0  0  0
 26 28  1  0  0  0  0
 27 31  1  0  0  0  0
 27 32  2  0  0  0  0
 28 34  2  0  0  0  0
 29 26  1  1  0  0  0
 29 35  1  0  0  0  0
 30 33  2  0  0  0  0
 31 22  2  0  0  0  0
 32 23  1  0  0  0  0
 33 38  1  0  0  0  0
 34 31  1  0  0  0  0
 35 33  1  1  0  0  0
 35 34  1  0  0  0  0
 38 27  1  0  0  0  0
 39 43  1  6  0  0  0
 41 40  1  0  0  0  0
 42 41  1  0  0  0  0
 42 40  1  0  0  0  0
 42 39  1  0  0  0  0
 43 44  1  0  0  0  0
 44 46  1  6  0  0  0
 44 47  1  0  0  0  0
 46 45  1  0  0  0  0
 47 48  1  0  0  0  0
 48 49  1  0  0  0  0
 49 52  1  0  0  0  0
 50 52  1  0  0  0  0
 52 51  2  0  0  0  0
M  END
>  <MODEL>
9

>  <REMARK>
 VINA RESULT:      -6.8      2.320      4.144
  Name = 
  16 active torsions:
  status: ('A' for Active; 'I' for Inactive)
    1  A    between atoms: C_2  and  N_12
    2  A    between atoms: C_2  and  C_39
    3  A    between atoms: C_2  and  C_42
    4  A    between atoms: C_3  and  O_25
    5  A    between atoms: C_3  and  C_41
    6  A    between atoms: C_5  and  C_6
    7  A    between atoms: C_5  and  C_35
    8  A    between atoms: C_6  and  C_15
    9  A    between atoms: N_12  and  C_28
   10  A    between atoms: C_14  and  C_52
   11  A    between atoms: C_18  and  N_26
   12  A    between atoms: O_25  and  C_39
   13  A    between atoms: C_28  and  C_43
   14  A    between atoms: C_28  and  C_50
   15  A    between atoms: C_32  and  C_44
   16  A    between atoms: C_44  and  C_52
                            x       y       z     vdW  Elec       q    Type
                         _______ _______ _______ _____ _____    ______ ____

>  <TORSDO>
F 16

$$$$
