=
 OpenBabel10232407543D

 26 29  0  0  1  0  0  0  0  0999 V2000
  188.2590  177.2970  142.1770 O   0  0  0  0  0  0  0  0  0  0  0  0
  188.5560  177.4060  144.4830 C   0  0  0  0  0  0  0  0  0  0  0  0
  189.0230  177.8170  146.8130 C   0  0  2  0  0  3  0  0  0  0  0  0
  188.1440  177.9490  145.7980 C   0  0  0  0  0  0  0  0  0  0  0  0
  186.3460  177.9530  143.5370 C   0  0  0  0  0  0  0  0  0  0  0  0
  186.7390  178.3940  145.9520 C   0  0  0  0  0  3  0  0  0  0  0  0
  187.6130  177.5410  143.3760 C   0  0  0  0  0  0  0  0  0  0  0  0
  189.6720  177.1670  142.3600 C   0  0  2  0  0  3  0  0  0  0  0  0
  192.3880  175.2960  145.8400 C   0  0  0  0  0  3  0  0  0  0  0  0
  191.0410  177.2520  145.1770 C   0  0  1  0  0  3  0  0  0  0  0  0
  191.5710  175.8960  144.7250 C   0  0  0  0  0  2  0  0  0  0  0  0
  190.8950  176.3530  147.4660 C   0  0  0  0  0  3  0  0  0  0  0  0
  190.0900  178.2070  143.8690 P   0  0  2  0  0  0  0  0  0  0  0  0
  190.3500  177.1640  146.5470 C   0  0  0  0  0  0  0  0  0  0  0  0
  192.0470  175.4920  147.1200 C   0  0  0  0  0  3  0  0  0  0  0  0
  185.9040  178.3810  144.8990 C   0  0  0  0  0  3  0  0  0  0  0  0
  183.9740  178.3560  142.7480 C   0  0  0  0  0  1  0  0  0  0  0  0
  185.8650  178.9880  141.4390 O   0  0  0  0  0  1  0  0  0  0  0  0
  185.4110  178.0290  142.3530 C   0  0  1  0  0  3  0  0  0  0  0  0
  187.8660  177.1650  148.7870 O   0  0  0  0  0  1  0  0  0  0  0  0
  188.6340  178.1840  148.2140 C   0  0  0  0  0  2  0  0  0  0  0  0
  190.4070  177.7050  141.1490 C   0  0  0  0  0  2  0  0  0  0  0  0
  189.9460  177.0030  139.9210 C   0  0  0  0  0  0  0  0  0  0  0  0
  190.5130  175.9340  139.5710 O   0  0  0  0  0  0  0  0  0  0  0  0
  188.3670  176.8910  137.9540 C   0  0  0  0  0  1  0  0  0  0  0  0
  188.8500  177.5320  139.1690 N   0  0  0  0  0  2  0  0  0  0  0  0
  1  8  1  0  0  0  0
  1  7  1  0  0  0  0
  2  4  1  0  0  0  0
  3 21  1  1  0  0  0
  4  6  2  0  0  0  0
  4  3  1  0  0  0  0
  5 16  2  0  0  0  0
  7  5  1  0  0  0  0
  7  2  2  0  0  0  0
  8 22  1  6  0  0  0
  8 13  1  0  0  0  0
  9 15  2  0  0  0  0
 10 11  1  6  0  0  0
 10 14  1  0  0  0  0
 11  9  1  0  0  0  0
 13  2  1  1  0  0  0
 13 10  1  0  0  0  0
 14  3  1  0  0  0  0
 14 12  2  0  0  0  0
 15 12  1  0  0  0  0
 16  6  1  0  0  0  0
 18 19  1  0  0  0  0
 19 17  1  1  0  0  0
 19  5  1  0  0  0  0
 21 20  1  0  0  0  0
 23 22  1  0  0  0  0
 24 23  2  0  0  0  0
 25 26  1  0  0  0  0
 26 23  1  0  0  0  0
M  END
>  <MODEL>
1

>  <REMARK>
 VINA RESULT:      -9.1      0.000      0.000
  Name = 
  4 active torsions:
  status: ('A' for Active; 'I' for Inactive)
    1  A    between atoms: C_3  and  C_7
    2  A    between atoms: C_3  and  C_14
    3  A    between atoms: C_5  and  C_19
    4  A    between atoms: C_10  and  C_25
                            x       y       z     vdW  Elec       q    Type
                         _______ _______ _______ _____ _____    ______ ____

>  <TORSDO>
F 4

$$$$
=
 OpenBabel10232407543D

 26 29  0  0  1  0  0  0  0  0999 V2000
  190.5970  177.1040  143.9820 O   0  0  0  0  0  0  0  0  0  0  0  0
  188.4720  177.5800  144.8030 C   0  0  0  0  0  0  0  0  0  0  0  0
  186.1900  177.7500  145.5680 C   0  0  2  0  0  3  0  0  0  0  0  0
  187.4710  177.4740  145.8910 C   0  0  0  0  0  0  0  0  0  0  0  0
  190.2920  177.1140  146.4000 C   0  0  0  0  0  0  0  0  0  0  0  0
  187.9700  177.2890  147.2730 C   0  0  0  0  0  3  0  0  0  0  0  0
  189.8610  177.2850  145.1400 C   0  0  0  0  0  0  0  0  0  0  0  0
  189.7550  177.0790  142.8260 C   0  0  2  0  0  3  0  0  0  0  0  0
  185.7490  179.4180  141.6120 C   0  0  0  0  0  3  0  0  0  0  0  0
  186.6620  177.5640  142.9580 C   0  0  1  0  0  3  0  0  0  0  0  0
  187.0060  178.6610  141.9550 C   0  0  0  0  0  2  0  0  0  0  0  0
  184.9410  179.0580  143.8950 C   0  0  0  0  0  3  0  0  0  0  0  0
  188.0900  176.4370  143.4190 P   0  0  2  0  0  0  0  0  0  0  0  0
  185.8600  178.1150  144.1480 C   0  0  0  0  0  0  0  0  0  0  0  0
  184.8000  179.6240  142.5340 C   0  0  0  0  0  3  0  0  0  0  0  0
  189.2860  177.1350  147.5050 C   0  0  0  0  0  3  0  0  0  0  0  0
  192.0560  176.6940  148.1670 C   0  0  0  0  0  1  0  0  0  0  0  0
  192.1790  175.7050  145.9990 O   0  0  0  0  0  1  0  0  0  0  0  0
  191.7530  176.8530  146.6790 C   0  0  1  0  0  3  0  0  0  0  0  0
  185.1590  179.0900  147.2420 O   0  0  0  0  0  1  0  0  0  0  0  0
  185.1350  177.8330  146.6300 C   0  0  0  0  0  2  0  0  0  0  0  0
  190.3250  176.1370  141.7850 C   0  0  0  0  0  2  0  0  0  0  0  0
  190.5260  176.8600  140.5010 C   0  0  0  0  0  0  0  0  0  0  0  0
  191.6820  177.2480  140.1840 O   0  0  0  0  0  0  0  0  0  0  0  0
  189.5520  177.7920  138.3650 C   0  0  0  0  0  1  0  0  0  0  0  0
  189.4130  177.0810  139.6280 N   0  0  0  0  0  2  0  0  0  0  0  0
  1  7  1  0  0  0  0
  2  7  2  0  0  0  0
  2  4  1  0  0  0  0
  3  4  1  0  0  0  0
  3 21  1  1  0  0  0
  4  6  2  0  0  0  0
  5 19  1  0  0  0  0
  5 16  2  0  0  0  0
  6 16  1  0  0  0  0
  7  5  1  0  0  0  0
  8 22  1  6  0  0  0
  8 13  1  0  0  0  0
  8  1  1  0  0  0  0
  9 11  1  0  0  0  0
  9 15  2  0  0  0  0
 10 11  1  1  0  0  0
 10 13  1  0  0  0  0
 10 14  1  0  0  0  0
 12 14  2  0  0  0  0
 13  2  1  1  0  0  0
 14  3  1  0  0  0  0
 15 12  1  0  0  0  0
 18 19  1  0  0  0  0
 19 17  1  1  0  0  0
 21 20  1  0  0  0  0
 23 22  1  0  0  0  0
 24 23  2  0  0  0  0
 25 26  1  0  0  0  0
 26 23  1  0  0  0  0
M  END
>  <MODEL>
2

>  <REMARK>
 VINA RESULT:      -8.8      1.917      5.052
  Name = 
  4 active torsions:
  status: ('A' for Active; 'I' for Inactive)
    1  A    between atoms: C_3  and  C_7
    2  A    between atoms: C_3  and  C_14
    3  A    between atoms: C_5  and  C_19
    4  A    between atoms: C_10  and  C_25
                            x       y       z     vdW  Elec       q    Type
                         _______ _______ _______ _____ _____    ______ ____

>  <TORSDO>
F 4

$$$$
=
 OpenBabel10232407543D

 26 29  0  0  1  0  0  0  0  0999 V2000
  186.8090  178.6170  141.6020 O   0  0  0  0  0  0  0  0  0  0  0  0
  188.2810  177.9510  143.2780 C   0  0  0  0  0  0  0  0  0  0  0  0
  189.6560  176.9530  144.9900 C   0  0  2  0  0  3  0  0  0  0  0  0
  189.5220  177.2500  143.6810 C   0  0  0  0  0  0  0  0  0  0  0  0
  189.1140  178.1490  140.9660 C   0  0  0  0  0  0  0  0  0  0  0  0
  190.6010  177.1220  142.6740 C   0  0  0  0  0  3  0  0  0  0  0  0
  188.1250  178.2790  141.8640 C   0  0  0  0  0  0  0  0  0  0  0  0
  185.9710  178.3730  142.7360 C   0  0  2  0  0  3  0  0  0  0  0  0
  186.6250  178.7700  147.4690 C   0  0  0  0  0  3  0  0  0  0  0  0
  187.0770  177.3700  145.4900 C   0  0  1  0  0  3  0  0  0  0  0  0
  186.3790  178.6310  145.9880 C   0  0  0  0  0  2  0  0  0  0  0  0
  188.8380  177.7670  147.1680 C   0  0  0  0  0  3  0  0  0  0  0  0
  186.7850  176.9660  143.6800 P   0  0  2  0  0  0  0  0  0  0  0  0
  188.5470  177.3210  145.9370 C   0  0  0  0  0  0  0  0  0  0  0  0
  187.7900  178.3900  148.0080 C   0  0  0  0  0  3  0  0  0  0  0  0
  190.4100  177.5540  141.4160 C   0  0  0  0  0  3  0  0  0  0  0  0
  189.7650  177.7580  138.5500 C   0  0  0  0  0  1  0  0  0  0  0  0
  187.5500  178.3840  139.1760 O   0  0  0  0  0  1  0  0  0  0  0  0
  188.8970  178.5470  139.5260 C   0  0  1  0  0  3  0  0  0  0  0  0
  191.8490  177.4300  145.7800 O   0  0  0  0  0  1  0  0  0  0  0  0
  190.9430  176.3960  145.5210 C   0  0  0  0  0  2  0  0  0  0  0  0
  184.5880  177.9500  142.2810 C   0  0  0  0  0  2  0  0  0  0  0  0
  183.5570  178.8050  142.9280 C   0  0  0  0  0  0  0  0  0  0  0  0
  183.9040  179.6250  143.8190 O   0  0  0  0  0  0  0  0  0  0  0  0
  181.1400  179.5120  143.1210 C   0  0  0  0  0  1  0  0  0  0  0  0
  182.1910  178.7070  142.5130 N   0  0  0  0  0  2  0  0  0  0  0  0
  1  7  1  0  0  0  0
  1  8  1  0  0  0  0
  2  4  1  0  0  0  0
  3 21  1  1  0  0  0
  3 14  1  0  0  0  0
  4  3  1  0  0  0  0
  5 16  2  0  0  0  0
  5  7  1  0  0  0  0
  6  4  2  0  0  0  0
  7  2  2  0  0  0  0
  8 22  1  6  0  0  0
  8 13  1  0  0  0  0
  9 15  2  0  0  0  0
 10 14  1  0  0  0  0
 10 11  1  6  0  0  0
 11  9  1  0  0  0  0
 12 15  1  0  0  0  0
 13  2  1  6  0  0  0
 13 10  1  0  0  0  0
 14 12  2  0  0  0  0
 16  6  1  0  0  0  0
 18 19  1  0  0  0  0
 19 17  1  6  0  0  0
 19  5  1  0  0  0  0
 21 20  1  0  0  0  0
 22 23  1  0  0  0  0
 23 24  2  0  0  0  0
 26 23  1  0  0  0  0
 26 25  1  0  0  0  0
M  END
>  <MODEL>
3

>  <REMARK>
 VINA RESULT:      -8.2      2.381      5.142
  Name = 
  4 active torsions:
  status: ('A' for Active; 'I' for Inactive)
    1  A    between atoms: C_3  and  C_7
    2  A    between atoms: C_3  and  C_14
    3  A    between atoms: C_5  and  C_19
    4  A    between atoms: C_10  and  C_25
                            x       y       z     vdW  Elec       q    Type
                         _______ _______ _______ _____ _____    ______ ____

>  <TORSDO>
F 4

$$$$
=
 OpenBabel10232407543D

 26 29  0  0  1  0  0  0  0  0999 V2000
  188.4560  178.1210  142.0020 O   0  0  0  0  0  0  0  0  0  0  0  0
  189.2880  177.5990  144.1120 C   0  0  0  0  0  0  0  0  0  0  0  0
  189.9860  176.7590  146.2620 C   0  0  2  0  0  3  0  0  0  0  0  0
  190.2800  176.8890  144.9520 C   0  0  0  0  0  0  0  0  0  0  0  0
  190.7920  177.4450  142.1630 C   0  0  0  0  0  0  0  0  0  0  0  0
  191.5950  176.5700  144.3480 C   0  0  0  0  0  3  0  0  0  0  0  0
  189.5950  177.7470  142.6920 C   0  0  0  0  0  0  0  0  0  0  0  0
  187.2970  178.0740  142.8390 C   0  0  2  0  0  3  0  0  0  0  0  0
  186.5340  179.0510  147.4710 C   0  0  0  0  0  3  0  0  0  0  0  0
  187.4270  177.3810  145.8920 C   0  0  1  0  0  3  0  0  0  0  0  0
  186.7320  178.7330  146.0110 C   0  0  0  0  0  2  0  0  0  0  0  0
  188.6310  177.8950  147.9790 C   0  0  0  0  0  3  0  0  0  0  0  0
  187.6560  176.7600  144.1350 P   0  0  2  0  0  0  0  0  0  0  0  0
  188.6840  177.3090  146.7740 C   0  0  0  0  0  0  0  0  0  0  0  0
  187.4430  178.6800  148.3820 C   0  0  0  0  0  3  0  0  0  0  0  0
  191.8310  176.8440  143.0540 C   0  0  0  0  0  3  0  0  0  0  0  0
  192.5410  177.6630  140.3460 C   0  0  0  0  0  1  0  0  0  0  0  0
  190.4070  176.6800  139.9340 O   0  0  0  0  0  1  0  0  0  0  0  0
  191.0550  177.6630  140.6930 C   0  0  1  0  0  3  0  0  0  0  0  0
  191.8720  177.2130  147.6390 O   0  0  0  0  0  1  0  0  0  0  0  0
  190.9970  176.2060  147.2220 C   0  0  0  0  0  2  0  0  0  0  0  0
  186.0820  177.6740  142.0280 C   0  0  0  0  0  2  0  0  0  0  0  0
  184.9560  178.6050  142.3050 C   0  0  0  0  0  0  0  0  0  0  0  0
  184.7120  179.5380  141.4950 O   0  0  0  0  0  0  0  0  0  0  0  0
  183.0390  179.3020  143.7940 C   0  0  0  0  0  1  0  0  0  0  0  0
  184.1450  178.4130  143.4690 N   0  0  0  0  0  2  0  0  0  0  0  0
  1  7  1  0  0  0  0
  1  8  1  0  0  0  0
  2  4  1  0  0  0  0
  3 14  1  0  0  0  0
  3 21  1  1  0  0  0
  4  3  1  0  0  0  0
  5  7  1  0  0  0  0
  5 16  2  0  0  0  0
  6  4  2  0  0  0  0
  7  2  2  0  0  0  0
  8 22  1  6  0  0  0
  8 13  1  0  0  0  0
  9 15  2  0  0  0  0
 10 11  1  6  0  0  0
 10 14  1  0  0  0  0
 11  9  1  0  0  0  0
 12 15  1  0  0  0  0
 13  2  1  1  0  0  0
 13 10  1  0  0  0  0
 14 12  2  0  0  0  0
 16  6  1  0  0  0  0
 18 19  1  0  0  0  0
 19 17  1  1  0  0  0
 19  5  1  0  0  0  0
 21 20  1  0  0  0  0
 22 23  1  0  0  0  0
 23 26  1  0  0  0  0
 24 23  2  0  0  0  0
 26 25  1  0  0  0  0
M  END
>  <MODEL>
4

>  <REMARK>
 VINA RESULT:      -8.1      2.006      4.985
  Name = 
  4 active torsions:
  status: ('A' for Active; 'I' for Inactive)
    1  A    between atoms: C_3  and  C_7
    2  A    between atoms: C_3  and  C_14
    3  A    between atoms: C_5  and  C_19
    4  A    between atoms: C_10  and  C_25
                            x       y       z     vdW  Elec       q    Type
                         _______ _______ _______ _____ _____    ______ ____

>  <TORSDO>
F 4

$$$$
=
 OpenBabel10232407543D

 26 29  0  0  1  0  0  0  0  0999 V2000
  185.6140  178.7400  142.9830 O   0  0  0  0  0  0  0  0  0  0  0  0
  187.6260  178.2850  141.9050 C   0  0  0  0  0  0  0  0  0  0  0  0
  189.6470  177.4850  140.8600 C   0  0  2  0  0  3  0  0  0  0  0  0
  188.3500  177.8200  140.6990 C   0  0  0  0  0  0  0  0  0  0  0  0
  185.6240  178.7670  140.5470 C   0  0  0  0  0  0  0  0  0  0  0  0
  187.6720  177.9600  139.3890 C   0  0  0  0  0  3  0  0  0  0  0  0
  186.2210  178.6520  141.7440 C   0  0  0  0  0  0  0  0  0  0  0  0
  186.4790  178.2750  144.0250 C   0  0  2  0  0  3  0  0  0  0  0  0
  191.2120  178.5370  144.7430 C   0  0  0  0  0  3  0  0  0  0  0  0
  189.4310  177.3610  143.5080 C   0  0  1  0  0  3  0  0  0  0  0  0
  189.7200  178.4320  144.5540 C   0  0  0  0  0  2  0  0  0  0  0  0
  191.5220  178.0040  142.3730 C   0  0  0  0  0  3  0  0  0  0  0  0
  187.6100  177.0060  143.2210 P   0  0  2  0  0  0  0  0  0  0  0  0
  190.2580  177.5770  142.2300 C   0  0  0  0  0  0  0  0  0  0  0  0
  192.0460  178.3640  143.7100 C   0  0  0  0  0  3  0  0  0  0  0  0
  186.4090  178.4140  139.3240 C   0  0  0  0  0  3  0  0  0  0  0  0
  183.8040  179.7250  139.0710 C   0  0  0  0  0  1  0  0  0  0  0  0
  183.3370  178.1200  140.7740 O   0  0  0  0  0  1  0  0  0  0  0  0
  184.1790  179.1920  140.4510 C   0  0  1  0  0  3  0  0  0  0  0  0
  190.4820  175.7880  139.4160 O   0  0  0  0  0  1  0  0  0  0  0  0
  190.5060  177.1630  139.6740 C   0  0  0  0  0  2  0  0  0  0  0  0
  185.6680  177.6150  145.1220 C   0  0  0  0  0  2  0  0  0  0  0  0
  186.1260  178.0960  146.4520 C   0  0  0  0  0  0  0  0  0  0  0  0
  185.4120  178.9110  147.0950 O   0  0  0  0  0  0  0  0  0  0  0  0
  187.8560  178.0550  148.2910 C   0  0  0  0  0  1  0  0  0  0  0  0
  187.3560  177.6090  146.9990 N   0  0  0  0  0  2  0  0  0  0  0  0
  1  8  1  0  0  0  0
  3 21  1  6  0  0  0
  3 14  1  0  0  0  0
  4  3  1  0  0  0  0
  4  2  2  0  0  0  0
  5  7  2  0  0  0  0
  6  4  1  0  0  0  0
  7  2  1  0  0  0  0
  7  1  1  0  0  0  0
  8 22  1  1  0  0  0
 10 11  1  1  0  0  0
 11  9  1  0  0  0  0
 12 15  1  0  0  0  0
 13  2  1  6  0  0  0
 13 10  1  0  0  0  0
 13  8  1  0  0  0  0
 14 12  2  0  0  0  0
 14 10  1  0  0  0  0
 15  9  2  0  0  0  0
 16  6  2  0  0  0  0
 16  5  1  0  0  0  0
 19 17  1  6  0  0  0
 19  5  1  0  0  0  0
 19 18  1  0  0  0  0
 20 21  1  0  0  0  0
 22 23  1  0  0  0  0
 23 26  1  0  0  0  0
 23 24  2  0  0  0  0
 26 25  1  0  0  0  0
M  END
>  <MODEL>
5

>  <REMARK>
 VINA RESULT:      -7.8      2.621      5.729
  Name = 
  4 active torsions:
  status: ('A' for Active; 'I' for Inactive)
    1  A    between atoms: C_3  and  C_7
    2  A    between atoms: C_3  and  C_14
    3  A    between atoms: C_5  and  C_19
    4  A    between atoms: C_10  and  C_25
                            x       y       z     vdW  Elec       q    Type
                         _______ _______ _______ _____ _____    ______ ____

>  <TORSDO>
F 4

$$$$
=
 OpenBabel10232407543D

 26 29  0  0  1  0  0  0  0  0999 V2000
  183.8730  178.1150  140.3620 O   0  0  0  0  0  0  0  0  0  0  0  0
  184.6330  178.2770  142.5560 C   0  0  0  0  0  0  0  0  0  0  0  0
  185.5420  178.7520  144.7390 C   0  0  2  0  0  3  0  0  0  0  0  0
  184.4650  178.8100  143.9280 C   0  0  0  0  0  0  0  0  0  0  0  0
  182.2420  178.6590  142.0880 C   0  0  0  0  0  0  0  0  0  0  0  0
  183.0950  179.1600  144.3700 C   0  0  0  0  0  3  0  0  0  0  0  0
  183.4740  178.3330  141.6690 C   0  0  0  0  0  0  0  0  0  0  0  0
  185.2990  178.0840  140.2480 C   0  0  2  0  0  3  0  0  0  0  0  0
  188.8000  176.4520  143.0880 C   0  0  0  0  0  3  0  0  0  0  0  0
  187.2120  178.3020  142.7190 C   0  0  1  0  0  3  0  0  0  0  0  0
  187.7290  176.9780  142.1670 C   0  0  0  0  0  2  0  0  0  0  0  0
  187.6050  177.4280  144.9890 C   0  0  0  0  0  3  0  0  0  0  0  0
  185.9470  179.1710  141.6380 P   0  0  2  0  0  0  0  0  0  0  0  0
  186.8270  178.1870  144.2030 C   0  0  0  0  0  0  0  0  0  0  0  0
  188.7180  176.6420  144.4110 C   0  0  0  0  0  3  0  0  0  0  0  0
  182.0630  179.0750  143.5130 C   0  0  0  0  0  3  0  0  0  0  0  0
  179.9820  177.6710  141.5180 C   0  0  0  0  0  1  0  0  0  0  0  0
  180.5300  179.9400  141.0230 O   0  0  0  0  0  1  0  0  0  0  0  0
  181.0800  178.6550  141.1250 C   0  0  1  0  0  3  0  0  0  0  0  0
  184.8540  178.0560  146.9070 O   0  0  0  0  0  1  0  0  0  0  0  0
  185.4260  179.1110  146.1900 C   0  0  0  0  0  2  0  0  0  0  0  0
  185.7290  178.6540  138.9110 C   0  0  0  0  0  2  0  0  0  0  0  0
  187.0130  178.0380  138.4850 C   0  0  0  0  0  0  0  0  0  0  0  0
  186.9960  177.0330  137.7250 O   0  0  0  0  0  0  0  0  0  0  0  0
  189.5380  178.0380  138.5400 C   0  0  0  0  0  1  0  0  0  0  0  0
  188.2530  178.6080  138.9180 N   0  0  0  0  0  2  0  0  0  0  0  0
  1  7  1  0  0  0  0
  2  4  1  0  0  0  0
  3 21  1  1  0  0  0
  4  6  2  0  0  0  0
  4  3  1  0  0  0  0
  5 16  2  0  0  0  0
  7  5  1  0  0  0  0
  7  2  2  0  0  0  0
  8 22  1  6  0  0  0
  8  1  1  0  0  0  0
  8 13  1  0  0  0  0
  9 15  2  0  0  0  0
 10 11  1  6  0  0  0
 10 14  1  0  0  0  0
 11  9  1  0  0  0  0
 13  2  1  1  0  0  0
 13 10  1  0  0  0  0
 14  3  1  0  0  0  0
 14 12  2  0  0  0  0
 15 12  1  0  0  0  0
 16  6  1  0  0  0  0
 18 19  1  0  0  0  0
 19 17  1  1  0  0  0
 19  5  1  0  0  0  0
 21 20  1  0  0  0  0
 23 22  1  0  0  0  0
 23 26  1  0  0  0  0
 24 23  2  0  0  0  0
 25 26  1  0  0  0  0
M  END
>  <MODEL>
6

>  <REMARK>
 VINA RESULT:      -7.4      2.752      4.297
  Name = 
  4 active torsions:
  status: ('A' for Active; 'I' for Inactive)
    1  A    between atoms: C_3  and  C_7
    2  A    between atoms: C_3  and  C_14
    3  A    between atoms: C_5  and  C_19
    4  A    between atoms: C_10  and  C_25
                            x       y       z     vdW  Elec       q    Type
                         _______ _______ _______ _____ _____    ______ ____

>  <TORSDO>
F 4

$$$$
=
 OpenBabel10232407543D

 26 29  0  0  1  0  0  0  0  0999 V2000
  185.3330  177.9280  144.1940 O   0  0  0  0  0  0  0  0  0  0  0  0
  186.5530  177.9890  142.2130 C   0  0  0  0  0  0  0  0  0  0  0  0
  187.7890  178.3940  140.1820 C   0  0  2  0  0  3  0  0  0  0  0  0
  187.8430  178.1970  141.5150 C   0  0  0  0  0  0  0  0  0  0  0  0
  187.7390  177.5680  144.3340 C   0  0  0  0  0  0  0  0  0  0  0  0
  189.0890  177.9610  142.2820 C   0  0  0  0  0  3  0  0  0  0  0  0
  186.5990  177.7730  143.6570 C   0  0  0  0  0  0  0  0  0  0  0  0
  184.4080  178.4240  143.2220 C   0  0  2  0  0  3  0  0  0  0  0  0
  183.8700  177.7020  138.5120 C   0  0  0  0  0  3  0  0  0  0  0  0
  185.1790  178.9020  140.2230 C   0  0  1  0  0  3  0  0  0  0  0  0
  184.0050  177.9570  139.9920 C   0  0  0  0  0  2  0  0  0  0  0  0
  186.3020  177.8680  138.2890 C   0  0  0  0  0  3  0  0  0  0  0  0
  185.4320  179.4280  142.0070 P   0  0  2  0  0  0  0  0  0  0  0  0
  186.4480  178.4180  139.5030 C   0  0  0  0  0  0  0  0  0  0  0  0
  184.9530  177.6330  137.7280 C   0  0  0  0  0  3  0  0  0  0  0  0
  189.0330  177.6560  143.5900 C   0  0  0  0  0  3  0  0  0  0  0  0
  189.1020  177.2080  146.4370 C   0  0  0  0  0  1  0  0  0  0  0  0
  186.9910  178.3180  146.4740 O   0  0  0  0  0  1  0  0  0  0  0  0
  187.7090  177.3090  145.8200 C   0  0  1  0  0  3  0  0  0  0  0  0
  188.9800  179.4970  138.4420 O   0  0  0  0  0  1  0  0  0  0  0  0
  189.0460  178.4480  139.3650 C   0  0  0  0  0  2  0  0  0  0  0  0
  183.3810  179.3180  143.8870 C   0  0  0  0  0  2  0  0  0  0  0  0
  182.0170  178.9690  143.4090 C   0  0  0  0  0  0  0  0  0  0  0  0
  181.1670  178.5320  144.2300 O   0  0  0  0  0  0  0  0  0  0  0  0
  180.3590  178.8210  141.5090 C   0  0  0  0  0  1  0  0  0  0  0  0
  181.6760  179.1580  142.0320 N   0  0  0  0  0  2  0  0  0  0  0  0
  2  7  1  0  0  0  0
  3 21  1  6  0  0  0
  3  4  1  0  0  0  0
  4  2  2  0  0  0  0
  4  6  1  0  0  0  0
  5 19  1  0  0  0  0
  6 16  2  0  0  0  0
  7  1  1  0  0  0  0
  7  5  2  0  0  0  0
  8 22  1  1  0  0  0
  8  1  1  0  0  0  0
  9 11  1  0  0  0  0
 10 11  1  1  0  0  0
 10 13  1  0  0  0  0
 12 14  2  0  0  0  0
 13  2  1  1  0  0  0
 13  8  1  0  0  0  0
 14  3  1  0  0  0  0
 14 10  1  0  0  0  0
 15 12  1  0  0  0  0
 15  9  2  0  0  0  0
 16  5  1  0  0  0  0
 19 17  1  1  0  0  0
 19 18  1  0  0  0  0
 20 21  1  0  0  0  0
 23 22  1  0  0  0  0
 23 24  2  0  0  0  0
 25 26  1  0  0  0  0
 26 23  1  0  0  0  0
M  END
>  <MODEL>
7

>  <REMARK>
 VINA RESULT:      -7.3      3.098      7.464
  Name = 
  4 active torsions:
  status: ('A' for Active; 'I' for Inactive)
    1  A    between atoms: C_3  and  C_7
    2  A    between atoms: C_3  and  C_14
    3  A    between atoms: C_5  and  C_19
    4  A    between atoms: C_10  and  C_25
                            x       y       z     vdW  Elec       q    Type
                         _______ _______ _______ _____ _____    ______ ____

>  <TORSDO>
F 4

$$$$
=
 OpenBabel10232407543D

 26 29  0  0  1  0  0  0  0  0999 V2000
  186.2950  178.6940  145.3300 O   0  0  0  0  0  0  0  0  0  0  0  0
  187.1970  178.3700  143.2090 C   0  0  0  0  0  0  0  0  0  0  0  0
  188.0850  177.6990  141.0690 C   0  0  2  0  0  3  0  0  0  0  0  0
  187.0000  178.0920  141.7680 C   0  0  0  0  0  0  0  0  0  0  0  0
  184.8590  179.1280  143.4090 C   0  0  0  0  0  0  0  0  0  0  0  0
  185.7000  178.4690  141.1640 C   0  0  0  0  0  3  0  0  0  0  0  0
  186.0300  178.7980  143.9760 C   0  0  0  0  0  0  0  0  0  0  0  0
  187.5430  178.0380  145.5710 C   0  0  2  0  0  3  0  0  0  0  0  0
  191.7650  178.0430  143.2980 C   0  0  0  0  0  3  0  0  0  0  0  0
  189.4700  177.1400  143.2690 C   0  0  1  0  0  3  0  0  0  0  0  0
  190.4540  178.0130  144.0420 C   0  0  0  0  0  2  0  0  0  0  0  0
  190.5380  177.9050  141.1840 C   0  0  0  0  0  3  0  0  0  0  0  0
  187.8080  176.8900  144.1070 P   0  0  2  0  0  0  0  0  0  0  0  0
  189.3960  177.5440  141.7880 C   0  0  0  0  0  0  0  0  0  0  0  0
  191.7930  178.0210  141.9600 C   0  0  0  0  0  3  0  0  0  0  0  0
  184.7130  178.9630  141.9310 C   0  0  0  0  0  3  0  0  0  0  0  0
  182.3470  179.1630  143.7230 C   0  0  0  0  0  1  0  0  0  0  0  0
  183.8510  179.1430  145.5740 O   0  0  0  0  0  1  0  0  0  0  0  0
  183.7060  179.6040  144.2590 C   0  0  1  0  0  3  0  0  0  0  0  0
  188.2640  178.7880  138.9620 O   0  0  0  0  0  1  0  0  0  0  0  0
  188.0240  177.5550  139.5780 C   0  0  0  0  0  2  0  0  0  0  0  0
  187.4680  177.2280  146.8490 C   0  0  0  0  0  2  0  0  0  0  0  0
  188.7300  177.3790  147.6220 C   0  0  0  0  0  0  0  0  0  0  0  0
  188.7150  178.0100  148.7120 O   0  0  0  0  0  0  0  0  0  0  0  0
  191.2020  176.9120  147.8460 C   0  0  0  0  0  1  0  0  0  0  0  0
  189.9380  176.7850  147.1350 N   0  0  0  0  0  2  0  0  0  0  0  0
  1  8  1  0  0  0  0
  2  7  1  0  0  0  0
  3 21  1  6  0  0  0
  3  4  1  0  0  0  0
  3 14  1  0  0  0  0
  4  2  2  0  0  0  0
  5  7  2  0  0  0  0
  5 19  1  0  0  0  0
  6  4  1  0  0  0  0
  6 16  2  0  0  0  0
  7  1  1  0  0  0  0
  8 22  1  1  0  0  0
  9 11  1  0  0  0  0
 10 11  1  1  0  0  0
 10 13  1  0  0  0  0
 12 14  2  0  0  0  0
 12 15  1  0  0  0  0
 13  2  1  6  0  0  0
 13  8  1  0  0  0  0
 14 10  1  0  0  0  0
 15  9  2  0  0  0  0
 16  5  1  0  0  0  0
 19 17  1  6  0  0  0
 19 18  1  0  0  0  0
 20 21  1  0  0  0  0
 22 23  1  0  0  0  0
 23 24  2  0  0  0  0
 26 23  1  0  0  0  0
 26 25  1  0  0  0  0
M  END
>  <MODEL>
8

>  <REMARK>
 VINA RESULT:      -7.0      2.503      5.670
  Name = 
  4 active torsions:
  status: ('A' for Active; 'I' for Inactive)
    1  A    between atoms: C_3  and  C_7
    2  A    between atoms: C_3  and  C_14
    3  A    between atoms: C_5  and  C_19
    4  A    between atoms: C_10  and  C_25
                            x       y       z     vdW  Elec       q    Type
                         _______ _______ _______ _____ _____    ______ ____

>  <TORSDO>
F 4

$$$$
=
 OpenBabel10232407543D

 26 29  0  0  1  0  0  0  0  0999 V2000
  187.4450  177.6300  143.1950 O   0  0  0  0  0  0  0  0  0  0  0  0
  189.3740  177.2720  141.9430 C   0  0  0  0  0  0  0  0  0  0  0  0
  191.3940  177.2430  140.6260 C   0  0  2  0  0  3  0  0  0  0  0  0
  190.8530  177.2330  141.8610 C   0  0  0  0  0  0  0  0  0  0  0  0
  189.4790  177.0300  144.3950 C   0  0  0  0  0  0  0  0  0  0  0  0
  191.6070  176.9730  143.1090 C   0  0  0  0  0  3  0  0  0  0  0  0
  188.7760  177.2610  143.2750 C   0  0  0  0  0  0  0  0  0  0  0  0
  187.1050  178.0820  141.8800 C   0  0  2  0  0  3  0  0  0  0  0  0
  188.4780  176.7590  137.4810 C   0  0  0  0  0  3  0  0  0  0  0  0
  189.1270  178.0380  139.4870 C   0  0  1  0  0  3  0  0  0  0  0  0
  188.0210  177.2060  138.8460 C   0  0  0  0  0  2  0  0  0  0  0  0
  190.7720  176.6190  138.3240 C   0  0  0  0  0  3  0  0  0  0  0  0
  188.6910  178.7820  141.1540 P   0  0  2  0  0  0  0  0  0  0  0  0
  190.4830  177.3170  139.4320 C   0  0  0  0  0  0  0  0  0  0  0  0
  189.7620  176.4580  137.2540 C   0  0  0  0  0  3  0  0  0  0  0  0
  190.9600  176.8660  144.2830 C   0  0  0  0  0  3  0  0  0  0  0  0
  189.7630  176.9130  146.9080 C   0  0  0  0  0  1  0  0  0  0  0  0
  187.9700  178.1170  145.8940 O   0  0  0  0  0  1  0  0  0  0  0  0
  188.7880  176.9900  145.7360 C   0  0  1  0  0  3  0  0  0  0  0  0
  193.3920  178.0380  139.6090 O   0  0  0  0  0  1  0  0  0  0  0  0
  192.8670  177.0390  140.4350 C   0  0  0  0  0  2  0  0  0  0  0  0
  186.0540  179.1710  141.9580 C   0  0  0  0  0  2  0  0  0  0  0  0
  184.9270  178.8560  141.0400 C   0  0  0  0  0  0  0  0  0  0  0  0
  184.0640  178.0070  141.3880 O   0  0  0  0  0  0  0  0  0  0  0  0
  183.7430  179.2600  138.8460 C   0  0  0  0  0  1  0  0  0  0  0  0
  184.8190  179.5380  139.7860 N   0  0  0  0  0  2  0  0  0  0  0  0
  1  7  1  0  0  0  0
  2  7  1  0  0  0  0
  3 21  1  6  0  0  0
  3  4  1  0  0  0  0
  4  2  2  0  0  0  0
  4  6  1  0  0  0  0
  5 19  1  0  0  0  0
  6 16  2  0  0  0  0
  7  5  2  0  0  0  0
  8 22  1  1  0  0  0
  8  1  1  0  0  0  0
  9 11  1  0  0  0  0
 10 11  1  1  0  0  0
 10 13  1  0  0  0  0
 12 14  2  0  0  0  0
 13  8  1  0  0  0  0
 13  2  1  1  0  0  0
 14 10  1  0  0  0  0
 14  3  1  0  0  0  0
 15  9  2  0  0  0  0
 15 12  1  0  0  0  0
 16  5  1  0  0  0  0
 19 18  1  0  0  0  0
 19 17  1  1  0  0  0
 20 21  1  0  0  0  0
 23 24  2  0  0  0  0
 23 22  1  0  0  0  0
 25 26  1  0  0  0  0
 26 23  1  0  0  0  0
M  END
>  <MODEL>
9

>  <REMARK>
 VINA RESULT:      -7.0      2.095      6.281
  Name = 
  4 active torsions:
  status: ('A' for Active; 'I' for Inactive)
    1  A    between atoms: C_3  and  C_7
    2  A    between atoms: C_3  and  C_14
    3  A    between atoms: C_5  and  C_19
    4  A    between atoms: C_10  and  C_25
                            x       y       z     vdW  Elec       q    Type
                         _______ _______ _______ _____ _____    ______ ____

>  <TORSDO>
F 4

$$$$
