=
 OpenBabel10232410283D

 43 48  0  0  1  0  0  0  0  0999 V2000
  186.9730  178.0990  141.0150 C   0  0  0  0  0  0  0  0  0  0  0  0
  185.6840  177.3700  145.0650 C   0  0  2  0  0  3  0  0  0  0  0  0
  186.0060  177.6100  146.3910 C   0  0  0  0  0  2  0  0  0  0  0  0
  185.7120  178.4660  141.6270 C   0  0  0  0  0  0  0  0  0  0  0  0
  188.4830  177.1240  145.0850 C   0  0  0  0  0  0  0  0  0  0  0  0
  189.2870  177.3630  139.8720 C   0  0  2  0  0  3  0  0  0  0  0  0
  187.1210  177.2770  145.4570 N   0  0  0  0  0  0  0  0  0  0  0  0
  189.4630  177.2150  145.9900 C   0  0  0  0  0  2  0  0  0  0  0  0
  185.6330  178.5340  142.9320 C   0  0  0  0  0  0  0  0  0  0  0  0
  188.7990  177.0290  143.7010 N   0  0  0  0  0  0  0  0  0  0  0  0
  185.5060  178.6130  144.2320 C   0  0  0  0  0  0  0  0  0  0  0  0
  190.8810  177.1940  145.5450 C   0  0  0  0  0  0  0  0  0  0  0  0
  190.3950  177.3520  142.0380 C   0  0  0  0  0  0  0  0  0  0  0  0
  188.0130  177.7840  140.4870 C   0  0  0  0  0  0  0  0  0  0  0  0
  191.1860  177.1640  144.2790 N   0  0  0  0  0  0  0  0  0  0  0  0
  190.4570  177.6550  140.7730 C   0  0  0  0  0  3  0  0  0  0  0  0
  185.0520  179.9050  144.8310 C   0  0  0  0  0  1  0  0  0  0  0  0
  190.1570  177.0910  143.2850 C   0  0  0  0  0  0  0  0  0  0  0  0
  191.9160  177.2600  146.5170 N   0  0  0  0  0  1  0  0  0  0  0  0
  184.9750  179.2050  139.3410 C   0  0  0  0  0  2  0  0  0  0  0  0
  184.5900  179.0330  140.7880 C   0  0  1  0  0  3  0  0  0  0  0  0
  184.2120  178.1070  138.6490 C   0  0  0  0  0  2  0  0  0  0  0  0
  183.0380  177.8880  139.3820 O   0  0  0  0  0  0  0  0  0  0  0  0
  183.4010  178.0830  140.7270 C   0  0  2  0  0  3  0  0  0  0  0  0
  182.0140  178.8130  141.6540 S   0  0  0  0  0  0  0  0  0  0  0  0
  181.1380  179.3210  140.1720 C   0  0  0  0  0  3  0  0  0  0  0  0
  180.7170  180.5790  140.0570 C   0  0  0  0  0  3  0  0  0  0  0  0
  179.9870  181.0280  138.8300 C   0  0  2  0  0  3  0  0  0  0  0  0
  180.7100  180.6020  137.6900 O   0  0  0  0  0  0  0  0  0  0  0  0
  180.7840  181.9670  137.9990 C   0  0  2  0  0  0  0  0  0  0  0  0
  182.0620  182.3300  138.4370 O   0  0  0  0  0  1  0  0  0  0  0  0
  180.0950  182.8300  136.9520 C   0  0  1  0  0  3  0  0  0  0  0  0
  180.5060  184.2810  137.1340 C   0  0  0  0  0  1  0  0  0  0  0  0
  180.8910  183.5330  135.0470 N   0  0  0  0  0  1  0  0  0  0  0  0
  180.4670  182.4080  135.6730 O   0  0  0  0  0  0  0  0  0  0  0  0
  189.4550  178.0570  138.5280 C   0  0  0  0  0  2  0  0  0  0  0  0
  187.9750  175.9320  137.2830 S   0  0  0  0  0  0  0  0  0  0  0  0
  188.4000  177.6450  137.5570 C   0  0  0  0  0  0  0  0  0  0  0  0
  186.6880  177.9400  136.1260 N   0  0  0  0  0  2  0  0  0  0  0  0
  187.6750  178.5060  136.9310 N   0  0  0  0  0  0  0  0  0  0  0  0
  186.6300  176.4900  136.1700 C   0  0  1  0  0  3  0  0  0  0  0  0
  188.2300  175.5740  134.5830 N   0  0  0  0  0  1  0  0  0  0  0  0
  186.8360  175.9320  134.7730 C   0  0  0  0  0  2  0  0  0  0  0  0
  1  4  1  0  0  0  0
  2  7  1  0  0  0  0
  2  3  1  1  0  0  0
  4  9  2  0  0  0  0
  5  7  1  0  0  0  0
  5  8  1  0  0  0  0
  6 36  1  6  0  0  0
  6 14  1  0  0  0  0
  6 16  1  0  0  0  0
  7  3  1  0  0  0  0
  9 11  2  0  0  0  0
 10  5  2  0  0  0  0
 11 17  1  0  0  0  0
 11  2  1  0  0  0  0
 12  8  1  0  0  0  0
 12 19  1  0  0  0  0
 13 18  2  0  0  0  0
 14  1  3  0  0  0  0
 15 12  2  0  0  0  0
 16 13  2  0  0  0  0
 18 10  1  0  0  0  0
 18 15  1  0  0  0  0
 20 21  1  0  0  0  0
 21  4  1  1  0  0  0
 22 20  1  0  0  0  0
 22 23  1  0  0  0  0
 23 24  1  0  0  0  0
 24 21  1  0  0  0  0
 24 25  1  1  0  0  0
 26 25  1  0  0  0  0
 27 26  2  0  0  0  0
 28 27  1  1  0  0  0
 29 30  1  0  0  0  0
 29 28  1  0  0  0  0
 30 31  1  1  0  0  0
 30 28  1  0  0  0  0
 32 33  1  1  0  0  0
 32 30  1  0  0  0  0
 34 35  1  0  0  0  0
 35 32  1  0  0  0  0
 37 38  1  0  0  0  0
 38 36  1  0  0  0  0
 39 41  1  0  0  0  0
 39 40  1  0  0  0  0
 40 38  2  0  0  0  0
 41 43  1  6  0  0  0
 41 37  1  0  0  0  0
 42 43  1  0  0  0  0
M  END
>  <MODEL>
1

>  <REMARK>
 VINA RESULT:      -7.8      0.000      0.000
  Name = 
  9 active torsions:
  status: ('A' for Active; 'I' for Inactive)
    1  A    between atoms: C_4  and  C_12
    2  A    between atoms: C_7  and  C_20
    3  A    between atoms: C_7  and  O_34
    4  A    between atoms: C_10  and  C_40
    5  A    between atoms: C_12  and  C_19
    6  A    between atoms: C_13  and  C_16
    7  A    between atoms: C_14  and  S_17
    8  A    between atoms: S_17  and  C_39
    9  A    between atoms: C_22  and  C_24
                            x       y       z     vdW  Elec       q    Type
                         _______ _______ _______ _____ _____    ______ ____

>  <TORSDO>
F 9

$$$$
=
 OpenBabel10232410283D

 43 48  0  0  1  0  0  0  0  0999 V2000
  187.6830  177.7980  139.3520 C   0  0  0  0  0  0  0  0  0  0  0  0
  183.4650  177.9030  140.2440 C   0  0  2  0  0  3  0  0  0  0  0  0
  182.5190  178.5060  141.0570 C   0  0  0  0  0  2  0  0  0  0  0  0
  186.5910  178.1150  138.4550 C   0  0  0  0  0  0  0  0  0  0  0  0
  184.7860  178.0820  142.7170 C   0  0  0  0  0  0  0  0  0  0  0  0
  189.6930  177.1500  141.0080 C   0  0  2  0  0  3  0  0  0  0  0  0
  183.8200  178.1200  141.6770 N   0  0  0  0  0  0  0  0  0  0  0  0
  184.5030  178.5340  143.9430 C   0  0  0  0  0  2  0  0  0  0  0  0
  185.4410  178.4890  138.9560 C   0  0  0  0  0  0  0  0  0  0  0  0
  186.1160  177.6980  142.3910 N   0  0  0  0  0  0  0  0  0  0  0  0
  184.2730  178.8640  139.4110 C   0  0  0  0  0  0  0  0  0  0  0  0
  185.5770  178.6120  144.9660 C   0  0  0  0  0  0  0  0  0  0  0  0
  188.3750  177.8330  142.9350 C   0  0  0  0  0  0  0  0  0  0  0  0
  188.6010  177.5180  140.0860 C   0  0  0  0  0  0  0  0  0  0  0  0
  186.8110  178.3180  144.6670 N   0  0  0  0  0  0  0  0  0  0  0  0
  189.5360  177.8230  142.3450 C   0  0  0  0  0  3  0  0  0  0  0  0
  183.7230  180.1830  138.9720 C   0  0  0  0  0  1  0  0  0  0  0  0
  187.1490  177.8540  143.3550 C   0  0  0  0  0  0  0  0  0  0  0  0
  185.2590  179.0650  146.2760 N   0  0  0  0  0  1  0  0  0  0  0  0
  188.2680  178.6740  136.6680 C   0  0  0  0  0  2  0  0  0  0  0  0
  186.8440  178.2880  136.9750 C   0  0  1  0  0  3  0  0  0  0  0  0
  188.8430  177.4180  136.0690 C   0  0  0  0  0  2  0  0  0  0  0  0
  187.7970  176.7470  135.4210 O   0  0  0  0  0  0  0  0  0  0  0  0
  186.6620  176.9790  136.2180 C   0  0  2  0  0  3  0  0  0  0  0  0
  185.1750  177.1030  135.1730 S   0  0  0  0  0  0  0  0  0  0  0  0
  184.2920  175.8280  136.0730 C   0  0  0  0  0  3  0  0  0  0  0  0
  184.9710  174.8280  136.6320 C   0  0  0  0  0  3  0  0  0  0  0  0
  184.2570  173.7540  137.3910 C   0  0  2  0  0  3  0  0  0  0  0  0
  185.1460  172.6710  137.5920 O   0  0  0  0  0  0  0  0  0  0  0  0
  184.1480  172.4850  136.6270 C   0  0  2  0  0  0  0  0  0  0  0  0
  184.6800  172.4330  135.3340 O   0  0  0  0  0  1  0  0  0  0  0  0
  183.1350  171.4280  137.0460 C   0  0  1  0  0  3  0  0  0  0  0  0
  181.7750  171.7630  136.4610 C   0  0  0  0  0  1  0  0  0  0  0  0
  182.6570  169.8760  135.5890 N   0  0  0  0  0  1  0  0  0  0  0  0
  183.5370  170.1760  136.5750 O   0  0  0  0  0  0  0  0  0  0  0  0
  191.0310  177.5110  140.3780 C   0  0  0  0  0  2  0  0  0  0  0  0
  192.9790  176.6410  138.4530 S   0  0  0  0  0  0  0  0  0  0  0  0
  191.3960  176.5710  139.2780 C   0  0  0  0  0  0  0  0  0  0  0  0
  191.1660  174.7780  137.9380 N   0  0  0  0  0  2  0  0  0  0  0  0
  190.6270  175.6010  138.9270 N   0  0  0  0  0  0  0  0  0  0  0  0
  192.5070  175.1390  137.5150 C   0  0  1  0  0  3  0  0  0  0  0  0
  191.3520  174.8060  135.3990 N   0  0  0  0  0  1  0  0  0  0  0  0
  192.5070  175.4270  136.0240 C   0  0  0  0  0  2  0  0  0  0  0  0
  1 14  3  0  0  0  0
  2  3  1  1  0  0  0
  2  7  1  0  0  0  0
  3  7  1  0  0  0  0
  4  9  2  0  0  0  0
  4  1  1  0  0  0  0
  5  8  1  0  0  0  0
  6 36  1  6  0  0  0
  6 16  1  0  0  0  0
  7  5  1  0  0  0  0
  8 12  1  0  0  0  0
  9 11  2  0  0  0  0
 10  5  2  0  0  0  0
 10 18  1  0  0  0  0
 11  2  1  0  0  0  0
 12 19  1  0  0  0  0
 13 18  2  0  0  0  0
 14  6  1  0  0  0  0
 15 12  2  0  0  0  0
 16 13  2  0  0  0  0
 17 11  1  0  0  0  0
 18 15  1  0  0  0  0
 20 21  1  0  0  0  0
 21  4  1  1  0  0  0
 22 20  1  0  0  0  0
 23 22  1  0  0  0  0
 23 24  1  0  0  0  0
 24 25  1  6  0  0  0
 24 21  1  0  0  0  0
 25 26  1  0  0  0  0
 26 27  2  0  0  0  0
 28 27  1  6  0  0  0
 28 29  1  0  0  0  0
 30 31  1  6  0  0  0
 30 32  1  0  0  0  0
 30 28  1  0  0  0  0
 30 29  1  0  0  0  0
 32 33  1  6  0  0  0
 34 35  1  0  0  0  0
 35 32  1  0  0  0  0
 37 38  1  0  0  0  0
 38 36  1  0  0  0  0
 39 40  1  0  0  0  0
 40 38  2  0  0  0  0
 41 43  1  6  0  0  0
 41 39  1  0  0  0  0
 41 37  1  0  0  0  0
 42 43  1  0  0  0  0
M  END
>  <MODEL>
2

>  <REMARK>
 VINA RESULT:      -7.7      4.002      6.588
  Name = 
  9 active torsions:
  status: ('A' for Active; 'I' for Inactive)
    1  A    between atoms: C_4  and  C_12
    2  A    between atoms: C_7  and  C_20
    3  A    between atoms: C_7  and  O_34
    4  A    between atoms: C_10  and  C_40
    5  A    between atoms: C_12  and  C_19
    6  A    between atoms: C_13  and  C_16
    7  A    between atoms: C_14  and  S_17
    8  A    between atoms: S_17  and  C_39
    9  A    between atoms: C_22  and  C_24
                            x       y       z     vdW  Elec       q    Type
                         _______ _______ _______ _____ _____    ______ ____

>  <TORSDO>
F 9

$$$$
=
 OpenBabel10232410283D

 43 48  0  0  1  0  0  0  0  0999 V2000
  187.2710  177.9350  141.9440 C   0  0  0  0  0  0  0  0  0  0  0  0
  191.1250  178.0530  143.8750 C   0  0  2  0  0  3  0  0  0  0  0  0
  191.8320  177.5800  144.9690 C   0  0  0  0  0  2  0  0  0  0  0  0
  188.5530  177.5410  141.3960 C   0  0  0  0  0  0  0  0  0  0  0  0
  189.2200  178.1410  145.9380 C   0  0  0  0  0  0  0  0  0  0  0  0
  184.9100  178.7240  142.9460 C   0  0  2  0  0  3  0  0  0  0  0  0
  190.4180  178.0020  145.1880 N   0  0  0  0  0  0  0  0  0  0  0  0
  189.1820  177.8490  147.2430 C   0  0  0  0  0  2  0  0  0  0  0  0
  189.5370  177.2620  142.2140 C   0  0  0  0  0  0  0  0  0  0  0  0
  188.0180  178.4460  145.2420 N   0  0  0  0  0  0  0  0  0  0  0  0
  190.5500  176.9770  142.9920 C   0  0  0  0  0  0  0  0  0  0  0  0
  187.8830  177.8660  147.9630 C   0  0  0  0  0  0  0  0  0  0  0  0
  185.6940  178.3170  145.2120 C   0  0  0  0  0  0  0  0  0  0  0  0
  186.1980  178.2770  142.3820 C   0  0  0  0  0  0  0  0  0  0  0  0
  186.7660  178.0890  147.3290 N   0  0  0  0  0  0  0  0  0  0  0  0
  184.7200  178.2240  144.3520 C   0  0  0  0  0  3  0  0  0  0  0  0
  191.1870  175.6300  142.8730 C   0  0  0  0  0  1  0  0  0  0  0  0
  186.7740  178.3810  145.9260 C   0  0  0  0  0  0  0  0  0  0  0  0
  187.8560  177.5850  149.3570 N   0  0  0  0  0  1  0  0  0  0  0  0
  187.8500  178.0650  139.0410 C   0  0  0  0  0  2  0  0  0  0  0  0
  188.6830  177.1820  139.9340 C   0  0  1  0  0  3  0  0  0  0  0  0
  188.8750  178.9340  138.3630 C   0  0  0  0  0  2  0  0  0  0  0  0
  190.0540  178.1830  138.2560 O   0  0  0  0  0  0  0  0  0  0  0  0
  190.1020  177.4050  139.4260 C   0  0  2  0  0  3  0  0  0  0  0  0
  190.8640  175.7880  139.0750 S   0  0  0  0  0  0  0  0  0  0  0  0
  191.9070  176.4330  137.7660 C   0  0  0  0  0  3  0  0  0  0  0  0
  192.9430  175.7140  137.3380 C   0  0  0  0  0  3  0  0  0  0  0  0
  193.8260  176.2280  136.2440 C   0  0  2  0  0  3  0  0  0  0  0  0
  194.0270  175.1950  135.2980 O   0  0  0  0  0  0  0  0  0  0  0  0
  195.1080  175.4830  136.1420 C   0  0  2  0  0  0  0  0  0  0  0  0
  195.3520  174.4430  137.0440 O   0  0  0  0  0  1  0  0  0  0  0  0
  196.2820  176.0880  135.3840 C   0  0  1  0  0  3  0  0  0  0  0  0
  195.9220  177.4870  134.9150 C   0  0  0  0  0  1  0  0  0  0  0  0
  198.3450  175.4150  135.6050 N   0  0  0  0  0  1  0  0  0  0  0  0
  197.3970  176.1610  136.2220 O   0  0  0  0  0  0  0  0  0  0  0  0
  183.7740  178.2540  142.0490 C   0  0  0  0  0  2  0  0  0  0  0  0
  183.3620  177.5250  139.3000 S   0  0  0  0  0  0  0  0  0  0  0  0
  184.0580  178.5220  140.6080 C   0  0  0  0  0  0  0  0  0  0  0  0
  184.8400  179.6780  138.8430 N   0  0  0  0  0  2  0  0  0  0  0  0
  184.7440  179.5420  140.2280 N   0  0  0  0  0  0  0  0  0  0  0  0
  184.1170  178.6710  138.0860 C   0  0  1  0  0  3  0  0  0  0  0  0
  184.9420  176.4920  137.3840 N   0  0  0  0  0  1  0  0  0  0  0  0
  185.0850  177.9240  137.1860 C   0  0  0  0  0  2  0  0  0  0  0  0
  1 14  3  0  0  0  0
  2  3  1  1  0  0  0
  2  7  1  0  0  0  0
  3  7  1  0  0  0  0
  4  1  1  0  0  0  0
  4  9  2  0  0  0  0
  5  8  1  0  0  0  0
  6 36  1  6  0  0  0
  6 16  1  0  0  0  0
  7  5  1  0  0  0  0
  8 12  1  0  0  0  0
  9 11  2  0  0  0  0
 10 18  1  0  0  0  0
 10  5  2  0  0  0  0
 11  2  1  0  0  0  0
 12 19  1  0  0  0  0
 13 18  2  0  0  0  0
 14  6  1  0  0  0  0
 15 12  2  0  0  0  0
 16 13  2  0  0  0  0
 17 11  1  0  0  0  0
 18 15  1  0  0  0  0
 20 21  1  0  0  0  0
 21  4  1  1  0  0  0
 22 20  1  0  0  0  0
 23 22  1  0  0  0  0
 23 24  1  0  0  0  0
 24 25  1  6  0  0  0
 24 21  1  0  0  0  0
 26 25  1  0  0  0  0
 27 26  2  0  0  0  0
 28 27  1  1  0  0  0
 29 30  1  0  0  0  0
 29 28  1  0  0  0  0
 30 28  1  0  0  0  0
 30 31  1  1  0  0  0
 32 33  1  1  0  0  0
 32 30  1  0  0  0  0
 32 35  1  0  0  0  0
 34 35  1  0  0  0  0
 37 38  1  0  0  0  0
 38 36  1  0  0  0  0
 39 40  1  0  0  0  0
 40 38  2  0  0  0  0
 41 43  1  6  0  0  0
 41 39  1  0  0  0  0
 41 37  1  0  0  0  0
 43 42  1  0  0  0  0
M  END
>  <MODEL>
3

>  <REMARK>
 VINA RESULT:      -7.6      4.876      8.853
  Name = 
  9 active torsions:
  status: ('A' for Active; 'I' for Inactive)
    1  A    between atoms: C_4  and  C_12
    2  A    between atoms: C_7  and  C_20
    3  A    between atoms: C_7  and  O_34
    4  A    between atoms: C_10  and  C_40
    5  A    between atoms: C_12  and  C_19
    6  A    between atoms: C_13  and  C_16
    7  A    between atoms: C_14  and  S_17
    8  A    between atoms: S_17  and  C_39
    9  A    between atoms: C_22  and  C_24
                            x       y       z     vdW  Elec       q    Type
                         _______ _______ _______ _____ _____    ______ ____

>  <TORSDO>
F 9

$$$$
=
 OpenBabel10232410283D

 43 48  0  0  1  0  0  0  0  0999 V2000
  188.0770  178.2510  140.2860 C   0  0  0  0  0  0  0  0  0  0  0  0
  185.2080  179.2620  143.3420 C   0  0  2  0  0  3  0  0  0  0  0  0
  183.9770  178.9060  143.8680 C   0  0  0  0  0  2  0  0  0  0  0  0
  188.2790  178.2850  141.7200 C   0  0  0  0  0  0  0  0  0  0  0  0
  183.7100  178.6190  141.0540 C   0  0  0  0  0  0  0  0  0  0  0  0
  187.7100  178.2490  137.6270 C   0  0  2  0  0  3  0  0  0  0  0  0
  184.1250  178.8930  142.3840 N   0  0  0  0  0  0  0  0  0  0  0  0
  182.4660  178.2070  140.7870 C   0  0  0  0  0  2  0  0  0  0  0  0
  187.2390  178.2170  142.5120 C   0  0  0  0  0  0  0  0  0  0  0  0
  184.6890  178.6390  140.0220 N   0  0  0  0  0  0  0  0  0  0  0  0
  186.2300  178.1560  143.3430 C   0  0  0  0  0  0  0  0  0  0  0  0
  182.1080  177.7920  139.4060 C   0  0  0  0  0  0  0  0  0  0  0  0
  185.3250  177.8680  137.9200 C   0  0  0  0  0  0  0  0  0  0  0  0
  187.9270  178.2360  139.0870 C   0  0  0  0  0  0  0  0  0  0  0  0
  183.0070  177.7510  138.4630 N   0  0  0  0  0  0  0  0  0  0  0  0
  186.4100  177.5860  137.2570 C   0  0  0  0  0  3  0  0  0  0  0  0
  186.2030  177.0590  144.3580 C   0  0  0  0  0  1  0  0  0  0  0  0
  184.3540  178.1640  138.7250 C   0  0  0  0  0  0  0  0  0  0  0  0
  180.7750  177.3850  139.1260 N   0  0  0  0  0  1  0  0  0  0  0  0
  189.6420  177.7930  143.7730 C   0  0  0  0  0  2  0  0  0  0  0  0
  189.6640  178.1160  142.3010 C   0  0  1  0  0  3  0  0  0  0  0  0
  190.0350  176.3410  143.8130 C   0  0  0  0  0  2  0  0  0  0  0  0
  190.8830  176.1070  142.7220 O   0  0  0  0  0  0  0  0  0  0  0  0
  190.3860  176.9230  141.6890 C   0  0  2  0  0  3  0  0  0  0  0  0
  191.7570  177.5300  140.6540 S   0  0  0  0  0  0  0  0  0  0  0  0
  191.3240  176.4860  139.2620 C   0  0  0  0  0  3  0  0  0  0  0  0
  192.2340  176.2310  138.3240 C   0  0  0  0  0  3  0  0  0  0  0  0
  191.8990  175.3590  137.1540 C   0  0  2  0  0  3  0  0  0  0  0  0
  191.5950  174.0600  137.6270 O   0  0  0  0  0  0  0  0  0  0  0  0
  192.8370  174.2180  137.0000 C   0  0  2  0  0  0  0  0  0  0  0  0
  193.8950  174.0930  137.9070 O   0  0  0  0  0  1  0  0  0  0  0  0
  192.9110  173.4660  135.6780 C   0  0  1  0  0  3  0  0  0  0  0  0
  194.3630  173.3060  135.2620 C   0  0  0  0  0  1  0  0  0  0  0  0
  193.3850  171.3600  135.9910 N   0  0  0  0  0  1  0  0  0  0  0  0
  192.3360  172.2010  135.8210 O   0  0  0  0  0  0  0  0  0  0  0  0
  188.8800  177.5660  136.9350 C   0  0  0  0  0  2  0  0  0  0  0  0
  188.3440  175.8570  134.6870 S   0  0  0  0  0  0  0  0  0  0  0  0
  188.5100  176.2110  136.4300 C   0  0  0  0  0  0  0  0  0  0  0  0
  188.1110  174.0010  136.5640 N   0  0  0  0  0  2  0  0  0  0  0  0
  188.3800  175.2020  137.2190 N   0  0  0  0  0  0  0  0  0  0  0  0
  188.0660  174.0970  135.1160 C   0  0  1  0  0  3  0  0  0  0  0  0
  185.8200  174.7860  134.4820 N   0  0  0  0  0  1  0  0  0  0  0  0
  186.7050  173.6430  134.6210 C   0  0  0  0  0  2  0  0  0  0  0  0
  1  4  1  0  0  0  0
  2 11  1  0  0  0  0
  2  3  1  1  0  0  0
  4  9  2  0  0  0  0
  5  7  1  0  0  0  0
  6 36  1  6  0  0  0
  6 14  1  0  0  0  0
  7  2  1  0  0  0  0
  7  3  1  0  0  0  0
  8  5  1  0  0  0  0
  9 11  2  0  0  0  0
 10  5  2  0  0  0  0
 11 17  1  0  0  0  0
 12  8  1  0  0  0  0
 13 18  2  0  0  0  0
 14  1  3  0  0  0  0
 15 18  1  0  0  0  0
 15 12  2  0  0  0  0
 16  6  1  0  0  0  0
 16 13  2  0  0  0  0
 18 10  1  0  0  0  0
 19 12  1  0  0  0  0
 20 22  1  0  0  0  0
 21  4  1  6  0  0  0
 21 20  1  0  0  0  0
 23 22  1  0  0  0  0
 24 25  1  6  0  0  0
 24 21  1  0  0  0  0
 24 23  1  0  0  0  0
 26 25  1  0  0  0  0
 27 26  2  0  0  0  0
 28 29  1  0  0  0  0
 28 27  1  1  0  0  0
 30 28  1  0  0  0  0
 30 29  1  0  0  0  0
 30 31  1  1  0  0  0
 32 33  1  1  0  0  0
 32 35  1  0  0  0  0
 32 30  1  0  0  0  0
 35 34  1  0  0  0  0
 37 41  1  0  0  0  0
 37 38  1  0  0  0  0
 38 36  1  0  0  0  0
 38 40  2  0  0  0  0
 39 40  1  0  0  0  0
 41 43  1  1  0  0  0
 41 39  1  0  0  0  0
 42 43  1  0  0  0  0
M  END
>  <MODEL>
4

>  <REMARK>
 VINA RESULT:      -7.5      5.074      8.773
  Name = 
  9 active torsions:
  status: ('A' for Active; 'I' for Inactive)
    1  A    between atoms: C_4  and  C_12
    2  A    between atoms: C_7  and  C_20
    3  A    between atoms: C_7  and  O_34
    4  A    between atoms: C_10  and  C_40
    5  A    between atoms: C_12  and  C_19
    6  A    between atoms: C_13  and  C_16
    7  A    between atoms: C_14  and  S_17
    8  A    between atoms: S_17  and  C_39
    9  A    between atoms: C_22  and  C_24
                            x       y       z     vdW  Elec       q    Type
                         _______ _______ _______ _____ _____    ______ ____

>  <TORSDO>
F 9

$$$$
=
 OpenBabel10232410283D

 43 48  0  0  1  0  0  0  0  0999 V2000
  187.1950  177.9430  141.6420 C   0  0  0  0  0  0  0  0  0  0  0  0
  191.0280  178.3160  143.5810 C   0  0  2  0  0  3  0  0  0  0  0  0
  191.7610  177.8930  144.6790 C   0  0  0  0  0  2  0  0  0  0  0  0
  188.5010  177.6300  141.0990 C   0  0  0  0  0  0  0  0  0  0  0  0
  189.1170  178.2900  145.6400 C   0  0  0  0  0  0  0  0  0  0  0  0
  184.7860  178.5840  142.6350 C   0  0  2  0  0  3  0  0  0  0  0  0
  190.3220  178.2250  144.8930 N   0  0  0  0  0  0  0  0  0  0  0  0
  189.0930  178.0020  146.9460 C   0  0  0  0  0  2  0  0  0  0  0  0
  189.4990  177.4170  141.9210 C   0  0  0  0  0  0  0  0  0  0  0  0
  187.8990  178.5150  144.9400 N   0  0  0  0  0  0  0  0  0  0  0  0
  190.5260  177.2010  142.7020 C   0  0  0  0  0  0  0  0  0  0  0  0
  187.7940  177.9400  147.6630 C   0  0  0  0  0  0  0  0  0  0  0  0
  185.5880  178.2380  144.9050 C   0  0  0  0  0  0  0  0  0  0  0  0
  186.1020  178.2170  142.0760 C   0  0  0  0  0  0  0  0  0  0  0  0
  186.6670  178.0870  147.0250 N   0  0  0  0  0  0  0  0  0  0  0  0
  184.6250  178.0790  144.0430 C   0  0  0  0  0  3  0  0  0  0  0  0
  191.2480  175.8970  142.5910 C   0  0  0  0  0  1  0  0  0  0  0  0
  186.6600  178.3730  145.6210 C   0  0  0  0  0  0  0  0  0  0  0  0
  187.7820  177.6630  149.0580 N   0  0  0  0  0  1  0  0  0  0  0  0
  187.7030  178.0280  138.7500 C   0  0  0  0  0  2  0  0  0  0  0  0
  188.6570  177.2730  139.6390 C   0  0  1  0  0  3  0  0  0  0  0  0
  188.5950  179.0160  138.0470 C   0  0  0  0  0  2  0  0  0  0  0  0
  189.8610  178.4260  137.9300 O   0  0  0  0  0  0  0  0  0  0  0  0
  190.0270  177.6750  139.1080 C   0  0  2  0  0  3  0  0  0  0  0  0
  190.9910  176.1690  138.7610 S   0  0  0  0  0  0  0  0  0  0  0  0
  190.2410  175.9170  137.1510 C   0  0  0  0  0  3  0  0  0  0  0  0
  189.2600  175.0280  137.0160 C   0  0  0  0  0  3  0  0  0  0  0  0
  188.6160  174.8020  135.6840 C   0  0  2  0  0  3  0  0  0  0  0  0
  187.8760  175.9580  135.3350 O   0  0  0  0  0  0  0  0  0  0  0  0
  187.1320  174.8450  135.7490 C   0  0  2  0  0  0  0  0  0  0  0  0
  186.5210  175.0620  136.9880 O   0  0  0  0  0  1  0  0  0  0  0  0
  186.3030  174.2560  134.6150 C   0  0  1  0  0  3  0  0  0  0  0  0
  185.7910  172.8840  135.0160 C   0  0  0  0  0  1  0  0  0  0  0  0
  184.1230  174.3260  134.6050 N   0  0  0  0  0  1  0  0  0  0  0  0
  185.2130  175.0880  134.3460 O   0  0  0  0  0  0  0  0  0  0  0  0
  183.6840  178.0380  141.7370 C   0  0  0  0  0  2  0  0  0  0  0  0
  181.7350  179.5180  140.2320 S   0  0  0  0  0  0  0  0  0  0  0  0
  183.3900  178.9570  140.5990 C   0  0  0  0  0  0  0  0  0  0  0  0
  183.8710  180.3660  138.9120 N   0  0  0  0  0  2  0  0  0  0  0  0
  184.3250  179.4690  139.8770 N   0  0  0  0  0  0  0  0  0  0  0  0
  182.4360  180.5910  138.9230 C   0  0  1  0  0  3  0  0  0  0  0  0
  182.0230  178.7980  137.3310 N   0  0  0  0  0  1  0  0  0  0  0  0
  181.8550  180.2200  137.5700 C   0  0  0  0  0  2  0  0  0  0  0  0
  1 14  3  0  0  0  0
  2  3  1  1  0  0  0
  2  7  1  0  0  0  0
  3  7  1  0  0  0  0
  4  1  1  0  0  0  0
  4  9  2  0  0  0  0
  5  8  1  0  0  0  0
  6 36  1  6  0  0  0
  6 16  1  0  0  0  0
  7  5  1  0  0  0  0
  8 12  1  0  0  0  0
  9 11  2  0  0  0  0
 10 18  1  0  0  0  0
 10  5  2  0  0  0  0
 11  2  1  0  0  0  0
 12 19  1  0  0  0  0
 13 18  2  0  0  0  0
 14  6  1  0  0  0  0
 15 12  2  0  0  0  0
 16 13  2  0  0  0  0
 17 11  1  0  0  0  0
 18 15  1  0  0  0  0
 20 21  1  0  0  0  0
 21  4  1  1  0  0  0
 22 20  1  0  0  0  0
 23 22  1  0  0  0  0
 23 24  1  0  0  0  0
 24 25  1  6  0  0  0
 24 21  1  0  0  0  0
 26 25  1  0  0  0  0
 27 26  2  0  0  0  0
 28 30  1  0  0  0  0
 28 27  1  1  0  0  0
 29 28  1  0  0  0  0
 29 30  1  0  0  0  0
 30 31  1  1  0  0  0
 32 33  1  1  0  0  0
 32 30  1  0  0  0  0
 35 34  1  0  0  0  0
 35 32  1  0  0  0  0
 37 38  1  0  0  0  0
 38 36  1  0  0  0  0
 39 41  1  0  0  0  0
 39 40  1  0  0  0  0
 40 38  2  0  0  0  0
 41 43  1  6  0  0  0
 41 37  1  0  0  0  0
 42 43  1  0  0  0  0
M  END
>  <MODEL>
5

>  <REMARK>
 VINA RESULT:      -7.3      3.216      6.851
  Name = 
  9 active torsions:
  status: ('A' for Active; 'I' for Inactive)
    1  A    between atoms: C_4  and  C_12
    2  A    between atoms: C_7  and  C_20
    3  A    between atoms: C_7  and  O_34
    4  A    between atoms: C_10  and  C_40
    5  A    between atoms: C_12  and  C_19
    6  A    between atoms: C_13  and  C_16
    7  A    between atoms: C_14  and  S_17
    8  A    between atoms: S_17  and  C_39
    9  A    between atoms: C_22  and  C_24
                            x       y       z     vdW  Elec       q    Type
                         _______ _______ _______ _____ _____    ______ ____

>  <TORSDO>
F 9

$$$$
=
 OpenBabel10232410283D

 43 48  0  0  1  0  0  0  0  0999 V2000
  187.2280  177.9660  141.5790 C   0  0  0  0  0  0  0  0  0  0  0  0
  185.2540  177.6950  145.4030 C   0  0  2  0  0  3  0  0  0  0  0  0
  185.3740  178.0400  146.7400 C   0  0  0  0  0  2  0  0  0  0  0  0
  185.9150  178.4590  141.9390 C   0  0  0  0  0  0  0  0  0  0  0  0
  187.9880  177.2940  145.9110 C   0  0  0  0  0  0  0  0  0  0  0  0
  189.6370  176.9950  140.9050 C   0  0  2  0  0  3  0  0  0  0  0  0
  186.5980  177.5580  146.0360 N   0  0  0  0  0  0  0  0  0  0  0  0
  188.8130  177.4130  146.9560 C   0  0  0  0  0  2  0  0  0  0  0  0
  185.6310  178.6550  143.2030 C   0  0  0  0  0  0  0  0  0  0  0  0
  188.5160  177.0510  144.6130 N   0  0  0  0  0  0  0  0  0  0  0  0
  185.3010  178.8620  144.4520 C   0  0  0  0  0  0  0  0  0  0  0  0
  190.2790  177.2700  146.7580 C   0  0  0  0  0  0  0  0  0  0  0  0
  190.3780  177.1250  143.2180 C   0  0  0  0  0  0  0  0  0  0  0  0
  188.3140  177.5440  141.2610 C   0  0  0  0  0  0  0  0  0  0  0  0
  190.7820  177.1040  145.5680 N   0  0  0  0  0  0  0  0  0  0  0  0
  190.6640  177.3040  141.9610 C   0  0  0  0  0  3  0  0  0  0  0  0
  184.8500  180.2280  144.8570 C   0  0  0  0  0  1  0  0  0  0  0  0
  189.9240  176.9960  144.4250 C   0  0  0  0  0  0  0  0  0  0  0  0
  191.1450  177.3680  147.8810 N   0  0  0  0  0  1  0  0  0  0  0  0
  185.6580  179.1630  139.5410 C   0  0  0  0  0  2  0  0  0  0  0  0
  184.9860  179.0080  140.8800 C   0  0  1  0  0  3  0  0  0  0  0  0
  185.0570  178.0510  138.7230 C   0  0  0  0  0  2  0  0  0  0  0  0
  183.7590  177.8340  139.2030 O   0  0  0  0  0  0  0  0  0  0  0  0
  183.8390  178.0490  140.5900 C   0  0  2  0  0  3  0  0  0  0  0  0
  182.2880  178.7820  141.2030 S   0  0  0  0  0  0  0  0  0  0  0  0
  181.2740  177.9520  139.9780 C   0  0  0  0  0  3  0  0  0  0  0  0
  180.9710  176.6660  140.1380 C   0  0  0  0  0  3  0  0  0  0  0  0
  180.1230  175.9520  139.1320 C   0  0  2  0  0  3  0  0  0  0  0  0
  180.2170  174.5590  139.3640 O   0  0  0  0  0  0  0  0  0  0  0  0
  180.9120  175.0520  138.2520 C   0  0  2  0  0  0  0  0  0  0  0  0
  182.2970  174.9810  138.4340 O   0  0  0  0  0  1  0  0  0  0  0  0
  180.3180  174.5570  136.9400 C   0  0  1  0  0  3  0  0  0  0  0  0
  181.3340  174.7220  135.8240 C   0  0  0  0  0  1  0  0  0  0  0  0
  180.9740  172.5460  136.4090 N   0  0  0  0  0  1  0  0  0  0  0  0
  179.9820  173.2060  137.0540 O   0  0  0  0  0  0  0  0  0  0  0  0
  190.0690  177.5490  139.5550 C   0  0  0  0  0  2  0  0  0  0  0  0
  192.6930  176.8220  138.6360 S   0  0  0  0  0  0  0  0  0  0  0  0
  190.9310  176.5850  138.8100 C   0  0  0  0  0  0  0  0  0  0  0  0
  191.4310  174.6710  137.7390 N   0  0  0  0  0  2  0  0  0  0  0  0
  190.4660  175.4840  138.3320 N   0  0  0  0  0  0  0  0  0  0  0  0
  192.7850  175.1920  137.8030 C   0  0  1  0  0  3  0  0  0  0  0  0
  194.3590  176.3770  136.3760 N   0  0  0  0  0  1  0  0  0  0  0  0
  193.3340  175.3490  136.3970 C   0  0  0  0  0  2  0  0  0  0  0  0
  1  4  1  0  0  0  0
  2  7  1  0  0  0  0
  2  3  1  1  0  0  0
  4  9  2  0  0  0  0
  5  7  1  0  0  0  0
  5  8  1  0  0  0  0
  6 36  1  6  0  0  0
  6 14  1  0  0  0  0
  6 16  1  0  0  0  0
  7  3  1  0  0  0  0
  9 11  2  0  0  0  0
 10  5  2  0  0  0  0
 11 17  1  0  0  0  0
 11  2  1  0  0  0  0
 12  8  1  0  0  0  0
 12 19  1  0  0  0  0
 13 18  2  0  0  0  0
 14  1  3  0  0  0  0
 15 12  2  0  0  0  0
 16 13  2  0  0  0  0
 18 10  1  0  0  0  0
 18 15  1  0  0  0  0
 20 21  1  0  0  0  0
 21  4  1  1  0  0  0
 22 23  1  0  0  0  0
 22 20  1  0  0  0  0
 23 24  1  0  0  0  0
 24 21  1  0  0  0  0
 24 25  1  6  0  0  0
 26 27  2  0  0  0  0
 26 25  1  0  0  0  0
 28 29  1  0  0  0  0
 28 27  1  1  0  0  0
 30 31  1  1  0  0  0
 30 28  1  0  0  0  0
 30 29  1  0  0  0  0
 32 33  1  6  0  0  0
 32 35  1  0  0  0  0
 32 30  1  0  0  0  0
 34 35  1  0  0  0  0
 37 38  1  0  0  0  0
 38 36  1  0  0  0  0
 39 41  1  0  0  0  0
 39 40  1  0  0  0  0
 40 38  2  0  0  0  0
 41 43  1  6  0  0  0
 41 37  1  0  0  0  0
 42 43  1  0  0  0  0
M  END
>  <MODEL>
6

>  <REMARK>
 VINA RESULT:      -7.2      3.350      4.304
  Name = 
  9 active torsions:
  status: ('A' for Active; 'I' for Inactive)
    1  A    between atoms: C_4  and  C_12
    2  A    between atoms: C_7  and  C_20
    3  A    between atoms: C_7  and  O_34
    4  A    between atoms: C_10  and  C_40
    5  A    between atoms: C_12  and  C_19
    6  A    between atoms: C_13  and  C_16
    7  A    between atoms: C_14  and  S_17
    8  A    between atoms: S_17  and  C_39
    9  A    between atoms: C_22  and  C_24
                            x       y       z     vdW  Elec       q    Type
                         _______ _______ _______ _____ _____    ______ ____

>  <TORSDO>
F 9

$$$$
=
 OpenBabel10232410283D

 43 48  0  0  1  0  0  0  0  0999 V2000
  187.6650  177.8000  139.3330 C   0  0  0  0  0  0  0  0  0  0  0  0
  183.4540  177.8950  140.2570 C   0  0  2  0  0  3  0  0  0  0  0  0
  182.5120  178.4960  141.0750 C   0  0  0  0  0  2  0  0  0  0  0  0
  186.5650  178.1110  138.4430 C   0  0  0  0  0  0  0  0  0  0  0  0
  184.7930  178.0850  142.7190 C   0  0  0  0  0  0  0  0  0  0  0  0
  189.6900  177.1640  140.9750 C   0  0  2  0  0  3  0  0  0  0  0  0
  183.8190  178.1170  141.6860 N   0  0  0  0  0  0  0  0  0  0  0  0
  184.5180  178.5400  143.9460 C   0  0  0  0  0  2  0  0  0  0  0  0
  185.4180  178.4830  138.9520 C   0  0  0  0  0  0  0  0  0  0  0  0
  186.1220  177.7040  142.3840 N   0  0  0  0  0  0  0  0  0  0  0  0
  184.2520  178.8550  139.4140 C   0  0  0  0  0  0  0  0  0  0  0  0
  185.6000  178.6250  144.9600 C   0  0  0  0  0  0  0  0  0  0  0  0
  188.3850  177.8480  142.9100 C   0  0  0  0  0  0  0  0  0  0  0  0
  188.5900  177.5260  140.0600 C   0  0  0  0  0  0  0  0  0  0  0  0
  186.8320  178.3340  144.6530 N   0  0  0  0  0  0  0  0  0  0  0  0
  189.5410  177.8400  142.3110 C   0  0  0  0  0  3  0  0  0  0  0  0
  183.6940  180.1710  138.9760 C   0  0  0  0  0  1  0  0  0  0  0  0
  187.1620  177.8660  143.3390 C   0  0  0  0  0  0  0  0  0  0  0  0
  185.2910  179.0810  146.2710 N   0  0  0  0  0  1  0  0  0  0  0  0
  188.1520  178.8840  136.6540 C   0  0  0  0  0  2  0  0  0  0  0  0
  186.8060  178.2800  136.9600 C   0  0  1  0  0  3  0  0  0  0  0  0
  188.9320  177.7220  136.0980 C   0  0  0  0  0  2  0  0  0  0  0  0
  188.0180  176.8710  135.4620 O   0  0  0  0  0  0  0  0  0  0  0  0
  186.8500  176.9380  136.2420 C   0  0  2  0  0  3  0  0  0  0  0  0
  185.3770  176.7870  135.1810 S   0  0  0  0  0  0  0  0  0  0  0  0
  185.9040  175.2280  134.4690 C   0  0  0  0  0  3  0  0  0  0  0  0
  185.8230  174.1140  135.1940 C   0  0  0  0  0  3  0  0  0  0  0  0
  186.2530  172.8000  134.6210 C   0  0  2  0  0  3  0  0  0  0  0  0
  185.8610  171.7670  135.5060 O   0  0  0  0  0  0  0  0  0  0  0  0
  187.2250  172.0850  135.4890 C   0  0  2  0  0  0  0  0  0  0  0  0
  187.6310  172.6920  136.6820 O   0  0  0  0  0  1  0  0  0  0  0  0
  188.0690  170.9550  134.9160 C   0  0  1  0  0  3  0  0  0  0  0  0
  189.4980  171.4320  134.7240 C   0  0  0  0  0  1  0  0  0  0  0  0
  187.5570  168.8410  135.0760 N   0  0  0  0  0  1  0  0  0  0  0  0
  188.0660  169.8700  135.7960 O   0  0  0  0  0  0  0  0  0  0  0  0
  191.0220  177.5270  140.3330 C   0  0  0  0  0  2  0  0  0  0  0  0
  193.0060  176.5930  138.4760 S   0  0  0  0  0  0  0  0  0  0  0  0
  191.4010  176.5620  139.2600 C   0  0  0  0  0  0  0  0  0  0  0  0
  191.1760  174.7490  137.9460 N   0  0  0  0  0  2  0  0  0  0  0  0
  190.6260  175.5980  138.9050 N   0  0  0  0  0  0  0  0  0  0  0  0
  192.5340  175.0820  137.5520 C   0  0  1  0  0  3  0  0  0  0  0  0
  193.6990  176.2080  135.7370 N   0  0  0  0  0  1  0  0  0  0  0  0
  192.5780  175.3430  136.0580 C   0  0  0  0  0  2  0  0  0  0  0  0
  1 14  3  0  0  0  0
  2  3  1  1  0  0  0
  2  7  1  0  0  0  0
  3  7  1  0  0  0  0
  4  9  2  0  0  0  0
  4  1  1  0  0  0  0
  5  8  1  0  0  0  0
  6 36  1  6  0  0  0
  6 16  1  0  0  0  0
  7  5  1  0  0  0  0
  8 12  1  0  0  0  0
  9 11  2  0  0  0  0
 10  5  2  0  0  0  0
 10 18  1  0  0  0  0
 11  2  1  0  0  0  0
 12 19  1  0  0  0  0
 13 18  2  0  0  0  0
 14  6  1  0  0  0  0
 15 12  2  0  0  0  0
 16 13  2  0  0  0  0
 17 11  1  0  0  0  0
 18 15  1  0  0  0  0
 20 21  1  0  0  0  0
 21  4  1  1  0  0  0
 22 20  1  0  0  0  0
 23 22  1  0  0  0  0
 23 24  1  0  0  0  0
 24 25  1  6  0  0  0
 24 21  1  0  0  0  0
 26 25  1  0  0  0  0
 26 27  2  0  0  0  0
 28 27  1  1  0  0  0
 28 30  1  0  0  0  0
 28 29  1  0  0  0  0
 30 29  1  0  0  0  0
 30 31  1  1  0  0  0
 32 33  1  1  0  0  0
 32 30  1  0  0  0  0
 32 35  1  0  0  0  0
 34 35  1  0  0  0  0
 37 38  1  0  0  0  0
 38 36  1  0  0  0  0
 39 40  1  0  0  0  0
 40 38  2  0  0  0  0
 41 43  1  6  0  0  0
 41 39  1  0  0  0  0
 41 37  1  0  0  0  0
 42 43  1  0  0  0  0
M  END
>  <MODEL>
7

>  <REMARK>
 VINA RESULT:      -7.2      4.060      7.432
  Name = 
  9 active torsions:
  status: ('A' for Active; 'I' for Inactive)
    1  A    between atoms: C_4  and  C_12
    2  A    between atoms: C_7  and  C_20
    3  A    between atoms: C_7  and  O_34
    4  A    between atoms: C_10  and  C_40
    5  A    between atoms: C_12  and  C_19
    6  A    between atoms: C_13  and  C_16
    7  A    between atoms: C_14  and  S_17
    8  A    between atoms: S_17  and  C_39
    9  A    between atoms: C_22  and  C_24
                            x       y       z     vdW  Elec       q    Type
                         _______ _______ _______ _____ _____    ______ ____

>  <TORSDO>
F 9

$$$$
=
 OpenBabel10232410283D

 43 48  0  0  1  0  0  0  0  0999 V2000
  187.5970  178.3110  141.1530 C   0  0  0  0  0  0  0  0  0  0  0  0
  191.2540  178.7310  143.3980 C   0  0  2  0  0  3  0  0  0  0  0  0
  191.9630  178.2130  144.4700 C   0  0  0  0  0  2  0  0  0  0  0  0
  188.9570  178.2090  140.6650 C   0  0  0  0  0  0  0  0  0  0  0  0
  189.2410  178.2060  145.2860 C   0  0  0  0  0  0  0  0  0  0  0  0
  185.0810  178.5610  142.0540 C   0  0  2  0  0  3  0  0  0  0  0  0
  190.4880  178.3720  144.6270 N   0  0  0  0  0  0  0  0  0  0  0  0
  189.1730  177.7160  146.5280 C   0  0  0  0  0  2  0  0  0  0  0  0
  189.9230  177.9650  141.5150 C   0  0  0  0  0  0  0  0  0  0  0  0
  188.0480  178.4230  144.5410 N   0  0  0  0  0  0  0  0  0  0  0  0
  190.9200  177.7260  142.3270 C   0  0  0  0  0  0  0  0  0  0  0  0
  187.8480  177.4210  147.1330 C   0  0  0  0  0  0  0  0  0  0  0  0
  185.7850  177.9400  144.2980 C   0  0  0  0  0  0  0  0  0  0  0  0
  186.4580  178.4100  141.5430 C   0  0  0  0  0  0  0  0  0  0  0  0
  186.7500  177.5610  146.4450 N   0  0  0  0  0  0  0  0  0  0  0  0
  184.8930  177.8290  143.3550 C   0  0  0  0  0  3  0  0  0  0  0  0
  191.7790  176.5290  142.0750 C   0  0  0  0  0  1  0  0  0  0  0  0
  186.7940  178.0610  145.1020 C   0  0  0  0  0  0  0  0  0  0  0  0
  187.7860  176.9300  148.4660 N   0  0  0  0  0  1  0  0  0  0  0  0
  190.4970  177.3420  138.8790 C   0  0  0  0  0  2  0  0  0  0  0  0
  189.2320  178.1020  139.1830 C   0  0  1  0  0  3  0  0  0  0  0  0
  189.9910  176.0350  138.3300 C   0  0  0  0  0  2  0  0  0  0  0  0
  188.7690  176.2940  137.6950 O   0  0  0  0  0  0  0  0  0  0  0  0
  188.1550  177.2940  138.4700 C   0  0  2  0  0  3  0  0  0  0  0  0
  187.1880  178.4100  137.4050 S   0  0  0  0  0  0  0  0  0  0  0  0
  186.4910  177.0720  136.4350 C   0  0  0  0  0  3  0  0  0  0  0  0
  185.2470  176.6630  136.6770 C   0  0  0  0  0  3  0  0  0  0  0  0
  184.6420  175.5510  135.8790 C   0  0  2  0  0  3  0  0  0  0  0  0
  183.2340  175.6120  136.0070 O   0  0  0  0  0  0  0  0  0  0  0  0
  183.8790  174.5910  136.7170 C   0  0  2  0  0  0  0  0  0  0  0  0
  183.8220  174.8050  138.0980 O   0  0  0  0  0  1  0  0  0  0  0  0
  183.5360  173.2110  136.1740 C   0  0  1  0  0  3  0  0  0  0  0  0
  184.0370  172.1450  137.1330 C   0  0  0  0  0  1  0  0  0  0  0  0
  181.8750  171.8210  136.4330 N   0  0  0  0  0  1  0  0  0  0  0  0
  182.1510  173.0870  136.0390 O   0  0  0  0  0  0  0  0  0  0  0  0
  184.0950  178.0610  141.0080 C   0  0  0  0  0  2  0  0  0  0  0  0
  181.6920  179.0830  139.8080 S   0  0  0  0  0  0  0  0  0  0  0  0
  182.7420  178.6620  141.1910 C   0  0  0  0  0  0  0  0  0  0  0  0
  180.9190  179.3250  142.3310 N   0  0  0  0  0  2  0  0  0  0  0  0
  182.2200  178.8250  142.3560 N   0  0  0  0  0  0  0  0  0  0  0  0
  180.3760  179.5330  141.0010 C   0  0  1  0  0  3  0  0  0  0  0  0
  180.1150  181.3820  139.4400 N   0  0  0  0  0  1  0  0  0  0  0  0
  179.9900  180.9910  140.8340 C   0  0  0  0  0  2  0  0  0  0  0  0
  1 14  3  0  0  0  0
  2  3  1  1  0  0  0
  2  7  1  0  0  0  0
  3  7  1  0  0  0  0
  4  1  1  0  0  0  0
  4  9  2  0  0  0  0
  5  8  1  0  0  0  0
  6 36  1  6  0  0  0
  6 16  1  0  0  0  0
  7  5  1  0  0  0  0
  8 12  1  0  0  0  0
  9 11  2  0  0  0  0
 10 18  1  0  0  0  0
 10  5  2  0  0  0  0
 11  2  1  0  0  0  0
 12 19  1  0  0  0  0
 13 18  2  0  0  0  0
 14  6  1  0  0  0  0
 15 12  2  0  0  0  0
 16 13  2  0  0  0  0
 17 11  1  0  0  0  0
 18 15  1  0  0  0  0
 20 21  1  0  0  0  0
 21  4  1  1  0  0  0
 22 20  1  0  0  0  0
 23 22  1  0  0  0  0
 23 24  1  0  0  0  0
 24 25  1  6  0  0  0
 24 21  1  0  0  0  0
 26 27  2  0  0  0  0
 26 25  1  0  0  0  0
 28 29  1  0  0  0  0
 28 27  1  1  0  0  0
 28 30  1  0  0  0  0
 29 30  1  0  0  0  0
 30 31  1  1  0  0  0
 32 30  1  0  0  0  0
 32 33  1  1  0  0  0
 35 32  1  0  0  0  0
 35 34  1  0  0  0  0
 36 38  1  0  0  0  0
 37 41  1  0  0  0  0
 37 38  1  0  0  0  0
 38 40  2  0  0  0  0
 39 40  1  0  0  0  0
 41 43  1  1  0  0  0
 41 39  1  0  0  0  0
 42 43  1  0  0  0  0
M  END
>  <MODEL>
8

>  <REMARK>
 VINA RESULT:      -7.2      3.325      6.789
  Name = 
  9 active torsions:
  status: ('A' for Active; 'I' for Inactive)
    1  A    between atoms: C_4  and  C_12
    2  A    between atoms: C_7  and  C_20
    3  A    between atoms: C_7  and  O_34
    4  A    between atoms: C_10  and  C_40
    5  A    between atoms: C_12  and  C_19
    6  A    between atoms: C_13  and  C_16
    7  A    between atoms: C_14  and  S_17
    8  A    between atoms: S_17  and  C_39
    9  A    between atoms: C_22  and  C_24
                            x       y       z     vdW  Elec       q    Type
                         _______ _______ _______ _____ _____    ______ ____

>  <TORSDO>
F 9

$$$$
=
 OpenBabel10232410283D

 43 48  0  0  1  0  0  0  0  0999 V2000
  187.4780  177.7900  140.1220 C   0  0  0  0  0  0  0  0  0  0  0  0
  191.7720  177.7100  139.7370 C   0  0  2  0  0  3  0  0  0  0  0  0
  192.9210  177.1380  140.2590 C   0  0  0  0  0  2  0  0  0  0  0  0
  188.2600  177.4350  138.9560 C   0  0  0  0  0  0  0  0  0  0  0  0
  191.2380  177.6320  142.4950 C   0  0  0  0  0  0  0  0  0  0  0  0
  186.0370  178.5060  142.2700 C   0  0  2  0  0  3  0  0  0  0  0  0
  191.8560  177.5500  141.2180 N   0  0  0  0  0  0  0  0  0  0  0  0
  191.8740  177.2270  143.6000 C   0  0  0  0  0  2  0  0  0  0  0  0
  189.5100  177.0780  139.1110 C   0  0  0  0  0  0  0  0  0  0  0  0
  189.8670  178.0060  142.5600 N   0  0  0  0  0  0  0  0  0  0  0  0
  190.7640  176.7190  139.2160 C   0  0  0  0  0  0  0  0  0  0  0  0
  191.1480  177.1920  144.8960 C   0  0  0  0  0  0  0  0  0  0  0  0
  187.8690  177.8970  143.7480 C   0  0  0  0  0  0  0  0  0  0  0  0
  186.8130  178.1000  141.0820 C   0  0  0  0  0  0  0  0  0  0  0  0
  189.8780  177.4770  144.9620 N   0  0  0  0  0  0  0  0  0  0  0  0
  186.5860  177.8870  143.5260 C   0  0  0  0  0  3  0  0  0  0  0  0
  191.1740  175.3830  138.6860 C   0  0  0  0  0  1  0  0  0  0  0  0
  189.1650  177.8900  143.7900 C   0  0  0  0  0  0  0  0  0  0  0  0
  191.8410  176.7900  146.0700 N   0  0  0  0  0  1  0  0  0  0  0  0
  186.6500  178.3220  137.2420 C   0  0  0  0  0  2  0  0  0  0  0  0
  187.5850  177.2040  137.6230 C   0  0  1  0  0  3  0  0  0  0  0  0
  187.3890  179.0260  136.1350 C   0  0  0  0  0  2  0  0  0  0  0  0
  188.1660  178.0660  135.4740 O   0  0  0  0  0  0  0  0  0  0  0  0
  188.5930  177.1820  136.4810 C   0  0  2  0  0  3  0  0  0  0  0  0
  188.7040  175.4860  135.8240 S   0  0  0  0  0  0  0  0  0  0  0  0
  186.9330  175.3420  135.5750 C   0  0  0  0  0  3  0  0  0  0  0  0
  186.3290  174.1780  135.8060 C   0  0  0  0  0  3  0  0  0  0  0  0
  184.8530  174.0340  135.6090 C   0  0  2  0  0  3  0  0  0  0  0  0
  184.1850  174.7450  136.6340 O   0  0  0  0  0  0  0  0  0  0  0  0
  184.1860  173.3480  136.7460 C   0  0  2  0  0  0  0  0  0  0  0  0
  184.9690  172.9150  137.8200 O   0  0  0  0  0  1  0  0  0  0  0  0
  182.7930  172.7590  136.5680 C   0  0  1  0  0  3  0  0  0  0  0  0
  182.7730  171.3310  137.0860 C   0  0  0  0  0  1  0  0  0  0  0  0
  180.8720  173.7780  136.4010 N   0  0  0  0  0  1  0  0  0  0  0  0
  181.8640  173.5170  137.2860 O   0  0  0  0  0  0  0  0  0  0  0  0
  184.5760  178.1240  142.0750 C   0  0  0  0  0  2  0  0  0  0  0  0
  182.2530  178.6360  140.4630 S   0  0  0  0  0  0  0  0  0  0  0  0
  183.9830  178.7940  140.8800 C   0  0  0  0  0  0  0  0  0  0  0  0
  183.9270  180.1890  139.1170 N   0  0  0  0  0  2  0  0  0  0  0  0
  184.6650  179.5950  140.1390 N   0  0  0  0  0  0  0  0  0  0  0  0
  182.5200  179.8310  139.0990 C   0  0  1  0  0  3  0  0  0  0  0  0
  182.9890  178.0050  137.5600 N   0  0  0  0  0  1  0  0  0  0  0  0
  182.1780  179.1920  137.7650 C   0  0  0  0  0  2  0  0  0  0  0  0
  1 14  3  0  0  0  0
  2  3  1  6  0  0  0
  2  7  1  0  0  0  0
  3  7  1  0  0  0  0
  4  9  2  0  0  0  0
  4  1  1  0  0  0  0
  5 10  2  0  0  0  0
  5  8  1  0  0  0  0
  6 36  1  6  0  0  0
  6 16  1  0  0  0  0
  7  5  1  0  0  0  0
  8 12  1  0  0  0  0
  9 11  2  0  0  0  0
 10 18  1  0  0  0  0
 11  2  1  0  0  0  0
 12 15  2  0  0  0  0
 12 19  1  0  0  0  0
 13 18  2  0  0  0  0
 14  6  1  0  0  0  0
 16 13  2  0  0  0  0
 17 11  1  0  0  0  0
 18 15  1  0  0  0  0
 20 21  1  0  0  0  0
 21  4  1  1  0  0  0
 22 20  1  0  0  0  0
 23 22  1  0  0  0  0
 23 24  1  0  0  0  0
 24 25  1  6  0  0  0
 24 21  1  0  0  0  0
 26 27  2  0  0  0  0
 26 25  1  0  0  0  0
 28 27  1  1  0  0  0
 28 29  1  0  0  0  0
 28 30  1  0  0  0  0
 29 30  1  0  0  0  0
 30 31  1  1  0  0  0
 32 30  1  0  0  0  0
 32 33  1  1  0  0  0
 32 35  1  0  0  0  0
 34 35  1  0  0  0  0
 37 38  1  0  0  0  0
 38 36  1  0  0  0  0
 39 40  1  0  0  0  0
 40 38  2  0  0  0  0
 41 43  1  6  0  0  0
 41 39  1  0  0  0  0
 41 37  1  0  0  0  0
 42 43  1  0  0  0  0
M  END
>  <MODEL>
9

>  <REMARK>
 VINA RESULT:      -7.1      3.274      6.685
  Name = 
  9 active torsions:
  status: ('A' for Active; 'I' for Inactive)
    1  A    between atoms: C_4  and  C_12
    2  A    between atoms: C_7  and  C_20
    3  A    between atoms: C_7  and  O_34
    4  A    between atoms: C_10  and  C_40
    5  A    between atoms: C_12  and  C_19
    6  A    between atoms: C_13  and  C_16
    7  A    between atoms: C_14  and  S_17
    8  A    between atoms: S_17  and  C_39
    9  A    between atoms: C_22  and  C_24
                            x       y       z     vdW  Elec       q    Type
                         _______ _______ _______ _____ _____    ______ ____

>  <TORSDO>
F 9

$$$$
