=
 OpenBabel10232409373D

 35 39  0  0  1  0  0  0  0  0999 V2000
  191.2180  176.7860  143.7190 C   0  0  0  0  0  0  0  0  0  0  0  0
  191.5640  175.4430  143.6420 O   0  0  0  0  0  1  0  0  0  0  0  0
  190.5840  178.7210  144.5320 O   0  0  0  0  0  0  0  0  0  0  0  0
  190.8960  177.4870  144.8620 C   0  0  0  0  0  0  0  0  0  0  0  0
  190.7060  178.8780  143.2280 C   0  0  0  0  0  3  0  0  0  0  0  0
  191.1080  177.6730  142.6720 C   0  0  0  0  0  0  0  0  0  0  0  0
  192.4870  177.0800  139.3050 N   0  0  0  0  0  0  0  0  0  0  0  0
  188.8870  178.1030  138.6620 C   0  0  0  0  0  0  0  0  0  0  0  0
  190.7190  176.9630  137.7140 N   0  0  0  0  0  0  0  0  0  0  0  0
  187.8790  178.7830  138.1880 O   0  0  0  0  0  0  0  0  0  0  0  0
  190.3560  176.9570  140.2420 C   0  0  2  0  0  3  0  0  0  0  0  0
  189.2370  177.9390  139.9430 C   0  0  0  0  0  3  0  0  0  0  0  0
  191.3590  177.4160  141.2440 C   0  0  0  0  0  0  0  0  0  0  0  0
  192.5660  177.4080  140.6880 C   0  0  0  0  0  3  0  0  0  0  0  0
  189.5710  177.5660  137.6050 C   0  0  0  0  0  0  0  0  0  0  0  0
  187.9250  178.6600  136.8680 C   0  0  0  0  0  3  0  0  0  0  0  0
  191.2510  176.8190  139.0410 C   0  0  0  0  0  0  0  0  0  0  0  0
  188.9780  177.9060  136.4500 N   0  0  0  0  0  0  0  0  0  0  0  0
  190.8350  176.9710  146.2410 C   0  0  0  0  0  0  0  0  0  0  0  0
  189.7430  177.0740  147.0190 C   0  0  0  0  0  3  0  0  0  0  0  0
  186.2770  178.6130  147.1160 C   0  0  0  0  0  3  0  0  0  0  0  0
  187.5270  178.1520  147.5370 C   0  0  0  0  0  3  0  0  0  0  0  0
  188.0130  177.4040  145.2890 C   0  0  0  0  0  3  0  0  0  0  0  0
  185.8940  178.4640  145.7820 C   0  0  0  0  0  3  0  0  0  0  0  0
  186.7620  177.8590  144.8600 C   0  0  0  0  0  0  0  0  0  0  0  0
  188.3950  177.5260  146.6290 C   0  0  0  0  0  0  0  0  0  0  0  0
  186.3980  177.7080  143.4850 N   0  0  0  0  0  2  0  0  0  0  0  0
  185.5900  178.6750  142.7550 C   0  0  1  0  0  3  0  0  0  0  0  0
  186.2310  178.9380  141.4050 C   0  0  0  0  0  1  0  0  0  0  0  0
  184.1830  178.1300  142.5630 C   0  0  0  0  0  2  0  0  0  0  0  0
  183.1890  178.9320  143.3800 C   0  0  0  0  0  1  0  0  0  0  0  0
  192.0240  176.3660  146.7640 N   0  0  0  0  0  2  0  0  0  0  0  0
  192.1040  175.6970  148.0580 C   0  0  0  0  0  2  0  0  0  0  0  0
  193.4830  175.8810  148.6720 C   0  0  0  0  0  2  0  0  0  0  0  0
  193.4310  176.9100  149.7850 C   0  0  0  0  0  1  0  0  0  0  0  0
  1  4  2  0  0  0  0
  2  1  1  0  0  0  0
  3  4  1  0  0  0  0
  4 19  1  0  0  0  0
  5  3  1  0  0  0  0
  6  5  2  0  0  0  0
  6  1  1  0  0  0  0
  7 14  1  0  0  0  0
  8 12  2  0  0  0  0
  9 17  1  0  0  0  0
 10  8  1  0  0  0  0
 11 12  1  6  0  0  0
 11 13  1  0  0  0  0
 13  6  1  0  0  0  0
 14 13  2  0  0  0  0
 15  9  2  0  0  0  0
 15  8  1  0  0  0  0
 16 10  1  0  0  0  0
 17  7  2  0  0  0  0
 17 11  1  0  0  0  0
 18 16  2  0  0  0  0
 18 15  1  0  0  0  0
 19 32  1  0  0  0  0
 19 20  2  0  0  0  0
 21 22  1  0  0  0  0
 23 26  1  0  0  0  0
 24 21  2  0  0  0  0
 25 23  2  0  0  0  0
 25 24  1  0  0  0  0
 26 20  1  0  0  0  0
 26 22  2  0  0  0  0
 27 25  1  0  0  0  0
 28 29  1  6  0  0  0
 28 27  1  0  0  0  0
 30 28  1  0  0  0  0
 30 31  1  0  0  0  0
 32 33  1  0  0  0  0
 33 34  1  0  0  0  0
 34 35  1  0  0  0  0
M  END
>  <MODEL>
1

>  <REMARK>
 VINA RESULT:      -9.4      0.000      0.000
  Name = 
  9 active torsions:
  status: ('A' for Active; 'I' for Inactive)
    1  A    between atoms: C_5  and  C_8
    2  A    between atoms: C_8  and  N_19
    3  A    between atoms: C_10  and  C_23
    4  A    between atoms: N_14  and  C_23
    5  A    between atoms: N_14  and  C_28
    6  A    between atoms: C_15  and  N_19
    7  A    between atoms: C_15  and  C_30
    8  A    between atoms: C_17  and  C_35
    9  A    between atoms: C_25  and  C_31
                            x       y       z     vdW  Elec       q    Type
                         _______ _______ _______ _____ _____    ______ ____

>  <TORSDO>
F 9

$$$$
=
 OpenBabel10232409373D

 35 39  0  0  1  0  0  0  0  0999 V2000
  189.3280  177.8600  143.7450 C   0  0  0  0  0  0  0  0  0  0  0  0
  190.0540  179.0420  143.8350 O   0  0  0  0  0  1  0  0  0  0  0  0
  188.0110  176.1900  144.2730 O   0  0  0  0  0  0  0  0  0  0  0  0
  188.4800  177.3420  144.6990 C   0  0  0  0  0  0  0  0  0  0  0  0
  188.4880  175.9320  143.0710 C   0  0  0  0  0  3  0  0  0  0  0  0
  189.3290  176.9680  142.6960 C   0  0  0  0  0  0  0  0  0  0  0  0
  191.7980  177.3260  139.9810 N   0  0  0  0  0  0  0  0  0  0  0  0
  188.4630  177.9980  138.2920 C   0  0  0  0  0  0  0  0  0  0  0  0
  190.6890  177.3440  137.8740 N   0  0  0  0  0  0  0  0  0  0  0  0
  187.5460  178.6320  137.6140 O   0  0  0  0  0  0  0  0  0  0  0  0
  189.5470  176.7250  140.0730 C   0  0  2  0  0  3  0  0  0  0  0  0
  188.4120  177.5970  139.5680 C   0  0  0  0  0  3  0  0  0  0  0  0
  190.0680  177.0720  141.4260 C   0  0  0  0  0  0  0  0  0  0  0  0
  191.3660  177.3430  141.3380 C   0  0  0  0  0  3  0  0  0  0  0  0
  189.5400  177.8030  137.4700 C   0  0  0  0  0  0  0  0  0  0  0  0
  188.0340  178.8150  136.3950 C   0  0  0  0  0  3  0  0  0  0  0  0
  190.7870  176.9750  139.2600 C   0  0  0  0  0  0  0  0  0  0  0  0
  189.2920  178.3150  136.2550 N   0  0  0  0  0  0  0  0  0  0  0  0
  188.1670  177.9110  146.0220 C   0  0  0  0  0  0  0  0  0  0  0  0
  186.9920  178.4980  146.3140 C   0  0  0  0  0  3  0  0  0  0  0  0
  183.3730  178.8230  145.2240 C   0  0  0  0  0  3  0  0  0  0  0  0
  184.5010  178.7470  146.0460 C   0  0  0  0  0  3  0  0  0  0  0  0
  185.9020  178.4360  144.0990 C   0  0  0  0  0  3  0  0  0  0  0  0
  183.5100  178.7020  143.8400 C   0  0  0  0  0  3  0  0  0  0  0  0
  184.7780  178.5080  143.2700 C   0  0  0  0  0  0  0  0  0  0  0  0
  185.7700  178.5320  145.4890 C   0  0  0  0  0  0  0  0  0  0  0  0
  184.9460  178.3940  141.8540 N   0  0  0  0  0  2  0  0  0  0  0  0
  183.9060  178.7260  140.8900 C   0  0  1  0  0  3  0  0  0  0  0  0
  184.5530  179.2720  139.6310 C   0  0  0  0  0  1  0  0  0  0  0  0
  183.0960  177.4830  140.5580 C   0  0  0  0  0  2  0  0  0  0  0  0
  183.2760  177.1080  139.1000 C   0  0  0  0  0  1  0  0  0  0  0  0
  189.1970  177.8530  147.0170 N   0  0  0  0  0  2  0  0  0  0  0  0
  189.9450  176.6470  147.3560 C   0  0  0  0  0  2  0  0  0  0  0  0
  191.3550  176.7160  146.7930 C   0  0  0  0  0  2  0  0  0  0  0  0
  192.2650  175.7510  147.5290 C   0  0  0  0  0  1  0  0  0  0  0  0
  1  2  1  0  0  0  0
  1  4  2  0  0  0  0
  3  4  1  0  0  0  0
  4 19  1  0  0  0  0
  5  3  1  0  0  0  0
  6  5  2  0  0  0  0
  6  1  1  0  0  0  0
  7 14  1  0  0  0  0
  8 12  2  0  0  0  0
  9 17  1  0  0  0  0
 10  8  1  0  0  0  0
 11 12  1  6  0  0  0
 11 13  1  0  0  0  0
 13  6  1  0  0  0  0
 14 13  2  0  0  0  0
 15  9  2  0  0  0  0
 15  8  1  0  0  0  0
 16 10  1  0  0  0  0
 17  7  2  0  0  0  0
 17 11  1  0  0  0  0
 18 16  2  0  0  0  0
 18 15  1  0  0  0  0
 19 20  2  0  0  0  0
 19 32  1  0  0  0  0
 21 22  1  0  0  0  0
 23 26  1  0  0  0  0
 24 21  2  0  0  0  0
 25 24  1  0  0  0  0
 25 23  2  0  0  0  0
 26 22  2  0  0  0  0
 26 20  1  0  0  0  0
 27 25  1  0  0  0  0
 28 29  1  6  0  0  0
 28 27  1  0  0  0  0
 30 28  1  0  0  0  0
 31 30  1  0  0  0  0
 32 33  1  0  0  0  0
 34 33  1  0  0  0  0
 34 35  1  0  0  0  0
M  END
>  <MODEL>
2

>  <REMARK>
 VINA RESULT:      -9.0      1.610      2.488
  Name = 
  9 active torsions:
  status: ('A' for Active; 'I' for Inactive)
    1  A    between atoms: C_5  and  C_8
    2  A    between atoms: C_8  and  N_19
    3  A    between atoms: C_10  and  C_23
    4  A    between atoms: N_14  and  C_23
    5  A    between atoms: N_14  and  C_28
    6  A    between atoms: C_15  and  N_19
    7  A    between atoms: C_15  and  C_30
    8  A    between atoms: C_17  and  C_35
    9  A    between atoms: C_25  and  C_31
                            x       y       z     vdW  Elec       q    Type
                         _______ _______ _______ _____ _____    ______ ____

>  <TORSDO>
F 9

$$$$
=
 OpenBabel10232409373D

 35 39  0  0  1  0  0  0  0  0999 V2000
  189.8390  177.9030  143.1100 C   0  0  0  0  0  0  0  0  0  0  0  0
  190.4580  179.1460  143.0490 O   0  0  0  0  0  1  0  0  0  0  0  0
  189.0960  175.9920  143.8860 O   0  0  0  0  0  0  0  0  0  0  0  0
  189.6940  177.1120  144.2290 C   0  0  0  0  0  0  0  0  0  0  0  0
  188.8160  176.0140  142.5980 C   0  0  0  0  0  3  0  0  0  0  0  0
  189.2700  177.2110  142.0650 C   0  0  0  0  0  0  0  0  0  0  0  0
  188.3270  178.6090  138.7860 N   0  0  0  0  0  0  0  0  0  0  0  0
  190.8470  175.8960  137.9440 C   0  0  0  0  0  0  0  0  0  0  0  0
  189.8580  177.8700  137.1190 N   0  0  0  0  0  0  0  0  0  0  0  0
  191.3410  174.8160  137.4020 O   0  0  0  0  0  0  0  0  0  0  0  0
  190.2290  177.5550  139.6260 C   0  0  2  0  0  3  0  0  0  0  0  0
  190.6640  176.1520  139.2450 C   0  0  0  0  0  3  0  0  0  0  0  0
  189.1570  177.6350  140.6590 C   0  0  0  0  0  0  0  0  0  0  0  0
  188.1200  178.2990  140.1610 C   0  0  0  0  0  3  0  0  0  0  0  0
  190.5200  176.7640  136.9380 C   0  0  0  0  0  0  0  0  0  0  0  0
  191.3350  175.0130  136.0900 C   0  0  0  0  0  3  0  0  0  0  0  0
  189.5110  178.2010  138.4740 C   0  0  0  0  0  0  0  0  0  0  0  0
  190.8210  176.2260  135.7460 N   0  0  0  0  0  0  0  0  0  0  0  0
  190.1700  177.3970  145.5950 C   0  0  0  0  0  0  0  0  0  0  0  0
  189.3760  177.8800  146.5670 C   0  0  0  0  0  3  0  0  0  0  0  0
  185.7960  178.5890  147.6040 C   0  0  0  0  0  3  0  0  0  0  0  0
  187.1770  178.3930  147.6830 C   0  0  0  0  0  3  0  0  0  0  0  0
  187.2520  177.9350  145.3090 C   0  0  0  0  0  3  0  0  0  0  0  0
  185.1430  178.4540  146.3770 C   0  0  0  0  0  3  0  0  0  0  0  0
  185.8690  178.1270  145.2220 C   0  0  0  0  0  0  0  0  0  0  0  0
  187.9110  178.0450  146.5380 C   0  0  0  0  0  0  0  0  0  0  0  0
  185.2250  177.9970  143.9510 N   0  0  0  0  0  2  0  0  0  0  0  0
  184.6580  179.1190  143.2170 C   0  0  1  0  0  3  0  0  0  0  0  0
  185.4950  179.3740  141.9770 C   0  0  0  0  0  1  0  0  0  0  0  0
  183.2250  178.8030  142.8180 C   0  0  0  0  0  2  0  0  0  0  0  0
  182.3110  178.8750  144.0250 C   0  0  0  0  0  1  0  0  0  0  0  0
  191.5590  177.1700  145.8620 N   0  0  0  0  0  2  0  0  0  0  0  0
  192.1390  175.8610  146.1420 C   0  0  0  0  0  2  0  0  0  0  0  0
  191.8210  175.4280  147.5640 C   0  0  0  0  0  2  0  0  0  0  0  0
  192.9460  175.8250  148.5010 C   0  0  0  0  0  1  0  0  0  0  0  0
  1  4  2  0  0  0  0
  2  1  1  0  0  0  0
  3  4  1  0  0  0  0
  4 19  1  0  0  0  0
  5  3  1  0  0  0  0
  6  5  2  0  0  0  0
  6  1  1  0  0  0  0
  7 14  1  0  0  0  0
  8 12  2  0  0  0  0
  9 17  1  0  0  0  0
 10  8  1  0  0  0  0
 11 12  1  6  0  0  0
 11 13  1  0  0  0  0
 13  6  1  0  0  0  0
 14 13  2  0  0  0  0
 15  9  2  0  0  0  0
 15  8  1  0  0  0  0
 16 10  1  0  0  0  0
 17  7  2  0  0  0  0
 17 11  1  0  0  0  0
 18 16  2  0  0  0  0
 18 15  1  0  0  0  0
 19 32  1  0  0  0  0
 19 20  2  0  0  0  0
 21 22  1  0  0  0  0
 23 26  1  0  0  0  0
 24 21  2  0  0  0  0
 25 23  2  0  0  0  0
 25 24  1  0  0  0  0
 26 20  1  0  0  0  0
 26 22  2  0  0  0  0
 27 25  1  0  0  0  0
 28 29  1  6  0  0  0
 28 27  1  0  0  0  0
 30 28  1  0  0  0  0
 30 31  1  0  0  0  0
 32 33  1  0  0  0  0
 33 34  1  0  0  0  0
 34 35  1  0  0  0  0
M  END
>  <MODEL>
3

>  <REMARK>
 VINA RESULT:      -8.8      1.695      2.413
  Name = 
  9 active torsions:
  status: ('A' for Active; 'I' for Inactive)
    1  A    between atoms: C_5  and  C_8
    2  A    between atoms: C_8  and  N_19
    3  A    between atoms: C_10  and  C_23
    4  A    between atoms: N_14  and  C_23
    5  A    between atoms: N_14  and  C_28
    6  A    between atoms: C_15  and  N_19
    7  A    between atoms: C_15  and  C_30
    8  A    between atoms: C_17  and  C_35
    9  A    between atoms: C_25  and  C_31
                            x       y       z     vdW  Elec       q    Type
                         _______ _______ _______ _____ _____    ______ ____

>  <TORSDO>
F 9

$$$$
=
 OpenBabel10232409373D

 35 39  0  0  1  0  0  0  0  0999 V2000
  187.5790  177.9190  142.2750 C   0  0  0  0  0  0  0  0  0  0  0  0
  187.2960  179.0600  141.5350 O   0  0  0  0  0  1  0  0  0  0  0  0
  187.4880  176.3870  143.8400 O   0  0  0  0  0  0  0  0  0  0  0  0
  186.9030  177.4760  143.3910 C   0  0  0  0  0  0  0  0  0  0  0  0
  188.5040  176.0730  143.0600 C   0  0  0  0  0  3  0  0  0  0  0  0
  188.5980  177.0200  142.0520 C   0  0  0  0  0  0  0  0  0  0  0  0
  191.5780  177.3350  139.9030 N   0  0  0  0  0  0  0  0  0  0  0  0
  188.6780  177.2380  137.4530 C   0  0  0  0  0  0  0  0  0  0  0  0
  190.9980  176.8710  137.6410 N   0  0  0  0  0  0  0  0  0  0  0  0
  187.8790  177.6190  136.4930 O   0  0  0  0  0  0  0  0  0  0  0  0
  189.4500  176.4230  139.6220 C   0  0  2  0  0  3  0  0  0  0  0  0
  188.3740  177.0300  138.7400 C   0  0  0  0  0  3  0  0  0  0  0  0
  189.5970  177.0420  140.9690 C   0  0  0  0  0  0  0  0  0  0  0  0
  190.8400  177.4890  141.1120 C   0  0  0  0  0  3  0  0  0  0  0  0
  189.9320  177.0870  136.9260 C   0  0  0  0  0  0  0  0  0  0  0  0
  188.6150  177.6890  135.3920 C   0  0  0  0  0  3  0  0  0  0  0  0
  190.8100  176.7330  139.0590 C   0  0  0  0  0  0  0  0  0  0  0  0
  189.9190  177.3680  135.6140 N   0  0  0  0  0  0  0  0  0  0  0  0
  185.7500  178.1130  144.0510 C   0  0  0  0  0  0  0  0  0  0  0  0
  185.6980  178.3550  145.3730 C   0  0  0  0  0  3  0  0  0  0  0  0
  187.7610  178.6460  148.5430 C   0  0  0  0  0  3  0  0  0  0  0  0
  186.7350  178.8420  147.6160 C   0  0  0  0  0  3  0  0  0  0  0  0
  187.8520  177.3640  146.0620 C   0  0  0  0  0  3  0  0  0  0  0  0
  188.8350  177.8120  148.2270 C   0  0  0  0  0  3  0  0  0  0  0  0
  188.8850  177.1650  146.9830 C   0  0  0  0  0  0  0  0  0  0  0  0
  186.7840  178.2180  146.3610 C   0  0  0  0  0  0  0  0  0  0  0  0
  189.9670  176.2940  146.6410 N   0  0  0  0  0  2  0  0  0  0  0  0
  191.3280  176.7550  146.4060 C   0  0  1  0  0  3  0  0  0  0  0  0
  192.3000  175.7640  147.0190 C   0  0  0  0  0  1  0  0  0  0  0  0
  191.5830  176.8730  144.9120 C   0  0  0  0  0  2  0  0  0  0  0  0
  191.4930  178.3210  144.4720 C   0  0  0  0  0  1  0  0  0  0  0  0
  184.6290  178.4500  143.2240 N   0  0  0  0  0  2  0  0  0  0  0  0
  183.3590  178.9600  143.7300 C   0  0  0  0  0  2  0  0  0  0  0  0
  182.2640  178.7990  142.6870 C   0  0  0  0  0  2  0  0  0  0  0  0
  180.8980  178.9060  143.3360 C   0  0  0  0  0  1  0  0  0  0  0  0
  1  4  2  0  0  0  0
  2  1  1  0  0  0  0
  4  3  1  0  0  0  0
  4 19  1  0  0  0  0
  5  3  1  0  0  0  0
  6  1  1  0  0  0  0
  6  5  2  0  0  0  0
  7 14  1  0  0  0  0
  8 12  2  0  0  0  0
  9 17  1  0  0  0  0
 10  8  1  0  0  0  0
 11 12  1  6  0  0  0
 11 13  1  0  0  0  0
 13 14  2  0  0  0  0
 13  6  1  0  0  0  0
 15  8  1  0  0  0  0
 15  9  2  0  0  0  0
 16 18  2  0  0  0  0
 16 10  1  0  0  0  0
 17 11  1  0  0  0  0
 17  7  2  0  0  0  0
 18 15  1  0  0  0  0
 19 20  2  0  0  0  0
 20 26  1  0  0  0  0
 22 21  2  0  0  0  0
 23 26  2  0  0  0  0
 23 25  1  0  0  0  0
 24 21  1  0  0  0  0
 25 24  2  0  0  0  0
 26 22  1  0  0  0  0
 27 25  1  0  0  0  0
 28 27  1  0  0  0  0
 28 29  1  6  0  0  0
 30 28  1  0  0  0  0
 31 30  1  0  0  0  0
 32 33  1  0  0  0  0
 32 19  1  0  0  0  0
 34 35  1  0  0  0  0
 34 33  1  0  0  0  0
M  END
>  <MODEL>
4

>  <REMARK>
 VINA RESULT:      -8.3      1.669      5.486
  Name = 
  9 active torsions:
  status: ('A' for Active; 'I' for Inactive)
    1  A    between atoms: C_5  and  C_8
    2  A    between atoms: C_8  and  N_19
    3  A    between atoms: C_10  and  C_23
    4  A    between atoms: N_14  and  C_23
    5  A    between atoms: N_14  and  C_28
    6  A    between atoms: C_15  and  N_19
    7  A    between atoms: C_15  and  C_30
    8  A    between atoms: C_17  and  C_35
    9  A    between atoms: C_25  and  C_31
                            x       y       z     vdW  Elec       q    Type
                         _______ _______ _______ _____ _____    ______ ____

>  <TORSDO>
F 9

$$$$
=
 OpenBabel10232409373D

 35 39  0  0  1  0  0  0  0  0999 V2000
  183.6830  178.8230  141.4560 C   0  0  0  0  0  0  0  0  0  0  0  0
  182.4400  178.5400  142.0070 O   0  0  0  0  0  1  0  0  0  0  0  0
  185.2500  179.2530  139.9850 O   0  0  0  0  0  0  0  0  0  0  0  0
  183.9560  179.0700  140.1280 C   0  0  0  0  0  0  0  0  0  0  0  0
  185.8450  179.1630  141.1580 C   0  0  0  0  0  3  0  0  0  0  0  0
  184.8860  178.8920  142.1220 C   0  0  0  0  0  0  0  0  0  0  0  0
  184.9040  178.9500  145.8090 N   0  0  0  0  0  0  0  0  0  0  0  0
  188.3210  177.5680  144.8890 C   0  0  0  0  0  0  0  0  0  0  0  0
  186.7350  177.6680  146.6310 N   0  0  0  0  0  0  0  0  0  0  0  0
  189.6210  177.4710  144.8310 O   0  0  0  0  0  0  0  0  0  0  0  0
  185.9820  177.6640  144.1900 C   0  0  2  0  0  3  0  0  0  0  0  0
  187.4640  177.7560  143.8780 C   0  0  0  0  0  3  0  0  0  0  0  0
  185.1290  178.7130  143.5640 C   0  0  0  0  0  0  0  0  0  0  0  0
  184.4840  179.3780  144.5170 C   0  0  0  0  0  3  0  0  0  0  0  0
  187.9450  177.4560  146.2010 C   0  0  0  0  0  0  0  0  0  0  0  0
  190.0440  177.2870  146.0740 C   0  0  0  0  0  3  0  0  0  0  0  0
  185.7430  177.9840  145.6400 C   0  0  0  0  0  0  0  0  0  0  0  0
  189.0250  177.2760  146.9770 N   0  0  0  0  0  0  0  0  0  0  0  0
  183.0020  179.0760  139.0040 C   0  0  0  0  0  0  0  0  0  0  0  0
  183.1460  178.3080  137.9100 C   0  0  0  0  0  3  0  0  0  0  0  0
  184.6850  174.8870  137.3470 C   0  0  0  0  0  3  0  0  0  0  0  0
  183.7370  175.8790  137.6090 C   0  0  0  0  0  3  0  0  0  0  0  0
  185.4590  177.5700  137.4620 C   0  0  0  0  0  3  0  0  0  0  0  0
  186.0220  175.2370  137.1470 C   0  0  0  0  0  3  0  0  0  0  0  0
  186.4160  176.5830  137.2030 C   0  0  0  0  0  0  0  0  0  0  0  0
  184.1220  177.2260  137.6880 C   0  0  0  0  0  0  0  0  0  0  0  0
  187.7760  176.9690  136.9880 N   0  0  0  0  0  2  0  0  0  0  0  0
  188.8140  176.8600  138.0030 C   0  0  1  0  0  3  0  0  0  0  0  0
  190.1730  176.9830  137.3390 C   0  0  0  0  0  1  0  0  0  0  0  0
  188.6420  177.9630  139.0360 C   0  0  0  0  0  2  0  0  0  0  0  0
  189.2390  177.5410  140.3650 C   0  0  0  0  0  1  0  0  0  0  0  0
  181.8940  179.9810  139.0950 N   0  0  0  0  0  2  0  0  0  0  0  0
  181.8580  181.3000  138.4720 C   0  0  0  0  0  2  0  0  0  0  0  0
  180.6010  181.4610  137.6320 C   0  0  0  0  0  2  0  0  0  0  0  0
  180.7300  180.6820  136.3370 C   0  0  0  0  0  1  0  0  0  0  0  0
  1  2  1  0  0  0  0
  1  6  1  0  0  0  0
  3  4  1  0  0  0  0
  3  5  1  0  0  0  0
  4  1  2  0  0  0  0
  5  6  2  0  0  0  0
  6 13  1  0  0  0  0
  8 15  1  0  0  0  0
 10  8  1  0  0  0  0
 10 16  1  0  0  0  0
 11 12  1  6  0  0  0
 11 17  1  0  0  0  0
 12  8  2  0  0  0  0
 13 11  1  0  0  0  0
 13 14  2  0  0  0  0
 14  7  1  0  0  0  0
 15  9  2  0  0  0  0
 15 18  1  0  0  0  0
 16 18  2  0  0  0  0
 17  7  2  0  0  0  0
 17  9  1  0  0  0  0
 19 32  1  0  0  0  0
 19  4  1  0  0  0  0
 20 19  2  0  0  0  0
 21 22  1  0  0  0  0
 22 26  2  0  0  0  0
 23 26  1  0  0  0  0
 24 25  1  0  0  0  0
 24 21  2  0  0  0  0
 25 23  2  0  0  0  0
 26 20  1  0  0  0  0
 27 25  1  0  0  0  0
 27 28  1  0  0  0  0
 28 29  1  6  0  0  0
 28 30  1  0  0  0  0
 30 31  1  0  0  0  0
 33 32  1  0  0  0  0
 34 33  1  0  0  0  0
 35 34  1  0  0  0  0
M  END
>  <MODEL>
5

>  <REMARK>
 VINA RESULT:      -8.2      3.476      9.622
  Name = 
  9 active torsions:
  status: ('A' for Active; 'I' for Inactive)
    1  A    between atoms: C_5  and  C_8
    2  A    between atoms: C_8  and  N_19
    3  A    between atoms: C_10  and  C_23
    4  A    between atoms: N_14  and  C_23
    5  A    between atoms: N_14  and  C_28
    6  A    between atoms: C_15  and  N_19
    7  A    between atoms: C_15  and  C_30
    8  A    between atoms: C_17  and  C_35
    9  A    between atoms: C_25  and  C_31
                            x       y       z     vdW  Elec       q    Type
                         _______ _______ _______ _____ _____    ______ ____

>  <TORSDO>
F 9

$$$$
=
 OpenBabel10232409373D

 35 39  0  0  1  0  0  0  0  0999 V2000
  189.4130  177.1850  141.4730 C   0  0  0  0  0  0  0  0  0  0  0  0
  188.1690  176.9060  142.0260 O   0  0  0  0  0  1  0  0  0  0  0  0
  190.9690  177.6690  140.0070 O   0  0  0  0  0  0  0  0  0  0  0  0
  189.6720  177.5240  140.1620 C   0  0  0  0  0  0  0  0  0  0  0  0
  191.5810  177.4670  141.1580 C   0  0  0  0  0  3  0  0  0  0  0  0
  190.6290  177.1580  142.1170 C   0  0  0  0  0  0  0  0  0  0  0  0
  191.7220  175.8350  145.3810 N   0  0  0  0  0  0  0  0  0  0  0  0
  188.6450  177.9040  146.2050 C   0  0  0  0  0  0  0  0  0  0  0  0
  190.6090  176.9940  147.1380 N   0  0  0  0  0  0  0  0  0  0  0  0
  187.4560  178.1930  146.6590 O   0  0  0  0  0  0  0  0  0  0  0  0
  190.5580  177.7360  144.6950 C   0  0  2  0  0  3  0  0  0  0  0  0
  189.0770  177.9610  144.9390 C   0  0  0  0  0  3  0  0  0  0  0  0
  190.8900  176.8600  143.5360 C   0  0  0  0  0  0  0  0  0  0  0  0
  191.6080  175.8260  143.9610 C   0  0  0  0  0  3  0  0  0  0  0  0
  189.4180  177.5040  147.2620 C   0  0  0  0  0  0  0  0  0  0  0  0
  187.4920  177.9920  147.9690 C   0  0  0  0  0  3  0  0  0  0  0  0
  191.1400  176.9060  145.8060 C   0  0  0  0  0  0  0  0  0  0  0  0
  188.7060  177.5520  148.3980 N   0  0  0  0  0  0  0  0  0  0  0  0
  188.7000  177.6520  139.0620 C   0  0  0  0  0  0  0  0  0  0  0  0
  188.8160  176.9950  137.8940 C   0  0  0  0  0  3  0  0  0  0  0  0
  190.3060  173.6310  136.9690 C   0  0  0  0  0  3  0  0  0  0  0  0
  189.3740  174.6020  137.3450 C   0  0  0  0  0  3  0  0  0  0  0  0
  191.1120  176.2820  137.3310 C   0  0  0  0  0  3  0  0  0  0  0  0
  191.6420  173.9860  136.7780 C   0  0  0  0  0  3  0  0  0  0  0  0
  192.0520  175.3160  136.9570 C   0  0  0  0  0  0  0  0  0  0  0  0
  189.7760  175.9300  137.5480 C   0  0  0  0  0  0  0  0  0  0  0  0
  193.4130  175.7080  136.7540 N   0  0  0  0  0  2  0  0  0  0  0  0
  194.5280  174.7720  136.7440 C   0  0  1  0  0  3  0  0  0  0  0  0
  195.5980  175.2850  135.7990 C   0  0  0  0  0  1  0  0  0  0  0  0
  195.0990  174.6350  138.1470 C   0  0  0  0  0  2  0  0  0  0  0  0
  195.3560  173.1770  138.4740 C   0  0  0  0  0  1  0  0  0  0  0  0
  187.6040  178.5540  139.2620 N   0  0  0  0  0  2  0  0  0  0  0  0
  186.2510  178.3250  138.7660 C   0  0  0  0  0  2  0  0  0  0  0  0
  185.2250  178.6600  139.8370 C   0  0  0  0  0  2  0  0  0  0  0  0
  184.1260  179.5310  139.2600 C   0  0  0  0  0  1  0  0  0  0  0  0
  1  2  1  0  0  0  0
  1  6  1  0  0  0  0
  3  4  1  0  0  0  0
  3  5  1  0  0  0  0
  4  1  2  0  0  0  0
  5  6  2  0  0  0  0
  6 13  1  0  0  0  0
  7 17  2  0  0  0  0
  8 10  1  0  0  0  0
  8 15  1  0  0  0  0
  9 15  2  0  0  0  0
 10 16  1  0  0  0  0
 11 12  1  1  0  0  0
 11 17  1  0  0  0  0
 12  8  2  0  0  0  0
 13 14  2  0  0  0  0
 13 11  1  0  0  0  0
 14  7  1  0  0  0  0
 15 18  1  0  0  0  0
 16 18  2  0  0  0  0
 17  9  1  0  0  0  0
 19 32  1  0  0  0  0
 19  4  1  0  0  0  0
 20 19  2  0  0  0  0
 21 22  1  0  0  0  0
 22 26  2  0  0  0  0
 23 26  1  0  0  0  0
 24 25  1  0  0  0  0
 24 21  2  0  0  0  0
 25 23  2  0  0  0  0
 26 20  1  0  0  0  0
 27 25  1  0  0  0  0
 28 29  1  6  0  0  0
 28 27  1  0  0  0  0
 28 30  1  0  0  0  0
 30 31  1  0  0  0  0
 33 32  1  0  0  0  0
 33 34  1  0  0  0  0
 35 34  1  0  0  0  0
M  END
>  <MODEL>
6

>  <REMARK>
 VINA RESULT:      -8.1      2.756      9.084
  Name = 
  9 active torsions:
  status: ('A' for Active; 'I' for Inactive)
    1  A    between atoms: C_5  and  C_8
    2  A    between atoms: C_8  and  N_19
    3  A    between atoms: C_10  and  C_23
    4  A    between atoms: N_14  and  C_23
    5  A    between atoms: N_14  and  C_28
    6  A    between atoms: C_15  and  N_19
    7  A    between atoms: C_15  and  C_30
    8  A    between atoms: C_17  and  C_35
    9  A    between atoms: C_25  and  C_31
                            x       y       z     vdW  Elec       q    Type
                         _______ _______ _______ _____ _____    ______ ____

>  <TORSDO>
F 9

$$$$
=
 OpenBabel10232409373D

 35 39  0  0  1  0  0  0  0  0999 V2000
  189.2570  176.8580  142.3900 C   0  0  0  0  0  0  0  0  0  0  0  0
  189.7510  175.5720  142.5700 O   0  0  0  0  0  1  0  0  0  0  0  0
  188.3190  178.7960  142.8020 O   0  0  0  0  0  0  0  0  0  0  0  0
  188.7140  177.6730  143.3600 C   0  0  0  0  0  0  0  0  0  0  0  0
  188.5950  178.7750  141.5130 C   0  0  0  0  0  3  0  0  0  0  0  0
  189.1930  177.5620  141.2080 C   0  0  0  0  0  0  0  0  0  0  0  0
  191.0640  176.5210  138.2050 N   0  0  0  0  0  0  0  0  0  0  0  0
  187.6950  177.6410  136.8550 C   0  0  0  0  0  0  0  0  0  0  0  0
  189.5770  176.3120  136.3570 N   0  0  0  0  0  0  0  0  0  0  0  0
  186.8270  178.3120  136.1480 O   0  0  0  0  0  0  0  0  0  0  0  0
  188.8040  176.6120  138.7720 C   0  0  2  0  0  3  0  0  0  0  0  0
  187.8190  177.6070  138.1870 C   0  0  0  0  0  3  0  0  0  0  0  0
  189.6580  177.1310  139.8780 C   0  0  0  0  0  0  0  0  0  0  0  0
  190.9360  177.0010  139.5400 C   0  0  0  0  0  3  0  0  0  0  0  0
  188.5060  176.9540  135.9920 C   0  0  0  0  0  0  0  0  0  0  0  0
  187.0810  178.0380  134.8750 C   0  0  0  0  0  3  0  0  0  0  0  0
  189.8720  176.2940  137.7630 C   0  0  0  0  0  0  0  0  0  0  0  0
  188.1350  177.1900  134.7240 N   0  0  0  0  0  0  0  0  0  0  0  0
  188.5250  177.3610  144.7880 C   0  0  0  0  0  0  0  0  0  0  0  0
  187.3790  177.5990  145.4500 C   0  0  0  0  0  3  0  0  0  0  0  0
  183.9440  179.1610  145.0630 C   0  0  0  0  0  3  0  0  0  0  0  0
  185.1400  178.7330  145.6460 C   0  0  0  0  0  3  0  0  0  0  0  0
  185.8330  177.7810  143.5340 C   0  0  0  0  0  3  0  0  0  0  0  0
  183.6910  178.8940  143.7160 C   0  0  0  0  0  3  0  0  0  0  0  0
  184.6370  178.2030  142.9440 C   0  0  0  0  0  0  0  0  0  0  0  0
  186.0830  178.0230  144.8890 C   0  0  0  0  0  0  0  0  0  0  0  0
  184.4080  177.9290  141.5580 N   0  0  0  0  0  2  0  0  0  0  0  0
  183.6340  178.7980  140.6830 C   0  0  1  0  0  3  0  0  0  0  0  0
  184.4750  179.1600  139.4730 C   0  0  0  0  0  1  0  0  0  0  0  0
  182.3670  178.0850  140.2380 C   0  0  0  0  0  2  0  0  0  0  0  0
  181.1800  178.5550  141.0560 C   0  0  0  0  0  1  0  0  0  0  0  0
  189.6470  176.8090  145.4880 N   0  0  0  0  0  2  0  0  0  0  0  0
  191.0210  177.2780  145.3370 C   0  0  0  0  0  2  0  0  0  0  0  0
  191.9810  176.3740  146.0950 C   0  0  0  0  0  2  0  0  0  0  0  0
  191.4190  176.0350  147.4620 C   0  0  0  0  0  1  0  0  0  0  0  0
  1  2  1  0  0  0  0
  1  4  2  0  0  0  0
  3  4  1  0  0  0  0
  4 19  1  0  0  0  0
  5  3  1  0  0  0  0
  6  5  2  0  0  0  0
  6  1  1  0  0  0  0
  7 14  1  0  0  0  0
  8 12  2  0  0  0  0
  9 17  1  0  0  0  0
 10  8  1  0  0  0  0
 11 12  1  6  0  0  0
 11 13  1  0  0  0  0
 13  6  1  0  0  0  0
 14 13  2  0  0  0  0
 15  9  2  0  0  0  0
 15  8  1  0  0  0  0
 16 10  1  0  0  0  0
 17  7  2  0  0  0  0
 17 11  1  0  0  0  0
 18 16  2  0  0  0  0
 18 15  1  0  0  0  0
 19 20  2  0  0  0  0
 19 32  1  0  0  0  0
 21 22  1  0  0  0  0
 23 26  1  0  0  0  0
 24 21  2  0  0  0  0
 25 23  2  0  0  0  0
 25 24  1  0  0  0  0
 26 20  1  0  0  0  0
 26 22  2  0  0  0  0
 27 25  1  0  0  0  0
 28 29  1  6  0  0  0
 28 27  1  0  0  0  0
 30 28  1  0  0  0  0
 30 31  1  0  0  0  0
 33 32  1  0  0  0  0
 33 34  1  0  0  0  0
 34 35  1  0  0  0  0
M  END
>  <MODEL>
7

>  <REMARK>
 VINA RESULT:      -7.9      1.786      2.622
  Name = 
  9 active torsions:
  status: ('A' for Active; 'I' for Inactive)
    1  A    between atoms: C_5  and  C_8
    2  A    between atoms: C_8  and  N_19
    3  A    between atoms: C_10  and  C_23
    4  A    between atoms: N_14  and  C_23
    5  A    between atoms: N_14  and  C_28
    6  A    between atoms: C_15  and  N_19
    7  A    between atoms: C_15  and  C_30
    8  A    between atoms: C_17  and  C_35
    9  A    between atoms: C_25  and  C_31
                            x       y       z     vdW  Elec       q    Type
                         _______ _______ _______ _____ _____    ______ ____

>  <TORSDO>
F 9

$$$$
=
 OpenBabel10232409373D

 35 39  0  0  1  0  0  0  0  0999 V2000
  187.3330  178.0700  142.2530 C   0  0  0  0  0  0  0  0  0  0  0  0
  187.3170  179.1460  141.3740 O   0  0  0  0  0  1  0  0  0  0  0  0
  188.0090  176.2910  143.3400 O   0  0  0  0  0  0  0  0  0  0  0  0
  188.3830  177.2040  142.4720 C   0  0  0  0  0  0  0  0  0  0  0  0
  186.7700  176.5240  143.7260 C   0  0  0  0  0  3  0  0  0  0  0  0
  186.3020  177.6460  143.0610 C   0  0  0  0  0  0  0  0  0  0  0  0
  183.1270  179.1530  144.1770 N   0  0  0  0  0  0  0  0  0  0  0  0
  182.3520  177.8320  140.7010 C   0  0  0  0  0  0  0  0  0  0  0  0
  181.6460  179.3860  142.3270 N   0  0  0  0  0  0  0  0  0  0  0  0
  181.7590  177.1470  139.7620 O   0  0  0  0  0  0  0  0  0  0  0  0
  184.1170  178.7800  142.0990 C   0  0  2  0  0  3  0  0  0  0  0  0
  183.6290  177.7510  141.0960 C   0  0  0  0  0  3  0  0  0  0  0  0
  184.9640  178.2470  143.2030 C   0  0  0  0  0  0  0  0  0  0  0  0
  184.3970  178.5380  144.3690 C   0  0  0  0  0  3  0  0  0  0  0  0
  181.4300  178.6770  141.2570 C   0  0  0  0  0  0  0  0  0  0  0  0
  180.5020  177.5660  139.7230 C   0  0  0  0  0  3  0  0  0  0  0  0
  182.9590  179.3000  142.9060 C   0  0  0  0  0  0  0  0  0  0  0  0
  180.2420  178.5270  140.6520 N   0  0  0  0  0  0  0  0  0  0  0  0
  189.7040  177.2160  141.8190 C   0  0  0  0  0  0  0  0  0  0  0  0
  190.8610  177.0740  142.4910 C   0  0  0  0  0  3  0  0  0  0  0  0
  192.1600  175.4740  145.6750 C   0  0  0  0  0  3  0  0  0  0  0  0
  191.9820  175.7530  144.3180 C   0  0  0  0  0  3  0  0  0  0  0  0
  190.3170  177.4160  144.8750 C   0  0  0  0  0  3  0  0  0  0  0  0
  191.4130  176.1640  146.6320 C   0  0  0  0  0  3  0  0  0  0  0  0
  190.4870  177.1410  146.2360 C   0  0  0  0  0  0  0  0  0  0  0  0
  191.0430  176.7120  143.9080 C   0  0  0  0  0  0  0  0  0  0  0  0
  189.7200  177.8720  147.1970 N   0  0  0  0  0  2  0  0  0  0  0  0
  188.4380  177.4170  147.7170 C   0  0  1  0  0  3  0  0  0  0  0  0
  188.2090  178.0380  149.0830 C   0  0  0  0  0  1  0  0  0  0  0  0
  187.3220  177.8260  146.7690 C   0  0  0  0  0  2  0  0  0  0  0  0
  186.3720  178.7890  147.4540 C   0  0  0  0  0  1  0  0  0  0  0  0
  189.7290  177.4250  140.4010 N   0  0  0  0  0  2  0  0  0  0  0  0
  190.8140  176.9940  139.5260 C   0  0  0  0  0  2  0  0  0  0  0  0
  190.4730  177.2750  138.0720 C   0  0  0  0  0  2  0  0  0  0  0  0
  189.3410  178.2810  137.9800 C   0  0  0  0  0  1  0  0  0  0  0  0
  1  4  2  0  0  0  0
  1  6  1  0  0  0  0
  2  1  1  0  0  0  0
  3  5  1  0  0  0  0
  4  3  1  0  0  0  0
  6 13  1  0  0  0  0
  6  5  2  0  0  0  0
  7 14  1  0  0  0  0
  8 12  2  0  0  0  0
  8 15  1  0  0  0  0
  9 17  1  0  0  0  0
 10  8  1  0  0  0  0
 11 12  1  6  0  0  0
 11 17  1  0  0  0  0
 11 13  1  0  0  0  0
 13 14  2  0  0  0  0
 15  9  2  0  0  0  0
 16 10  1  0  0  0  0
 16 18  2  0  0  0  0
 17  7  2  0  0  0  0
 18 15  1  0  0  0  0
 19  4  1  0  0  0  0
 19 20  2  0  0  0  0
 20 26  1  0  0  0  0
 21 24  1  0  0  0  0
 22 21  2  0  0  0  0
 23 25  1  0  0  0  0
 25 24  2  0  0  0  0
 25 27  1  0  0  0  0
 26 22  1  0  0  0  0
 26 23  2  0  0  0  0
 27 28  1  0  0  0  0
 28 29  1  1  0  0  0
 30 31  1  0  0  0  0
 30 28  1  0  0  0  0
 32 19  1  0  0  0  0
 33 32  1  0  0  0  0
 34 33  1  0  0  0  0
 35 34  1  0  0  0  0
M  END
>  <MODEL>
8

>  <REMARK>
 VINA RESULT:      -7.8      2.655      7.083
  Name = 
  9 active torsions:
  status: ('A' for Active; 'I' for Inactive)
    1  A    between atoms: C_5  and  C_8
    2  A    between atoms: C_8  and  N_19
    3  A    between atoms: C_10  and  C_23
    4  A    between atoms: N_14  and  C_23
    5  A    between atoms: N_14  and  C_28
    6  A    between atoms: C_15  and  N_19
    7  A    between atoms: C_15  and  C_30
    8  A    between atoms: C_17  and  C_35
    9  A    between atoms: C_25  and  C_31
                            x       y       z     vdW  Elec       q    Type
                         _______ _______ _______ _____ _____    ______ ____

>  <TORSDO>
F 9

$$$$
=
 OpenBabel10232409373D

 35 39  0  0  1  0  0  0  0  0999 V2000
  188.4920  177.1650  141.7110 C   0  0  0  0  0  0  0  0  0  0  0  0
  189.0340  176.1050  142.4270 O   0  0  0  0  0  1  0  0  0  0  0  0
  188.1410  178.6230  140.1120 O   0  0  0  0  0  0  0  0  0  0  0  0
  188.8380  177.5560  140.4350 C   0  0  0  0  0  0  0  0  0  0  0  0
  187.3330  178.9440  141.1040 C   0  0  0  0  0  3  0  0  0  0  0  0
  187.5220  178.0430  142.1400 C   0  0  0  0  0  0  0  0  0  0  0  0
  185.1930  178.4030  144.9750 N   0  0  0  0  0  0  0  0  0  0  0  0
  188.5640  177.8030  146.6190 C   0  0  0  0  0  0  0  0  0  0  0  0
  186.2390  177.6640  146.9830 N   0  0  0  0  0  0  0  0  0  0  0  0
  189.6050  178.0130  147.3770 O   0  0  0  0  0  0  0  0  0  0  0  0
  187.2120  177.2830  144.6520 C   0  0  2  0  0  3  0  0  0  0  0  0
  188.5270  177.6990  145.2850 C   0  0  0  0  0  3  0  0  0  0  0  0
  186.8180  178.0450  143.4340 C   0  0  0  0  0  0  0  0  0  0  0  0
  185.6340  178.6120  143.6370 C   0  0  0  0  0  3  0  0  0  0  0  0
  187.4620  177.7120  147.4260 C   0  0  0  0  0  0  0  0  0  0  0  0
  189.1650  178.0370  148.6280 C   0  0  0  0  0  3  0  0  0  0  0  0
  186.0690  177.6530  145.5560 C   0  0  0  0  0  0  0  0  0  0  0  0
  187.8180  177.8570  148.7110 N   0  0  0  0  0  0  0  0  0  0  0  0
  189.8580  176.9520  139.5590 C   0  0  0  0  0  0  0  0  0  0  0  0
  189.6250  176.6160  138.2780 C   0  0  0  0  0  3  0  0  0  0  0  0
  187.2210  178.3260  135.8930 C   0  0  0  0  0  3  0  0  0  0  0  0
  188.3450  178.0930  136.6910 C   0  0  0  0  0  3  0  0  0  0  0  0
  187.4070  175.9790  137.3990 C   0  0  0  0  0  3  0  0  0  0  0  0
  186.1890  177.3870  135.8530 C   0  0  0  0  0  3  0  0  0  0  0  0
  186.2780  176.2070  136.6060 C   0  0  0  0  0  0  0  0  0  0  0  0
  188.4350  176.9260  137.4650 C   0  0  0  0  0  0  0  0  0  0  0  0
  185.2400  175.2230  136.5710 N   0  0  0  0  0  2  0  0  0  0  0  0
  183.8270  175.5370  136.7290 C   0  0  1  0  0  3  0  0  0  0  0  0
  183.0490  174.9110  135.5860 C   0  0  0  0  0  1  0  0  0  0  0  0
  183.3230  174.9930  138.0560 C   0  0  0  0  0  2  0  0  0  0  0  0
  182.8870  176.1280  138.9620 C   0  0  0  0  0  1  0  0  0  0  0  0
  191.1420  176.6920  140.1390 N   0  0  0  0  0  2  0  0  0  0  0  0
  191.9090  177.6650  140.9100 C   0  0  0  0  0  2  0  0  0  0  0  0
  191.9840  177.2500  142.3710 C   0  0  0  0  0  2  0  0  0  0  0  0
  191.6060  178.4120  143.2690 C   0  0  0  0  0  1  0  0  0  0  0  0
  1  6  1  0  0  0  0
  1  2  1  0  0  0  0
  3  4  1  0  0  0  0
  3  5  1  0  0  0  0
  4  1  2  0  0  0  0
  5  6  2  0  0  0  0
  6 13  1  0  0  0  0
  7 17  2  0  0  0  0
  8 10  1  0  0  0  0
  8 15  1  0  0  0  0
  9 15  2  0  0  0  0
 10 16  1  0  0  0  0
 11 12  1  1  0  0  0
 11 17  1  0  0  0  0
 12  8  2  0  0  0  0
 13 14  2  0  0  0  0
 13 11  1  0  0  0  0
 14  7  1  0  0  0  0
 15 18  1  0  0  0  0
 16 18  2  0  0  0  0
 17  9  1  0  0  0  0
 19 32  1  0  0  0  0
 19  4  1  0  0  0  0
 20 19  2  0  0  0  0
 21 22  1  0  0  0  0
 22 26  2  0  0  0  0
 23 26  1  0  0  0  0
 24 21  2  0  0  0  0
 24 25  1  0  0  0  0
 25 23  2  0  0  0  0
 26 20  1  0  0  0  0
 27 25  1  0  0  0  0
 27 28  1  0  0  0  0
 28 29  1  6  0  0  0
 28 30  1  0  0  0  0
 30 31  1  0  0  0  0
 32 33  1  0  0  0  0
 33 34  1  0  0  0  0
 34 35  1  0  0  0  0
M  END
>  <MODEL>
9

>  <REMARK>
 VINA RESULT:      -7.8      2.668      7.840
  Name = 
  9 active torsions:
  status: ('A' for Active; 'I' for Inactive)
    1  A    between atoms: C_5  and  C_8
    2  A    between atoms: C_8  and  N_19
    3  A    between atoms: C_10  and  C_23
    4  A    between atoms: N_14  and  C_23
    5  A    between atoms: N_14  and  C_28
    6  A    between atoms: C_15  and  N_19
    7  A    between atoms: C_15  and  C_30
    8  A    between atoms: C_17  and  C_35
    9  A    between atoms: C_25  and  C_31
                            x       y       z     vdW  Elec       q    Type
                         _______ _______ _______ _____ _____    ______ ____

>  <TORSDO>
F 9

$$$$
