=
 OpenBabel10232409283D

 53 56  0  0  1  0  0  0  0  0999 V2000
  184.8500  178.6900  140.8040 C   0  0  1  0  0  3  0  0  0  0  0  0
  181.1260  176.0350  139.4370 C   0  0  0  0  0  0  0  0  0  0  0  0
  180.2380  175.8460  140.6280 C   0  0  0  0  0  1  0  0  0  0  0  0
  181.0600  175.1650  138.4800 N   0  0  0  0  0  0  0  0  0  0  0  0
  182.3580  176.8710  136.6990 S   0  0  0  0  0  0  0  0  0  0  0  0
  181.8460  177.3460  139.2600 C   0  0  1  0  0  3  0  0  0  0  0  0
  182.4560  177.9550  140.4980 C   0  0  0  0  0  2  0  0  0  0  0  0
  183.7510  178.4970  138.4960 C   0  0  0  0  0  2  0  0  0  0  0  0
  183.5620  178.8780  139.9750 C   0  0  2  0  0  3  0  0  0  0  0  0
  183.0110  177.1990  138.3450 C   0  0  2  0  0  3  0  0  0  0  0  0
  181.8210  175.1910  137.2290 C   0  0  1  0  0  3  0  0  0  0  0  0
  183.0370  174.2720  137.3200 C   0  0  0  0  0  2  0  0  0  0  0  0
  183.2290  173.5580  136.0630 N   0  0  0  0  0  2  0  0  0  0  0  0
  184.9460  172.6260  137.5110 C   0  0  0  0  0  1  0  0  0  0  0  0
  184.5790  173.0150  136.0900 C   0  0  1  0  0  3  0  0  0  0  0  0
  184.6930  171.8330  135.1250 C   0  0  1  0  0  3  0  0  0  0  0  0
  186.3900  173.0300  134.3560 C   0  0  0  0  0  1  0  0  0  0  0  0
  186.0060  171.7220  134.6530 O   0  0  0  0  0  0  0  0  0  0  0  0
  184.2920  170.5900  135.7760 N   0  0  0  0  0  2  0  0  0  0  0  0
  183.1790  170.0390  135.0130 C   0  0  0  0  0  2  0  0  0  0  0  0
  183.2280  168.5220  135.0380 C   0  0  1  0  0  3  0  0  0  0  0  0
  183.7670  168.0970  136.2510 O   0  0  0  0  0  1  0  0  0  0  0  0
  181.8340  167.9420  134.8810 C   0  0  0  0  0  1  0  0  0  0  0  0
  186.0460  179.1720  140.0900 N   0  0  0  0  0  2  0  0  0  0  0  0
  187.1790  178.2580  140.2450 C   0  0  2  0  0  3  0  0  0  0  0  0
  188.1340  178.8060  141.1110 O   0  0  0  0  0  1  0  0  0  0  0  0
  187.8130  177.9970  138.8980 C   0  0  0  0  0  2  0  0  0  0  0  0
  188.4490  176.7570  138.9280 O   0  0  0  0  0  0  0  0  0  0  0  0
  188.6740  176.4170  137.5900 C   0  0  1  0  0  3  0  0  0  0  0  0
  190.6080  175.2600  138.3170 O   0  0  0  0  0  0  0  0  0  0  0  0
  189.6690  175.2980  137.5310 C   0  0  0  0  0  3  0  0  0  0  0  0
  187.3630  175.9760  136.9490 C   0  0  0  0  0  2  0  0  0  0  0  0
  187.2760  176.4860  135.5160 C   0  0  0  0  0  3  0  0  0  0  0  0
  185.8350  176.4320  135.0510 C   0  0  0  0  0  2  0  0  0  0  0  0
  186.4370  177.7480  135.5020 C   0  0  0  0  0  2  0  0  0  0  0  0
  184.7740  179.2860  142.2260 C   0  0  0  0  0  2  0  0  0  0  0  0
  184.6130  178.2500  143.3260 C   0  0  0  0  0  2  0  0  0  0  0  0
  183.6600  178.7870  144.3780 C   0  0  0  0  0  2  0  0  0  0  0  0
  184.1930  178.4950  145.7620 C   0  0  0  0  0  2  0  0  0  0  0  0
  185.6350  178.6520  145.7550 N   0  0  0  0  0  2  0  0  0  0  0  0
  186.1620  177.8160  146.8190 C   0  0  0  0  0  2  0  0  0  0  0  0
  187.5010  178.1340  147.0400 O   0  0  0  0  0  0  0  0  0  0  0  0
  188.2200  177.1210  146.4030 C   0  0  0  0  0  2  0  0  0  0  0  0
  189.7020  178.9270  145.5030 O   0  0  0  0  0  1  0  0  0  0  0  0
  189.8100  176.7190  144.4060 C   0  0  1  0  0  3  0  0  0  0  0  0
  187.5170  176.6490  143.7500 O   0  0  0  0  0  1  0  0  0  0  0  0
  189.0510  177.7140  145.2690 C   0  0  1  0  0  0  0  0  0  0  0  0
  188.6260  177.4940  143.8260 C   0  0  1  0  0  3  0  0  0  0  0  0
  191.0020  177.2760  143.9350 O   0  0  0  0  0  0  0  0  0  0  0  0
  191.5550  176.3000  143.1020 C   0  0  1  0  0  3  0  0  0  0  0  0
  190.5970  175.3310  142.8130 O   0  0  0  0  0  1  0  0  0  0  0  0
  190.9980  177.3120  141.0000 O   0  0  0  0  0  1  0  0  0  0  0  0
  192.0650  176.9330  141.8160 C   0  0  0  0  0  2  0  0  0  0  0  0
  1 36  1  1  0  0  0
  2  3  1  0  0  0  0
  4  2  2  0  0  0  0
  5 11  1  0  0  0  0
  5 10  1  0  0  0  0
  6  2  1  0  0  0  0
  6  7  1  1  0  0  0
  8  9  1  0  0  0  0
  9  7  1  0  0  0  0
  9  1  1  1  0  0  0
 10  8  1  6  0  0  0
 10  6  1  0  0  0  0
 11 12  1  1  0  0  0
 11  4  1  0  0  0  0
 13 15  1  0  0  0  0
 13 12  1  0  0  0  0
 15 14  1  1  0  0  0
 16 18  1  1  0  0  0
 16 19  1  0  0  0  0
 16 15  1  0  0  0  0
 17 18  1  0  0  0  0
 20 21  1  0  0  0  0
 20 19  1  0  0  0  0
 21 23  1  1  0  0  0
 21 22  1  0  0  0  0
 24 25  1  0  0  0  0
 24  1  1  0  0  0  0
 25 26  1  1  0  0  0
 27 28  1  0  0  0  0
 27 25  1  0  0  0  0
 29 32  1  1  0  0  0
 29 28  1  0  0  0  0
 31 29  1  0  0  0  0
 31 30  2  0  0  0  0
 33 32  1  0  0  0  0
 34 35  1  0  0  0  0
 34 33  1  0  0  0  0
 35 33  1  0  0  0  0
 36 37  1  0  0  0  0
 37 38  1  0  0  0  0
 38 39  1  0  0  0  0
 40 39  1  0  0  0  0
 40 41  1  0  0  0  0
 41 42  1  0  0  0  0
 43 42  1  0  0  0  0
 45 49  1  6  0  0  0
 45 47  1  0  0  0  0
 47 44  1  1  0  0  0
 47 43  1  0  0  0  0
 48 46  1  1  0  0  0
 48 45  1  0  0  0  0
 48 47  1  0  0  0  0
 50 51  1  6  0  0  0
 50 49  1  0  0  0  0
 52 53  1  0  0  0  0
 53 50  1  0  0  0  0
M  END
>  <MODEL>
1

>  <REMARK>
 VINA RESULT:      -5.1      0.000      0.000
  Name = 
  29 active torsions:
  status: ('A' for Active; 'I' for Inactive)
    1  A    between atoms: C_3  and  N_46
    2  A    between atoms: C_3  and  C_53
    3  A    between atoms: C_4  and  C_18
    4  A    between atoms: C_4  and  N_32
    5  A    between atoms: C_5  and  C_20
    6  A    between atoms: C_5  and  C_38
    7  A    between atoms: C_8  and  O_19
    8  A    between atoms: C_9  and  C_10
    9  A    between atoms: C_10  and  C_29
   10  A    between atoms: C_13  and  O_19
   11  A    between atoms: C_13  and  C_36
   12  A    between atoms: O_15  and  C_29
   13  A    between atoms: O_15  and  C_51
   14  A    between atoms: C_16  and  C_20
   15  A    between atoms: C_16  and  C_23
   16  A    between atoms: C_21  and  O_34
   17  A    between atoms: C_21  and  N_45
   18  A    between atoms: C_23  and  C_43
   19  A    between atoms: C_23  and  N_50
   20  A    between atoms: C_25  and  N_32
   21  A    between atoms: C_25  and  O_47
   22  A    between atoms: C_25  and  C_49
   23  A    between atoms: C_26  and  O_34
   24  A    between atoms: C_26  and  C_40
   25  A    between atoms: C_29  and  C_41
   26  A    between atoms: C_30  and  N_50
   27  A    between atoms: C_30  and  C_51
   28  A    between atoms: C_38  and  N_45
   29  A    between atoms: N_46  and  C_49
                            x       y       z     vdW  Elec       q    Type
                         _______ _______ _______ _____ _____    ______ ____

>  <TORSDO>
F 29

$$$$
=
 OpenBabel10232409283D

 53 56  0  0  1  0  0  0  0  0999 V2000
  188.5860  177.8930  139.9400 C   0  0  1  0  0  3  0  0  0  0  0  0
  187.8520  175.2200  136.0530 C   0  0  0  0  0  0  0  0  0  0  0  0
  186.7120  174.2940  136.3450 C   0  0  0  0  0  1  0  0  0  0  0  0
  188.6980  174.8800  135.1340 N   0  0  0  0  0  0  0  0  0  0  0  0
  189.6940  177.4760  134.9420 S   0  0  0  0  0  0  0  0  0  0  0  0
  187.8270  176.6150  136.6230 C   0  0  1  0  0  3  0  0  0  0  0  0
  187.3620  176.7550  138.0510 C   0  0  0  0  0  2  0  0  0  0  0  0
  189.0270  178.4510  137.4760 C   0  0  0  0  0  2  0  0  0  0  0  0
  187.9740  178.0730  138.5340 C   0  0  2  0  0  3  0  0  0  0  0  0
  189.1930  177.2060  136.6510 C   0  0  2  0  0  3  0  0  0  0  0  0
  189.8540  175.6590  134.6860 C   0  0  1  0  0  3  0  0  0  0  0  0
  191.1310  175.1600  135.3580 C   0  0  0  0  0  2  0  0  0  0  0  0
  192.2610  176.0060  134.9920 N   0  0  0  0  0  2  0  0  0  0  0  0
  192.5750  175.2330  137.2770 C   0  0  0  0  0  1  0  0  0  0  0  0
  193.0630  176.1800  136.1940 C   0  0  1  0  0  3  0  0  0  0  0  0
  194.5450  175.9700  135.8760 C   0  0  1  0  0  3  0  0  0  0  0  0
  196.3770  176.8230  134.9710 C   0  0  0  0  0  1  0  0  0  0  0  0
  195.1300  177.1800  135.4870 O   0  0  0  0  0  0  0  0  0  0  0  0
  195.2520  175.4240  137.0310 N   0  0  0  0  0  2  0  0  0  0  0  0
  195.3950  173.9900  136.8150 C   0  0  0  0  0  2  0  0  0  0  0  0
  195.9050  173.3200  138.0780 C   0  0  1  0  0  3  0  0  0  0  0  0
  197.2370  172.9520  137.9010 O   0  0  0  0  0  1  0  0  0  0  0  0
  195.8020  174.2670  139.2610 C   0  0  0  0  0  1  0  0  0  0  0  0
  190.0450  178.1040  139.9420 N   0  0  0  0  0  2  0  0  0  0  0  0
  190.7660  176.9150  140.4020 C   0  0  2  0  0  3  0  0  0  0  0  0
  190.3800  175.7920  139.6610 O   0  0  0  0  0  1  0  0  0  0  0  0
  190.4740  176.6770  141.8660 C   0  0  0  0  0  2  0  0  0  0  0  0
  191.1640  177.6200  142.6270 O   0  0  0  0  0  0  0  0  0  0  0  0
  190.4210  177.7720  143.8020 C   0  0  1  0  0  3  0  0  0  0  0  0
  188.2700  176.9580  144.3700 O   0  0  0  0  0  0  0  0  0  0  0  0
  189.3510  176.7230  143.8430 C   0  0  0  0  0  3  0  0  0  0  0  0
  191.3400  177.6180  145.0090 C   0  0  0  0  0  2  0  0  0  0  0  0
  190.9300  176.4050  145.8340 C   0  0  0  0  0  3  0  0  0  0  0  0
  192.0450  176.0570  146.8010 C   0  0  0  0  0  2  0  0  0  0  0  0
  190.8290  176.8210  147.2880 C   0  0  0  0  0  2  0  0  0  0  0  0
  187.9010  178.7390  141.0350 C   0  0  0  0  0  2  0  0  0  0  0  0
  186.3830  178.6840  141.0030 C   0  0  0  0  0  2  0  0  0  0  0  0
  185.8730  178.2630  142.3690 C   0  0  0  0  0  2  0  0  0  0  0  0
  184.7320  179.1570  142.7970 C   0  0  0  0  0  2  0  0  0  0  0  0
  183.5280  178.3590  142.9260 N   0  0  0  0  0  2  0  0  0  0  0  0
  182.5740  178.8610  141.9520 C   0  0  0  0  0  2  0  0  0  0  0  0
  182.7180  178.1610  140.7560 O   0  0  0  0  0  0  0  0  0  0  0  0
  182.8430  179.1480  139.7760 C   0  0  0  0  0  2  0  0  0  0  0  0
  184.0000  178.0540  137.8450 O   0  0  0  0  0  1  0  0  0  0  0  0
  181.5770  177.6560  138.0890 C   0  0  1  0  0  3  0  0  0  0  0  0
  180.9260  179.9460  137.9210 O   0  0  0  0  0  1  0  0  0  0  0  0
  182.7990  178.5090  138.3920 C   0  0  1  0  0  0  0  0  0  0  0  0
  181.7820  178.9910  137.3690 C   0  0  1  0  0  3  0  0  0  0  0  0
  181.9030  176.6090  137.2220 O   0  0  0  0  0  0  0  0  0  0  0  0
  180.9480  175.6210  137.4710 C   0  0  1  0  0  3  0  0  0  0  0  0
  180.0690  175.5320  136.3940 O   0  0  0  0  0  1  0  0  0  0  0  0
  181.6990  173.5520  136.5160 O   0  0  0  0  0  1  0  0  0  0  0  0
  181.6270  174.2800  137.7060 C   0  0  0  0  0  2  0  0  0  0  0  0
  1 24  1  0  0  0  0
  1 36  1  1  0  0  0
  2  3  1  0  0  0  0
  2  6  1  0  0  0  0
  4  2  2  0  0  0  0
  5 10  1  0  0  0  0
  6 10  1  0  0  0  0
  6  7  1  1  0  0  0
  7  9  1  0  0  0  0
  8  9  1  0  0  0  0
  9  1  1  1  0  0  0
 10  8  1  1  0  0  0
 11  5  1  0  0  0  0
 11  4  1  0  0  0  0
 11 12  1  1  0  0  0
 13 12  1  0  0  0  0
 13 15  1  0  0  0  0
 15 14  1  1  0  0  0
 16 18  1  1  0  0  0
 16 15  1  0  0  0  0
 16 19  1  0  0  0  0
 17 18  1  0  0  0  0
 20 19  1  0  0  0  0
 20 21  1  0  0  0  0
 21 23  1  1  0  0  0
 22 21  1  0  0  0  0
 24 25  1  0  0  0  0
 25 26  1  6  0  0  0
 25 27  1  0  0  0  0
 27 28  1  0  0  0  0
 28 29  1  0  0  0  0
 29 31  1  1  0  0  0
 29 32  1  0  0  0  0
 31 30  2  0  0  0  0
 32 33  1  0  0  0  0
 33 34  1  0  0  0  0
 33 35  1  0  0  0  0
 34 35  1  0  0  0  0
 37 36  1  0  0  0  0
 37 38  1  0  0  0  0
 38 39  1  0  0  0  0
 39 40  1  0  0  0  0
 41 40  1  0  0  0  0
 42 41  1  0  0  0  0
 43 42  1  0  0  0  0
 45 49  1  6  0  0  0
 45 47  1  0  0  0  0
 47 44  1  6  0  0  0
 47 43  1  0  0  0  0
 48 46  1  1  0  0  0
 48 45  1  0  0  0  0
 48 47  1  0  0  0  0
 49 50  1  0  0  0  0
 50 51  1  6  0  0  0
 50 53  1  0  0  0  0
 52 53  1  0  0  0  0
M  END
>  <MODEL>
2

>  <REMARK>
 VINA RESULT:      -5.0      4.166      8.953
  Name = 
  29 active torsions:
  status: ('A' for Active; 'I' for Inactive)
    1  A    between atoms: C_3  and  N_46
    2  A    between atoms: C_3  and  C_53
    3  A    between atoms: C_4  and  C_18
    4  A    between atoms: C_4  and  N_32
    5  A    between atoms: C_5  and  C_20
    6  A    between atoms: C_5  and  C_38
    7  A    between atoms: C_8  and  O_19
    8  A    between atoms: C_9  and  C_10
    9  A    between atoms: C_10  and  C_29
   10  A    between atoms: C_13  and  O_19
   11  A    between atoms: C_13  and  C_36
   12  A    between atoms: O_15  and  C_29
   13  A    between atoms: O_15  and  C_51
   14  A    between atoms: C_16  and  C_20
   15  A    between atoms: C_16  and  C_23
   16  A    between atoms: C_21  and  O_34
   17  A    between atoms: C_21  and  N_45
   18  A    between atoms: C_23  and  C_43
   19  A    between atoms: C_23  and  N_50
   20  A    between atoms: C_25  and  N_32
   21  A    between atoms: C_25  and  O_47
   22  A    between atoms: C_25  and  C_49
   23  A    between atoms: C_26  and  O_34
   24  A    between atoms: C_26  and  C_40
   25  A    between atoms: C_29  and  C_41
   26  A    between atoms: C_30  and  N_50
   27  A    between atoms: C_30  and  C_51
   28  A    between atoms: C_38  and  N_45
   29  A    between atoms: N_46  and  C_49
                            x       y       z     vdW  Elec       q    Type
                         _______ _______ _______ _____ _____    ______ ____

>  <TORSDO>
F 29

$$$$
=
 OpenBabel10232409283D

 53 56  0  0  1  0  0  0  0  0999 V2000
  187.4450  178.3850  138.6460 C   0  0  1  0  0  3  0  0  0  0  0  0
  188.8940  174.4820  136.3120 C   0  0  0  0  0  0  0  0  0  0  0  0
  188.2570  173.2950  136.9670 C   0  0  0  0  0  1  0  0  0  0  0  0
  189.9880  174.2980  135.6420 N   0  0  0  0  0  0  0  0  0  0  0  0
  189.7300  176.7520  134.3460 S   0  0  0  0  0  0  0  0  0  0  0  0
  188.1190  175.7690  136.2140 C   0  0  1  0  0  3  0  0  0  0  0  0
  187.3280  176.1770  137.4320 C   0  0  0  0  0  2  0  0  0  0  0  0
  188.1390  178.1220  136.1920 C   0  0  0  0  0  2  0  0  0  0  0  0
  187.1570  177.6930  137.2970 C   0  0  2  0  0  3  0  0  0  0  0  0
  189.0280  176.9270  135.9960 C   0  0  2  0  0  3  0  0  0  0  0  0
  190.7410  175.3200  134.9120 C   0  0  1  0  0  3  0  0  0  0  0  0
  191.9150  175.8220  135.7480 C   0  0  0  0  0  2  0  0  0  0  0  0
  192.7240  174.7010  136.2130 N   0  0  0  0  0  2  0  0  0  0  0  0
  194.2530  176.2670  135.1520 C   0  0  0  0  0  1  0  0  0  0  0  0
  194.0230  174.8250  135.5690 C   0  0  1  0  0  3  0  0  0  0  0  0
  195.1250  174.3170  136.5010 C   0  0  1  0  0  3  0  0  0  0  0  0
  197.1950  175.0980  136.5940 C   0  0  0  0  0  1  0  0  0  0  0  0
  195.8850  175.3900  136.9780 O   0  0  0  0  0  0  0  0  0  0  0  0
  194.5570  173.5740  137.6210 N   0  0  0  0  0  2  0  0  0  0  0  0
  194.9250  172.1740  137.4470 C   0  0  0  0  0  2  0  0  0  0  0  0
  195.7380  172.0020  136.1760 C   0  0  1  0  0  3  0  0  0  0  0  0
  197.0120  171.5420  136.5020 O   0  0  0  0  0  1  0  0  0  0  0  0
  195.0690  171.0030  135.2490 C   0  0  0  0  0  1  0  0  0  0  0  0
  186.2370  178.4970  139.4840 N   0  0  0  0  0  2  0  0  0  0  0  0
  185.0390  178.7470  138.6800 C   0  0  2  0  0  3  0  0  0  0  0  0
  184.5590  180.0420  138.9080 O   0  0  0  0  0  1  0  0  0  0  0  0
  183.9660  177.7430  139.0360 C   0  0  0  0  0  2  0  0  0  0  0  0
  183.7330  176.9180  137.9370 O   0  0  0  0  0  0  0  0  0  0  0  0
  183.0650  175.7970  138.4420 C   0  0  1  0  0  3  0  0  0  0  0  0
  181.1730  175.4700  139.8290 O   0  0  0  0  0  0  0  0  0  0  0  0
  181.8050  176.2450  139.1190 C   0  0  0  0  0  3  0  0  0  0  0  0
  182.7280  174.8470  137.2980 C   0  0  0  0  0  2  0  0  0  0  0  0
  183.7520  173.7220  137.2260 C   0  0  0  0  0  3  0  0  0  0  0  0
  183.7050  173.0890  135.8490 C   0  0  0  0  0  2  0  0  0  0  0  0
  184.7960  174.0850  136.1900 C   0  0  0  0  0  2  0  0  0  0  0  0
  188.6130  177.7570  139.4360 C   0  0  0  0  0  2  0  0  0  0  0  0
  188.3820  177.6910  140.9370 C   0  0  0  0  0  2  0  0  0  0  0  0
  189.6820  178.0110  141.6530 C   0  0  0  0  0  2  0  0  0  0  0  0
  190.6320  176.8390  141.5530 C   0  0  0  0  0  2  0  0  0  0  0  0
  191.7900  177.0980  142.3880 N   0  0  0  0  0  2  0  0  0  0  0  0
  191.7080  176.1970  143.5250 C   0  0  0  0  0  2  0  0  0  0  0  0
  191.7460  176.9350  144.7060 O   0  0  0  0  0  0  0  0  0  0  0  0
  190.6320  176.5090  145.4310 C   0  0  0  0  0  2  0  0  0  0  0  0
  189.9050  178.8470  144.9140 O   0  0  0  0  0  1  0  0  0  0  0  0
  188.2160  177.3180  145.8620 C   0  0  1  0  0  3  0  0  0  0  0  0
  189.3870  176.8760  147.8950 O   0  0  0  0  0  1  0  0  0  0  0  0
  189.6770  177.6790  145.6440 C   0  0  1  0  0  0  0  0  0  0  0  0
  189.0450  177.9010  147.0090 C   0  0  1  0  0  3  0  0  0  0  0  0
  187.3760  178.3100  145.3500 O   0  0  0  0  0  0  0  0  0  0  0  0
  186.9440  177.8170  144.1160 C   0  0  1  0  0  3  0  0  0  0  0  0
  187.1310  176.4370  144.0680 O   0  0  0  0  0  1  0  0  0  0  0  0
  185.3200  178.9450  142.7580 O   0  0  0  0  0  1  0  0  0  0  0  0
  185.4760  178.1550  143.8980 C   0  0  0  0  0  2  0  0  0  0  0  0
  1 36  1  1  0  0  0
  1 24  1  0  0  0  0
  2  3  1  0  0  0  0
  4  2  2  0  0  0  0
  5 11  1  0  0  0  0
  5 10  1  0  0  0  0
  6  2  1  0  0  0  0
  6  7  1  1  0  0  0
  8  9  1  0  0  0  0
  9  7  1  0  0  0  0
  9  1  1  1  0  0  0
 10  8  1  6  0  0  0
 10  6  1  0  0  0  0
 11  4  1  0  0  0  0
 11 12  1  1  0  0  0
 12 13  1  0  0  0  0
 15 14  1  1  0  0  0
 15 13  1  0  0  0  0
 15 16  1  0  0  0  0
 16 18  1  1  0  0  0
 16 19  1  0  0  0  0
 17 18  1  0  0  0  0
 20 19  1  0  0  0  0
 21 23  1  6  0  0  0
 21 22  1  0  0  0  0
 21 20  1  0  0  0  0
 25 26  1  1  0  0  0
 25 27  1  0  0  0  0
 25 24  1  0  0  0  0
 28 29  1  0  0  0  0
 28 27  1  0  0  0  0
 29 32  1  6  0  0  0
 29 31  1  0  0  0  0
 31 30  2  0  0  0  0
 33 32  1  0  0  0  0
 34 35  1  0  0  0  0
 34 33  1  0  0  0  0
 35 33  1  0  0  0  0
 36 37  1  0  0  0  0
 37 38  1  0  0  0  0
 39 38  1  0  0  0  0
 39 40  1  0  0  0  0
 40 41  1  0  0  0  0
 41 42  1  0  0  0  0
 42 43  1  0  0  0  0
 43 47  1  0  0  0  0
 45 49  1  6  0  0  0
 45 48  1  0  0  0  0
 47 44  1  6  0  0  0
 47 45  1  0  0  0  0
 47 48  1  0  0  0  0
 48 46  1  1  0  0  0
 50 51  1  1  0  0  0
 50 49  1  0  0  0  0
 52 53  1  0  0  0  0
 53 50  1  0  0  0  0
M  END
>  <MODEL>
3

>  <REMARK>
 VINA RESULT:      -4.9      4.099      7.410
  Name = 
  29 active torsions:
  status: ('A' for Active; 'I' for Inactive)
    1  A    between atoms: C_3  and  N_46
    2  A    between atoms: C_3  and  C_53
    3  A    between atoms: C_4  and  C_18
    4  A    between atoms: C_4  and  N_32
    5  A    between atoms: C_5  and  C_20
    6  A    between atoms: C_5  and  C_38
    7  A    between atoms: C_8  and  O_19
    8  A    between atoms: C_9  and  C_10
    9  A    between atoms: C_10  and  C_29
   10  A    between atoms: C_13  and  O_19
   11  A    between atoms: C_13  and  C_36
   12  A    between atoms: O_15  and  C_29
   13  A    between atoms: O_15  and  C_51
   14  A    between atoms: C_16  and  C_20
   15  A    between atoms: C_16  and  C_23
   16  A    between atoms: C_21  and  O_34
   17  A    between atoms: C_21  and  N_45
   18  A    between atoms: C_23  and  C_43
   19  A    between atoms: C_23  and  N_50
   20  A    between atoms: C_25  and  N_32
   21  A    between atoms: C_25  and  O_47
   22  A    between atoms: C_25  and  C_49
   23  A    between atoms: C_26  and  O_34
   24  A    between atoms: C_26  and  C_40
   25  A    between atoms: C_29  and  C_41
   26  A    between atoms: C_30  and  N_50
   27  A    between atoms: C_30  and  C_51
   28  A    between atoms: C_38  and  N_45
   29  A    between atoms: N_46  and  C_49
                            x       y       z     vdW  Elec       q    Type
                         _______ _______ _______ _____ _____    ______ ____

>  <TORSDO>
F 29

$$$$
=
 OpenBabel10232409283D

 53 56  0  0  1  0  0  0  0  0999 V2000
  186.6510  178.4690  138.2740 C   0  0  1  0  0  3  0  0  0  0  0  0
  188.3060  174.4120  136.3800 C   0  0  0  0  0  0  0  0  0  0  0  0
  187.6020  173.2740  137.0530 C   0  0  0  0  0  1  0  0  0  0  0  0
  189.4600  174.1840  135.8370 N   0  0  0  0  0  0  0  0  0  0  0  0
  189.3410  176.5370  134.3490 S   0  0  0  0  0  0  0  0  0  0  0  0
  187.5500  175.6870  136.1140 C   0  0  1  0  0  3  0  0  0  0  0  0
  186.6440  176.1790  137.2160 C   0  0  0  0  0  2  0  0  0  0  0  0
  187.5820  178.0330  135.9250 C   0  0  0  0  0  2  0  0  0  0  0  0
  186.4940  177.6810  136.9560 C   0  0  2  0  0  3  0  0  0  0  0  0
  188.4810  176.8290  135.9040 C   0  0  2  0  0  3  0  0  0  0  0  0
  190.2850  175.1530  135.1130 C   0  0  1  0  0  3  0  0  0  0  0  0
  191.3730  175.7180  136.0220 C   0  0  0  0  0  2  0  0  0  0  0  0
  192.4150  174.7210  136.2470 N   0  0  0  0  0  2  0  0  0  0  0  0
  193.5250  176.5480  137.4060 C   0  0  0  0  0  1  0  0  0  0  0  0
  193.6710  175.4460  136.3720 C   0  0  1  0  0  3  0  0  0  0  0  0
  194.8060  174.4810  136.7210 C   0  0  1  0  0  3  0  0  0  0  0  0
  196.3360  175.2020  135.2920 C   0  0  0  0  0  1  0  0  0  0  0  0
  195.5010  174.1170  135.5620 O   0  0  0  0  0  0  0  0  0  0  0  0
  195.7230  175.0830  137.6820 N   0  0  0  0  0  2  0  0  0  0  0  0
  196.4600  173.9990  138.3190 C   0  0  0  0  0  2  0  0  0  0  0  0
  197.5940  174.5590  139.1580 C   0  0  1  0  0  3  0  0  0  0  0  0
  198.3210  175.4740  138.4000 O   0  0  0  0  0  1  0  0  0  0  0  0
  197.0480  175.2560  140.3920 C   0  0  0  0  0  1  0  0  0  0  0  0
  185.3960  178.5170  139.0460 N   0  0  0  0  0  2  0  0  0  0  0  0
  184.3810  179.3390  138.3850 C   0  0  2  0  0  3  0  0  0  0  0  0
  184.1880  180.5360  139.0870 O   0  0  0  0  0  1  0  0  0  0  0  0
  183.0750  178.5800  138.3150 C   0  0  0  0  0  2  0  0  0  0  0  0
  182.0220  179.4920  138.2550 O   0  0  0  0  0  0  0  0  0  0  0  0
  180.8580  178.7330  138.4100 C   0  0  1  0  0  3  0  0  0  0  0  0
  180.4220  179.4970  136.2100 O   0  0  0  0  0  0  0  0  0  0  0  0
  179.9920  178.9160  137.2000 C   0  0  0  0  0  3  0  0  0  0  0  0
  181.2260  177.2620  138.5630 C   0  0  0  0  0  2  0  0  0  0  0  0
  180.3470  176.4000  137.6650 C   0  0  0  0  0  3  0  0  0  0  0  0
  181.2120  175.7070  136.6320 C   0  0  0  0  0  2  0  0  0  0  0  0
  180.7370  174.9490  137.8560 C   0  0  0  0  0  2  0  0  0  0  0  0
  187.8260  177.9930  139.1540 C   0  0  0  0  0  2  0  0  0  0  0  0
  187.6910  178.3570  140.6230 C   0  0  0  0  0  2  0  0  0  0  0  0
  189.0270  178.1510  141.3110 C   0  0  0  0  0  2  0  0  0  0  0  0
  189.9530  177.3540  140.4200 C   0  0  0  0  0  2  0  0  0  0  0  0
  191.2170  177.1590  141.1050 N   0  0  0  0  0  2  0  0  0  0  0  0
  190.9280  176.4580  142.3440 C   0  0  0  0  0  2  0  0  0  0  0  0
  191.7100  176.9840  143.3700 O   0  0  0  0  0  0  0  0  0  0  0  0
  191.1300  176.5040  144.5450 C   0  0  0  0  0  2  0  0  0  0  0  0
  190.3320  178.8750  144.6310 O   0  0  0  0  0  1  0  0  0  0  0  0
  188.8810  177.1520  145.6410 C   0  0  1  0  0  3  0  0  0  0  0  0
  190.4730  176.3920  147.2490 O   0  0  0  0  0  1  0  0  0  0  0  0
  190.2600  177.5900  145.1710 C   0  0  1  0  0  0  0  0  0  0  0  0
  189.9530  177.5470  146.6600 C   0  0  1  0  0  3  0  0  0  0  0  0
  187.9590  178.1950  145.5150 O   0  0  0  0  0  0  0  0  0  0  0  0
  186.7570  177.6760  146.0010 C   0  0  1  0  0  3  0  0  0  0  0  0
  186.5290  178.1440  147.2940 O   0  0  0  0  0  1  0  0  0  0  0  0
  186.0620  178.2880  143.7880 O   0  0  0  0  0  1  0  0  0  0  0  0
  185.6050  178.0730  145.0900 C   0  0  0  0  0  2  0  0  0  0  0  0
  1 24  1  0  0  0  0
  1 36  1  1  0  0  0
  2  3  1  0  0  0  0
  4  2  2  0  0  0  0
  5 11  1  0  0  0  0
  5 10  1  0  0  0  0
  6  2  1  0  0  0  0
  6  7  1  1  0  0  0
  8  9  1  0  0  0  0
  9  7  1  0  0  0  0
  9  1  1  1  0  0  0
 10  8  1  6  0  0  0
 10  6  1  0  0  0  0
 11  4  1  0  0  0  0
 11 12  1  1  0  0  0
 12 13  1  0  0  0  0
 13 15  1  0  0  0  0
 15 16  1  0  0  0  0
 15 14  1  1  0  0  0
 16 18  1  6  0  0  0
 16 19  1  0  0  0  0
 17 18  1  0  0  0  0
 19 20  1  0  0  0  0
 20 21  1  0  0  0  0
 21 23  1  1  0  0  0
 22 21  1  0  0  0  0
 25 24  1  0  0  0  0
 25 26  1  1  0  0  0
 27 25  1  0  0  0  0
 28 27  1  0  0  0  0
 28 29  1  0  0  0  0
 29 31  1  6  0  0  0
 29 32  1  0  0  0  0
 30 31  2  0  0  0  0
 33 35  1  0  0  0  0
 33 32  1  0  0  0  0
 34 33  1  0  0  0  0
 34 35  1  0  0  0  0
 36 37  1  0  0  0  0
 37 38  1  0  0  0  0
 39 40  1  0  0  0  0
 39 38  1  0  0  0  0
 40 41  1  0  0  0  0
 41 42  1  0  0  0  0
 42 43  1  0  0  0  0
 43 47  1  0  0  0  0
 45 49  1  6  0  0  0
 45 48  1  0  0  0  0
 47 44  1  6  0  0  0
 47 45  1  0  0  0  0
 47 48  1  0  0  0  0
 48 46  1  1  0  0  0
 49 50  1  0  0  0  0
 50 51  1  1  0  0  0
 52 53  1  0  0  0  0
 53 50  1  0  0  0  0
M  END
>  <MODEL>
4

>  <REMARK>
 VINA RESULT:      -4.9      4.076      8.049
  Name = 
  29 active torsions:
  status: ('A' for Active; 'I' for Inactive)
    1  A    between atoms: C_3  and  N_46
    2  A    between atoms: C_3  and  C_53
    3  A    between atoms: C_4  and  C_18
    4  A    between atoms: C_4  and  N_32
    5  A    between atoms: C_5  and  C_20
    6  A    between atoms: C_5  and  C_38
    7  A    between atoms: C_8  and  O_19
    8  A    between atoms: C_9  and  C_10
    9  A    between atoms: C_10  and  C_29
   10  A    between atoms: C_13  and  O_19
   11  A    between atoms: C_13  and  C_36
   12  A    between atoms: O_15  and  C_29
   13  A    between atoms: O_15  and  C_51
   14  A    between atoms: C_16  and  C_20
   15  A    between atoms: C_16  and  C_23
   16  A    between atoms: C_21  and  O_34
   17  A    between atoms: C_21  and  N_45
   18  A    between atoms: C_23  and  C_43
   19  A    between atoms: C_23  and  N_50
   20  A    between atoms: C_25  and  N_32
   21  A    between atoms: C_25  and  O_47
   22  A    between atoms: C_25  and  C_49
   23  A    between atoms: C_26  and  O_34
   24  A    between atoms: C_26  and  C_40
   25  A    between atoms: C_29  and  C_41
   26  A    between atoms: C_30  and  N_50
   27  A    between atoms: C_30  and  C_51
   28  A    between atoms: C_38  and  N_45
   29  A    between atoms: N_46  and  C_49
                            x       y       z     vdW  Elec       q    Type
                         _______ _______ _______ _____ _____    ______ ____

>  <TORSDO>
F 29

$$$$
=
 OpenBabel10232409283D

 53 56  0  0  1  0  0  0  0  0999 V2000
  187.0130  178.1210  138.8750 C   0  0  1  0  0  3  0  0  0  0  0  0
  187.3580  174.8020  135.4630 C   0  0  0  0  0  0  0  0  0  0  0  0
  186.2650  173.8020  135.6850 C   0  0  0  0  0  1  0  0  0  0  0  0
  188.4080  174.4250  134.8030 N   0  0  0  0  0  0  0  0  0  0  0  0
  189.1960  177.0590  134.3490 S   0  0  0  0  0  0  0  0  0  0  0  0
  187.0940  176.2550  135.7570 C   0  0  1  0  0  3  0  0  0  0  0  0
  186.3230  176.5600  137.0170 C   0  0  0  0  0  2  0  0  0  0  0  0
  187.9210  178.3330  136.4870 C   0  0  0  0  0  2  0  0  0  0  0  0
  186.7030  178.0020  137.3680 C   0  0  2  0  0  3  0  0  0  0  0  0
  188.3660  177.0030  135.9470 C   0  0  2  0  0  3  0  0  0  0  0  0
  189.5620  175.2570  134.4590 C   0  0  1  0  0  3  0  0  0  0  0  0
  190.7030  175.0280  135.4470 C   0  0  0  0  0  2  0  0  0  0  0  0
  191.8220  175.9140  135.1450 N   0  0  0  0  0  2  0  0  0  0  0  0
  191.9860  176.3440  137.5330 C   0  0  0  0  0  1  0  0  0  0  0  0
  192.7180  175.8660  136.2910 C   0  0  1  0  0  3  0  0  0  0  0  0
  193.2780  174.4530  136.4650 C   0  0  1  0  0  3  0  0  0  0  0  0
  193.9950  173.0180  134.9390 C   0  0  0  0  0  1  0  0  0  0  0  0
  194.3150  174.2310  135.5530 O   0  0  0  0  0  0  0  0  0  0  0  0
  193.7620  174.2490  137.8270 N   0  0  0  0  0  2  0  0  0  0  0  0
  195.1420  174.7170  137.8730 C   0  0  0  0  0  2  0  0  0  0  0  0
  196.0210  173.6840  138.5530 C   0  0  1  0  0  3  0  0  0  0  0  0
  195.2550  172.5670  138.8790 O   0  0  0  0  0  1  0  0  0  0  0  0
  197.1530  173.2610  137.6330 C   0  0  0  0  0  1  0  0  0  0  0  0
  188.2850  178.8220  139.1280 N   0  0  0  0  0  2  0  0  0  0  0  0
  189.1590  178.0590  140.0210 C   0  0  2  0  0  3  0  0  0  0  0  0
  188.9430  176.6840  139.8600 O   0  0  0  0  0  1  0  0  0  0  0  0
  188.8850  178.4460  141.4560 C   0  0  0  0  0  2  0  0  0  0  0  0
  188.5440  177.3030  142.1780 O   0  0  0  0  0  0  0  0  0  0  0  0
  188.3740  177.7290  143.5000 C   0  0  1  0  0  3  0  0  0  0  0  0
  186.0860  177.3690  143.0060 O   0  0  0  0  0  0  0  0  0  0  0  0
  186.9080  177.8050  143.8030 C   0  0  0  0  0  3  0  0  0  0  0  0
  189.0460  176.7380  144.4440 C   0  0  0  0  0  2  0  0  0  0  0  0
  190.1310  177.4340  145.2560 C   0  0  0  0  0  3  0  0  0  0  0  0
  191.4070  176.6190  145.1890 C   0  0  0  0  0  2  0  0  0  0  0  0
  191.2460  177.8480  144.3170 C   0  0  0  0  0  2  0  0  0  0  0  0
  185.8660  178.7370  139.7050 C   0  0  0  0  0  2  0  0  0  0  0  0
  184.5800  178.9500  138.9240 C   0  0  0  0  0  2  0  0  0  0  0  0
  183.4560  179.2620  139.8950 C   0  0  0  0  0  2  0  0  0  0  0  0
  182.1570  178.6750  139.3930 C   0  0  0  0  0  2  0  0  0  0  0  0
  181.8000  177.5390  140.2220 N   0  0  0  0  0  2  0  0  0  0  0  0
  180.6880  176.8670  139.5720 C   0  0  0  0  0  2  0  0  0  0  0  0
  180.9250  175.4950  139.5470 O   0  0  0  0  0  0  0  0  0  0  0  0
  180.7380  175.1230  138.2140 C   0  0  0  0  0  2  0  0  0  0  0  0
  183.2320  174.9450  138.3250 O   0  0  0  0  0  1  0  0  0  0  0  0
  182.0410  173.3210  136.8980 C   0  0  1  0  0  3  0  0  0  0  0  0
  181.0440  174.9370  135.4520 O   0  0  0  0  0  1  0  0  0  0  0  0
  182.0630  174.6620  137.6160 C   0  0  1  0  0  0  0  0  0  0  0  0
  182.2350  174.6160  136.1060 C   0  0  1  0  0  3  0  0  0  0  0  0
  183.2700  172.6680  137.0250 O   0  0  0  0  0  0  0  0  0  0  0  0
  182.9810  171.3130  136.8500 C   0  0  1  0  0  3  0  0  0  0  0  0
  181.6440  171.1590  136.4880 O   0  0  0  0  0  1  0  0  0  0  0  0
  183.7660  171.4270  134.5860 O   0  0  0  0  0  1  0  0  0  0  0  0
  183.8840  170.7150  135.7810 C   0  0  0  0  0  2  0  0  0  0  0  0
  1 24  1  0  0  0  0
  1 36  1  1  0  0  0
  2  3  1  0  0  0  0
  2  6  1  0  0  0  0
  4  2  2  0  0  0  0
  5 11  1  0  0  0  0
  5 10  1  0  0  0  0
  6 10  1  0  0  0  0
  6  7  1  1  0  0  0
  7  9  1  0  0  0  0
  8  9  1  0  0  0  0
  9  1  1  1  0  0  0
 10  8  1  6  0  0  0
 11  4  1  0  0  0  0
 11 12  1  1  0  0  0
 13 12  1  0  0  0  0
 13 15  1  0  0  0  0
 15 16  1  0  0  0  0
 15 14  1  1  0  0  0
 16 18  1  6  0  0  0
 16 19  1  0  0  0  0
 17 18  1  0  0  0  0
 19 20  1  0  0  0  0
 20 21  1  0  0  0  0
 21 23  1  6  0  0  0
 21 22  1  0  0  0  0
 24 25  1  0  0  0  0
 25 26  1  1  0  0  0
 25 27  1  0  0  0  0
 27 28  1  0  0  0  0
 28 29  1  0  0  0  0
 29 31  1  1  0  0  0
 29 32  1  0  0  0  0
 30 31  2  0  0  0  0
 32 33  1  0  0  0  0
 34 33  1  0  0  0  0
 35 34  1  0  0  0  0
 35 33  1  0  0  0  0
 37 36  1  0  0  0  0
 37 38  1  0  0  0  0
 39 38  1  0  0  0  0
 39 40  1  0  0  0  0
 41 40  1  0  0  0  0
 42 41  1  0  0  0  0
 43 42  1  0  0  0  0
 45 49  1  1  0  0  0
 45 47  1  0  0  0  0
 47 43  1  0  0  0  0
 47 44  1  1  0  0  0
 48 46  1  6  0  0  0
 48 45  1  0  0  0  0
 48 47  1  0  0  0  0
 50 51  1  6  0  0  0
 50 49  1  0  0  0  0
 52 53  1  0  0  0  0
 53 50  1  0  0  0  0
M  END
>  <MODEL>
5

>  <REMARK>
 VINA RESULT:      -4.8      3.702      8.847
  Name = 
  29 active torsions:
  status: ('A' for Active; 'I' for Inactive)
    1  A    between atoms: C_3  and  N_46
    2  A    between atoms: C_3  and  C_53
    3  A    between atoms: C_4  and  C_18
    4  A    between atoms: C_4  and  N_32
    5  A    between atoms: C_5  and  C_20
    6  A    between atoms: C_5  and  C_38
    7  A    between atoms: C_8  and  O_19
    8  A    between atoms: C_9  and  C_10
    9  A    between atoms: C_10  and  C_29
   10  A    between atoms: C_13  and  O_19
   11  A    between atoms: C_13  and  C_36
   12  A    between atoms: O_15  and  C_29
   13  A    between atoms: O_15  and  C_51
   14  A    between atoms: C_16  and  C_20
   15  A    between atoms: C_16  and  C_23
   16  A    between atoms: C_21  and  O_34
   17  A    between atoms: C_21  and  N_45
   18  A    between atoms: C_23  and  C_43
   19  A    between atoms: C_23  and  N_50
   20  A    between atoms: C_25  and  N_32
   21  A    between atoms: C_25  and  O_47
   22  A    between atoms: C_25  and  C_49
   23  A    between atoms: C_26  and  O_34
   24  A    between atoms: C_26  and  C_40
   25  A    between atoms: C_29  and  C_41
   26  A    between atoms: C_30  and  N_50
   27  A    between atoms: C_30  and  C_51
   28  A    between atoms: C_38  and  N_45
   29  A    between atoms: N_46  and  C_49
                            x       y       z     vdW  Elec       q    Type
                         _______ _______ _______ _____ _____    ______ ____

>  <TORSDO>
F 29

$$$$
=
 OpenBabel10232409283D

 53 56  0  0  1  0  0  0  0  0999 V2000
  187.7710  178.1320  137.6270 C   0  0  1  0  0  3  0  0  0  0  0  0
  189.4920  173.8120  136.5480 C   0  0  0  0  0  0  0  0  0  0  0  0
  188.4440  172.8020  136.9020 C   0  0  0  0  0  1  0  0  0  0  0  0
  190.7260  173.4220  136.4950 N   0  0  0  0  0  0  0  0  0  0  0  0
  191.4890  175.6870  135.0620 S   0  0  0  0  0  0  0  0  0  0  0  0
  189.0650  175.1500  136.0010 C   0  0  1  0  0  3  0  0  0  0  0  0
  187.8780  175.8030  136.6630 C   0  0  0  0  0  2  0  0  0  0  0  0
  189.4670  177.4610  135.8250 C   0  0  0  0  0  2  0  0  0  0  0  0
  188.0320  177.2960  136.3560 C   0  0  2  0  0  3  0  0  0  0  0  0
  190.1430  176.1620  136.1610 C   0  0  2  0  0  3  0  0  0  0  0  0
  191.8830  174.2470  136.1410 C   0  0  1  0  0  3  0  0  0  0  0  0
  192.6010  174.7320  137.3980 C   0  0  0  0  0  2  0  0  0  0  0  0
  193.7510  173.8810  137.6850 N   0  0  0  0  0  2  0  0  0  0  0  0
  195.4050  175.0540  136.3420 C   0  0  0  0  0  1  0  0  0  0  0  0
  194.5390  173.8130  136.4620 C   0  0  1  0  0  3  0  0  0  0  0  0
  195.3710  172.5290  136.4410 C   0  0  1  0  0  3  0  0  0  0  0  0
  197.2010  172.2340  135.2290 C   0  0  0  0  0  1  0  0  0  0  0  0
  196.7350  172.8410  136.3960 O   0  0  0  0  0  0  0  0  0  0  0  0
  195.0880  171.7060  137.6120 N   0  0  0  0  0  2  0  0  0  0  0  0
  194.7170  170.3800  137.1320 C   0  0  0  0  0  2  0  0  0  0  0  0
  195.4570  169.3140  137.9190 C   0  0  1  0  0  3  0  0  0  0  0  0
  194.7920  168.0970  137.7880 O   0  0  0  0  0  1  0  0  0  0  0  0
  196.8780  169.1640  137.4060 C   0  0  0  0  0  1  0  0  0  0  0  0
  186.4600  178.8060  137.5900 N   0  0  0  0  0  2  0  0  0  0  0  0
  185.4700  178.1150  138.4180 C   0  0  2  0  0  3  0  0  0  0  0  0
  184.7350  177.2070  137.6460 O   0  0  0  0  0  1  0  0  0  0  0  0
  184.5290  179.1250  139.0360 C   0  0  0  0  0  2  0  0  0  0  0  0
  184.8100  179.2320  140.3980 O   0  0  0  0  0  0  0  0  0  0  0  0
  183.5700  179.1800  141.0430 C   0  0  1  0  0  3  0  0  0  0  0  0
  181.5470  178.0360  140.5840 O   0  0  0  0  0  0  0  0  0  0  0  0
  182.5720  178.5320  140.1310 C   0  0  0  0  0  3  0  0  0  0  0  0
  183.6990  178.3680  142.3270 C   0  0  0  0  0  2  0  0  0  0  0  0
  183.1970  179.1770  143.5170 C   0  0  0  0  0  3  0  0  0  0  0  0
  183.7520  178.5840  144.7960 C   0  0  0  0  0  2  0  0  0  0  0  0
  184.3860  179.8240  144.1970 C   0  0  0  0  0  2  0  0  0  0  0  0
  187.9550  177.3470  138.9430 C   0  0  0  0  0  2  0  0  0  0  0  0
  188.8520  178.0370  139.9580 C   0  0  0  0  0  2  0  0  0  0  0  0
  188.0100  178.4870  141.1380 C   0  0  0  0  0  2  0  0  0  0  0  0
  188.1350  177.4970  142.2740 C   0  0  0  0  0  2  0  0  0  0  0  0
  187.3110  177.9420  143.3810 N   0  0  0  0  0  2  0  0  0  0  0  0
  187.6070  177.0770  144.5090 C   0  0  0  0  0  2  0  0  0  0  0  0
  186.5760  177.1590  145.4420 O   0  0  0  0  0  0  0  0  0  0  0  0
  187.0470  178.0360  146.4210 C   0  0  0  0  0  2  0  0  0  0  0  0
  187.8690  175.9390  147.5140 O   0  0  0  0  0  1  0  0  0  0  0  0
  189.4810  177.7900  147.2540 C   0  0  1  0  0  3  0  0  0  0  0  0
  188.2520  179.3790  148.5420 O   0  0  0  0  0  1  0  0  0  0  0  0
  188.0390  177.3120  147.3270 C   0  0  1  0  0  0  0  0  0  0  0  0
  188.6490  178.0410  148.5140 C   0  0  1  0  0  3  0  0  0  0  0  0
  190.3670  176.7350  147.4890 O   0  0  0  0  0  0  0  0  0  0  0  0
  191.3750  176.8890  146.5350 C   0  0  1  0  0  3  0  0  0  0  0  0
  192.5070  176.1740  146.9230 O   0  0  0  0  0  1  0  0  0  0  0  0
  191.8070  176.7530  144.1790 O   0  0  0  0  0  1  0  0  0  0  0  0
  190.8920  176.4060  145.1750 C   0  0  0  0  0  2  0  0  0  0  0  0
  1 36  1  1  0  0  0
  2  3  1  0  0  0  0
  4  2  2  0  0  0  0
  5 11  1  0  0  0  0
  5 10  1  0  0  0  0
  6 10  1  0  0  0  0
  6  2  1  0  0  0  0
  6  7  1  1  0  0  0
  8  9  1  0  0  0  0
  9  7  1  0  0  0  0
  9  1  1  1  0  0  0
 10  8  1  6  0  0  0
 11  4  1  0  0  0  0
 11 12  1  1  0  0  0
 12 13  1  0  0  0  0
 15 14  1  1  0  0  0
 15 13  1  0  0  0  0
 16 18  1  1  0  0  0
 16 15  1  0  0  0  0
 16 19  1  0  0  0  0
 17 18  1  0  0  0  0
 20 19  1  0  0  0  0
 20 21  1  0  0  0  0
 21 23  1  6  0  0  0
 22 21  1  0  0  0  0
 24  1  1  0  0  0  0
 24 25  1  0  0  0  0
 25 26  1  6  0  0  0
 25 27  1  0  0  0  0
 27 28  1  0  0  0  0
 28 29  1  0  0  0  0
 29 31  1  6  0  0  0
 29 32  1  0  0  0  0
 31 30  2  0  0  0  0
 32 33  1  0  0  0  0
 33 35  1  0  0  0  0
 33 34  1  0  0  0  0
 35 34  1  0  0  0  0
 36 37  1  0  0  0  0
 37 38  1  0  0  0  0
 38 39  1  0  0  0  0
 39 40  1  0  0  0  0
 40 41  1  0  0  0  0
 41 42  1  0  0  0  0
 42 43  1  0  0  0  0
 43 47  1  0  0  0  0
 45 47  1  0  0  0  0
 45 49  1  1  0  0  0
 45 48  1  0  0  0  0
 47 44  1  1  0  0  0
 47 48  1  0  0  0  0
 48 46  1  6  0  0  0
 50 51  1  1  0  0  0
 50 49  1  0  0  0  0
 52 53  1  0  0  0  0
 53 50  1  0  0  0  0
M  END
>  <MODEL>
6

>  <REMARK>
 VINA RESULT:      -4.8      4.462      7.746
  Name = 
  29 active torsions:
  status: ('A' for Active; 'I' for Inactive)
    1  A    between atoms: C_3  and  N_46
    2  A    between atoms: C_3  and  C_53
    3  A    between atoms: C_4  and  C_18
    4  A    between atoms: C_4  and  N_32
    5  A    between atoms: C_5  and  C_20
    6  A    between atoms: C_5  and  C_38
    7  A    between atoms: C_8  and  O_19
    8  A    between atoms: C_9  and  C_10
    9  A    between atoms: C_10  and  C_29
   10  A    between atoms: C_13  and  O_19
   11  A    between atoms: C_13  and  C_36
   12  A    between atoms: O_15  and  C_29
   13  A    between atoms: O_15  and  C_51
   14  A    between atoms: C_16  and  C_20
   15  A    between atoms: C_16  and  C_23
   16  A    between atoms: C_21  and  O_34
   17  A    between atoms: C_21  and  N_45
   18  A    between atoms: C_23  and  C_43
   19  A    between atoms: C_23  and  N_50
   20  A    between atoms: C_25  and  N_32
   21  A    between atoms: C_25  and  O_47
   22  A    between atoms: C_25  and  C_49
   23  A    between atoms: C_26  and  O_34
   24  A    between atoms: C_26  and  C_40
   25  A    between atoms: C_29  and  C_41
   26  A    between atoms: C_30  and  N_50
   27  A    between atoms: C_30  and  C_51
   28  A    between atoms: C_38  and  N_45
   29  A    between atoms: N_46  and  C_49
                            x       y       z     vdW  Elec       q    Type
                         _______ _______ _______ _____ _____    ______ ____

>  <TORSDO>
F 29

$$$$
=
 OpenBabel10232409283D

 53 56  0  0  1  0  0  0  0  0999 V2000
  188.0240  177.2890  138.0300 C   0  0  1  0  0  3  0  0  0  0  0  0
  189.2850  173.3430  135.6590 C   0  0  0  0  0  0  0  0  0  0  0  0
  188.2260  172.3100  135.8950 C   0  0  0  0  0  1  0  0  0  0  0  0
  190.4710  172.9400  135.3310 N   0  0  0  0  0  0  0  0  0  0  0  0
  191.1940  175.4730  134.4200 S   0  0  0  0  0  0  0  0  0  0  0  0
  188.8830  174.7900  135.5350 C   0  0  1  0  0  3  0  0  0  0  0  0
  187.8410  175.2880  136.5050 C   0  0  0  0  0  2  0  0  0  0  0  0
  189.4170  177.0540  135.8900 C   0  0  0  0  0  2  0  0  0  0  0  0
  188.0560  176.8030  136.5650 C   0  0  2  0  0  3  0  0  0  0  0  0
  190.0400  175.6900  135.7870 C   0  0  2  0  0  3  0  0  0  0  0  0
  191.6260  173.7900  135.0330 C   0  0  1  0  0  3  0  0  0  0  0  0
  192.5350  173.9090  136.2530 C   0  0  0  0  0  2  0  0  0  0  0  0
  193.6920  173.0310  136.1100 N   0  0  0  0  0  2  0  0  0  0  0  0
  194.4700  174.4550  137.9210 C   0  0  0  0  0  1  0  0  0  0  0  0
  194.8410  173.7630  136.6220 C   0  0  1  0  0  3  0  0  0  0  0  0
  196.0340  172.8200  136.7960 C   0  0  1  0  0  3  0  0  0  0  0  0
  196.2710  170.7280  137.4800 C   0  0  0  0  0  1  0  0  0  0  0  0
  195.6560  171.5060  136.4980 O   0  0  0  0  0  0  0  0  0  0  0  0
  197.1450  173.2240  135.9400 N   0  0  0  0  0  2  0  0  0  0  0  0
  197.7470  174.4090  136.5400 C   0  0  0  0  0  2  0  0  0  0  0  0
  199.2560  174.2580  136.5920 C   0  0  1  0  0  3  0  0  0  0  0  0
  199.5780  172.9880  137.0660 O   0  0  0  0  0  1  0  0  0  0  0  0
  199.8570  174.4420  135.2090 C   0  0  0  0  0  1  0  0  0  0  0  0
  189.1830  178.1380  138.3600 N   0  0  0  0  0  2  0  0  0  0  0  0
  189.9610  177.5890  139.4730 C   0  0  2  0  0  3  0  0  0  0  0  0
  189.8510  176.1940  139.5050 O   0  0  0  0  0  1  0  0  0  0  0  0
  189.4580  178.1630  140.7780 C   0  0  0  0  0  2  0  0  0  0  0  0
  188.7240  177.1860  141.4510 O   0  0  0  0  0  0  0  0  0  0  0  0
  188.6430  177.6240  142.7770 C   0  0  1  0  0  3  0  0  0  0  0  0
  186.7750  176.9340  144.0590 O   0  0  0  0  0  0  0  0  0  0  0  0
  187.8570  176.6260  143.5730 C   0  0  0  0  0  3  0  0  0  0  0  0
  190.0470  177.7550  143.3570 C   0  0  0  0  0  2  0  0  0  0  0  0
  190.2980  176.6610  144.3870 C   0  0  0  0  0  3  0  0  0  0  0  0
  191.6370  176.0090  144.1090 C   0  0  0  0  0  2  0  0  0  0  0  0
  191.5110  177.0430  145.2110 C   0  0  0  0  0  2  0  0  0  0  0  0
  186.7020  177.9740  138.4350 C   0  0  0  0  0  2  0  0  0  0  0  0
  185.5830  177.8170  137.4170 C   0  0  0  0  0  2  0  0  0  0  0  0
  184.2470  177.9180  138.1290 C   0  0  0  0  0  2  0  0  0  0  0  0
  183.1940  177.1440  137.3690 C   0  0  0  0  0  2  0  0  0  0  0  0
  181.9800  177.0930  138.1620 N   0  0  0  0  0  2  0  0  0  0  0  0
  182.0900  175.9420  139.0410 C   0  0  0  0  0  2  0  0  0  0  0  0
  181.1250  176.0280  140.0420 O   0  0  0  0  0  0  0  0  0  0  0  0
  180.5420  177.2850  139.8710 C   0  0  0  0  0  2  0  0  0  0  0  0
  179.9820  177.5830  142.2920 O   0  0  0  0  0  1  0  0  0  0  0  0
  181.9820  178.7510  141.4390 C   0  0  1  0  0  3  0  0  0  0  0  0
  180.8340  180.0530  139.8010 O   0  0  0  0  0  1  0  0  0  0  0  0
  180.6430  178.0810  141.1680 C   0  0  1  0  0  0  0  0  0  0  0  0
  180.7480  179.5980  141.1180 C   0  0  1  0  0  3  0  0  0  0  0  0
  182.2390  178.8120  142.8110 O   0  0  0  0  0  0  0  0  0  0  0  0
  183.6130  178.5870  142.9320 C   0  0  1  0  0  3  0  0  0  0  0  0
  184.2610  178.9900  141.7670 O   0  0  0  0  0  1  0  0  0  0  0  0
  183.3060  179.2310  145.2230 O   0  0  0  0  0  1  0  0  0  0  0  0
  184.1670  179.3450  144.1290 C   0  0  0  0  0  2  0  0  0  0  0  0
  1 24  1  0  0  0  0
  1 36  1  6  0  0  0
  2  3  1  0  0  0  0
  4  2  2  0  0  0  0
  5 11  1  0  0  0  0
  5 10  1  0  0  0  0
  6  2  1  0  0  0  0
  6 10  1  0  0  0  0
  6  7  1  1  0  0  0
  7  9  1  0  0  0  0
  8  9  1  0  0  0  0
  9  1  1  1  0  0  0
 10  8  1  6  0  0  0
 11  4  1  0  0  0  0
 11 12  1  1  0  0  0
 13 12  1  0  0  0  0
 13 15  1  0  0  0  0
 15 16  1  0  0  0  0
 15 14  1  1  0  0  0
 16 19  1  6  0  0  0
 18 16  1  0  0  0  0
 18 17  1  0  0  0  0
 19 20  1  0  0  0  0
 20 21  1  0  0  0  0
 21 23  1  6  0  0  0
 21 22  1  0  0  0  0
 24 25  1  0  0  0  0
 25 26  1  1  0  0  0
 25 27  1  0  0  0  0
 27 28  1  0  0  0  0
 28 29  1  0  0  0  0
 29 32  1  1  0  0  0
 29 31  1  0  0  0  0
 31 30  2  0  0  0  0
 32 33  1  0  0  0  0
 33 35  1  0  0  0  0
 34 33  1  0  0  0  0
 34 35  1  0  0  0  0
 37 38  1  0  0  0  0
 37 36  1  0  0  0  0
 39 38  1  0  0  0  0
 39 40  1  0  0  0  0
 40 41  1  0  0  0  0
 41 42  1  0  0  0  0
 43 42  1  0  0  0  0
 43 47  1  0  0  0  0
 45 49  1  1  0  0  0
 47 45  1  0  0  0  0
 47 44  1  1  0  0  0
 48 46  1  6  0  0  0
 48 47  1  0  0  0  0
 48 45  1  0  0  0  0
 49 50  1  0  0  0  0
 50 51  1  6  0  0  0
 50 53  1  0  0  0  0
 53 52  1  0  0  0  0
M  END
>  <MODEL>
7

>  <REMARK>
 VINA RESULT:      -4.7      4.989      9.390
  Name = 
  29 active torsions:
  status: ('A' for Active; 'I' for Inactive)
    1  A    between atoms: C_3  and  N_46
    2  A    between atoms: C_3  and  C_53
    3  A    between atoms: C_4  and  C_18
    4  A    between atoms: C_4  and  N_32
    5  A    between atoms: C_5  and  C_20
    6  A    between atoms: C_5  and  C_38
    7  A    between atoms: C_8  and  O_19
    8  A    between atoms: C_9  and  C_10
    9  A    between atoms: C_10  and  C_29
   10  A    between atoms: C_13  and  O_19
   11  A    between atoms: C_13  and  C_36
   12  A    between atoms: O_15  and  C_29
   13  A    between atoms: O_15  and  C_51
   14  A    between atoms: C_16  and  C_20
   15  A    between atoms: C_16  and  C_23
   16  A    between atoms: C_21  and  O_34
   17  A    between atoms: C_21  and  N_45
   18  A    between atoms: C_23  and  C_43
   19  A    between atoms: C_23  and  N_50
   20  A    between atoms: C_25  and  N_32
   21  A    between atoms: C_25  and  O_47
   22  A    between atoms: C_25  and  C_49
   23  A    between atoms: C_26  and  O_34
   24  A    between atoms: C_26  and  C_40
   25  A    between atoms: C_29  and  C_41
   26  A    between atoms: C_30  and  N_50
   27  A    between atoms: C_30  and  C_51
   28  A    between atoms: C_38  and  N_45
   29  A    between atoms: N_46  and  C_49
                            x       y       z     vdW  Elec       q    Type
                         _______ _______ _______ _____ _____    ______ ____

>  <TORSDO>
F 29

$$$$
=
 OpenBabel10232409283D

 53 56  0  0  1  0  0  0  0  0999 V2000
  186.5720  178.3900  140.6880 C   0  0  1  0  0  3  0  0  0  0  0  0
  181.8120  178.1300  140.9370 C   0  0  0  0  0  0  0  0  0  0  0  0
  181.4100  178.4520  142.3430 C   0  0  0  0  0  1  0  0  0  0  0  0
  181.0010  177.4250  140.2140 N   0  0  0  0  0  0  0  0  0  0  0  0
  182.2930  178.1630  137.8580 S   0  0  0  0  0  0  0  0  0  0  0  0
  182.9850  178.8520  140.3270 C   0  0  1  0  0  3  0  0  0  0  0  0
  184.1930  179.0480  141.2090 C   0  0  0  0  0  2  0  0  0  0  0  0
  184.8240  178.8030  138.8590 C   0  0  0  0  0  2  0  0  0  0  0  0
  185.3610  179.2340  140.2360 C   0  0  2  0  0  3  0  0  0  0  0  0
  183.5310  178.1000  139.1650 C   0  0  2  0  0  3  0  0  0  0  0  0
  181.2000  177.0330  138.8170 C   0  0  1  0  0  3  0  0  0  0  0  0
  181.7390  175.6070  138.7310 C   0  0  0  0  0  2  0  0  0  0  0  0
  182.8480  175.5410  137.7860 N   0  0  0  0  0  2  0  0  0  0  0  0
  182.4950  175.2470  135.3980 C   0  0  0  0  0  1  0  0  0  0  0  0
  182.4710  174.5790  136.7610 C   0  0  1  0  0  3  0  0  0  0  0  0
  183.3920  173.3580  136.8160 C   0  0  1  0  0  3  0  0  0  0  0  0
  185.5900  173.6110  136.8870 C   0  0  0  0  0  1  0  0  0  0  0  0
  184.4530  173.5960  137.6960 O   0  0  0  0  0  0  0  0  0  0  0  0
  182.6550  172.1700  137.2340 N   0  0  0  0  0  2  0  0  0  0  0  0
  181.8430  171.7400  136.1020 C   0  0  0  0  0  2  0  0  0  0  0  0
  182.6680  170.8800  135.1630 C   0  0  1  0  0  3  0  0  0  0  0  0
  183.4860  171.6980  134.3850 O   0  0  0  0  0  1  0  0  0  0  0  0
  183.5340  169.9130  135.9510 C   0  0  0  0  0  1  0  0  0  0  0  0
  187.8270  178.8350  140.0550 N   0  0  0  0  0  2  0  0  0  0  0  0
  188.3600  177.8270  139.1360 C   0  0  2  0  0  3  0  0  0  0  0  0
  189.7370  177.6660  139.3320 O   0  0  0  0  0  1  0  0  0  0  0  0
  188.1010  178.2500  137.7080 C   0  0  0  0  0  2  0  0  0  0  0  0
  188.9460  177.5330  136.8610 O   0  0  0  0  0  0  0  0  0  0  0  0
  188.2400  176.3760  136.5160 C   0  0  1  0  0  3  0  0  0  0  0  0
  186.9500  177.5450  134.9100 O   0  0  0  0  0  0  0  0  0  0  0  0
  187.6360  176.5600  135.1570 C   0  0  0  0  0  3  0  0  0  0  0  0
  189.1920  175.1850  136.5010 C   0  0  0  0  0  2  0  0  0  0  0  0
  190.6210  175.6460  136.7600 C   0  0  0  0  0  3  0  0  0  0  0  0
  191.5430  174.4440  136.7560 C   0  0  0  0  0  2  0  0  0  0  0  0
  191.4570  175.3380  135.5350 C   0  0  0  0  0  2  0  0  0  0  0  0
  186.7290  178.2900  142.2200 C   0  0  0  0  0  2  0  0  0  0  0  0
  187.6140  177.1430  142.6800 C   0  0  0  0  0  2  0  0  0  0  0  0
  188.6800  177.6830  143.6160 C   0  0  0  0  0  2  0  0  0  0  0  0
  189.9890  177.8430  142.8760 C   0  0  0  0  0  2  0  0  0  0  0  0
  190.4030  176.5510  142.3630 N   0  0  0  0  0  2  0  0  0  0  0  0
  191.5010  176.0920  143.1940 C   0  0  0  0  0  2  0  0  0  0  0  0
  190.9940  175.4860  144.3420 O   0  0  0  0  0  0  0  0  0  0  0  0
  191.9910  175.6510  145.3050 C   0  0  0  0  0  2  0  0  0  0  0  0
  191.6200  178.0860  145.7490 O   0  0  0  0  0  1  0  0  0  0  0  0
  190.5070  176.4760  147.2530 C   0  0  1  0  0  3  0  0  0  0  0  0
  192.5080  175.4330  148.0320 O   0  0  0  0  0  1  0  0  0  0  0  0
  191.6110  176.7840  146.2530 C   0  0  1  0  0  0  0  0  0  0  0  0
  191.9470  176.6770  147.7320 C   0  0  1  0  0  3  0  0  0  0  0  0
  189.7620  177.6230  147.5390 O   0  0  0  0  0  0  0  0  0  0  0  0
  188.4410  177.2810  147.2390 C   0  0  1  0  0  3  0  0  0  0  0  0
  187.8620  176.6330  148.3290 O   0  0  0  0  0  1  0  0  0  0  0  0
  186.3790  178.4840  147.4810 O   0  0  0  0  0  1  0  0  0  0  0  0
  187.6420  178.5270  146.8850 C   0  0  0  0  0  2  0  0  0  0  0  0
  1 36  1  1  0  0  0
  2  3  1  0  0  0  0
  4  2  2  0  0  0  0
  5 11  1  0  0  0  0
  5 10  1  0  0  0  0
  6  2  1  0  0  0  0
  6  7  1  1  0  0  0
  8  9  1  0  0  0  0
  9  1  1  1  0  0  0
  9  7  1  0  0  0  0
 10  8  1  6  0  0  0
 10  6  1  0  0  0  0
 11 12  1  1  0  0  0
 11  4  1  0  0  0  0
 13 12  1  0  0  0  0
 15 14  1  6  0  0  0
 15 16  1  0  0  0  0
 15 13  1  0  0  0  0
 16 19  1  1  0  0  0
 16 18  1  0  0  0  0
 17 18  1  0  0  0  0
 20 19  1  0  0  0  0
 21 23  1  1  0  0  0
 21 20  1  0  0  0  0
 22 21  1  0  0  0  0
 24  1  1  0  0  0  0
 25 26  1  6  0  0  0
 25 24  1  0  0  0  0
 27 25  1  0  0  0  0
 28 27  1  0  0  0  0
 29 31  1  6  0  0  0
 29 28  1  0  0  0  0
 30 31  2  0  0  0  0
 32 29  1  0  0  0  0
 32 33  1  0  0  0  0
 34 33  1  0  0  0  0
 35 34  1  0  0  0  0
 35 33  1  0  0  0  0
 36 37  1  0  0  0  0
 37 38  1  0  0  0  0
 39 38  1  0  0  0  0
 40 39  1  0  0  0  0
 40 41  1  0  0  0  0
 41 42  1  0  0  0  0
 42 43  1  0  0  0  0
 43 47  1  0  0  0  0
 45 49  1  1  0  0  0
 45 48  1  0  0  0  0
 47 44  1  6  0  0  0
 47 45  1  0  0  0  0
 47 48  1  0  0  0  0
 48 46  1  6  0  0  0
 50 49  1  0  0  0  0
 50 51  1  1  0  0  0
 53 50  1  0  0  0  0
 53 52  1  0  0  0  0
M  END
>  <MODEL>
8

>  <REMARK>
 VINA RESULT:      -4.3      2.102      3.923
  Name = 
  29 active torsions:
  status: ('A' for Active; 'I' for Inactive)
    1  A    between atoms: C_3  and  N_46
    2  A    between atoms: C_3  and  C_53
    3  A    between atoms: C_4  and  C_18
    4  A    between atoms: C_4  and  N_32
    5  A    between atoms: C_5  and  C_20
    6  A    between atoms: C_5  and  C_38
    7  A    between atoms: C_8  and  O_19
    8  A    between atoms: C_9  and  C_10
    9  A    between atoms: C_10  and  C_29
   10  A    between atoms: C_13  and  O_19
   11  A    between atoms: C_13  and  C_36
   12  A    between atoms: O_15  and  C_29
   13  A    between atoms: O_15  and  C_51
   14  A    between atoms: C_16  and  C_20
   15  A    between atoms: C_16  and  C_23
   16  A    between atoms: C_21  and  O_34
   17  A    between atoms: C_21  and  N_45
   18  A    between atoms: C_23  and  C_43
   19  A    between atoms: C_23  and  N_50
   20  A    between atoms: C_25  and  N_32
   21  A    between atoms: C_25  and  O_47
   22  A    between atoms: C_25  and  C_49
   23  A    between atoms: C_26  and  O_34
   24  A    between atoms: C_26  and  C_40
   25  A    between atoms: C_29  and  C_41
   26  A    between atoms: C_30  and  N_50
   27  A    between atoms: C_30  and  C_51
   28  A    between atoms: C_38  and  N_45
   29  A    between atoms: N_46  and  C_49
                            x       y       z     vdW  Elec       q    Type
                         _______ _______ _______ _____ _____    ______ ____

>  <TORSDO>
F 29

$$$$
=
 OpenBabel10232409283D

 53 56  0  0  1  0  0  0  0  0999 V2000
  189.6270  177.6030  140.0650 C   0  0  1  0  0  3  0  0  0  0  0  0
  191.4020  175.9190  144.1640 C   0  0  0  0  0  0  0  0  0  0  0  0
  191.6420  174.4500  143.9880 C   0  0  0  0  0  1  0  0  0  0  0  0
  191.2360  176.3730  145.3660 N   0  0  0  0  0  0  0  0  0  0  0  0
  191.7050  178.9960  144.5510 S   0  0  0  0  0  0  0  0  0  0  0  0
  191.6360  176.8440  142.9980 C   0  0  1  0  0  3  0  0  0  0  0  0
  191.1530  176.3690  141.6500 C   0  0  0  0  0  2  0  0  0  0  0  0
  191.0300  178.8030  141.8440 C   0  0  0  0  0  2  0  0  0  0  0  0
  190.9680  177.6480  140.8280 C   0  0  2  0  0  3  0  0  0  0  0  0
  190.9130  178.1310  143.1830 C   0  0  2  0  0  3  0  0  0  0  0  0
  191.0200  177.7710  145.7430 C   0  0  1  0  0  3  0  0  0  0  0  0
  189.5340  178.0450  145.9590 C   0  0  0  0  0  2  0  0  0  0  0  0
  188.9430  177.0060  146.7950 N   0  0  0  0  0  2  0  0  0  0  0  0
  187.5830  178.4190  148.2340 C   0  0  0  0  0  1  0  0  0  0  0  0
  187.5790  177.4250  147.0860 C   0  0  1  0  0  3  0  0  0  0  0  0
  186.9250  178.0040  145.8300 C   0  0  1  0  0  3  0  0  0  0  0  0
  187.1030  176.8950  143.9220 C   0  0  0  0  0  1  0  0  0  0  0  0
  186.3320  176.9820  145.0820 O   0  0  0  0  0  0  0  0  0  0  0  0
  185.9250  179.0080  146.1810 N   0  0  0  0  0  2  0  0  0  0  0  0
  184.6250  178.4860  145.7780 C   0  0  0  0  0  2  0  0  0  0  0  0
  183.9300  179.4710  144.8560 C   0  0  1  0  0  3  0  0  0  0  0  0
  184.8610  180.0160  143.9740 O   0  0  0  0  0  1  0  0  0  0  0  0
  182.8380  178.7760  144.0610 C   0  0  0  0  0  1  0  0  0  0  0  0
  189.4340  176.3250  139.3560 N   0  0  0  0  0  2  0  0  0  0  0  0
  189.9790  176.3680  137.9980 C   0  0  2  0  0  3  0  0  0  0  0  0
  188.9460  176.3170  137.0540 O   0  0  0  0  0  1  0  0  0  0  0  0
  190.9130  175.1990  137.7850 C   0  0  0  0  0  2  0  0  0  0  0  0
  192.0930  175.6600  137.2020 O   0  0  0  0  0  0  0  0  0  0  0  0
  192.8160  174.5130  136.8580 C   0  0  1  0  0  3  0  0  0  0  0  0
  192.1860  173.9440  134.6460 O   0  0  0  0  0  0  0  0  0  0  0  0
  192.0360  173.7310  135.8440 C   0  0  0  0  0  3  0  0  0  0  0  0
  194.1640  174.9170  136.2720 C   0  0  0  0  0  2  0  0  0  0  0  0
  195.2960  174.2390  137.0330 C   0  0  0  0  0  3  0  0  0  0  0  0
  195.2380  174.6530  138.4900 C   0  0  0  0  0  2  0  0  0  0  0  0
  194.6940  173.3040  138.0630 C   0  0  0  0  0  2  0  0  0  0  0  0
  188.3990  177.9460  140.9340 C   0  0  0  0  0  2  0  0  0  0  0  0
  187.1920  178.4250  140.1430 C   0  0  0  0  0  2  0  0  0  0  0  0
  186.1420  178.9460  141.1070 C   0  0  0  0  0  2  0  0  0  0  0  0
  184.7630  178.7980  140.5030 C   0  0  0  0  0  2  0  0  0  0  0  0
  184.5300  179.8950  139.5840 N   0  0  0  0  0  2  0  0  0  0  0  0
  183.4040  179.5200  138.7470 C   0  0  0  0  0  2  0  0  0  0  0  0
  182.8090  178.3680  139.2570 O   0  0  0  0  0  0  0  0  0  0  0  0
  181.7490  178.0980  138.3890 C   0  0  0  0  0  2  0  0  0  0  0  0
  181.6040  176.5460  136.4310 O   0  0  0  0  0  1  0  0  0  0  0  0
  183.1180  175.9090  138.2730 C   0  0  1  0  0  3  0  0  0  0  0  0
  181.4370  175.8230  139.9650 O   0  0  0  0  0  1  0  0  0  0  0  0
  181.9230  176.7100  137.7800 C   0  0  1  0  0  0  0  0  0  0  0  0
  181.6960  175.4750  138.6380 C   0  0  1  0  0  3  0  0  0  0  0  0
  183.6100  175.0770  137.2630 O   0  0  0  0  0  0  0  0  0  0  0  0
  184.7510  175.7260  136.7830 C   0  0  1  0  0  3  0  0  0  0  0  0
  185.1950  176.6550  137.7220 O   0  0  0  0  0  1  0  0  0  0  0  0
  185.6450  173.5440  137.2260 O   0  0  0  0  0  1  0  0  0  0  0  0
  185.8480  174.7130  136.4900 C   0  0  0  0  0  2  0  0  0  0  0  0
  1 36  1  1  0  0  0
  2  4  2  0  0  0  0
  3  2  1  0  0  0  0
  4 11  1  0  0  0  0
  5 11  1  0  0  0  0
  6  7  1  6  0  0  0
  6 10  1  0  0  0  0
  6  2  1  0  0  0  0
  9  1  1  1  0  0  0
  9  7  1  0  0  0  0
  9  8  1  0  0  0  0
 10  8  1  6  0  0  0
 10  5  1  0  0  0  0
 11 12  1  6  0  0  0
 12 13  1  0  0  0  0
 13 15  1  0  0  0  0
 15 14  1  1  0  0  0
 16 18  1  1  0  0  0
 16 19  1  0  0  0  0
 16 15  1  0  0  0  0
 17 18  1  0  0  0  0
 20 19  1  0  0  0  0
 21 23  1  6  0  0  0
 21 20  1  0  0  0  0
 22 21  1  0  0  0  0
 24  1  1  0  0  0  0
 25 26  1  6  0  0  0
 25 24  1  0  0  0  0
 27 25  1  0  0  0  0
 28 27  1  0  0  0  0
 29 31  1  6  0  0  0
 29 28  1  0  0  0  0
 30 31  2  0  0  0  0
 32 29  1  0  0  0  0
 32 33  1  0  0  0  0
 33 35  1  0  0  0  0
 33 34  1  0  0  0  0
 35 34  1  0  0  0  0
 37 36  1  0  0  0  0
 37 38  1  0  0  0  0
 39 38  1  0  0  0  0
 40 39  1  0  0  0  0
 41 42  1  0  0  0  0
 41 40  1  0  0  0  0
 43 42  1  0  0  0  0
 45 49  1  6  0  0  0
 45 48  1  0  0  0  0
 47 44  1  6  0  0  0
 47 45  1  0  0  0  0
 47 43  1  0  0  0  0
 47 48  1  0  0  0  0
 48 46  1  1  0  0  0
 50 49  1  0  0  0  0
 50 51  1  1  0  0  0
 53 50  1  0  0  0  0
 53 52  1  0  0  0  0
M  END
>  <MODEL>
9

>  <REMARK>
 VINA RESULT:      -4.1      3.709      9.569
  Name = 
  29 active torsions:
  status: ('A' for Active; 'I' for Inactive)
    1  A    between atoms: C_3  and  N_46
    2  A    between atoms: C_3  and  C_53
    3  A    between atoms: C_4  and  C_18
    4  A    between atoms: C_4  and  N_32
    5  A    between atoms: C_5  and  C_20
    6  A    between atoms: C_5  and  C_38
    7  A    between atoms: C_8  and  O_19
    8  A    between atoms: C_9  and  C_10
    9  A    between atoms: C_10  and  C_29
   10  A    between atoms: C_13  and  O_19
   11  A    between atoms: C_13  and  C_36
   12  A    between atoms: O_15  and  C_29
   13  A    between atoms: O_15  and  C_51
   14  A    between atoms: C_16  and  C_20
   15  A    between atoms: C_16  and  C_23
   16  A    between atoms: C_21  and  O_34
   17  A    between atoms: C_21  and  N_45
   18  A    between atoms: C_23  and  C_43
   19  A    between atoms: C_23  and  N_50
   20  A    between atoms: C_25  and  N_32
   21  A    between atoms: C_25  and  O_47
   22  A    between atoms: C_25  and  C_49
   23  A    between atoms: C_26  and  O_34
   24  A    between atoms: C_26  and  C_40
   25  A    between atoms: C_29  and  C_41
   26  A    between atoms: C_30  and  N_50
   27  A    between atoms: C_30  and  C_51
   28  A    between atoms: C_38  and  N_45
   29  A    between atoms: N_46  and  C_49
                            x       y       z     vdW  Elec       q    Type
                         _______ _______ _______ _____ _____    ______ ____

>  <TORSDO>
F 29

$$$$
