=
 OpenBabel10232409463D

 25 28  0  0  1  0  0  0  0  0999 V2000
  185.6370  179.0210  146.3700 C   0  0  0  0  0  3  0  0  0  0  0  0
  184.8210  178.8740  145.2280 C   0  0  0  0  0  0  0  0  0  0  0  0
  188.5250  177.2390  145.1550 C   0  0  1  0  0  3  0  0  0  0  0  0
  185.3070  178.1670  144.1100 C   0  0  0  0  0  0  0  0  0  0  0  0
  187.3470  177.8020  145.3180 C   0  0  0  0  0  0  0  0  0  0  0  0
  189.5950  177.1950  146.1460 C   0  0  0  0  0  3  0  0  0  0  0  0
  189.6230  177.1520  142.9910 N   0  0  0  0  0  0  0  0  0  0  0  0
  184.4760  177.9950  142.8820 C   0  0  0  0  0  1  0  0  0  0  0  0
  190.8710  176.9290  145.8680 C   0  0  0  0  0  3  0  0  0  0  0  0
  186.5950  177.6330  144.1920 C   0  0  0  0  0  0  0  0  0  0  0  0
  183.5470  179.4300  145.2190 O   0  0  0  0  0  1  0  0  0  0  0  0
  188.5340  176.5980  143.8040 C   0  0  2  0  0  3  0  0  0  0  0  0
  186.8920  178.4830  146.4000 N   0  0  0  0  0  0  0  0  0  0  0  0
  191.5020  176.7160  144.5490 C   0  0  0  0  0  3  0  0  0  0  0  0
  187.2090  176.9630  143.2760 N   0  0  0  0  0  2  0  0  0  0  0  0
  190.9840  176.8390  143.3190 C   0  0  0  0  0  3  0  0  0  0  0  0
  189.3930  177.6260  141.6530 C   0  0  0  0  0  0  0  0  0  0  0  0
  188.8910  178.5330  139.0730 C   0  0  0  0  0  3  0  0  0  0  0  0
  189.8320  177.5210  139.2700 C   0  0  0  0  0  0  0  0  0  0  0  0
  188.2260  179.0630  140.1330 N   0  0  0  0  0  0  0  0  0  0  0  0
  190.0820  177.0600  140.5690 C   0  0  0  0  0  0  0  0  0  0  0  0
  188.4530  178.6350  141.4030 C   0  0  0  0  0  3  0  0  0  0  0  0
  190.9990  176.0820  140.7840 F   0  0  0  0  0  0  0  0  0  0  0  0
  191.0890  176.5210  137.2320 N   0  0  0  0  0  0  0  0  0  0  0  0
  190.5280  176.9670  138.1410 C   0  0  0  0  0  0  0  0  0  0  0  0
  1 13  1  0  0  0  0
  2  1  2  0  0  0  0
  3  5  1  0  0  0  0
  3  6  1  1  0  0  0
  4 10  2  0  0  0  0
  4  2  1  0  0  0  0
  5 13  2  0  0  0  0
  7 16  1  0  0  0  0
  7 12  1  0  0  0  0
  8  4  1  0  0  0  0
  9  6  2  0  0  0  0
 10  5  1  0  0  0  0
 11  2  1  0  0  0  0
 12 15  1  6  0  0  0
 12  3  1  0  0  0  0
 14  9  1  0  0  0  0
 15 10  1  0  0  0  0
 16 14  2  0  0  0  0
 17  7  1  0  0  0  0
 18 19  2  0  0  0  0
 18 20  1  0  0  0  0
 19 21  1  0  0  0  0
 20 22  2  0  0  0  0
 21 23  1  0  0  0  0
 21 17  2  0  0  0  0
 22 17  1  0  0  0  0
 24 25  3  0  0  0  0
 25 19  1  0  0  0  0
M  END
>  <MODEL>
1

>  <REMARK>
 VINA RESULT:      -9.3      0.000      0.000
  Name = 
  2 active torsions:
  status: ('A' for Active; 'I' for Inactive)
    1  A    between atoms: C_4  and  N_10
    2  A    between atoms: C_13  and  C_20
                            x       y       z     vdW  Elec       q    Type
                         _______ _______ _______ _____ _____    ______ ____

>  <TORSDO>
F 2

$$$$
=
 OpenBabel10232409463D

 25 28  0  0  1  0  0  0  0  0999 V2000
  185.8820  179.1420  140.4810 C   0  0  0  0  0  3  0  0  0  0  0  0
  187.0210  178.4360  140.0400 C   0  0  0  0  0  0  0  0  0  0  0  0
  185.9260  178.0680  143.9210 C   0  0  1  0  0  3  0  0  0  0  0  0
  187.7340  177.6270  140.9480 C   0  0  0  0  0  0  0  0  0  0  0  0
  186.1600  178.2630  142.6410 C   0  0  0  0  0  0  0  0  0  0  0  0
  184.8200  178.6360  144.6840 C   0  0  0  0  0  3  0  0  0  0  0  0
  187.7200  177.7160  145.5190 N   0  0  0  0  0  0  0  0  0  0  0  0
  188.9470  176.8680  140.5200 C   0  0  0  0  0  1  0  0  0  0  0  0
  184.7780  178.7090  146.0140 C   0  0  0  0  0  3  0  0  0  0  0  0
  187.2670  177.5610  142.2620 C   0  0  0  0  0  0  0  0  0  0  0  0
  187.4280  178.5460  138.7150 O   0  0  0  0  0  1  0  0  0  0  0  0
  186.9550  177.1070  144.4240 C   0  0  2  0  0  3  0  0  0  0  0  0
  185.4660  179.0480  141.7780 N   0  0  0  0  0  0  0  0  0  0  0  0
  185.8230  178.3370  146.9900 C   0  0  0  0  0  3  0  0  0  0  0  0
  187.7840  176.8820  143.2290 N   0  0  0  0  0  2  0  0  0  0  0  0
  187.0880  177.9420  146.7870 C   0  0  0  0  0  3  0  0  0  0  0  0
  189.1570  177.6980  145.5300 C   0  0  0  0  0  0  0  0  0  0  0  0
  191.9370  177.6470  145.4930 C   0  0  0  0  0  3  0  0  0  0  0  0
  191.2540  176.9120  146.4630 C   0  0  0  0  0  0  0  0  0  0  0  0
  191.2470  178.3750  144.5750 N   0  0  0  0  0  0  0  0  0  0  0  0
  189.8530  176.9330  146.4780 C   0  0  0  0  0  0  0  0  0  0  0  0
  189.8890  178.4130  144.5720 C   0  0  0  0  0  3  0  0  0  0  0  0
  189.1690  176.2300  147.4180 F   0  0  0  0  0  0  0  0  0  0  0  0
  192.5900  175.5280  148.2030 N   0  0  0  0  0  0  0  0  0  0  0  0
  191.9940  176.1450  147.4270 C   0  0  0  0  0  0  0  0  0  0  0  0
  1 13  1  0  0  0  0
  2  1  2  0  0  0  0
  2  4  1  0  0  0  0
  3 12  1  0  0  0  0
  3  6  1  6  0  0  0
  4 10  2  0  0  0  0
  5  3  1  0  0  0  0
  6  9  2  0  0  0  0
  7 17  1  0  0  0  0
  7 16  1  0  0  0  0
  8  4  1  0  0  0  0
  9 14  1  0  0  0  0
 10  5  1  0  0  0  0
 10 15  1  0  0  0  0
 11  2  1  0  0  0  0
 12 15  1  6  0  0  0
 12  7  1  0  0  0  0
 13  5  2  0  0  0  0
 16 14  2  0  0  0  0
 17 21  1  0  0  0  0
 18 19  1  0  0  0  0
 19 21  2  0  0  0  0
 19 25  1  0  0  0  0
 20 18  2  0  0  0  0
 21 23  1  0  0  0  0
 22 20  1  0  0  0  0
 22 17  2  0  0  0  0
 25 24  3  0  0  0  0
M  END
>  <MODEL>
2

>  <REMARK>
 VINA RESULT:      -8.7      2.882      5.730
  Name = 
  2 active torsions:
  status: ('A' for Active; 'I' for Inactive)
    1  A    between atoms: C_4  and  N_10
    2  A    between atoms: C_13  and  C_20
                            x       y       z     vdW  Elec       q    Type
                         _______ _______ _______ _____ _____    ______ ____

>  <TORSDO>
F 2

$$$$
=
 OpenBabel10232409463D

 25 28  0  0  1  0  0  0  0  0999 V2000
  191.6100  177.6860  145.2210 C   0  0  0  0  0  3  0  0  0  0  0  0
  190.8480  177.2630  146.3300 C   0  0  0  0  0  0  0  0  0  0  0  0
  189.0240  177.4630  142.7200 C   0  0  1  0  0  3  0  0  0  0  0  0
  189.4920  176.9190  146.1530 C   0  0  0  0  0  0  0  0  0  0  0  0
  189.7390  177.4290  143.8230 C   0  0  0  0  0  0  0  0  0  0  0  0
  189.5100  177.8400  141.3970 C   0  0  0  0  0  3  0  0  0  0  0  0
  186.6580  178.0120  142.7350 N   0  0  0  0  0  0  0  0  0  0  0  0
  188.6520  176.4710  147.3030 C   0  0  0  0  0  1  0  0  0  0  0  0
  188.7290  178.1910  140.3760 C   0  0  0  0  0  3  0  0  0  0  0  0
  188.9620  177.0130  144.8650 C   0  0  0  0  0  0  0  0  0  0  0  0
  191.4420  177.1900  147.5840 O   0  0  0  0  0  1  0  0  0  0  0  0
  187.6500  176.9800  143.0600 C   0  0  2  0  0  3  0  0  0  0  0  0
  191.0450  177.7660  143.9800 N   0  0  0  0  0  0  0  0  0  0  0  0
  187.2620  178.3660  140.3560 C   0  0  0  0  0  3  0  0  0  0  0  0
  187.7500  176.7470  144.5090 N   0  0  0  0  0  2  0  0  0  0  0  0
  186.3770  178.3210  141.3620 C   0  0  0  0  0  3  0  0  0  0  0  0
  185.6580  178.4160  143.6860 C   0  0  0  0  0  0  0  0  0  0  0  0
  183.7470  179.1590  145.5640 C   0  0  0  0  0  3  0  0  0  0  0  0
  183.3350  178.7630  144.2900 C   0  0  0  0  0  0  0  0  0  0  0  0
  185.0680  179.1750  145.8800 N   0  0  0  0  0  0  0  0  0  0  0  0
  184.2980  178.3840  143.3450 C   0  0  0  0  0  0  0  0  0  0  0  0
  186.0210  178.8140  144.9800 C   0  0  0  0  0  3  0  0  0  0  0  0
  183.9190  178.0030  142.0980 F   0  0  0  0  0  0  0  0  0  0  0  0
  180.8070  178.7370  143.7070 N   0  0  0  0  0  0  0  0  0  0  0  0
  181.9340  178.7490  143.9670 C   0  0  0  0  0  0  0  0  0  0  0  0
  1  2  1  0  0  0  0
  2 11  1  0  0  0  0
  3  6  1  6  0  0  0
  3 12  1  0  0  0  0
  3  5  1  0  0  0  0
  4  2  2  0  0  0  0
  4  8  1  0  0  0  0
  5 13  1  0  0  0  0
  5 10  2  0  0  0  0
  7 12  1  0  0  0  0
  7 17  1  0  0  0  0
  9  6  2  0  0  0  0
 10  4  1  0  0  0  0
 12 15  1  1  0  0  0
 13  1  2  0  0  0  0
 14  9  1  0  0  0  0
 14 16  2  0  0  0  0
 15 10  1  0  0  0  0
 16  7  1  0  0  0  0
 17 22  1  0  0  0  0
 18 20  1  0  0  0  0
 19 18  2  0  0  0  0
 21 17  2  0  0  0  0
 21 19  1  0  0  0  0
 22 20  2  0  0  0  0
 23 21  1  0  0  0  0
 24 25  3  0  0  0  0
 25 19  1  0  0  0  0
M  END
>  <MODEL>
3

>  <REMARK>
 VINA RESULT:      -8.1      3.015      6.251
  Name = 
  2 active torsions:
  status: ('A' for Active; 'I' for Inactive)
    1  A    between atoms: C_4  and  N_10
    2  A    between atoms: C_13  and  C_20
                            x       y       z     vdW  Elec       q    Type
                         _______ _______ _______ _____ _____    ______ ____

>  <TORSDO>
F 2

$$$$
=
 OpenBabel10232409463D

 25 28  0  0  1  0  0  0  0  0999 V2000
  188.8150  177.2460  142.2530 C   0  0  0  0  0  3  0  0  0  0  0  0
  188.8810  177.4250  140.8550 C   0  0  0  0  0  0  0  0  0  0  0  0
  185.5590  178.6970  142.7910 C   0  0  1  0  0  3  0  0  0  0  0  0
  187.8060  178.0380  140.1790 C   0  0  0  0  0  0  0  0  0  0  0  0
  186.6930  178.2540  142.2930 C   0  0  0  0  0  0  0  0  0  0  0  0
  185.1800  178.6770  144.1990 C   0  0  0  0  0  3  0  0  0  0  0  0
  183.4780  178.5930  141.5440 N   0  0  0  0  0  0  0  0  0  0  0  0
  187.8370  178.2400  138.7000 C   0  0  0  0  0  1  0  0  0  0  0  0
  183.9320  178.8090  144.6480 C   0  0  0  0  0  3  0  0  0  0  0  0
  186.7120  178.4500  140.9420 C   0  0  0  0  0  0  0  0  0  0  0  0
  190.0040  176.9930  140.1600 O   0  0  0  0  0  1  0  0  0  0  0  0
  184.7700  179.2800  141.6630 C   0  0  2  0  0  3  0  0  0  0  0  0
  187.7200  177.6620  142.9550 N   0  0  0  0  0  0  0  0  0  0  0  0
  182.6790  178.9090  143.8700 C   0  0  0  0  0  3  0  0  0  0  0  0
  185.6410  179.0220  140.5050 N   0  0  0  0  0  2  0  0  0  0  0  0
  182.4740  178.7880  142.5510 C   0  0  0  0  0  3  0  0  0  0  0  0
  183.0090  178.0910  140.2810 C   0  0  0  0  0  0  0  0  0  0  0  0
  182.1560  177.0950  137.8290 C   0  0  0  0  0  3  0  0  0  0  0  0
  182.0410  178.4620  138.0880 C   0  0  0  0  0  0  0  0  0  0  0  0
  182.6840  176.2640  138.7660 N   0  0  0  0  0  0  0  0  0  0  0  0
  182.4760  178.9650  139.3210 C   0  0  0  0  0  0  0  0  0  0  0  0
  183.1100  176.7280  139.9710 C   0  0  0  0  0  3  0  0  0  0  0  0
  182.3660  180.2910  139.5960 F   0  0  0  0  0  0  0  0  0  0  0  0
  181.0310  180.0310  136.2850 N   0  0  0  0  0  0  0  0  0  0  0  0
  181.4820  179.3310  137.0890 C   0  0  0  0  0  0  0  0  0  0  0  0
  1 13  1  0  0  0  0
  2  1  2  0  0  0  0
  3  6  1  1  0  0  0
  4  2  1  0  0  0  0
  4 10  2  0  0  0  0
  5  3  1  0  0  0  0
  5 13  2  0  0  0  0
  6  9  2  0  0  0  0
  7 12  1  0  0  0  0
  7 16  1  0  0  0  0
  8  4  1  0  0  0  0
 10  5  1  0  0  0  0
 11  2  1  0  0  0  0
 12 15  1  6  0  0  0
 12  3  1  0  0  0  0
 14  9  1  0  0  0  0
 15 10  1  0  0  0  0
 16 14  2  0  0  0  0
 17  7  1  0  0  0  0
 18 19  2  0  0  0  0
 18 20  1  0  0  0  0
 19 21  1  0  0  0  0
 20 22  2  0  0  0  0
 21 23  1  0  0  0  0
 21 17  2  0  0  0  0
 22 17  1  0  0  0  0
 24 25  3  0  0  0  0
 25 19  1  0  0  0  0
M  END
>  <MODEL>
4

>  <REMARK>
 VINA RESULT:      -7.9      4.357      6.789
  Name = 
  2 active torsions:
  status: ('A' for Active; 'I' for Inactive)
    1  A    between atoms: C_4  and  N_10
    2  A    between atoms: C_13  and  C_20
                            x       y       z     vdW  Elec       q    Type
                         _______ _______ _______ _____ _____    ______ ____

>  <TORSDO>
F 2

$$$$
=
 OpenBabel10232409463D

 25 28  0  0  1  0  0  0  0  0999 V2000
  188.7510  176.8430  142.7420 C   0  0  0  0  0  3  0  0  0  0  0  0
  189.0170  177.2070  141.4050 C   0  0  0  0  0  0  0  0  0  0  0  0
  185.5780  178.5150  143.0960 C   0  0  1  0  0  3  0  0  0  0  0  0
  188.0940  178.0110  140.7050 C   0  0  0  0  0  0  0  0  0  0  0  0
  186.7300  178.0380  142.6770 C   0  0  0  0  0  0  0  0  0  0  0  0
  185.0130  178.3370  144.4290 C   0  0  0  0  0  3  0  0  0  0  0  0
  183.6800  178.7910  141.6060 N   0  0  0  0  0  0  0  0  0  0  0  0
  188.3380  178.4130  139.2880 C   0  0  0  0  0  1  0  0  0  0  0  0
  183.7310  178.5270  144.7390 C   0  0  0  0  0  3  0  0  0  0  0  0
  186.9430  178.4170  141.3840 C   0  0  0  0  0  0  0  0  0  0  0  0
  190.1850  176.7690  140.7930 O   0  0  0  0  0  1  0  0  0  0  0  0
  184.9950  179.3250  141.9820 C   0  0  2  0  0  3  0  0  0  0  0  0
  187.6090  177.2620  143.3620 N   0  0  0  0  0  0  0  0  0  0  0  0
  182.6050  178.8560  143.8400 C   0  0  0  0  0  3  0  0  0  0  0  0
  185.9890  179.1470  140.9120 N   0  0  0  0  0  2  0  0  0  0  0  0
  182.5690  178.9410  142.5030 C   0  0  0  0  0  3  0  0  0  0  0  0
  183.3460  178.5180  140.2350 C   0  0  0  0  0  0  0  0  0  0  0  0
  182.6600  178.0350  137.5840 C   0  0  0  0  0  3  0  0  0  0  0  0
  182.6440  176.9790  138.4970 C   0  0  0  0  0  0  0  0  0  0  0  0
  183.0040  179.2850  137.9910 N   0  0  0  0  0  0  0  0  0  0  0  0
  182.9840  177.2230  139.8330 C   0  0  0  0  0  0  0  0  0  0  0  0
  183.3410  179.5460  139.2820 C   0  0  0  0  0  3  0  0  0  0  0  0
  182.9820  176.2080  140.7360 F   0  0  0  0  0  0  0  0  0  0  0  0
  181.9830  174.6000  137.6990 N   0  0  0  0  0  0  0  0  0  0  0  0
  182.2770  175.6610  138.0550 C   0  0  0  0  0  0  0  0  0  0  0  0
  1 13  1  0  0  0  0
  2  1  2  0  0  0  0
  3  6  1  1  0  0  0
  4 10  2  0  0  0  0
  4  2  1  0  0  0  0
  5  3  1  0  0  0  0
  5 13  2  0  0  0  0
  6  9  2  0  0  0  0
  7 12  1  0  0  0  0
  7 16  1  0  0  0  0
  8  4  1  0  0  0  0
 10  5  1  0  0  0  0
 11  2  1  0  0  0  0
 12 15  1  6  0  0  0
 12  3  1  0  0  0  0
 14  9  1  0  0  0  0
 15 10  1  0  0  0  0
 16 14  2  0  0  0  0
 17  7  1  0  0  0  0
 18 20  2  0  0  0  0
 18 19  1  0  0  0  0
 19 21  2  0  0  0  0
 20 22  1  0  0  0  0
 21 17  1  0  0  0  0
 21 23  1  0  0  0  0
 22 17  2  0  0  0  0
 24 25  3  0  0  0  0
 25 19  1  0  0  0  0
M  END
>  <MODEL>
5

>  <REMARK>
 VINA RESULT:      -7.8      4.024      6.344
  Name = 
  2 active torsions:
  status: ('A' for Active; 'I' for Inactive)
    1  A    between atoms: C_4  and  N_10
    2  A    between atoms: C_13  and  C_20
                            x       y       z     vdW  Elec       q    Type
                         _______ _______ _______ _____ _____    ______ ____

>  <TORSDO>
F 2

$$$$
=
 OpenBabel10232409463D

 25 28  0  0  1  0  0  0  0  0999 V2000
  189.7660  178.0320  146.3910 C   0  0  0  0  0  3  0  0  0  0  0  0
  188.3740  177.8120  146.4710 C   0  0  0  0  0  0  0  0  0  0  0  0
  190.2110  177.1630  142.9210 C   0  0  1  0  0  3  0  0  0  0  0  0
  187.6710  177.3720  145.3310 C   0  0  0  0  0  0  0  0  0  0  0  0
  189.7460  177.3960  144.1290 C   0  0  0  0  0  0  0  0  0  0  0  0
  191.6040  177.2790  142.5040 C   0  0  0  0  0  3  0  0  0  0  0  0
  188.8880  177.5870  140.9290 N   0  0  0  0  0  0  0  0  0  0  0  0
  186.1980  177.1340  145.3760 C   0  0  0  0  0  1  0  0  0  0  0  0
  192.0090  177.3700  141.2380 C   0  0  0  0  0  3  0  0  0  0  0  0
  188.4010  177.1690  144.1580 C   0  0  0  0  0  0  0  0  0  0  0  0
  187.7130  178.0320  147.6740 O   0  0  0  0  0  1  0  0  0  0  0  0
  189.0660  176.6950  142.0810 C   0  0  2  0  0  3  0  0  0  0  0  0
  190.4350  177.8220  145.2190 N   0  0  0  0  0  0  0  0  0  0  0  0
  191.1880  177.4650  140.0130 C   0  0  0  0  0  3  0  0  0  0  0  0
  187.9350  176.7750  143.0210 N   0  0  0  0  0  2  0  0  0  0  0  0
  189.8610  177.5870  139.8740 C   0  0  0  0  0  3  0  0  0  0  0  0
  187.6000  178.1310  140.5940 C   0  0  0  0  0  0  0  0  0  0  0  0
  185.0880  179.1640  139.9980 C   0  0  0  0  0  3  0  0  0  0  0  0
  185.6990  178.2920  139.0960 C   0  0  0  0  0  0  0  0  0  0  0  0
  185.7150  179.4990  141.1560 N   0  0  0  0  0  0  0  0  0  0  0  0
  186.9620  177.7670  139.3980 C   0  0  0  0  0  0  0  0  0  0  0  0
  186.9420  179.0050  141.4700 C   0  0  0  0  0  3  0  0  0  0  0  0
  187.5770  176.9220  138.5300 F   0  0  0  0  0  0  0  0  0  0  0  0
  184.4830  177.6640  136.8910 N   0  0  0  0  0  0  0  0  0  0  0  0
  185.0250  177.9440  137.8740 C   0  0  0  0  0  0  0  0  0  0  0  0
  1  2  1  0  0  0  0
  2 11  1  0  0  0  0
  3  6  1  1  0  0  0
  3  5  1  0  0  0  0
  4  8  1  0  0  0  0
  4  2  2  0  0  0  0
  5 10  2  0  0  0  0
  5 13  1  0  0  0  0
  7 12  1  0  0  0  0
  9  6  2  0  0  0  0
 10  4  1  0  0  0  0
 12  3  1  0  0  0  0
 12 15  1  1  0  0  0
 13  1  2  0  0  0  0
 14  9  1  0  0  0  0
 15 10  1  0  0  0  0
 16 14  2  0  0  0  0
 16  7  1  0  0  0  0
 17  7  1  0  0  0  0
 17 22  1  0  0  0  0
 18 20  1  0  0  0  0
 19 21  1  0  0  0  0
 19 18  2  0  0  0  0
 20 22  2  0  0  0  0
 21 17  2  0  0  0  0
 23 21  1  0  0  0  0
 24 25  3  0  0  0  0
 25 19  1  0  0  0  0
M  END
>  <MODEL>
6

>  <REMARK>
 VINA RESULT:      -7.4      2.445      3.725
  Name = 
  2 active torsions:
  status: ('A' for Active; 'I' for Inactive)
    1  A    between atoms: C_4  and  N_10
    2  A    between atoms: C_13  and  C_20
                            x       y       z     vdW  Elec       q    Type
                         _______ _______ _______ _____ _____    ______ ____

>  <TORSDO>
F 2

$$$$
=
 OpenBabel10232409463D

 25 28  0  0  1  0  0  0  0  0999 V2000
  189.1330  176.5400  147.5030 C   0  0  0  0  0  3  0  0  0  0  0  0
  190.4360  176.6970  146.9850 C   0  0  0  0  0  0  0  0  0  0  0  0
  187.3270  178.0830  144.7930 C   0  0  1  0  0  3  0  0  0  0  0  0
  190.6190  177.3300  145.7390 C   0  0  0  0  0  0  0  0  0  0  0  0
  188.2400  177.6040  145.6090 C   0  0  0  0  0  0  0  0  0  0  0  0
  185.8880  178.0930  145.0330 C   0  0  0  0  0  3  0  0  0  0  0  0
  187.5940  178.0180  142.3800 N   0  0  0  0  0  0  0  0  0  0  0  0
  191.9820  177.5100  145.1560 C   0  0  0  0  0  1  0  0  0  0  0  0
  184.9650  178.2650  144.0870 C   0  0  0  0  0  3  0  0  0  0  0  0
  189.4810  177.7800  145.0680 C   0  0  0  0  0  0  0  0  0  0  0  0
  191.5240  176.2260  147.7100 O   0  0  0  0  0  1  0  0  0  0  0  0
  188.0380  178.6720  143.6170 C   0  0  2  0  0  3  0  0  0  0  0  0
  188.0500  176.9950  146.8070 N   0  0  0  0  0  0  0  0  0  0  0  0
  185.1550  178.3870  142.6260 C   0  0  0  0  0  3  0  0  0  0  0  0
  189.4470  178.3750  143.9230 N   0  0  0  0  0  2  0  0  0  0  0  0
  186.2660  178.2530  141.8890 C   0  0  0  0  0  3  0  0  0  0  0  0
  188.5370  177.5110  141.4200 C   0  0  0  0  0  0  0  0  0  0  0  0
  190.4040  176.5490  139.5980 C   0  0  0  0  0  3  0  0  0  0  0  0
  189.4200  177.4390  139.1620 C   0  0  0  0  0  0  0  0  0  0  0  0
  190.4470  176.1630  140.9000 N   0  0  0  0  0  0  0  0  0  0  0  0
  188.4830  177.9280  140.0810 C   0  0  0  0  0  0  0  0  0  0  0  0
  189.5470  176.6220  141.8100 C   0  0  0  0  0  3  0  0  0  0  0  0
  187.5130  178.7880  139.6760 F   0  0  0  0  0  0  0  0  0  0  0  0
  189.3570  178.1640  136.6720 N   0  0  0  0  0  0  0  0  0  0  0  0
  189.3850  177.8400  137.7820 C   0  0  0  0  0  0  0  0  0  0  0  0
  2  1  1  0  0  0  0
  2 11  1  0  0  0  0
  3  6  1  1  0  0  0
  3  5  1  0  0  0  0
  4  2  2  0  0  0  0
  5 13  1  0  0  0  0
  7 12  1  0  0  0  0
  8  4  1  0  0  0  0
  9  6  2  0  0  0  0
 10  5  2  0  0  0  0
 10  4  1  0  0  0  0
 12 15  1  1  0  0  0
 12  3  1  0  0  0  0
 13  1  2  0  0  0  0
 14  9  1  0  0  0  0
 15 10  1  0  0  0  0
 16  7  1  0  0  0  0
 16 14  2  0  0  0  0
 17 22  1  0  0  0  0
 17  7  1  0  0  0  0
 18 20  1  0  0  0  0
 19 18  2  0  0  0  0
 19 21  1  0  0  0  0
 20 22  2  0  0  0  0
 21 17  2  0  0  0  0
 23 21  1  0  0  0  0
 24 25  3  0  0  0  0
 25 19  1  0  0  0  0
M  END
>  <MODEL>
7

>  <REMARK>
 VINA RESULT:      -7.3      2.424      4.260
  Name = 
  2 active torsions:
  status: ('A' for Active; 'I' for Inactive)
    1  A    between atoms: C_4  and  N_10
    2  A    between atoms: C_13  and  C_20
                            x       y       z     vdW  Elec       q    Type
                         _______ _______ _______ _____ _____    ______ ____

>  <TORSDO>
F 2

$$$$
=
 OpenBabel10232409463D

 25 28  0  0  1  0  0  0  0  0999 V2000
  187.6860  177.3670  143.5810 C   0  0  0  0  0  3  0  0  0  0  0  0
  188.1270  177.5500  142.2540 C   0  0  0  0  0  0  0  0  0  0  0  0
  184.3840  178.7650  143.2110 C   0  0  1  0  0  3  0  0  0  0  0  0
  187.2670  178.1490  141.3100 C   0  0  0  0  0  0  0  0  0  0  0  0
  185.6180  178.3420  143.0410 C   0  0  0  0  0  0  0  0  0  0  0  0
  183.6360  178.7370  144.4630 C   0  0  0  0  0  3  0  0  0  0  0  0
  182.7230  178.6330  141.4450 N   0  0  0  0  0  0  0  0  0  0  0  0
  187.6960  178.3540  139.8950 C   0  0  0  0  0  1  0  0  0  0  0  0
  182.3110  178.8480  144.5550 C   0  0  0  0  0  3  0  0  0  0  0  0
  186.0000  178.5410  141.7460 C   0  0  0  0  0  0  0  0  0  0  0  0
  189.4030  177.1370  141.8910 O   0  0  0  0  0  1  0  0  0  0  0  0
  183.9230  179.3390  141.9100 C   0  0  2  0  0  3  0  0  0  0  0  0
  186.4350  177.7650  143.9590 N   0  0  0  0  0  0  0  0  0  0  0  0
  181.3160  178.9300  143.4650 C   0  0  0  0  0  3  0  0  0  0  0  0
  185.0800  179.0980  141.0330 N   0  0  0  0  0  2  0  0  0  0  0  0
  181.4800  178.8100  142.1400 C   0  0  0  0  0  3  0  0  0  0  0  0
  182.6230  178.1270  140.1030 C   0  0  0  0  0  0  0  0  0  0  0  0
  182.4890  177.1360  137.5080 C   0  0  0  0  0  3  0  0  0  0  0  0
  182.0050  178.4180  137.7760 C   0  0  0  0  0  0  0  0  0  0  0  0
  183.0240  176.3860  138.5070 N   0  0  0  0  0  0  0  0  0  0  0  0
  182.0770  178.9190  139.0810 C   0  0  0  0  0  0  0  0  0  0  0  0
  183.1020  176.8490  139.7830 C   0  0  0  0  0  3  0  0  0  0  0  0
  181.6050  180.1610  139.3640 F   0  0  0  0  0  0  0  0  0  0  0  0
  180.9910  179.8350  135.8530 N   0  0  0  0  0  0  0  0  0  0  0  0
  181.4430  179.2030  136.7100 C   0  0  0  0  0  0  0  0  0  0  0  0
  1 13  1  0  0  0  0
  2  1  2  0  0  0  0
  3  6  1  1  0  0  0
  4 10  2  0  0  0  0
  4  2  1  0  0  0  0
  5  3  1  0  0  0  0
  5 13  2  0  0  0  0
  6  9  2  0  0  0  0
  7 12  1  0  0  0  0
  7 16  1  0  0  0  0
  8  4  1  0  0  0  0
 10  5  1  0  0  0  0
 11  2  1  0  0  0  0
 12 15  1  6  0  0  0
 12  3  1  0  0  0  0
 14  9  1  0  0  0  0
 15 10  1  0  0  0  0
 16 14  2  0  0  0  0
 17  7  1  0  0  0  0
 18 19  2  0  0  0  0
 18 20  1  0  0  0  0
 19 21  1  0  0  0  0
 20 22  2  0  0  0  0
 21 23  1  0  0  0  0
 21 17  2  0  0  0  0
 22 17  1  0  0  0  0
 24 25  3  0  0  0  0
 25 19  1  0  0  0  0
M  END
>  <MODEL>
8

>  <REMARK>
 VINA RESULT:      -7.3      4.518      6.921
  Name = 
  2 active torsions:
  status: ('A' for Active; 'I' for Inactive)
    1  A    between atoms: C_4  and  N_10
    2  A    between atoms: C_13  and  C_20
                            x       y       z     vdW  Elec       q    Type
                         _______ _______ _______ _____ _____    ______ ____

>  <TORSDO>
F 2

$$$$
=
 OpenBabel10232409463D

 25 28  0  0  1  0  0  0  0  0999 V2000
  183.8260  179.3030  145.2160 C   0  0  0  0  0  3  0  0  0  0  0  0
  184.0040  179.0310  143.8430 C   0  0  0  0  0  0  0  0  0  0  0  0
  186.7780  177.6400  146.4440 C   0  0  1  0  0  3  0  0  0  0  0  0
  185.1240  178.2860  143.4200 C   0  0  0  0  0  0  0  0  0  0  0  0
  185.8020  178.1340  145.7150 C   0  0  0  0  0  0  0  0  0  0  0  0
  186.8910  177.7300  147.8960 C   0  0  0  0  0  3  0  0  0  0  0  0
  189.0550  177.4860  145.6130 N   0  0  0  0  0  0  0  0  0  0  0  0
  185.3480  177.9810  141.9760 C   0  0  0  0  0  1  0  0  0  0  0  0
  188.0170  177.5310  148.5810 C   0  0  0  0  0  3  0  0  0  0  0  0
  186.0160  177.8440  144.3990 C   0  0  0  0  0  0  0  0  0  0  0  0
  183.0730  179.5000  142.9240 O   0  0  0  0  0  1  0  0  0  0  0  0
  187.7050  176.9150  145.5220 C   0  0  2  0  0  3  0  0  0  0  0  0
  184.7290  178.8530  146.1360 N   0  0  0  0  0  0  0  0  0  0  0  0
  189.3770  177.2760  148.0630 C   0  0  0  0  0  3  0  0  0  0  0  0
  187.0910  177.1570  144.2070 N   0  0  0  0  0  2  0  0  0  0  0  0
  189.8330  177.2840  146.8020 C   0  0  0  0  0  3  0  0  0  0  0  0
  189.7930  177.8560  144.4360 C   0  0  0  0  0  0  0  0  0  0  0  0
  191.1950  178.6250  142.1620 C   0  0  0  0  0  3  0  0  0  0  0  0
  190.4570  177.4400  142.1410 C   0  0  0  0  0  0  0  0  0  0  0  0
  191.2220  179.3940  143.2820 N   0  0  0  0  0  0  0  0  0  0  0  0
  189.7470  177.0550  143.2850 C   0  0  0  0  0  0  0  0  0  0  0  0
  190.5430  179.0400  144.4050 C   0  0  0  0  0  3  0  0  0  0  0  0
  189.0290  175.9020  143.2890 F   0  0  0  0  0  0  0  0  0  0  0  0
  190.4180  175.9890  139.9910 N   0  0  0  0  0  0  0  0  0  0  0  0
  190.4360  176.6360  140.9500 C   0  0  0  0  0  0  0  0  0  0  0  0
  1 13  1  0  0  0  0
  2  1  2  0  0  0  0
  3  6  1  1  0  0  0
  4  2  1  0  0  0  0
  4 10  2  0  0  0  0
  5 13  2  0  0  0  0
  5  3  1  0  0  0  0
  6  9  2  0  0  0  0
  7 16  1  0  0  0  0
  8  4  1  0  0  0  0
 10  5  1  0  0  0  0
 11  2  1  0  0  0  0
 12 15  1  6  0  0  0
 12  7  1  0  0  0  0
 12  3  1  0  0  0  0
 14  9  1  0  0  0  0
 15 10  1  0  0  0  0
 16 14  2  0  0  0  0
 17  7  1  0  0  0  0
 18 20  1  0  0  0  0
 19 18  2  0  0  0  0
 19 21  1  0  0  0  0
 20 22  2  0  0  0  0
 21 23  1  0  0  0  0
 21 17  2  0  0  0  0
 22 17  1  0  0  0  0
 24 25  3  0  0  0  0
 25 19  1  0  0  0  0
M  END
>  <MODEL>
9

>  <REMARK>
 VINA RESULT:      -7.0      1.971      2.794
  Name = 
  2 active torsions:
  status: ('A' for Active; 'I' for Inactive)
    1  A    between atoms: C_4  and  N_10
    2  A    between atoms: C_13  and  C_20
                            x       y       z     vdW  Elec       q    Type
                         _______ _______ _______ _____ _____    ______ ____

>  <TORSDO>
F 2

$$$$
