=
 OpenBabel10232411263D

 36 38  0  0  1  0  0  0  0  0999 V2000
  191.0960  176.7360  140.6730 C   0  0  2  0  0  3  0  0  0  0  0  0
  190.4910  174.3090  134.8120 O   0  0  0  0  0  0  0  0  0  0  0  0
  193.2130  173.6120  134.3460 O   0  0  0  0  0  1  0  0  0  0  0  0
  192.3820  176.7420  138.0830 C   0  0  2  0  0  3  0  0  0  0  0  0
  190.7790  173.4730  136.9710 F   0  0  0  0  0  0  0  0  0  0  0  0
  194.5010  175.8540  137.3020 O   0  0  0  0  0  0  0  0  0  0  0  0
  189.0140  176.5310  136.0160 C   0  0  0  0  0  0  0  0  0  0  0  0
  191.9840  177.8170  140.2560 N   0  0  0  0  0  2  0  0  0  0  0  0
  191.0910  172.1330  135.1870 F   0  0  0  0  0  0  0  0  0  0  0  0
  188.7690  175.2310  136.1540 C   0  0  0  0  0  3  0  0  0  0  0  0
  193.0240  174.3940  138.3060 O   0  0  0  0  0  1  0  0  0  0  0  0
  191.2170  173.4320  135.6530 C   0  0  0  0  0  0  0  0  0  0  0  0
  188.8510  177.4170  137.2100 C   0  0  1  0  0  3  0  0  0  0  0  0
  190.9320  176.4810  138.1610 N   0  0  2  0  0  0  0  0  0  0  0  0
  189.1160  174.2260  135.1010 C   0  0  0  0  0  2  0  0  0  0  0  0
  192.6950  173.8310  135.6280 C   0  0  2  0  0  3  0  0  0  0  0  0
  193.1480  175.5400  137.5090 C   0  0  1  0  0  0  0  0  0  0  0  0
  192.8930  175.3070  136.0270 C   0  0  1  0  0  3  0  0  0  0  0  0
  190.2180  177.7150  137.8250 C   0  0  0  0  0  2  0  0  0  0  0  0
  189.5270  177.0420  134.8270 O   0  0  0  0  0  1  0  0  0  0  0  0
  190.4810  175.9880  139.4740 C   0  0  0  0  0  2  0  0  0  0  0  0
  193.0020  177.2220  139.4060 C   0  0  0  0  0  2  0  0  0  0  0  0
  194.3530  175.6820  135.9130 C   0  0  0  0  0  2  0  0  0  0  0  0
  190.0170  177.2240  141.6430 C   0  0  1  0  0  3  0  0  0  0  0  0
  188.7050  177.4720  140.9180 C   0  0  0  0  0  1  0  0  0  0  0  0
  189.8140  176.3130  142.8150 C   0  0  0  0  0  0  0  0  0  0  0  0
  190.4520  175.0800  142.8740 O   0  0  0  0  0  1  0  0  0  0  0  0
  189.0250  176.6900  143.8070 C   0  0  0  0  0  2  0  0  0  0  0  0
  188.1670  178.7250  136.8360 C   0  0  0  0  0  2  0  0  0  0  0  0
  186.6510  178.5790  136.8400 C   0  0  0  0  0  2  0  0  0  0  0  0
  186.1540  178.0620  138.1790 C   0  0  0  0  0  2  0  0  0  0  0  0
  184.6570  178.2890  138.3040 C   0  0  0  0  0  2  0  0  0  0  0  0
  184.2910  178.6120  139.7420 C   0  0  0  0  0  2  0  0  0  0  0  0
  185.1950  179.5330  140.2710 O   0  0  0  0  0  0  0  0  0  0  0  0
  184.1240  178.4940  142.1190 C   0  0  0  0  0  1  0  0  0  0  0  0
  185.4000  179.1080  141.5830 C   0  0  0  0  0  2  0  0  0  0  0  0
  1 24  1  1  0  0  0
  2 15  1  0  0  0  0
  2 12  1  0  0  0  0
  4 14  1  0  0  0  0
  4 22  1  1  0  0  0
  6 17  1  0  0  0  0
  7 10  2  0  0  0  0
  7 13  1  0  0  0  0
  8  1  1  0  0  0  0
  9 12  1  0  0  0  0
 12  5  1  0  0  0  0
 13 29  1  6  0  0  0
 13 19  1  0  0  0  0
 14 19  1  1  0  0  0
 14 21  1  0  0  0  0
 15 10  1  0  0  0  0
 16  3  1  6  0  0  0
 16 12  1  0  0  0  0
 16 18  1  0  0  0  0
 17  4  1  0  0  0  0
 17 11  1  1  0  0  0
 18 23  1  6  0  0  0
 18 17  1  0  0  0  0
 20  7  1  0  0  0  0
 21  1  1  0  0  0  0
 22  8  1  0  0  0  0
 23  6  1  0  0  0  0
 24 25  1  6  0  0  0
 24 26  1  0  0  0  0
 26 27  1  0  0  0  0
 26 28  2  0  0  0  0
 29 30  1  0  0  0  0
 30 31  1  0  0  0  0
 31 32  1  0  0  0  0
 32 33  1  0  0  0  0
 33 34  1  0  0  0  0
 34 36  1  0  0  0  0
 36 35  1  0  0  0  0
M  END
>  <MODEL>
1

>  <REMARK>
 VINA RESULT:      -5.8      0.000      0.000
  Name = 
  9 active torsions:
  status: ('A' for Active; 'I' for Inactive)
    1  A    between atoms: C_1  and  C_21
    2  A    between atoms: C_1  and  C_30
    3  A    between atoms: C_2  and  C_5
    4  A    between atoms: C_2  and  C_30
    5  A    between atoms: C_3  and  C_15
    6  A    between atoms: C_5  and  C_22
    7  A    between atoms: C_7  and  C_15
    8  A    between atoms: C_22  and  O_24
    9  A    between atoms: O_24  and  C_34
                            x       y       z     vdW  Elec       q    Type
                         _______ _______ _______ _____ _____    ______ ____

>  <TORSDO>
F 9

$$$$
=
 OpenBabel10232411263D

 36 38  0  0  1  0  0  0  0  0999 V2000
  191.1010  176.6880  140.5880 C   0  0  2  0  0  3  0  0  0  0  0  0
  190.8380  174.3400  134.6700 O   0  0  0  0  0  0  0  0  0  0  0  0
  193.5860  173.6640  134.3480 O   0  0  0  0  0  1  0  0  0  0  0  0
  192.5290  176.7380  138.0740 C   0  0  2  0  0  3  0  0  0  0  0  0
  191.0100  173.4750  136.8310 F   0  0  0  0  0  0  0  0  0  0  0  0
  194.6940  175.8720  137.4010 O   0  0  0  0  0  0  0  0  0  0  0  0
  189.2830  176.5370  135.8200 C   0  0  0  0  0  0  0  0  0  0  0  0
  192.0040  177.7800  140.2360 N   0  0  0  0  0  2  0  0  0  0  0  0
  191.4290  172.1620  135.0490 F   0  0  0  0  0  0  0  0  0  0  0  0
  189.0390  175.2340  135.9270 C   0  0  0  0  0  3  0  0  0  0  0  0
  193.1720  174.3900  138.3000 O   0  0  0  0  0  1  0  0  0  0  0  0
  191.5220  173.4550  135.5380 C   0  0  0  0  0  0  0  0  0  0  0  0
  189.0480  177.4050  137.0140 C   0  0  1  0  0  3  0  0  0  0  0  0
  191.0790  176.4680  138.0670 N   0  0  2  0  0  0  0  0  0  0  0  0
  189.4500  174.2450  134.8810 C   0  0  0  0  0  2  0  0  0  0  0  0
  192.9960  173.8630  135.6010 C   0  0  2  0  0  3  0  0  0  0  0  0
  193.3330  175.5470  137.5280 C   0  0  1  0  0  0  0  0  0  0  0  0
  193.1620  175.3340  136.0310 C   0  0  1  0  0  3  0  0  0  0  0  0
  190.3770  177.7020  137.7090 C   0  0  0  0  0  2  0  0  0  0  0  0
  189.8580  177.0670  134.6680 O   0  0  0  0  0  1  0  0  0  0  0  0
  190.5580  175.9540  139.3460 C   0  0  0  0  0  2  0  0  0  0  0  0
  193.0720  177.2020  139.4360 C   0  0  0  0  0  2  0  0  0  0  0  0
  194.6240  175.7180  136.0040 C   0  0  0  0  0  2  0  0  0  0  0  0
  189.9660  177.1570  141.5020 C   0  0  1  0  0  3  0  0  0  0  0  0
  188.7330  177.5240  140.6960 C   0  0  0  0  0  1  0  0  0  0  0  0
  189.6260  176.1740  142.5800 C   0  0  0  0  0  0  0  0  0  0  0  0
  190.5260  175.1780  142.9420 O   0  0  0  0  0  1  0  0  0  0  0  0
  188.4600  176.2590  143.1990 C   0  0  0  0  0  2  0  0  0  0  0  0
  188.3780  178.7150  136.6210 C   0  0  0  0  0  2  0  0  0  0  0  0
  186.8660  178.5570  136.5220 C   0  0  0  0  0  2  0  0  0  0  0  0
  186.3510  177.5680  137.5540 C   0  0  0  0  0  2  0  0  0  0  0  0
  184.9560  177.0980  137.1760 C   0  0  0  0  0  2  0  0  0  0  0  0
  184.9640  175.6080  136.8810 C   0  0  0  0  0  2  0  0  0  0  0  0
  186.1290  175.0260  137.3830 O   0  0  0  0  0  0  0  0  0  0  0  0
  184.6690  173.1880  137.7470 C   0  0  0  0  0  1  0  0  0  0  0  0
  185.9710  173.6620  137.1380 C   0  0  0  0  0  2  0  0  0  0  0  0
  1 24  1  6  0  0  0
  2 15  1  0  0  0  0
  2 12  1  0  0  0  0
  4 22  1  1  0  0  0
  6 17  1  0  0  0  0
  7 10  2  0  0  0  0
  7 13  1  0  0  0  0
  8  1  1  0  0  0  0
  9 12  1  0  0  0  0
 12 16  1  0  0  0  0
 12  5  1  0  0  0  0
 13 29  1  6  0  0  0
 13 19  1  0  0  0  0
 14 19  1  1  0  0  0
 14  4  1  0  0  0  0
 14 21  1  0  0  0  0
 15 10  1  0  0  0  0
 16  3  1  6  0  0  0
 16 18  1  0  0  0  0
 17  4  1  0  0  0  0
 17 11  1  1  0  0  0
 18 23  1  6  0  0  0
 18 17  1  0  0  0  0
 20  7  1  0  0  0  0
 21  1  1  0  0  0  0
 22  8  1  0  0  0  0
 23  6  1  0  0  0  0
 24 25  1  6  0  0  0
 24 26  1  0  0  0  0
 26 27  1  0  0  0  0
 26 28  2  0  0  0  0
 30 29  1  0  0  0  0
 30 31  1  0  0  0  0
 32 31  1  0  0  0  0
 33 32  1  0  0  0  0
 33 34  1  0  0  0  0
 36 34  1  0  0  0  0
 36 35  1  0  0  0  0
M  END
>  <MODEL>
2

>  <REMARK>
 VINA RESULT:      -5.3      1.527      2.048
  Name = 
  9 active torsions:
  status: ('A' for Active; 'I' for Inactive)
    1  A    between atoms: C_1  and  C_21
    2  A    between atoms: C_1  and  C_30
    3  A    between atoms: C_2  and  C_5
    4  A    between atoms: C_2  and  C_30
    5  A    between atoms: C_3  and  C_15
    6  A    between atoms: C_5  and  C_22
    7  A    between atoms: C_7  and  C_15
    8  A    between atoms: C_22  and  O_24
    9  A    between atoms: O_24  and  C_34
                            x       y       z     vdW  Elec       q    Type
                         _______ _______ _______ _____ _____    ______ ____

>  <TORSDO>
F 9

$$$$
=
 OpenBabel10232411263D

 36 38  0  0  1  0  0  0  0  0999 V2000
  181.2090  177.6900  138.1520 C   0  0  2  0  0  3  0  0  0  0  0  0
  187.3110  176.6880  136.6120 O   0  0  0  0  0  0  0  0  0  0  0  0
  187.0810  174.0230  135.6340 O   0  0  0  0  0  1  0  0  0  0  0  0
  183.2810  175.6820  138.3300 C   0  0  2  0  0  3  0  0  0  0  0  0
  185.3270  177.1430  135.4700 F   0  0  0  0  0  0  0  0  0  0  0  0
  183.5540  173.5090  137.2840 O   0  0  0  0  0  0  0  0  0  0  0  0
  186.2360  178.2670  138.8300 C   0  0  0  0  0  0  0  0  0  0  0  0
  181.1700  176.6290  139.1540 N   0  0  0  0  0  2  0  0  0  0  0  0
  187.1400  176.4180  134.3470 F   0  0  0  0  0  0  0  0  0  0  0  0
  186.3890  178.6510  137.5660 C   0  0  0  0  0  3  0  0  0  0  0  0
  183.2710  175.3400  135.9090 O   0  0  0  0  0  1  0  0  0  0  0  0
  186.4520  176.3290  135.5450 C   0  0  0  0  0  0  0  0  0  0  0  0
  185.0120  178.7090  139.5660 C   0  0  1  0  0  3  0  0  0  0  0  0
  183.6680  177.1030  138.2520 N   0  0  2  0  0  0  0  0  0  0  0  0
  187.4470  178.0870  136.6710 C   0  0  0  0  0  2  0  0  0  0  0  0
  185.9850  174.8860  135.7490 C   0  0  2  0  0  3  0  0  0  0  0  0
  183.7990  174.8830  137.1230 C   0  0  1  0  0  0  0  0  0  0  0  0
  185.3090  174.6940  137.1220 C   0  0  1  0  0  3  0  0  0  0  0  0
  183.9890  177.5740  139.6010 C   0  0  0  0  0  2  0  0  0  0  0  0
  187.1270  177.3740  139.4210 O   0  0  0  0  0  1  0  0  0  0  0  0
  182.6400  177.9730  137.6530 C   0  0  0  0  0  2  0  0  0  0  0  0
  181.7760  175.4550  138.5480 C   0  0  0  0  0  2  0  0  0  0  0  0
  184.9350  173.2420  137.3150 C   0  0  0  0  0  2  0  0  0  0  0  0
  180.5250  178.9680  138.6450 C   0  0  1  0  0  3  0  0  0  0  0  0
  180.7650  179.1750  140.1310 C   0  0  0  0  0  1  0  0  0  0  0  0
  180.9110  180.1880  137.8670 C   0  0  0  0  0  0  0  0  0  0  0  0
  180.5440  180.3250  136.5330 O   0  0  0  0  0  1  0  0  0  0  0  0
  181.6040  181.1480  138.4580 C   0  0  0  0  0  2  0  0  0  0  0  0
  185.3470  179.1330  140.9900 C   0  0  0  0  0  2  0  0  0  0  0  0
  184.5920  178.2890  142.0110 C   0  0  0  0  0  2  0  0  0  0  0  0
  183.4820  179.0910  142.6690 C   0  0  0  0  0  2  0  0  0  0  0  0
  183.3790  178.7280  144.1410 C   0  0  0  0  0  2  0  0  0  0  0  0
  184.6490  179.1250  144.8720 C   0  0  0  0  0  2  0  0  0  0  0  0
  184.4940  178.9250  146.2450 O   0  0  0  0  0  0  0  0  0  0  0  0
  186.6130  178.1120  145.5430 C   0  0  0  0  0  1  0  0  0  0  0  0
  185.7760  178.6140  146.6990 C   0  0  0  0  0  2  0  0  0  0  0  0
  1 24  1  1  0  0  0
  1  8  1  0  0  0  0
  2 15  1  0  0  0  0
  4 22  1  6  0  0  0
  5 12  1  0  0  0  0
  6 23  1  0  0  0  0
  7 20  1  0  0  0  0
  7 13  1  0  0  0  0
  9 12  1  0  0  0  0
 10  7  2  0  0  0  0
 12 16  1  0  0  0  0
 12  2  1  0  0  0  0
 13 19  1  0  0  0  0
 13 29  1  1  0  0  0
 14 21  1  1  0  0  0
 14  4  1  0  0  0  0
 14 19  1  0  0  0  0
 15 10  1  0  0  0  0
 16  3  1  1  0  0  0
 16 18  1  0  0  0  0
 17 11  1  6  0  0  0
 17  6  1  0  0  0  0
 17  4  1  0  0  0  0
 18 17  1  0  0  0  0
 18 23  1  6  0  0  0
 21  1  1  0  0  0  0
 22  8  1  0  0  0  0
 24 25  1  1  0  0  0
 26 28  2  0  0  0  0
 26 24  1  0  0  0  0
 27 26  1  0  0  0  0
 29 30  1  0  0  0  0
 30 31  1  0  0  0  0
 31 32  1  0  0  0  0
 32 33  1  0  0  0  0
 33 34  1  0  0  0  0
 34 36  1  0  0  0  0
 35 36  1  0  0  0  0
M  END
>  <MODEL>
3

>  <REMARK>
 VINA RESULT:      -5.3      4.749      7.784
  Name = 
  9 active torsions:
  status: ('A' for Active; 'I' for Inactive)
    1  A    between atoms: C_1  and  C_21
    2  A    between atoms: C_1  and  C_30
    3  A    between atoms: C_2  and  C_5
    4  A    between atoms: C_2  and  C_30
    5  A    between atoms: C_3  and  C_15
    6  A    between atoms: C_5  and  C_22
    7  A    between atoms: C_7  and  C_15
    8  A    between atoms: C_22  and  O_24
    9  A    between atoms: O_24  and  C_34
                            x       y       z     vdW  Elec       q    Type
                         _______ _______ _______ _____ _____    ______ ____

>  <TORSDO>
F 9

$$$$
=
 OpenBabel10232411263D

 36 38  0  0  1  0  0  0  0  0999 V2000
  191.1390  176.6760  140.6710 C   0  0  2  0  0  3  0  0  0  0  0  0
  190.5430  174.2600  134.8040 O   0  0  0  0  0  0  0  0  0  0  0  0
  193.2640  173.5530  134.3470 O   0  0  0  0  0  1  0  0  0  0  0  0
  192.4330  176.6810  138.0850 C   0  0  2  0  0  3  0  0  0  0  0  0
  190.8200  173.4190  136.9640 F   0  0  0  0  0  0  0  0  0  0  0  0
  194.5510  175.7860  137.3100 O   0  0  0  0  0  0  0  0  0  0  0  0
  189.0710  176.4860  136.0070 C   0  0  0  0  0  0  0  0  0  0  0  0
  192.0320  177.7550  140.2590 N   0  0  0  0  0  2  0  0  0  0  0  0
  191.1330  172.0820  135.1790 F   0  0  0  0  0  0  0  0  0  0  0  0
  188.8210  175.1870  136.1430 C   0  0  0  0  0  3  0  0  0  0  0  0
  193.0660  174.3300  138.3060 O   0  0  0  0  0  1  0  0  0  0  0  0
  191.2630  173.3790  135.6460 C   0  0  0  0  0  0  0  0  0  0  0  0
  188.9070  177.3710  137.2010 C   0  0  1  0  0  3  0  0  0  0  0  0
  190.9820  176.4260  138.1580 N   0  0  2  0  0  0  0  0  0  0  0  0
  189.1670  174.1820  135.0890 C   0  0  0  0  0  2  0  0  0  0  0  0
  192.7420  173.7730  135.6260 C   0  0  2  0  0  3  0  0  0  0  0  0
  193.1960  175.4770  137.5120 C   0  0  1  0  0  0  0  0  0  0  0  0
  192.9450  175.2470  136.0290 C   0  0  1  0  0  3  0  0  0  0  0  0
  190.2740  177.6620  137.8210 C   0  0  0  0  0  2  0  0  0  0  0  0
  189.5900  176.9970  134.8200 O   0  0  0  0  0  1  0  0  0  0  0  0
  190.5250  175.9320  139.4680 C   0  0  0  0  0  2  0  0  0  0  0  0
  193.0510  177.1570  139.4100 C   0  0  0  0  0  2  0  0  0  0  0  0
  194.4060  175.6160  135.9200 C   0  0  0  0  0  2  0  0  0  0  0  0
  190.0580  177.1670  141.6380 C   0  0  1  0  0  3  0  0  0  0  0  0
  188.7620  177.4590  140.9030 C   0  0  0  0  0  1  0  0  0  0  0  0
  189.8220  176.2370  142.7880 C   0  0  0  0  0  0  0  0  0  0  0  0
  190.8550  175.4560  143.2930 O   0  0  0  0  0  1  0  0  0  0  0  0
  188.6190  176.1630  143.3330 C   0  0  0  0  0  2  0  0  0  0  0  0
  188.2300  178.6830  136.8270 C   0  0  0  0  0  2  0  0  0  0  0  0
  186.8060  178.4510  136.3380 C   0  0  0  0  0  2  0  0  0  0  0  0
  185.9890  177.6940  137.3710 C   0  0  0  0  0  2  0  0  0  0  0  0
  185.9540  178.4660  138.6790 C   0  0  0  0  0  2  0  0  0  0  0  0
  184.5260  178.5930  139.1790 C   0  0  0  0  0  2  0  0  0  0  0  0
  184.1490  179.9360  139.2170 O   0  0  0  0  0  0  0  0  0  0  0  0
  182.2260  181.1140  138.4710 C   0  0  0  0  0  1  0  0  0  0  0  0
  182.7550  179.9070  139.2160 C   0  0  0  0  0  2  0  0  0  0  0  0
  1 24  1  6  0  0  0
  2 15  1  0  0  0  0
  2 12  1  0  0  0  0
  4 14  1  0  0  0  0
  4 22  1  1  0  0  0
  6 17  1  0  0  0  0
  7 10  2  0  0  0  0
  7 13  1  0  0  0  0
  8  1  1  0  0  0  0
  9 12  1  0  0  0  0
 12  5  1  0  0  0  0
 13 29  1  6  0  0  0
 13 19  1  0  0  0  0
 14 19  1  1  0  0  0
 14 21  1  0  0  0  0
 15 10  1  0  0  0  0
 16  3  1  6  0  0  0
 16 12  1  0  0  0  0
 16 18  1  0  0  0  0
 17  4  1  0  0  0  0
 17 11  1  1  0  0  0
 18 23  1  6  0  0  0
 18 17  1  0  0  0  0
 20  7  1  0  0  0  0
 21  1  1  0  0  0  0
 22  8  1  0  0  0  0
 23  6  1  0  0  0  0
 24 25  1  6  0  0  0
 24 26  1  0  0  0  0
 26 27  1  0  0  0  0
 26 28  2  0  0  0  0
 30 29  1  0  0  0  0
 30 31  1  0  0  0  0
 31 32  1  0  0  0  0
 32 33  1  0  0  0  0
 33 34  1  0  0  0  0
 35 36  1  0  0  0  0
 36 34  1  0  0  0  0
M  END
>  <MODEL>
4

>  <REMARK>
 VINA RESULT:      -5.2      0.783      1.106
  Name = 
  9 active torsions:
  status: ('A' for Active; 'I' for Inactive)
    1  A    between atoms: C_1  and  C_21
    2  A    between atoms: C_1  and  C_30
    3  A    between atoms: C_2  and  C_5
    4  A    between atoms: C_2  and  C_30
    5  A    between atoms: C_3  and  C_15
    6  A    between atoms: C_5  and  C_22
    7  A    between atoms: C_7  and  C_15
    8  A    between atoms: C_22  and  O_24
    9  A    between atoms: O_24  and  C_34
                            x       y       z     vdW  Elec       q    Type
                         _______ _______ _______ _____ _____    ______ ____

>  <TORSDO>
F 9

$$$$
=
 OpenBabel10232411263D

 36 38  0  0  1  0  0  0  0  0999 V2000
  190.9340  176.8820  141.2870 C   0  0  2  0  0  3  0  0  0  0  0  0
  189.2150  174.5380  135.6160 O   0  0  0  0  0  0  0  0  0  0  0  0
  191.8070  174.0560  134.5400 O   0  0  0  0  0  1  0  0  0  0  0  0
  191.6110  177.0380  138.4800 C   0  0  2  0  0  3  0  0  0  0  0  0
  190.0300  173.6810  137.6280 F   0  0  0  0  0  0  0  0  0  0  0  0
  193.5610  176.3280  137.2210 O   0  0  0  0  0  0  0  0  0  0  0  0
  187.8920  176.6170  137.1960 C   0  0  0  0  0  0  0  0  0  0  0  0
  191.6310  178.0360  140.7250 N   0  0  0  0  0  2  0  0  0  0  0  0
  190.0310  172.4050  135.7720 F   0  0  0  0  0  0  0  0  0  0  0  0
  187.7740  175.2990  137.3370 C   0  0  0  0  0  3  0  0  0  0  0  0
  192.4470  174.7410  138.4700 O   0  0  0  0  0  1  0  0  0  0  0  0
  190.1680  173.7000  136.2450 C   0  0  0  0  0  0  0  0  0  0  0  0
  187.9360  177.4630  138.4270 C   0  0  1  0  0  3  0  0  0  0  0  0
  190.2360  176.6680  138.8640 N   0  0  2  0  0  0  0  0  0  0  0  0
  187.9470  174.3450  136.1970 C   0  0  0  0  0  2  0  0  0  0  0  0
  191.5720  174.2100  135.9110 C   0  0  2  0  0  3  0  0  0  0  0  0
  192.3120  175.9090  137.7080 C   0  0  1  0  0  0  0  0  0  0  0  0
  191.7510  175.6880  136.3110 C   0  0  1  0  0  3  0  0  0  0  0  0
  189.3820  177.8510  138.7380 C   0  0  0  0  0  2  0  0  0  0  0  0
  188.0930  177.1890  135.9420 O   0  0  0  0  0  1  0  0  0  0  0  0
  190.1220  176.1150  140.2250 C   0  0  0  0  0  2  0  0  0  0  0  0
  192.4740  177.5370  139.6510 C   0  0  0  0  0  2  0  0  0  0  0  0
  193.1210  176.1740  135.8930 C   0  0  0  0  0  2  0  0  0  0  0  0
  190.0650  177.2690  142.4860 C   0  0  1  0  0  3  0  0  0  0  0  0
  188.5990  176.9830  142.2120 C   0  0  0  0  0  1  0  0  0  0  0  0
  190.5030  176.6280  143.7680 C   0  0  0  0  0  0  0  0  0  0  0  0
  189.7620  176.7920  144.9330 O   0  0  0  0  0  1  0  0  0  0  0  0
  191.6030  175.8930  143.7890 C   0  0  0  0  0  2  0  0  0  0  0  0
  187.0990  178.7250  138.2610 C   0  0  0  0  0  2  0  0  0  0  0  0
  185.6210  178.3900  138.0970 C   0  0  0  0  0  2  0  0  0  0  0  0
  184.8110  178.8980  139.2780 C   0  0  0  0  0  2  0  0  0  0  0  0
  185.6290  178.7980  140.5550 C   0  0  0  0  0  2  0  0  0  0  0  0
  184.7150  178.7900  141.7670 C   0  0  0  0  0  2  0  0  0  0  0  0
  185.4240  178.3860  142.8990 O   0  0  0  0  0  0  0  0  0  0  0  0
  185.3380  178.5220  145.2690 C   0  0  0  0  0  1  0  0  0  0  0  0
  184.5880  178.7070  143.9680 C   0  0  0  0  0  2  0  0  0  0  0  0
  1 24  1  1  0  0  0
  2 15  1  0  0  0  0
  2 12  1  0  0  0  0
  4 14  1  0  0  0  0
  4 22  1  1  0  0  0
  6 17  1  0  0  0  0
  7 10  2  0  0  0  0
  7 13  1  0  0  0  0
  8  1  1  0  0  0  0
  9 12  1  0  0  0  0
 12  5  1  0  0  0  0
 13 29  1  6  0  0  0
 13 19  1  0  0  0  0
 14 19  1  1  0  0  0
 14 21  1  0  0  0  0
 15 10  1  0  0  0  0
 16  3  1  6  0  0  0
 16 12  1  0  0  0  0
 16 18  1  0  0  0  0
 17 11  1  1  0  0  0
 17  4  1  0  0  0  0
 18 23  1  6  0  0  0
 18 17  1  0  0  0  0
 20  7  1  0  0  0  0
 21  1  1  0  0  0  0
 22  8  1  0  0  0  0
 23  6  1  0  0  0  0
 24 25  1  6  0  0  0
 24 26  1  0  0  0  0
 26 28  2  0  0  0  0
 26 27  1  0  0  0  0
 30 29  1  0  0  0  0
 30 31  1  0  0  0  0
 31 32  1  0  0  0  0
 32 33  1  0  0  0  0
 33 34  1  0  0  0  0
 34 36  1  0  0  0  0
 36 35  1  0  0  0  0
M  END
>  <MODEL>
5

>  <REMARK>
 VINA RESULT:      -5.0      1.432      1.666
  Name = 
  9 active torsions:
  status: ('A' for Active; 'I' for Inactive)
    1  A    between atoms: C_1  and  C_21
    2  A    between atoms: C_1  and  C_30
    3  A    between atoms: C_2  and  C_5
    4  A    between atoms: C_2  and  C_30
    5  A    between atoms: C_3  and  C_15
    6  A    between atoms: C_5  and  C_22
    7  A    between atoms: C_7  and  C_15
    8  A    between atoms: C_22  and  O_24
    9  A    between atoms: O_24  and  C_34
                            x       y       z     vdW  Elec       q    Type
                         _______ _______ _______ _____ _____    ______ ____

>  <TORSDO>
F 9

$$$$
=
 OpenBabel10232411263D

 36 38  0  0  1  0  0  0  0  0999 V2000
  183.1680  175.0460  136.3090 C   0  0  2  0  0  3  0  0  0  0  0  0
  182.5900  179.2960  141.0220 O   0  0  0  0  0  0  0  0  0  0  0  0
  179.9900  180.2810  140.4030 O   0  0  0  0  0  1  0  0  0  0  0  0
  182.2610  177.7450  136.8170 C   0  0  2  0  0  3  0  0  0  0  0  0
  181.7580  177.1680  140.5470 F   0  0  0  0  0  0  0  0  0  0  0  0
  180.0620  178.7700  136.7790 O   0  0  0  0  0  0  0  0  0  0  0  0
  185.0060  178.5290  139.5580 C   0  0  0  0  0  0  0  0  0  0  0  0
  183.0850  176.0440  135.2460 N   0  0  0  0  0  2  0  0  0  0  0  0
  180.8320  178.4060  142.1850 F   0  0  0  0  0  0  0  0  0  0  0  0
  184.4530  177.8970  140.5890 C   0  0  0  0  0  3  0  0  0  0  0  0
  180.3780  176.9460  138.1550 O   0  0  0  0  0  1  0  0  0  0  0  0
  181.4470  178.4630  140.9450 C   0  0  0  0  0  0  0  0  0  0  0  0
  185.5820  177.7110  138.4470 C   0  0  1  0  0  3  0  0  0  0  0  0
  183.2930  177.1600  137.6950 N   0  0  2  0  0  0  0  0  0  0  0  0
  183.6500  178.6040  141.6360 C   0  0  0  0  0  2  0  0  0  0  0  0
  180.4700  179.0550  139.9270 C   0  0  2  0  0  3  0  0  0  0  0  0
  180.9770  178.0800  137.5910 C   0  0  1  0  0  0  0  0  0  0  0  0
  181.1330  179.2520  138.5490 C   0  0  1  0  0  3  0  0  0  0  0  0
  184.6020  177.6640  137.2750 C   0  0  0  0  0  2  0  0  0  0  0  0
  184.9430  179.9160  139.4500 O   0  0  0  0  0  1  0  0  0  0  0  0
  183.3080  175.6870  137.7040 C   0  0  0  0  0  2  0  0  0  0  0  0
  181.9580  176.9050  135.5650 C   0  0  0  0  0  2  0  0  0  0  0  0
  180.1600  179.9100  137.5970 C   0  0  0  0  0  2  0  0  0  0  0  0
  184.2780  174.0250  136.0480 C   0  0  1  0  0  3  0  0  0  0  0  0
  185.6340  174.7040  135.9610 C   0  0  0  0  0  1  0  0  0  0  0  0
  184.3040  172.9070  137.0450 C   0  0  0  0  0  0  0  0  0  0  0  0
  185.2340  172.8990  138.0780 O   0  0  0  0  0  1  0  0  0  0  0  0
  183.4290  171.9200  136.9440 C   0  0  0  0  0  2  0  0  0  0  0  0
  186.9120  178.2840  137.9730 C   0  0  0  0  0  2  0  0  0  0  0  0
  187.9480  178.2760  139.0900 C   0  0  0  0  0  2  0  0  0  0  0  0
  189.3260  177.9250  138.5560 C   0  0  0  0  0  2  0  0  0  0  0  0
  189.3060  176.5420  137.9260 C   0  0  0  0  0  2  0  0  0  0  0  0
  190.0380  176.5570  136.5970 C   0  0  0  0  0  2  0  0  0  0  0  0
  189.3570  177.3640  135.6840 O   0  0  0  0  0  0  0  0  0  0  0  0
  189.6430  175.3330  134.4850 C   0  0  0  0  0  1  0  0  0  0  0  0
  189.6990  176.8450  134.4350 C   0  0  0  0  0  2  0  0  0  0  0  0
  1 24  1  6  0  0  0
  1 21  1  0  0  0  0
  2 15  1  0  0  0  0
  4 22  1  6  0  0  0
  4 17  1  0  0  0  0
  4 14  1  0  0  0  0
  5 12  1  0  0  0  0
  6 17  1  0  0  0  0
  6 23  1  0  0  0  0
  7 10  2  0  0  0  0
  8 22  1  0  0  0  0
  8  1  1  0  0  0  0
 10 15  1  0  0  0  0
 12  2  1  0  0  0  0
 12  9  1  0  0  0  0
 13 29  1  6  0  0  0
 13  7  1  0  0  0  0
 14 19  1  6  0  0  0
 14 21  1  0  0  0  0
 16  3  1  1  0  0  0
 16 12  1  0  0  0  0
 17 11  1  1  0  0  0
 17 18  1  0  0  0  0
 18 23  1  6  0  0  0
 18 16  1  0  0  0  0
 19 13  1  0  0  0  0
 20  7  1  0  0  0  0
 24 25  1  1  0  0  0
 24 26  1  0  0  0  0
 26 27  1  0  0  0  0
 28 26  2  0  0  0  0
 29 30  1  0  0  0  0
 31 30  1  0  0  0  0
 32 31  1  0  0  0  0
 33 32  1  0  0  0  0
 34 33  1  0  0  0  0
 36 35  1  0  0  0  0
 36 34  1  0  0  0  0
M  END
>  <MODEL>
6

>  <REMARK>
 VINA RESULT:      -4.5      4.648      9.742
  Name = 
  9 active torsions:
  status: ('A' for Active; 'I' for Inactive)
    1  A    between atoms: C_1  and  C_21
    2  A    between atoms: C_1  and  C_30
    3  A    between atoms: C_2  and  C_5
    4  A    between atoms: C_2  and  C_30
    5  A    between atoms: C_3  and  C_15
    6  A    between atoms: C_5  and  C_22
    7  A    between atoms: C_7  and  C_15
    8  A    between atoms: C_22  and  O_24
    9  A    between atoms: O_24  and  C_34
                            x       y       z     vdW  Elec       q    Type
                         _______ _______ _______ _____ _____    ______ ____

>  <TORSDO>
F 9

$$$$
=
 OpenBabel10232411263D

 36 38  0  0  1  0  0  0  0  0999 V2000
  192.2970  175.9020  136.1360 C   0  0  2  0  0  3  0  0  0  0  0  0
  186.1320  176.8620  137.4320 O   0  0  0  0  0  0  0  0  0  0  0  0
  186.4240  178.5580  139.7020 O   0  0  0  0  0  1  0  0  0  0  0  0
  190.4480  176.0190  138.3560 C   0  0  2  0  0  3  0  0  0  0  0  0
  187.8690  178.0800  136.4590 F   0  0  0  0  0  0  0  0  0  0  0  0
  190.1950  177.5780  140.1980 O   0  0  0  0  0  0  0  0  0  0  0  0
  187.4070  174.4530  136.3670 C   0  0  0  0  0  0  0  0  0  0  0  0
  192.5780  175.2440  137.4080 N   0  0  0  0  0  2  0  0  0  0  0  0
  185.9690  179.1170  137.0800 F   0  0  0  0  0  0  0  0  0  0  0  0
  187.0280  175.5320  135.6880 C   0  0  0  0  0  3  0  0  0  0  0  0
  190.1090  178.4210  138.0530 O   0  0  0  0  0  1  0  0  0  0  0  0
  186.8400  178.0880  137.3940 C   0  0  0  0  0  0  0  0  0  0  0  0
  188.6900  173.7870  135.9870 C   0  0  1  0  0  3  0  0  0  0  0  0
  189.9390  175.6530  137.0210 N   0  0  2  0  0  0  0  0  0  0  0  0
  185.8930  176.4040  136.1230 C   0  0  0  0  0  2  0  0  0  0  0  0
  187.4500  178.3500  138.7730 C   0  0  2  0  0  3  0  0  0  0  0  0
  189.8160  177.3220  138.8700 C   0  0  1  0  0  0  0  0  0  0  0  0
  188.3450  177.1820  139.2330 C   0  0  1  0  0  3  0  0  0  0  0  0
  189.7950  174.1970  136.9600 C   0  0  0  0  0  2  0  0  0  0  0  0
  186.6950  174.0210  137.4830 O   0  0  0  0  0  1  0  0  0  0  0  0
  190.7870  176.1150  135.9080 C   0  0  0  0  0  2  0  0  0  0  0  0
  191.9820  176.0660  138.4490 C   0  0  0  0  0  2  0  0  0  0  0  0
  188.8620  177.4450  140.6290 C   0  0  0  0  0  2  0  0  0  0  0  0
  192.9430  175.1670  134.9580 C   0  0  1  0  0  3  0  0  0  0  0  0
  194.1210  175.9510  134.4070 C   0  0  0  0  0  1  0  0  0  0  0  0
  193.3430  173.7610  135.2820 C   0  0  0  0  0  0  0  0  0  0  0  0
  194.6000  173.4830  135.8060 O   0  0  0  0  0  1  0  0  0  0  0  0
  192.4880  172.7730  135.0740 C   0  0  0  0  0  2  0  0  0  0  0  0
  188.5480  172.2700  135.9920 C   0  0  0  0  0  2  0  0  0  0  0  0
  188.3030  171.7320  134.5880 C   0  0  0  0  0  2  0  0  0  0  0  0
  187.1670  170.7230  134.5790 C   0  0  0  0  0  2  0  0  0  0  0  0
  186.0470  171.1890  135.4930 C   0  0  0  0  0  2  0  0  0  0  0  0
  185.0520  172.0340  134.7180 C   0  0  0  0  0  2  0  0  0  0  0  0
  184.1590  172.6500  135.5970 O   0  0  0  0  0  0  0  0  0  0  0  0
  182.7290  171.3460  136.9750 C   0  0  0  0  0  1  0  0  0  0  0  0
  184.1430  171.8200  136.7170 C   0  0  0  0  0  2  0  0  0  0  0  0
  1 24  1  6  0  0  0
  1  8  1  0  0  0  0
  4 22  1  6  0  0  0
  4 17  1  0  0  0  0
  5 12  1  0  0  0  0
  6 23  1  0  0  0  0
  7 20  1  0  0  0  0
  8 22  1  0  0  0  0
  9 12  1  0  0  0  0
 10 15  1  0  0  0  0
 10  7  2  0  0  0  0
 12  2  1  0  0  0  0
 12 16  1  0  0  0  0
 13 29  1  1  0  0  0
 13  7  1  0  0  0  0
 13 19  1  0  0  0  0
 14 21  1  6  0  0  0
 14  4  1  0  0  0  0
 15  2  1  0  0  0  0
 16 18  1  0  0  0  0
 16  3  1  1  0  0  0
 17 11  1  6  0  0  0
 17 18  1  0  0  0  0
 17  6  1  0  0  0  0
 18 23  1  1  0  0  0
 19 14  1  0  0  0  0
 21  1  1  0  0  0  0
 24 25  1  1  0  0  0
 24 26  1  0  0  0  0
 26 27  1  0  0  0  0
 28 26  2  0  0  0  0
 30 29  1  0  0  0  0
 31 30  1  0  0  0  0
 31 32  1  0  0  0  0
 33 32  1  0  0  0  0
 33 34  1  0  0  0  0
 34 36  1  0  0  0  0
 36 35  1  0  0  0  0
M  END
>  <MODEL>
7

>  <REMARK>
 VINA RESULT:      -4.5      3.314      6.553
  Name = 
  9 active torsions:
  status: ('A' for Active; 'I' for Inactive)
    1  A    between atoms: C_1  and  C_21
    2  A    between atoms: C_1  and  C_30
    3  A    between atoms: C_2  and  C_5
    4  A    between atoms: C_2  and  C_30
    5  A    between atoms: C_3  and  C_15
    6  A    between atoms: C_5  and  C_22
    7  A    between atoms: C_7  and  C_15
    8  A    between atoms: C_22  and  O_24
    9  A    between atoms: O_24  and  C_34
                            x       y       z     vdW  Elec       q    Type
                         _______ _______ _______ _____ _____    ______ ____

>  <TORSDO>
F 9

$$$$
=
 OpenBabel10232411263D

 36 38  0  0  1  0  0  0  0  0999 V2000
  190.5330  176.9260  140.7090 C   0  0  2  0  0  3  0  0  0  0  0  0
  188.6520  174.0720  135.3310 O   0  0  0  0  0  0  0  0  0  0  0  0
  191.2030  173.2750  134.3460 O   0  0  0  0  0  1  0  0  0  0  0  0
  191.2250  176.7030  137.9110 C   0  0  2  0  0  3  0  0  0  0  0  0
  189.3970  173.3970  137.4380 F   0  0  0  0  0  0  0  0  0  0  0  0
  193.1180  175.7070  136.7640 O   0  0  0  0  0  0  0  0  0  0  0  0
  187.4870  176.4140  136.6450 C   0  0  0  0  0  0  0  0  0  0  0  0
  191.3160  177.9510  140.0250 N   0  0  0  0  0  2  0  0  0  0  0  0
  189.3050  171.9170  135.7420 F   0  0  0  0  0  0  0  0  0  0  0  0
  187.2700  175.1340  136.9360 C   0  0  0  0  0  3  0  0  0  0  0  0
  191.8850  174.3640  138.1770 O   0  0  0  0  0  1  0  0  0  0  0  0
  189.5380  173.2440  136.0630 C   0  0  0  0  0  0  0  0  0  0  0  0
  187.5930  177.3930  137.7700 C   0  0  1  0  0  3  0  0  0  0  0  0
  189.8250  176.4840  138.3200 N   0  0  2  0  0  0  0  0  0  0  0  0
  187.3730  174.0440  135.9170 C   0  0  0  0  0  2  0  0  0  0  0  0
  190.9770  173.6050  135.6870 C   0  0  2  0  0  3  0  0  0  0  0  0
  191.8400  175.4420  137.2830 C   0  0  1  0  0  0  0  0  0  0  0  0
  191.2670  175.1020  135.9150 C   0  0  1  0  0  3  0  0  0  0  0  0
  189.0630  177.7040  138.0490 C   0  0  0  0  0  2  0  0  0  0  0  0
  187.7330  176.8200  135.3350 O   0  0  0  0  0  1  0  0  0  0  0  0
  189.6670  176.1030  139.7350 C   0  0  0  0  0  2  0  0  0  0  0  0
  192.1210  177.2680  139.0250 C   0  0  0  0  0  2  0  0  0  0  0  0
  192.6700  175.4320  135.4590 C   0  0  0  0  0  2  0  0  0  0  0  0
  189.6930  177.5130  141.8470 C   0  0  1  0  0  3  0  0  0  0  0  0
  188.2330  177.6260  141.4450 C   0  0  0  0  0  1  0  0  0  0  0  0
  189.8350  176.7660  143.1370 C   0  0  0  0  0  0  0  0  0  0  0  0
  188.9310  176.9630  144.1750 O   0  0  0  0  0  1  0  0  0  0  0  0
  190.8280  175.9040  143.2890 C   0  0  0  0  0  2  0  0  0  0  0  0
  186.8540  178.6850  137.4490 C   0  0  0  0  0  2  0  0  0  0  0  0
  185.3640  178.5570  137.7410 C   0  0  0  0  0  2  0  0  0  0  0  0
  185.0840  178.6860  139.2290 C   0  0  0  0  0  2  0  0  0  0  0  0
  183.7030  178.1410  139.5500 C   0  0  0  0  0  2  0  0  0  0  0  0
  183.5360  177.9800  141.0510 C   0  0  0  0  0  2  0  0  0  0  0  0
  182.4280  178.7060  141.4900 O   0  0  0  0  0  0  0  0  0  0  0  0
  180.2490  177.9870  140.8750 C   0  0  0  0  0  1  0  0  0  0  0  0
  181.5310  178.6530  140.4230 C   0  0  0  0  0  2  0  0  0  0  0  0
  1 24  1  1  0  0  0
  2 15  1  0  0  0  0
  2 12  1  0  0  0  0
  4 14  1  0  0  0  0
  4 22  1  1  0  0  0
  6 17  1  0  0  0  0
  7 10  2  0  0  0  0
  7 13  1  0  0  0  0
  8  1  1  0  0  0  0
  9 12  1  0  0  0  0
 12  5  1  0  0  0  0
 13 29  1  6  0  0  0
 13 19  1  0  0  0  0
 14 19  1  1  0  0  0
 14 21  1  0  0  0  0
 15 10  1  0  0  0  0
 16  3  1  6  0  0  0
 16 18  1  0  0  0  0
 16 12  1  0  0  0  0
 17  4  1  0  0  0  0
 17 11  1  1  0  0  0
 18 23  1  6  0  0  0
 18 17  1  0  0  0  0
 20  7  1  0  0  0  0
 21  1  1  0  0  0  0
 22  8  1  0  0  0  0
 23  6  1  0  0  0  0
 24 25  1  6  0  0  0
 24 26  1  0  0  0  0
 26 28  2  0  0  0  0
 26 27  1  0  0  0  0
 29 30  1  0  0  0  0
 30 31  1  0  0  0  0
 31 32  1  0  0  0  0
 32 33  1  0  0  0  0
 33 34  1  0  0  0  0
 36 35  1  0  0  0  0
 36 34  1  0  0  0  0
M  END
>  <MODEL>
8

>  <REMARK>
 VINA RESULT:      -4.4      1.594      1.828
  Name = 
  9 active torsions:
  status: ('A' for Active; 'I' for Inactive)
    1  A    between atoms: C_1  and  C_21
    2  A    between atoms: C_1  and  C_30
    3  A    between atoms: C_2  and  C_5
    4  A    between atoms: C_2  and  C_30
    5  A    between atoms: C_3  and  C_15
    6  A    between atoms: C_5  and  C_22
    7  A    between atoms: C_7  and  C_15
    8  A    between atoms: C_22  and  O_24
    9  A    between atoms: O_24  and  C_34
                            x       y       z     vdW  Elec       q    Type
                         _______ _______ _______ _____ _____    ______ ____

>  <TORSDO>
F 9

$$$$
=
 OpenBabel10232411263D

 36 38  0  0  1  0  0  0  0  0999 V2000
  182.9770  178.7910  138.4580 C   0  0  2  0  0  3  0  0  0  0  0  0
  189.0550  177.3580  137.1880 O   0  0  0  0  0  0  0  0  0  0  0  0
  188.6240  175.2430  135.3300 O   0  0  0  0  0  1  0  0  0  0  0  0
  184.7350  176.5230  138.1020 C   0  0  2  0  0  3  0  0  0  0  0  0
  187.3190  178.4870  136.1110 F   0  0  0  0  0  0  0  0  0  0  0  0
  184.8690  174.8040  136.3940 O   0  0  0  0  0  0  0  0  0  0  0  0
  187.8970  178.2710  139.7160 C   0  0  0  0  0  0  0  0  0  0  0  0
  182.6680  177.4810  139.0220 N   0  0  0  0  0  2  0  0  0  0  0  0
  189.1610  177.8840  134.9640 F   0  0  0  0  0  0  0  0  0  0  0  0
  188.2680  179.0210  138.6820 C   0  0  0  0  0  3  0  0  0  0  0  0
  185.0100  177.0060  135.7220 O   0  0  0  0  0  1  0  0  0  0  0  0
  188.3110  177.5190  135.9940 C   0  0  0  0  0  0  0  0  0  0  0  0
  186.6500  178.6420  140.4540 C   0  0  1  0  0  3  0  0  0  0  0  0
  185.3050  177.8060  138.5550 N   0  0  2  0  0  0  0  0  0  0  0  0
  189.3580  178.6170  137.7400 C   0  0  0  0  0  2  0  0  0  0  0  0
  187.6410  176.1880  135.6440 C   0  0  2  0  0  3  0  0  0  0  0  0
  185.3060  176.0930  136.7420 C   0  0  1  0  0  0  0  0  0  0  0  0
  186.7660  175.6680  136.8030 C   0  0  1  0  0  3  0  0  0  0  0  0
  185.4970  177.7440  140.0060 C   0  0  0  0  0  2  0  0  0  0  0  0
  188.5790  177.0990  140.0340 O   0  0  0  0  0  1  0  0  0  0  0  0
  184.4870  178.9810  138.2110 C   0  0  0  0  0  2  0  0  0  0  0  0
  183.1980  176.4890  138.1000 C   0  0  0  0  0  2  0  0  0  0  0  0
  186.1890  174.3170  136.4480 C   0  0  0  0  0  2  0  0  0  0  0  0
  182.3990  179.9290  139.3040 C   0  0  1  0  0  3  0  0  0  0  0  0
  182.2180  181.1880  138.4740 C   0  0  0  0  0  1  0  0  0  0  0  0
  181.1260  179.5620  140.0030 C   0  0  0  0  0  0  0  0  0  0  0  0
  181.1290  179.2210  141.3500 O   0  0  0  0  0  1  0  0  0  0  0  0
  179.9860  179.5690  139.3320 C   0  0  0  0  0  2  0  0  0  0  0  0
  186.8390  178.5100  141.9590 C   0  0  0  0  0  2  0  0  0  0  0  0
  185.5480  178.0810  142.6440 C   0  0  0  0  0  2  0  0  0  0  0  0
  185.5960  178.3720  144.1350 C   0  0  0  0  0  2  0  0  0  0  0  0
  186.4730  177.3500  144.8380 C   0  0  0  0  0  2  0  0  0  0  0  0
  187.3650  178.0350  145.8590 C   0  0  0  0  0  2  0  0  0  0  0  0
  188.5400  177.3040  146.0360 O   0  0  0  0  0  0  0  0  0  0  0  0
  190.2360  178.0710  144.5610 C   0  0  0  0  0  1  0  0  0  0  0  0
  189.0520  177.1470  144.7480 C   0  0  0  0  0  2  0  0  0  0  0  0
  1  8  1  0  0  0  0
  1 24  1  1  0  0  0
  2 15  1  0  0  0  0
  4 22  1  6  0  0  0
  4 14  1  0  0  0  0
  6 23  1  0  0  0  0
  6 17  1  0  0  0  0
  7 20  1  0  0  0  0
  7 13  1  0  0  0  0
  9 12  1  0  0  0  0
 10  7  2  0  0  0  0
 12  5  1  0  0  0  0
 12  2  1  0  0  0  0
 13 29  1  1  0  0  0
 14 21  1  1  0  0  0
 14 19  1  0  0  0  0
 15 10  1  0  0  0  0
 16  3  1  1  0  0  0
 16 12  1  0  0  0  0
 16 18  1  0  0  0  0
 17 11  1  6  0  0  0
 17 18  1  0  0  0  0
 17  4  1  0  0  0  0
 18 23  1  6  0  0  0
 19 13  1  0  0  0  0
 21  1  1  0  0  0  0
 22  8  1  0  0  0  0
 24 25  1  6  0  0  0
 24 26  1  0  0  0  0
 26 27  1  0  0  0  0
 28 26  2  0  0  0  0
 29 30  1  0  0  0  0
 30 31  1  0  0  0  0
 31 32  1  0  0  0  0
 32 33  1  0  0  0  0
 33 34  1  0  0  0  0
 35 36  1  0  0  0  0
 36 34  1  0  0  0  0
M  END
>  <MODEL>
9

>  <REMARK>
 VINA RESULT:      -4.4      3.770      7.088
  Name = 
  9 active torsions:
  status: ('A' for Active; 'I' for Inactive)
    1  A    between atoms: C_1  and  C_21
    2  A    between atoms: C_1  and  C_30
    3  A    between atoms: C_2  and  C_5
    4  A    between atoms: C_2  and  C_30
    5  A    between atoms: C_3  and  C_15
    6  A    between atoms: C_5  and  C_22
    7  A    between atoms: C_7  and  C_15
    8  A    between atoms: C_22  and  O_24
    9  A    between atoms: O_24  and  C_34
                            x       y       z     vdW  Elec       q    Type
                         _______ _______ _______ _____ _____    ______ ____

>  <TORSDO>
F 9

$$$$
