=
 OpenBabel11112417263D

 37 44  0  0  1  0  0  0  0  0999 V2000
  191.9630  173.1270  142.6620 C   0  0  0  0  0  2  0  0  0  0  0  0
  195.4840  176.0220  143.3230 C   0  0  0  0  0  0  0  0  0  0  0  0
  191.7100  176.2080  145.1300 C   0  0  0  0  0  0  0  0  0  0  0  0
  192.3250  172.1060  141.6780 N   0  0  0  0  0  0  0  0  0  0  0  0
  188.5910  175.1880  143.0480 C   0  0  0  0  0  2  0  0  0  0  0  0
  194.0950  176.4960  145.3350 C   0  0  0  0  0  0  0  0  0  0  0  0
  190.7900  175.8570  144.0530 C   0  0  0  0  0  0  0  0  0  0  0  0
  189.8100  171.8410  141.3570 C   0  0  2  0  0  3  0  0  0  0  0  0
  192.9670  176.2110  144.6020 C   0  0  0  0  0  0  0  0  0  0  0  0
  189.4330  175.8260  144.1400 C   0  0  0  0  0  0  0  0  0  0  0  0
  193.9510  176.7340  146.7090 C   0  0  0  0  0  3  0  0  0  0  0  0
  191.2260  171.7700  140.7560 C   0  0  0  0  0  2  0  0  0  0  0  0
  193.0210  175.8610  143.2470 N   0  0  0  0  0  0  0  0  0  0  0  0
  195.8310  174.5450  143.3920 C   0  0  0  0  0  1  0  0  0  0  0  0
  190.2460  176.1250  147.1760 C   0  0  0  0  0  3  0  0  0  0  0  0
  192.6670  176.6410  147.2950 C   0  0  0  0  0  3  0  0  0  0  0  0
  194.2060  176.1950  142.4610 C   0  0  0  0  0  2  0  0  0  0  0  0
  189.1380  173.2310  141.3700 C   0  0  1  0  0  3  0  0  0  0  0  0
  189.3080  173.9330  142.6330 C   0  0  1  0  0  3  0  0  0  0  0  0
  191.5270  176.3640  146.5060 C   0  0  0  0  0  0  0  0  0  0  0  0
  191.6470  175.6990  142.7780 C   0  0  1  0  0  3  0  0  0  0  0  0
  195.3260  176.5310  144.6650 O   0  0  0  0  0  0  0  0  0  0  0  0
  188.7390  176.4500  145.2450 N   0  0  0  0  0  0  0  0  0  0  0  0
  196.6270  176.7500  142.6510 C   0  0  0  0  0  1  0  0  0  0  0  0
  190.0810  174.3760  141.4550 N   0  0  1  0  0  0  0  0  0  0  0  0
  189.7010  171.1630  142.5760 O   0  0  0  0  0  1  0  0  0  0  0  0
  191.4620  174.3990  141.9640 C   0  0  2  0  0  3  0  0  0  0  0  0
  189.0330  176.1490  146.6210 C   0  0  0  0  0  3  0  0  0  0  0  0
  187.4210  177.9460  143.7700 C   0  0  0  0  0  3  0  0  0  0  0  0
  187.5610  177.2440  144.9780 C   0  0  0  0  0  0  0  0  0  0  0  0
  186.5150  177.3030  145.9120 C   0  0  0  0  0  3  0  0  0  0  0  0
  184.2690  178.1260  146.6240 C   0  0  0  0  0  1  0  0  0  0  0  0
  185.2750  178.7340  144.4580 N   0  0  0  0  0  0  0  0  0  0  0  0
  185.3750  178.0600  145.6340 C   0  0  0  0  0  0  0  0  0  0  0  0
  186.2660  178.6920  143.5280 C   0  0  0  0  0  3  0  0  0  0  0  0
  192.9830  171.2340  143.8520 C   0  0  0  0  0  1  0  0  0  0  0  0
  192.6950  170.8990  142.4010 C   0  0  0  0  0  2  0  0  0  0  0  0
  2 14  1  0  0  0  0
  2 22  1  0  0  0  0
  3 20  1  0  0  0  0
  4 37  1  0  0  0  0
  4  1  1  0  0  0  0
  5 10  1  0  0  0  0
  6 11  2  0  0  0  0
  7 10  2  0  0  0  0
  7  3  1  0  0  0  0
  8 18  1  0  0  0  0
  8 26  1  1  0  0  0
  9  3  2  0  0  0  0
  9  6  1  0  0  0  0
 10 23  1  0  0  0  0
 11 16  1  0  0  0  0
 12  8  1  0  0  0  0
 12  4  1  0  0  0  0
 13  9  1  0  0  0  0
 17 13  1  0  0  0  0
 17  2  1  0  0  0  0
 18 25  1  0  0  0  0
 18 19  1  0  0  0  0
 19  5  1  0  0  0  0
 20 15  1  0  0  0  0
 20 16  2  0  0  0  0
 21 13  1  0  0  0  0
 21  7  1  0  0  0  0
 22  6  1  0  0  0  0
 23 28  1  0  0  0  0
 24  2  1  0  0  0  0
 25 27  1  0  0  0  0
 25 19  1  0  0  0  0
 27  1  1  0  0  0  0
 27 21  1  0  0  0  0
 28 15  2  0  0  0  0
 29 30  1  0  0  0  0
 30 23  1  0  0  0  0
 30 31  2  0  0  0  0
 33 34  2  0  0  0  0
 34 31  1  0  0  0  0
 34 32  1  0  0  0  0
 35 29  2  0  0  0  0
 35 33  1  0  0  0  0
 37 36  1  0  0  0  0
M  END
>  <MODEL>
1

>  <REMARK>
 VINA RESULT:      -9.5      0.000      0.000
  Name = 
  2 active torsions:
  status: ('A' for Active; 'I' for Inactive)
    1  A    between atoms: N_4  and  C_37
    2  A    between atoms: N_23  and  C_30
                            x       y       z     vdW  Elec       q    Type
                         _______ _______ _______ _____ _____    ______ ____

>  <TORSDO>
F 2

$$$$
=
 OpenBabel11112417263D

 37 44  0  0  1  0  0  0  0  0999 V2000
  193.3410  174.7450  144.3950 C   0  0  0  0  0  2  0  0  0  0  0  0
  192.0140  170.7800  142.4640 C   0  0  0  0  0  0  0  0  0  0  0  0
  189.7160  174.2540  142.8920 C   0  0  0  0  0  0  0  0  0  0  0  0
  194.7130  174.6320  144.8910 N   0  0  0  0  0  0  0  0  0  0  0  0
  190.1600  176.4060  146.0970 C   0  0  0  0  0  2  0  0  0  0  0  0
  190.3150  172.3490  141.5420 C   0  0  0  0  0  0  0  0  0  0  0  0
  190.0650  174.7430  144.2220 C   0  0  0  0  0  0  0  0  0  0  0  0
  194.0870  176.5820  146.4100 C   0  0  2  0  0  3  0  0  0  0  0  0
  190.3980  173.0920  142.6960 C   0  0  0  0  0  0  0  0  0  0  0  0
  189.5340  175.8330  144.8370 C   0  0  0  0  0  0  0  0  0  0  0  0
  189.5370  172.8480  140.4870 C   0  0  0  0  0  3  0  0  0  0  0  0
  194.9210  175.3080  146.1840 C   0  0  0  0  0  2  0  0  0  0  0  0
  191.2280  172.7270  143.7650 N   0  0  0  0  0  0  0  0  0  0  0  0
  193.3630  171.3080  142.0100 C   0  0  0  0  0  1  0  0  0  0  0  0
  188.4420  176.1850  141.8960 C   0  0  0  0  0  3  0  0  0  0  0  0
  188.8970  174.1010  140.6340 C   0  0  0  0  0  3  0  0  0  0  0  0
  191.7020  171.3500  143.8730 C   0  0  0  0  0  2  0  0  0  0  0  0
  192.6550  176.3800  146.9490 C   0  0  1  0  0  3  0  0  0  0  0  0
  191.6500  176.3540  145.8970 C   0  0  1  0  0  3  0  0  0  0  0  0
  188.9900  174.8260  141.8440 C   0  0  0  0  0  0  0  0  0  0  0  0
  191.0130  173.6920  144.8390 C   0  0  1  0  0  3  0  0  0  0  0  0
  191.0140  171.1360  141.4840 O   0  0  0  0  0  0  0  0  0  0  0  0
  188.3220  176.4540  144.3500 N   0  0  0  0  0  0  0  0  0  0  0  0
  192.0970  169.2720  142.5570 C   0  0  0  0  0  1  0  0  0  0  0  0
  192.0230  175.0910  146.5640 N   0  0  1  0  0  0  0  0  0  0  0  0
  194.1520  177.4730  145.3330 O   0  0  0  0  0  1  0  0  0  0  0  0
  192.3430  174.2070  145.4310 C   0  0  2  0  0  3  0  0  0  0  0  0
  188.1650  176.8970  142.9890 C   0  0  0  0  0  3  0  0  0  0  0  0
  187.3550  176.4210  146.6330 C   0  0  0  0  0  3  0  0  0  0  0  0
  187.3010  176.8450  145.2950 C   0  0  0  0  0  0  0  0  0  0  0  0
  186.2490  177.6870  144.9000 C   0  0  0  0  0  3  0  0  0  0  0  0
  184.1650  178.9600  145.4100 C   0  0  0  0  0  1  0  0  0  0  0  0
  185.3570  177.6370  147.1140 N   0  0  0  0  0  0  0  0  0  0  0  0
  185.2800  178.0720  145.8280 C   0  0  0  0  0  0  0  0  0  0  0  0
  186.3660  176.8280  147.5310 C   0  0  0  0  0  3  0  0  0  0  0  0
  194.8900  175.3460  142.5720 C   0  0  0  0  0  1  0  0  0  0  0  0
  195.5950  175.2470  143.9120 C   0  0  0  0  0  2  0  0  0  0  0  0
  1  4  1  0  0  0  0
  1 27  1  0  0  0  0
  2 24  1  0  0  0  0
  2 17  1  0  0  0  0
  3  7  1  0  0  0  0
  4 12  1  0  0  0  0
  6  9  2  0  0  0  0
  7 10  2  0  0  0  0
  7 21  1  0  0  0  0
  8 26  1  6  0  0  0
  8 18  1  0  0  0  0
  9  3  1  0  0  0  0
  9 13  1  0  0  0  0
 10  5  1  0  0  0  0
 11 16  2  0  0  0  0
 11  6  1  0  0  0  0
 12  8  1  0  0  0  0
 13 17  1  0  0  0  0
 13 21  1  0  0  0  0
 14  2  1  0  0  0  0
 15 28  2  0  0  0  0
 16 20  1  0  0  0  0
 19  5  1  0  0  0  0
 19 25  1  0  0  0  0
 19 18  1  0  0  0  0
 20 15  1  0  0  0  0
 20  3  2  0  0  0  0
 21 27  1  0  0  0  0
 22  6  1  0  0  0  0
 22  2  1  0  0  0  0
 23 10  1  0  0  0  0
 23 30  1  0  0  0  0
 25 18  1  0  0  0  0
 27 25  1  0  0  0  0
 28 23  1  0  0  0  0
 29 35  1  0  0  0  0
 30 29  2  0  0  0  0
 31 30  1  0  0  0  0
 31 34  2  0  0  0  0
 32 34  1  0  0  0  0
 33 35  2  0  0  0  0
 34 33  1  0  0  0  0
 36 37  1  0  0  0  0
 37  4  1  0  0  0  0
M  END
>  <MODEL>
2

>  <REMARK>
 VINA RESULT:      -9.0      1.538      5.167
  Name = 
  2 active torsions:
  status: ('A' for Active; 'I' for Inactive)
    1  A    between atoms: N_4  and  C_37
    2  A    between atoms: N_23  and  C_30
                            x       y       z     vdW  Elec       q    Type
                         _______ _______ _______ _____ _____    ______ ____

>  <TORSDO>
F 2

$$$$
=
 OpenBabel11112417263D

 37 44  0  0  1  0  0  0  0  0999 V2000
  192.7550  174.7100  144.1010 C   0  0  0  0  0  2  0  0  0  0  0  0
  190.9410  171.1950  141.7410 C   0  0  0  0  0  0  0  0  0  0  0  0
  189.0590  174.8130  142.6960 C   0  0  0  0  0  0  0  0  0  0  0  0
  194.1180  174.3860  144.5230 N   0  0  0  0  0  0  0  0  0  0  0  0
  189.8260  176.4690  146.1270 C   0  0  0  0  0  2  0  0  0  0  0  0
  189.4050  173.0450  141.0930 C   0  0  0  0  0  0  0  0  0  0  0  0
  189.4950  175.0840  144.0620 C   0  0  0  0  0  0  0  0  0  0  0  0
  193.7550  176.1790  146.3000 C   0  0  2  0  0  3  0  0  0  0  0  0
  189.6010  173.6180  142.3280 C   0  0  0  0  0  0  0  0  0  0  0  0
  189.1060  176.1360  144.8300 C   0  0  0  0  0  0  0  0  0  0  0  0
  188.6610  173.7580  140.1420 C   0  0  0  0  0  3  0  0  0  0  0  0
  194.4350  174.8620  145.8820 C   0  0  0  0  0  2  0  0  0  0  0  0
  190.4130  173.0300  143.3070 N   0  0  0  0  0  0  0  0  0  0  0  0
  192.3280  171.6290  141.3020 C   0  0  0  0  0  1  0  0  0  0  0  0
  187.9850  176.9820  142.0040 C   0  0  0  0  0  3  0  0  0  0  0  0
  188.1690  175.0430  140.4710 C   0  0  0  0  0  3  0  0  0  0  0  0
  190.7320  171.6080  143.2220 C   0  0  0  0  0  2  0  0  0  0  0  0
  192.3230  176.0640  146.8660 C   0  0  1  0  0  3  0  0  0  0  0  0
  191.2950  176.2830  145.8610 C   0  0  1  0  0  3  0  0  0  0  0  0
  188.3750  175.5910  141.7580 C   0  0  0  0  0  0  0  0  0  0  0  0
  190.3350  173.8650  144.5030 C   0  0  1  0  0  3  0  0  0  0  0  0
  189.9620  171.7810  140.8550 O   0  0  0  0  0  0  0  0  0  0  0  0
  187.9600  176.9410  144.4750 N   0  0  0  0  0  0  0  0  0  0  0  0
  190.8570  169.6880  141.6390 C   0  0  0  0  0  1  0  0  0  0  0  0
  191.5410  174.9110  146.3480 N   0  0  1  0  0  0  0  0  0  0  0  0
  193.8910  177.1890  145.3420 O   0  0  0  0  0  1  0  0  0  0  0  0
  191.7300  174.1530  145.1010 C   0  0  2  0  0  3  0  0  0  0  0  0
  187.8180  177.5720  143.1880 C   0  0  0  0  0  3  0  0  0  0  0  0
  185.7050  176.8080  145.4970 C   0  0  0  0  0  3  0  0  0  0  0  0
  187.0140  177.3150  145.5020 C   0  0  0  0  0  0  0  0  0  0  0  0
  187.3990  178.1680  146.5480 C   0  0  0  0  0  3  0  0  0  0  0  0
  186.8860  179.4120  148.6490 C   0  0  0  0  0  1  0  0  0  0  0  0
  185.2180  178.0040  147.5050 N   0  0  0  0  0  0  0  0  0  0  0  0
  186.4810  178.5060  147.5440 C   0  0  0  0  0  0  0  0  0  0  0  0
  184.8150  177.1690  146.5110 C   0  0  0  0  0  3  0  0  0  0  0  0
  194.3050  175.4020  142.3210 C   0  0  0  0  0  1  0  0  0  0  0  0
  195.0370  175.0240  143.5940 C   0  0  0  0  0  2  0  0  0  0  0  0
  1  4  1  0  0  0  0
  1 27  1  0  0  0  0
  2 17  1  0  0  0  0
  3  7  1  0  0  0  0
  4 12  1  0  0  0  0
  6  9  2  0  0  0  0
  7 21  1  0  0  0  0
  7 10  2  0  0  0  0
  8 26  1  6  0  0  0
  8 18  1  0  0  0  0
  9  3  1  0  0  0  0
  9 13  1  0  0  0  0
 10  5  1  0  0  0  0
 11 16  2  0  0  0  0
 11  6  1  0  0  0  0
 12  8  1  0  0  0  0
 13 21  1  0  0  0  0
 14  2  1  0  0  0  0
 15 28  2  0  0  0  0
 16 20  1  0  0  0  0
 17 13  1  0  0  0  0
 19  5  1  0  0  0  0
 19 25  1  0  0  0  0
 19 18  1  0  0  0  0
 20 15  1  0  0  0  0
 20  3  2  0  0  0  0
 21 27  1  0  0  0  0
 22  6  1  0  0  0  0
 22  2  1  0  0  0  0
 23 10  1  0  0  0  0
 23 30  1  0  0  0  0
 24  2  1  0  0  0  0
 25 18  1  0  0  0  0
 27 25  1  0  0  0  0
 28 23  1  0  0  0  0
 29 30  2  0  0  0  0
 29 35  1  0  0  0  0
 30 31  1  0  0  0  0
 31 34  2  0  0  0  0
 33 34  1  0  0  0  0
 34 32  1  0  0  0  0
 35 33  2  0  0  0  0
 36 37  1  0  0  0  0
 37  4  1  0  0  0  0
M  END
>  <MODEL>
3

>  <REMARK>
 VINA RESULT:      -8.9      1.701      5.210
  Name = 
  2 active torsions:
  status: ('A' for Active; 'I' for Inactive)
    1  A    between atoms: N_4  and  C_37
    2  A    between atoms: N_23  and  C_30
                            x       y       z     vdW  Elec       q    Type
                         _______ _______ _______ _____ _____    ______ ____

>  <TORSDO>
F 2

$$$$
=
 OpenBabel11112417263D

 37 44  0  0  1  0  0  0  0  0999 V2000
  189.3660  176.1170  145.3680 C   0  0  0  0  0  2  0  0  0  0  0  0
  187.2750  176.8680  141.3340 C   0  0  0  0  0  0  0  0  0  0  0  0
  190.5110  174.3060  142.0430 C   0  0  0  0  0  0  0  0  0  0  0  0
  188.7580  176.9400  146.4140 N   0  0  0  0  0  0  0  0  0  0  0  0
  193.1980  175.3660  144.6430 C   0  0  0  0  0  2  0  0  0  0  0  0
  188.4470  174.7210  140.8680 C   0  0  0  0  0  0  0  0  0  0  0  0
  191.3470  175.0500  142.9800 C   0  0  0  0  0  0  0  0  0  0  0  0
  190.9650  176.6100  147.6460 C   0  0  2  0  0  3  0  0  0  0  0  0
  189.4500  175.1010  141.7290 C   0  0  0  0  0  0  0  0  0  0  0  0
  192.5470  174.6450  143.4740 C   0  0  0  0  0  0  0  0  0  0  0  0
  188.4860  173.4230  140.3370 C   0  0  0  0  0  3  0  0  0  0  0  0
  189.7400  177.4980  147.3600 C   0  0  0  0  0  2  0  0  0  0  0  0
  189.4440  176.3370  142.3880 N   0  0  0  0  0  0  0  0  0  0  0  0
  186.3510  176.5960  142.5070 C   0  0  0  0  0  1  0  0  0  0  0  0
  191.5190  172.0000  142.0940 C   0  0  0  0  0  3  0  0  0  0  0  0
  189.5270  172.5490  140.7250 C   0  0  0  0  0  3  0  0  0  0  0  0
  188.6180  177.4260  141.8740 C   0  0  0  0  0  2  0  0  0  0  0  0
  192.1370  176.7120  146.6460 C   0  0  1  0  0  3  0  0  0  0  0  0
  192.0960  175.6850  145.6160 C   0  0  1  0  0  3  0  0  0  0  0  0
  190.5510  172.9820  141.5980 C   0  0  0  0  0  0  0  0  0  0  0  0
  190.6830  176.4330  143.1560 C   0  0  1  0  0  3  0  0  0  0  0  0
  187.4410  175.6520  140.5730 O   0  0  0  0  0  0  0  0  0  0  0  0
  193.2770  173.5530  142.8710 N   0  0  0  0  0  0  0  0  0  0  0  0
  186.6320  177.9160  140.4510 C   0  0  0  0  0  1  0  0  0  0  0  0
  191.7400  177.0720  145.2600 N   0  0  1  0  0  0  0  0  0  0  0  0
  190.6200  175.2910  147.9610 O   0  0  0  0  0  1  0  0  0  0  0  0
  190.4330  176.9130  144.6030 C   0  0  2  0  0  3  0  0  0  0  0  0
  192.7000  172.2510  142.6600 C   0  0  0  0  0  3  0  0  0  0  0  0
  195.6150  172.8940  143.3700 C   0  0  0  0  0  3  0  0  0  0  0  0
  194.7010  173.6880  142.6590 C   0  0  0  0  0  0  0  0  0  0  0  0
  195.1970  174.5950  141.7100 C   0  0  0  0  0  3  0  0  0  0  0  0
  197.1000  175.6660  140.5020 C   0  0  0  0  0  1  0  0  0  0  0  0
  197.4320  173.9240  142.2150 N   0  0  0  0  0  0  0  0  0  0  0  0
  196.5740  174.7030  141.5030 C   0  0  0  0  0  0  0  0  0  0  0  0
  196.9840  173.0300  143.1350 C   0  0  0  0  0  3  0  0  0  0  0  0
  186.4830  176.7850  147.2630 C   0  0  0  0  0  1  0  0  0  0  0  0
  187.8340  176.1020  147.1620 C   0  0  0  0  0  2  0  0  0  0  0  0
  1  4  1  0  0  0  0
  2 17  1  0  0  0  0
  2 14  1  0  0  0  0
  3  7  1  0  0  0  0
  4 37  1  0  0  0  0
  4 12  1  0  0  0  0
  5 19  1  0  0  0  0
  6  9  2  0  0  0  0
  7 21  1  0  0  0  0
  7 10  2  0  0  0  0
  8 26  1  6  0  0  0
  9  3  1  0  0  0  0
  9 13  1  0  0  0  0
 10  5  1  0  0  0  0
 11 16  2  0  0  0  0
 11  6  1  0  0  0  0
 12  8  1  0  0  0  0
 13 21  1  0  0  0  0
 15 28  2  0  0  0  0
 16 20  1  0  0  0  0
 17 13  1  0  0  0  0
 18  8  1  0  0  0  0
 19 18  1  0  0  0  0
 20  3  2  0  0  0  0
 20 15  1  0  0  0  0
 21 27  1  0  0  0  0
 22  6  1  0  0  0  0
 22  2  1  0  0  0  0
 23 10  1  0  0  0  0
 24  2  1  0  0  0  0
 25 19  1  0  0  0  0
 25 18  1  0  0  0  0
 27 25  1  0  0  0  0
 27  1  1  0  0  0  0
 28 23  1  0  0  0  0
 30 23  1  0  0  0  0
 30 29  2  0  0  0  0
 31 30  1  0  0  0  0
 32 34  1  0  0  0  0
 33 35  2  0  0  0  0
 34 31  2  0  0  0  0
 34 33  1  0  0  0  0
 35 29  1  0  0  0  0
 37 36  1  0  0  0  0
M  END
>  <MODEL>
4

>  <REMARK>
 VINA RESULT:      -8.3      2.241      7.926
  Name = 
  2 active torsions:
  status: ('A' for Active; 'I' for Inactive)
    1  A    between atoms: N_4  and  C_37
    2  A    between atoms: N_23  and  C_30
                            x       y       z     vdW  Elec       q    Type
                         _______ _______ _______ _____ _____    ______ ____

>  <TORSDO>
F 2

$$$$
=
 OpenBabel11112417263D

 37 44  0  0  1  0  0  0  0  0999 V2000
  194.1780  173.8110  143.9870 C   0  0  0  0  0  2  0  0  0  0  0  0
  192.4910  169.6860  142.8270 C   0  0  0  0  0  0  0  0  0  0  0  0
  190.4530  173.3430  142.7400 C   0  0  0  0  0  0  0  0  0  0  0  0
  195.5640  173.6830  144.4380 N   0  0  0  0  0  0  0  0  0  0  0  0
  191.2090  175.9680  145.5040 C   0  0  0  0  0  2  0  0  0  0  0  0
  190.8530  171.1970  141.7170 C   0  0  0  0  0  0  0  0  0  0  0  0
  190.9040  174.0230  143.9510 C   0  0  0  0  0  0  0  0  0  0  0  0
  195.1500  175.9030  145.6200 C   0  0  2  0  0  3  0  0  0  0  0  0
  191.0460  172.1170  142.7210 C   0  0  0  0  0  0  0  0  0  0  0  0
  190.4800  175.2380  144.3880 C   0  0  0  0  0  0  0  0  0  0  0  0
  190.0550  171.5670  140.6240 C   0  0  0  0  0  3  0  0  0  0  0  0
  195.8850  174.5500  145.5850 C   0  0  0  0  0  2  0  0  0  0  0  0
  191.9060  171.8780  143.8020 N   0  0  0  0  0  0  0  0  0  0  0  0
  193.8460  170.0270  142.2330 C   0  0  0  0  0  1  0  0  0  0  0  0
  189.2600  175.1660  141.4790 C   0  0  0  0  0  3  0  0  0  0  0  0
  189.5080  172.8700  140.5780 C   0  0  0  0  0  3  0  0  0  0  0  0
  192.2930  170.5080  144.1270 C   0  0  0  0  0  2  0  0  0  0  0  0
  193.7380  175.9020  146.2440 C   0  0  1  0  0  3  0  0  0  0  0  0
  192.6790  175.7720  145.2550 C   0  0  1  0  0  3  0  0  0  0  0  0
  189.7130  173.7810  141.6390 C   0  0  0  0  0  0  0  0  0  0  0  0
  191.8120  173.0240  144.7010 C   0  0  1  0  0  3  0  0  0  0  0  0
  191.4670  169.9430  141.8420 O   0  0  0  0  0  0  0  0  0  0  0  0
  189.2880  175.8550  143.8510 N   0  0  0  0  0  0  0  0  0  0  0  0
  192.4790  168.2130  143.1750 C   0  0  0  0  0  1  0  0  0  0  0  0
  193.0030  174.6170  146.1150 N   0  0  1  0  0  0  0  0  0  0  0  0
  195.2170  176.5910  144.4040 O   0  0  0  0  0  1  0  0  0  0  0  0
  193.2030  173.5330  145.1400 C   0  0  2  0  0  3  0  0  0  0  0  0
  189.0880  176.0720  142.4420 C   0  0  0  0  0  3  0  0  0  0  0  0
  188.2420  176.0540  146.0910 C   0  0  0  0  0  3  0  0  0  0  0  0
  188.3460  176.4760  144.7560 C   0  0  0  0  0  0  0  0  0  0  0  0
  187.5400  177.5410  144.3240 C   0  0  0  0  0  3  0  0  0  0  0  0
  185.7910  179.2670  144.7550 C   0  0  0  0  0  1  0  0  0  0  0  0
  186.5650  177.7040  146.4970 N   0  0  0  0  0  0  0  0  0  0  0  0
  186.6480  178.1430  145.2130 C   0  0  0  0  0  0  0  0  0  0  0  0
  187.3380  176.6820  146.9500 C   0  0  0  0  0  3  0  0  0  0  0  0
  195.6630  173.9830  142.0260 C   0  0  0  0  0  1  0  0  0  0  0  0
  196.4320  174.0550  143.3320 C   0  0  0  0  0  2  0  0  0  0  0  0
  1  4  1  0  0  0  0
  1 27  1  0  0  0  0
  2 24  1  0  0  0  0
  2 17  1  0  0  0  0
  3  7  1  0  0  0  0
  4 12  1  0  0  0  0
  6 22  1  0  0  0  0
  6  9  2  0  0  0  0
  7 10  2  0  0  0  0
  7 21  1  0  0  0  0
  8 26  1  6  0  0  0
  8 18  1  0  0  0  0
  9  3  1  0  0  0  0
  9 13  1  0  0  0  0
 10  5  1  0  0  0  0
 11  6  1  0  0  0  0
 12  8  1  0  0  0  0
 13 17  1  0  0  0  0
 13 21  1  0  0  0  0
 14  2  1  0  0  0  0
 15 20  1  0  0  0  0
 15 28  2  0  0  0  0
 16 11  2  0  0  0  0
 16 20  1  0  0  0  0
 19  5  1  0  0  0  0
 19 25  1  0  0  0  0
 19 18  1  0  0  0  0
 20  3  2  0  0  0  0
 21 27  1  0  0  0  0
 22  2  1  0  0  0  0
 23 10  1  0  0  0  0
 23 30  1  0  0  0  0
 25 18  1  0  0  0  0
 27 25  1  0  0  0  0
 28 23  1  0  0  0  0
 29 35  1  0  0  0  0
 30 29  2  0  0  0  0
 31 30  1  0  0  0  0
 31 34  2  0  0  0  0
 32 34  1  0  0  0  0
 33 35  2  0  0  0  0
 34 33  1  0  0  0  0
 36 37  1  0  0  0  0
 37  4  1  0  0  0  0
M  END
>  <MODEL>
5

>  <REMARK>
 VINA RESULT:      -8.1      1.678      5.351
  Name = 
  2 active torsions:
  status: ('A' for Active; 'I' for Inactive)
    1  A    between atoms: N_4  and  C_37
    2  A    between atoms: N_23  and  C_30
                            x       y       z     vdW  Elec       q    Type
                         _______ _______ _______ _____ _____    ______ ____

>  <TORSDO>
F 2

$$$$
=
 OpenBabel11112417263D

 37 44  0  0  1  0  0  0  0  0999 V2000
  191.1730  173.1590  142.1780 C   0  0  0  0  0  2  0  0  0  0  0  0
  189.4900  175.6410  145.6740 C   0  0  0  0  0  0  0  0  0  0  0  0
  193.3600  174.0740  145.3450 C   0  0  0  0  0  0  0  0  0  0  0  0
  190.1400  172.9480  141.1640 N   0  0  0  0  0  0  0  0  0  0  0  0
  193.8340  170.6060  143.6550 C   0  0  0  0  0  2  0  0  0  0  0  0
  191.9390  175.8890  146.0520 C   0  0  0  0  0  0  0  0  0  0  0  0
  193.1530  172.7510  144.7630 C   0  0  0  0  0  0  0  0  0  0  0  0
  191.5630  170.9570  140.4500 C   0  0  2  0  0  3  0  0  0  0  0  0
  192.1310  174.6330  145.5240 C   0  0  0  0  0  0  0  0  0  0  0  0
  194.1210  171.8310  144.5070 C   0  0  0  0  0  0  0  0  0  0  0  0
  193.0700  176.6570  146.3630 C   0  0  0  0  0  3  0  0  0  0  0  0
  190.1680  171.5960  140.5780 C   0  0  0  0  0  2  0  0  0  0  0  0
  191.0660  173.8320  145.0890 N   0  0  0  0  0  0  0  0  0  0  0  0
  189.2210  176.1990  144.2880 C   0  0  0  0  0  1  0  0  0  0  0  0
  195.8510  174.3880  145.1650 C   0  0  0  0  0  3  0  0  0  0  0  0
  194.3560  176.1320  146.0960 C   0  0  0  0  0  3  0  0  0  0  0  0
  189.7130  174.1090  145.5620 C   0  0  0  0  0  2  0  0  0  0  0  0
  192.1050  170.2320  141.7010 C   0  0  1  0  0  3  0  0  0  0  0  0
  192.9710  171.0720  142.5140 C   0  0  1  0  0  3  0  0  0  0  0  0
  194.5130  174.8290  145.5700 C   0  0  0  0  0  0  0  0  0  0  0  0
  191.6250  172.5530  144.6590 C   0  0  1  0  0  3  0  0  0  0  0  0
  190.6230  176.3300  146.2480 O   0  0  0  0  0  0  0  0  0  0  0  0
  195.4420  171.9520  145.0830 N   0  0  0  0  0  0  0  0  0  0  0  0
  188.2730  175.8940  146.5360 C   0  0  0  0  0  1  0  0  0  0  0  0
  191.6080  170.7700  142.9940 N   0  0  1  0  0  0  0  0  0  0  0  0
  192.5000  171.8090  139.8560 O   0  0  0  0  0  1  0  0  0  0  0  0
  191.0660  172.1060  143.2910 C   0  0  2  0  0  3  0  0  0  0  0  0
  196.2500  173.1350  144.9410 C   0  0  0  0  0  3  0  0  0  0  0  0
  197.3400  170.3610  145.1960 C   0  0  0  0  0  3  0  0  0  0  0  0
  196.0770  170.7800  145.6420 C   0  0  0  0  0  0  0  0  0  0  0  0
  195.4550  170.0550  146.6710 C   0  0  0  0  0  3  0  0  0  0  0  0
  195.4280  168.1660  148.3000 C   0  0  0  0  0  1  0  0  0  0  0  0
  197.3080  168.5520  146.7530 N   0  0  0  0  0  0  0  0  0  0  0  0
  196.0880  168.9360  147.2150 C   0  0  0  0  0  0  0  0  0  0  0  0
  197.9410  169.2370  145.7650 C   0  0  0  0  0  3  0  0  0  0  0  0
  189.3160  173.7220  139.0100 C   0  0  0  0  0  1  0  0  0  0  0  0
  190.3590  173.9100  140.0950 C   0  0  0  0  0  2  0  0  0  0  0  0
  1 27  1  0  0  0  0
  2 22  1  0  0  0  0
  2 24  1  0  0  0  0
  3  9  2  0  0  0  0
  3 20  1  0  0  0  0
  4  1  1  0  0  0  0
  5 10  1  0  0  0  0
  6 22  1  0  0  0  0
  6 11  2  0  0  0  0
  7  3  1  0  0  0  0
  8 26  1  1  0  0  0
  8 12  1  0  0  0  0
  8 18  1  0  0  0  0
  9  6  1  0  0  0  0
 10  7  2  0  0  0  0
 10 23  1  0  0  0  0
 12  4  1  0  0  0  0
 13  9  1  0  0  0  0
 13 17  1  0  0  0  0
 14  2  1  0  0  0  0
 15 20  1  0  0  0  0
 16 11  1  0  0  0  0
 17  2  1  0  0  0  0
 18 19  1  0  0  0  0
 18 25  1  0  0  0  0
 19 25  1  0  0  0  0
 19  5  1  0  0  0  0
 20 16  2  0  0  0  0
 21  7  1  0  0  0  0
 21 13  1  0  0  0  0
 23 30  1  0  0  0  0
 25 27  1  0  0  0  0
 27 21  1  0  0  0  0
 28 23  1  0  0  0  0
 28 15  2  0  0  0  0
 29 30  2  0  0  0  0
 29 35  1  0  0  0  0
 30 31  1  0  0  0  0
 31 34  2  0  0  0  0
 33 34  1  0  0  0  0
 34 32  1  0  0  0  0
 35 33  2  0  0  0  0
 36 37  1  0  0  0  0
 37  4  1  0  0  0  0
M  END
>  <MODEL>
6

>  <REMARK>
 VINA RESULT:      -8.0      3.034      7.417
  Name = 
  2 active torsions:
  status: ('A' for Active; 'I' for Inactive)
    1  A    between atoms: N_4  and  C_37
    2  A    between atoms: N_23  and  C_30
                            x       y       z     vdW  Elec       q    Type
                         _______ _______ _______ _____ _____    ______ ____

>  <TORSDO>
F 2

$$$$
=
 OpenBabel11112417263D

 37 44  0  0  1  0  0  0  0  0999 V2000
  191.8490  175.7310  145.2410 C   0  0  0  0  0  2  0  0  0  0  0  0
  187.7050  177.1380  143.8050 C   0  0  0  0  0  0  0  0  0  0  0  0
  190.2210  174.3870  141.8960 C   0  0  0  0  0  0  0  0  0  0  0  0
  192.2120  176.4120  146.4840 N   0  0  0  0  0  0  0  0  0  0  0  0
  194.0620  174.9590  142.0350 C   0  0  0  0  0  2  0  0  0  0  0  0
  187.9770  175.0420  142.4880 C   0  0  0  0  0  0  0  0  0  0  0  0
  191.5540  174.9560  142.0670 C   0  0  0  0  0  0  0  0  0  0  0  0
  194.6090  175.8280  145.8430 C   0  0  2  0  0  3  0  0  0  0  0  0
  189.3360  175.2560  142.4590 C   0  0  0  0  0  0  0  0  0  0  0  0
  192.7110  174.4410  141.5710 C   0  0  0  0  0  0  0  0  0  0  0  0
  187.4850  173.8360  141.9680 C   0  0  0  0  0  3  0  0  0  0  0  0
  193.6350  176.7910  146.5460 C   0  0  0  0  0  2  0  0  0  0  0  0
  189.9300  176.3820  143.0440 N   0  0  0  0  0  0  0  0  0  0  0  0
  187.7860  176.7300  145.2650 C   0  0  0  0  0  1  0  0  0  0  0  0
  190.7010  172.0640  141.0520 C   0  0  0  0  0  3  0  0  0  0  0  0
  188.3960  172.8780  141.4660 C   0  0  0  0  0  3  0  0  0  0  0  0
  189.1180  177.5630  143.3250 C   0  0  0  0  0  2  0  0  0  0  0  0
  194.8040  176.0340  144.3250 C   0  0  1  0  0  3  0  0  0  0  0  0
  193.9530  175.1710  143.5200 C   0  0  1  0  0  3  0  0  0  0  0  0
  189.7850  173.1420  141.4350 C   0  0  0  0  0  0  0  0  0  0  0  0
  191.3620  176.3210  142.7630 C   0  0  1  0  0  3  0  0  0  0  0  0
  187.1620  176.0410  143.0380 O   0  0  0  0  0  0  0  0  0  0  0  0
  192.7000  173.4240  140.5440 N   0  0  0  0  0  0  0  0  0  0  0  0
  186.7750  178.3250  143.6910 C   0  0  0  0  0  1  0  0  0  0  0  0
  193.6280  176.6070  143.6200 N   0  0  1  0  0  0  0  0  0  0  0  0
  194.4040  174.4900  146.1970 O   0  0  0  0  0  1  0  0  0  0  0  0
  192.2120  176.5920  144.0230 C   0  0  2  0  0  3  0  0  0  0  0  0
  191.9740  172.1880  140.6770 C   0  0  0  0  0  3  0  0  0  0  0  0
  194.6740  172.6320  139.2690 C   0  0  0  0  0  3  0  0  0  0  0  0
  193.6140  173.5380  139.4290 C   0  0  0  0  0  0  0  0  0  0  0  0
  193.4370  174.5410  138.4630 C   0  0  0  0  0  3  0  0  0  0  0  0
  194.1310  175.6920  136.3610 C   0  0  0  0  0  1  0  0  0  0  0  0
  195.3370  173.7400  137.2610 N   0  0  0  0  0  0  0  0  0  0  0  0
  194.3150  174.6290  137.3820 C   0  0  0  0  0  0  0  0  0  0  0  0
  195.5320  172.7520  138.1730 C   0  0  0  0  0  3  0  0  0  0  0  0
  190.4540  175.1900  147.6380 C   0  0  0  0  0  1  0  0  0  0  0  0
  191.9360  175.5070  147.5880 C   0  0  0  0  0  2  0  0  0  0  0  0
  1  4  1  0  0  0  0
  2 14  1  0  0  0  0
  3  7  1  0  0  0  0
  3  9  1  0  0  0  0
  4 12  1  0  0  0  0
  4 37  1  0  0  0  0
  5 19  1  0  0  0  0
  6 22  1  0  0  0  0
  7 21  1  0  0  0  0
  8 26  1  6  0  0  0
  8 12  1  0  0  0  0
  9  6  2  0  0  0  0
  9 13  1  0  0  0  0
 10  5  1  0  0  0  0
 10  7  2  0  0  0  0
 11  6  1  0  0  0  0
 13 17  1  0  0  0  0
 15 20  1  0  0  0  0
 16 11  2  0  0  0  0
 17  2  1  0  0  0  0
 18  8  1  0  0  0  0
 19 25  1  0  0  0  0
 19 18  1  0  0  0  0
 20 16  1  0  0  0  0
 20  3  2  0  0  0  0
 21 13  1  0  0  0  0
 21 27  1  0  0  0  0
 22  2  1  0  0  0  0
 23 28  1  0  0  0  0
 23 10  1  0  0  0  0
 24  2  1  0  0  0  0
 25 27  1  0  0  0  0
 25 18  1  0  0  0  0
 27  1  1  0  0  0  0
 28 15  2  0  0  0  0
 29 30  1  0  0  0  0
 30 23  1  0  0  0  0
 31 30  2  0  0  0  0
 32 34  1  0  0  0  0
 33 34  2  0  0  0  0
 33 35  1  0  0  0  0
 34 31  1  0  0  0  0
 35 29  2  0  0  0  0
 37 36  1  0  0  0  0
M  END
>  <MODEL>
7

>  <REMARK>
 VINA RESULT:      -7.7      2.608      7.754
  Name = 
  2 active torsions:
  status: ('A' for Active; 'I' for Inactive)
    1  A    between atoms: N_4  and  C_37
    2  A    between atoms: N_23  and  C_30
                            x       y       z     vdW  Elec       q    Type
                         _______ _______ _______ _____ _____    ______ ____

>  <TORSDO>
F 2

$$$$
=
 OpenBabel11112417263D

 37 44  0  0  1  0  0  0  0  0999 V2000
  194.7150  175.0770  143.4170 C   0  0  0  0  0  2  0  0  0  0  0  0
  191.0890  176.0700  146.0780 C   0  0  0  0  0  0  0  0  0  0  0  0
  191.1420  173.5130  142.7620 C   0  0  0  0  0  0  0  0  0  0  0  0
  195.8930  175.8180  143.8690 N   0  0  0  0  0  0  0  0  0  0  0  0
  193.3900  174.4330  139.7290 C   0  0  0  0  0  2  0  0  0  0  0  0
  190.3110  173.9770  144.9770 C   0  0  0  0  0  0  0  0  0  0  0  0
  191.9960  174.2030  141.8010 C   0  0  0  0  0  0  0  0  0  0  0  0
  196.7650  175.4370  141.5040 C   0  0  2  0  0  3  0  0  0  0  0  0
  191.0410  174.3120  143.8610 C   0  0  0  0  0  0  0  0  0  0  0  0
  192.2810  173.7830  140.5400 C   0  0  0  0  0  0  0  0  0  0  0  0
  189.6910  172.7190  145.0110 C   0  0  0  0  0  3  0  0  0  0  0  0
  196.7220  176.3250  142.7620 C   0  0  0  0  0  2  0  0  0  0  0  0
  191.7780  175.5010  143.7750 N   0  0  0  0  0  0  0  0  0  0  0  0
  192.3630  175.7060  146.8200 C   0  0  0  0  0  1  0  0  0  0  0  0
  190.8850  171.2230  141.7470 C   0  0  0  0  0  3  0  0  0  0  0  0
  189.8620  171.8350  143.9200 C   0  0  0  0  0  3  0  0  0  0  0  0
  191.4660  176.6100  144.6720 C   0  0  0  0  0  2  0  0  0  0  0  0
  195.6140  175.6230  140.4920 C   0  0  1  0  0  3  0  0  0  0  0  0
  194.5330  174.6680  140.6780 C   0  0  1  0  0  3  0  0  0  0  0  0
  190.6040  172.2230  142.7810 C   0  0  0  0  0  0  0  0  0  0  0  0
  192.3620  175.5620  142.4380 C   0  0  1  0  0  3  0  0  0  0  0  0
  190.2300  174.9110  146.0190 O   0  0  0  0  0  0  0  0  0  0  0  0
  191.5040  172.7450  139.9010 N   0  0  0  0  0  0  0  0  0  0  0  0
  190.3850  177.1660  146.8480 C   0  0  0  0  0  1  0  0  0  0  0  0
  194.3290  176.0720  141.0880 N   0  0  1  0  0  0  0  0  0  0  0  0
  197.0350  174.0950  141.7930 O   0  0  0  0  0  1  0  0  0  0  0  0
  193.8600  175.9390  142.4770 C   0  0  2  0  0  3  0  0  0  0  0  0
  191.2890  171.4520  140.4970 C   0  0  0  0  0  3  0  0  0  0  0  0
  191.7140  172.1860  137.4950 C   0  0  0  0  0  3  0  0  0  0  0  0
  191.0970  172.9150  138.5240 C   0  0  0  0  0  0  0  0  0  0  0  0
  190.0510  173.7900  138.1930 C   0  0  0  0  0  3  0  0  0  0  0  0
  188.5520  174.8600  136.5090 C   0  0  0  0  0  1  0  0  0  0  0  0
  190.2800  173.2160  135.8870 N   0  0  0  0  0  0  0  0  0  0  0  0
  189.6570  173.9310  136.8610 C   0  0  0  0  0  0  0  0  0  0  0  0
  191.2910  172.3540  136.1740 C   0  0  0  0  0  3  0  0  0  0  0  0
  195.8630  174.2930  145.7640 C   0  0  0  0  0  1  0  0  0  0  0  0
  196.7080  174.9180  144.6700 C   0  0  0  0  0  2  0  0  0  0  0  0
  1  4  1  0  0  0  0
  2 14  1  0  0  0  0
  2 24  1  0  0  0  0
  3 20  2  0  0  0  0
  3  9  1  0  0  0  0
  4 37  1  0  0  0  0
  5 10  1  0  0  0  0
  5 19  1  0  0  0  0
  6 11  1  0  0  0  0
  6 22  1  0  0  0  0
  7 21  1  0  0  0  0
  7  3  1  0  0  0  0
  8 26  1  1  0  0  0
  8 12  1  0  0  0  0
  9  6  2  0  0  0  0
 10  7  2  0  0  0  0
 12  4  1  0  0  0  0
 13  9  1  0  0  0  0
 13 17  1  0  0  0  0
 15 20  1  0  0  0  0
 16 11  2  0  0  0  0
 17  2  1  0  0  0  0
 18 19  1  0  0  0  0
 18 25  1  0  0  0  0
 18  8  1  0  0  0  0
 19 25  1  0  0  0  0
 20 16  1  0  0  0  0
 21 27  1  0  0  0  0
 21 13  1  0  0  0  0
 22  2  1  0  0  0  0
 23 28  1  0  0  0  0
 23 10  1  0  0  0  0
 25 27  1  0  0  0  0
 27  1  1  0  0  0  0
 28 15  2  0  0  0  0
 29 30  1  0  0  0  0
 30 23  1  0  0  0  0
 31 30  2  0  0  0  0
 32 34  1  0  0  0  0
 33 35  1  0  0  0  0
 33 34  2  0  0  0  0
 34 31  1  0  0  0  0
 35 29  2  0  0  0  0
 37 36  1  0  0  0  0
M  END
>  <MODEL>
8

>  <REMARK>
 VINA RESULT:      -7.5      2.957      6.731
  Name = 
  2 active torsions:
  status: ('A' for Active; 'I' for Inactive)
    1  A    between atoms: N_4  and  C_37
    2  A    between atoms: N_23  and  C_30
                            x       y       z     vdW  Elec       q    Type
                         _______ _______ _______ _____ _____    ______ ____

>  <TORSDO>
F 2

$$$$
=
 OpenBabel11112417263D

 37 44  0  0  1  0  0  0  0  0999 V2000
  189.6690  173.7880  139.7530 C   0  0  0  0  0  2  0  0  0  0  0  0
  187.2620  176.5210  142.5720 C   0  0  0  0  0  0  0  0  0  0  0  0
  191.3260  175.5580  142.8790 C   0  0  0  0  0  0  0  0  0  0  0  0
  188.8000  173.2480  138.7080 N   0  0  0  0  0  0  0  0  0  0  0  0
  192.4750  171.9760  141.9020 C   0  0  0  0  0  2  0  0  0  0  0  0
  189.5910  177.2160  143.1130 C   0  0  0  0  0  0  0  0  0  0  0  0
  191.3760  174.1410  142.5330 C   0  0  0  0  0  0  0  0  0  0  0  0
  190.5630  171.4180  138.4990 C   0  0  2  0  0  3  0  0  0  0  0  0
  190.0180  175.9360  142.8430 C   0  0  0  0  0  0  0  0  0  0  0  0
  192.4870  173.3570  142.5370 C   0  0  0  0  0  0  0  0  0  0  0  0
  190.5590  178.1950  143.3760 C   0  0  0  0  0  3  0  0  0  0  0  0
  189.0860  171.8390  138.3840 C   0  0  0  0  0  2  0  0  0  0  0  0
  189.1340  174.9140  142.4700 N   0  0  0  0  0  0  0  0  0  0  0  0
  187.0780  176.7890  141.0890 C   0  0  0  0  0  1  0  0  0  0  0  0
  193.7520  176.2300  142.8650 C   0  0  0  0  0  3  0  0  0  0  0  0
  191.9290  177.8450  143.3250 C   0  0  0  0  0  3  0  0  0  0  0  0
  187.7100  175.0480  142.7630 C   0  0  0  0  0  2  0  0  0  0  0  0
  191.0530  171.0090  139.9050 C   0  0  1  0  0  3  0  0  0  0  0  0
  191.6930  172.1000  140.6230 C   0  0  1  0  0  3  0  0  0  0  0  0
  192.3280  176.5140  143.0630 C   0  0  0  0  0  0  0  0  0  0  0  0
  189.9130  173.6870  142.3330 C   0  0  1  0  0  3  0  0  0  0  0  0
  188.2120  177.4680  143.1080 O   0  0  0  0  0  0  0  0  0  0  0  0
  193.7030  173.7810  143.1950 N   0  0  0  0  0  0  0  0  0  0  0  0
  185.9300  176.7180  143.2620 C   0  0  0  0  0  1  0  0  0  0  0  0
  190.3400  171.6700  141.0280 N   0  0  1  0  0  0  0  0  0  0  0  0
  191.4320  172.2960  137.8440 O   0  0  0  0  0  1  0  0  0  0  0  0
  189.5840  172.9330  141.0260 C   0  0  2  0  0  3  0  0  0  0  0  0
  194.3470  175.0370  142.9100 C   0  0  0  0  0  3  0  0  0  0  0  0
  193.7720  172.0840  145.0010 C   0  0  0  0  0  3  0  0  0  0  0  0
  194.4280  172.8360  144.0140 C   0  0  0  0  0  0  0  0  0  0  0  0
  195.8020  172.6270  143.8130 C   0  0  0  0  0  3  0  0  0  0  0  0
  197.9410  171.4800  144.3900 C   0  0  0  0  0  1  0  0  0  0  0  0
  195.8230  170.9920  145.5520 N   0  0  0  0  0  0  0  0  0  0  0  0
  196.4870  171.6990  144.5990 C   0  0  0  0  0  0  0  0  0  0  0  0
  194.4920  171.1640  145.7670 C   0  0  0  0  0  3  0  0  0  0  0  0
  187.8130  174.9540  137.2830 C   0  0  0  0  0  1  0  0  0  0  0  0
  189.0020  174.0390  137.5040 C   0  0  0  0  0  2  0  0  0  0  0  0
  1 27  1  0  0  0  0
  2 17  1  0  0  0  0
  2 22  1  0  0  0  0
  2 24  1  0  0  0  0
  3 20  1  0  0  0  0
  4  1  1  0  0  0  0
  5 10  1  0  0  0  0
  6 11  2  0  0  0  0
  7 10  2  0  0  0  0
  7  3  1  0  0  0  0
  8 26  1  1  0  0  0
  8 18  1  0  0  0  0
  9  3  2  0  0  0  0
  9  6  1  0  0  0  0
 10 23  1  0  0  0  0
 12  8  1  0  0  0  0
 12  4  1  0  0  0  0
 13 17  1  0  0  0  0
 13  9  1  0  0  0  0
 14  2  1  0  0  0  0
 15 28  2  0  0  0  0
 15 20  1  0  0  0  0
 16 11  1  0  0  0  0
 18 19  1  0  0  0  0
 18 25  1  0  0  0  0
 19 25  1  0  0  0  0
 19  5  1  0  0  0  0
 20 16  2  0  0  0  0
 21 13  1  0  0  0  0
 21  7  1  0  0  0  0
 22  6  1  0  0  0  0
 23 30  1  0  0  0  0
 27 25  1  0  0  0  0
 27 21  1  0  0  0  0
 28 23  1  0  0  0  0
 29 35  1  0  0  0  0
 30 29  2  0  0  0  0
 31 30  1  0  0  0  0
 31 34  2  0  0  0  0
 32 34  1  0  0  0  0
 33 35  2  0  0  0  0
 34 33  1  0  0  0  0
 36 37  1  0  0  0  0
 37  4  1  0  0  0  0
M  END
>  <MODEL>
9

>  <REMARK>
 VINA RESULT:      -7.4      2.837      7.092
  Name = 
  2 active torsions:
  status: ('A' for Active; 'I' for Inactive)
    1  A    between atoms: N_4  and  C_37
    2  A    between atoms: N_23  and  C_30
                            x       y       z     vdW  Elec       q    Type
                         _______ _______ _______ _____ _____    ______ ____

>  <TORSDO>
F 2

$$$$
