=
 OpenBabel11112417453D

 34 41  0  0  1  0  0  0  0  0999 V2000
  189.4820  174.7330  142.8290 C   0  0  0  0  0  0  0  0  0  0  0  0
  191.6100  173.3470  142.9410 C   0  0  0  0  0  2  0  0  0  0  0  0
  185.3190  178.9270  145.7540 C   0  0  2  0  0  3  0  0  0  0  0  0
  187.6860  176.3780  142.7600 C   0  0  0  0  0  0  0  0  0  0  0  0
  187.3910  178.0250  144.6640 N   0  0  1  0  0  0  0  0  0  0  0  0
  185.5160  176.9360  145.9480 C   0  0  0  0  0  2  0  0  0  0  0  0
  184.4380  177.8320  145.7970 O   0  0  0  0  0  0  0  0  0  0  0  0
  184.8660  178.9250  143.2150 C   0  0  0  0  0  2  0  0  0  0  0  0
  190.6850  174.2420  144.9940 C   0  0  2  0  0  3  0  0  0  0  0  0
  192.9430  175.7000  146.8590 C   0  0  0  0  0  2  0  0  0  0  0  0
  188.7420  177.5860  145.0450 C   0  0  0  0  0  2  0  0  0  0  0  0
  186.1380  178.3780  142.5860 C   0  0  0  0  0  2  0  0  0  0  0  0
  190.3240  175.6800  145.4190 C   0  0  1  0  0  3  0  0  0  0  0  0
  192.5650  172.9900  144.0670 C   0  0  0  0  0  2  0  0  0  0  0  0
  186.7750  177.3400  143.4980 C   0  0  1  0  0  3  0  0  0  0  0  0
  185.1640  179.7550  144.4630 C   0  0  0  0  0  2  0  0  0  0  0  0
  193.1250  174.9820  145.5100 C   0  0  1  0  0  3  0  0  0  0  0  0
  188.7070  175.7220  143.4650 C   0  0  0  0  0  0  0  0  0  0  0  0
  186.5480  178.0450  145.8750 C   0  0  2  0  0  3  0  0  0  0  0  0
  188.9290  176.0770  144.9100 C   0  0  2  0  0  3  0  0  0  0  0  0
  188.2230  175.0690  140.7840 C   0  0  0  0  0  3  0  0  0  0  0  0
  191.6580  175.3320  147.6050 C   0  0  0  0  0  2  0  0  0  0  0  0
  187.4390  176.0310  141.4230 C   0  0  0  0  0  3  0  0  0  0  0  0
  190.3940  175.8820  146.9410 C   0  0  0  0  0  2  0  0  0  0  0  0
  192.1370  173.8150  145.2760 C   0  0  1  0  0  3  0  0  0  0  0  0
  189.2440  174.4230  141.4840 C   0  0  0  0  0  3  0  0  0  0  0  0
  190.5180  174.0700  143.5630 N   0  0  0  0  0  0  0  0  0  0  0  0
  193.0770  175.9140  144.4670 O   0  0  0  0  0  0  0  0  0  0  0  0
  194.3740  176.4220  144.3700 C   0  0  0  0  0  2  0  0  0  0  0  0
  194.8700  176.6870  141.1810 O   0  0  0  0  0  0  0  0  0  0  0  0
  196.4040  176.4090  142.9540 C   0  0  0  0  0  2  0  0  0  0  0  0
  195.1450  175.6680  143.3000 C   0  0  2  0  0  3  0  0  0  0  0  0
  196.2350  176.7610  141.4960 C   0  0  0  0  0  2  0  0  0  0  0  0
  194.3560  175.6800  142.0110 C   0  0  0  0  0  2  0  0  0  0  0  0
  1 18  1  0  0  0  0
  1 27  1  0  0  0  0
  2 27  1  0  0  0  0
  2 14  1  0  0  0  0
  3 16  1  6  0  0  0
  3  7  1  0  0  0  0
  3 19  1  0  0  0  0
  4 18  2  0  0  0  0
  4 15  1  0  0  0  0
  5 11  1  1  0  0  0
  5 19  1  0  0  0  0
  7  6  1  0  0  0  0
  8 16  1  0  0  0  0
  9 27  1  6  0  0  0
  9 25  1  0  0  0  0
  9 13  1  0  0  0  0
 10 22  1  0  0  0  0
 12  8  1  0  0  0  0
 13 24  1  1  0  0  0
 15 12  1  6  0  0  0
 15  5  1  0  0  0  0
 17 28  1  6  0  0  0
 17 10  1  0  0  0  0
 18 20  1  0  0  0  0
 19  6  1  6  0  0  0
 20 11  1  6  0  0  0
 20 13  1  0  0  0  0
 21 23  2  0  0  0  0
 21 26  1  0  0  0  0
 23  4  1  0  0  0  0
 24 22  1  0  0  0  0
 25 14  1  6  0  0  0
 25 17  1  0  0  0  0
 26  1  2  0  0  0  0
 29 28  1  0  0  0  0
 30 33  1  0  0  0  0
 30 34  1  0  0  0  0
 31 32  1  0  0  0  0
 32 29  1  1  0  0  0
 33 31  1  0  0  0  0
 34 32  1  0  0  0  0
M  END
>  <MODEL>
1

>  <REMARK>
 VINA RESULT:      -9.3      0.000      0.000
  Name = 
  3 active torsions:
  status: ('A' for Active; 'I' for Inactive)
    1  A    between atoms: C_17  and  O_28
    2  A    between atoms: O_28  and  C_29
    3  A    between atoms: C_29  and  C_32
                            x       y       z     vdW  Elec       q    Type
                         _______ _______ _______ _____ _____    ______ ____

>  <TORSDO>
F 3

$$$$
=
 OpenBabel11112417453D

 34 41  0  0  1  0  0  0  0  0999 V2000
  189.7050  174.1610  143.6170 C   0  0  0  0  0  0  0  0  0  0  0  0
  191.9380  173.0220  144.0370 C   0  0  0  0  0  2  0  0  0  0  0  0
  185.3740  178.8600  145.2380 C   0  0  2  0  0  3  0  0  0  0  0  0
  187.7850  175.5760  143.1240 C   0  0  0  0  0  0  0  0  0  0  0  0
  187.4540  177.7580  144.3710 N   0  0  1  0  0  0  0  0  0  0  0  0
  185.7360  177.0730  146.0820 C   0  0  0  0  0  2  0  0  0  0  0  0
  184.5840  177.7980  145.7140 O   0  0  0  0  0  0  0  0  0  0  0  0
  184.7980  177.9580  142.8910 C   0  0  0  0  0  2  0  0  0  0  0  0
  191.0470  174.5150  145.7270 C   0  0  2  0  0  3  0  0  0  0  0  0
  193.2720  176.6520  146.8150 C   0  0  0  0  0  2  0  0  0  0  0  0
  188.8520  177.5550  144.7790 C   0  0  0  0  0  2  0  0  0  0  0  0
  186.0770  177.3030  142.3940 C   0  0  0  0  0  2  0  0  0  0  0  0
  190.5960  175.9880  145.6620 C   0  0  1  0  0  3  0  0  0  0  0  0
  192.9720  173.1290  145.1460 C   0  0  0  0  0  2  0  0  0  0  0  0
  186.8370  176.6790  143.5550 C   0  0  1  0  0  3  0  0  0  0  0  0
  185.0910  179.1830  143.7570 C   0  0  0  0  0  2  0  0  0  0  0  0
  193.4440  175.5260  145.7810 C   0  0  1  0  0  3  0  0  0  0  0  0
  188.8870  175.2620  143.9340 C   0  0  0  0  0  0  0  0  0  0  0  0
  186.6720  178.1460  145.5620 C   0  0  2  0  0  3  0  0  0  0  0  0
  189.1510  176.1050  145.1520 C   0  0  2  0  0  3  0  0  0  0  0  0
  188.3260  173.7000  141.6770 C   0  0  0  0  0  3  0  0  0  0  0  0
  192.0580  176.4900  147.7330 C   0  0  0  0  0  2  0  0  0  0  0  0
  187.5000  174.7770  142.0070 C   0  0  0  0  0  3  0  0  0  0  0  0
  190.7240  176.7050  147.0150 C   0  0  0  0  0  2  0  0  0  0  0  0
  192.5400  174.2950  146.0300 C   0  0  1  0  0  3  0  0  0  0  0  0
  189.4270  173.3940  142.4790 C   0  0  0  0  0  3  0  0  0  0  0  0
  190.8240  173.8510  144.4550 N   0  0  0  0  0  0  0  0  0  0  0  0
  193.2720  176.0370  144.4890 O   0  0  0  0  0  0  0  0  0  0  0  0
  194.5520  176.0610  143.9310 C   0  0  0  0  0  2  0  0  0  0  0  0
  194.2870  173.8930  141.5400 O   0  0  0  0  0  0  0  0  0  0  0  0
  193.0350  175.8450  141.9870 C   0  0  0  0  0  2  0  0  0  0  0  0
  194.4530  176.0870  142.4160 C   0  0  2  0  0  3  0  0  0  0  0  0
  193.1040  174.5630  141.1930 C   0  0  0  0  0  2  0  0  0  0  0  0
  195.2070  174.9070  141.8440 C   0  0  0  0  0  2  0  0  0  0  0  0
  1 18  1  0  0  0  0
  1 27  1  0  0  0  0
  2 27  1  0  0  0  0
  2 14  1  0  0  0  0
  3 16  1  6  0  0  0
  3 19  1  0  0  0  0
  3  7  1  0  0  0  0
  4 15  1  0  0  0  0
  4 18  2  0  0  0  0
  5 11  1  1  0  0  0
  5 19  1  0  0  0  0
  7  6  1  0  0  0  0
  8 16  1  0  0  0  0
  9 27  1  6  0  0  0
  9 25  1  0  0  0  0
 10 22  1  0  0  0  0
 12  8  1  0  0  0  0
 13  9  1  0  0  0  0
 13 24  1  1  0  0  0
 15 12  1  6  0  0  0
 15  5  1  0  0  0  0
 17 28  1  6  0  0  0
 17 25  1  0  0  0  0
 17 10  1  0  0  0  0
 18 20  1  0  0  0  0
 19  6  1  6  0  0  0
 20 11  1  6  0  0  0
 20 13  1  0  0  0  0
 21 23  2  0  0  0  0
 21 26  1  0  0  0  0
 23  4  1  0  0  0  0
 24 22  1  0  0  0  0
 25 14  1  6  0  0  0
 26  1  2  0  0  0  0
 29 28  1  0  0  0  0
 30 34  1  0  0  0  0
 31 32  1  0  0  0  0
 32 29  1  1  0  0  0
 33 30  1  0  0  0  0
 33 31  1  0  0  0  0
 34 32  1  0  0  0  0
M  END
>  <MODEL>
2

>  <REMARK>
 VINA RESULT:      -8.8      1.064      1.345
  Name = 
  3 active torsions:
  status: ('A' for Active; 'I' for Inactive)
    1  A    between atoms: C_17  and  O_28
    2  A    between atoms: O_28  and  C_29
    3  A    between atoms: C_29  and  C_32
                            x       y       z     vdW  Elec       q    Type
                         _______ _______ _______ _____ _____    ______ ____

>  <TORSDO>
F 3

$$$$
=
 OpenBabel11112417453D

 34 41  0  0  1  0  0  0  0  0999 V2000
  187.7580  175.7100  141.1390 C   0  0  0  0  0  0  0  0  0  0  0  0
  189.2330  174.0870  139.8530 C   0  0  0  0  0  2  0  0  0  0  0  0
  185.7900  178.1710  146.9300 C   0  0  2  0  0  3  0  0  0  0  0  0
  186.6910  177.4330  142.4900 C   0  0  0  0  0  0  0  0  0  0  0  0
  187.2450  177.6460  144.9550 N   0  0  1  0  0  0  0  0  0  0  0  0
  185.2700  176.4730  145.9890 C   0  0  0  0  0  2  0  0  0  0  0  0
  184.5820  177.5010  146.6660 O   0  0  0  0  0  0  0  0  0  0  0  0
  185.0680  179.7760  145.0440 C   0  0  0  0  0  2  0  0  0  0  0  0
  188.9490  173.7740  142.2400 C   0  0  2  0  0  3  0  0  0  0  0  0
  191.7880  173.2810  143.7890 C   0  0  0  0  0  2  0  0  0  0  0  0
  188.3780  176.7730  144.6150 C   0  0  0  0  0  2  0  0  0  0  0  0
  185.9690  179.4360  143.8680 C   0  0  0  0  0  2  0  0  0  0  0  0
  189.1900  174.7160  143.4360 C   0  0  1  0  0  3  0  0  0  0  0  0
  190.1180  172.9250  140.2710 C   0  0  0  0  0  2  0  0  0  0  0  0
  186.2880  177.9470  143.8590 C   0  0  1  0  0  3  0  0  0  0  0  0
  185.7940  179.6110  146.3790 C   0  0  0  0  0  2  0  0  0  0  0  0
  191.5340  173.4830  142.2850 C   0  0  1  0  0  3  0  0  0  0  0  0
  187.4790  176.2750  142.3980 C   0  0  0  0  0  0  0  0  0  0  0  0
  186.6180  177.1370  146.1910 C   0  0  2  0  0  3  0  0  0  0  0  0
  187.9860  175.6430  143.6660 C   0  0  2  0  0  3  0  0  0  0  0  0
  186.4750  177.4680  140.0700 C   0  0  0  0  0  3  0  0  0  0  0  0
  190.5550  172.8480  144.5870 C   0  0  0  0  0  2  0  0  0  0  0  0
  186.1770  178.0120  141.3210 C   0  0  0  0  0  3  0  0  0  0  0  0
  189.5090  173.9560  144.7330 C   0  0  0  0  0  2  0  0  0  0  0  0
  190.1680  172.9460  141.7960 C   0  0  1  0  0  3  0  0  0  0  0  0
  187.2660  176.3210  139.9790 C   0  0  0  0  0  3  0  0  0  0  0  0
  188.5610  174.5260  141.0600 N   0  0  0  0  0  0  0  0  0  0  0  0
  191.7050  174.8320  141.9520 O   0  0  0  0  0  0  0  0  0  0  0  0
  193.0830  175.0500  142.0030 C   0  0  0  0  0  2  0  0  0  0  0  0
  191.9340  176.7650  144.4980 O   0  0  0  0  0  0  0  0  0  0  0  0
  194.1520  176.1990  143.9170 C   0  0  0  0  0  2  0  0  0  0  0  0
  193.3680  176.3930  142.6510 C   0  0  2  0  0  3  0  0  0  0  0  0
  193.2440  176.7360  144.9970 C   0  0  0  0  0  2  0  0  0  0  0  0
  192.0700  177.0090  143.1240 C   0  0  0  0  0  2  0  0  0  0  0  0
  1 18  1  0  0  0  0
  2 14  1  0  0  0  0
  2 27  1  0  0  0  0
  3 16  1  6  0  0  0
  4 15  1  0  0  0  0
  5 11  1  6  0  0  0
  5 19  1  0  0  0  0
  6  7  1  0  0  0  0
  7  3  1  0  0  0  0
  8 16  1  0  0  0  0
  9 27  1  6  0  0  0
  9 13  1  0  0  0  0
 10 22  1  0  0  0  0
 12  8  1  0  0  0  0
 13 20  1  0  0  0  0
 13 24  1  1  0  0  0
 15 12  1  6  0  0  0
 15  5  1  0  0  0  0
 17 28  1  1  0  0  0
 17 10  1  0  0  0  0
 18  4  2  0  0  0  0
 18 20  1  0  0  0  0
 19  6  1  6  0  0  0
 19  3  1  0  0  0  0
 20 11  1  1  0  0  0
 21 23  2  0  0  0  0
 22 24  1  0  0  0  0
 23  4  1  0  0  0  0
 25 14  1  6  0  0  0
 25  9  1  0  0  0  0
 25 17  1  0  0  0  0
 26 21  1  0  0  0  0
 26  1  2  0  0  0  0
 27  1  1  0  0  0  0
 28 29  1  0  0  0  0
 30 33  1  0  0  0  0
 31 33  1  0  0  0  0
 32 29  1  1  0  0  0
 32 34  1  0  0  0  0
 32 31  1  0  0  0  0
 34 30  1  0  0  0  0
M  END
>  <MODEL>
3

>  <REMARK>
 VINA RESULT:      -8.3      1.688      2.828
  Name = 
  3 active torsions:
  status: ('A' for Active; 'I' for Inactive)
    1  A    between atoms: C_17  and  O_28
    2  A    between atoms: O_28  and  C_29
    3  A    between atoms: C_29  and  C_32
                            x       y       z     vdW  Elec       q    Type
                         _______ _______ _______ _____ _____    ______ ____

>  <TORSDO>
F 3

$$$$
=
 OpenBabel11112417453D

 34 41  0  0  1  0  0  0  0  0999 V2000
  190.4260  176.3020  144.8160 C   0  0  0  0  0  0  0  0  0  0  0  0
  192.2540  174.9390  143.6930 C   0  0  0  0  0  2  0  0  0  0  0  0
  184.2730  178.6680  144.7000 C   0  0  2  0  0  3  0  0  0  0  0  0
  188.4710  177.2600  145.9090 C   0  0  0  0  0  0  0  0  0  0  0  0
  186.1800  177.0450  144.8450 N   0  0  1  0  0  0  0  0  0  0  0  0
  185.9370  179.3140  143.7770 C   0  0  0  0  0  2  0  0  0  0  0  0
  184.8870  179.9170  144.5000 O   0  0  0  0  0  0  0  0  0  0  0  0
  185.1940  178.8360  147.1040 C   0  0  0  0  0  2  0  0  0  0  0  0
  190.3270  175.6150  142.3880 C   0  0  2  0  0  3  0  0  0  0  0  0
  189.0590  173.1510  140.6490 C   0  0  0  0  0  2  0  0  0  0  0  0
  186.8380  176.0310  144.0070 C   0  0  0  0  0  2  0  0  0  0  0  0
  186.3420  177.8400  147.1580 C   0  0  0  0  0  2  0  0  0  0  0  0
  188.8140  175.4010  142.6010 C   0  0  1  0  0  3  0  0  0  0  0  0
  192.3980  174.3250  142.3100 C   0  0  0  0  0  2  0  0  0  0  0  0
  187.0460  177.7700  145.8110 C   0  0  1  0  0  3  0  0  0  0  0  0
  184.0660  178.3490  146.1950 C   0  0  0  0  0  2  0  0  0  0  0  0
  190.2940  173.1470  141.5670 C   0  0  1  0  0  3  0  0  0  0  0  0
  189.0660  176.6660  144.7850 C   0  0  0  0  0  0  0  0  0  0  0  0
  185.3730  177.9200  143.9720 C   0  0  2  0  0  3  0  0  0  0  0  0
  188.2310  176.4600  143.5510 C   0  0  2  0  0  3  0  0  0  0  0  0
  190.5870  177.1120  147.0950 C   0  0  0  0  0  3  0  0  0  0  0  0
  188.6290  174.5410  140.1710 C   0  0  0  0  0  2  0  0  0  0  0  0
  189.2450  177.4970  147.0550 C   0  0  0  0  0  3  0  0  0  0  0  0
  188.0260  175.4030  141.2820 C   0  0  0  0  0  2  0  0  0  0  0  0
  191.0500  174.4960  141.6180 C   0  0  1  0  0  3  0  0  0  0  0  0
  191.1750  176.5140  145.9800 C   0  0  0  0  0  3  0  0  0  0  0  0
  191.0200  175.7000  143.6600 N   0  0  0  0  0  0  0  0  0  0  0  0
  189.9310  172.7120  142.8470 O   0  0  0  0  0  0  0  0  0  0  0  0
  190.0340  171.3210  142.8050 C   0  0  0  0  0  2  0  0  0  0  0  0
  192.4100  169.4550  143.9700 O   0  0  0  0  0  0  0  0  0  0  0  0
  191.4290  169.5270  141.8230 C   0  0  0  0  0  2  0  0  0  0  0  0
  191.4370  170.9190  142.3840 C   0  0  2  0  0  3  0  0  0  0  0  0
  192.3160  168.7470  142.7630 C   0  0  0  0  0  2  0  0  0  0  0  0
  192.3150  170.8080  143.6100 C   0  0  0  0  0  2  0  0  0  0  0  0
  1 26  1  0  0  0  0
  3 16  1  1  0  0  0
  4 23  2  0  0  0  0
  5 11  1  6  0  0  0
  5 15  1  0  0  0  0
  6  7  1  0  0  0  0
  7  3  1  0  0  0  0
  8 12  1  0  0  0  0
  9 13  1  0  0  0  0
  9 27  1  1  0  0  0
 10 17  1  0  0  0  0
 13 24  1  6  0  0  0
 13 20  1  0  0  0  0
 14  2  1  0  0  0  0
 15  4  1  0  0  0  0
 15 12  1  1  0  0  0
 16  8  1  0  0  0  0
 17 25  1  0  0  0  0
 17 28  1  1  0  0  0
 18  1  2  0  0  0  0
 18  4  1  0  0  0  0
 19  6  1  1  0  0  0
 19  3  1  0  0  0  0
 19  5  1  0  0  0  0
 20 11  1  1  0  0  0
 20 18  1  0  0  0  0
 22 10  1  0  0  0  0
 22 24  1  0  0  0  0
 23 21  1  0  0  0  0
 25 14  1  1  0  0  0
 25  9  1  0  0  0  0
 26 21  2  0  0  0  0
 27  2  1  0  0  0  0
 27  1  1  0  0  0  0
 29 28  1  0  0  0  0
 31 32  1  0  0  0  0
 31 33  1  0  0  0  0
 32 29  1  1  0  0  0
 32 34  1  0  0  0  0
 33 30  1  0  0  0  0
 34 30  1  0  0  0  0
M  END
>  <MODEL>
4

>  <REMARK>
 VINA RESULT:      -8.3      2.361      4.895
  Name = 
  3 active torsions:
  status: ('A' for Active; 'I' for Inactive)
    1  A    between atoms: C_17  and  O_28
    2  A    between atoms: O_28  and  C_29
    3  A    between atoms: C_29  and  C_32
                            x       y       z     vdW  Elec       q    Type
                         _______ _______ _______ _____ _____    ______ ____

>  <TORSDO>
F 3

$$$$
=
 OpenBabel11112417453D

 34 41  0  0  1  0  0  0  0  0999 V2000
  190.7300  173.4120  143.6610 C   0  0  0  0  0  0  0  0  0  0  0  0
  192.9910  172.3360  144.0970 C   0  0  0  0  0  2  0  0  0  0  0  0
  186.5620  178.4110  144.7170 C   0  0  2  0  0  3  0  0  0  0  0  0
  188.7750  174.7410  143.0720 C   0  0  0  0  0  0  0  0  0  0  0  0
  188.5570  177.1270  143.9010 N   0  0  1  0  0  0  0  0  0  0  0  0
  186.9960  176.8110  145.8540 C   0  0  0  0  0  2  0  0  0  0  0  0
  185.8170  177.4740  145.4550 O   0  0  0  0  0  0  0  0  0  0  0  0
  185.7810  177.0880  142.6450 C   0  0  0  0  0  2  0  0  0  0  0  0
  192.2530  174.1390  145.5390 C   0  0  2  0  0  3  0  0  0  0  0  0
  194.5670  176.4050  146.0010 C   0  0  0  0  0  2  0  0  0  0  0  0
  189.9860  176.9810  144.2180 C   0  0  0  0  0  2  0  0  0  0  0  0
  187.0110  176.3260  142.1750 C   0  0  0  0  0  2  0  0  0  0  0  0
  191.7990  175.5810  145.2320 C   0  0  1  0  0  3  0  0  0  0  0  0
  194.1180  172.6340  145.0710 C   0  0  0  0  0  2  0  0  0  0  0  0
  187.8700  175.9230  143.3650 C   0  0  1  0  0  3  0  0  0  0  0  0
  186.1500  178.4500  143.2310 C   0  0  0  0  0  2  0  0  0  0  0  0
  194.6470  175.0990  145.1910 C   0  0  1  0  0  3  0  0  0  0  0  0
  189.9440  174.5680  143.8290 C   0  0  0  0  0  0  0  0  0  0  0  0
  187.8840  177.7490  145.0590 C   0  0  2  0  0  3  0  0  0  0  0  0
  190.3150  175.6240  144.8360 C   0  0  2  0  0  3  0  0  0  0  0  0
  189.1850  172.6140  141.9720 C   0  0  0  0  0  3  0  0  0  0  0  0
  193.4390  176.4430  147.0340 C   0  0  0  0  0  2  0  0  0  0  0  0
  188.3920  173.7480  142.1580 C   0  0  0  0  0  3  0  0  0  0  0  0
  192.0470  176.5410  146.4070 C   0  0  0  0  0  2  0  0  0  0  0  0
  193.7670  173.9550  145.7490 C   0  0  1  0  0  3  0  0  0  0  0  0
  190.3520  172.4470  142.7190 C   0  0  0  0  0  3  0  0  0  0  0  0
  191.9190  173.2490  144.4430 N   0  0  0  0  0  0  0  0  0  0  0  0
  194.3620  175.3570  143.8450 O   0  0  0  0  0  0  0  0  0  0  0  0
  195.4370  176.1180  143.3830 C   0  0  0  0  0  2  0  0  0  0  0  0
  195.1460  174.8290  140.4260 O   0  0  0  0  0  0  0  0  0  0  0  0
  196.8660  176.1500  141.3620 C   0  0  0  0  0  2  0  0  0  0  0  0
  196.2940  175.2840  142.4460 C   0  0  2  0  0  3  0  0  0  0  0  0
  196.2810  175.5820  140.0910 C   0  0  0  0  0  2  0  0  0  0  0  0
  195.4160  174.3060  141.6990 C   0  0  0  0  0  2  0  0  0  0  0  0
  1 18  1  0  0  0  0
  1 27  1  0  0  0  0
  2 27  1  0  0  0  0
  2 14  1  0  0  0  0
  3 16  1  6  0  0  0
  3 19  1  0  0  0  0
  3  7  1  0  0  0  0
  4 15  1  0  0  0  0
  4 18  2  0  0  0  0
  5 11  1  1  0  0  0
  5 19  1  0  0  0  0
  7  6  1  0  0  0  0
  8 16  1  0  0  0  0
  9 27  1  6  0  0  0
  9 25  1  0  0  0  0
 10 22  1  0  0  0  0
 12  8  1  0  0  0  0
 13  9  1  0  0  0  0
 13 24  1  1  0  0  0
 15 12  1  6  0  0  0
 15  5  1  0  0  0  0
 17 28  1  6  0  0  0
 17 25  1  0  0  0  0
 17 10  1  0  0  0  0
 18 20  1  0  0  0  0
 19  6  1  1  0  0  0
 20 11  1  6  0  0  0
 20 13  1  0  0  0  0
 21 23  2  0  0  0  0
 21 26  1  0  0  0  0
 23  4  1  0  0  0  0
 24 22  1  0  0  0  0
 25 14  1  6  0  0  0
 26  1  2  0  0  0  0
 29 28  1  0  0  0  0
 30 34  1  0  0  0  0
 31 32  1  0  0  0  0
 32 29  1  1  0  0  0
 33 30  1  0  0  0  0
 33 31  1  0  0  0  0
 34 32  1  0  0  0  0
M  END
>  <MODEL>
5

>  <REMARK>
 VINA RESULT:      -8.1      1.339      1.884
  Name = 
  3 active torsions:
  status: ('A' for Active; 'I' for Inactive)
    1  A    between atoms: C_17  and  O_28
    2  A    between atoms: O_28  and  C_29
    3  A    between atoms: C_29  and  C_32
                            x       y       z     vdW  Elec       q    Type
                         _______ _______ _______ _____ _____    ______ ____

>  <TORSDO>
F 3

$$$$
=
 OpenBabel11112417453D

 34 41  0  0  1  0  0  0  0  0999 V2000
  192.5050  176.1260  145.8210 C   0  0  0  0  0  0  0  0  0  0  0  0
  194.9160  175.3540  146.0450 C   0  0  0  0  0  2  0  0  0  0  0  0
  187.1620  176.9150  142.0400 C   0  0  2  0  0  3  0  0  0  0  0  0
  190.1130  176.4790  145.5280 C   0  0  0  0  0  0  0  0  0  0  0  0
  188.9780  175.8020  143.3650 N   0  0  1  0  0  0  0  0  0  0  0  0
  188.8300  178.0260  142.1890 C   0  0  0  0  0  2  0  0  0  0  0  0
  187.4460  178.2890  142.1360 O   0  0  0  0  0  0  0  0  0  0  0  0
  186.4730  177.0960  144.5190 C   0  0  0  0  0  2  0  0  0  0  0  0
  193.9810  175.6470  143.8280 C   0  0  2  0  0  3  0  0  0  0  0  0
  194.5930  173.1070  141.8590 C   0  0  0  0  0  2  0  0  0  0  0  0
  190.2230  175.0560  143.1280 C   0  0  0  0  0  2  0  0  0  0  0  0
  187.5890  176.4100  145.2910 C   0  0  0  0  0  2  0  0  0  0  0  0
  192.7280  175.0520  143.1530 C   0  0  1  0  0  3  0  0  0  0  0  0
  195.9700  174.9150  145.0410 C   0  0  0  0  0  2  0  0  0  0  0  0
  188.9250  176.6310  144.5970 C   0  0  1  0  0  3  0  0  0  0  0  0
  186.2280  176.4280  143.1670 C   0  0  0  0  0  2  0  0  0  0  0  0
  195.0380  173.3260  143.3160 C   0  0  1  0  0  3  0  0  0  0  0  0
  191.3670  176.1470  144.9920 C   0  0  0  0  0  0  0  0  0  0  0  0
  188.6250  176.5240  142.1270 C   0  0  2  0  0  3  0  0  0  0  0  0
  191.4670  175.8500  143.5210 C   0  0  2  0  0  3  0  0  0  0  0  0
  191.1310  176.7520  147.7170 C   0  0  0  0  0  3  0  0  0  0  0  0
  194.1820  174.3850  141.1240 C   0  0  0  0  0  2  0  0  0  0  0  0
  190.0070  176.7980  146.8900 C   0  0  0  0  0  3  0  0  0  0  0  0
  192.8620  174.9740  141.6250 C   0  0  0  0  0  2  0  0  0  0  0  0
  195.2650  174.8090  143.6930 C   0  0  1  0  0  3  0  0  0  0  0  0
  192.3760  176.4140  147.1850 C   0  0  0  0  0  3  0  0  0  0  0  0
  193.7790  175.7890  145.2590 N   0  0  0  0  0  0  0  0  0  0  0  0
  194.1330  172.7070  144.1870 O   0  0  0  0  0  0  0  0  0  0  0  0
  194.5910  171.3950  144.3200 C   0  0  0  0  0  2  0  0  0  0  0  0
  195.7420  168.9040  146.0370 O   0  0  0  0  0  0  0  0  0  0  0  0
  196.4920  171.1380  145.8840 C   0  0  0  0  0  2  0  0  0  0  0  0
  194.9960  171.1330  145.7600 C   0  0  2  0  0  3  0  0  0  0  0  0
  196.8270  169.7390  146.3430 C   0  0  0  0  0  2  0  0  0  0  0  0
  194.6080  169.7220  146.1410 C   0  0  0  0  0  2  0  0  0  0  0  0
  1 26  1  0  0  0  0
  3 19  1  0  0  0  0
  3  7  1  0  0  0  0
  3 16  1  1  0  0  0
  4 23  2  0  0  0  0
  5 11  1  6  0  0  0
  5 15  1  0  0  0  0
  7  6  1  0  0  0  0
  8 12  1  0  0  0  0
  9 27  1  1  0  0  0
 10 17  1  0  0  0  0
 13 24  1  6  0  0  0
 13 20  1  0  0  0  0
 13  9  1  0  0  0  0
 14  2  1  0  0  0  0
 15 12  1  1  0  0  0
 15  4  1  0  0  0  0
 16  8  1  0  0  0  0
 17 25  1  0  0  0  0
 17 28  1  1  0  0  0
 18  4  1  0  0  0  0
 18  1  2  0  0  0  0
 19  6  1  1  0  0  0
 19  5  1  0  0  0  0
 20 11  1  1  0  0  0
 20 18  1  0  0  0  0
 22 24  1  0  0  0  0
 22 10  1  0  0  0  0
 23 21  1  0  0  0  0
 25  9  1  0  0  0  0
 25 14  1  1  0  0  0
 26 21  2  0  0  0  0
 27  1  1  0  0  0  0
 27  2  1  0  0  0  0
 28 29  1  0  0  0  0
 30 34  1  0  0  0  0
 30 33  1  0  0  0  0
 31 33  1  0  0  0  0
 32 29  1  6  0  0  0
 32 31  1  0  0  0  0
 32 34  1  0  0  0  0
M  END
>  <MODEL>
6

>  <REMARK>
 VINA RESULT:      -8.1      2.793      5.100
  Name = 
  3 active torsions:
  status: ('A' for Active; 'I' for Inactive)
    1  A    between atoms: C_17  and  O_28
    2  A    between atoms: O_28  and  C_29
    3  A    between atoms: C_29  and  C_32
                            x       y       z     vdW  Elec       q    Type
                         _______ _______ _______ _____ _____    ______ ____

>  <TORSDO>
F 3

$$$$
=
 OpenBabel11112417453D

 34 41  0  0  1  0  0  0  0  0999 V2000
  192.2430  176.1930  145.8650 C   0  0  0  0  0  0  0  0  0  0  0  0
  194.6460  175.4100  146.1370 C   0  0  0  0  0  2  0  0  0  0  0  0
  186.9450  176.9120  142.0070 C   0  0  2  0  0  3  0  0  0  0  0  0
  189.8560  176.5560  145.5370 C   0  0  0  0  0  0  0  0  0  0  0  0
  188.7390  175.8250  143.3820 N   0  0  1  0  0  0  0  0  0  0  0  0
  188.6200  178.0150  142.1420 C   0  0  0  0  0  2  0  0  0  0  0  0
  187.2390  178.2860  142.0670 O   0  0  0  0  0  0  0  0  0  0  0  0
  186.2320  177.1710  144.4720 C   0  0  0  0  0  2  0  0  0  0  0  0
  193.7360  175.6460  143.9030 C   0  0  2  0  0  3  0  0  0  0  0  0
  194.3480  173.0450  142.0150 C   0  0  0  0  0  2  0  0  0  0  0  0
  189.9810  175.0630  143.1810 C   0  0  0  0  0  2  0  0  0  0  0  0
  187.3350  176.4990  145.2760 C   0  0  0  0  0  2  0  0  0  0  0  0
  192.4860  175.0410  143.2330 C   0  0  1  0  0  3  0  0  0  0  0  0
  195.7060  174.9340  145.1580 C   0  0  0  0  0  2  0  0  0  0  0  0
  188.6800  176.6900  144.5890 C   0  0  1  0  0  3  0  0  0  0  0  0
  185.9960  176.4650  143.1370 C   0  0  0  0  0  2  0  0  0  0  0  0
  194.7800  173.3030  143.4700 C   0  0  1  0  0  3  0  0  0  0  0  0
  191.1140  176.1990  145.0250 C   0  0  0  0  0  0  0  0  0  0  0  0
  188.4050  176.5140  142.1210 C   0  0  2  0  0  3  0  0  0  0  0  0
  191.2270  175.8590  143.5640 C   0  0  2  0  0  3  0  0  0  0  0  0
  190.8540  176.8840  147.7290 C   0  0  0  0  0  3  0  0  0  0  0  0
  193.9550  174.3040  141.2390 C   0  0  0  0  0  2  0  0  0  0  0  0
  189.7390  176.9150  146.8880 C   0  0  0  0  0  3  0  0  0  0  0  0
  192.6340  174.9180  141.7080 C   0  0  0  0  0  2  0  0  0  0  0  0
  195.0140  174.7950  143.8060 C   0  0  1  0  0  3  0  0  0  0  0  0
  192.1020  176.5210  147.2190 C   0  0  0  0  0  3  0  0  0  0  0  0
  193.5200  175.8310  145.3270 N   0  0  0  0  0  0  0  0  0  0  0  0
  193.8610  172.7170  144.3480 O   0  0  0  0  0  0  0  0  0  0  0  0
  194.0340  171.3400  144.1940 C   0  0  0  0  0  2  0  0  0  0  0  0
  191.0850  171.7630  142.9250 O   0  0  0  0  0  0  0  0  0  0  0  0
  192.4590  169.8440  143.0060 C   0  0  0  0  0  2  0  0  0  0  0  0
  192.6870  170.6410  144.2580 C   0  0  2  0  0  3  0  0  0  0  0  0
  191.2370  170.4770  142.3860 C   0  0  0  0  0  2  0  0  0  0  0  0
  191.5830  171.6740  144.2330 C   0  0  0  0  0  2  0  0  0  0  0  0
  1 26  1  0  0  0  0
  3  7  1  0  0  0  0
  3 19  1  0  0  0  0
  3 16  1  1  0  0  0
  4 23  2  0  0  0  0
  5 11  1  6  0  0  0
  5 15  1  0  0  0  0
  7  6  1  0  0  0  0
  8 12  1  0  0  0  0
  9 27  1  1  0  0  0
 10 17  1  0  0  0  0
 13 24  1  6  0  0  0
 13 20  1  0  0  0  0
 13  9  1  0  0  0  0
 14  2  1  0  0  0  0
 15 12  1  1  0  0  0
 15  4  1  0  0  0  0
 16  8  1  0  0  0  0
 17 25  1  0  0  0  0
 17 28  1  1  0  0  0
 18  4  1  0  0  0  0
 18  1  2  0  0  0  0
 19  6  1  1  0  0  0
 19  5  1  0  0  0  0
 20 11  1  1  0  0  0
 20 18  1  0  0  0  0
 22 24  1  0  0  0  0
 22 10  1  0  0  0  0
 23 21  1  0  0  0  0
 25  9  1  0  0  0  0
 25 14  1  1  0  0  0
 26 21  2  0  0  0  0
 27  1  1  0  0  0  0
 27  2  1  0  0  0  0
 29 28  1  0  0  0  0
 30 34  1  0  0  0  0
 31 32  1  0  0  0  0
 32 29  1  6  0  0  0
 33 30  1  0  0  0  0
 33 31  1  0  0  0  0
 34 32  1  0  0  0  0
M  END
>  <MODEL>
7

>  <REMARK>
 VINA RESULT:      -8.0      2.225      4.865
  Name = 
  3 active torsions:
  status: ('A' for Active; 'I' for Inactive)
    1  A    between atoms: C_17  and  O_28
    2  A    between atoms: O_28  and  C_29
    3  A    between atoms: C_29  and  C_32
                            x       y       z     vdW  Elec       q    Type
                         _______ _______ _______ _____ _____    ______ ____

>  <TORSDO>
F 3

$$$$
=
 OpenBabel11112417453D

 34 41  0  0  1  0  0  0  0  0999 V2000
  190.9920  172.8870  142.9610 C   0  0  0  0  0  0  0  0  0  0  0  0
  188.6680  173.6110  142.2300 C   0  0  0  0  0  2  0  0  0  0  0  0
  196.9950  174.5390  145.1290 C   0  0  2  0  0  3  0  0  0  0  0  0
  193.1190  172.3470  144.0180 C   0  0  0  0  0  0  0  0  0  0  0  0
  194.5140  174.1740  145.0860 N   0  0  1  0  0  0  0  0  0  0  0  0
  196.2170  174.5910  143.2770 C   0  0  0  0  0  2  0  0  0  0  0  0
  197.4310  174.1550  143.8480 O   0  0  0  0  0  0  0  0  0  0  0  0
  196.6210  172.0180  145.5270 C   0  0  0  0  0  2  0  0  0  0  0  0
  190.4190  175.2790  142.3860 C   0  0  2  0  0  3  0  0  0  0  0  0
  189.4620  177.9610  143.9960 C   0  0  0  0  0  2  0  0  0  0  0  0
  193.2800  174.9660  144.9710 C   0  0  0  0  0  2  0  0  0  0  0  0
  195.1110  171.8320  145.4990 C   0  0  0  0  0  2  0  0  0  0  0  0
  191.3500  175.6880  143.5470 C   0  0  1  0  0  3  0  0  0  0  0  0
  188.0420  174.9630  141.9270 C   0  0  0  0  0  2  0  0  0  0  0  0
  194.4780  172.8030  144.5130 C   0  0  1  0  0  3  0  0  0  0  0  0
  197.0130  173.3660  146.1300 C   0  0  0  0  0  2  0  0  0  0  0  0
  188.6470  176.7020  143.6530 C   0  0  1  0  0  3  0  0  0  0  0  0
  192.2060  173.3000  143.5410 C   0  0  0  0  0  0  0  0  0  0  0  0
  195.6440  175.0010  144.6190 C   0  0  2  0  0  3  0  0  0  0  0  0
  192.5700  174.7570  143.6360 C   0  0  2  0  0  3  0  0  0  0  0  0
  191.5990  170.5720  143.3490 C   0  0  0  0  0  3  0  0  0  0  0  0
  190.7140  178.1590  143.1380 C   0  0  0  0  0  2  0  0  0  0  0  0
  192.8150  170.9820  143.9010 C   0  0  0  0  0  3  0  0  0  0  0  0
  191.8210  177.1470  143.4400 C   0  0  0  0  0  2  0  0  0  0  0  0
  189.0690  176.0150  142.3320 C   0  0  1  0  0  3  0  0  0  0  0  0
  190.6890  171.5220  142.8820 C   0  0  0  0  0  3  0  0  0  0  0  0
  190.0730  173.8720  142.4750 N   0  0  0  0  0  0  0  0  0  0  0  0
  188.6800  175.8080  144.7300 O   0  0  0  0  0  0  0  0  0  0  0  0
  187.8750  176.3880  145.7120 C   0  0  0  0  0  2  0  0  0  0  0  0
  190.4940  174.9140  146.9170 O   0  0  0  0  0  0  0  0  0  0  0  0
  189.6680  177.0990  147.2620 C   0  0  0  0  0  2  0  0  0  0  0  0
  188.4980  176.1760  147.0810 C   0  0  2  0  0  3  0  0  0  0  0  0
  190.8460  176.1700  147.4320 C   0  0  0  0  0  2  0  0  0  0  0  0
  189.1150  174.7970  147.1430 C   0  0  0  0  0  2  0  0  0  0  0  0
  1 18  1  0  0  0  0
  2 27  1  0  0  0  0
  3 16  1  1  0  0  0
  4 15  1  0  0  0  0
  5 11  1  6  0  0  0
  6  7  1  0  0  0  0
  7  3  1  0  0  0  0
  8 16  1  0  0  0  0
  9 27  1  1  0  0  0
  9 13  1  0  0  0  0
 12  8  1  0  0  0  0
 13 24  1  6  0  0  0
 13 20  1  0  0  0  0
 14  2  1  0  0  0  0
 15  5  1  0  0  0  0
 15 12  1  1  0  0  0
 17 10  1  0  0  0  0
 17 28  1  1  0  0  0
 18 20  1  0  0  0  0
 18  4  2  0  0  0  0
 19  6  1  6  0  0  0
 19  5  1  0  0  0  0
 19  3  1  0  0  0  0
 20 11  1  1  0  0  0
 21 23  2  0  0  0  0
 22 24  1  0  0  0  0
 22 10  1  0  0  0  0
 23  4  1  0  0  0  0
 25 14  1  1  0  0  0
 25  9  1  0  0  0  0
 25 17  1  0  0  0  0
 26  1  2  0  0  0  0
 26 21  1  0  0  0  0
 27  1  1  0  0  0  0
 28 29  1  0  0  0  0
 30 34  1  0  0  0  0
 30 33  1  0  0  0  0
 31 33  1  0  0  0  0
 32 29  1  6  0  0  0
 32 34  1  0  0  0  0
 32 31  1  0  0  0  0
M  END
>  <MODEL>
8

>  <REMARK>
 VINA RESULT:      -7.6      2.546      7.623
  Name = 
  3 active torsions:
  status: ('A' for Active; 'I' for Inactive)
    1  A    between atoms: C_17  and  O_28
    2  A    between atoms: O_28  and  C_29
    3  A    between atoms: C_29  and  C_32
                            x       y       z     vdW  Elec       q    Type
                         _______ _______ _______ _____ _____    ______ ____

>  <TORSDO>
F 3

$$$$
=
 OpenBabel11112417453D

 34 41  0  0  1  0  0  0  0  0999 V2000
  189.7920  174.6700  142.2210 C   0  0  0  0  0  0  0  0  0  0  0  0
  188.8970  176.9710  142.8260 C   0  0  0  0  0  2  0  0  0  0  0  0
  193.6110  169.5200  143.7560 C   0  0  2  0  0  3  0  0  0  0  0  0
  190.4590  172.3410  141.9740 C   0  0  0  0  0  0  0  0  0  0  0  0
  191.7250  171.1710  143.8330 N   0  0  1  0  0  0  0  0  0  0  0  0
  194.0840  171.3030  142.9590 C   0  0  0  0  0  2  0  0  0  0  0  0
  194.4220  169.9600  142.6940 O   0  0  0  0  0  0  0  0  0  0  0  0
  191.9470  168.8150  141.9150 C   0  0  0  0  0  2  0  0  0  0  0  0
  190.8260  176.1140  144.0160 C   0  0  2  0  0  3  0  0  0  0  0  0
  190.5570  176.4590  147.2590 C   0  0  0  0  0  2  0  0  0  0  0  0
  191.2950  172.3250  144.6380 C   0  0  0  0  0  2  0  0  0  0  0  0
  190.8180  169.8310  141.9920 C   0  0  0  0  0  2  0  0  0  0  0  0
  191.0480  174.8120  144.8130 C   0  0  1  0  0  3  0  0  0  0  0  0
  189.2590  177.9830  143.9000 C   0  0  0  0  0  2  0  0  0  0  0  0
  191.3610  171.1950  142.3930 C   0  0  1  0  0  3  0  0  0  0  0  0
  192.5340  168.5170  143.2940 C   0  0  0  0  0  2  0  0  0  0  0  0
  189.5770  176.9020  146.1590 C   0  0  1  0  0  3  0  0  0  0  0  0
  190.5260  173.5570  142.6720 C   0  0  0  0  0  0  0  0  0  0  0  0
  193.1560  170.9260  144.0970 C   0  0  2  0  0  3  0  0  0  0  0  0
  191.4160  173.6460  143.8820 C   0  0  2  0  0  3  0  0  0  0  0  0
  188.9170  173.3470  140.3880 C   0  0  0  0  0  3  0  0  0  0  0  0
  191.9870  176.2120  146.7720 C   0  0  0  0  0  2  0  0  0  0  0  0
  189.6660  172.2500  140.8210 C   0  0  0  0  0  3  0  0  0  0  0  0
  192.1230  174.9620  145.9010 C   0  0  0  0  0  2  0  0  0  0  0  0
  190.2570  177.2940  144.8250 C   0  0  1  0  0  3  0  0  0  0  0  0
  188.9780  174.5530  141.0880 C   0  0  0  0  0  3  0  0  0  0  0  0
  189.8730  175.9050  142.9420 N   0  0  0  0  0  0  0  0  0  0  0  0
  188.6010  175.9170  145.9670 O   0  0  0  0  0  0  0  0  0  0  0  0
  187.5680  176.2500  146.8460 C   0  0  0  0  0  2  0  0  0  0  0  0
  184.4930  177.2080  146.5120 O   0  0  0  0  0  0  0  0  0  0  0  0
  186.3410  178.2980  147.4990 C   0  0  0  0  0  2  0  0  0  0  0  0
  186.8380  177.4820  146.3400 C   0  0  2  0  0  3  0  0  0  0  0  0
  184.8400  178.2870  147.3380 C   0  0  0  0  0  2  0  0  0  0  0  0
  185.5730  177.0600  145.6290 C   0  0  0  0  0  2  0  0  0  0  0  0
  1 18  1  0  0  0  0
  1 27  1  0  0  0  0
  2 27  1  0  0  0  0
  2 14  1  0  0  0  0
  3 16  1  6  0  0  0
  3 19  1  0  0  0  0
  4 15  1  0  0  0  0
  4 18  2  0  0  0  0
  5 19  1  0  0  0  0
  5 11  1  6  0  0  0
  7  6  1  0  0  0  0
  7  3  1  0  0  0  0
  8 12  1  0  0  0  0
  8 16  1  0  0  0  0
  9 27  1  6  0  0  0
  9 13  1  0  0  0  0
  9 25  1  0  0  0  0
 13 24  1  1  0  0  0
 15 12  1  1  0  0  0
 15  5  1  0  0  0  0
 17 28  1  6  0  0  0
 17 10  1  0  0  0  0
 18 20  1  0  0  0  0
 19  6  1  6  0  0  0
 20 11  1  1  0  0  0
 20 13  1  0  0  0  0
 21 23  2  0  0  0  0
 21 26  1  0  0  0  0
 22 10  1  0  0  0  0
 23  4  1  0  0  0  0
 24 22  1  0  0  0  0
 25 14  1  6  0  0  0
 25 17  1  0  0  0  0
 26  1  2  0  0  0  0
 28 29  1  0  0  0  0
 30 33  1  0  0  0  0
 32 29  1  1  0  0  0
 32 31  1  0  0  0  0
 33 31  1  0  0  0  0
 34 32  1  0  0  0  0
 34 30  1  0  0  0  0
M  END
>  <MODEL>
9

>  <REMARK>
 VINA RESULT:      -7.6      2.759      7.661
  Name = 
  3 active torsions:
  status: ('A' for Active; 'I' for Inactive)
    1  A    between atoms: C_17  and  O_28
    2  A    between atoms: O_28  and  C_29
    3  A    between atoms: C_29  and  C_32
                            x       y       z     vdW  Elec       q    Type
                         _______ _______ _______ _____ _____    ______ ____

>  <TORSDO>
F 3

$$$$
