=
 OpenBabel11112417143D

 37 42  0  0  1  0  0  0  0  0999 V2000
  195.1500  176.0270  144.7300 C   0  0  1  0  0  0  0  0  0  0  0  0
  190.9860  175.2120  145.6140 C   0  0  1  0  0  3  0  0  0  0  0  0
  190.1330  177.7780  143.9760 C   0  0  0  0  0  1  0  0  0  0  0  0
  193.2800  176.1420  146.4050 C   0  0  0  0  0  0  0  0  0  0  0  0
  190.4470  175.2370  144.1640 C   0  0  1  0  0  3  0  0  0  0  0  0
  192.5000  175.3010  145.4370 C   0  0  2  0  0  3  0  0  0  0  0  0
  189.4930  176.3980  143.8170 C   0  0  1  0  0  3  0  0  0  0  0  0
  192.6590  176.7630  147.6230 C   0  0  0  0  0  2  0  0  0  0  0  0
  192.7580  175.7980  144.0980 N   0  0  1  0  0  0  0  0  0  0  0  0
  196.2140  174.9910  145.0230 C   0  0  0  0  0  1  0  0  0  0  0  0
  188.9450  176.0700  146.9320 C   0  0  0  0  0  2  0  0  0  0  0  0
  191.2290  176.2860  147.8610 C   0  0  0  0  0  2  0  0  0  0  0  0
  194.1250  175.4100  143.7410 C   0  0  0  0  0  2  0  0  0  0  0  0
  190.4200  176.2830  146.5700 C   0  0  1  0  0  3  0  0  0  0  0  0
  191.6840  175.2500  143.2650 C   0  0  1  0  0  3  0  0  0  0  0  0
  194.5310  176.4810  146.0480 C   0  0  0  0  0  3  0  0  0  0  0  0
  188.1140  176.2520  144.4980 C   0  0  1  0  0  3  0  0  0  0  0  0
  195.7520  177.1270  144.1210 O   0  0  0  0  0  1  0  0  0  0  0  0
  188.0760  175.4760  145.8220 C   0  0  0  0  0  2  0  0  0  0  0  0
  191.6770  172.6610  143.5600 C   0  0  0  0  0  2  0  0  0  0  0  0
  191.6740  171.4340  142.7680 N   0  0  0  0  0  0  0  0  0  0  0  0
  189.4260  172.3040  141.9360 C   0  0  2  0  0  3  0  0  0  0  0  0
  190.3160  171.1010  142.3090 C   0  0  0  0  0  2  0  0  0  0  0  0
  190.0500  173.3400  140.9840 C   0  0  1  0  0  3  0  0  0  0  0  0
  189.2610  174.4890  140.9180 O   0  0  0  0  0  1  0  0  0  0  0  0
  191.5260  173.7110  141.2040 C   0  0  0  0  0  2  0  0  0  0  0  0
  188.8930  172.8910  143.0700 F   0  0  0  0  0  0  0  0  0  0  0  0
  191.9930  173.8610  142.6600 C   0  0  1  0  0  3  0  0  0  0  0  0
  193.3420  170.7800  144.4080 C   0  0  0  0  0  1  0  0  0  0  0  0
  192.0940  170.3640  143.6550 C   0  0  0  0  0  2  0  0  0  0  0  0
  186.8320  178.0370  143.2410 C   0  0  0  0  0  3  0  0  0  0  0  0
  187.2280  177.4640  144.4600 C   0  0  0  0  0  0  0  0  0  0  0  0
  186.7700  178.0120  145.6620 C   0  0  0  0  0  3  0  0  0  0  0  0
  185.4910  179.6590  146.8180 F   0  0  0  0  0  0  0  0  0  0  0  0
  185.5420  179.7010  144.4350 C   0  0  0  0  0  3  0  0  0  0  0  0
  185.9300  179.1290  145.6500 C   0  0  0  0  0  0  0  0  0  0  0  0
  185.9930  179.1540  143.2300 C   0  0  0  0  0  3  0  0  0  0  0  0
  1 10  1  1  0  0  0
  1 16  1  0  0  0  0
  2 14  1  0  0  0  0
  4  8  1  0  0  0  0
  5  2  1  0  0  0  0
  6  2  1  0  0  0  0
  6  4  1  0  0  0  0
  7  3  1  0  0  0  0
  7  5  1  0  0  0  0
  7 17  1  0  0  0  0
  8 12  1  0  0  0  0
  9  6  1  0  0  0  0
 13  9  1  0  0  0  0
 13  1  1  0  0  0  0
 14 11  1  0  0  0  0
 14 12  1  0  0  0  0
 15  9  1  0  0  0  0
 15  5  1  0  0  0  0
 16  4  2  0  0  0  0
 17 19  1  0  0  0  0
 18  1  1  0  0  0  0
 19 11  1  0  0  0  0
 21 20  1  0  0  0  0
 21 30  1  0  0  0  0
 22 23  1  0  0  0  0
 22 27  1  0  0  0  0
 23 21  1  0  0  0  0
 24 26  1  0  0  0  0
 24 22  1  0  0  0  0
 25 24  1  0  0  0  0
 26 28  1  0  0  0  0
 28 15  1  0  0  0  0
 28 20  1  0  0  0  0
 30 29  1  0  0  0  0
 31 32  1  0  0  0  0
 32 17  1  0  0  0  0
 32 33  2  0  0  0  0
 35 36  2  0  0  0  0
 36 33  1  0  0  0  0
 36 34  1  0  0  0  0
 37 31  2  0  0  0  0
 37 35  1  0  0  0  0
M  END
>  <MODEL>
1

>  <REMARK>
 VINA RESULT:      -9.4      0.000      0.000
  Name = 
  3 active torsions:
  status: ('A' for Active; 'I' for Inactive)
    1  A    between atoms: N_4  and  C_37
    2  A    between atoms: C_21  and  C_27
    3  A    between atoms: C_23  and  C_30
                            x       y       z     vdW  Elec       q    Type
                         _______ _______ _______ _____ _____    ______ ____

>  <TORSDO>
F 3

$$$$
=
 OpenBabel11112417143D

 37 42  0  0  1  0  0  0  0  0999 V2000
  195.6400  175.9350  142.9160 C   0  0  1  0  0  0  0  0  0  0  0  0
  192.1940  174.7790  145.2770 C   0  0  1  0  0  3  0  0  0  0  0  0
  190.4880  177.0630  143.9100 C   0  0  0  0  0  1  0  0  0  0  0  0
  194.4730  176.0210  145.1400 C   0  0  0  0  0  0  0  0  0  0  0  0
  191.1860  174.6010  144.1170 C   0  0  1  0  0  3  0  0  0  0  0  0
  193.5250  175.0090  144.5650 C   0  0  2  0  0  3  0  0  0  0  0  0
  190.0240  175.6140  144.0700 C   0  0  1  0  0  3  0  0  0  0  0  0
  194.2380  176.6920  146.4620 C   0  0  0  0  0  2  0  0  0  0  0  0
  193.2320  175.3930  143.1970 N   0  0  1  0  0  0  0  0  0  0  0  0
  196.8690  175.0510  142.8670 C   0  0  0  0  0  1  0  0  0  0  0  0
  190.6440  175.5470  147.1870 C   0  0  0  0  0  2  0  0  0  0  0  0
  193.0580  176.0950  147.2230 C   0  0  0  0  0  2  0  0  0  0  0  0
  194.4280  175.1170  142.3960 C   0  0  0  0  0  2  0  0  0  0  0  0
  191.8580  175.8760  146.3090 C   0  0  1  0  0  3  0  0  0  0  0  0
  192.0190  174.6530  142.8360 C   0  0  1  0  0  3  0  0  0  0  0  0
  195.4630  176.4510  144.3400 C   0  0  0  0  0  3  0  0  0  0  0  0
  189.0010  175.3940  145.2060 C   0  0  1  0  0  3  0  0  0  0  0  0
  195.8400  177.0250  142.0710 O   0  0  0  0  0  1  0  0  0  0  0  0
  189.5310  174.7550  146.4970 C   0  0  0  0  0  2  0  0  0  0  0  0
  192.0510  172.0720  143.1940 C   0  0  0  0  0  2  0  0  0  0  0  0
  191.9850  170.8260  142.4370 N   0  0  0  0  0  0  0  0  0  0  0  0
  189.6690  171.6670  141.7830 C   0  0  2  0  0  3  0  0  0  0  0  0
  190.5940  170.4770  142.1060 C   0  0  0  0  0  2  0  0  0  0  0  0
  190.2020  172.6810  140.7550 C   0  0  1  0  0  3  0  0  0  0  0  0
  189.4040  173.8260  140.7300 O   0  0  0  0  0  1  0  0  0  0  0  0
  191.6890  173.0620  140.8350 C   0  0  0  0  0  2  0  0  0  0  0  0
  189.2340  172.2820  142.9450 F   0  0  0  0  0  0  0  0  0  0  0  0
  192.2810  173.2510  142.2410 C   0  0  1  0  0  3  0  0  0  0  0  0
  193.3830  170.3830  144.3730 C   0  0  0  0  0  1  0  0  0  0  0  0
  192.4880  169.7800  143.3100 C   0  0  0  0  0  2  0  0  0  0  0  0
  187.3980  177.1470  144.3320 C   0  0  0  0  0  3  0  0  0  0  0  0
  188.0040  176.4950  145.4180 C   0  0  0  0  0  0  0  0  0  0  0  0
  187.6550  176.8580  146.7230 C   0  0  0  0  0  3  0  0  0  0  0  0
  186.3810  178.2170  148.2120 F   0  0  0  0  0  0  0  0  0  0  0  0
  186.1170  178.5190  145.8610 C   0  0  0  0  0  3  0  0  0  0  0  0
  186.7140  177.8680  146.9450 C   0  0  0  0  0  0  0  0  0  0  0  0
  186.4590  178.1580  144.5550 C   0  0  0  0  0  3  0  0  0  0  0  0
  1 10  1  6  0  0  0
  1 16  1  0  0  0  0
  2 14  1  0  0  0  0
  3  7  1  0  0  0  0
  4  8  1  0  0  0  0
  5  2  1  0  0  0  0
  6  4  1  0  0  0  0
  6  2  1  0  0  0  0
  7  5  1  0  0  0  0
  7 17  1  0  0  0  0
  8 12  1  0  0  0  0
  9  6  1  0  0  0  0
 13  1  1  0  0  0  0
 13  9  1  0  0  0  0
 14 11  1  0  0  0  0
 14 12  1  0  0  0  0
 15  9  1  0  0  0  0
 15  5  1  0  0  0  0
 16  4  2  0  0  0  0
 17 32  1  0  0  0  0
 17 19  1  0  0  0  0
 18  1  1  0  0  0  0
 19 11  1  0  0  0  0
 21 20  1  0  0  0  0
 21 30  1  0  0  0  0
 22 23  1  0  0  0  0
 22 27  1  0  0  0  0
 23 21  1  0  0  0  0
 24 26  1  0  0  0  0
 24 22  1  0  0  0  0
 25 24  1  0  0  0  0
 26 28  1  0  0  0  0
 28 15  1  0  0  0  0
 28 20  1  0  0  0  0
 30 29  1  0  0  0  0
 31 37  2  0  0  0  0
 31 32  1  0  0  0  0
 32 33  2  0  0  0  0
 33 36  1  0  0  0  0
 35 36  2  0  0  0  0
 36 34  1  0  0  0  0
 37 35  1  0  0  0  0
M  END
>  <MODEL>
2

>  <REMARK>
 VINA RESULT:      -9.1      1.104      1.444
  Name = 
  3 active torsions:
  status: ('A' for Active; 'I' for Inactive)
    1  A    between atoms: N_4  and  C_37
    2  A    between atoms: C_21  and  C_27
    3  A    between atoms: C_23  and  C_30
                            x       y       z     vdW  Elec       q    Type
                         _______ _______ _______ _____ _____    ______ ____

>  <TORSDO>
F 3

$$$$
=
 OpenBabel11112417143D

 37 42  0  0  1  0  0  0  0  0999 V2000
  193.0960  170.0570  143.6370 C   0  0  1  0  0  0  0  0  0  0  0  0
  191.4020  173.9540  142.7830 C   0  0  1  0  0  3  0  0  0  0  0  0
  189.7230  173.8140  145.4590 C   0  0  0  0  0  1  0  0  0  0  0  0
  191.4140  171.3940  142.3330 C   0  0  0  0  0  0  0  0  0  0  0  0
  191.7530  174.6420  144.1240 C   0  0  1  0  0  3  0  0  0  0  0  0
  192.1160  172.6080  142.8720 C   0  0  2  0  0  3  0  0  0  0  0  0
  190.5590  175.0190  145.0240 C   0  0  1  0  0  3  0  0  0  0  0  0
  190.1220  171.4760  141.5740 C   0  0  0  0  0  2  0  0  0  0  0  0
  192.4270  172.3650  144.2690 N   0  0  1  0  0  0  0  0  0  0  0  0
  194.2680  169.5370  142.8330 C   0  0  0  0  0  1  0  0  0  0  0  0
  189.2190  175.1660  142.1450 C   0  0  0  0  0  2  0  0  0  0  0  0
  189.7200  172.9130  141.2510 C   0  0  0  0  0  2  0  0  0  0  0  0
  193.5190  171.3890  144.3130 C   0  0  0  0  0  2  0  0  0  0  0  0
  189.8990  173.8270  142.4570 C   0  0  1  0  0  3  0  0  0  0  0  0
  192.7070  173.6850  144.8400 C   0  0  1  0  0  3  0  0  0  0  0  0
  191.8900  170.1970  142.7140 C   0  0  0  0  0  3  0  0  0  0  0  0
  189.7350  176.1930  144.4520 C   0  0  1  0  0  3  0  0  0  0  0  0
  192.7880  169.1290  144.6310 O   0  0  0  0  0  1  0  0  0  0  0  0
  189.7500  176.3690  142.9280 C   0  0  0  0  0  2  0  0  0  0  0  0
  194.5370  174.9620  143.4940 C   0  0  0  0  0  2  0  0  0  0  0  0
  195.8360  175.6020  143.6800 N   0  0  0  0  0  0  0  0  0  0  0  0
  194.5420  177.1530  145.2360 C   0  0  2  0  0  3  0  0  0  0  0  0
  195.6870  176.9620  144.2210 C   0  0  0  0  0  2  0  0  0  0  0  0
  194.4790  176.1330  146.3870 C   0  0  1  0  0  3  0  0  0  0  0  0
  193.2770  176.2520  147.0870 O   0  0  0  0  0  1  0  0  0  0  0  0
  194.7630  174.6600  146.0500 C   0  0  0  0  0  2  0  0  0  0  0  0
  193.3260  177.2830  144.5860 F   0  0  0  0  0  0  0  0  0  0  0  0
  194.1850  174.1270  144.7310 C   0  0  1  0  0  3  0  0  0  0  0  0
  195.4510  176.4120  141.4230 C   0  0  0  0  0  1  0  0  0  0  0  0
  196.4290  175.7340  142.3610 C   0  0  0  0  0  2  0  0  0  0  0  0
  188.2600  176.4480  146.4930 C   0  0  0  0  0  3  0  0  0  0  0  0
  188.4020  176.4390  145.0970 C   0  0  0  0  0  0  0  0  0  0  0  0
  187.2890  176.6890  144.2870 C   0  0  0  0  0  3  0  0  0  0  0  0
  184.9650  177.1770  144.0760 F   0  0  0  0  0  0  0  0  0  0  0  0
  185.9010  176.9410  146.2560 C   0  0  0  0  0  3  0  0  0  0  0  0
  186.0410  176.9380  144.8650 C   0  0  0  0  0  0  0  0  0  0  0  0
  187.0110  176.6970  147.0700 C   0  0  0  0  0  3  0  0  0  0  0  0
  1 10  1  6  0  0  0
  1 13  1  0  0  0  0
  1 18  1  0  0  0  0
  2  6  1  0  0  0  0
  2  5  1  0  0  0  0
  4 16  2  0  0  0  0
  4  6  1  0  0  0  0
  5 15  1  0  0  0  0
  5  7  1  0  0  0  0
  6  9  1  0  0  0  0
  7  3  1  0  0  0  0
  8  4  1  0  0  0  0
  9 13  1  0  0  0  0
  9 15  1  0  0  0  0
 11 14  1  0  0  0  0
 11 19  1  0  0  0  0
 12  8  1  0  0  0  0
 12 14  1  0  0  0  0
 14  2  1  0  0  0  0
 16  1  1  0  0  0  0
 17  7  1  0  0  0  0
 17 32  1  0  0  0  0
 19 17  1  0  0  0  0
 20 21  1  0  0  0  0
 20 28  1  0  0  0  0
 21 23  1  0  0  0  0
 22 24  1  0  0  0  0
 23 22  1  0  0  0  0
 24 25  1  0  0  0  0
 26 24  1  0  0  0  0
 27 22  1  0  0  0  0
 28 15  1  0  0  0  0
 28 26  1  0  0  0  0
 29 30  1  0  0  0  0
 30 21  1  0  0  0  0
 31 37  1  0  0  0  0
 32 31  2  0  0  0  0
 33 36  2  0  0  0  0
 33 32  1  0  0  0  0
 34 36  1  0  0  0  0
 35 37  2  0  0  0  0
 36 35  1  0  0  0  0
M  END
>  <MODEL>
3

>  <REMARK>
 VINA RESULT:      -8.6      2.348      5.377
  Name = 
  3 active torsions:
  status: ('A' for Active; 'I' for Inactive)
    1  A    between atoms: N_4  and  C_37
    2  A    between atoms: C_21  and  C_27
    3  A    between atoms: C_23  and  C_30
                            x       y       z     vdW  Elec       q    Type
                         _______ _______ _______ _____ _____    ______ ____

>  <TORSDO>
F 3

$$$$
=
 OpenBabel11112417143D

 37 42  0  0  1  0  0  0  0  0999 V2000
  192.3460  170.6580  142.4310 C   0  0  1  0  0  0  0  0  0  0  0  0
  190.9700  174.7670  142.3670 C   0  0  1  0  0  3  0  0  0  0  0  0
  189.3150  174.2570  145.0130 C   0  0  0  0  0  1  0  0  0  0  0  0
  190.7660  172.3450  141.4460 C   0  0  0  0  0  0  0  0  0  0  0  0
  191.3920  175.1600  143.8020 C   0  0  1  0  0  3  0  0  0  0  0  0
  191.5710  173.3760  142.1830 C   0  0  2  0  0  3  0  0  0  0  0  0
  190.2430  175.4530  144.7890 C   0  0  1  0  0  3  0  0  0  0  0  0
  189.4760  172.6700  140.7490 C   0  0  0  0  0  2  0  0  0  0  0  0
  191.8770  172.8510  143.5010 N   0  0  1  0  0  0  0  0  0  0  0  0
  193.4630  170.2080  141.5130 C   0  0  0  0  0  1  0  0  0  0  0  0
  188.8870  176.2450  142.0250 C   0  0  0  0  0  2  0  0  0  0  0  0
  189.1900  174.1690  140.7110 C   0  0  0  0  0  2  0  0  0  0  0  0
  192.8850  171.8000  143.3330 C   0  0  0  0  0  2  0  0  0  0  0  0
  189.4580  174.8230  142.0620 C   0  0  1  0  0  3  0  0  0  0  0  0
  192.2710  174.0130  144.3010 C   0  0  1  0  0  3  0  0  0  0  0  0
  191.1460  171.0630  141.5830 C   0  0  0  0  0  3  0  0  0  0  0  0
  189.5120  176.7750  144.4690 C   0  0  1  0  0  3  0  0  0  0  0  0
  191.9740  169.5860  143.2410 O   0  0  0  0  0  1  0  0  0  0  0  0
  189.5240  177.2330  143.0040 C   0  0  0  0  0  2  0  0  0  0  0  0
  194.1680  175.4640  143.2590 C   0  0  0  0  0  2  0  0  0  0  0  0
  195.5250  175.9220  143.5430 N   0  0  0  0  0  0  0  0  0  0  0  0
  194.4240  177.0790  145.5300 C   0  0  2  0  0  3  0  0  0  0  0  0
  195.5160  177.0870  144.4410 C   0  0  0  0  0  2  0  0  0  0  0  0
  194.3030  175.7890  146.3610 C   0  0  1  0  0  3  0  0  0  0  0  0
  193.1390  175.8040  147.1300 O   0  0  0  0  0  1  0  0  0  0  0  0
  194.4420  174.4500  145.6200 C   0  0  0  0  0  2  0  0  0  0  0  0
  193.2060  177.4800  145.0070 F   0  0  0  0  0  0  0  0  0  0  0  0
  193.7790  174.3490  144.2380 C   0  0  1  0  0  3  0  0  0  0  0  0
  195.0030  176.4210  141.2240 C   0  0  0  0  0  1  0  0  0  0  0  0
  196.0880  176.3670  142.2800 C   0  0  0  0  0  2  0  0  0  0  0  0
  186.9910  176.5990  144.6150 C   0  0  0  0  0  3  0  0  0  0  0  0
  188.2110  176.9990  145.1830 C   0  0  0  0  0  0  0  0  0  0  0  0
  188.2200  177.5940  146.4490 C   0  0  0  0  0  3  0  0  0  0  0  0
  187.0370  178.3740  148.3660 F   0  0  0  0  0  0  0  0  0  0  0  0
  185.8090  177.4010  146.5690 C   0  0  0  0  0  3  0  0  0  0  0  0
  187.0220  177.7950  147.1400 C   0  0  0  0  0  0  0  0  0  0  0  0
  185.7940  176.8010  145.3060 C   0  0  0  0  0  3  0  0  0  0  0  0
  1 10  1  6  0  0  0
  1 18  1  0  0  0  0
  1 13  1  0  0  0  0
  2  5  1  0  0  0  0
  4 16  2  0  0  0  0
  4  6  1  0  0  0  0
  5 15  1  0  0  0  0
  5  7  1  0  0  0  0
  6  2  1  0  0  0  0
  6  9  1  0  0  0  0
  7  3  1  0  0  0  0
  8  4  1  0  0  0  0
  9 15  1  0  0  0  0
 11 14  1  0  0  0  0
 11 19  1  0  0  0  0
 12  8  1  0  0  0  0
 12 14  1  0  0  0  0
 13  9  1  0  0  0  0
 14  2  1  0  0  0  0
 16  1  1  0  0  0  0
 17  7  1  0  0  0  0
 17 32  1  0  0  0  0
 19 17  1  0  0  0  0
 20 21  1  0  0  0  0
 20 28  1  0  0  0  0
 21 23  1  0  0  0  0
 22 24  1  0  0  0  0
 23 22  1  0  0  0  0
 24 25  1  0  0  0  0
 26 24  1  0  0  0  0
 27 22  1  0  0  0  0
 28 15  1  0  0  0  0
 28 26  1  0  0  0  0
 29 30  1  0  0  0  0
 30 21  1  0  0  0  0
 31 32  2  0  0  0  0
 31 37  1  0  0  0  0
 32 33  1  0  0  0  0
 33 36  2  0  0  0  0
 35 36  1  0  0  0  0
 36 34  1  0  0  0  0
 37 35  2  0  0  0  0
M  END
>  <MODEL>
4

>  <REMARK>
 VINA RESULT:      -8.5      2.310      5.284
  Name = 
  3 active torsions:
  status: ('A' for Active; 'I' for Inactive)
    1  A    between atoms: N_4  and  C_37
    2  A    between atoms: C_21  and  C_27
    3  A    between atoms: C_23  and  C_30
                            x       y       z     vdW  Elec       q    Type
                         _______ _______ _______ _____ _____    ______ ____

>  <TORSDO>
F 3

$$$$
=
 OpenBabel11112417143D

 37 42  0  0  1  0  0  0  0  0999 V2000
  195.8960  175.6510  143.9770 C   0  0  1  0  0  0  0  0  0  0  0  0
  191.8620  174.7890  145.3080 C   0  0  1  0  0  3  0  0  0  0  0  0
  190.7350  176.9610  143.3040 C   0  0  0  0  0  1  0  0  0  0  0  0
  194.1360  175.9720  145.7410 C   0  0  0  0  0  0  0  0  0  0  0  0
  191.2300  174.5180  143.9220 C   0  0  1  0  0  3  0  0  0  0  0  0
  193.3520  174.9260  145.0020 C   0  0  2  0  0  3  0  0  0  0  0  0
  190.1790  175.5420  143.4460 C   0  0  1  0  0  3  0  0  0  0  0  0
  193.5560  176.7720  146.8720 C   0  0  0  0  0  2  0  0  0  0  0  0
  193.4890  175.1810  143.5800 N   0  0  1  0  0  0  0  0  0  0  0  0
  197.0440  174.7450  144.3690 C   0  0  0  0  0  1  0  0  0  0  0  0
  189.8590  175.7650  146.6010 C   0  0  0  0  0  2  0  0  0  0  0  0
  192.1780  176.2710  147.3000 C   0  0  0  0  0  2  0  0  0  0  0  0
  194.8530  174.8080  143.1960 C   0  0  0  0  0  2  0  0  0  0  0  0
  191.2890  175.9860  146.0950 C   0  0  1  0  0  3  0  0  0  0  0  0
  192.4020  174.4320  142.9440 C   0  0  1  0  0  3  0  0  0  0  0  0
  195.3350  176.3050  145.2350 C   0  0  0  0  0  3  0  0  0  0  0  0
  188.8600  175.4510  144.2450 C   0  0  1  0  0  3  0  0  0  0  0  0
  196.3830  176.6510  143.1360 O   0  0  0  0  0  1  0  0  0  0  0  0
  188.9610  174.9310  145.6850 C   0  0  0  0  0  2  0  0  0  0  0  0
  192.3130  171.9070  143.5800 C   0  0  0  0  0  2  0  0  0  0  0  0
  192.3910  170.5840  142.9680 N   0  0  0  0  0  0  0  0  0  0  0  0
  190.2850  171.3310  141.7400 C   0  0  2  0  0  3  0  0  0  0  0  0
  191.0980  170.1910  142.3840 C   0  0  0  0  0  2  0  0  0  0  0  0
  191.0440  172.2290  140.7470 C   0  0  1  0  0  3  0  0  0  0  0  0
  190.2900  173.3580  140.4240 O   0  0  0  0  0  1  0  0  0  0  0  0
  192.4850  172.6280  141.1050 C   0  0  0  0  0  2  0  0  0  0  0  0
  189.6190  172.0670  142.7060 F   0  0  0  0  0  0  0  0  0  0  0  0
  192.7630  172.9740  142.5760 C   0  0  1  0  0  3  0  0  0  0  0  0
  192.8160  168.2460  143.4700 C   0  0  0  0  0  1  0  0  0  0  0  0
  192.6750  169.6440  144.0380 C   0  0  0  0  0  2  0  0  0  0  0  0
  187.4250  177.3290  145.1500 C   0  0  0  0  0  3  0  0  0  0  0  0
  187.8960  176.5850  144.0560 C   0  0  0  0  0  0  0  0  0  0  0  0
  187.4810  176.9210  142.7630 C   0  0  0  0  0  3  0  0  0  0  0  0
  186.1970  178.3040  141.3060 F   0  0  0  0  0  0  0  0  0  0  0  0
  186.1260  178.7200  143.6530 C   0  0  0  0  0  3  0  0  0  0  0  0
  186.5970  177.9850  142.5620 C   0  0  0  0  0  0  0  0  0  0  0  0
  186.5410  178.3920  144.9470 C   0  0  0  0  0  3  0  0  0  0  0  0
  1 10  1  1  0  0  0
  1 16  1  0  0  0  0
  2 14  1  0  0  0  0
  3  7  1  0  0  0  0
  4  8  1  0  0  0  0
  5  2  1  0  0  0  0
  6  2  1  0  0  0  0
  6  4  1  0  0  0  0
  7  5  1  0  0  0  0
  7 17  1  0  0  0  0
  8 12  1  0  0  0  0
  9  6  1  0  0  0  0
 13  9  1  0  0  0  0
 13  1  1  0  0  0  0
 14 11  1  0  0  0  0
 14 12  1  0  0  0  0
 15  9  1  0  0  0  0
 15  5  1  0  0  0  0
 16  4  2  0  0  0  0
 17 19  1  0  0  0  0
 18  1  1  0  0  0  0
 19 11  1  0  0  0  0
 21 20  1  0  0  0  0
 21 30  1  0  0  0  0
 22 23  1  0  0  0  0
 22 27  1  0  0  0  0
 23 21  1  0  0  0  0
 24 26  1  0  0  0  0
 24 22  1  0  0  0  0
 25 24  1  0  0  0  0
 26 28  1  0  0  0  0
 28 15  1  0  0  0  0
 28 20  1  0  0  0  0
 29 30  1  0  0  0  0
 32 17  1  0  0  0  0
 32 31  2  0  0  0  0
 33 32  1  0  0  0  0
 34 36  1  0  0  0  0
 35 37  2  0  0  0  0
 36 33  2  0  0  0  0
 36 35  1  0  0  0  0
 37 31  1  0  0  0  0
M  END
>  <MODEL>
5

>  <REMARK>
 VINA RESULT:      -8.4      1.424      1.746
  Name = 
  3 active torsions:
  status: ('A' for Active; 'I' for Inactive)
    1  A    between atoms: N_4  and  C_37
    2  A    between atoms: C_21  and  C_27
    3  A    between atoms: C_23  and  C_30
                            x       y       z     vdW  Elec       q    Type
                         _______ _______ _______ _____ _____    ______ ____

>  <TORSDO>
F 3

$$$$
=
 OpenBabel11112417143D

 37 42  0  0  1  0  0  0  0  0999 V2000
  191.4160  170.5460  141.1020 C   0  0  1  0  0  0  0  0  0  0  0  0
  190.6560  174.7560  141.7970 C   0  0  1  0  0  3  0  0  0  0  0  0
  189.4670  174.0740  144.6470 C   0  0  0  0  0  1  0  0  0  0  0  0
  189.9390  172.5310  140.6620 C   0  0  0  0  0  0  0  0  0  0  0  0
  191.3900  174.8880  143.1530 C   0  0  1  0  0  3  0  0  0  0  0  0
  191.0070  173.3440  141.3350 C   0  0  2  0  0  3  0  0  0  0  0  0
  190.4990  175.1710  144.3800 C   0  0  1  0  0  3  0  0  0  0  0  0
  188.6030  173.1020  140.2850 C   0  0  0  0  0  2  0  0  0  0  0  0
  191.4740  172.6040  142.4930 N   0  0  1  0  0  0  0  0  0  0  0  0
  192.2660  170.1020  139.9300 C   0  0  0  0  0  1  0  0  0  0  0  0
  188.7810  176.5030  142.0600 C   0  0  0  0  0  2  0  0  0  0  0  0
  188.5330  174.6140  140.4800 C   0  0  0  0  0  2  0  0  0  0  0  0
  192.2710  171.4770  142.0020 C   0  0  0  0  0  2  0  0  0  0  0  0
  189.1380  175.0330  141.8150 C   0  0  1  0  0  3  0  0  0  0  0  0
  192.1730  173.5860  143.3260 C   0  0  1  0  0  3  0  0  0  0  0  0
  190.1500  171.2070  140.5680 C   0  0  0  0  0  3  0  0  0  0  0  0
  189.9190  176.6030  144.3710 C   0  0  1  0  0  3  0  0  0  0  0  0
  191.0510  169.4210  141.8410 O   0  0  0  0  0  1  0  0  0  0  0  0
  189.7240  177.2600  142.9980 C   0  0  0  0  0  2  0  0  0  0  0  0
  194.2420  175.1620  143.1670 C   0  0  0  0  0  2  0  0  0  0  0  0
  195.7010  175.1150  143.1730 N   0  0  0  0  0  0  0  0  0  0  0  0
  195.3860  174.1930  145.5290 C   0  0  2  0  0  3  0  0  0  0  0  0
  196.2250  175.0340  144.5460 C   0  0  0  0  0  2  0  0  0  0  0  0
  194.9870  172.7860  145.0490 C   0  0  1  0  0  3  0  0  0  0  0  0
  194.0360  172.2240  145.9020 O   0  0  0  0  0  1  0  0  0  0  0  0
  194.5530  172.6310  143.5820 C   0  0  0  0  0  2  0  0  0  0  0  0
  194.2990  174.9160  145.9920 F   0  0  0  0  0  0  0  0  0  0  0  0
  193.6750  173.7480  142.9970 C   0  0  1  0  0  3  0  0  0  0  0  0
  197.6360  176.5610  142.9200 C   0  0  0  0  0  1  0  0  0  0  0  0
  196.1620  176.3750  142.6180 C   0  0  0  0  0  2  0  0  0  0  0  0
  189.0960  177.3870  146.6330 C   0  0  0  0  0  3  0  0  0  0  0  0
  188.8190  176.8750  145.3550 C   0  0  0  0  0  0  0  0  0  0  0  0
  187.4930  176.6380  144.9790 C   0  0  0  0  0  3  0  0  0  0  0  0
  185.1670  176.6670  145.5040 F   0  0  0  0  0  0  0  0  0  0  0  0
  186.7310  177.4050  147.1460 C   0  0  0  0  0  3  0  0  0  0  0  0
  186.4510  176.9010  145.8730 C   0  0  0  0  0  0  0  0  0  0  0  0
  188.0540  177.6490  147.5260 C   0  0  0  0  0  3  0  0  0  0  0  0
  1 10  1  6  0  0  0
  1 18  1  0  0  0  0
  1 13  1  0  0  0  0
  2 14  1  0  0  0  0
  2  5  1  0  0  0  0
  4  6  1  0  0  0  0
  5 15  1  0  0  0  0
  5  7  1  0  0  0  0
  6  2  1  0  0  0  0
  6  9  1  0  0  0  0
  7  3  1  0  0  0  0
  8 12  1  0  0  0  0
  8  4  1  0  0  0  0
  9 15  1  0  0  0  0
 11 19  1  0  0  0  0
 12 14  1  0  0  0  0
 13  9  1  0  0  0  0
 14 11  1  0  0  0  0
 16  4  2  0  0  0  0
 16  1  1  0  0  0  0
 17  7  1  0  0  0  0
 17 32  1  0  0  0  0
 19 17  1  0  0  0  0
 20 21  1  0  0  0  0
 21 23  1  0  0  0  0
 22 27  1  0  0  0  0
 23 22  1  0  0  0  0
 24 22  1  0  0  0  0
 24 25  1  0  0  0  0
 26 24  1  0  0  0  0
 28 20  1  0  0  0  0
 28 15  1  0  0  0  0
 28 26  1  0  0  0  0
 30 29  1  0  0  0  0
 30 21  1  0  0  0  0
 31 37  1  0  0  0  0
 32 31  2  0  0  0  0
 33 32  1  0  0  0  0
 33 36  2  0  0  0  0
 34 36  1  0  0  0  0
 35 37  2  0  0  0  0
 36 35  1  0  0  0  0
M  END
>  <MODEL>
6

>  <REMARK>
 VINA RESULT:      -7.3      2.469      5.568
  Name = 
  3 active torsions:
  status: ('A' for Active; 'I' for Inactive)
    1  A    between atoms: N_4  and  C_37
    2  A    between atoms: C_21  and  C_27
    3  A    between atoms: C_23  and  C_30
                            x       y       z     vdW  Elec       q    Type
                         _______ _______ _______ _____ _____    ______ ____

>  <TORSDO>
F 3

$$$$
=
 OpenBabel11112417143D

 37 42  0  0  1  0  0  0  0  0999 V2000
  187.5190  176.9190  144.6660 C   0  0  1  0  0  0  0  0  0  0  0  0
  191.2850  175.9000  142.7790 C   0  0  1  0  0  3  0  0  0  0  0  0
  192.1380  174.2740  145.3530 C   0  0  0  0  0  1  0  0  0  0  0  0
  189.8360  177.6560  144.0320 C   0  0  0  0  0  0  0  0  0  0  0  0
  191.2110  174.3650  142.9610 C   0  0  1  0  0  3  0  0  0  0  0  0
  189.9130  176.3830  143.2400 C   0  0  2  0  0  3  0  0  0  0  0  0
  192.2470  173.7470  143.9210 C   0  0  1  0  0  3  0  0  0  0  0  0
  191.0250  178.5470  144.2510 C   0  0  0  0  0  2  0  0  0  0  0  0
  189.3140  175.3240  144.0300 N   0  0  1  0  0  0  0  0  0  0  0  0
  186.4010  177.5460  143.8590 C   0  0  0  0  0  1  0  0  0  0  0  0
  193.8280  176.3030  142.8860 C   0  0  0  0  0  2  0  0  0  0  0  0
  192.2380  178.1210  143.4270 C   0  0  0  0  0  2  0  0  0  0  0  0
  187.8650  175.5440  144.0360 C   0  0  0  0  0  2  0  0  0  0  0  0
  192.4540  176.6140  143.4910 C   0  0  1  0  0  3  0  0  0  0  0  0
  189.7830  174.0740  143.4240 C   0  0  1  0  0  3  0  0  0  0  0  0
  188.6970  177.8870  144.7060 C   0  0  0  0  0  3  0  0  0  0  0  0
  193.6780  173.7700  143.3410 C   0  0  1  0  0  3  0  0  0  0  0  0
  187.0690  176.7140  145.9690 O   0  0  0  0  0  1  0  0  0  0  0  0
  193.9970  174.8850  142.3360 C   0  0  0  0  0  2  0  0  0  0  0  0
  189.1710  174.1170  140.8920 C   0  0  0  0  0  2  0  0  0  0  0  0
  188.5210  173.2980  139.8740 N   0  0  0  0  0  0  0  0  0  0  0  0
  190.4160  171.6670  140.3670 C   0  0  2  0  0  3  0  0  0  0  0  0
  189.4400  172.2790  139.3430 C   0  0  0  0  0  2  0  0  0  0  0  0
  189.7930  171.1610  141.6810 C   0  0  1  0  0  3  0  0  0  0  0  0
  190.7850  170.8640  142.6160 O   0  0  0  0  0  1  0  0  0  0  0  0
  188.6890  172.0180  142.3210 C   0  0  0  0  0  2  0  0  0  0  0  0
  191.4900  172.5120  140.5890 F   0  0  0  0  0  0  0  0  0  0  0  0
  188.8850  173.5420  142.2850 C   0  0  1  0  0  3  0  0  0  0  0  0
  189.0270  173.8290  137.5580 C   0  0  0  0  0  1  0  0  0  0  0  0
  188.1920  174.1850  138.7720 C   0  0  0  0  0  2  0  0  0  0  0  0
  195.6370  174.4730  144.7820 C   0  0  0  0  0  3  0  0  0  0  0  0
  194.7860  173.4630  144.3060 C   0  0  0  0  0  0  0  0  0  0  0  0
  194.9530  172.1500  144.7570 C   0  0  0  0  0  3  0  0  0  0  0  0
  196.1260  170.5690  146.1020 F   0  0  0  0  0  0  0  0  0  0  0  0
  196.8160  172.8510  146.1380 C   0  0  0  0  0  3  0  0  0  0  0  0
  195.9670  171.8440  145.6700 C   0  0  0  0  0  0  0  0  0  0  0  0
  196.6500  174.1660  145.6940 C   0  0  0  0  0  3  0  0  0  0  0  0
  1 10  1  6  0  0  0
  1 16  1  0  0  0  0
  1 18  1  0  0  0  0
  2  5  1  0  0  0  0
  2  6  1  0  0  0  0
  2 14  1  0  0  0  0
  4  8  1  0  0  0  0
  4 16  2  0  0  0  0
  5 15  1  0  0  0  0
  5  7  1  0  0  0  0
  6  9  1  0  0  0  0
  6  4  1  0  0  0  0
  7  3  1  0  0  0  0
  9 13  1  0  0  0  0
 11 14  1  0  0  0  0
 12 14  1  0  0  0  0
 12  8  1  0  0  0  0
 13  1  1  0  0  0  0
 15  9  1  0  0  0  0
 17  7  1  0  0  0  0
 17 32  1  0  0  0  0
 19 11  1  0  0  0  0
 19 17  1  0  0  0  0
 20 28  1  0  0  0  0
 21 20  1  0  0  0  0
 22 27  1  0  0  0  0
 22 24  1  0  0  0  0
 23 21  1  0  0  0  0
 23 22  1  0  0  0  0
 24 26  1  0  0  0  0
 24 25  1  0  0  0  0
 28 26  1  0  0  0  0
 28 15  1  0  0  0  0
 29 30  1  0  0  0  0
 30 21  1  0  0  0  0
 31 37  1  0  0  0  0
 32 33  1  0  0  0  0
 32 31  2  0  0  0  0
 33 36  2  0  0  0  0
 36 34  1  0  0  0  0
 36 35  1  0  0  0  0
 37 35  2  0  0  0  0
M  END
>  <MODEL>
7

>  <REMARK>
 VINA RESULT:      -7.2      3.152      6.923
  Name = 
  3 active torsions:
  status: ('A' for Active; 'I' for Inactive)
    1  A    between atoms: N_4  and  C_37
    2  A    between atoms: C_21  and  C_27
    3  A    between atoms: C_23  and  C_30
                            x       y       z     vdW  Elec       q    Type
                         _______ _______ _______ _____ _____    ______ ____

>  <TORSDO>
F 3

$$$$
=
 OpenBabel11112417143D

 37 42  0  0  1  0  0  0  0  0999 V2000
  190.8480  176.4900  146.5440 C   0  0  1  0  0  0  0  0  0  0  0  0
  192.1430  173.0730  144.2130 C   0  0  1  0  0  3  0  0  0  0  0  0
  191.3170  174.5710  141.5530 C   0  0  0  0  0  1  0  0  0  0  0  0
  190.3330  174.1730  145.7200 C   0  0  0  0  0  0  0  0  0  0  0  0
  193.0940  173.8180  143.2460 C   0  0  1  0  0  3  0  0  0  0  0  0
  191.7510  174.1440  145.2280 C   0  0  2  0  0  3  0  0  0  0  0  0
  192.6560  173.8640  141.7680 C   0  0  1  0  0  3  0  0  0  0  0  0
  189.3350  173.1030  145.3790 C   0  0  0  0  0  2  0  0  0  0  0  0
  192.0510  175.4380  144.6420 N   0  0  1  0  0  0  0  0  0  0  0  0
  191.1900  176.5890  148.0160 C   0  0  0  0  0  1  0  0  0  0  0  0
  191.3000  171.1500  142.7190 C   0  0  0  0  0  2  0  0  0  0  0  0
  189.9700  171.9150  144.6600 C   0  0  0  0  0  2  0  0  0  0  0  0
  192.1720  176.4000  145.7400 C   0  0  0  0  0  2  0  0  0  0  0  0
  190.9290  172.3720  143.5680 C   0  0  1  0  0  3  0  0  0  0  0  0
  193.2470  175.2260  143.8230 C   0  0  1  0  0  3  0  0  0  0  0  0
  189.9240  175.2960  146.3340 C   0  0  0  0  0  3  0  0  0  0  0  0
  192.7680  172.4880  141.0750 C   0  0  1  0  0  3  0  0  0  0  0  0
  190.1710  177.6470  146.1630 O   0  0  0  0  0  1  0  0  0  0  0  0
  192.6320  171.2500  141.9730 C   0  0  0  0  0  2  0  0  0  0  0  0
  195.3760  174.1330  144.8530 C   0  0  0  0  0  2  0  0  0  0  0  0
  196.7420  174.4690  145.2440 N   0  0  0  0  0  0  0  0  0  0  0  0
  197.0360  174.9680  142.7610 C   0  0  2  0  0  3  0  0  0  0  0  0
  197.6460  174.4580  144.0820 C   0  0  0  0  0  2  0  0  0  0  0  0
  196.3030  176.3200  142.8290 C   0  0  1  0  0  3  0  0  0  0  0  0
  195.5900  176.5550  141.6530 O   0  0  0  0  0  1  0  0  0  0  0  0
  195.4210  176.5910  144.0580 C   0  0  0  0  0  2  0  0  0  0  0  0
  196.2650  173.9850  142.1640 F   0  0  0  0  0  0  0  0  0  0  0  0
  194.5810  175.4150  144.5810 C   0  0  1  0  0  3  0  0  0  0  0  0
  196.5760  172.0940  145.7280 C   0  0  0  0  0  1  0  0  0  0  0  0
  197.1920  173.4170  146.1390 C   0  0  0  0  0  2  0  0  0  0  0  0
  192.5630  173.0810  138.6230 C   0  0  0  0  0  3  0  0  0  0  0  0
  192.0970  172.3660  139.7380 C   0  0  0  0  0  0  0  0  0  0  0  0
  191.0050  171.5040  139.5990 C   0  0  0  0  0  3  0  0  0  0  0  0
  189.3160  170.5240  138.2300 F   0  0  0  0  0  0  0  0  0  0  0  0
  190.8380  172.0780  137.2520 C   0  0  0  0  0  3  0  0  0  0  0  0
  190.3760  171.3600  138.3590 C   0  0  0  0  0  0  0  0  0  0  0  0
  191.9330  172.9380  137.3840 C   0  0  0  0  0  3  0  0  0  0  0  0
  1 10  1  1  0  0  0
  2  6  1  0  0  0  0
  3  7  1  0  0  0  0
  4 16  2  0  0  0  0
  5 15  1  0  0  0  0
  5  2  1  0  0  0  0
  6  4  1  0  0  0  0
  7  5  1  0  0  0  0
  8  4  1  0  0  0  0
  9  6  1  0  0  0  0
  9 13  1  0  0  0  0
 11 14  1  0  0  0  0
 12  8  1  0  0  0  0
 13  1  1  0  0  0  0
 14  2  1  0  0  0  0
 14 12  1  0  0  0  0
 15 28  1  0  0  0  0
 15  9  1  0  0  0  0
 16  1  1  0  0  0  0
 17  7  1  0  0  0  0
 17 19  1  0  0  0  0
 18  1  1  0  0  0  0
 19 11  1  0  0  0  0
 20 21  1  0  0  0  0
 21 30  1  0  0  0  0
 22 24  1  0  0  0  0
 22 23  1  0  0  0  0
 23 21  1  0  0  0  0
 24 26  1  0  0  0  0
 25 24  1  0  0  0  0
 26 28  1  0  0  0  0
 27 22  1  0  0  0  0
 28 20  1  0  0  0  0
 29 30  1  0  0  0  0
 31 32  1  0  0  0  0
 32 17  1  0  0  0  0
 33 32  2  0  0  0  0
 34 36  1  0  0  0  0
 35 37  1  0  0  0  0
 35 36  2  0  0  0  0
 36 33  1  0  0  0  0
 37 31  2  0  0  0  0
M  END
>  <MODEL>
8

>  <REMARK>
 VINA RESULT:      -7.2      3.707      6.733
  Name = 
  3 active torsions:
  status: ('A' for Active; 'I' for Inactive)
    1  A    between atoms: N_4  and  C_37
    2  A    between atoms: C_21  and  C_27
    3  A    between atoms: C_23  and  C_30
                            x       y       z     vdW  Elec       q    Type
                         _______ _______ _______ _____ _____    ______ ____

>  <TORSDO>
F 3

$$$$
=
 OpenBabel11112417143D

 37 42  0  0  1  0  0  0  0  0999 V2000
  193.1670  169.8640  142.0730 C   0  0  1  0  0  0  0  0  0  0  0  0
  191.7380  173.9520  141.8730 C   0  0  1  0  0  3  0  0  0  0  0  0
  190.9450  173.8260  144.9320 C   0  0  0  0  0  1  0  0  0  0  0  0
  191.3290  171.4320  141.3810 C   0  0  0  0  0  0  0  0  0  0  0  0
  192.5540  174.5240  143.0570 C   0  0  1  0  0  3  0  0  0  0  0  0
  192.2910  172.5380  141.7070 C   0  0  2  0  0  3  0  0  0  0  0  0
  191.7380  174.9650  144.2890 C   0  0  1  0  0  3  0  0  0  0  0  0
  189.8840  171.6840  141.0580 C   0  0  0  0  0  2  0  0  0  0  0  0
  192.9820  172.1880  142.9340 N   0  0  1  0  0  0  0  0  0  0  0  0
  193.9750  169.2770  140.9350 C   0  0  0  0  0  1  0  0  0  0  0  0
  189.6140  175.4060  141.9660 C   0  0  0  0  0  2  0  0  0  0  0  0
  189.5660  173.1690  140.9080 C   0  0  0  0  0  2  0  0  0  0  0  0
  193.9200  171.1070  142.6170 C   0  0  0  0  0  2  0  0  0  0  0  0
  190.2030  173.9920  142.0220 C   0  0  1  0  0  3  0  0  0  0  0  0
  193.5670  173.4390  143.4220 C   0  0  1  0  0  3  0  0  0  0  0  0
  191.7620  170.1740  141.5680 C   0  0  0  0  0  3  0  0  0  0  0  0
  190.9160  176.2460  144.0260 C   0  0  1  0  0  3  0  0  0  0  0  0
  193.0740  168.9170  143.0910 O   0  0  0  0  0  1  0  0  0  0  0  0
  190.4870  176.5050  142.5760 C   0  0  0  0  0  2  0  0  0  0  0  0
  195.0750  174.9030  141.8820 C   0  0  0  0  0  2  0  0  0  0  0  0
  196.4680  175.3060  141.7180 N   0  0  0  0  0  0  0  0  0  0  0  0
  196.1480  176.3600  144.0160 C   0  0  2  0  0  3  0  0  0  0  0  0
  196.8150  176.4090  142.6270 C   0  0  0  0  0  2  0  0  0  0  0  0
  196.2500  175.0220  144.7710 C   0  0  1  0  0  3  0  0  0  0  0  0
  195.4100  175.0180  145.8860 O   0  0  0  0  0  1  0  0  0  0  0  0
  196.0710  173.7310  143.9570 C   0  0  0  0  0  2  0  0  0  0  0  0
  194.8460  176.8270  143.9540 F   0  0  0  0  0  0  0  0  0  0  0  0
  194.9810  173.7380  142.8740 C   0  0  1  0  0  3  0  0  0  0  0  0
  195.6030  175.1240  139.4550 C   0  0  0  0  0  1  0  0  0  0  0  0
  196.5990  175.8160  140.3640 C   0  0  0  0  0  2  0  0  0  0  0  0
  188.5580  176.1190  144.9370 C   0  0  0  0  0  3  0  0  0  0  0  0
  189.8760  176.5850  145.0550 C   0  0  0  0  0  0  0  0  0  0  0  0
  190.2400  177.3570  146.1630 C   0  0  0  0  0  3  0  0  0  0  0  0
  189.6500  178.4210  148.2140 F   0  0  0  0  0  0  0  0  0  0  0  0
  187.9790  177.2090  147.0200 C   0  0  0  0  0  3  0  0  0  0  0  0
  189.2930  177.6700  147.1430 C   0  0  0  0  0  0  0  0  0  0  0  0
  187.6120  176.4320  145.9170 C   0  0  0  0  0  3  0  0  0  0  0  0
  1 10  1  6  0  0  0
  1 13  1  0  0  0  0
  1 18  1  0  0  0  0
  2 14  1  0  0  0  0
  2  5  1  0  0  0  0
  4 16  2  0  0  0  0
  4  6  1  0  0  0  0
  5 15  1  0  0  0  0
  5  7  1  0  0  0  0
  6  2  1  0  0  0  0
  6  9  1  0  0  0  0
  7  3  1  0  0  0  0
  8  4  1  0  0  0  0
  9 15  1  0  0  0  0
 11 14  1  0  0  0  0
 11 19  1  0  0  0  0
 12  8  1  0  0  0  0
 12 14  1  0  0  0  0
 13  9  1  0  0  0  0
 16  1  1  0  0  0  0
 17  7  1  0  0  0  0
 17 32  1  0  0  0  0
 19 17  1  0  0  0  0
 20 28  1  0  0  0  0
 21 20  1  0  0  0  0
 21 23  1  0  0  0  0
 22 24  1  0  0  0  0
 23 22  1  0  0  0  0
 24 25  1  0  0  0  0
 26 24  1  0  0  0  0
 27 22  1  0  0  0  0
 28 15  1  0  0  0  0
 28 26  1  0  0  0  0
 29 30  1  0  0  0  0
 30 21  1  0  0  0  0
 31 32  2  0  0  0  0
 31 37  1  0  0  0  0
 32 33  1  0  0  0  0
 33 36  2  0  0  0  0
 35 36  1  0  0  0  0
 36 34  1  0  0  0  0
 37 35  2  0  0  0  0
M  END
>  <MODEL>
9

>  <REMARK>
 VINA RESULT:      -7.1      2.720      5.780
  Name = 
  3 active torsions:
  status: ('A' for Active; 'I' for Inactive)
    1  A    between atoms: N_4  and  C_37
    2  A    between atoms: C_21  and  C_27
    3  A    between atoms: C_23  and  C_30
                            x       y       z     vdW  Elec       q    Type
                         _______ _______ _______ _____ _____    ______ ____

>  <TORSDO>
F 3

$$$$
