=
 OpenBabel11112417173D

 37 44  0  0  1  0  0  0  0  0999 V2000
  190.2810  172.5450  142.5560 C   0  0  0  0  0  2  0  0  0  0  0  0
  195.0280  173.2980  143.8250 C   0  0  0  0  0  0  0  0  0  0  0  0
  191.9410  175.5090  145.4970 C   0  0  0  0  0  0  0  0  0  0  0  0
  190.0260  171.8040  141.3210 N   0  0  0  0  0  0  0  0  0  0  0  0
  188.8910  176.2750  143.1610 C   0  0  0  0  0  2  0  0  0  0  0  0
  194.3010  174.9030  145.5730 C   0  0  0  0  0  0  0  0  0  0  0  0
  190.9060  175.4530  144.4460 C   0  0  0  0  0  0  0  0  0  0  0  0
  188.0200  173.2220  140.8220 C   0  0  2  0  0  3  0  0  0  0  0  0
  192.9400  174.7510  145.0940 C   0  0  0  0  0  0  0  0  0  0  0  0
  189.7350  176.1640  144.4180 C   0  0  0  0  0  0  0  0  0  0  0  0
  194.5620  175.7230  146.5480 N   0  0  0  0  0  0  0  0  0  0  0  0
  189.1460  172.3350  140.2750 C   0  0  0  0  0  2  0  0  0  0  0  0
  192.6910  174.1230  143.8610 N   0  0  0  0  0  0  0  0  0  0  0  0
  194.7780  171.9280  144.4290 C   0  0  0  0  0  1  0  0  0  0  0  0
  191.2480  177.2970  147.0440 C   0  0  0  0  0  3  0  0  0  0  0  0
  193.5210  176.4700  147.2790 C   0  0  0  0  0  2  0  0  0  0  0  0
  193.7970  173.7210  142.9900 C   0  0  0  0  0  2  0  0  0  0  0  0
  188.3990  174.6870  141.1210 C   0  0  1  0  0  3  0  0  0  0  0  0
  188.7030  174.9120  142.5840 C   0  0  1  0  0  3  0  0  0  0  0  0
  192.1790  176.4880  146.5650 C   0  0  0  0  0  0  0  0  0  0  0  0
  191.4440  174.5670  143.4120 N   0  0  0  0  0  0  0  0  0  0  0  0
  195.3170  174.2390  144.8770 O   0  0  0  0  0  0  0  0  0  0  0  0
  189.1730  176.9200  145.5860 C   0  0  0  0  0  0  0  0  0  0  0  0
  196.2280  173.2020  142.9080 C   0  0  0  0  0  1  0  0  0  0  0  0
  189.8370  174.9110  141.5910 C   0  0  1  0  0  3  0  0  0  0  0  0
  187.3340  172.6120  141.8760 O   0  0  0  0  0  1  0  0  0  0  0  0
  190.8150  173.9430  142.2340 C   0  0  2  0  0  3  0  0  0  0  0  0
  189.8430  177.4070  146.6380 C   0  0  0  0  0  3  0  0  0  0  0  0
  186.8480  176.3860  146.3210 C   0  0  0  0  0  3  0  0  0  0  0  0
  187.7230  177.2050  145.5980 C   0  0  0  0  0  0  0  0  0  0  0  0
  187.1940  178.2710  144.8590 C   0  0  0  0  0  3  0  0  0  0  0  0
  185.1470  179.8310  143.9310 Cl  0  0  0  0  0  0  0  0  0  0  0  0
  184.9830  177.6540  145.5800 C   0  0  0  0  0  3  0  0  0  0  0  0
  185.8190  178.4980  144.8450 C   0  0  0  0  0  0  0  0  0  0  0  0
  185.5110  176.6270  146.3000 N   0  0  0  0  0  0  0  0  0  0  0  0
  191.3790  169.9190  142.0150 C   0  0  0  0  0  2  0  0  0  0  0  0
  190.6120  170.5180  141.1060 C   0  0  0  0  0  3  0  0  0  0  0  0
  2 14  1  0  0  0  0
  2 22  1  0  0  0  0
  3 20  1  0  0  0  0
  4  1  1  0  0  0  0
  5 10  1  0  0  0  0
  6 11  2  0  0  0  0
  7  3  1  0  0  0  0
  8 18  1  0  0  0  0
  8 26  1  1  0  0  0
  9  3  2  0  0  0  0
  9  6  1  0  0  0  0
 10  7  2  0  0  0  0
 10 23  1  0  0  0  0
 11 16  1  0  0  0  0
 12  8  1  0  0  0  0
 12  4  1  0  0  0  0
 13  9  1  0  0  0  0
 17  2  1  0  0  0  0
 17 13  1  0  0  0  0
 18 25  1  0  0  0  0
 18 19  1  0  0  0  0
 19  5  1  0  0  0  0
 20 15  2  0  0  0  0
 20 16  1  0  0  0  0
 21 13  1  0  0  0  0
 21  7  1  0  0  0  0
 22  6  1  0  0  0  0
 23 30  1  0  0  0  0
 23 28  2  0  0  0  0
 24  2  1  0  0  0  0
 25 27  1  0  0  0  0
 25 19  1  0  0  0  0
 27  1  1  0  0  0  0
 27 21  1  0  0  0  0
 28 15  1  0  0  0  0
 30 29  2  0  0  0  0
 31 30  1  0  0  0  0
 32 34  1  0  0  0  0
 33 35  2  0  0  0  0
 34 31  2  0  0  0  0
 34 33  1  0  0  0  0
 35 29  1  0  0  0  0
 37  4  1  0  0  0  0
 37 36  2  0  0  0  0
M  END
>  <MODEL>
1

>  <REMARK>
 VINA RESULT:      -8.4      0.000      0.000
  Name = 
  2 active torsions:
  status: ('A' for Active; 'I' for Inactive)
    1  A    between atoms: N_4  and  C_37
    2  A    between atoms: C_23  and  C_30
                            x       y       z     vdW  Elec       q    Type
                         _______ _______ _______ _____ _____    ______ ____

>  <TORSDO>
F 2

$$$$
=
 OpenBabel11112417173D

 37 44  0  0  1  0  0  0  0  0999 V2000
  189.8310  173.9920  140.5940 C   0  0  0  0  0  2  0  0  0  0  0  0
  186.9580  177.0140  143.3010 C   0  0  0  0  0  0  0  0  0  0  0  0
  190.5380  175.5110  144.7630 C   0  0  0  0  0  0  0  0  0  0  0  0
  189.2190  173.3450  139.4340 N   0  0  0  0  0  0  0  0  0  0  0  0
  191.5120  171.9010  143.5960 C   0  0  0  0  0  2  0  0  0  0  0  0
  188.7070  177.0930  145.0600 C   0  0  0  0  0  0  0  0  0  0  0  0
  190.6890  174.2560  144.0020 C   0  0  0  0  0  0  0  0  0  0  0  0
  190.5580  171.2620  139.8240 C   0  0  2  0  0  3  0  0  0  0  0  0
  189.4630  176.1150  144.3000 C   0  0  0  0  0  0  0  0  0  0  0  0
  191.6270  173.2810  144.2170 C   0  0  0  0  0  0  0  0  0  0  0  0
  189.1580  177.5230  146.2020 N   0  0  0  0  0  0  0  0  0  0  0  0
  189.2860  171.8930  139.2410 C   0  0  0  0  0  2  0  0  0  0  0  0
  188.8540  175.4180  143.2420 N   0  0  0  0  0  0  0  0  0  0  0  0
  187.4490  177.9650  142.2240 C   0  0  0  0  0  1  0  0  0  0  0  0
  192.1460  175.3790  146.6250 C   0  0  0  0  0  3  0  0  0  0  0  0
  190.4700  177.1330  146.7530 C   0  0  0  0  0  2  0  0  0  0  0  0
  187.4250  175.5780  142.9670 C   0  0  0  0  0  2  0  0  0  0  0  0
  190.5340  170.9690  141.3380 C   0  0  1  0  0  3  0  0  0  0  0  0
  191.2190  172.0500  142.1410 C   0  0  1  0  0  3  0  0  0  0  0  0
  191.0740  175.9180  146.0690 C   0  0  0  0  0  0  0  0  0  0  0  0
  189.5740  174.2360  143.0540 N   0  0  0  0  0  0  0  0  0  0  0  0
  187.4420  177.4550  144.5840 O   0  0  0  0  0  0  0  0  0  0  0  0
  192.8380  173.4460  145.0890 C   0  0  0  0  0  0  0  0  0  0  0  0
  185.4450  177.0440  143.3090 C   0  0  0  0  0  1  0  0  0  0  0  0
  189.7160  171.9460  142.1840 C   0  0  1  0  0  3  0  0  0  0  0  0
  191.7140  171.9360  139.4190 O   0  0  0  0  0  1  0  0  0  0  0  0
  189.2960  173.3760  141.8890 C   0  0  2  0  0  3  0  0  0  0  0  0
  192.9970  174.3030  146.1050 C   0  0  0  0  0  3  0  0  0  0  0  0
  194.7860  172.7200  143.7090 C   0  0  0  0  0  3  0  0  0  0  0  0
  193.9940  172.5560  144.8510 C   0  0  0  0  0  0  0  0  0  0  0  0
  194.2940  171.5150  145.7380 C   0  0  0  0  0  3  0  0  0  0  0  0
  195.7500  169.3560  146.5780 Cl  0  0  0  0  0  0  0  0  0  0  0  0
  196.1240  170.8570  144.3210 C   0  0  0  0  0  3  0  0  0  0  0  0
  195.3610  170.6580  145.4740 C   0  0  0  0  0  0  0  0  0  0  0  0
  195.8260  171.8770  143.4720 N   0  0  0  0  0  0  0  0  0  0  0  0
  188.9220  174.1060  137.1550 C   0  0  0  0  0  2  0  0  0  0  0  0
  188.5520  174.1180  138.4330 C   0  0  0  0  0  3  0  0  0  0  0  0
  1 27  1  0  0  0  0
  2 24  1  0  0  0  0
  2 22  1  0  0  0  0
  3 20  1  0  0  0  0
  4  1  1  0  0  0  0
  5 10  1  0  0  0  0
  6 11  2  0  0  0  0
  7 10  2  0  0  0  0
  7  3  1  0  0  0  0
  8 26  1  1  0  0  0
  8 18  1  0  0  0  0
  9  3  2  0  0  0  0
  9  6  1  0  0  0  0
 10 23  1  0  0  0  0
 11 16  1  0  0  0  0
 12  4  1  0  0  0  0
 12  8  1  0  0  0  0
 13  9  1  0  0  0  0
 14  2  1  0  0  0  0
 17 13  1  0  0  0  0
 17  2  1  0  0  0  0
 18 19  1  0  0  0  0
 18 25  1  0  0  0  0
 19 25  1  0  0  0  0
 19  5  1  0  0  0  0
 20 15  2  0  0  0  0
 20 16  1  0  0  0  0
 21 13  1  0  0  0  0
 21  7  1  0  0  0  0
 22  6  1  0  0  0  0
 23 28  2  0  0  0  0
 27 25  1  0  0  0  0
 27 21  1  0  0  0  0
 28 15  1  0  0  0  0
 29 30  1  0  0  0  0
 30 23  1  0  0  0  0
 30 31  2  0  0  0  0
 33 34  2  0  0  0  0
 34 31  1  0  0  0  0
 34 32  1  0  0  0  0
 35 29  2  0  0  0  0
 35 33  1  0  0  0  0
 36 37  2  0  0  0  0
 37  4  1  0  0  0  0
M  END
>  <MODEL>
2

>  <REMARK>
 VINA RESULT:      -8.3      3.376      6.839
  Name = 
  2 active torsions:
  status: ('A' for Active; 'I' for Inactive)
    1  A    between atoms: N_4  and  C_37
    2  A    between atoms: C_23  and  C_30
                            x       y       z     vdW  Elec       q    Type
                         _______ _______ _______ _____ _____    ______ ____

>  <TORSDO>
F 2

$$$$
=
 OpenBabel11112417173D

 37 44  0  0  1  0  0  0  0  0999 V2000
  189.0700  175.0060  141.2710 C   0  0  0  0  0  2  0  0  0  0  0  0
  186.3290  177.5910  144.5140 C   0  0  0  0  0  0  0  0  0  0  0  0
  190.0860  176.1330  145.5000 C   0  0  0  0  0  0  0  0  0  0  0  0
  188.3830  174.4470  140.1070 N   0  0  0  0  0  0  0  0  0  0  0  0
  191.1010  172.7120  143.8840 C   0  0  0  0  0  2  0  0  0  0  0  0
  188.2250  177.5820  146.1160 C   0  0  0  0  0  0  0  0  0  0  0  0
  190.2200  174.9690  144.6020 C   0  0  0  0  0  0  0  0  0  0  0  0
  189.8380  172.4060  140.1610 C   0  0  2  0  0  3  0  0  0  0  0  0
  188.9490  176.7250  145.1960 C   0  0  0  0  0  0  0  0  0  0  0  0
  191.2140  174.0270  144.6340 C   0  0  0  0  0  0  0  0  0  0  0  0
  188.7590  177.9180  147.2540 N   0  0  0  0  0  0  0  0  0  0  0  0
  188.4940  173.0280  139.7590 C   0  0  0  0  0  2  0  0  0  0  0  0
  188.2770  176.1070  144.1280 N   0  0  0  0  0  0  0  0  0  0  0  0
  186.6810  178.6690  143.5040 C   0  0  0  0  0  1  0  0  0  0  0  0
  191.8590  175.8970  147.1940 C   0  0  0  0  0  3  0  0  0  0  0  0
  190.1300  177.5420  147.6470 C   0  0  0  0  0  2  0  0  0  0  0  0
  186.8240  176.2210  143.9930 C   0  0  0  0  0  2  0  0  0  0  0  0
  189.9630  171.9630  141.6330 C   0  0  1  0  0  3  0  0  0  0  0  0
  190.6720  172.9910  142.4830 C   0  0  1  0  0  3  0  0  0  0  0  0
  190.7200  176.4340  146.7910 C   0  0  0  0  0  0  0  0  0  0  0  0
  189.0260  174.9880  143.7560 N   0  0  0  0  0  0  0  0  0  0  0  0
  186.9080  177.9250  145.7900 O   0  0  0  0  0  0  0  0  0  0  0  0
  192.4910  174.1650  145.4120 C   0  0  0  0  0  0  0  0  0  0  0  0
  184.8230  177.5430  144.6550 C   0  0  0  0  0  1  0  0  0  0  0  0
  189.1840  172.8080  142.6430 C   0  0  1  0  0  3  0  0  0  0  0  0
  190.9230  173.1750  139.7320 O   0  0  0  0  0  1  0  0  0  0  0  0
  188.6800  174.2360  142.5360 C   0  0  2  0  0  3  0  0  0  0  0  0
  192.7050  174.9230  146.4940 C   0  0  0  0  0  3  0  0  0  0  0  0
  194.3490  173.6950  143.8130 C   0  0  0  0  0  3  0  0  0  0  0  0
  193.6560  173.3640  144.9840 C   0  0  0  0  0  0  0  0  0  0  0  0
  194.0650  172.2420  145.7160 C   0  0  0  0  0  3  0  0  0  0  0  0
  195.6630  170.0710  146.1830 Cl  0  0  0  0  0  0  0  0  0  0  0  0
  195.8000  171.8380  144.0990 C   0  0  0  0  0  3  0  0  0  0  0  0
  195.1390  171.4720  145.2730 C   0  0  0  0  0  0  0  0  0  0  0  0
  195.3980  172.9350  143.4010 N   0  0  0  0  0  0  0  0  0  0  0  0
  187.0650  176.4300  139.6650 C   0  0  0  0  0  2  0  0  0  0  0  0
  187.5970  175.2820  139.2520 C   0  0  0  0  0  3  0  0  0  0  0  0
  1 27  1  0  0  0  0
  2 24  1  0  0  0  0
  2 22  1  0  0  0  0
  3 20  1  0  0  0  0
  4  1  1  0  0  0  0
  5 10  1  0  0  0  0
  6 11  2  0  0  0  0
  7 10  2  0  0  0  0
  7  3  1  0  0  0  0
  8 26  1  1  0  0  0
  8 18  1  0  0  0  0
  9  3  2  0  0  0  0
  9  6  1  0  0  0  0
 10 23  1  0  0  0  0
 11 16  1  0  0  0  0
 12  4  1  0  0  0  0
 12  8  1  0  0  0  0
 13  9  1  0  0  0  0
 14  2  1  0  0  0  0
 17 13  1  0  0  0  0
 17  2  1  0  0  0  0
 18 19  1  0  0  0  0
 18 25  1  0  0  0  0
 19 25  1  0  0  0  0
 19  5  1  0  0  0  0
 20 15  2  0  0  0  0
 20 16  1  0  0  0  0
 21 13  1  0  0  0  0
 21  7  1  0  0  0  0
 22  6  1  0  0  0  0
 23 28  2  0  0  0  0
 27 25  1  0  0  0  0
 27 21  1  0  0  0  0
 28 15  1  0  0  0  0
 29 30  1  0  0  0  0
 30 23  1  0  0  0  0
 30 31  2  0  0  0  0
 33 34  2  0  0  0  0
 34 31  1  0  0  0  0
 34 32  1  0  0  0  0
 35 29  2  0  0  0  0
 35 33  1  0  0  0  0
 37 36  2  0  0  0  0
 37  4  1  0  0  0  0
M  END
>  <MODEL>
3

>  <REMARK>
 VINA RESULT:      -7.9      3.200      6.799
  Name = 
  2 active torsions:
  status: ('A' for Active; 'I' for Inactive)
    1  A    between atoms: N_4  and  C_37
    2  A    between atoms: C_23  and  C_30
                            x       y       z     vdW  Elec       q    Type
                         _______ _______ _______ _____ _____    ______ ____

>  <TORSDO>
F 2

$$$$
=
 OpenBabel11112417173D

 37 44  0  0  1  0  0  0  0  0999 V2000
  194.0490  175.5190  143.6310 C   0  0  0  0  0  2  0  0  0  0  0  0
  193.5250  172.6640  139.5960 C   0  0  0  0  0  0  0  0  0  0  0  0
  190.2690  174.4420  141.4530 C   0  0  0  0  0  0  0  0  0  0  0  0
  195.3070  175.4150  144.3690 N   0  0  0  0  0  0  0  0  0  0  0  0
  190.4760  174.8070  145.3470 C   0  0  0  0  0  2  0  0  0  0  0  0
  191.1130  173.2390  139.5080 C   0  0  0  0  0  0  0  0  0  0  0  0
  190.7410  174.5930  142.8430 C   0  0  0  0  0  0  0  0  0  0  0  0
  194.1150  175.7300  146.5520 C   0  0  2  0  0  3  0  0  0  0  0  0
  191.2780  173.9630  140.7540 C   0  0  0  0  0  0  0  0  0  0  0  0
  189.9880  174.9800  143.9200 C   0  0  0  0  0  0  0  0  0  0  0  0
  189.9410  173.1590  138.9490 N   0  0  0  0  0  0  0  0  0  0  0  0
  195.3320  175.1580  145.8120 C   0  0  0  0  0  2  0  0  0  0  0  0
  192.4450  173.7960  141.5180 N   0  0  0  0  0  0  0  0  0  0  0  0
  194.2340  173.8710  139.0090 C   0  0  0  0  0  1  0  0  0  0  0  0
  187.8320  174.7920  141.5160 C   0  0  0  0  0  3  0  0  0  0  0  0
  188.7460  173.8480  139.4720 C   0  0  0  0  0  2  0  0  0  0  0  0
  193.4560  172.8090  141.1340 C   0  0  0  0  0  2  0  0  0  0  0  0
  192.8350  174.8720  146.5120 C   0  0  1  0  0  3  0  0  0  0  0  0
  191.8670  175.3360  145.4490 C   0  0  1  0  0  3  0  0  0  0  0  0
  188.9120  174.3430  140.8990 C   0  0  0  0  0  0  0  0  0  0  0  0
  192.1350  174.1480  142.8350 N   0  0  0  0  0  0  0  0  0  0  0  0
  192.2170  172.5430  139.0050 O   0  0  0  0  0  0  0  0  0  0  0  0
  188.6160  175.5820  143.8260 C   0  0  0  0  0  0  0  0  0  0  0  0
  194.3330  171.4280  139.2600 C   0  0  0  0  0  1  0  0  0  0  0  0
  192.6310  174.0540  145.2350 C   0  0  1  0  0  3  0  0  0  0  0  0
  193.8820  177.0690  146.2240 O   0  0  0  0  0  1  0  0  0  0  0  0
  193.2040  174.2600  143.8440 C   0  0  2  0  0  3  0  0  0  0  0  0
  187.7360  175.4460  142.8250 C   0  0  0  0  0  3  0  0  0  0  0  0
  189.0470  177.0120  145.8260 C   0  0  0  0  0  3  0  0  0  0  0  0
  188.1340  176.3970  144.9590 C   0  0  0  0  0  0  0  0  0  0  0  0
  186.7640  176.5380  145.2120 C   0  0  0  0  0  3  0  0  0  0  0  0
  184.6180  177.4640  146.6350 Cl  0  0  0  0  0  0  0  0  0  0  0  0
  187.2740  177.8690  147.1510 C   0  0  0  0  0  3  0  0  0  0  0  0
  186.3280  177.2740  146.3130 C   0  0  0  0  0  0  0  0  0  0  0  0
  188.6020  177.7300  146.8900 N   0  0  0  0  0  0  0  0  0  0  0  0
  196.9670  176.7640  143.2340 C   0  0  0  0  0  2  0  0  0  0  0  0
  196.5610  175.5860  143.7030 C   0  0  0  0  0  3  0  0  0  0  0  0
  1 27  1  0  0  0  0
  1  4  1  0  0  0  0
  2 17  1  0  0  0  0
  3  7  1  0  0  0  0
  4 12  1  0  0  0  0
  5 19  1  0  0  0  0
  6  9  1  0  0  0  0
  7 10  2  0  0  0  0
  8 26  1  6  0  0  0
  9  3  2  0  0  0  0
  9 13  1  0  0  0  0
 10  5  1  0  0  0  0
 11 16  1  0  0  0  0
 11  6  2  0  0  0  0
 12  8  1  0  0  0  0
 13 21  1  0  0  0  0
 14  2  1  0  0  0  0
 15 28  1  0  0  0  0
 16 20  1  0  0  0  0
 17 13  1  0  0  0  0
 18  8  1  0  0  0  0
 19 18  1  0  0  0  0
 20  3  1  0  0  0  0
 20 15  2  0  0  0  0
 21  7  1  0  0  0  0
 21 27  1  0  0  0  0
 22  6  1  0  0  0  0
 22  2  1  0  0  0  0
 23 10  1  0  0  0  0
 23 30  1  0  0  0  0
 24  2  1  0  0  0  0
 25 19  1  0  0  0  0
 25 18  1  0  0  0  0
 27 25  1  0  0  0  0
 28 23  2  0  0  0  0
 29 35  1  0  0  0  0
 30 31  1  0  0  0  0
 30 29  2  0  0  0  0
 31 34  2  0  0  0  0
 34 32  1  0  0  0  0
 34 33  1  0  0  0  0
 35 33  2  0  0  0  0
 36 37  2  0  0  0  0
 37  4  1  0  0  0  0
M  END
>  <MODEL>
4

>  <REMARK>
 VINA RESULT:      -7.7      2.284      5.548
  Name = 
  2 active torsions:
  status: ('A' for Active; 'I' for Inactive)
    1  A    between atoms: N_4  and  C_37
    2  A    between atoms: C_23  and  C_30
                            x       y       z     vdW  Elec       q    Type
                         _______ _______ _______ _____ _____    ______ ____

>  <TORSDO>
F 2

$$$$
=
 OpenBabel11112417173D

 37 44  0  0  1  0  0  0  0  0999 V2000
  189.8540  175.6520  145.9410 C   0  0  0  0  0  2  0  0  0  0  0  0
  187.7770  176.2420  141.4630 C   0  0  0  0  0  0  0  0  0  0  0  0
  190.8530  173.5330  142.1060 C   0  0  0  0  0  0  0  0  0  0  0  0
  189.6270  176.7050  146.9300 N   0  0  0  0  0  0  0  0  0  0  0  0
  193.5450  174.5600  144.7600 C   0  0  0  0  0  2  0  0  0  0  0  0
  189.1210  174.3440  140.5950 C   0  0  0  0  0  0  0  0  0  0  0  0
  191.5570  174.1220  143.2610 C   0  0  0  0  0  0  0  0  0  0  0  0
  191.9420  176.4150  147.8470 C   0  0  2  0  0  3  0  0  0  0  0  0
  189.7920  174.2820  141.8790 C   0  0  0  0  0  0  0  0  0  0  0  0
  192.7560  173.7090  143.7810 C   0  0  0  0  0  0  0  0  0  0  0  0
  189.4650  173.5340  139.6380 N   0  0  0  0  0  0  0  0  0  0  0  0
  190.7390  177.3450  147.6380 C   0  0  0  0  0  2  0  0  0  0  0  0
  189.6570  175.3340  142.8000 N   0  0  0  0  0  0  0  0  0  0  0  0
  186.6390  175.5930  142.2300 C   0  0  0  0  0  1  0  0  0  0  0  0
  192.3720  171.8340  141.1730 C   0  0  0  0  0  3  0  0  0  0  0  0
  190.4670  172.4650  139.8020 C   0  0  0  0  0  2  0  0  0  0  0  0
  188.9360  176.5560  142.4380 C   0  0  0  0  0  2  0  0  0  0  0  0
  192.9030  176.2750  146.6500 C   0  0  1  0  0  3  0  0  0  0  0  0
  192.6280  175.0300  145.8380 C   0  0  1  0  0  3  0  0  0  0  0  0
  191.3210  172.6270  141.0490 C   0  0  0  0  0  0  0  0  0  0  0  0
  190.7600  175.2840  143.6560 N   0  0  0  0  0  0  0  0  0  0  0  0
  188.1910  175.3710  140.3940 O   0  0  0  0  0  0  0  0  0  0  0  0
  193.4300  172.4130  143.4360 C   0  0  0  0  0  0  0  0  0  0  0  0
  187.2720  177.5410  140.8720 C   0  0  0  0  0  1  0  0  0  0  0  0
  192.2530  176.3740  145.2690 C   0  0  1  0  0  3  0  0  0  0  0  0
  191.5660  175.1830  148.3910 O   0  0  0  0  0  1  0  0  0  0  0  0
  190.8110  176.1450  144.8510 C   0  0  2  0  0  3  0  0  0  0  0  0
  193.2710  171.6860  142.3220 C   0  0  0  0  0  3  0  0  0  0  0  0
  195.7270  172.3350  144.4080 C   0  0  0  0  0  3  0  0  0  0  0  0
  194.4090  171.8610  144.3940 C   0  0  0  0  0  0  0  0  0  0  0  0
  194.0530  170.8320  145.2740 C   0  0  0  0  0  3  0  0  0  0  0  0
  194.5660  169.0110  147.2500 Cl  0  0  0  0  0  0  0  0  0  0  0  0
  196.3050  170.7950  146.1200 C   0  0  0  0  0  3  0  0  0  0  0  0
  195.0020  170.2920  146.1410 C   0  0  0  0  0  0  0  0  0  0  0  0
  196.6370  171.8000  145.2640 N   0  0  0  0  0  0  0  0  0  0  0  0
  187.2420  176.7930  146.5230 C   0  0  0  0  0  2  0  0  0  0  0  0
  188.3010  177.1270  147.2570 C   0  0  0  0  0  3  0  0  0  0  0  0
  1  4  1  0  0  0  0
  2 14  1  0  0  0  0
  2 17  1  0  0  0  0
  3  7  1  0  0  0  0
  4 37  1  0  0  0  0
  4 12  1  0  0  0  0
  5 19  1  0  0  0  0
  6  9  1  0  0  0  0
  7 21  1  0  0  0  0
  7 10  2  0  0  0  0
  8 26  1  6  0  0  0
  9  3  2  0  0  0  0
  9 13  1  0  0  0  0
 10  5  1  0  0  0  0
 11 16  1  0  0  0  0
 11  6  2  0  0  0  0
 12  8  1  0  0  0  0
 13 21  1  0  0  0  0
 15 28  1  0  0  0  0
 16 20  1  0  0  0  0
 17 13  1  0  0  0  0
 18  8  1  0  0  0  0
 19 18  1  0  0  0  0
 20 15  2  0  0  0  0
 20  3  1  0  0  0  0
 21 27  1  0  0  0  0
 22  6  1  0  0  0  0
 22  2  1  0  0  0  0
 23 10  1  0  0  0  0
 23 30  1  0  0  0  0
 24  2  1  0  0  0  0
 25 19  1  0  0  0  0
 25 18  1  0  0  0  0
 27 25  1  0  0  0  0
 27  1  1  0  0  0  0
 28 23  2  0  0  0  0
 29 35  1  0  0  0  0
 30 29  2  0  0  0  0
 30 31  1  0  0  0  0
 31 34  2  0  0  0  0
 33 34  1  0  0  0  0
 34 32  1  0  0  0  0
 35 33  2  0  0  0  0
 36 37  2  0  0  0  0
M  END
>  <MODEL>
5

>  <REMARK>
 VINA RESULT:      -7.7      3.168      8.119
  Name = 
  2 active torsions:
  status: ('A' for Active; 'I' for Inactive)
    1  A    between atoms: N_4  and  C_37
    2  A    between atoms: C_23  and  C_30
                            x       y       z     vdW  Elec       q    Type
                         _______ _______ _______ _____ _____    ______ ____

>  <TORSDO>
F 2

$$$$
=
 OpenBabel11112417173D

 37 44  0  0  1  0  0  0  0  0999 V2000
  190.8760  172.1180  141.7920 C   0  0  0  0  0  2  0  0  0  0  0  0
  195.7870  172.5300  142.4410 C   0  0  0  0  0  0  0  0  0  0  0  0
  193.0910  174.7200  144.7100 C   0  0  0  0  0  0  0  0  0  0  0  0
  190.4120  171.5070  140.5470 N   0  0  0  0  0  0  0  0  0  0  0  0
  189.8020  175.8380  142.9000 C   0  0  0  0  0  2  0  0  0  0  0  0
  195.4000  174.0000  144.4030 C   0  0  0  0  0  0  0  0  0  0  0  0
  191.9220  174.8080  143.8140 C   0  0  0  0  0  0  0  0  0  0  0  0
  188.4440  173.0570  140.4570 C   0  0  2  0  0  3  0  0  0  0  0  0
  193.9800  173.9550  144.1080 C   0  0  0  0  0  0  0  0  0  0  0  0
  190.8020  175.5730  144.0110 C   0  0  0  0  0  0  0  0  0  0  0  0
  195.8390  174.7140  145.3970 N   0  0  0  0  0  0  0  0  0  0  0  0
  189.4310  172.1720  139.6840 C   0  0  0  0  0  2  0  0  0  0  0  0
  193.5290  173.4560  142.8750 N   0  0  0  0  0  0  0  0  0  0  0  0
  195.5410  171.1230  142.9560 C   0  0  0  0  0  1  0  0  0  0  0  0
  192.7220  176.3880  146.4850 C   0  0  0  0  0  3  0  0  0  0  0  0
  194.9530  175.4380  146.3280 C   0  0  0  0  0  2  0  0  0  0  0  0
  194.4810  173.0850  141.8260 C   0  0  0  0  0  2  0  0  0  0  0  0
  188.9460  174.4680  140.8220 C   0  0  1  0  0  3  0  0  0  0  0  0
  189.4590  174.5440  142.2420 C   0  0  1  0  0  3  0  0  0  0  0  0
  193.5300  175.5850  145.8140 C   0  0  0  0  0  0  0  0  0  0  0  0
  192.2610  173.9970  142.6450 N   0  0  0  0  0  0  0  0  0  0  0  0
  196.2710  173.3560  143.5170 O   0  0  0  0  0  0  0  0  0  0  0  0
  190.4490  176.2430  145.3070 C   0  0  0  0  0  0  0  0  0  0  0  0
  196.8440  172.4630  141.3590 C   0  0  0  0  0  1  0  0  0  0  0  0
  190.4450  174.5810  141.1030 C   0  0  1  0  0  3  0  0  0  0  0  0
  187.8720  172.3850  141.5420 O   0  0  0  0  0  1  0  0  0  0  0  0
  191.4430  173.5140  141.5180 C   0  0  2  0  0  3  0  0  0  0  0  0
  191.2830  176.6010  146.2910 C   0  0  0  0  0  3  0  0  0  0  0  0
  188.3220  175.9870  146.5890 C   0  0  0  0  0  3  0  0  0  0  0  0
  189.0330  176.5940  145.5460 C   0  0  0  0  0  0  0  0  0  0  0  0
  188.3680  177.5050  144.7160 C   0  0  0  0  0  3  0  0  0  0  0  0
  186.1800  178.9310  143.9020 Cl  0  0  0  0  0  0  0  0  0  0  0  0
  186.3500  177.1600  145.9800 C   0  0  0  0  0  3  0  0  0  0  0  0
  187.0200  177.7900  144.9290 C   0  0  0  0  0  0  0  0  0  0  0  0
  187.0100  176.2820  146.7840 N   0  0  0  0  0  0  0  0  0  0  0  0
  190.7300  169.1320  140.8940 C   0  0  0  0  0  2  0  0  0  0  0  0
  190.8870  170.2200  140.1440 C   0  0  0  0  0  3  0  0  0  0  0  0
  2 14  1  0  0  0  0
  2 22  1  0  0  0  0
  3 20  1  0  0  0  0
  4  1  1  0  0  0  0
  5 10  1  0  0  0  0
  6 11  2  0  0  0  0
  7 10  2  0  0  0  0
  7  3  1  0  0  0  0
  8 18  1  0  0  0  0
  8 26  1  1  0  0  0
  9  6  1  0  0  0  0
  9  3  2  0  0  0  0
 10 23  1  0  0  0  0
 11 16  1  0  0  0  0
 12  8  1  0  0  0  0
 12  4  1  0  0  0  0
 13  9  1  0  0  0  0
 17  2  1  0  0  0  0
 17 13  1  0  0  0  0
 18 25  1  0  0  0  0
 18 19  1  0  0  0  0
 19  5  1  0  0  0  0
 20 16  1  0  0  0  0
 20 15  2  0  0  0  0
 21 13  1  0  0  0  0
 21  7  1  0  0  0  0
 22  6  1  0  0  0  0
 23 30  1  0  0  0  0
 23 28  2  0  0  0  0
 24  2  1  0  0  0  0
 25 27  1  0  0  0  0
 25 19  1  0  0  0  0
 27  1  1  0  0  0  0
 27 21  1  0  0  0  0
 28 15  1  0  0  0  0
 29 35  1  0  0  0  0
 30 29  2  0  0  0  0
 31 34  2  0  0  0  0
 31 30  1  0  0  0  0
 32 34  1  0  0  0  0
 33 35  2  0  0  0  0
 34 33  1  0  0  0  0
 37  4  1  0  0  0  0
 37 36  2  0  0  0  0
M  END
>  <MODEL>
6

>  <REMARK>
 VINA RESULT:      -7.6      1.166      1.441
  Name = 
  2 active torsions:
  status: ('A' for Active; 'I' for Inactive)
    1  A    between atoms: N_4  and  C_37
    2  A    between atoms: C_23  and  C_30
                            x       y       z     vdW  Elec       q    Type
                         _______ _______ _______ _____ _____    ______ ____

>  <TORSDO>
F 2

$$$$
=
 OpenBabel11112417173D

 37 44  0  0  1  0  0  0  0  0999 V2000
  191.9660  175.4760  145.0930 C   0  0  0  0  0  2  0  0  0  0  0  0
  192.7360  172.0920  141.5330 C   0  0  0  0  0  0  0  0  0  0  0  0
  189.4890  174.6720  141.4320 C   0  0  0  0  0  0  0  0  0  0  0  0
  192.6810  175.2960  146.3560 N   0  0  0  0  0  0  0  0  0  0  0  0
  187.9490  175.6640  144.8950 C   0  0  0  0  0  2  0  0  0  0  0  0
  190.8380  173.0310  140.2380 C   0  0  0  0  0  0  0  0  0  0  0  0
  189.2850  174.9810  142.8600 C   0  0  0  0  0  0  0  0  0  0  0  0
  190.7220  176.1740  147.6510 C   0  0  2  0  0  3  0  0  0  0  0  0
  190.5690  173.9210  141.3500 C   0  0  0  0  0  0  0  0  0  0  0  0
  188.2290  175.6660  143.4020 C   0  0  0  0  0  0  0  0  0  0  0  0
  190.0730  173.0480  139.1860 N   0  0  0  0  0  0  0  0  0  0  0  0
  191.9780  175.2910  147.6420 C   0  0  0  0  0  2  0  0  0  0  0  0
  191.1780  173.7010  142.5970 N   0  0  0  0  0  0  0  0  0  0  0  0
  193.8880  173.0490  141.2810 C   0  0  0  0  0  1  0  0  0  0  0  0
  187.4480  175.4210  140.2720 C   0  0  0  0  0  3  0  0  0  0  0  0
  188.9630  174.0030  139.0080 C   0  0  0  0  0  2  0  0  0  0  0  0
  191.9980  172.5100  142.8270 C   0  0  0  0  0  2  0  0  0  0  0  0
  189.4490  175.5420  147.0540 C   0  0  1  0  0  3  0  0  0  0  0  0
  189.2150  175.9680  145.6230 C   0  0  1  0  0  3  0  0  0  0  0  0
  188.5580  174.7030  140.2950 C   0  0  0  0  0  0  0  0  0  0  0  0
  190.3830  174.3190  143.5650 N   0  0  0  0  0  0  0  0  0  0  0  0
  191.8600  172.0870  140.3900 O   0  0  0  0  0  0  0  0  0  0  0  0
  187.2330  176.4580  142.6070 C   0  0  0  0  0  0  0  0  0  0  0  0
  193.3050  170.7030  141.7240 C   0  0  0  0  0  1  0  0  0  0  0  0
  189.6790  174.5610  145.9020 C   0  0  1  0  0  3  0  0  0  0  0  0
  190.9770  177.4560  147.1560 O   0  0  0  0  0  1  0  0  0  0  0  0
  190.8590  174.4270  144.9560 C   0  0  2  0  0  3  0  0  0  0  0  0
  186.9100  176.2980  141.3180 C   0  0  0  0  0  3  0  0  0  0  0  0
  186.5600  178.8490  142.8530 C   0  0  0  0  0  3  0  0  0  0  0  0
  186.4800  177.5250  143.3000 C   0  0  0  0  0  0  0  0  0  0  0  0
  185.7080  177.2400  144.4330 C   0  0  0  0  0  3  0  0  0  0  0  0
  184.0660  177.9210  146.5130 Cl  0  0  0  0  0  0  0  0  0  0  0  0
  185.1490  179.5730  144.6200 C   0  0  0  0  0  3  0  0  0  0  0  0
  185.0400  178.2660  145.1000 C   0  0  0  0  0  0  0  0  0  0  0  0
  185.8970  179.8350  143.5130 N   0  0  0  0  0  0  0  0  0  0  0  0
  194.9060  175.8060  145.5470 C   0  0  0  0  0  2  0  0  0  0  0  0
  194.1030  175.1430  146.3760 C   0  0  0  0  0  3  0  0  0  0  0  0
  1  4  1  0  0  0  0
  2 24  1  0  0  0  0
  2 17  1  0  0  0  0
  3  7  1  0  0  0  0
  4 37  1  0  0  0  0
  4 12  1  0  0  0  0
  5 19  1  0  0  0  0
  6 22  1  0  0  0  0
  6  9  1  0  0  0  0
  7 10  2  0  0  0  0
  7 21  1  0  0  0  0
  8 26  1  6  0  0  0
  9  3  2  0  0  0  0
  9 13  1  0  0  0  0
 10  5  1  0  0  0  0
 11  6  2  0  0  0  0
 12  8  1  0  0  0  0
 13 17  1  0  0  0  0
 13 21  1  0  0  0  0
 14  2  1  0  0  0  0
 15 20  2  0  0  0  0
 15 28  1  0  0  0  0
 16 11  1  0  0  0  0
 16 20  1  0  0  0  0
 18  8  1  0  0  0  0
 19 25  1  0  0  0  0
 19 18  1  0  0  0  0
 20  3  1  0  0  0  0
 21 27  1  0  0  0  0
 22  2  1  0  0  0  0
 23 30  1  0  0  0  0
 23 10  1  0  0  0  0
 25 18  1  0  0  0  0
 27  1  1  0  0  0  0
 27 25  1  0  0  0  0
 28 23  2  0  0  0  0
 29 30  2  0  0  0  0
 29 35  1  0  0  0  0
 30 31  1  0  0  0  0
 31 34  2  0  0  0  0
 33 34  1  0  0  0  0
 34 32  1  0  0  0  0
 35 33  2  0  0  0  0
 36 37  2  0  0  0  0
M  END
>  <MODEL>
7

>  <REMARK>
 VINA RESULT:      -7.5      2.233      5.337
  Name = 
  2 active torsions:
  status: ('A' for Active; 'I' for Inactive)
    1  A    between atoms: N_4  and  C_37
    2  A    between atoms: C_23  and  C_30
                            x       y       z     vdW  Elec       q    Type
                         _______ _______ _______ _____ _____    ______ ____

>  <TORSDO>
F 2

$$$$
=
 OpenBabel11112417173D

 37 44  0  0  1  0  0  0  0  0999 V2000
  190.0850  173.9460  141.9020 C   0  0  0  0  0  2  0  0  0  0  0  0
  195.0320  174.3670  142.1350 C   0  0  0  0  0  0  0  0  0  0  0  0
  192.5780  175.6970  145.2040 C   0  0  0  0  0  0  0  0  0  0  0  0
  189.4930  173.6960  140.5880 N   0  0  0  0  0  0  0  0  0  0  0  0
  189.0960  177.1430  144.1400 C   0  0  0  0  0  2  0  0  0  0  0  0
  194.8470  175.1970  144.4660 C   0  0  0  0  0  0  0  0  0  0  0  0
  191.3160  175.9880  144.4960 C   0  0  0  0  0  0  0  0  0  0  0  0
  187.5090  175.1200  141.1510 C   0  0  2  0  0  3  0  0  0  0  0  0
  193.4040  175.1770  144.3190 C   0  0  0  0  0  0  0  0  0  0  0  0
  190.2150  176.6140  145.0200 C   0  0  0  0  0  0  0  0  0  0  0  0
  195.3850  175.6150  145.5750 N   0  0  0  0  0  0  0  0  0  0  0  0
  188.4150  174.5360  140.0590 C   0  0  0  0  0  2  0  0  0  0  0  0
  192.8250  175.0320  143.0470 N   0  0  0  0  0  0  0  0  0  0  0  0
  194.8620  172.8620  142.2440 C   0  0  0  0  0  1  0  0  0  0  0  0
  192.3870  176.7710  147.4130 C   0  0  0  0  0  3  0  0  0  0  0  0
  194.5980  176.0030  146.7600 C   0  0  0  0  0  2  0  0  0  0  0  0
  193.6590  175.0170  141.8440 C   0  0  0  0  0  2  0  0  0  0  0  0
  188.0310  176.3890  141.8550 C   0  0  1  0  0  3  0  0  0  0  0  0
  188.6970  176.0780  143.1760 C   0  0  1  0  0  3  0  0  0  0  0  0
  193.1260  176.2290  146.4590 C   0  0  0  0  0  0  0  0  0  0  0  0
  191.5340  175.5600  143.1140 N   0  0  0  0  0  0  0  0  0  0  0  0
  195.6220  174.8710  143.3480 O   0  0  0  0  0  0  0  0  0  0  0  0
  190.0000  176.8710  146.4830 C   0  0  0  0  0  0  0  0  0  0  0  0
  195.9640  174.6580  140.9770 C   0  0  0  0  0  1  0  0  0  0  0  0
  189.5510  176.4820  142.0010 C   0  0  1  0  0  3  0  0  0  0  0  0
  187.0690  174.1420  142.0480 O   0  0  0  0  0  1  0  0  0  0  0  0
  190.6010  175.3850  141.9860 C   0  0  2  0  0  3  0  0  0  0  0  0
  190.9340  176.9680  147.4370 C   0  0  0  0  0  3  0  0  0  0  0  0
  187.7070  176.0110  146.9690 C   0  0  0  0  0  3  0  0  0  0  0  0
  188.6160  177.0770  146.9570 C   0  0  0  0  0  0  0  0  0  0  0  0
  188.1750  178.3420  147.3640 C   0  0  0  0  0  3  0  0  0  0  0  0
  186.2940  180.1030  148.2830 Cl  0  0  0  0  0  0  0  0  0  0  0  0
  185.9820  177.4360  147.7600 C   0  0  0  0  0  3  0  0  0  0  0  0
  186.8540  178.5270  147.7650 C   0  0  0  0  0  0  0  0  0  0  0  0
  186.4240  176.2100  147.3690 N   0  0  0  0  0  0  0  0  0  0  0  0
  190.2700  171.4200  140.3020 C   0  0  0  0  0  2  0  0  0  0  0  0
  189.9360  172.5990  139.7840 C   0  0  0  0  0  3  0  0  0  0  0  0
  1 27  1  0  0  0  0
  2 14  1  0  0  0  0
  2 22  1  0  0  0  0
  3 20  1  0  0  0  0
  4  1  1  0  0  0  0
  5 10  1  0  0  0  0
  6 11  2  0  0  0  0
  7 10  2  0  0  0  0
  7  3  1  0  0  0  0
  8 18  1  0  0  0  0
  8 26  1  1  0  0  0
  9  6  1  0  0  0  0
  9  3  2  0  0  0  0
 10 23  1  0  0  0  0
 11 16  1  0  0  0  0
 12  4  1  0  0  0  0
 12  8  1  0  0  0  0
 13 21  1  0  0  0  0
 13  9  1  0  0  0  0
 15 28  1  0  0  0  0
 17  2  1  0  0  0  0
 17 13  1  0  0  0  0
 18 25  1  0  0  0  0
 18 19  1  0  0  0  0
 19  5  1  0  0  0  0
 20 16  1  0  0  0  0
 20 15  2  0  0  0  0
 21  7  1  0  0  0  0
 22  6  1  0  0  0  0
 23 30  1  0  0  0  0
 23 28  2  0  0  0  0
 24  2  1  0  0  0  0
 25 19  1  0  0  0  0
 27 25  1  0  0  0  0
 27 21  1  0  0  0  0
 29 35  1  0  0  0  0
 30 29  2  0  0  0  0
 30 31  1  0  0  0  0
 31 34  2  0  0  0  0
 33 34  1  0  0  0  0
 34 32  1  0  0  0  0
 35 33  2  0  0  0  0
 37 36  2  0  0  0  0
 37  4  1  0  0  0  0
M  END
>  <MODEL>
8

>  <REMARK>
 VINA RESULT:      -7.3      1.651      1.878
  Name = 
  2 active torsions:
  status: ('A' for Active; 'I' for Inactive)
    1  A    between atoms: N_4  and  C_37
    2  A    between atoms: C_23  and  C_30
                            x       y       z     vdW  Elec       q    Type
                         _______ _______ _______ _____ _____    ______ ____

>  <TORSDO>
F 2

$$$$
=
 OpenBabel11112417173D

 37 44  0  0  1  0  0  0  0  0999 V2000
  193.7070  174.7210  143.7050 C   0  0  0  0  0  2  0  0  0  0  0  0
  194.1030  170.3480  141.3740 C   0  0  0  0  0  0  0  0  0  0  0  0
  190.7430  172.7480  140.9640 C   0  0  0  0  0  0  0  0  0  0  0  0
  194.6160  174.9700  144.8240 N   0  0  0  0  0  0  0  0  0  0  0  0
  189.7030  174.8320  144.1140 C   0  0  0  0  0  2  0  0  0  0  0  0
  191.9800  170.8040  140.1700 C   0  0  0  0  0  0  0  0  0  0  0  0
  190.7450  173.5130  142.2260 C   0  0  0  0  0  0  0  0  0  0  0  0
  192.8340  176.2280  146.0600 C   0  0  2  0  0  3  0  0  0  0  0  0
  191.8370  172.0130  140.9580 C   0  0  0  0  0  0  0  0  0  0  0  0
  189.7490  174.3390  142.6790 C   0  0  0  0  0  0  0  0  0  0  0  0
  191.0630  170.4710  139.3100 N   0  0  0  0  0  0  0  0  0  0  0  0
  194.1200  175.3920  146.1370 C   0  0  0  0  0  2  0  0  0  0  0  0
  192.6420  172.2180  142.0920 N   0  0  0  0  0  0  0  0  0  0  0  0
  195.1490  171.1670  140.6390 C   0  0  0  0  0  1  0  0  0  0  0  0
  188.5110  173.0700  139.9720 C   0  0  0  0  0  3  0  0  0  0  0  0
  189.8880  171.3130  139.0130 C   0  0  0  0  0  2  0  0  0  0  0  0
  193.5510  171.1710  142.5620 C   0  0  0  0  0  2  0  0  0  0  0  0
  191.5200  175.4330  145.9190 C   0  0  1  0  0  3  0  0  0  0  0  0
  191.0470  175.3610  144.4860 C   0  0  1  0  0  3  0  0  0  0  0  0
  189.6490  172.4000  140.0480 C   0  0  0  0  0  0  0  0  0  0  0  0
  191.9730  173.1230  142.9200 N   0  0  0  0  0  0  0  0  0  0  0  0
  193.0630  169.9640  140.4540 O   0  0  0  0  0  0  0  0  0  0  0  0
  188.6010  174.8230  141.8420 C   0  0  0  0  0  0  0  0  0  0  0  0
  194.7680  169.1010  141.9140 C   0  0  0  0  0  1  0  0  0  0  0  0
  191.6230  174.1260  145.1310 C   0  0  1  0  0  3  0  0  0  0  0  0
  192.9400  177.2730  145.1390 O   0  0  0  0  0  1  0  0  0  0  0  0
  192.6500  173.6860  144.1020 C   0  0  2  0  0  3  0  0  0  0  0  0
  188.0930  174.2430  140.7460 C   0  0  0  0  0  3  0  0  0  0  0  0
  188.2010  177.2780  141.6380 C   0  0  0  0  0  3  0  0  0  0  0  0
  187.9070  176.0580  142.2600 C   0  0  0  0  0  0  0  0  0  0  0  0
  186.9750  176.0410  143.3050 C   0  0  0  0  0  3  0  0  0  0  0  0
  185.1920  177.2130  145.0170 Cl  0  0  0  0  0  0  0  0  0  0  0  0
  186.6880  178.4180  143.0690 C   0  0  0  0  0  3  0  0  0  0  0  0
  186.3630  177.2240  143.7160 C   0  0  0  0  0  0  0  0  0  0  0  0
  187.5900  178.4200  142.0500 N   0  0  0  0  0  0  0  0  0  0  0  0
  196.7890  174.1640  145.5250 C   0  0  0  0  0  2  0  0  0  0  0  0
  196.0300  174.8330  144.6600 C   0  0  0  0  0  3  0  0  0  0  0  0
  1 27  1  0  0  0  0
  1  4  1  0  0  0  0
  2 24  1  0  0  0  0
  2 17  1  0  0  0  0
  3  7  1  0  0  0  0
  4 12  1  0  0  0  0
  5 19  1  0  0  0  0
  6 22  1  0  0  0  0
  6  9  1  0  0  0  0
  7 10  2  0  0  0  0
  7 21  1  0  0  0  0
  8 26  1  6  0  0  0
  8 12  1  0  0  0  0
  9  3  2  0  0  0  0
  9 13  1  0  0  0  0
 10  5  1  0  0  0  0
 11  6  2  0  0  0  0
 13 17  1  0  0  0  0
 13 21  1  0  0  0  0
 14  2  1  0  0  0  0
 15 20  2  0  0  0  0
 15 28  1  0  0  0  0
 16 11  1  0  0  0  0
 16 20  1  0  0  0  0
 18  8  1  0  0  0  0
 19 25  1  0  0  0  0
 19 18  1  0  0  0  0
 20  3  1  0  0  0  0
 21 27  1  0  0  0  0
 22  2  1  0  0  0  0
 23 30  1  0  0  0  0
 23 10  1  0  0  0  0
 25 18  1  0  0  0  0
 27 25  1  0  0  0  0
 28 23  2  0  0  0  0
 29 35  2  0  0  0  0
 29 30  1  0  0  0  0
 30 31  2  0  0  0  0
 31 34  1  0  0  0  0
 33 34  2  0  0  0  0
 34 32  1  0  0  0  0
 35 33  1  0  0  0  0
 37  4  1  0  0  0  0
 37 36  2  0  0  0  0
M  END
>  <MODEL>
9

>  <REMARK>
 VINA RESULT:      -7.2      2.317      5.631
  Name = 
  2 active torsions:
  status: ('A' for Active; 'I' for Inactive)
    1  A    between atoms: N_4  and  C_37
    2  A    between atoms: C_23  and  C_30
                            x       y       z     vdW  Elec       q    Type
                         _______ _______ _______ _____ _____    ______ ____

>  <TORSDO>
F 2

$$$$
