=
 OpenBabel11112417223D

 37 42  0  0  1  0  0  0  0  0999 V2000
  194.9510  175.5110  142.4160 C   0  0  0  0  0  0  0  0  0  0  0  0
  192.0320  176.0960  145.3010 C   0  0  0  0  0  0  0  0  0  0  0  0
  189.6520  173.7680  145.6200 C   0  0  0  0  0  2  0  0  0  0  0  0
  194.3530  176.4110  144.7250 C   0  0  0  0  0  0  0  0  0  0  0  0
  190.9020  175.7080  144.5970 C   0  0  0  0  0  0  0  0  0  0  0  0
  193.0410  176.1570  144.3990 C   0  0  0  0  0  0  0  0  0  0  0  0
  189.6110  175.2430  145.2230 C   0  0  2  0  0  3  0  0  0  0  0  0
  194.6420  176.6720  146.0780 C   0  0  0  0  0  3  0  0  0  0  0  0
  192.5680  175.7780  143.1890 C   0  0  0  0  0  0  0  0  0  0  0  0
  195.2020  174.0550  142.7780 C   0  0  0  0  0  1  0  0  0  0  0  0
  191.1740  176.2410  147.6660 C   0  0  0  0  0  2  0  0  0  0  0  0
  193.6000  176.6270  147.0430 C   0  0  0  0  0  3  0  0  0  0  0  0
  193.4660  175.6810  141.9900 C   0  0  0  0  0  2  0  0  0  0  0  0
  189.4400  172.8490  143.2330 C   0  0  1  0  0  3  0  0  0  0  0  0
  190.2630  172.8850  144.5250 C   0  0  0  0  0  2  0  0  0  0  0  0
  192.2720  176.3290  146.6570 C   0  0  0  0  0  0  0  0  0  0  0  0
  191.2510  175.4780  143.2910 N   0  0  0  0  0  0  0  0  0  0  0  0
  195.3700  176.4150  143.6130 C   0  0  0  0  0  2  0  0  0  0  0  0
  189.0020  176.1220  146.3350 C   0  0  1  0  0  3  0  0  0  0  0  0
  195.8280  175.8540  141.2310 C   0  0  0  0  0  1  0  0  0  0  0  0
  189.1760  174.2220  142.5950 C   0  0  0  0  0  2  0  0  0  0  0  0
  190.4300  174.9980  142.1720 C   0  0  0  0  0  2  0  0  0  0  0  0
  189.9520  176.9990  147.1650 C   0  0  0  0  0  2  0  0  0  0  0  0
  190.9790  170.2450  140.0520 O   0  0  0  0  0  0  0  0  0  0  0  0
  190.2270  171.2230  139.8010 C   0  0  0  0  0  0  0  0  0  0  0  0
  190.0250  171.8880  142.2480 C   0  0  0  0  0  0  0  0  0  0  0  0
  189.7330  172.0570  140.8580 N   0  0  0  0  0  2  0  0  0  0  0  0
  190.7770  170.9550  142.6440 O   0  0  0  0  0  0  0  0  0  0  0  0
  189.0050  172.6050  138.0870 C   0  0  0  0  0  1  0  0  0  0  0  0
  189.8680  171.4940  138.4470 N   0  0  0  0  0  2  0  0  0  0  0  0
  187.9650  177.4630  144.5020 C   0  0  0  0  0  3  0  0  0  0  0  0
  187.8750  176.9400  145.7940 C   0  0  0  0  0  0  0  0  0  0  0  0
  186.7350  177.1980  146.5660 C   0  0  0  0  0  3  0  0  0  0  0  0
  184.4910  178.2580  146.8370 C   0  0  0  0  0  1  0  0  0  0  0  0
  185.8150  178.4730  144.7680 N   0  0  0  0  0  0  0  0  0  0  0  0
  185.7060  177.9750  146.0290 C   0  0  0  0  0  0  0  0  0  0  0  0
  186.9140  178.2360  144.0010 C   0  0  0  0  0  3  0  0  0  0  0  0
  1 10  1  0  0  0  0
  1 18  1  0  0  0  0
  2 16  1  0  0  0  0
  4  8  2  0  0  0  0
  5  7  1  0  0  0  0
  5  2  2  0  0  0  0
  6  4  1  0  0  0  0
  6  2  1  0  0  0  0
  7  3  1  1  0  0  0
  7 19  1  0  0  0  0
  8 12  1  0  0  0  0
  9 17  1  0  0  0  0
  9  6  2  0  0  0  0
 13  1  1  0  0  0  0
 13  9  1  0  0  0  0
 14 26  1  6  0  0  0
 14 15  1  0  0  0  0
 15  3  1  0  0  0  0
 16 12  2  0  0  0  0
 16 11  1  0  0  0  0
 17  5  1  0  0  0  0
 18  4  1  0  0  0  0
 19 32  1  6  0  0  0
 19 23  1  0  0  0  0
 20  1  1  0  0  0  0
 21 14  1  0  0  0  0
 22 21  1  0  0  0  0
 22 17  1  0  0  0  0
 23 11  1  0  0  0  0
 25 24  2  0  0  0  0
 25 27  1  0  0  0  0
 26 28  2  0  0  0  0
 27 26  1  0  0  0  0
 29 30  1  0  0  0  0
 30 25  1  0  0  0  0
 31 32  1  0  0  0  0
 32 33  2  0  0  0  0
 35 36  2  0  0  0  0
 36 33  1  0  0  0  0
 36 34  1  0  0  0  0
 37 31  2  0  0  0  0
 37 35  1  0  0  0  0
M  END
>  <MODEL>
1

>  <REMARK>
 VINA RESULT:     -10.4      0.000      0.000
  Name = 
  2 active torsions:
  status: ('A' for Active; 'I' for Inactive)
    1  A    between atoms: C_8  and  C_18
    2  A    between atoms: C_23  and  C_30
                            x       y       z     vdW  Elec       q    Type
                         _______ _______ _______ _____ _____    ______ ____

>  <TORSDO>
F 2

$$$$
=
 OpenBabel11112417223D

 37 42  0  0  1  0  0  0  0  0999 V2000
  194.8200  175.4710  142.2060 C   0  0  0  0  0  0  0  0  0  0  0  0
  192.0920  176.1550  145.2520 C   0  0  0  0  0  0  0  0  0  0  0  0
  189.6910  173.8800  145.7480 C   0  0  0  0  0  2  0  0  0  0  0  0
  194.3790  176.4160  144.5320 C   0  0  0  0  0  0  0  0  0  0  0  0
  190.9140  175.7800  144.6230 C   0  0  0  0  0  0  0  0  0  0  0  0
  193.0460  176.1840  144.2900 C   0  0  0  0  0  0  0  0  0  0  0  0
  189.6550  175.3500  145.3320 C   0  0  2  0  0  3  0  0  0  0  0  0
  194.7540  176.6900  145.8610 C   0  0  0  0  0  3  0  0  0  0  0  0
  192.4930  175.7980  143.1160 C   0  0  0  0  0  0  0  0  0  0  0  0
  195.0640  174.0170  142.5740 C   0  0  0  0  0  1  0  0  0  0  0  0
  191.3810  176.3500  147.6610 C   0  0  0  0  0  2  0  0  0  0  0  0
  193.7720  176.6790  146.8880 C   0  0  0  0  0  3  0  0  0  0  0  0
  193.3150  175.6660  141.8670 C   0  0  0  0  0  2  0  0  0  0  0  0
  189.3190  172.9320  143.3920 C   0  0  1  0  0  3  0  0  0  0  0  0
  190.2180  172.9700  144.6320 C   0  0  0  0  0  2  0  0  0  0  0  0
  192.4180  176.4020  146.5870 C   0  0  0  0  0  0  0  0  0  0  0  0
  191.1800  175.5260  143.3010 N   0  0  0  0  0  0  0  0  0  0  0  0
  195.3280  176.3840  143.3620 C   0  0  0  0  0  2  0  0  0  0  0  0
  189.1300  176.2560  146.4650 C   0  0  1  0  0  3  0  0  0  0  0  0
  195.6300  175.7810  140.9650 C   0  0  0  0  0  1  0  0  0  0  0  0
  189.0420  174.3020  142.7500 C   0  0  0  0  0  2  0  0  0  0  0  0
  190.2830  175.0460  142.2410 C   0  0  0  0  0  2  0  0  0  0  0  0
  190.1450  177.1250  147.2230 C   0  0  0  0  0  2  0  0  0  0  0  0
  191.0390  169.8890  140.7370 O   0  0  0  0  0  0  0  0  0  0  0  0
  191.4200  170.0190  141.9300 C   0  0  0  0  0  0  0  0  0  0  0  0
  189.8240  171.9460  142.3880 C   0  0  0  0  0  0  0  0  0  0  0  0
  190.8460  171.0230  142.7780 N   0  0  0  0  0  2  0  0  0  0  0  0
  189.3390  171.9230  141.2240 O   0  0  0  0  0  0  0  0  0  0  0  0
  192.9200  169.2450  143.8000 C   0  0  0  0  0  1  0  0  0  0  0  0
  192.4350  169.1510  142.4340 N   0  0  0  0  0  2  0  0  0  0  0  0
  187.9600  177.5040  144.6470 C   0  0  0  0  0  3  0  0  0  0  0  0
  187.9890  177.0890  145.9800 C   0  0  0  0  0  0  0  0  0  0  0  0
  186.9540  177.4680  146.8450 C   0  0  0  0  0  3  0  0  0  0  0  0
  184.8040  178.6660  147.2620 C   0  0  0  0  0  1  0  0  0  0  0  0
  185.9000  178.6460  145.0540 N   0  0  0  0  0  0  0  0  0  0  0  0
  185.9090  178.2550  146.3570 C   0  0  0  0  0  0  0  0  0  0  0  0
  186.8960  178.2910  144.1970 C   0  0  0  0  0  3  0  0  0  0  0  0
  1 10  1  0  0  0  0
  1 18  1  0  0  0  0
  2 16  1  0  0  0  0
  4  8  2  0  0  0  0
  5  2  2  0  0  0  0
  5  7  1  0  0  0  0
  6  4  1  0  0  0  0
  6  2  1  0  0  0  0
  7  3  1  1  0  0  0
  7 19  1  0  0  0  0
  8 12  1  0  0  0  0
  9 17  1  0  0  0  0
  9  6  2  0  0  0  0
 13  1  1  0  0  0  0
 13  9  1  0  0  0  0
 14 26  1  6  0  0  0
 14 15  1  0  0  0  0
 15  3  1  0  0  0  0
 16 12  2  0  0  0  0
 16 11  1  0  0  0  0
 17  5  1  0  0  0  0
 18  4  1  0  0  0  0
 19 32  1  6  0  0  0
 19 23  1  0  0  0  0
 20  1  1  0  0  0  0
 21 14  1  0  0  0  0
 22 21  1  0  0  0  0
 22 17  1  0  0  0  0
 23 11  1  0  0  0  0
 24 25  2  0  0  0  0
 25 30  1  0  0  0  0
 25 27  1  0  0  0  0
 26 27  1  0  0  0  0
 28 26  2  0  0  0  0
 30 29  1  0  0  0  0
 31 32  1  0  0  0  0
 32 33  2  0  0  0  0
 35 36  2  0  0  0  0
 36 33  1  0  0  0  0
 36 34  1  0  0  0  0
 37 31  2  0  0  0  0
 37 35  1  0  0  0  0
M  END
>  <MODEL>
2

>  <REMARK>
 VINA RESULT:     -10.3      1.279      1.711
  Name = 
  2 active torsions:
  status: ('A' for Active; 'I' for Inactive)
    1  A    between atoms: C_8  and  C_18
    2  A    between atoms: C_23  and  C_30
                            x       y       z     vdW  Elec       q    Type
                         _______ _______ _______ _____ _____    ______ ____

>  <TORSDO>
F 2

$$$$
=
 OpenBabel11112417223D

 37 42  0  0  1  0  0  0  0  0999 V2000
  194.8670  175.5750  142.4110 C   0  0  0  0  0  0  0  0  0  0  0  0
  192.0120  176.1710  145.3580 C   0  0  0  0  0  0  0  0  0  0  0  0
  189.5430  173.9310  145.6250 C   0  0  0  0  0  2  0  0  0  0  0  0
  194.3360  176.4120  144.7600 C   0  0  0  0  0  0  0  0  0  0  0  0
  190.8580  175.8560  144.6560 C   0  0  0  0  0  0  0  0  0  0  0  0
  193.0110  176.2240  144.4440 C   0  0  0  0  0  0  0  0  0  0  0  0
  189.5570  175.4210  145.2830 C   0  0  2  0  0  3  0  0  0  0  0  0
  194.6530  176.6110  146.1170 C   0  0  0  0  0  3  0  0  0  0  0  0
  192.5070  175.9100  143.2280 C   0  0  0  0  0  0  0  0  0  0  0  0
  195.0620  174.0980  142.7160 C   0  0  0  0  0  1  0  0  0  0  0  0
  191.1920  176.2620  147.7380 C   0  0  0  0  0  2  0  0  0  0  0  0
  193.6230  176.5720  147.0950 C   0  0  0  0  0  3  0  0  0  0  0  0
  193.3850  175.8210  142.0130 C   0  0  0  0  0  2  0  0  0  0  0  0
  189.2620  173.1110  143.2100 C   0  0  1  0  0  3  0  0  0  0  0  0
  190.1030  173.0660  144.4900 C   0  0  0  0  0  2  0  0  0  0  0  0
  192.2790  176.3430  146.7170 C   0  0  0  0  0  0  0  0  0  0  0  0
  191.1810  175.6610  143.3370 N   0  0  0  0  0  0  0  0  0  0  0  0
  195.3390  176.4160  143.6350 C   0  0  0  0  0  2  0  0  0  0  0  0
  188.9990  176.2820  146.4350 C   0  0  1  0  0  3  0  0  0  0  0  0
  195.7420  175.9270  141.2270 C   0  0  0  0  0  1  0  0  0  0  0  0
  189.0460  174.5170  142.6260 C   0  0  0  0  0  2  0  0  0  0  0  0
  190.3260  175.2560  142.2140 C   0  0  0  0  0  2  0  0  0  0  0  0
  189.9950  177.0870  147.2830 C   0  0  0  0  0  2  0  0  0  0  0  0
  190.6420  170.5610  139.9140 O   0  0  0  0  0  0  0  0  0  0  0  0
  189.9030  171.5600  139.7120 C   0  0  0  0  0  0  0  0  0  0  0  0
  189.7940  172.1640  142.1820 C   0  0  0  0  0  0  0  0  0  0  0  0
  189.4620  172.3770  140.8060 N   0  0  0  0  0  2  0  0  0  0  0  0
  190.5370  171.2060  142.5280 O   0  0  0  0  0  0  0  0  0  0  0  0
  188.6580  173.0140  138.0750 C   0  0  0  0  0  1  0  0  0  0  0  0
  189.5070  171.8750  138.3780 N   0  0  0  0  0  2  0  0  0  0  0  0
  186.9740  177.6820  146.8490 C   0  0  0  0  0  3  0  0  0  0  0  0
  187.9000  177.1640  145.9400 C   0  0  0  0  0  0  0  0  0  0  0  0
  187.7770  177.4700  144.5790 C   0  0  0  0  0  3  0  0  0  0  0  0
  186.5880  178.6240  142.7130 C   0  0  0  0  0  1  0  0  0  0  0  0
  185.8420  178.7860  145.0570 N   0  0  0  0  0  0  0  0  0  0  0  0
  186.7300  178.2910  144.1540 C   0  0  0  0  0  0  0  0  0  0  0  0
  185.9410  178.5000  146.3840 C   0  0  0  0  0  3  0  0  0  0  0  0
  1 10  1  0  0  0  0
  1 18  1  0  0  0  0
  2 16  1  0  0  0  0
  4  8  2  0  0  0  0
  5  7  1  0  0  0  0
  5  2  2  0  0  0  0
  6  4  1  0  0  0  0
  6  2  1  0  0  0  0
  7  3  1  1  0  0  0
  7 19  1  0  0  0  0
  8 12  1  0  0  0  0
  9 17  1  0  0  0  0
  9  6  2  0  0  0  0
 13  1  1  0  0  0  0
 13  9  1  0  0  0  0
 14 26  1  6  0  0  0
 14 15  1  0  0  0  0
 15  3  1  0  0  0  0
 16 12  2  0  0  0  0
 16 11  1  0  0  0  0
 17  5  1  0  0  0  0
 18  4  1  0  0  0  0
 19 32  1  6  0  0  0
 19 23  1  0  0  0  0
 20  1  1  0  0  0  0
 21 14  1  0  0  0  0
 22 21  1  0  0  0  0
 22 17  1  0  0  0  0
 23 11  1  0  0  0  0
 25 24  2  0  0  0  0
 25 27  1  0  0  0  0
 26 28  2  0  0  0  0
 27 26  1  0  0  0  0
 29 30  1  0  0  0  0
 30 25  1  0  0  0  0
 32 31  2  0  0  0  0
 33 32  1  0  0  0  0
 34 36  1  0  0  0  0
 35 37  2  0  0  0  0
 36 33  2  0  0  0  0
 36 35  1  0  0  0  0
 37 31  1  0  0  0  0
M  END
>  <MODEL>
3

>  <REMARK>
 VINA RESULT:     -10.3      0.393      1.127
  Name = 
  2 active torsions:
  status: ('A' for Active; 'I' for Inactive)
    1  A    between atoms: C_8  and  C_18
    2  A    between atoms: C_23  and  C_30
                            x       y       z     vdW  Elec       q    Type
                         _______ _______ _______ _____ _____    ______ ____

>  <TORSDO>
F 2

$$$$
=
 OpenBabel11112417223D

 37 42  0  0  1  0  0  0  0  0999 V2000
  190.5360  171.8900  142.0900 C   0  0  0  0  0  0  0  0  0  0  0  0
  188.3320  175.3980  141.9160 C   0  0  0  0  0  0  0  0  0  0  0  0
  189.6530  178.1490  143.2830 C   0  0  0  0  0  2  0  0  0  0  0  0
  188.9030  173.3460  140.7820 C   0  0  0  0  0  0  0  0  0  0  0  0
  188.5370  175.8870  143.1970 C   0  0  0  0  0  0  0  0  0  0  0  0
  188.8270  174.1360  141.9060 C   0  0  0  0  0  0  0  0  0  0  0  0
  188.4010  177.3330  143.6030 C   0  0  2  0  0  3  0  0  0  0  0  0
  188.3830  173.8760  139.5860 C   0  0  0  0  0  3  0  0  0  0  0  0
  189.3600  173.8670  143.1200 C   0  0  0  0  0  0  0  0  0  0  0  0
  191.8420  172.5360  141.6560 C   0  0  0  0  0  1  0  0  0  0  0  0
  187.2960  177.3710  140.7420 C   0  0  0  0  0  2  0  0  0  0  0  0
  187.8460  175.1920  139.5720 C   0  0  0  0  0  3  0  0  0  0  0  0
  190.0470  172.5630  143.4040 C   0  0  0  0  0  2  0  0  0  0  0  0
  191.0790  177.2000  145.1940 C   0  0  1  0  0  3  0  0  0  0  0  0
  190.9420  177.4230  143.6840 C   0  0  0  0  0  2  0  0  0  0  0  0
  187.8220  175.9740  140.7510 C   0  0  0  0  0  0  0  0  0  0  0  0
  189.2080  174.9410  143.9300 N   0  0  0  0  0  0  0  0  0  0  0  0
  189.5100  171.9740  140.9210 C   0  0  0  0  0  2  0  0  0  0  0  0
  187.1110  178.0700  143.1880 C   0  0  1  0  0  3  0  0  0  0  0  0
  190.8100  170.4290  142.3780 C   0  0  0  0  0  1  0  0  0  0  0  0
  189.9190  176.4270  145.8430 C   0  0  0  0  0  2  0  0  0  0  0  0
  189.7050  175.0050  145.3110 C   0  0  0  0  0  2  0  0  0  0  0  0
  186.3710  177.5820  141.9330 C   0  0  0  0  0  2  0  0  0  0  0  0
  195.0650  175.4620  145.7980 O   0  0  0  0  0  0  0  0  0  0  0  0
  194.6710  175.8370  144.6620 C   0  0  0  0  0  0  0  0  0  0  0  0
  192.4020  176.5910  145.5310 C   0  0  0  0  0  0  0  0  0  0  0  0
  193.3630  176.3990  144.4890 N   0  0  0  0  0  2  0  0  0  0  0  0
  192.6660  176.2710  146.7230 O   0  0  0  0  0  0  0  0  0  0  0  0
  195.1560  176.1120  142.2060 C   0  0  0  0  0  1  0  0  0  0  0  0
  195.5450  175.6980  143.5430 N   0  0  0  0  0  2  0  0  0  0  0  0
  184.9200  178.7610  144.1660 C   0  0  0  0  0  3  0  0  0  0  0  0
  186.1710  178.1660  144.3450 C   0  0  0  0  0  0  0  0  0  0  0  0
  186.5300  177.6800  145.6090 C   0  0  0  0  0  3  0  0  0  0  0  0
  185.9940  177.2850  148.0150 C   0  0  0  0  0  1  0  0  0  0  0  0
  184.4150  178.3780  146.4700 N   0  0  0  0  0  0  0  0  0  0  0  0
  185.6280  177.7970  146.6690 C   0  0  0  0  0  0  0  0  0  0  0  0
  184.0460  178.8590  145.2510 C   0  0  0  0  0  3  0  0  0  0  0  0
  1 20  1  0  0  0  0
  1 13  1  0  0  0  0
  2  5  2  0  0  0  0
  3 15  1  0  0  0  0
  4 18  1  0  0  0  0
  4  6  1  0  0  0  0
  5  7  1  0  0  0  0
  5 17  1  0  0  0  0
  6  2  1  0  0  0  0
  6  9  2  0  0  0  0
  7  3  1  6  0  0  0
  8  4  2  0  0  0  0
  9 13  1  0  0  0  0
  9 17  1  0  0  0  0
 10  1  1  0  0  0  0
 11 16  1  0  0  0  0
 11 23  1  0  0  0  0
 12  8  1  0  0  0  0
 12 16  2  0  0  0  0
 14 26  1  6  0  0  0
 14 21  1  0  0  0  0
 15 14  1  0  0  0  0
 16  2  1  0  0  0  0
 17 22  1  0  0  0  0
 18  1  1  0  0  0  0
 19  7  1  0  0  0  0
 19 32  1  1  0  0  0
 22 21  1  0  0  0  0
 23 19  1  0  0  0  0
 25 24  2  0  0  0  0
 26 28  2  0  0  0  0
 27 25  1  0  0  0  0
 27 26  1  0  0  0  0
 29 30  1  0  0  0  0
 30 25  1  0  0  0  0
 31 32  2  0  0  0  0
 31 37  1  0  0  0  0
 32 33  1  0  0  0  0
 33 36  2  0  0  0  0
 35 36  1  0  0  0  0
 36 34  1  0  0  0  0
 37 35  2  0  0  0  0
M  END
>  <MODEL>
4

>  <REMARK>
 VINA RESULT:     -10.1      2.626      5.794
  Name = 
  2 active torsions:
  status: ('A' for Active; 'I' for Inactive)
    1  A    between atoms: C_8  and  C_18
    2  A    between atoms: C_23  and  C_30
                            x       y       z     vdW  Elec       q    Type
                         _______ _______ _______ _____ _____    ______ ____

>  <TORSDO>
F 2

$$$$
=
 OpenBabel11112417223D

 37 42  0  0  1  0  0  0  0  0999 V2000
  191.6460  171.1780  142.3920 C   0  0  0  0  0  0  0  0  0  0  0  0
  189.1770  174.5080  142.3060 C   0  0  0  0  0  0  0  0  0  0  0  0
  190.4810  177.4510  143.2110 C   0  0  0  0  0  2  0  0  0  0  0  0
  189.7160  172.4020  141.2600 C   0  0  0  0  0  0  0  0  0  0  0  0
  189.5450  175.1240  143.4920 C   0  0  0  0  0  0  0  0  0  0  0  0
  189.7600  173.2850  142.3140 C   0  0  0  0  0  0  0  0  0  0  0  0
  189.3630  176.5890  143.7970 C   0  0  2  0  0  3  0  0  0  0  0  0
  188.9720  172.7860  140.1280 C   0  0  0  0  0  3  0  0  0  0  0  0
  190.4990  173.1620  143.4410 C   0  0  0  0  0  0  0  0  0  0  0  0
  192.8110  171.8630  141.6970 C   0  0  0  0  0  1  0  0  0  0  0  0
  187.8160  176.2960  141.1660 C   0  0  0  0  0  2  0  0  0  0  0  0
  188.3400  174.0580  140.0990 C   0  0  0  0  0  3  0  0  0  0  0  0
  191.3220  171.9360  143.7100 C   0  0  0  0  0  2  0  0  0  0  0  0
  192.2630  176.7730  144.9280 C   0  0  1  0  0  3  0  0  0  0  0  0
  191.8700  176.8480  143.4490 C   0  0  0  0  0  2  0  0  0  0  0  0
  188.4440  174.9410  141.1990 C   0  0  0  0  0  0  0  0  0  0  0  0
  190.3960  174.2940  144.1760 N   0  0  0  0  0  0  0  0  0  0  0  0
  190.4420  171.0900  141.4060 C   0  0  0  0  0  2  0  0  0  0  0  0
  187.9710  177.2020  143.5450 C   0  0  1  0  0  3  0  0  0  0  0  0
  192.0740  169.7700  142.7450 C   0  0  0  0  0  1  0  0  0  0  0  0
  191.2850  175.9910  145.8200 C   0  0  0  0  0  2  0  0  0  0  0  0
  191.1000  174.5150  145.4460 C   0  0  0  0  0  2  0  0  0  0  0  0
  187.0800  176.5550  142.4730 C   0  0  0  0  0  2  0  0  0  0  0  0
  196.4410  175.4280  145.0130 O   0  0  0  0  0  0  0  0  0  0  0  0
  195.9050  175.8570  143.9570 C   0  0  0  0  0  0  0  0  0  0  0  0
  193.6670  176.2830  145.0890 C   0  0  0  0  0  0  0  0  0  0  0  0
  194.5370  176.2880  143.9530 N   0  0  0  0  0  2  0  0  0  0  0  0
  194.0740  175.8900  146.2160 O   0  0  0  0  0  0  0  0  0  0  0  0
  196.1220  176.3960  141.5070 C   0  0  0  0  0  1  0  0  0  0  0  0
  196.6770  175.9110  142.7590 N   0  0  0  0  0  2  0  0  0  0  0  0
  187.7950  176.8690  146.0130 C   0  0  0  0  0  3  0  0  0  0  0  0
  187.2230  177.3440  144.8310 C   0  0  0  0  0  0  0  0  0  0  0  0
  185.9530  177.9350  144.8660 C   0  0  0  0  0  3  0  0  0  0  0  0
  183.9340  178.6650  146.1380 C   0  0  0  0  0  1  0  0  0  0  0  0
  185.8580  177.5740  147.2240 N   0  0  0  0  0  0  0  0  0  0  0  0
  185.2810  178.0410  146.0850 C   0  0  0  0  0  0  0  0  0  0  0  0
  187.0900  176.9950  147.2130 C   0  0  0  0  0  3  0  0  0  0  0  0
  1 20  1  0  0  0  0
  1 13  1  0  0  0  0
  2  6  1  0  0  0  0
  2  5  2  0  0  0  0
  3 15  1  0  0  0  0
  4 18  1  0  0  0  0
  4  6  1  0  0  0  0
  5  7  1  0  0  0  0
  5 17  1  0  0  0  0
  6  9  2  0  0  0  0
  7  3  1  6  0  0  0
  8  4  2  0  0  0  0
  9 13  1  0  0  0  0
  9 17  1  0  0  0  0
 10  1  1  0  0  0  0
 11 16  1  0  0  0  0
 11 23  1  0  0  0  0
 12  8  1  0  0  0  0
 12 16  2  0  0  0  0
 14 26  1  6  0  0  0
 14 21  1  0  0  0  0
 15 14  1  0  0  0  0
 16  2  1  0  0  0  0
 17 22  1  0  0  0  0
 18  1  1  0  0  0  0
 19  7  1  0  0  0  0
 19 32  1  1  0  0  0
 22 21  1  0  0  0  0
 23 19  1  0  0  0  0
 25 24  2  0  0  0  0
 26 28  2  0  0  0  0
 27 25  1  0  0  0  0
 27 26  1  0  0  0  0
 29 30  1  0  0  0  0
 30 25  1  0  0  0  0
 31 37  1  0  0  0  0
 32 33  1  0  0  0  0
 32 31  2  0  0  0  0
 33 36  2  0  0  0  0
 36 34  1  0  0  0  0
 36 35  1  0  0  0  0
 37 35  2  0  0  0  0
M  END
>  <MODEL>
5

>  <REMARK>
 VINA RESULT:      -9.8      2.629      5.622
  Name = 
  2 active torsions:
  status: ('A' for Active; 'I' for Inactive)
    1  A    between atoms: C_8  and  C_18
    2  A    between atoms: C_23  and  C_30
                            x       y       z     vdW  Elec       q    Type
                         _______ _______ _______ _____ _____    ______ ____

>  <TORSDO>
F 2

$$$$
=
 OpenBabel11112417223D

 37 42  0  0  1  0  0  0  0  0999 V2000
  195.2840  175.5600  143.9880 C   0  0  0  0  0  0  0  0  0  0  0  0
  191.4690  176.2710  145.4470 C   0  0  0  0  0  0  0  0  0  0  0  0
  189.0920  174.0110  144.7900 C   0  0  0  0  0  2  0  0  0  0  0  0
  193.8340  176.5150  145.8550 C   0  0  0  0  0  0  0  0  0  0  0  0
  190.7080  175.9010  144.3490 C   0  0  0  0  0  0  0  0  0  0  0  0
  192.7580  176.2900  145.0280 C   0  0  0  0  0  0  0  0  0  0  0  0
  189.2600  175.4810  144.4030 C   0  0  2  0  0  3  0  0  0  0  0  0
  193.5610  176.7920  147.2080 C   0  0  0  0  0  3  0  0  0  0  0  0
  192.8010  175.9030  143.7320 C   0  0  0  0  0  0  0  0  0  0  0  0
  195.3220  174.1050  144.4280 C   0  0  0  0  0  1  0  0  0  0  0  0
  189.7360  176.4790  147.2630 C   0  0  0  0  0  2  0  0  0  0  0  0
  192.2170  176.7910  147.6700 C   0  0  0  0  0  3  0  0  0  0  0  0
  194.1030  175.7610  142.9980 C   0  0  0  0  0  2  0  0  0  0  0  0
  189.8330  173.0580  142.5260 C   0  0  1  0  0  3  0  0  0  0  0  0
  190.0650  173.0950  144.0390 C   0  0  0  0  0  2  0  0  0  0  0  0
  191.1490  176.5210  146.7830 C   0  0  0  0  0  0  0  0  0  0  0  0
  191.5470  175.6390  143.2960 N   0  0  0  0  0  0  0  0  0  0  0  0
  195.2130  176.4730  145.2480 C   0  0  0  0  0  2  0  0  0  0  0  0
  188.2820  176.3940  145.1690 C   0  0  1  0  0  3  0  0  0  0  0  0
  196.5750  175.8600  143.2560 C   0  0  0  0  0  1  0  0  0  0  0  0
  189.8910  174.4260  141.8270 C   0  0  0  0  0  2  0  0  0  0  0  0
  191.2320  175.1610  141.9430 C   0  0  0  0  0  2  0  0  0  0  0  0
  188.8430  177.2590  146.3080 C   0  0  0  0  0  2  0  0  0  0  0  0
  192.6150  170.0470  140.9550 O   0  0  0  0  0  0  0  0  0  0  0  0
  192.5500  170.3110  142.1850 C   0  0  0  0  0  0  0  0  0  0  0  0
  190.7350  172.0640  141.8650 C   0  0  0  0  0  0  0  0  0  0  0  0
  191.6350  171.3020  142.6740 N   0  0  0  0  0  2  0  0  0  0  0  0
  190.6830  171.8950  140.6160 O   0  0  0  0  0  0  0  0  0  0  0  0
  193.3760  169.8650  144.5220 C   0  0  0  0  0  1  0  0  0  0  0  0
  193.4000  169.6110  143.0920 N   0  0  0  0  0  2  0  0  0  0  0  0
  186.6950  178.2650  144.7080 C   0  0  0  0  0  3  0  0  0  0  0  0
  187.4940  177.2310  144.2150 C   0  0  0  0  0  0  0  0  0  0  0  0
  187.5380  176.9880  142.8360 C   0  0  0  0  0  3  0  0  0  0  0  0
  186.8160  177.5410  140.5110 C   0  0  0  0  0  1  0  0  0  0  0  0
  186.0100  178.7890  142.4790 N   0  0  0  0  0  0  0  0  0  0  0  0
  186.7800  177.7860  141.9760 C   0  0  0  0  0  0  0  0  0  0  0  0
  185.9520  179.0420  143.8150 C   0  0  0  0  0  3  0  0  0  0  0  0
  1 10  1  0  0  0  0
  1 18  1  0  0  0  0
  2 16  1  0  0  0  0
  4  8  2  0  0  0  0
  5  7  1  0  0  0  0
  5  2  2  0  0  0  0
  6  2  1  0  0  0  0
  6  4  1  0  0  0  0
  7  3  1  1  0  0  0
  7 19  1  0  0  0  0
  8 12  1  0  0  0  0
  9  6  2  0  0  0  0
 13  9  1  0  0  0  0
 13  1  1  0  0  0  0
 14 26  1  6  0  0  0
 14 15  1  0  0  0  0
 15  3  1  0  0  0  0
 16 11  1  0  0  0  0
 16 12  2  0  0  0  0
 17  9  1  0  0  0  0
 17  5  1  0  0  0  0
 18  4  1  0  0  0  0
 19 32  1  6  0  0  0
 19 23  1  0  0  0  0
 20  1  1  0  0  0  0
 21 22  1  0  0  0  0
 21 14  1  0  0  0  0
 22 17  1  0  0  0  0
 23 11  1  0  0  0  0
 24 25  2  0  0  0  0
 25 27  1  0  0  0  0
 25 30  1  0  0  0  0
 26 27  1  0  0  0  0
 28 26  2  0  0  0  0
 30 29  1  0  0  0  0
 32 31  1  0  0  0  0
 33 32  2  0  0  0  0
 34 36  1  0  0  0  0
 35 37  1  0  0  0  0
 36 35  2  0  0  0  0
 36 33  1  0  0  0  0
 37 31  2  0  0  0  0
M  END
>  <MODEL>
6

>  <REMARK>
 VINA RESULT:      -8.9      1.754      2.644
  Name = 
  2 active torsions:
  status: ('A' for Active; 'I' for Inactive)
    1  A    between atoms: C_8  and  C_18
    2  A    between atoms: C_23  and  C_30
                            x       y       z     vdW  Elec       q    Type
                         _______ _______ _______ _____ _____    ______ ____

>  <TORSDO>
F 2

$$$$
=
 OpenBabel11112417223D

 37 42  0  0  1  0  0  0  0  0999 V2000
  187.2380  177.0860  141.6980 C   0  0  0  0  0  0  0  0  0  0  0  0
  189.8550  174.2580  143.2290 C   0  0  0  0  0  0  0  0  0  0  0  0
  190.3030  174.1660  146.5420 C   0  0  0  0  0  2  0  0  0  0  0  0
  188.2240  174.7420  141.5180 C   0  0  0  0  0  0  0  0  0  0  0  0
  190.5220  175.0200  144.1760 C   0  0  0  0  0  0  0  0  0  0  0  0
  189.1100  175.1230  142.4990 C   0  0  0  0  0  0  0  0  0  0  0  0
  191.2460  174.4660  145.3770 C   0  0  2  0  0  3  0  0  0  0  0  0
  188.1340  173.3660  141.2320 C   0  0  0  0  0  3  0  0  0  0  0  0
  189.2720  176.3690  143.0010 C   0  0  0  0  0  0  0  0  0  0  0  0
  186.1420  176.8130  142.7160 C   0  0  0  0  0  1  0  0  0  0  0  0
  190.5830  171.9160  143.8070 C   0  0  0  0  0  2  0  0  0  0  0  0
  188.9130  172.4380  141.9740 C   0  0  0  0  0  3  0  0  0  0  0  0
  188.5230  177.5450  142.4430 C   0  0  0  0  0  2  0  0  0  0  0  0
  189.9470  176.6130  147.2260 C   0  0  1  0  0  3  0  0  0  0  0  0
  189.2980  175.2980  146.7850 C   0  0  0  0  0  2  0  0  0  0  0  0
  189.7860  172.8830  142.9940 C   0  0  0  0  0  0  0  0  0  0  0  0
  190.1270  176.3270  144.0510 N   0  0  0  0  0  0  0  0  0  0  0  0
  187.4410  175.8190  140.8140 C   0  0  0  0  0  2  0  0  0  0  0  0
  192.2480  173.3170  145.1370 C   0  0  1  0  0  3  0  0  0  0  0  0
  186.7760  178.2180  140.8060 C   0  0  0  0  0  1  0  0  0  0  0  0
  191.0080  177.1680  146.2610 C   0  0  0  0  0  2  0  0  0  0  0  0
  190.4990  177.5000  144.8530 C   0  0  0  0  0  2  0  0  0  0  0  0
  192.0210  172.4020  143.9240 C   0  0  0  0  0  2  0  0  0  0  0  0
  186.6400  179.3920  148.0130 O   0  0  0  0  0  0  0  0  0  0  0  0
  186.4680  178.3230  147.3700 C   0  0  0  0  0  0  0  0  0  0  0  0
  188.9120  177.6420  147.5550 C   0  0  0  0  0  0  0  0  0  0  0  0
  187.5650  177.4330  147.1220 N   0  0  0  0  0  2  0  0  0  0  0  0
  189.2270  178.6660  148.2210 O   0  0  0  0  0  0  0  0  0  0  0  0
  184.8950  176.7890  146.1400 C   0  0  0  0  0  1  0  0  0  0  0  0
  185.1640  178.0050  146.8870 N   0  0  0  0  0  2  0  0  0  0  0  0
  193.8790  175.1920  144.8940 C   0  0  0  0  0  3  0  0  0  0  0  0
  193.6490  173.8370  145.1450 C   0  0  0  0  0  0  0  0  0  0  0  0
  194.7330  172.9850  145.3880 C   0  0  0  0  0  3  0  0  0  0  0  0
  197.1890  172.6140  145.6330 C   0  0  0  0  0  1  0  0  0  0  0  0
  196.2290  174.8290  145.1330 N   0  0  0  0  0  0  0  0  0  0  0  0
  196.0290  173.5060  145.3770 C   0  0  0  0  0  0  0  0  0  0  0  0
  195.1900  175.6750  144.8930 C   0  0  0  0  0  3  0  0  0  0  0  0
  1 13  1  0  0  0  0
  1 10  1  0  0  0  0
  2  5  2  0  0  0  0
  3 15  1  0  0  0  0
  4  6  1  0  0  0  0
  5  7  1  0  0  0  0
  6  9  2  0  0  0  0
  6  2  1  0  0  0  0
  7  3  1  1  0  0  0
  8  4  2  0  0  0  0
  8 12  1  0  0  0  0
  9 17  1  0  0  0  0
 11 23  1  0  0  0  0
 12 16  2  0  0  0  0
 13  9  1  0  0  0  0
 14 26  1  6  0  0  0
 15 14  1  0  0  0  0
 16  2  1  0  0  0  0
 16 11  1  0  0  0  0
 17  5  1  0  0  0  0
 17 22  1  0  0  0  0
 18  4  1  0  0  0  0
 18  1  1  0  0  0  0
 19 32  1  6  0  0  0
 19  7  1  0  0  0  0
 20  1  1  0  0  0  0
 21 14  1  0  0  0  0
 22 21  1  0  0  0  0
 23 19  1  0  0  0  0
 25 24  2  0  0  0  0
 26 28  2  0  0  0  0
 27 25  1  0  0  0  0
 27 26  1  0  0  0  0
 29 30  1  0  0  0  0
 30 25  1  0  0  0  0
 31 32  1  0  0  0  0
 32 33  2  0  0  0  0
 35 36  2  0  0  0  0
 36 33  1  0  0  0  0
 36 34  1  0  0  0  0
 37 31  2  0  0  0  0
 37 35  1  0  0  0  0
M  END
>  <MODEL>
7

>  <REMARK>
 VINA RESULT:      -8.7      3.444      7.751
  Name = 
  2 active torsions:
  status: ('A' for Active; 'I' for Inactive)
    1  A    between atoms: C_8  and  C_18
    2  A    between atoms: C_23  and  C_30
                            x       y       z     vdW  Elec       q    Type
                         _______ _______ _______ _____ _____    ______ ____

>  <TORSDO>
F 2

$$$$
=
 OpenBabel11112417223D

 37 42  0  0  1  0  0  0  0  0999 V2000
  189.5440  176.2540  146.1130 C   0  0  0  0  0  0  0  0  0  0  0  0
  193.2920  174.5450  145.6380 C   0  0  0  0  0  0  0  0  0  0  0  0
  193.9980  173.1020  142.7040 C   0  0  0  0  0  2  0  0  0  0  0  0
  192.0360  176.3380  146.6490 C   0  0  0  0  0  0  0  0  0  0  0  0
  192.9510  173.3700  144.9860 C   0  0  0  0  0  0  0  0  0  0  0  0
  192.1280  175.1050  146.0470 C   0  0  0  0  0  0  0  0  0  0  0  0
  193.8860  172.5550  144.1270 C   0  0  2  0  0  3  0  0  0  0  0  0
  193.2380  177.0280  146.8940 C   0  0  0  0  0  3  0  0  0  0  0  0
  191.1010  174.3320  145.6270 C   0  0  0  0  0  0  0  0  0  0  0  0
  189.5580  176.9710  144.7730 C   0  0  0  0  0  1  0  0  0  0  0  0
  195.7970  174.6040  145.3730 C   0  0  0  0  0  2  0  0  0  0  0  0
  194.4740  176.4570  146.4860 C   0  0  0  0  0  3  0  0  0  0  0  0
  189.6720  174.7230  145.8730 C   0  0  0  0  0  2  0  0  0  0  0  0
  191.7010  172.2670  141.9210 C   0  0  1  0  0  3  0  0  0  0  0  0
  192.6330  173.4690  142.1100 C   0  0  0  0  0  2  0  0  0  0  0  0
  194.5090  175.1990  145.8410 C   0  0  0  0  0  0  0  0  0  0  0  0
  191.5840  173.2620  144.9530 N   0  0  0  0  0  0  0  0  0  0  0  0
  190.6650  176.8440  147.0200 C   0  0  0  0  0  2  0  0  0  0  0  0
  195.2650  172.1980  144.7170 C   0  0  1  0  0  3  0  0  0  0  0  0
  188.2090  176.5210  146.7730 C   0  0  0  0  0  1  0  0  0  0  0  0
  191.4220  171.4560  143.1970 C   0  0  0  0  0  2  0  0  0  0  0  0
  190.7400  172.2350  144.3280 C   0  0  0  0  0  2  0  0  0  0  0  0
  195.8640  173.1370  145.7750 C   0  0  0  0  0  2  0  0  0  0  0  0
  188.1980  173.4900  139.5750 O   0  0  0  0  0  0  0  0  0  0  0  0
  189.3510  173.4480  139.0700 C   0  0  0  0  0  0  0  0  0  0  0  0
  190.4340  172.6690  141.2370 C   0  0  0  0  0  0  0  0  0  0  0  0
  190.4810  173.0480  139.8580 N   0  0  0  0  0  2  0  0  0  0  0  0
  189.3420  172.6530  141.8670 O   0  0  0  0  0  0  0  0  0  0  0  0
  190.8240  173.7750  137.0540 C   0  0  0  0  0  1  0  0  0  0  0  0
  189.5230  173.8030  137.6990 N   0  0  0  0  0  2  0  0  0  0  0  0
  194.3150  169.8890  144.7280 C   0  0  0  0  0  3  0  0  0  0  0  0
  195.2730  170.7860  145.2060 C   0  0  0  0  0  0  0  0  0  0  0  0
  196.2190  170.3530  146.1450 C   0  0  0  0  0  3  0  0  0  0  0  0
  197.1840  168.5540  147.5810 C   0  0  0  0  0  1  0  0  0  0  0  0
  195.2470  168.1720  146.1050 N   0  0  0  0  0  0  0  0  0  0  0  0
  196.1870  169.0280  146.5860 C   0  0  0  0  0  0  0  0  0  0  0  0
  194.3180  168.5710  145.1940 C   0  0  0  0  0  3  0  0  0  0  0  0
  1 20  1  0  0  0  0
  1 18  1  0  0  0  0
  2 16  1  0  0  0  0
  2  6  1  0  0  0  0
  4  8  2  0  0  0  0
  4 18  1  0  0  0  0
  5  2  2  0  0  0  0
  6  4  1  0  0  0  0
  7  3  1  6  0  0  0
  7 19  1  0  0  0  0
  7  5  1  0  0  0  0
  9 13  1  0  0  0  0
  9  6  2  0  0  0  0
 10  1  1  0  0  0  0
 11 23  1  0  0  0  0
 11 16  1  0  0  0  0
 12  8  1  0  0  0  0
 13  1  1  0  0  0  0
 14 26  1  1  0  0  0
 14 15  1  0  0  0  0
 14 21  1  0  0  0  0
 15  3  1  0  0  0  0
 16 12  2  0  0  0  0
 17  5  1  0  0  0  0
 17  9  1  0  0  0  0
 19 32  1  1  0  0  0
 19 23  1  0  0  0  0
 21 22  1  0  0  0  0
 22 17  1  0  0  0  0
 25 24  2  0  0  0  0
 25 27  1  0  0  0  0
 26 28  2  0  0  0  0
 27 26  1  0  0  0  0
 29 30  1  0  0  0  0
 30 25  1  0  0  0  0
 31 37  2  0  0  0  0
 31 32  1  0  0  0  0
 32 33  2  0  0  0  0
 33 36  1  0  0  0  0
 35 36  2  0  0  0  0
 36 34  1  0  0  0  0
 37 35  1  0  0  0  0
M  END
>  <MODEL>
8

>  <REMARK>
 VINA RESULT:      -8.7      3.241      6.782
  Name = 
  2 active torsions:
  status: ('A' for Active; 'I' for Inactive)
    1  A    between atoms: C_8  and  C_18
    2  A    between atoms: C_23  and  C_30
                            x       y       z     vdW  Elec       q    Type
                         _______ _______ _______ _____ _____    ______ ____

>  <TORSDO>
F 2

$$$$
=
 OpenBabel11112417223D

 37 42  0  0  1  0  0  0  0  0999 V2000
  195.3550  175.4370  144.0970 C   0  0  0  0  0  0  0  0  0  0  0  0
  191.3220  175.7810  144.9940 C   0  0  0  0  0  0  0  0  0  0  0  0
  189.2940  173.2820  144.0830 C   0  0  0  0  0  2  0  0  0  0  0  0
  193.5710  176.2700  145.7160 C   0  0  0  0  0  0  0  0  0  0  0  0
  190.7620  175.3180  143.8130 C   0  0  0  0  0  0  0  0  0  0  0  0
  192.6480  175.9240  144.7560 C   0  0  0  0  0  0  0  0  0  0  0  0
  189.3690  174.7540  143.6790 C   0  0  2  0  0  3  0  0  0  0  0  0
  193.0850  176.5390  147.0100 C   0  0  0  0  0  3  0  0  0  0  0  0
  192.9100  175.5230  143.4910 C   0  0  0  0  0  0  0  0  0  0  0  0
  195.4740  174.0010  144.5810 C   0  0  0  0  0  1  0  0  0  0  0  0
  189.3390  175.8410  146.5470 C   0  0  0  0  0  2  0  0  0  0  0  0
  191.6960  176.4090  147.2830 C   0  0  0  0  0  3  0  0  0  0  0  0
  194.3100  175.5020  142.9480 C   0  0  0  0  0  2  0  0  0  0  0  0
  190.4340  172.3720  141.9720 C   0  0  1  0  0  3  0  0  0  0  0  0
  190.4480  172.4570  143.5020 C   0  0  0  0  0  2  0  0  0  0  0  0
  190.7950  176.0180  146.2650 C   0  0  0  0  0  0  0  0  0  0  0  0
  191.7620  175.1260  142.8940 N   0  0  0  0  0  0  0  0  0  0  0  0
  195.0180  176.3590  145.3070 C   0  0  0  0  0  2  0  0  0  0  0  0
  188.2080  175.5750  144.2760 C   0  0  1  0  0  3  0  0  0  0  0  0
  196.6990  175.8550  143.5410 C   0  0  0  0  0  1  0  0  0  0  0  0
  190.4550  173.7280  141.2480 C   0  0  0  0  0  2  0  0  0  0  0  0
  191.6880  174.5970  141.5260 C   0  0  0  0  0  2  0  0  0  0  0  0
  188.5160  176.5110  145.4550 C   0  0  0  0  0  2  0  0  0  0  0  0
  193.4570  169.7740  140.1330 O   0  0  0  0  0  0  0  0  0  0  0  0
  192.5600  170.3320  139.4490 C   0  0  0  0  0  0  0  0  0  0  0  0
  191.5130  171.4650  141.4720 C   0  0  0  0  0  0  0  0  0  0  0  0
  191.5800  171.1740  140.0730 N   0  0  0  0  0  2  0  0  0  0  0  0
  192.3580  170.9830  142.2760 O   0  0  0  0  0  0  0  0  0  0  0  0
  191.5190  170.7310  137.1910 C   0  0  0  0  0  1  0  0  0  0  0  0
  192.5260  170.1170  138.0390 N   0  0  0  0  0  2  0  0  0  0  0  0
  188.0500  176.3970  141.9240 C   0  0  0  0  0  3  0  0  0  0  0  0
  187.4840  176.3140  143.1980 C   0  0  0  0  0  0  0  0  0  0  0  0
  186.2520  176.9320  143.4490 C   0  0  0  0  0  3  0  0  0  0  0  0
  184.3040  178.2830  142.6690 C   0  0  0  0  0  1  0  0  0  0  0  0
  186.1800  177.6880  141.1850 N   0  0  0  0  0  0  0  0  0  0  0  0
  185.6110  177.6220  142.4180 C   0  0  0  0  0  0  0  0  0  0  0  0
  187.3760  177.0960  140.9190 C   0  0  0  0  0  3  0  0  0  0  0  0
  1 10  1  0  0  0  0
  1 18  1  0  0  0  0
  2 16  1  0  0  0  0
  4  8  2  0  0  0  0
  5  2  2  0  0  0  0
  6  2  1  0  0  0  0
  6  4  1  0  0  0  0
  7  5  1  0  0  0  0
  7  3  1  1  0  0  0
  7 19  1  0  0  0  0
  8 12  1  0  0  0  0
  9  6  2  0  0  0  0
 13  9  1  0  0  0  0
 13  1  1  0  0  0  0
 14 26  1  6  0  0  0
 14 15  1  0  0  0  0
 15  3  1  0  0  0  0
 16 11  1  0  0  0  0
 16 12  2  0  0  0  0
 17  9  1  0  0  0  0
 17  5  1  0  0  0  0
 18  4  1  0  0  0  0
 19 32  1  6  0  0  0
 19 23  1  0  0  0  0
 20  1  1  0  0  0  0
 21 22  1  0  0  0  0
 21 14  1  0  0  0  0
 22 17  1  0  0  0  0
 23 11  1  0  0  0  0
 25 27  1  0  0  0  0
 25 24  2  0  0  0  0
 26 28  2  0  0  0  0
 27 26  1  0  0  0  0
 29 30  1  0  0  0  0
 30 25  1  0  0  0  0
 31 32  1  0  0  0  0
 32 33  2  0  0  0  0
 35 36  2  0  0  0  0
 36 34  1  0  0  0  0
 36 33  1  0  0  0  0
 37 35  1  0  0  0  0
 37 31  2  0  0  0  0
M  END
>  <MODEL>
9

>  <REMARK>
 VINA RESULT:      -8.5      1.788      2.233
  Name = 
  2 active torsions:
  status: ('A' for Active; 'I' for Inactive)
    1  A    between atoms: C_8  and  C_18
    2  A    between atoms: C_23  and  C_30
                            x       y       z     vdW  Elec       q    Type
                         _______ _______ _______ _____ _____    ______ ____

>  <TORSDO>
F 2

$$$$
