=
 OpenBabel11112416593D

 31 35  0  0  1  0  0  0  0  0999 V2000
  185.2770  177.5140  146.6700 C   0  0  0  0  0  0  0  0  0  0  0  0
  187.0560  176.7650  143.4380 C   0  0  0  0  0  0  0  0  0  0  0  0
  186.2000  177.1910  142.3750 C   0  0  0  0  0  0  0  0  0  0  0  0
  184.1270  178.1780  141.5360 C   0  0  0  0  0  0  0  0  0  0  0  0
  186.7470  176.8750  144.8270 C   0  0  0  0  0  0  0  0  0  0  0  0
  186.2140  177.0560  147.5940 C   0  0  0  0  0  3  0  0  0  0  0  0
  184.9390  177.7730  142.5980 C   0  0  0  0  0  3  0  0  0  0  0  0
  189.1950  175.7530  144.0710 C   0  0  0  0  0  0  0  0  0  0  0  0
  183.7660  178.2040  147.2230 Cl  0  0  0  0  0  0  0  0  0  0  0  0
  187.8570  176.4600  140.7590 C   0  0  0  0  0  3  0  0  0  0  0  0
  182.5640  178.8970  141.8560 Cl  0  0  0  0  0  0  0  0  0  0  0  0
  188.8640  175.8770  145.3820 N   0  0  0  0  0  0  0  0  0  0  0  0
  188.3090  176.1920  143.0790 C   0  0  0  0  0  0  0  0  0  0  0  0
  190.4540  175.1800  143.7020 N   0  0  0  0  0  2  0  0  0  0  0  0
  185.5420  177.4240  145.3030 C   0  0  0  0  0  3  0  0  0  0  0  0
  184.5610  178.0090  140.2220 C   0  0  0  0  0  3  0  0  0  0  0  0
  187.6880  176.4140  145.7810 C   0  0  0  0  0  0  0  0  0  0  0  0
  187.4160  176.5070  147.1510 C   0  0  0  0  0  3  0  0  0  0  0  0
  188.6620  176.0600  141.7720 N   0  0  0  0  0  0  0  0  0  0  0  0
  186.6220  177.0280  141.0320 C   0  0  0  0  0  0  0  0  0  0  0  0
  185.8080  177.4340  139.9710 C   0  0  0  0  0  3  0  0  0  0  0  0
  191.4610  173.2890  144.6350 O   0  0  0  0  0  1  0  0  0  0  0  0
  191.4110  174.6830  144.6810 C   0  0  1  0  0  3  0  0  0  0  0  0
  195.2980  176.3430  143.8700 C   0  0  0  0  0  0  0  0  0  0  0  0
  193.3820  175.0430  143.1690 C   0  0  0  0  0  3  0  0  0  0  0  0
  192.8200  176.2960  146.7210 C   0  0  0  0  0  1  0  0  0  0  0  0
  196.5520  176.8770  143.6020 O   0  0  0  0  0  1  0  0  0  0  0  0
  194.6420  175.5820  142.9000 C   0  0  0  0  0  3  0  0  0  0  0  0
  193.4320  176.0310  145.3860 C   0  0  0  0  0  0  0  0  0  0  0  0
  192.7680  175.2600  144.4130 C   0  0  0  0  0  0  0  0  0  0  0  0
  194.6940  176.5670  145.1100 C   0  0  0  0  0  3  0  0  0  0  0  0
  1  9  1  0  0  0  0
  1  6  1  0  0  0  0
  2  5  1  0  0  0  0
  3  7  1  0  0  0  0
  3  2  2  0  0  0  0
  4 11  1  0  0  0  0
  4  7  2  0  0  0  0
  5 15  1  0  0  0  0
  5 17  2  0  0  0  0
  8 12  2  0  0  0  0
 10 20  2  0  0  0  0
 10 19  1  0  0  0  0
 12 17  1  0  0  0  0
 13  2  1  0  0  0  0
 13  8  1  0  0  0  0
 14  8  1  0  0  0  0
 14 23  1  0  0  0  0
 15  1  2  0  0  0  0
 16  4  1  0  0  0  0
 17 18  1  0  0  0  0
 18  6  2  0  0  0  0
 19 13  2  0  0  0  0
 20  3  1  0  0  0  0
 21 16  2  0  0  0  0
 21 20  1  0  0  0  0
 23 22  1  6  0  0  0
 24 31  1  0  0  0  0
 25 30  2  0  0  0  0
 27 24  1  0  0  0  0
 28 25  1  0  0  0  0
 28 24  2  0  0  0  0
 29 26  1  0  0  0  0
 30 23  1  0  0  0  0
 30 29  1  0  0  0  0
 31 29  2  0  0  0  0
M  END
>  <MODEL>
1

>  <REMARK>
 VINA RESULT:      -8.6      0.000      0.000
  Name = 
  2 active torsions:
  status: ('A' for Active; 'I' for Inactive)
    1  A    between atoms: C_5  and  N_16
    2  A    between atoms: C_5  and  C_30
                            x       y       z     vdW  Elec       q    Type
                         _______ _______ _______ _____ _____    ______ ____

>  <TORSDO>
F 2

$$$$
=
 OpenBabel11112416593D

 31 35  0  0  1  0  0  0  0  0999 V2000
  190.8270  176.7660  147.2190 C   0  0  0  0  0  0  0  0  0  0  0  0
  188.0540  176.5530  144.6820 C   0  0  0  0  0  0  0  0  0  0  0  0
  186.9810  177.3700  145.1590 C   0  0  0  0  0  0  0  0  0  0  0  0
  185.9780  178.8730  146.8050 C   0  0  0  0  0  0  0  0  0  0  0  0
  189.2960  176.3650  145.3590 C   0  0  0  0  0  0  0  0  0  0  0  0
  191.7820  175.9400  146.6290 C   0  0  0  0  0  3  0  0  0  0  0  0
  187.0460  178.0840  146.3690 C   0  0  0  0  0  3  0  0  0  0  0  0
  188.8740  175.0660  142.9170 C   0  0  0  0  0  0  0  0  0  0  0  0
  191.1670  177.5440  148.7500 Cl  0  0  0  0  0  0  0  0  0  0  0  0
  185.6810  176.7920  143.1920 C   0  0  0  0  0  3  0  0  0  0  0  0
  186.0980  179.7450  148.3170 Cl  0  0  0  0  0  0  0  0  0  0  0  0
  190.0430  174.9140  143.5900 N   0  0  0  0  0  0  0  0  0  0  0  0
  187.8640  175.8820  143.4410 C   0  0  0  0  0  0  0  0  0  0  0  0
  188.6770  174.3970  141.6680 N   0  0  0  0  0  2  0  0  0  0  0  0
  189.6000  176.9750  146.5890 C   0  0  0  0  0  3  0  0  0  0  0  0
  184.8190  178.9640  146.0370 C   0  0  0  0  0  3  0  0  0  0  0  0
  190.2790  175.5280  144.7740 C   0  0  0  0  0  0  0  0  0  0  0  0
  191.5080  175.3210  145.4100 C   0  0  0  0  0  3  0  0  0  0  0  0
  186.7020  176.0220  142.7480 N   0  0  0  0  0  0  0  0  0  0  0  0
  185.7930  177.4770  144.3930 C   0  0  0  0  0  0  0  0  0  0  0  0
  184.7270  178.2670  144.8320 C   0  0  0  0  0  3  0  0  0  0  0  0
  189.4360  172.1960  141.4630 O   0  0  0  0  0  1  0  0  0  0  0  0
  189.6770  173.5170  141.0780 C   0  0  1  0  0  3  0  0  0  0  0  0
  189.5700  173.8850  136.7910 C   0  0  0  0  0  0  0  0  0  0  0  0
  188.4580  174.0000  138.9370 C   0  0  0  0  0  3  0  0  0  0  0  0
  192.0990  173.0140  139.4580 C   0  0  0  0  0  1  0  0  0  0  0  0
  189.5300  174.0070  135.4080 O   0  0  0  0  0  1  0  0  0  0  0  0
  188.4190  174.1240  137.5460 C   0  0  0  0  0  3  0  0  0  0  0  0
  190.8070  173.3990  138.8190 C   0  0  0  0  0  0  0  0  0  0  0  0
  189.6490  173.6350  139.5840 C   0  0  0  0  0  0  0  0  0  0  0  0
  190.7610  173.5240  137.4270 C   0  0  0  0  0  3  0  0  0  0  0  0
  1  9  1  0  0  0  0
  2  3  1  0  0  0  0
  2  5  1  0  0  0  0
  3  7  1  0  0  0  0
  4 11  1  0  0  0  0
  5 15  1  0  0  0  0
  6  1  1  0  0  0  0
  7  4  2  0  0  0  0
  8 13  1  0  0  0  0
  8 12  2  0  0  0  0
 10 20  1  0  0  0  0
 12 17  1  0  0  0  0
 13  2  2  0  0  0  0
 14  8  1  0  0  0  0
 15  1  2  0  0  0  0
 16  4  1  0  0  0  0
 17  5  2  0  0  0  0
 17 18  1  0  0  0  0
 18  6  2  0  0  0  0
 19 10  2  0  0  0  0
 19 13  1  0  0  0  0
 20 21  1  0  0  0  0
 20  3  2  0  0  0  0
 21 16  2  0  0  0  0
 23 22  1  6  0  0  0
 23 14  1  0  0  0  0
 24 31  2  0  0  0  0
 24 28  1  0  0  0  0
 25 30  1  0  0  0  0
 27 24  1  0  0  0  0
 28 25  2  0  0  0  0
 29 26  1  0  0  0  0
 29 30  2  0  0  0  0
 30 23  1  0  0  0  0
 31 29  1  0  0  0  0
M  END
>  <MODEL>
2

>  <REMARK>
 VINA RESULT:      -8.5      3.385      5.672
  Name = 
  2 active torsions:
  status: ('A' for Active; 'I' for Inactive)
    1  A    between atoms: C_5  and  N_16
    2  A    between atoms: C_5  and  C_30
                            x       y       z     vdW  Elec       q    Type
                         _______ _______ _______ _____ _____    ______ ____

>  <TORSDO>
F 2

$$$$
=
 OpenBabel11112416593D

 31 35  0  0  1  0  0  0  0  0999 V2000
  185.4600  177.7870  140.8690 C   0  0  0  0  0  0  0  0  0  0  0  0
  187.4720  176.5150  143.7850 C   0  0  0  0  0  0  0  0  0  0  0  0
  186.7820  176.9010  144.9760 C   0  0  0  0  0  0  0  0  0  0  0  0
  184.9270  177.9870  146.1410 C   0  0  0  0  0  0  0  0  0  0  0  0
  187.0340  176.8070  142.4590 C   0  0  0  0  0  0  0  0  0  0  0  0
  186.2400  177.3420  139.8020 C   0  0  0  0  0  3  0  0  0  0  0  0
  185.5760  177.6250  144.9580 C   0  0  0  0  0  3  0  0  0  0  0  0
  189.4110  175.3750  142.8140 C   0  0  0  0  0  0  0  0  0  0  0  0
  183.9850  178.6780  140.5640 Cl  0  0  0  0  0  0  0  0  0  0  0  0
  188.5070  175.8360  146.3110 C   0  0  0  0  0  3  0  0  0  0  0  0
  183.4280  178.8880  146.0740 Cl  0  0  0  0  0  0  0  0  0  0  0  0
  188.9600  175.6710  141.5690 N   0  0  0  0  0  0  0  0  0  0  0  0
  188.6840  175.7840  143.9400 C   0  0  0  0  0  0  0  0  0  0  0  0
  190.6270  174.6380  142.9780 N   0  0  0  0  0  2  0  0  0  0  0  0
  185.8540  177.5210  142.1800 C   0  0  0  0  0  3  0  0  0  0  0  0
  185.4730  177.6310  147.3730 C   0  0  0  0  0  3  0  0  0  0  0  0
  187.8150  176.3630  141.3620 C   0  0  0  0  0  0  0  0  0  0  0  0
  187.4150  176.6330  140.0480 C   0  0  0  0  0  3  0  0  0  0  0  0
  189.1540  175.4740  145.1780 N   0  0  0  0  0  0  0  0  0  0  0  0
  187.3200  176.5500  146.2390 C   0  0  0  0  0  0  0  0  0  0  0  0
  186.6690  176.9130  147.4220 C   0  0  0  0  0  3  0  0  0  0  0  0
  192.7870  174.4840  142.0990 O   0  0  0  0  0  1  0  0  0  0  0  0
  191.4420  174.2020  141.8520 C   0  0  1  0  0  3  0  0  0  0  0  0
  190.8980  169.9790  141.2220 C   0  0  0  0  0  0  0  0  0  0  0  0
  191.6450  171.8170  142.6070 C   0  0  0  0  0  3  0  0  0  0  0  0
  190.2400  173.1920  139.3460 C   0  0  0  0  0  1  0  0  0  0  0  0
  190.7230  168.6160  141.0250 O   0  0  0  0  0  1  0  0  0  0  0  0
  191.4680  170.4450  142.4090 C   0  0  0  0  0  3  0  0  0  0  0  0
  190.6770  172.2590  140.4260 C   0  0  0  0  0  0  0  0  0  0  0  0
  191.2540  172.7330  141.6180 C   0  0  0  0  0  0  0  0  0  0  0  0
  190.5030  170.8840  140.2330 C   0  0  0  0  0  3  0  0  0  0  0  0
  1 15  1  0  0  0  0
  2 13  2  0  0  0  0
  2  3  1  0  0  0  0
  3 20  1  0  0  0  0
  4 16  2  0  0  0  0
  5  2  1  0  0  0  0
  6 18  1  0  0  0  0
  6  1  2  0  0  0  0
  7  3  2  0  0  0  0
  7  4  1  0  0  0  0
  8 14  1  0  0  0  0
  8 13  1  0  0  0  0
  9  1  1  0  0  0  0
 11  4  1  0  0  0  0
 12  8  2  0  0  0  0
 13 19  1  0  0  0  0
 15  5  2  0  0  0  0
 16 21  1  0  0  0  0
 17 12  1  0  0  0  0
 17  5  1  0  0  0  0
 18 17  2  0  0  0  0
 19 10  2  0  0  0  0
 20 10  1  0  0  0  0
 20 21  2  0  0  0  0
 23 22  1  1  0  0  0
 23 14  1  0  0  0  0
 24 28  1  0  0  0  0
 26 29  1  0  0  0  0
 27 24  1  0  0  0  0
 28 25  2  0  0  0  0
 29 30  2  0  0  0  0
 30 23  1  0  0  0  0
 30 25  1  0  0  0  0
 31 29  1  0  0  0  0
 31 24  2  0  0  0  0
M  END
>  <MODEL>
3

>  <REMARK>
 VINA RESULT:      -8.1      2.694      5.473
  Name = 
  2 active torsions:
  status: ('A' for Active; 'I' for Inactive)
    1  A    between atoms: C_5  and  N_16
    2  A    between atoms: C_5  and  C_30
                            x       y       z     vdW  Elec       q    Type
                         _______ _______ _______ _____ _____    ______ ____

>  <TORSDO>
F 2

$$$$
=
 OpenBabel11112416593D

 31 35  0  0  1  0  0  0  0  0999 V2000
  189.5160  174.6010  145.8710 C   0  0  0  0  0  0  0  0  0  0  0  0
  187.8320  176.1120  142.8610 C   0  0  0  0  0  0  0  0  0  0  0  0
  187.0630  177.2250  143.3210 C   0  0  0  0  0  0  0  0  0  0  0  0
  186.2440  178.7010  145.0900 C   0  0  0  0  0  0  0  0  0  0  0  0
  188.6240  175.2680  143.6970 C   0  0  0  0  0  0  0  0  0  0  0  0
  190.2160  173.5520  145.2780 C   0  0  0  0  0  3  0  0  0  0  0  0
  187.0070  177.6070  144.6740 C   0  0  0  0  0  3  0  0  0  0  0  0
  188.5360  174.7520  140.9490 C   0  0  0  0  0  0  0  0  0  0  0  0
  189.6220  174.8590  147.5990 Cl  0  0  0  0  0  0  0  0  0  0  0  0
  186.3370  177.6520  141.0450 C   0  0  0  0  0  3  0  0  0  0  0  0
  186.2020  179.1440  146.7820 Cl  0  0  0  0  0  0  0  0  0  0  0  0
  189.2790  173.9740  141.7770 N   0  0  0  0  0  0  0  0  0  0  0  0
  187.8050  175.8290  141.4660 C   0  0  0  0  0  0  0  0  0  0  0  0
  188.5060  174.4770  139.5450 N   0  0  0  0  0  2  0  0  0  0  0  0
  188.7300  175.4480  145.0880 C   0  0  0  0  0  3  0  0  0  0  0  0
  185.5170  179.4390  144.1570 C   0  0  0  0  0  3  0  0  0  0  0  0
  189.3430  174.1960  143.1110 C   0  0  0  0  0  0  0  0  0  0  0  0
  190.1280  173.3500  143.9010 C   0  0  0  0  0  3  0  0  0  0  0  0
  187.0700  176.5970  140.6180 N   0  0  0  0  0  0  0  0  0  0  0  0
  186.3160  177.9890  142.3900 C   0  0  0  0  0  0  0  0  0  0  0  0
  185.5530  179.0830  142.8080 C   0  0  0  0  0  3  0  0  0  0  0  0
  188.3170  172.4330  138.4260 O   0  0  0  0  0  1  0  0  0  0  0  0
  189.2240  173.3600  138.9450 C   0  0  1  0  0  3  0  0  0  0  0  0
  191.8100  174.8080  135.8240 C   0  0  0  0  0  0  0  0  0  0  0  0
  189.5990  174.2360  136.6220 C   0  0  0  0  0  3  0  0  0  0  0  0
  192.1410  173.5760  139.3800 C   0  0  0  0  0  1  0  0  0  0  0  0
  192.6390  175.2780  134.8140 O   0  0  0  0  0  1  0  0  0  0  0  0
  190.4330  174.7090  135.6070 C   0  0  0  0  0  3  0  0  0  0  0  0
  191.5220  173.9620  138.0780 C   0  0  0  0  0  0  0  0  0  0  0  0
  190.1350  173.8560  137.8630 C   0  0  0  0  0  0  0  0  0  0  0  0
  192.3520  174.4360  137.0560 C   0  0  0  0  0  3  0  0  0  0  0  0
  1  9  1  0  0  0  0
  2  3  1  0  0  0  0
  2  5  1  0  0  0  0
  3  7  1  0  0  0  0
  4 11  1  0  0  0  0
  5 15  1  0  0  0  0
  6  1  1  0  0  0  0
  7  4  2  0  0  0  0
  8 13  1  0  0  0  0
  8 12  2  0  0  0  0
 10 20  1  0  0  0  0
 12 17  1  0  0  0  0
 13  2  2  0  0  0  0
 14  8  1  0  0  0  0
 15  1  2  0  0  0  0
 16  4  1  0  0  0  0
 17  5  2  0  0  0  0
 17 18  1  0  0  0  0
 18  6  2  0  0  0  0
 19 10  2  0  0  0  0
 19 13  1  0  0  0  0
 20 21  1  0  0  0  0
 20  3  2  0  0  0  0
 21 16  2  0  0  0  0
 23 22  1  6  0  0  0
 23 14  1  0  0  0  0
 24 31  1  0  0  0  0
 25 30  2  0  0  0  0
 27 24  1  0  0  0  0
 28 24  2  0  0  0  0
 28 25  1  0  0  0  0
 29 26  1  0  0  0  0
 30 29  1  0  0  0  0
 30 23  1  0  0  0  0
 31 29  2  0  0  0  0
M  END
>  <MODEL>
4

>  <REMARK>
 VINA RESULT:      -8.0      3.889      5.600
  Name = 
  2 active torsions:
  status: ('A' for Active; 'I' for Inactive)
    1  A    between atoms: C_5  and  N_16
    2  A    between atoms: C_5  and  C_30
                            x       y       z     vdW  Elec       q    Type
                         _______ _______ _______ _____ _____    ______ ____

>  <TORSDO>
F 2

$$$$
=
 OpenBabel11112416593D

 31 35  0  0  1  0  0  0  0  0999 V2000
  185.8440  177.5230  141.0080 C   0  0  0  0  0  0  0  0  0  0  0  0
  187.5080  176.3990  144.1930 C   0  0  0  0  0  0  0  0  0  0  0  0
  186.7270  176.9030  145.2790 C   0  0  0  0  0  0  0  0  0  0  0  0
  184.8240  178.1500  146.1740 C   0  0  0  0  0  0  0  0  0  0  0  0
  187.2120  176.6060  142.8120 C   0  0  0  0  0  0  0  0  0  0  0  0
  186.6990  176.9660  140.0580 C   0  0  0  0  0  3  0  0  0  0  0  0
  185.5640  177.6720  145.0890 C   0  0  0  0  0  3  0  0  0  0  0  0
  189.4740  175.1100  143.5020 C   0  0  0  0  0  0  0  0  0  0  0  0
  184.4490  178.4470  140.4960 Cl  0  0  0  0  0  0  0  0  0  0  0  0
  188.2650  175.8750  146.8500 C   0  0  0  0  0  3  0  0  0  0  0  0
  183.3830  179.1020  145.8960 Cl  0  0  0  0  0  0  0  0  0  0  0  0
  189.1570  175.3270  142.2000 N   0  0  0  0  0  0  0  0  0  0  0  0
  188.6640  175.6330  144.5180 C   0  0  0  0  0  0  0  0  0  0  0  0
  190.6320  174.3390  143.8370 N   0  0  0  0  0  2  0  0  0  0  0  0
  186.0990  177.3430  142.3680 C   0  0  0  0  0  3  0  0  0  0  0  0
  185.2340  177.8680  147.4760 C   0  0  0  0  0  3  0  0  0  0  0  0
  188.0710  176.0470  141.8320 C   0  0  0  0  0  0  0  0  0  0  0  0
  187.8100  176.2310  140.4690 C   0  0  0  0  0  3  0  0  0  0  0  0
  188.9990  175.4010  145.8150 N   0  0  0  0  0  0  0  0  0  0  0  0
  187.1260  176.6290  146.6110 C   0  0  0  0  0  0  0  0  0  0  0  0
  186.3840  177.1080  147.6940 C   0  0  0  0  0  3  0  0  0  0  0  0
  192.5110  174.7210  142.5010 O   0  0  0  0  0  1  0  0  0  0  0  0
  191.5280  173.7860  142.8310 C   0  0  1  0  0  3  0  0  0  0  0  0
  193.3530  170.1900  144.3370 C   0  0  0  0  0  0  0  0  0  0  0  0
  193.1820  172.6030  144.3030 C   0  0  0  0  0  3  0  0  0  0  0  0
  190.6520  171.1300  141.8690 C   0  0  0  0  0  1  0  0  0  0  0  0
  193.9440  169.0330  144.8270 O   0  0  0  0  0  1  0  0  0  0  0  0
  193.7760  171.4390  144.7970 C   0  0  0  0  0  3  0  0  0  0  0  0
  191.7360  171.2660  142.8840 C   0  0  0  0  0  0  0  0  0  0  0  0
  192.1620  172.5270  143.3430 C   0  0  0  0  0  0  0  0  0  0  0  0
  192.3360  170.1050  143.3830 C   0  0  0  0  0  3  0  0  0  0  0  0
  1 15  1  0  0  0  0
  2 13  2  0  0  0  0
  2  3  1  0  0  0  0
  3 20  1  0  0  0  0
  4 16  2  0  0  0  0
  5  2  1  0  0  0  0
  6 18  1  0  0  0  0
  6  1  2  0  0  0  0
  7  3  2  0  0  0  0
  7  4  1  0  0  0  0
  8 14  1  0  0  0  0
  8 13  1  0  0  0  0
  9  1  1  0  0  0  0
 11  4  1  0  0  0  0
 12  8  2  0  0  0  0
 13 19  1  0  0  0  0
 15  5  2  0  0  0  0
 16 21  1  0  0  0  0
 17 12  1  0  0  0  0
 17  5  1  0  0  0  0
 18 17  2  0  0  0  0
 19 10  2  0  0  0  0
 20 10  1  0  0  0  0
 20 21  2  0  0  0  0
 23 22  1  1  0  0  0
 23 30  1  0  0  0  0
 23 14  1  0  0  0  0
 24 28  1  0  0  0  0
 24 27  1  0  0  0  0
 25 28  2  0  0  0  0
 26 29  1  0  0  0  0
 29 30  2  0  0  0  0
 29 31  1  0  0  0  0
 30 25  1  0  0  0  0
 31 24  2  0  0  0  0
M  END
>  <MODEL>
5

>  <REMARK>
 VINA RESULT:      -7.9      2.342      5.006
  Name = 
  2 active torsions:
  status: ('A' for Active; 'I' for Inactive)
    1  A    between atoms: C_5  and  N_16
    2  A    between atoms: C_5  and  C_30
                            x       y       z     vdW  Elec       q    Type
                         _______ _______ _______ _____ _____    ______ ____

>  <TORSDO>
F 2

$$$$
=
 OpenBabel11112416593D

 31 35  0  0  1  0  0  0  0  0999 V2000
  195.1840  174.3460  145.7530 C   0  0  0  0  0  0  0  0  0  0  0  0
  192.0260  173.4090  143.9300 C   0  0  0  0  0  0  0  0  0  0  0  0
  192.1630  172.0470  143.5190 C   0  0  0  0  0  0  0  0  0  0  0  0
  193.4110  169.9490  143.3770 C   0  0  0  0  0  0  0  0  0  0  0  0
  193.0120  174.1440  144.6540 C   0  0  0  0  0  0  0  0  0  0  0  0
  194.9070  175.6700  146.0870 C   0  0  0  0  0  3  0  0  0  0  0  0
  193.3100  171.2790  143.7930 C   0  0  0  0  0  3  0  0  0  0  0  0
  190.6160  175.4120  143.9620 C   0  0  0  0  0  0  0  0  0  0  0  0
  196.7080  173.6240  146.2220 Cl  0  0  0  0  0  0  0  0  0  0  0  0
  189.9580  172.1390  142.5080 C   0  0  0  0  0  3  0  0  0  0  0  0
  194.8540  169.0280  143.7370 Cl  0  0  0  0  0  0  0  0  0  0  0  0
  191.5770  176.0760  144.6520 N   0  0  0  0  0  0  0  0  0  0  0  0
  190.8140  174.0760  143.5910 C   0  0  0  0  0  0  0  0  0  0  0  0
  189.3940  176.0740  143.6200 N   0  0  0  0  0  2  0  0  0  0  0  0
  194.2460  173.5930  145.0460 C   0  0  0  0  0  3  0  0  0  0  0  0
  192.3620  169.3570  142.6740 C   0  0  0  0  0  3  0  0  0  0  0  0
  192.7480  175.4930  145.0020 C   0  0  0  0  0  0  0  0  0  0  0  0
  193.6930  176.2430  145.7110 C   0  0  0  0  0  3  0  0  0  0  0  0
  189.8370  173.4290  142.9020 N   0  0  0  0  0  0  0  0  0  0  0  0
  191.1100  171.4250  142.8040 C   0  0  0  0  0  0  0  0  0  0  0  0
  191.2130  170.0940  142.3880 C   0  0  0  0  0  3  0  0  0  0  0  0
  189.1520  178.2490  142.7980 O   0  0  0  0  0  1  0  0  0  0  0  0
  189.1330  177.4670  143.9550 C   0  0  1  0  0  3  0  0  0  0  0  0
  185.3040  177.8070  145.8930 C   0  0  0  0  0  0  0  0  0  0  0  0
  186.6510  177.8440  143.8840 C   0  0  0  0  0  3  0  0  0  0  0  0
  188.8920  177.1660  146.8880 C   0  0  0  0  0  1  0  0  0  0  0  0
  184.0670  177.9160  146.5130 O   0  0  0  0  0  1  0  0  0  0  0  0
  185.4060  177.9530  144.5080 C   0  0  0  0  0  3  0  0  0  0  0  0
  187.6970  177.4410  146.0370 C   0  0  0  0  0  0  0  0  0  0  0  0
  187.8060  177.5910  144.6420 C   0  0  0  0  0  0  0  0  0  0  0  0
  186.4470  177.5520  146.6550 C   0  0  0  0  0  3  0  0  0  0  0  0
  1  6  1  0  0  0  0
  1  9  1  0  0  0  0
  2  5  1  0  0  0  0
  3  7  1  0  0  0  0
  3  2  2  0  0  0  0
  4 11  1  0  0  0  0
  4  7  2  0  0  0  0
  5 17  2  0  0  0  0
  5 15  1  0  0  0  0
  8 12  2  0  0  0  0
 10 20  2  0  0  0  0
 10 19  1  0  0  0  0
 12 17  1  0  0  0  0
 13  2  1  0  0  0  0
 13  8  1  0  0  0  0
 14 23  1  0  0  0  0
 14  8  1  0  0  0  0
 15  1  2  0  0  0  0
 16  4  1  0  0  0  0
 17 18  1  0  0  0  0
 18  6  2  0  0  0  0
 19 13  2  0  0  0  0
 20  3  1  0  0  0  0
 21 16  2  0  0  0  0
 21 20  1  0  0  0  0
 23 22  1  6  0  0  0
 23 30  1  0  0  0  0
 24 27  1  0  0  0  0
 24 31  1  0  0  0  0
 25 28  1  0  0  0  0
 25 30  2  0  0  0  0
 28 24  2  0  0  0  0
 29 31  2  0  0  0  0
 29 26  1  0  0  0  0
 30 29  1  0  0  0  0
M  END
>  <MODEL>
6

>  <REMARK>
 VINA RESULT:      -7.8      4.755      8.365
  Name = 
  2 active torsions:
  status: ('A' for Active; 'I' for Inactive)
    1  A    between atoms: C_5  and  N_16
    2  A    between atoms: C_5  and  C_30
                            x       y       z     vdW  Elec       q    Type
                         _______ _______ _______ _____ _____    ______ ____

>  <TORSDO>
F 2

$$$$
=
 OpenBabel11112416593D

 31 35  0  0  1  0  0  0  0  0999 V2000
  185.9360  177.5510  141.1700 C   0  0  0  0  0  0  0  0  0  0  0  0
  187.7540  177.3010  144.4570 C   0  0  0  0  0  0  0  0  0  0  0  0
  186.8440  177.7220  145.4770 C   0  0  0  0  0  0  0  0  0  0  0  0
  184.6650  178.5410  146.2220 C   0  0  0  0  0  0  0  0  0  0  0  0
  187.4480  177.2490  143.0640 C   0  0  0  0  0  0  0  0  0  0  0  0
  186.9270  177.1160  140.2920 C   0  0  0  0  0  3  0  0  0  0  0  0
  185.5290  178.1360  145.2010 C   0  0  0  0  0  3  0  0  0  0  0  0
  189.9990  176.4820  143.9190 C   0  0  0  0  0  0  0  0  0  0  0  0
  184.3640  178.0140  140.5570 Cl  0  0  0  0  0  0  0  0  0  0  0  0
  188.5560  177.3290  147.1530 C   0  0  0  0  0  3  0  0  0  0  0  0
  183.0360  179.0510  145.8370 Cl  0  0  0  0  0  0  0  0  0  0  0  0
  189.6690  176.4450  142.6030 N   0  0  0  0  0  0  0  0  0  0  0  0
  189.0590  176.9050  144.8670 C   0  0  0  0  0  0  0  0  0  0  0  0
  191.3080  176.0830  144.3400 N   0  0  0  0  0  2  0  0  0  0  0  0
  186.1950  177.6150  142.5390 C   0  0  0  0  0  3  0  0  0  0  0  0
  185.1020  178.5400  147.5460 C   0  0  0  0  0  3  0  0  0  0  0  0
  188.4450  176.8100  142.1560 C   0  0  0  0  0  0  0  0  0  0  0  0
  188.1790  176.7480  140.7840 C   0  0  0  0  0  3  0  0  0  0  0  0
  189.4100  176.9310  146.1810 N   0  0  0  0  0  0  0  0  0  0  0  0
  187.2680  177.7290  146.8290 C   0  0  0  0  0  0  0  0  0  0  0  0
  186.4020  178.1340  147.8490 C   0  0  0  0  0  3  0  0  0  0  0  0
  192.7060  176.7190  142.5790 O   0  0  0  0  0  1  0  0  0  0  0  0
  192.3390  175.6550  143.4050 C   0  0  1  0  0  3  0  0  0  0  0  0
  195.7510  174.2030  145.5920 C   0  0  0  0  0  0  0  0  0  0  0  0
  193.9110  175.7580  145.3600 C   0  0  0  0  0  3  0  0  0  0  0  0
  193.9120  173.3600  142.4010 C   0  0  0  0  0  1  0  0  0  0  0  0
  196.8490  173.7390  146.3020 O   0  0  0  0  0  1  0  0  0  0  0  0
  195.0160  175.2890  146.0740 C   0  0  0  0  0  3  0  0  0  0  0  0
  194.2750  174.0500  143.6740 C   0  0  0  0  0  0  0  0  0  0  0  0
  193.5340  175.1460  144.1540 C   0  0  0  0  0  0  0  0  0  0  0  0
  195.3810  173.5860  144.3940 C   0  0  0  0  0  3  0  0  0  0  0  0
  1 15  1  0  0  0  0
  2 13  2  0  0  0  0
  2  3  1  0  0  0  0
  3 20  1  0  0  0  0
  4 16  2  0  0  0  0
  5  2  1  0  0  0  0
  6 18  1  0  0  0  0
  6  1  2  0  0  0  0
  7  3  2  0  0  0  0
  7  4  1  0  0  0  0
  8 14  1  0  0  0  0
  8 13  1  0  0  0  0
  9  1  1  0  0  0  0
 11  4  1  0  0  0  0
 12  8  2  0  0  0  0
 13 19  1  0  0  0  0
 15  5  2  0  0  0  0
 16 21  1  0  0  0  0
 17 12  1  0  0  0  0
 17  5  1  0  0  0  0
 18 17  2  0  0  0  0
 19 10  2  0  0  0  0
 20 10  1  0  0  0  0
 20 21  2  0  0  0  0
 23 22  1  1  0  0  0
 23 30  1  0  0  0  0
 23 14  1  0  0  0  0
 24 28  1  0  0  0  0
 24 27  1  0  0  0  0
 25 28  2  0  0  0  0
 26 29  1  0  0  0  0
 29 30  2  0  0  0  0
 29 31  1  0  0  0  0
 30 25  1  0  0  0  0
 31 24  2  0  0  0  0
M  END
>  <MODEL>
7

>  <REMARK>
 VINA RESULT:      -7.7      1.707      4.374
  Name = 
  2 active torsions:
  status: ('A' for Active; 'I' for Inactive)
    1  A    between atoms: C_5  and  N_16
    2  A    between atoms: C_5  and  C_30
                            x       y       z     vdW  Elec       q    Type
                         _______ _______ _______ _____ _____    ______ ____

>  <TORSDO>
F 2

$$$$
=
 OpenBabel11112416593D

 31 35  0  0  1  0  0  0  0  0999 V2000
  191.3000  176.7480  147.3020 C   0  0  0  0  0  0  0  0  0  0  0  0
  189.1060  176.0280  144.3280 C   0  0  0  0  0  0  0  0  0  0  0  0
  187.8530  176.6750  144.5610 C   0  0  0  0  0  0  0  0  0  0  0  0
  186.3460  178.0400  145.9190 C   0  0  0  0  0  0  0  0  0  0  0  0
  190.2170  176.0590  145.2240 C   0  0  0  0  0  0  0  0  0  0  0  0
  192.4620  176.0700  146.9370 C   0  0  0  0  0  3  0  0  0  0  0  0
  187.5830  177.4210  145.7230 C   0  0  0  0  0  3  0  0  0  0  0  0
  190.4550  174.6460  142.8210 C   0  0  0  0  0  0  0  0  0  0  0  0
  191.2290  177.6090  148.8240 Cl  0  0  0  0  0  0  0  0  0  0  0  0
  187.0400  175.8450  142.4290 C   0  0  0  0  0  3  0  0  0  0  0  0
  186.0510  178.9590  147.3790 Cl  0  0  0  0  0  0  0  0  0  0  0  0
  191.4900  174.7010  143.6980 N   0  0  0  0  0  0  0  0  0  0  0  0
  189.2530  175.3030  143.1110 C   0  0  0  0  0  0  0  0  0  0  0  0
  190.5950  173.9220  141.5940 N   0  0  0  0  0  2  0  0  0  0  0  0
  190.1920  176.7420  146.4540 C   0  0  0  0  0  3  0  0  0  0  0  0
  185.3480  177.9250  144.9530 C   0  0  0  0  0  3  0  0  0  0  0  0
  191.4070  175.3750  144.8690 C   0  0  0  0  0  0  0  0  0  0  0  0
  192.5150  175.3850  145.7240 C   0  0  0  0  0  3  0  0  0  0  0  0
  188.2310  175.2370  142.2170 N   0  0  0  0  0  0  0  0  0  0  0  0
  186.8240  176.5700  143.5920 C   0  0  0  0  0  0  0  0  0  0  0  0
  185.5870  177.1900  143.7910 C   0  0  0  0  0  3  0  0  0  0  0  0
  191.5160  171.8490  141.0310 O   0  0  0  0  0  1  0  0  0  0  0  0
  191.8090  173.1990  141.2410 C   0  0  1  0  0  3  0  0  0  0  0  0
  193.5320  174.9110  137.6870 C   0  0  0  0  0  0  0  0  0  0  0  0
  191.7870  173.6300  138.7680 C   0  0  0  0  0  3  0  0  0  0  0  0
  194.3330  174.7350  141.3760 C   0  0  0  0  0  1  0  0  0  0  0  0
  194.0830  175.4620  136.5380 O   0  0  0  0  0  1  0  0  0  0  0  0
  192.3410  174.1860  137.6120 C   0  0  0  0  0  3  0  0  0  0  0  0
  193.6210  174.5280  140.0800 C   0  0  0  0  0  0  0  0  0  0  0  0
  192.4220  173.7930  140.0090 C   0  0  0  0  0  0  0  0  0  0  0  0
  194.1700  175.0810  138.9190 C   0  0  0  0  0  3  0  0  0  0  0  0
  1  9  1  0  0  0  0
  2  3  1  0  0  0  0
  2  5  1  0  0  0  0
  3  7  1  0  0  0  0
  4 11  1  0  0  0  0
  5 15  1  0  0  0  0
  6  1  1  0  0  0  0
  7  4  2  0  0  0  0
  8 13  1  0  0  0  0
  8 12  2  0  0  0  0
 10 20  1  0  0  0  0
 12 17  1  0  0  0  0
 13  2  2  0  0  0  0
 14  8  1  0  0  0  0
 15  1  2  0  0  0  0
 16  4  1  0  0  0  0
 17  5  2  0  0  0  0
 17 18  1  0  0  0  0
 18  6  2  0  0  0  0
 19 10  2  0  0  0  0
 19 13  1  0  0  0  0
 20 21  1  0  0  0  0
 20  3  2  0  0  0  0
 21 16  2  0  0  0  0
 23 22  1  6  0  0  0
 23 14  1  0  0  0  0
 24 31  1  0  0  0  0
 25 30  2  0  0  0  0
 27 24  1  0  0  0  0
 28 24  2  0  0  0  0
 28 25  1  0  0  0  0
 29 26  1  0  0  0  0
 30 29  1  0  0  0  0
 30 23  1  0  0  0  0
 31 29  2  0  0  0  0
M  END
>  <MODEL>
8

>  <REMARK>
 VINA RESULT:      -7.7      3.167      4.763
  Name = 
  2 active torsions:
  status: ('A' for Active; 'I' for Inactive)
    1  A    between atoms: C_5  and  N_16
    2  A    between atoms: C_5  and  C_30
                            x       y       z     vdW  Elec       q    Type
                         _______ _______ _______ _____ _____    ______ ____

>  <TORSDO>
F 2

$$$$
=
 OpenBabel11112416593D

 31 35  0  0  1  0  0  0  0  0999 V2000
  189.9290  177.4860  147.2730 C   0  0  0  0  0  0  0  0  0  0  0  0
  189.2050  176.1560  143.8260 C   0  0  0  0  0  0  0  0  0  0  0  0
  188.0820  176.8810  143.3200 C   0  0  0  0  0  0  0  0  0  0  0  0
  186.3360  178.5800  143.5290 C   0  0  0  0  0  0  0  0  0  0  0  0
  189.7960  176.3610  145.1090 C   0  0  0  0  0  0  0  0  0  0  0  0
  191.0250  176.7010  147.6290 C   0  0  0  0  0  3  0  0  0  0  0  0
  187.4320  177.8910  144.0540 C   0  0  0  0  0  3  0  0  0  0  0  0
  190.8740  174.4100  143.4180 C   0  0  0  0  0  0  0  0  0  0  0  0
  189.3120  178.6850  148.3880 Cl  0  0  0  0  0  0  0  0  0  0  0  0
  188.1910  175.5980  141.2630 C   0  0  0  0  0  3  0  0  0  0  0  0
  185.5560  179.8290  144.4750 Cl  0  0  0  0  0  0  0  0  0  0  0  0
  191.4090  174.6360  144.6450 N   0  0  0  0  0  0  0  0  0  0  0  0
  189.7730  175.1580  142.9840 C   0  0  0  0  0  0  0  0  0  0  0  0
  191.4410  173.4110  142.5650 N   0  0  0  0  0  2  0  0  0  0  0  0
  189.3230  177.3160  146.0280 C   0  0  0  0  0  3  0  0  0  0  0  0
  185.8650  178.2730  142.2540 C   0  0  0  0  0  3  0  0  0  0  0  0
  190.9110  175.5710  145.4880 C   0  0  0  0  0  0  0  0  0  0  0  0
  191.5140  175.7460  146.7390 C   0  0  0  0  0  3  0  0  0  0  0  0
  189.2550  174.9160  141.7500 N   0  0  0  0  0  0  0  0  0  0  0  0
  187.5860  176.5850  142.0260 C   0  0  0  0  0  0  0  0  0  0  0  0
  186.4890  177.2760  141.5030 C   0  0  0  0  0  3  0  0  0  0  0  0
  192.7400  171.5360  142.0550 O   0  0  0  0  0  1  0  0  0  0  0  0
  192.5720  172.5830  142.9630 C   0  0  1  0  0  3  0  0  0  0  0  0
  196.1330  174.9940  143.1410 C   0  0  0  0  0  0  0  0  0  0  0  0
  194.1870  174.2080  141.9370 C   0  0  0  0  0  3  0  0  0  0  0  0
  194.2660  172.5980  145.3870 C   0  0  0  0  0  1  0  0  0  0  0  0
  197.2790  175.7750  143.1940 O   0  0  0  0  0  1  0  0  0  0  0  0
  195.3410  174.9940  141.9910 C   0  0  0  0  0  3  0  0  0  0  0  0
  194.6180  173.4200  144.1920 C   0  0  0  0  0  0  0  0  0  0  0  0
  193.8180  173.4130  143.0340 C   0  0  0  0  0  0  0  0  0  0  0  0
  195.7710  174.2090  144.2390 C   0  0  0  0  0  3  0  0  0  0  0  0
  1  6  1  0  0  0  0
  1  9  1  0  0  0  0
  2  5  1  0  0  0  0
  3  2  1  0  0  0  0
  3  7  1  0  0  0  0
  4  7  2  0  0  0  0
  4 11  1  0  0  0  0
  5 17  2  0  0  0  0
  5 15  1  0  0  0  0
  8 12  2  0  0  0  0
 10 19  2  0  0  0  0
 10 20  1  0  0  0  0
 12 17  1  0  0  0  0
 13  8  1  0  0  0  0
 13  2  2  0  0  0  0
 14 23  1  0  0  0  0
 14  8  1  0  0  0  0
 15  1  2  0  0  0  0
 16  4  1  0  0  0  0
 17 18  1  0  0  0  0
 18  6  2  0  0  0  0
 19 13  1  0  0  0  0
 20  3  2  0  0  0  0
 21 20  1  0  0  0  0
 21 16  2  0  0  0  0
 23 22  1  6  0  0  0
 23 30  1  0  0  0  0
 24 27  1  0  0  0  0
 24 31  1  0  0  0  0
 25 28  1  0  0  0  0
 25 30  2  0  0  0  0
 28 24  2  0  0  0  0
 29 31  2  0  0  0  0
 29 26  1  0  0  0  0
 30 29  1  0  0  0  0
M  END
>  <MODEL>
9

>  <REMARK>
 VINA RESULT:      -7.6      2.144      3.011
  Name = 
  2 active torsions:
  status: ('A' for Active; 'I' for Inactive)
    1  A    between atoms: C_5  and  N_16
    2  A    between atoms: C_5  and  C_30
                            x       y       z     vdW  Elec       q    Type
                         _______ _______ _______ _____ _____    ______ ____

>  <TORSDO>
F 2

$$$$
