=
 OpenBabel11112417393D

 28 32  0  0  1  0  0  0  0  0999 V2000
  190.5740  174.5050  143.7530 C   0  0  0  0  0  0  0  0  0  0  0  0
  185.9910  176.2880  145.3530 F   0  0  0  0  0  0  0  0  0  0  0  0
  188.5040  174.7260  139.6800 O   0  0  0  0  0  0  0  0  0  0  0  0
  191.9480  176.7820  142.8780 C   0  0  0  0  0  3  0  0  0  0  0  0
  187.4060  176.3910  140.9290 N   0  0  0  0  0  0  0  0  0  0  0  0
  189.8640  173.3660  144.1360 O   0  0  0  0  0  0  0  0  0  0  0  0
  187.6430  177.1380  146.8070 C   0  0  0  0  0  1  0  0  0  0  0  0
  186.9320  177.2970  145.4770 C   0  0  1  0  0  0  0  0  0  0  0  0
  185.9220  179.1810  144.3610 C   0  0  0  0  0  0  0  0  0  0  0  0
  187.9620  177.2310  144.3330 C   0  0  2  0  0  3  0  0  0  0  0  0
  190.2770  172.8480  141.1450 O   0  0  0  0  0  1  0  0  0  0  0  0
  187.4730  175.2330  143.0110 C   0  0  1  0  0  3  0  0  0  0  0  0
  186.3370  178.6710  143.1270 O   0  0  0  0  0  0  0  0  0  0  0  0
  186.2410  178.5820  145.4660 N   0  0  0  0  0  0  0  0  0  0  0  0
  189.3690  172.2510  142.0230 C   0  0  2  0  0  3  0  0  0  0  0  0
  189.9090  175.7400  143.7070 C   0  0  0  0  0  0  0  0  0  0  0  0
  188.0710  175.1550  140.7830 C   0  0  0  0  0  0  0  0  0  0  0  0
  185.1240  180.4340  144.4070 C   0  0  0  0  0  1  0  0  0  0  0  0
  188.0070  172.9540  141.9880 C   0  0  0  0  0  2  0  0  0  0  0  0
  190.6050  176.8740  143.2520 C   0  0  0  0  0  3  0  0  0  0  0  0
  191.9210  174.4160  143.3720 C   0  0  0  0  0  3  0  0  0  0  0  0
  192.6070  175.5530  142.9410 C   0  0  0  0  0  3  0  0  0  0  0  0
  189.9620  172.1360  143.4290 C   0  0  0  0  0  2  0  0  0  0  0  0
  186.8650  176.4500  142.2770 C   0  0  1  0  0  3  0  0  0  0  0  0
  188.1270  174.4120  141.9870 N   0  0  0  0  0  0  0  0  0  0  0  0
  187.3680  177.6900  142.9970 C   0  0  2  0  0  3  0  0  0  0  0  0
  186.9350  177.2100  139.8250 C   0  0  0  0  0  1  0  0  0  0  0  0
  188.4370  175.8010  144.0750 C   0  0  1  0  0  3  0  0  0  0  0  0
  1  6  1  0  0  0  0
  2  8  1  0  0  0  0
  3 17  2  0  0  0  0
  4 22  2  0  0  0  0
  4 20  1  0  0  0  0
  5 24  1  0  0  0  0
  8  7  1  1  0  0  0
  9 18  1  0  0  0  0
  9 14  2  0  0  0  0
 10  8  1  0  0  0  0
 11 15  1  0  0  0  0
 12 28  1  0  0  0  0
 13  9  1  0  0  0  0
 14  8  1  0  0  0  0
 15 23  1  0  0  0  0
 16  1  1  0  0  0  0
 16 28  1  0  0  0  0
 17  5  1  0  0  0  0
 17 25  1  0  0  0  0
 19 15  1  0  0  0  0
 20 16  2  0  0  0  0
 21  1  2  0  0  0  0
 22 21  1  0  0  0  0
 23  6  1  0  0  0  0
 24 26  1  0  0  0  0
 24 12  1  0  0  0  0
 25 19  1  0  0  0  0
 25 12  1  0  0  0  0
 26 13  1  0  0  0  0
 26 10  1  0  0  0  0
 27  5  1  0  0  0  0
 28 10  1  0  0  0  0
M  END
>  <MODEL>
1

>  <REMARK>
 VINA RESULT:      -8.2      0.000      0.000
  Name = 
  0 active torsions:
  status: ('A' for Active; 'I' for Inactive)
                            x       y       z     vdW  Elec       q    Type
                         _______ _______ _______ _____ _____    ______ ____

>  <TORSDO>
F 0

$$$$
=
 OpenBabel11112417393D

 28 32  0  0  1  0  0  0  0  0999 V2000
  190.7870  174.0990  143.0510 C   0  0  0  0  0  0  0  0  0  0  0  0
  188.0000  178.3650  143.9260 F   0  0  0  0  0  0  0  0  0  0  0  0
  193.2750  175.8070  146.4890 O   0  0  0  0  0  0  0  0  0  0  0  0
  189.8890  172.2670  144.9670 C   0  0  0  0  0  3  0  0  0  0  0  0
  191.1210  176.6560  146.9130 N   0  0  0  0  0  0  0  0  0  0  0  0
  191.2730  175.0340  142.1360 O   0  0  0  0  0  0  0  0  0  0  0  0
  186.5280  176.6870  143.1610 C   0  0  0  0  0  1  0  0  0  0  0  0
  187.2750  177.2630  144.3490 C   0  0  1  0  0  0  0  0  0  0  0  0
  186.6150  177.8230  146.6000 C   0  0  0  0  0  0  0  0  0  0  0  0
  188.2080  176.1880  144.9400 C   0  0  2  0  0  3  0  0  0  0  0  0
  193.7560  174.5220  143.8560 O   0  0  0  0  0  1  0  0  0  0  0  0
  190.5100  176.9510  144.6290 C   0  0  1  0  0  3  0  0  0  0  0  0
  187.8720  177.4280  147.0660 O   0  0  0  0  0  0  0  0  0  0  0  0
  186.3040  177.6990  145.3470 N   0  0  0  0  0  0  0  0  0  0  0  0
  193.4930  175.5830  142.9870 C   0  0  2  0  0  3  0  0  0  0  0  0
  189.8780  174.5160  144.0350 C   0  0  0  0  0  0  0  0  0  0  0  0
  192.1640  176.2260  146.0650 C   0  0  0  0  0  0  0  0  0  0  0  0
  185.6180  178.3740  147.5540 C   0  0  0  0  0  1  0  0  0  0  0  0
  192.8950  176.7840  143.7300 C   0  0  0  0  0  2  0  0  0  0  0  0
  189.4450  173.5910  145.0010 C   0  0  0  0  0  3  0  0  0  0  0  0
  191.2340  172.7700  143.0220 C   0  0  0  0  0  3  0  0  0  0  0  0
  190.7810  171.8550  143.9750 C   0  0  0  0  0  3  0  0  0  0  0  0
  192.6510  175.1200  141.7950 C   0  0  0  0  0  2  0  0  0  0  0  0
  190.0960  177.2680  146.0830 C   0  0  1  0  0  3  0  0  0  0  0  0
  191.8650  176.3930  144.6920 N   0  0  0  0  0  0  0  0  0  0  0  0
  188.7550  176.5920  146.3130 C   0  0  2  0  0  3  0  0  0  0  0  0
  191.2610  176.8890  148.3410 C   0  0  0  0  0  1  0  0  0  0  0  0
  189.4500  175.9720  144.0760 C   0  0  1  0  0  3  0  0  0  0  0  0
  1 16  1  0  0  0  0
  2  8  1  0  0  0  0
  4 20  1  0  0  0  0
  5 27  1  0  0  0  0
  6  1  1  0  0  0  0
  8  7  1  6  0  0  0
  8 10  1  0  0  0  0
  8 14  1  0  0  0  0
  9 13  1  0  0  0  0
  9 18  1  0  0  0  0
 10 26  1  0  0  0  0
 12 25  1  0  0  0  0
 12 24  1  0  0  0  0
 14  9  2  0  0  0  0
 15 19  1  0  0  0  0
 15 11  1  0  0  0  0
 16 28  1  0  0  0  0
 16 20  2  0  0  0  0
 17  3  2  0  0  0  0
 17  5  1  0  0  0  0
 19 25  1  0  0  0  0
 21  1  2  0  0  0  0
 21 22  1  0  0  0  0
 22  4  2  0  0  0  0
 23  6  1  0  0  0  0
 23 15  1  0  0  0  0
 24 26  1  0  0  0  0
 24  5  1  0  0  0  0
 25 17  1  0  0  0  0
 26 13  1  0  0  0  0
 28 12  1  0  0  0  0
 28 10  1  0  0  0  0
M  END
>  <MODEL>
2

>  <REMARK>
 VINA RESULT:      -8.1      2.626      4.614
  Name = 
  0 active torsions:
  status: ('A' for Active; 'I' for Inactive)
                            x       y       z     vdW  Elec       q    Type
                         _______ _______ _______ _____ _____    ______ ____

>  <TORSDO>
F 0

$$$$
=
 OpenBabel11112417393D

 28 32  0  0  1  0  0  0  0  0999 V2000
  189.6330  176.5260  145.0830 C   0  0  0  0  0  0  0  0  0  0  0  0
  194.6550  176.0440  143.9490 F   0  0  0  0  0  0  0  0  0  0  0  0
  189.4050  172.5780  142.7830 O   0  0  0  0  0  0  0  0  0  0  0  0
  189.2650  174.9190  147.3450 C   0  0  0  0  0  3  0  0  0  0  0  0
  191.5910  172.5640  143.6550 N   0  0  0  0  0  0  0  0  0  0  0  0
  189.8080  177.2790  143.9210 O   0  0  0  0  0  0  0  0  0  0  0  0
  194.4870  177.1690  146.0170 C   0  0  0  0  0  1  0  0  0  0  0  0
  194.4800  175.8280  145.3070 C   0  0  1  0  0  0  0  0  0  0  0  0
  195.6070  173.7370  145.7190 C   0  0  0  0  0  0  0  0  0  0  0  0
  193.1450  175.1090  145.5800 C   0  0  2  0  0  3  0  0  0  0  0  0
  187.8690  175.1130  142.9540 O   0  0  0  0  0  1  0  0  0  0  0  0
  191.9610  174.9090  143.4500 C   0  0  1  0  0  3  0  0  0  0  0  0
  194.4850  173.0420  145.2590 O   0  0  0  0  0  0  0  0  0  0  0  0
  195.5980  175.0310  145.8000 N   0  0  0  0  0  0  0  0  0  0  0  0
  188.6770  175.9680  142.2020 C   0  0  2  0  0  3  0  0  0  0  0  0
  190.6920  175.7290  145.5470 C   0  0  0  0  0  0  0  0  0  0  0  0
  190.4430  173.2000  143.1360 C   0  0  0  0  0  0  0  0  0  0  0  0
  196.8160  172.9820  146.1380 C   0  0  0  0  0  1  0  0  0  0  0  0
  190.0150  175.3090  141.8450 C   0  0  0  0  0  2  0  0  0  0  0  0
  190.4910  174.9160  146.6750 C   0  0  0  0  0  3  0  0  0  0  0  0
  188.4020  176.5230  145.7560 C   0  0  0  0  0  3  0  0  0  0  0  0
  188.2220  175.7250  146.8880 C   0  0  0  0  0  3  0  0  0  0  0  0
  188.8290  177.3260  142.8910 C   0  0  0  0  0  2  0  0  0  0  0  0
  192.6500  173.5570  143.7410 C   0  0  1  0  0  3  0  0  0  0  0  0
  190.6090  174.5960  142.9760 N   0  0  0  0  0  0  0  0  0  0  0  0
  193.1880  173.6370  145.1600 C   0  0  2  0  0  3  0  0  0  0  0  0
  191.8180  171.1290  143.6380 C   0  0  0  0  0  1  0  0  0  0  0  0
  191.9970  175.7100  144.7710 C   0  0  1  0  0  3  0  0  0  0  0  0
  1 16  2  0  0  0  0
  1 21  1  0  0  0  0
  2  8  1  0  0  0  0
  3 17  2  0  0  0  0
  5 24  1  0  0  0  0
  6  1  1  0  0  0  0
  8 10  1  0  0  0  0
  8 14  1  0  0  0  0
  8  7  1  1  0  0  0
  9 14  2  0  0  0  0
  9 18  1  0  0  0  0
 12 24  1  0  0  0  0
 12 28  1  0  0  0  0
 13  9  1  0  0  0  0
 15 23  1  0  0  0  0
 15 11  1  0  0  0  0
 16 20  1  0  0  0  0
 17  5  1  0  0  0  0
 19 15  1  0  0  0  0
 19 25  1  0  0  0  0
 20  4  2  0  0  0  0
 21 22  2  0  0  0  0
 22  4  1  0  0  0  0
 23  6  1  0  0  0  0
 24 26  1  0  0  0  0
 25 17  1  0  0  0  0
 25 12  1  0  0  0  0
 26 13  1  0  0  0  0
 26 10  1  0  0  0  0
 27  5  1  0  0  0  0
 28 16  1  0  0  0  0
 28 10  1  0  0  0  0
M  END
>  <MODEL>
3

>  <REMARK>
 VINA RESULT:      -7.9      3.582      6.604
  Name = 
  0 active torsions:
  status: ('A' for Active; 'I' for Inactive)
                            x       y       z     vdW  Elec       q    Type
                         _______ _______ _______ _____ _____    ______ ____

>  <TORSDO>
F 0

$$$$
=
 OpenBabel11112417393D

 28 32  0  0  1  0  0  0  0  0999 V2000
  190.2090  175.0420  142.4830 C   0  0  0  0  0  0  0  0  0  0  0  0
  187.0710  179.0310  141.4930 F   0  0  0  0  0  0  0  0  0  0  0  0
  189.0200  176.0190  146.7910 O   0  0  0  0  0  0  0  0  0  0  0  0
  188.4900  172.8540  142.7890 C   0  0  0  0  0  3  0  0  0  0  0  0
  187.1660  176.7580  145.5430 N   0  0  0  0  0  0  0  0  0  0  0  0
  191.0580  176.1460  142.3880 O   0  0  0  0  0  0  0  0  0  0  0  0
  186.9390  177.5410  139.6690 C   0  0  0  0  0  1  0  0  0  0  0  0
  186.4570  177.8630  141.0710 C   0  0  1  0  0  0  0  0  0  0  0  0
  184.2710  177.9500  142.0850 C   0  0  0  0  0  0  0  0  0  0  0  0
  186.7970  176.6930  142.0140 C   0  0  2  0  0  3  0  0  0  0  0  0
  191.4850  175.3010  145.3010 O   0  0  0  0  0  1  0  0  0  0  0  0
  188.4120  177.5110  143.6570 C   0  0  1  0  0  3  0  0  0  0  0  0
  184.8090  177.4720  143.2830 O   0  0  0  0  0  0  0  0  0  0  0  0
  185.0150  178.0840  141.0310 N   0  0  0  0  0  0  0  0  0  0  0  0
  191.7910  176.5170  144.6850 C   0  0  2  0  0  3  0  0  0  0  0  0
  188.8200  175.2470  142.4800 C   0  0  0  0  0  0  0  0  0  0  0  0
  188.5420  176.5130  145.7340 C   0  0  0  0  0  0  0  0  0  0  0  0
  182.8260  178.2910  142.0130 C   0  0  0  0  0  1  0  0  0  0  0  0
  190.6620  177.5390  144.8660 C   0  0  0  0  0  2  0  0  0  0  0  0
  187.9670  174.1420  142.6480 C   0  0  0  0  0  3  0  0  0  0  0  0
  190.7300  173.7490  142.6290 C   0  0  0  0  0  3  0  0  0  0  0  0
  189.8720  172.6570  142.7760 C   0  0  0  0  0  3  0  0  0  0  0  0
  192.1960  176.3050  143.2240 C   0  0  0  0  0  2  0  0  0  0  0  0
  187.0150  177.5230  144.3170 C   0  0  1  0  0  3  0  0  0  0  0  0
  189.3380  176.9560  144.6500 N   0  0  0  0  0  0  0  0  0  0  0  0
  186.0740  176.8100  143.3590 C   0  0  2  0  0  3  0  0  0  0  0  0
  186.1630  176.6940  146.5930 C   0  0  0  0  0  1  0  0  0  0  0  0
  188.2820  176.6620  142.3730 C   0  0  1  0  0  3  0  0  0  0  0  0
  1 21  1  0  0  0  0
  5 17  1  0  0  0  0
  5 27  1  0  0  0  0
  6  1  1  0  0  0  0
  6 23  1  0  0  0  0
  8  7  1  6  0  0  0
  8  2  1  0  0  0  0
  8 10  1  0  0  0  0
  9 13  1  0  0  0  0
 10 28  1  0  0  0  0
 10 26  1  0  0  0  0
 12 24  1  0  0  0  0
 12 25  1  0  0  0  0
 13 26  1  0  0  0  0
 14  8  1  0  0  0  0
 14  9  2  0  0  0  0
 15 19  1  0  0  0  0
 15 11  1  0  0  0  0
 16  1  2  0  0  0  0
 16 20  1  0  0  0  0
 17  3  2  0  0  0  0
 18  9  1  0  0  0  0
 20  4  2  0  0  0  0
 21 22  2  0  0  0  0
 22  4  1  0  0  0  0
 23 15  1  0  0  0  0
 24  5  1  0  0  0  0
 25 19  1  0  0  0  0
 25 17  1  0  0  0  0
 26 24  1  0  0  0  0
 28 16  1  0  0  0  0
 28 12  1  0  0  0  0
M  END
>  <MODEL>
4

>  <REMARK>
 VINA RESULT:      -7.9      2.245      4.331
  Name = 
  0 active torsions:
  status: ('A' for Active; 'I' for Inactive)
                            x       y       z     vdW  Elec       q    Type
                         _______ _______ _______ _____ _____    ______ ____

>  <TORSDO>
F 0

$$$$
=
 OpenBabel11112417393D

 28 32  0  0  1  0  0  0  0  0999 V2000
  191.3440  173.8640  142.7070 C   0  0  0  0  0  0  0  0  0  0  0  0
  188.9300  178.4190  142.3110 F   0  0  0  0  0  0  0  0  0  0  0  0
  192.8180  175.7230  146.6180 O   0  0  0  0  0  0  0  0  0  0  0  0
  189.6920  172.3340  144.3700 C   0  0  0  0  0  3  0  0  0  0  0  0
  190.7510  176.7910  146.2630 N   0  0  0  0  0  0  0  0  0  0  0  0
  192.1940  174.6490  141.9260 O   0  0  0  0  0  0  0  0  0  0  0  0
  187.5870  176.7970  141.2470 C   0  0  0  0  0  1  0  0  0  0  0  0
  187.9880  177.4340  142.5630 C   0  0  1  0  0  0  0  0  0  0  0  0
  186.7300  178.2910  144.4330 C   0  0  0  0  0  0  0  0  0  0  0  0
  188.5620  176.3560  143.5030 C   0  0  2  0  0  3  0  0  0  0  0  0
  193.9430  174.1220  144.3850 O   0  0  0  0  0  1  0  0  0  0  0  0
  190.9180  176.8840  143.8880 C   0  0  1  0  0  3  0  0  0  0  0  0
  187.7260  177.8450  145.3070 O   0  0  0  0  0  0  0  0  0  0  0  0
  186.8120  178.0570  143.1600 N   0  0  0  0  0  0  0  0  0  0  0  0
  194.0870  175.0990  143.3990 C   0  0  2  0  0  3  0  0  0  0  0  0
  190.2280  174.4610  143.3130 C   0  0  0  0  0  0  0  0  0  0  0  0
  191.9490  176.1850  145.8300 C   0  0  0  0  0  0  0  0  0  0  0  0
  185.5560  179.0240  144.9720 C   0  0  0  0  0  1  0  0  0  0  0  0
  193.4290  176.4210  143.8160 C   0  0  0  0  0  2  0  0  0  0  0  0
  189.4140  173.6860  144.1570 C   0  0  0  0  0  3  0  0  0  0  0  0
  191.6230  172.5060  142.9250 C   0  0  0  0  0  3  0  0  0  0  0  0
  190.7950  171.7430  143.7500 C   0  0  0  0  0  3  0  0  0  0  0  0
  193.6100  174.5810  142.0400 C   0  0  0  0  0  2  0  0  0  0  0  0
  190.1120  177.3920  145.1040 C   0  0  1  0  0  3  0  0  0  0  0  0
  192.1130  176.2250  144.4240 N   0  0  0  0  0  0  0  0  0  0  0  0
  188.6970  176.8600  144.9430 C   0  0  2  0  0  3  0  0  0  0  0  0
  190.4650  177.1660  147.6380 C   0  0  0  0  0  1  0  0  0  0  0  0
  189.9780  175.9430  143.1020 C   0  0  1  0  0  3  0  0  0  0  0  0
  1 21  2  0  0  0  0
  1 16  1  0  0  0  0
  2  8  1  0  0  0  0
  5 27  1  0  0  0  0
  6 23  1  0  0  0  0
  6  1  1  0  0  0  0
  8  7  1  6  0  0  0
  8 14  1  0  0  0  0
  8 10  1  0  0  0  0
  9 18  1  0  0  0  0
  9 13  1  0  0  0  0
 10 26  1  0  0  0  0
 12 25  1  0  0  0  0
 12 24  1  0  0  0  0
 14  9  2  0  0  0  0
 15 19  1  0  0  0  0
 15 11  1  0  0  0  0
 16 20  2  0  0  0  0
 17  5  1  0  0  0  0
 17  3  2  0  0  0  0
 19 25  1  0  0  0  0
 20  4  1  0  0  0  0
 21 22  1  0  0  0  0
 22  4  2  0  0  0  0
 23 15  1  0  0  0  0
 24  5  1  0  0  0  0
 25 17  1  0  0  0  0
 26 24  1  0  0  0  0
 26 13  1  0  0  0  0
 28 16  1  0  0  0  0
 28 10  1  0  0  0  0
 28 12  1  0  0  0  0
M  END
>  <MODEL>
5

>  <REMARK>
 VINA RESULT:      -7.6      2.499      4.535
  Name = 
  0 active torsions:
  status: ('A' for Active; 'I' for Inactive)
                            x       y       z     vdW  Elec       q    Type
                         _______ _______ _______ _____ _____    ______ ____

>  <TORSDO>
F 0

$$$$
=
 OpenBabel11112417393D

 28 32  0  0  1  0  0  0  0  0999 V2000
  187.4090  176.6560  143.7940 C   0  0  0  0  0  0  0  0  0  0  0  0
  189.4420  172.1370  145.2710 F   0  0  0  0  0  0  0  0  0  0  0  0
  189.6740  178.1360  147.4830 O   0  0  0  0  0  0  0  0  0  0  0  0
  189.4590  177.9160  142.3630 C   0  0  0  0  0  3  0  0  0  0  0  0
  190.9270  176.2650  146.8000 N   0  0  0  0  0  0  0  0  0  0  0  0
  186.4100  176.0510  144.5580 O   0  0  0  0  0  0  0  0  0  0  0  0
  189.2480  172.1060  142.9200 C   0  0  0  0  0  1  0  0  0  0  0  0
  190.0740  172.5540  144.1110 C   0  0  1  0  0  0  0  0  0  0  0  0
  192.4220  172.4110  144.6380 C   0  0  0  0  0  0  0  0  0  0  0  0
  190.2200  174.0880  144.0880 C   0  0  2  0  0  3  0  0  0  0  0  0
  187.0170  178.5490  146.2240 O   0  0  0  0  0  1  0  0  0  0  0  0
  189.0690  174.9720  146.0550 C   0  0  1  0  0  3  0  0  0  0  0  0
  192.3520  173.6480  145.2840 O   0  0  0  0  0  0  0  0  0  0  0  0
  191.3840  171.9160  144.0390 N   0  0  0  0  0  0  0  0  0  0  0  0
  186.3550  177.3800  146.6040 C   0  0  2  0  0  3  0  0  0  0  0  0
  188.6820  176.0680  143.7460 C   0  0  0  0  0  0  0  0  0  0  0  0
  189.7280  176.9900  146.9600 C   0  0  0  0  0  0  0  0  0  0  0  0
  193.7060  171.6630  144.6210 C   0  0  0  0  0  1  0  0  0  0  0  0
  187.3120  176.3790  147.2630 C   0  0  0  0  0  2  0  0  0  0  0  0
  189.7080  176.7170  143.0360 C   0  0  0  0  0  3  0  0  0  0  0  0
  187.1640  177.8620  143.1210 C   0  0  0  0  0  3  0  0  0  0  0  0
  188.1850  178.4860  142.4020 C   0  0  0  0  0  3  0  0  0  0  0  0
  185.5660  176.7910  145.4310 C   0  0  0  0  0  2  0  0  0  0  0  0
  190.5800  174.9190  146.3720 C   0  0  1  0  0  3  0  0  0  0  0  0
  188.5840  176.2650  146.5480 N   0  0  0  0  0  0  0  0  0  0  0  0
  191.2880  174.5790  145.0700 C   0  0  2  0  0  3  0  0  0  0  0  0
  192.1970  176.6250  147.4090 C   0  0  0  0  0  1  0  0  0  0  0  0
  188.9360  174.7910  144.5260 C   0  0  1  0  0  3  0  0  0  0  0  0
  1  6  1  0  0  0  0
  4 22  2  0  0  0  0
  4 20  1  0  0  0  0
  5 17  1  0  0  0  0
  5 27  1  0  0  0  0
  6 23  1  0  0  0  0
  8  7  1  6  0  0  0
  8  2  1  0  0  0  0
  9 13  1  0  0  0  0
 10  8  1  0  0  0  0
 10 28  1  0  0  0  0
 10 26  1  0  0  0  0
 11 15  1  0  0  0  0
 12 24  1  0  0  0  0
 12 25  1  0  0  0  0
 14  8  1  0  0  0  0
 14  9  2  0  0  0  0
 15 19  1  0  0  0  0
 16  1  1  0  0  0  0
 16 28  1  0  0  0  0
 17  3  2  0  0  0  0
 18  9  1  0  0  0  0
 20 16  2  0  0  0  0
 21  1  2  0  0  0  0
 22 21  1  0  0  0  0
 23 15  1  0  0  0  0
 24  5  1  0  0  0  0
 25 17  1  0  0  0  0
 25 19  1  0  0  0  0
 26 13  1  0  0  0  0
 26 24  1  0  0  0  0
 28 12  1  0  0  0  0
M  END
>  <MODEL>
6

>  <REMARK>
 VINA RESULT:      -7.4      2.883      6.457
  Name = 
  0 active torsions:
  status: ('A' for Active; 'I' for Inactive)
                            x       y       z     vdW  Elec       q    Type
                         _______ _______ _______ _____ _____    ______ ____

>  <TORSDO>
F 0

$$$$
=
 OpenBabel11112417393D

 28 32  0  0  1  0  0  0  0  0999 V2000
  190.4710  176.4180  145.0050 C   0  0  0  0  0  0  0  0  0  0  0  0
  185.3800  176.5090  144.1070 F   0  0  0  0  0  0  0  0  0  0  0  0
  190.3750  173.4730  141.5050 O   0  0  0  0  0  0  0  0  0  0  0  0
  191.5490  178.1950  143.1300 C   0  0  0  0  0  3  0  0  0  0  0  0
  188.5080  174.8470  141.1010 N   0  0  0  0  0  0  0  0  0  0  0  0
  189.9370  175.4890  145.8990 O   0  0  0  0  0  0  0  0  0  0  0  0
  186.0070  178.6340  144.9180 C   0  0  0  0  0  1  0  0  0  0  0  0
  185.9260  177.7190  143.7110 C   0  0  1  0  0  0  0  0  0  0  0  0
  185.1100  178.0230  141.4620 C   0  0  0  0  0  0  0  0  0  0  0  0
  187.3360  177.5180  143.1220 C   0  0  2  0  0  3  0  0  0  0  0  0
  191.7060  173.7000  144.1500 O   0  0  0  0  0  1  0  0  0  0  0  0
  187.9210  175.1600  143.3890 C   0  0  1  0  0  3  0  0  0  0  0  0
  186.1190  177.1820  140.9840 O   0  0  0  0  0  0  0  0  0  0  0  0
  185.0430  178.3270  142.7210 N   0  0  0  0  0  0  0  0  0  0  0  0
  190.6640  173.3370  145.0070 C   0  0  2  0  0  3  0  0  0  0  0  0
  189.6370  176.9830  144.0280 C   0  0  0  0  0  0  0  0  0  0  0  0
  189.4250  174.1790  141.9390 C   0  0  0  0  0  0  0  0  0  0  0  0
  184.1170  178.5910  140.5140 C   0  0  0  0  0  1  0  0  0  0  0  0
  189.3330  173.2150  144.2550 C   0  0  0  0  0  2  0  0  0  0  0  0
  190.1920  177.8630  143.0820 C   0  0  0  0  0  3  0  0  0  0  0  0
  191.8330  176.7510  145.0470 C   0  0  0  0  0  3  0  0  0  0  0  0
  192.3680  177.6420  144.1140 C   0  0  0  0  0  3  0  0  0  0  0  0
  190.5990  174.2720  146.2180 C   0  0  0  0  0  2  0  0  0  0  0  0
  187.4390  175.3690  141.9360 C   0  0  1  0  0  3  0  0  0  0  0  0
  189.1170  174.3140  143.3140 N   0  0  0  0  0  0  0  0  0  0  0  0
  187.2940  176.8680  141.7360 C   0  0  2  0  0  3  0  0  0  0  0  0
  188.3930  174.6340  139.6670 C   0  0  0  0  0  1  0  0  0  0  0  0
  188.1780  176.5670  143.9710 C   0  0  1  0  0  3  0  0  0  0  0  0
  1 21  1  0  0  0  0
  1  6  1  0  0  0  0
  3 17  2  0  0  0  0
  4 22  1  0  0  0  0
  5 24  1  0  0  0  0
  5 17  1  0  0  0  0
  6 23  1  0  0  0  0
  8  2  1  0  0  0  0
  8  7  1  1  0  0  0
  9 14  2  0  0  0  0
 10  8  1  0  0  0  0
 10 28  1  0  0  0  0
 11 15  1  0  0  0  0
 12 28  1  0  0  0  0
 13  9  1  0  0  0  0
 13 26  1  0  0  0  0
 14  8  1  0  0  0  0
 15 23  1  0  0  0  0
 16  1  2  0  0  0  0
 17 25  1  0  0  0  0
 18  9  1  0  0  0  0
 19 15  1  0  0  0  0
 20  4  2  0  0  0  0
 20 16  1  0  0  0  0
 22 21  2  0  0  0  0
 24 12  1  0  0  0  0
 25 12  1  0  0  0  0
 25 19  1  0  0  0  0
 26 24  1  0  0  0  0
 26 10  1  0  0  0  0
 27  5  1  0  0  0  0
 28 16  1  0  0  0  0
M  END
>  <MODEL>
7

>  <REMARK>
 VINA RESULT:      -7.3      1.773      2.467
  Name = 
  0 active torsions:
  status: ('A' for Active; 'I' for Inactive)
                            x       y       z     vdW  Elec       q    Type
                         _______ _______ _______ _____ _____    ______ ____

>  <TORSDO>
F 0

$$$$
=
 OpenBabel11112417393D

 28 32  0  0  1  0  0  0  0  0999 V2000
  191.1340  176.8970  145.2590 C   0  0  0  0  0  0  0  0  0  0  0  0
  195.2880  175.5220  142.5030 F   0  0  0  0  0  0  0  0  0  0  0  0
  189.6890  172.7680  143.9190 O   0  0  0  0  0  0  0  0  0  0  0  0
  191.5000  175.6650  147.7450 C   0  0  0  0  0  3  0  0  0  0  0  0
  192.0310  172.5360  143.9370 N   0  0  0  0  0  0  0  0  0  0  0  0
  190.9270  177.4610  143.9990 O   0  0  0  0  0  0  0  0  0  0  0  0
  196.0180  176.9130  144.2630 C   0  0  0  0  0  1  0  0  0  0  0  0
  195.6190  175.5090  143.8480 C   0  0  1  0  0  0  0  0  0  0  0  0
  196.6190  173.3420  144.1870 C   0  0  0  0  0  0  0  0  0  0  0  0
  194.4260  175.0410  144.7030 C   0  0  2  0  0  3  0  0  0  0  0  0
  188.5740  175.5070  144.1840 O   0  0  0  0  0  1  0  0  0  0  0  0
  192.5120  174.7520  143.2080 C   0  0  1  0  0  3  0  0  0  0  0  0
  195.3470  172.7720  144.2880 O   0  0  0  0  0  0  0  0  0  0  0  0
  196.7620  174.6220  144.0380 N   0  0  0  0  0  0  0  0  0  0  0  0
  189.1130  176.1280  143.0550 C   0  0  2  0  0  3  0  0  0  0  0  0
  192.2110  176.0150  145.4430 C   0  0  0  0  0  0  0  0  0  0  0  0
  190.8360  173.2660  143.7620 C   0  0  0  0  0  0  0  0  0  0  0  0
  197.8210  172.4720  144.2690 C   0  0  0  0  0  1  0  0  0  0  0  0
  190.1500  175.2340  142.3630 C   0  0  0  0  0  2  0  0  0  0  0  0
  192.3760  175.3910  146.6920 C   0  0  0  0  0  3  0  0  0  0  0  0
  190.2540  177.1650  146.3170 C   0  0  0  0  0  3  0  0  0  0  0  0
  190.4410  176.5550  147.5590 C   0  0  0  0  0  3  0  0  0  0  0  0
  189.6400  177.5240  143.3970 C   0  0  0  0  0  2  0  0  0  0  0  0
  193.1310  173.3600  143.4630 C   0  0  1  0  0  3  0  0  0  0  0  0
  191.0580  174.5900  143.3120 N   0  0  0  0  0  0  0  0  0  0  0  0
  194.1700  173.5370  144.5580 C   0  0  2  0  0  3  0  0  0  0  0  0
  192.1010  171.0920  144.0910 C   0  0  0  0  0  1  0  0  0  0  0  0
  193.1180  175.7010  144.2670 C   0  0  1  0  0  3  0  0  0  0  0  0
  1 16  2  0  0  0  0
  1 21  1  0  0  0  0
  2  8  1  0  0  0  0
  5 27  1  0  0  0  0
  6  1  1  0  0  0  0
  8 14  1  0  0  0  0
  8  7  1  1  0  0  0
  8 10  1  0  0  0  0
  9 18  1  0  0  0  0
  9 13  1  0  0  0  0
 12 25  1  0  0  0  0
 12 24  1  0  0  0  0
 12 28  1  0  0  0  0
 13 26  1  0  0  0  0
 14  9  2  0  0  0  0
 15 23  1  0  0  0  0
 15 11  1  0  0  0  0
 16 20  1  0  0  0  0
 17  3  2  0  0  0  0
 17  5  1  0  0  0  0
 19 15  1  0  0  0  0
 19 25  1  0  0  0  0
 20  4  2  0  0  0  0
 21 22  2  0  0  0  0
 22  4  1  0  0  0  0
 23  6  1  0  0  0  0
 24  5  1  0  0  0  0
 24 26  1  0  0  0  0
 25 17  1  0  0  0  0
 26 10  1  0  0  0  0
 28 10  1  0  0  0  0
 28 16  1  0  0  0  0
M  END
>  <MODEL>
8

>  <REMARK>
 VINA RESULT:      -6.9      3.947      7.224
  Name = 
  0 active torsions:
  status: ('A' for Active; 'I' for Inactive)
                            x       y       z     vdW  Elec       q    Type
                         _______ _______ _______ _____ _____    ______ ____

>  <TORSDO>
F 0

$$$$
=
 OpenBabel11112417393D

 28 32  0  0  1  0  0  0  0  0999 V2000
  193.2860  174.3910  144.3700 C   0  0  0  0  0  0  0  0  0  0  0  0
  188.5750  175.4050  146.2440 F   0  0  0  0  0  0  0  0  0  0  0  0
  190.8280  172.4600  141.0300 O   0  0  0  0  0  0  0  0  0  0  0  0
  193.7470  176.4160  142.4920 C   0  0  0  0  0  3  0  0  0  0  0  0
  189.3930  174.1350  141.8510 N   0  0  0  0  0  0  0  0  0  0  0  0
  193.0290  173.3500  145.2630 O   0  0  0  0  0  0  0  0  0  0  0  0
  190.0110  177.1510  146.9190 C   0  0  0  0  0  1  0  0  0  0  0  0
  189.1470  176.5890  145.8060 C   0  0  1  0  0  0  0  0  0  0  0  0
  187.4680  177.5560  144.3710 C   0  0  0  0  0  0  0  0  0  0  0  0
  190.0130  176.3490  144.5540 C   0  0  2  0  0  3  0  0  0  0  0  0
  193.2600  171.8310  142.6130 O   0  0  0  0  0  1  0  0  0  0  0  0
  190.0550  173.9420  144.1320 C   0  0  1  0  0  3  0  0  0  0  0  0
  187.8890  176.7310  143.3250 O   0  0  0  0  0  0  0  0  0  0  0  0
  188.0810  177.5410  145.5140 N   0  0  0  0  0  0  0  0  0  0  0  0
  192.6950  171.4120  143.8190 C   0  0  2  0  0  3  0  0  0  0  0  0
  192.2570  175.2920  144.0560 C   0  0  0  0  0  0  0  0  0  0  0  0
  190.4020  173.1580  141.9890 C   0  0  0  0  0  0  0  0  0  0  0  0
  186.3180  178.4740  144.1650 C   0  0  0  0  0  1  0  0  0  0  0  0
  191.1830  171.6670  143.8510 C   0  0  0  0  0  2  0  0  0  0  0  0
  192.4960  176.2960  143.1020 C   0  0  0  0  0  3  0  0  0  0  0  0
  194.5400  174.5120  143.7530 C   0  0  0  0  0  3  0  0  0  0  0  0
  194.7710  175.5250  142.8210 C   0  0  0  0  0  3  0  0  0  0  0  0
  193.4410  172.0130  145.0130 C   0  0  0  0  0  2  0  0  0  0  0  0
  189.0110  174.5730  143.1830 C   0  0  1  0  0  3  0  0  0  0  0  0
  190.8250  172.9860  143.3290 N   0  0  0  0  0  0  0  0  0  0  0  0
  189.1620  176.0800  143.3090 C   0  0  2  0  0  3  0  0  0  0  0  0
  188.5660  174.3060  140.6680 C   0  0  0  0  0  1  0  0  0  0  0  0
  190.8940  175.1090  144.6980 C   0  0  1  0  0  3  0  0  0  0  0  0
  1  6  1  0  0  0  0
  3 17  2  0  0  0  0
  4 22  2  0  0  0  0
  4 20  1  0  0  0  0
  5 17  1  0  0  0  0
  5 24  1  0  0  0  0
  8  2  1  0  0  0  0
  8  7  1  1  0  0  0
  9 14  2  0  0  0  0
 10 28  1  0  0  0  0
 10  8  1  0  0  0  0
 11 15  1  0  0  0  0
 12 28  1  0  0  0  0
 13  9  1  0  0  0  0
 14  8  1  0  0  0  0
 15 19  1  0  0  0  0
 15 23  1  0  0  0  0
 16  1  1  0  0  0  0
 16 28  1  0  0  0  0
 17 25  1  0  0  0  0
 18  9  1  0  0  0  0
 20 16  2  0  0  0  0
 21  1  2  0  0  0  0
 22 21  1  0  0  0  0
 23  6  1  0  0  0  0
 24 26  1  0  0  0  0
 24 12  1  0  0  0  0
 25 19  1  0  0  0  0
 25 12  1  0  0  0  0
 26 13  1  0  0  0  0
 26 10  1  0  0  0  0
 27  5  1  0  0  0  0
M  END
>  <MODEL>
9

>  <REMARK>
 VINA RESULT:      -6.9      2.010      2.890
  Name = 
  0 active torsions:
  status: ('A' for Active; 'I' for Inactive)
                            x       y       z     vdW  Elec       q    Type
                         _______ _______ _______ _____ _____    ______ ____

>  <TORSDO>
F 0

$$$$
