=
 OpenBabel11112416483D

 31 35  0  0  1  0  0  0  0  0999 V2000
  187.4410  176.7380  140.8630 C   0  0  0  0  0  0  0  0  0  0  0  0
  187.9570  177.3040  144.5340 N   0  0  0  0  0  0  0  0  0  0  0  0
  186.7410  177.8250  145.1240 C   0  0  0  0  0  0  0  0  0  0  0  0
  184.4430  178.6050  144.9400 C   0  0  0  0  0  0  0  0  0  0  0  0
  187.9550  176.7120  143.2210 C   0  0  0  0  0  0  0  0  0  0  0  0
  188.0070  175.5080  140.7300 N   0  0  0  0  0  0  0  0  0  0  0  0
  185.6290  178.1760  144.3400 C   0  0  0  0  0  3  0  0  0  0  0  0
  189.0680  175.3440  145.4730 C   0  0  2  0  0  3  0  0  0  0  0  0
  186.7530  177.5390  139.4670 Cl  0  0  0  0  0  0  0  0  0  0  0  0
  187.7290  177.5730  147.3180 O   0  0  0  0  0  0  0  0  0  0  0  0
  183.0700  179.0390  143.9450 Cl  0  0  0  0  0  0  0  0  0  0  0  0
  189.1260  174.7950  144.1510 O   0  0  0  0  0  0  0  0  0  0  0  0
  189.0690  176.8730  145.4000 C   0  0  2  0  0  3  0  0  0  0  0  0
  187.4080  177.3650  142.1110 C   0  0  0  0  0  3  0  0  0  0  0  0
  184.3460  178.6710  146.3310 C   0  0  0  0  0  3  0  0  0  0  0  0
  188.5420  175.4450  143.0550 C   0  0  0  0  0  0  0  0  0  0  0  0
  188.5560  174.8550  141.7890 C   0  0  0  0  0  3  0  0  0  0  0  0
  189.0430  177.5510  146.7760 C   0  0  0  0  0  2  0  0  0  0  0  0
  186.6370  177.9140  146.5240 C   0  0  0  0  0  0  0  0  0  0  0  0
  185.4420  178.3230  147.1230 C   0  0  0  0  0  3  0  0  0  0  0  0
  190.2320  174.8160  146.2970 C   0  0  0  0  0  2  0  0  0  0  0  0
  192.3130  175.8370  147.2320 C   0  0  0  0  0  1  0  0  0  0  0  0
  191.4980  175.6000  145.9740 C   0  0  1  0  0  3  0  0  0  0  0  0
  194.3790  173.9590  143.3450 N   0  0  0  0  0  0  0  0  0  0  0  0
  193.0620  173.7480  145.3880 C   0  0  0  0  0  2  0  0  0  0  0  0
  191.9370  176.5510  143.2940 O   0  0  0  0  0  0  0  0  0  0  0  0
  195.0660  173.1830  142.3300 C   0  0  0  0  0  1  0  0  0  0  0  0
  193.6800  173.0080  144.2020 C   0  0  0  0  0  2  0  0  0  0  0  0
  192.5120  175.4850  143.6410 C   0  0  0  0  0  0  0  0  0  0  0  0
  192.3000  174.9220  144.9530 N   0  0  0  0  0  0  0  0  0  0  0  0
  193.3750  174.7630  142.6530 C   0  0  0  0  0  2  0  0  0  0  0  0
  1 14  1  0  0  0  0
  2  3  1  0  0  0  0
  2 13  1  0  0  0  0
  3 19  1  0  0  0  0
  4 15  2  0  0  0  0
  5  2  1  0  0  0  0
  6  1  2  0  0  0  0
  6 17  1  0  0  0  0
  7  4  1  0  0  0  0
  7  3  2  0  0  0  0
  8 21  1  1  0  0  0
  9  1  1  0  0  0  0
 11  4  1  0  0  0  0
 12  8  1  0  0  0  0
 13  8  1  0  0  0  0
 13 18  1  1  0  0  0
 14  5  2  0  0  0  0
 15 20  1  0  0  0  0
 16  5  1  0  0  0  0
 16 12  1  0  0  0  0
 17 16  2  0  0  0  0
 18 10  1  0  0  0  0
 19 20  2  0  0  0  0
 19 10  1  0  0  0  0
 23 21  1  0  0  0  0
 23 22  1  1  0  0  0
 24 28  1  0  0  0  0
 26 29  2  0  0  0  0
 27 24  1  0  0  0  0
 28 25  1  0  0  0  0
 29 30  1  0  0  0  0
 30 25  1  0  0  0  0
 30 23  1  0  0  0  0
 31 24  1  0  0  0  0
 31 29  1  0  0  0  0
M  END
>  <MODEL>
1

>  <REMARK>
 VINA RESULT:      -7.9      0.000      0.000
  Name = 
  3 active torsions:
  status: ('A' for Active; 'I' for Inactive)
    1  A    between atoms: C_5  and  C_16
    2  A    between atoms: C_5  and  N_30
    3  A    between atoms: C_10  and  C_16
                            x       y       z     vdW  Elec       q    Type
                         _______ _______ _______ _____ _____    ______ ____

>  <TORSDO>
F 3

$$$$
=
 OpenBabel11112416483D

 31 35  0  0  1  0  0  0  0  0999 V2000
  191.2920  171.1280  143.1490 C   0  0  0  0  0  0  0  0  0  0  0  0
  191.0770  174.0000  145.5520 N   0  0  0  0  0  0  0  0  0  0  0  0
  192.4000  174.5390  145.7890 C   0  0  0  0  0  0  0  0  0  0  0  0
  194.8110  174.5070  145.4510 C   0  0  0  0  0  0  0  0  0  0  0  0
  190.8210  173.1040  144.4520 C   0  0  0  0  0  0  0  0  0  0  0  0
  190.2530  171.4300  142.3240 N   0  0  0  0  0  0  0  0  0  0  0  0
  193.5540  173.9250  145.2720 C   0  0  0  0  0  3  0  0  0  0  0  0
  189.2350  175.4480  144.8670 C   0  0  2  0  0  3  0  0  0  0  0  0
  192.2540  169.6960  142.8560 Cl  0  0  0  0  0  0  0  0  0  0  0  0
  191.4050  176.3730  147.0140 O   0  0  0  0  0  0  0  0  0  0  0  0
  196.2350  173.7250  144.8010 Cl  0  0  0  0  0  0  0  0  0  0  0  0
  188.9440  174.5140  143.8210 O   0  0  0  0  0  0  0  0  0  0  0  0
  189.8890  174.7200  146.0450 C   0  0  2  0  0  3  0  0  0  0  0  0
  191.5930  171.9580  144.2320 C   0  0  0  0  0  3  0  0  0  0  0  0
  194.9290  175.7200  146.1340 C   0  0  0  0  0  3  0  0  0  0  0  0
  189.7480  173.3890  143.5900 C   0  0  0  0  0  0  0  0  0  0  0  0
  189.4800  172.5310  142.5220 C   0  0  0  0  0  3  0  0  0  0  0  0
  190.2060  175.6390  147.2320 C   0  0  0  0  0  2  0  0  0  0  0  0
  192.5350  175.7500  146.4910 C   0  0  0  0  0  0  0  0  0  0  0  0
  193.7910  176.3420  146.6510 C   0  0  0  0  0  3  0  0  0  0  0  0
  187.9590  176.1630  145.2830 C   0  0  0  0  0  2  0  0  0  0  0  0
  189.2750  177.9450  144.1230 C   0  0  0  0  0  1  0  0  0  0  0  0
  187.9090  177.5510  144.6550 C   0  0  1  0  0  3  0  0  0  0  0  0
  185.1750  178.4530  141.5550 N   0  0  0  0  0  0  0  0  0  0  0  0
  187.3900  177.6770  142.2190 C   0  0  0  0  0  2  0  0  0  0  0  0
  185.0830  177.8980  145.0710 O   0  0  0  0  0  0  0  0  0  0  0  0
  184.1990  178.3780  140.4830 C   0  0  0  0  0  1  0  0  0  0  0  0
  186.2520  177.5330  141.2090 C   0  0  0  0  0  2  0  0  0  0  0  0
  185.5000  177.8430  143.8830 C   0  0  0  0  0  0  0  0  0  0  0  0
  186.8980  177.6220  143.5980 N   0  0  0  0  0  0  0  0  0  0  0  0
  184.5190  177.9470  142.7570 C   0  0  0  0  0  2  0  0  0  0  0  0
  1 14  1  0  0  0  0
  2  3  1  0  0  0  0
  2 13  1  0  0  0  0
  3 19  1  0  0  0  0
  4 15  2  0  0  0  0
  5  2  1  0  0  0  0
  6 17  1  0  0  0  0
  6  1  2  0  0  0  0
  7  4  1  0  0  0  0
  7  3  2  0  0  0  0
  8 21  1  1  0  0  0
  8 13  1  0  0  0  0
  9  1  1  0  0  0  0
 10 18  1  0  0  0  0
 11  4  1  0  0  0  0
 12  8  1  0  0  0  0
 13 18  1  1  0  0  0
 14  5  2  0  0  0  0
 15 20  1  0  0  0  0
 16 12  1  0  0  0  0
 16  5  1  0  0  0  0
 17 16  2  0  0  0  0
 19 20  2  0  0  0  0
 19 10  1  0  0  0  0
 23 22  1  6  0  0  0
 23 21  1  0  0  0  0
 24 31  1  0  0  0  0
 25 30  1  0  0  0  0
 27 24  1  0  0  0  0
 28 24  1  0  0  0  0
 28 25  1  0  0  0  0
 29 26  2  0  0  0  0
 30 29  1  0  0  0  0
 30 23  1  0  0  0  0
 31 29  1  0  0  0  0
M  END
>  <MODEL>
2

>  <REMARK>
 VINA RESULT:      -7.9      3.666      7.367
  Name = 
  3 active torsions:
  status: ('A' for Active; 'I' for Inactive)
    1  A    between atoms: C_5  and  C_16
    2  A    between atoms: C_5  and  N_30
    3  A    between atoms: C_10  and  C_16
                            x       y       z     vdW  Elec       q    Type
                         _______ _______ _______ _____ _____    ______ ____

>  <TORSDO>
F 3

$$$$
=
 OpenBabel11112416483D

 31 35  0  0  1  0  0  0  0  0999 V2000
  187.4410  176.7320  140.8980 C   0  0  0  0  0  0  0  0  0  0  0  0
  188.6490  177.0700  144.4330 N   0  0  0  0  0  0  0  0  0  0  0  0
  187.5830  177.5880  145.2660 C   0  0  0  0  0  0  0  0  0  0  0  0
  185.3200  178.4360  145.5560 C   0  0  0  0  0  0  0  0  0  0  0  0
  188.3820  176.5550  143.1140 C   0  0  0  0  0  0  0  0  0  0  0  0
  187.9280  175.4970  140.5980 N   0  0  0  0  0  0  0  0  0  0  0  0
  186.3580  178.0130  144.7230 C   0  0  0  0  0  3  0  0  0  0  0  0
  189.8430  175.0310  145.0440 C   0  0  2  0  0  3  0  0  0  0  0  0
  186.5360  177.6290  139.7000 Cl  0  0  0  0  0  0  0  0  0  0  0  0
  188.9510  177.1840  147.2210 O   0  0  0  0  0  0  0  0  0  0  0  0
  183.8030  178.9640  144.8590 Cl  0  0  0  0  0  0  0  0  0  0  0  0
  189.6350  174.5580  143.7080 O   0  0  0  0  0  0  0  0  0  0  0  0
  189.8860  176.5610  145.0510 C   0  0  2  0  0  3  0  0  0  0  0  0
  187.6630  177.2860  142.1610 C   0  0  0  0  0  3  0  0  0  0  0  0
  185.4860  178.4240  146.9430 C   0  0  0  0  0  3  0  0  0  0  0  0
  188.8810  175.2850  142.7750 C   0  0  0  0  0  0  0  0  0  0  0  0
  188.6390  174.7700  141.5010 C   0  0  0  0  0  3  0  0  0  0  0  0
  190.1400  177.1590  146.4420 C   0  0  0  0  0  2  0  0  0  0  0  0
  187.7440  177.5980  146.6630 C   0  0  0  0  0  0  0  0  0  0  0  0
  186.6960  178.0030  147.4960 C   0  0  0  0  0  3  0  0  0  0  0  0
  191.1190  174.4270  145.6070 C   0  0  0  0  0  2  0  0  0  0  0  0
  193.1550  175.1400  144.3450 C   0  0  0  0  0  1  0  0  0  0  0  0
  192.0770  174.0800  144.4740 C   0  0  1  0  0  3  0  0  0  0  0  0
  194.2330  170.4390  144.4820 N   0  0  0  0  0  0  0  0  0  0  0  0
  193.9640  172.7040  145.3480 C   0  0  0  0  0  2  0  0  0  0  0  0
  191.0720  171.6270  143.3540 O   0  0  0  0  0  0  0  0  0  0  0  0
  194.7760  169.1340  144.8130 C   0  0  0  0  0  1  0  0  0  0  0  0
  194.3730  171.2680  145.6740 C   0  0  0  0  0  2  0  0  0  0  0  0
  192.1330  171.5720  144.0310 C   0  0  0  0  0  0  0  0  0  0  0  0
  192.6710  172.7540  144.6630 N   0  0  0  0  0  0  0  0  0  0  0  0
  192.8080  170.2510  144.2300 C   0  0  0  0  0  2  0  0  0  0  0  0
  1 14  1  0  0  0  0
  2 13  1  0  0  0  0
  2  3  1  0  0  0  0
  3 19  1  0  0  0  0
  4 15  2  0  0  0  0
  5  2  1  0  0  0  0
  6  1  2  0  0  0  0
  6 17  1  0  0  0  0
  7  3  2  0  0  0  0
  7  4  1  0  0  0  0
  8 13  1  0  0  0  0
  8 21  1  6  0  0  0
  9  1  1  0  0  0  0
 11  4  1  0  0  0  0
 12  8  1  0  0  0  0
 13 18  1  1  0  0  0
 14  5  2  0  0  0  0
 15 20  1  0  0  0  0
 16  5  1  0  0  0  0
 16 12  1  0  0  0  0
 17 16  2  0  0  0  0
 18 10  1  0  0  0  0
 19 10  1  0  0  0  0
 19 20  2  0  0  0  0
 23 22  1  1  0  0  0
 23 30  1  0  0  0  0
 23 21  1  0  0  0  0
 24 27  1  0  0  0  0
 24 28  1  0  0  0  0
 25 28  1  0  0  0  0
 26 29  2  0  0  0  0
 29 31  1  0  0  0  0
 29 30  1  0  0  0  0
 30 25  1  0  0  0  0
 31 24  1  0  0  0  0
M  END
>  <MODEL>
3

>  <REMARK>
 VINA RESULT:      -7.7      1.673      2.156
  Name = 
  3 active torsions:
  status: ('A' for Active; 'I' for Inactive)
    1  A    between atoms: C_5  and  C_16
    2  A    between atoms: C_5  and  N_30
    3  A    between atoms: C_10  and  C_16
                            x       y       z     vdW  Elec       q    Type
                         _______ _______ _______ _____ _____    ______ ____

>  <TORSDO>
F 3

$$$$
=
 OpenBabel11112416483D

 31 35  0  0  1  0  0  0  0  0999 V2000
  185.9830  177.9120  140.7670 C   0  0  0  0  0  0  0  0  0  0  0  0
  188.3690  177.7200  143.6540 N   0  0  0  0  0  0  0  0  0  0  0  0
  187.6380  177.8250  144.9000 C   0  0  0  0  0  0  0  0  0  0  0  0
  185.5660  178.1250  146.1410 C   0  0  0  0  0  0  0  0  0  0  0  0
  187.6910  177.4560  142.4110 C   0  0  0  0  0  0  0  0  0  0  0  0
  186.4550  176.8920  140.0000 N   0  0  0  0  0  0  0  0  0  0  0  0
  186.2610  178.1040  144.9300 C   0  0  0  0  0  3  0  0  0  0  0  0
  189.9190  175.8750  143.2590 C   0  0  2  0  0  3  0  0  0  0  0  0
  184.6060  178.8470  140.2270 Cl  0  0  0  0  0  0  0  0  0  0  0  0
  189.6680  177.2930  146.1050 O   0  0  0  0  0  0  0  0  0  0  0  0
  183.8510  178.4770  146.1560 Cl  0  0  0  0  0  0  0  0  0  0  0  0
  189.2840  175.6680  141.9920 O   0  0  0  0  0  0  0  0  0  0  0  0
  189.7950  177.3470  143.6660 C   0  0  2  0  0  3  0  0  0  0  0  0
  186.5950  178.2160  141.9850 C   0  0  0  0  0  3  0  0  0  0  0  0
  186.2330  177.8500  147.3360 C   0  0  0  0  0  3  0  0  0  0  0  0
  188.1640  176.4130  141.5960 C   0  0  0  0  0  0  0  0  0  0  0  0
  187.5250  176.1440  140.3840 C   0  0  0  0  0  3  0  0  0  0  0  0
  190.4790  177.6720  145.0000 C   0  0  0  0  0  2  0  0  0  0  0  0
  188.3030  177.5680  146.1130 C   0  0  0  0  0  0  0  0  0  0  0  0
  187.6010  177.5690  147.3220 C   0  0  0  0  0  3  0  0  0  0  0  0
  191.3710  175.4310  143.1820 C   0  0  0  0  0  2  0  0  0  0  0  0
  191.1730  173.1410  144.1660 C   0  0  0  0  0  1  0  0  0  0  0  0
  191.7100  174.5450  144.3750 C   0  0  1  0  0  3  0  0  0  0  0  0
  195.7510  173.8270  145.4030 N   0  0  0  0  0  0  0  0  0  0  0  0
  193.9570  173.6570  143.7580 C   0  0  0  0  0  2  0  0  0  0  0  0
  193.0370  175.7960  146.6010 O   0  0  0  0  0  0  0  0  0  0  0  0
  197.1950  173.8910  145.5330 C   0  0  0  0  0  1  0  0  0  0  0  0
  195.4540  173.8770  143.9760 C   0  0  0  0  0  2  0  0  0  0  0  0
  193.7420  175.1350  145.7930 C   0  0  0  0  0  0  0  0  0  0  0  0
  193.1530  174.5200  144.6270 N   0  0  0  0  0  0  0  0  0  0  0  0
  195.2190  175.0400  146.0170 C   0  0  0  0  0  2  0  0  0  0  0  0
  1 14  1  0  0  0  0
  2 13  1  0  0  0  0
  2  3  1  0  0  0  0
  3  7  2  0  0  0  0
  3 19  1  0  0  0  0
  4 11  1  0  0  0  0
  4 15  2  0  0  0  0
  5  2  1  0  0  0  0
  6 17  1  0  0  0  0
  6  1  2  0  0  0  0
  7  4  1  0  0  0  0
  8 21  1  6  0  0  0
  8 13  1  0  0  0  0
  9  1  1  0  0  0  0
 10 19  1  0  0  0  0
 12  8  1  0  0  0  0
 13 18  1  1  0  0  0
 14  5  2  0  0  0  0
 16 12  1  0  0  0  0
 16  5  1  0  0  0  0
 17 16  2  0  0  0  0
 18 10  1  0  0  0  0
 19 20  2  0  0  0  0
 20 15  1  0  0  0  0
 21 23  1  0  0  0  0
 23 22  1  6  0  0  0
 23 30  1  0  0  0  0
 24 27  1  0  0  0  0
 24 31  1  0  0  0  0
 25 28  1  0  0  0  0
 25 30  1  0  0  0  0
 28 24  1  0  0  0  0
 29 31  1  0  0  0  0
 29 26  2  0  0  0  0
 30 29  1  0  0  0  0
M  END
>  <MODEL>
4

>  <REMARK>
 VINA RESULT:      -7.6      1.864      2.364
  Name = 
  3 active torsions:
  status: ('A' for Active; 'I' for Inactive)
    1  A    between atoms: C_5  and  C_16
    2  A    between atoms: C_5  and  N_30
    3  A    between atoms: C_10  and  C_16
                            x       y       z     vdW  Elec       q    Type
                         _______ _______ _______ _____ _____    ______ ____

>  <TORSDO>
F 3

$$$$
=
 OpenBabel11112416483D

 31 35  0  0  1  0  0  0  0  0999 V2000
  185.6900  177.8160  146.5920 C   0  0  0  0  0  0  0  0  0  0  0  0
  187.7520  175.9390  144.0850 N   0  0  0  0  0  0  0  0  0  0  0  0
  187.3320  176.2910  142.7440 C   0  0  0  0  0  0  0  0  0  0  0  0
  185.8760  177.4960  141.2110 C   0  0  0  0  0  0  0  0  0  0  0  0
  187.3520  176.7250  145.2240 C   0  0  0  0  0  0  0  0  0  0  0  0
  186.6680  178.2270  147.4450 N   0  0  0  0  0  0  0  0  0  0  0  0
  186.2140  177.1090  142.5090 C   0  0  0  0  0  3  0  0  0  0  0  0
  190.0980  176.0830  144.7450 C   0  0  2  0  0  3  0  0  0  0  0  0
  184.0220  178.2410  146.9060 Cl  0  0  0  0  0  0  0  0  0  0  0  0
  189.2150  175.0560  141.8580 O   0  0  0  0  0  0  0  0  0  0  0  0
  184.4770  178.5140  140.9400 Cl  0  0  0  0  0  0  0  0  0  0  0  0
  189.6820  176.8020  145.9120 O   0  0  0  0  0  0  0  0  0  0  0  0
  188.9770  175.1450  144.2870 C   0  0  2  0  0  3  0  0  0  0  0  0
  186.0130  177.0530  145.4680 C   0  0  0  0  0  3  0  0  0  0  0  0
  186.6610  177.0860  140.1310 C   0  0  0  0  0  3  0  0  0  0  0  0
  188.3420  177.1550  146.1250 C   0  0  0  0  0  0  0  0  0  0  0  0
  187.9750  177.9130  147.2380 C   0  0  0  0  0  3  0  0  0  0  0  0
  189.3470  174.3050  143.0580 C   0  0  0  0  0  2  0  0  0  0  0  0
  188.1040  175.8700  141.6470 C   0  0  0  0  0  0  0  0  0  0  0  0
  187.7760  176.2750  140.3500 C   0  0  0  0  0  3  0  0  0  0  0  0
  191.3830  175.3270  145.0410 C   0  0  0  0  0  2  0  0  0  0  0  0
  192.7300  176.3250  146.8950 C   0  0  0  0  0  1  0  0  0  0  0  0
  192.4960  176.3050  145.3960 C   0  0  1  0  0  3  0  0  0  0  0  0
  196.2860  176.0480  143.5330 N   0  0  0  0  0  0  0  0  0  0  0  0
  194.8980  175.6430  145.4980 C   0  0  0  0  0  2  0  0  0  0  0  0
  192.9050  176.6030  142.5630 O   0  0  0  0  0  0  0  0  0  0  0  0
  197.4820  175.5900  142.8510 C   0  0  0  0  0  1  0  0  0  0  0  0
  196.0550  175.1290  144.6410 C   0  0  0  0  0  2  0  0  0  0  0  0
  193.8780  176.2070  143.2590 C   0  0  0  0  0  0  0  0  0  0  0  0
  193.7330  175.9890  144.6790 N   0  0  0  0  0  0  0  0  0  0  0  0
  195.1820  175.9020  142.5890 C   0  0  0  0  0  2  0  0  0  0  0  0
  1  9  1  0  0  0  0
  1  6  1  0  0  0  0
  2 13  1  0  0  0  0
  2  5  1  0  0  0  0
  3  2  1  0  0  0  0
  4  7  2  0  0  0  0
  5 14  1  0  0  0  0
  5 16  2  0  0  0  0
  7  3  1  0  0  0  0
  8 21  1  1  0  0  0
  8 12  1  0  0  0  0
 10 18  1  0  0  0  0
 11  4  1  0  0  0  0
 12 16  1  0  0  0  0
 13 18  1  6  0  0  0
 13  8  1  0  0  0  0
 14  1  2  0  0  0  0
 15 20  2  0  0  0  0
 15  4  1  0  0  0  0
 16 17  1  0  0  0  0
 17  6  2  0  0  0  0
 19 10  1  0  0  0  0
 19  3  2  0  0  0  0
 20 19  1  0  0  0  0
 21 23  1  0  0  0  0
 23 22  1  1  0  0  0
 24 28  1  0  0  0  0
 26 29  2  0  0  0  0
 27 24  1  0  0  0  0
 28 25  1  0  0  0  0
 29 30  1  0  0  0  0
 30 23  1  0  0  0  0
 30 25  1  0  0  0  0
 31 29  1  0  0  0  0
 31 24  1  0  0  0  0
M  END
>  <MODEL>
5

>  <REMARK>
 VINA RESULT:      -7.4      1.933      4.139
  Name = 
  3 active torsions:
  status: ('A' for Active; 'I' for Inactive)
    1  A    between atoms: C_5  and  C_16
    2  A    between atoms: C_5  and  N_30
    3  A    between atoms: C_10  and  C_16
                            x       y       z     vdW  Elec       q    Type
                         _______ _______ _______ _____ _____    ______ ____

>  <TORSDO>
F 3

$$$$
=
 OpenBabel11112416483D

 31 35  0  0  1  0  0  0  0  0999 V2000
  186.1860  177.8420  140.8340 C   0  0  0  0  0  0  0  0  0  0  0  0
  188.3120  177.6400  143.9170 N   0  0  0  0  0  0  0  0  0  0  0  0
  187.4860  177.8210  145.0930 C   0  0  0  0  0  0  0  0  0  0  0  0
  185.3350  178.2580  146.1450 C   0  0  0  0  0  0  0  0  0  0  0  0
  187.7280  177.3650  142.6290 C   0  0  0  0  0  0  0  0  0  0  0  0
  186.6700  176.7760  140.1410 N   0  0  0  0  0  0  0  0  0  0  0  0
  186.1270  178.1640  144.9980 C   0  0  0  0  0  3  0  0  0  0  0  0
  189.7980  175.7140  143.7110 C   0  0  2  0  0  3  0  0  0  0  0  0
  184.9060  178.8200  140.1510 Cl  0  0  0  0  0  0  0  0  0  0  0  0
  189.3810  177.2380  146.4810 O   0  0  0  0  0  0  0  0  0  0  0  0
  183.6440  178.6880  146.0040 Cl  0  0  0  0  0  0  0  0  0  0  0  0
  189.2610  175.4930  142.4010 O   0  0  0  0  0  0  0  0  0  0  0  0
  189.7120  177.2030  144.0610 C   0  0  2  0  0  3  0  0  0  0  0  0
  186.7090  178.1590  142.0900 C   0  0  0  0  0  3  0  0  0  0  0  0
  185.8870  177.9930  147.4000 C   0  0  0  0  0  3  0  0  0  0  0  0
  188.2160  176.2740  141.8890 C   0  0  0  0  0  0  0  0  0  0  0  0
  187.6670  175.9940  140.6360 C   0  0  0  0  0  3  0  0  0  0  0  0
  190.2980  177.5410  145.4380 C   0  0  0  0  0  2  0  0  0  0  0  0
  188.0350  177.5760  146.3650 C   0  0  0  0  0  0  0  0  0  0  0  0
  187.2360  177.6500  147.5090 C   0  0  0  0  0  3  0  0  0  0  0  0
  191.2280  175.2010  143.7700 C   0  0  0  0  0  2  0  0  0  0  0  0
  190.0970  173.7370  145.4510 C   0  0  0  0  0  1  0  0  0  0  0  0
  191.2740  173.8650  144.5020 C   0  0  1  0  0  3  0  0  0  0  0  0
  191.3130  170.2080  142.3740 N   0  0  0  0  0  0  0  0  0  0  0  0
  190.0350  172.0770  143.2830 C   0  0  0  0  0  2  0  0  0  0  0  0
  193.6580  172.6800  143.4100 O   0  0  0  0  0  0  0  0  0  0  0  0
  191.2920  169.1900  141.3410 C   0  0  0  0  0  1  0  0  0  0  0  0
  190.1640  171.0730  142.1380 C   0  0  0  0  0  2  0  0  0  0  0  0
  192.5500  172.1720  143.0910 C   0  0  0  0  0  0  0  0  0  0  0  0
  191.3100  172.7430  143.5620 N   0  0  0  0  0  0  0  0  0  0  0  0
  192.5220  170.9980  142.1620 C   0  0  0  0  0  2  0  0  0  0  0  0
  1 14  1  0  0  0  0
  2 13  1  0  0  0  0
  2  3  1  0  0  0  0
  3 19  1  0  0  0  0
  4 15  2  0  0  0  0
  5  2  1  0  0  0  0
  6 17  1  0  0  0  0
  6  1  2  0  0  0  0
  7  3  2  0  0  0  0
  7  4  1  0  0  0  0
  8 21  1  6  0  0  0
  8 13  1  0  0  0  0
  9  1  1  0  0  0  0
 11  4  1  0  0  0  0
 12  8  1  0  0  0  0
 13 18  1  1  0  0  0
 14  5  2  0  0  0  0
 15 20  1  0  0  0  0
 16 12  1  0  0  0  0
 16  5  1  0  0  0  0
 17 16  2  0  0  0  0
 18 10  1  0  0  0  0
 19 10  1  0  0  0  0
 19 20  2  0  0  0  0
 21 23  1  0  0  0  0
 23 22  1  1  0  0  0
 25 30  1  0  0  0  0
 27 24  1  0  0  0  0
 28 24  1  0  0  0  0
 28 25  1  0  0  0  0
 29 26  2  0  0  0  0
 29 30  1  0  0  0  0
 30 23  1  0  0  0  0
 31 24  1  0  0  0  0
 31 29  1  0  0  0  0
M  END
>  <MODEL>
6

>  <REMARK>
 VINA RESULT:      -7.3      2.327      2.691
  Name = 
  3 active torsions:
  status: ('A' for Active; 'I' for Inactive)
    1  A    between atoms: C_5  and  C_16
    2  A    between atoms: C_5  and  N_30
    3  A    between atoms: C_10  and  C_16
                            x       y       z     vdW  Elec       q    Type
                         _______ _______ _______ _____ _____    ______ ____

>  <TORSDO>
F 3

$$$$
=
 OpenBabel11112416483D

 31 35  0  0  1  0  0  0  0  0999 V2000
  191.2980  173.3390  140.8000 C   0  0  0  0  0  0  0  0  0  0  0  0
  192.5430  175.0640  143.8880 N   0  0  0  0  0  0  0  0  0  0  0  0
  193.8940  175.5400  143.6720 C   0  0  0  0  0  0  0  0  0  0  0  0
  195.8810  175.7650  142.2850 C   0  0  0  0  0  0  0  0  0  0  0  0
  191.7140  174.6430  142.7880 C   0  0  0  0  0  0  0  0  0  0  0  0
  190.0520  173.8780  140.7130 N   0  0  0  0  0  0  0  0  0  0  0  0
  194.6100  175.2310  142.5030 C   0  0  0  0  0  3  0  0  0  0  0  0
  190.7960  176.5660  144.6960 C   0  0  2  0  0  3  0  0  0  0  0  0
  191.8340  172.1790  139.6050 Cl  0  0  0  0  0  0  0  0  0  0  0  0
  193.7900  176.7150  145.7850 O   0  0  0  0  0  0  0  0  0  0  0  0
  196.7570  175.3650  140.8230 Cl  0  0  0  0  0  0  0  0  0  0  0  0
  189.9540  176.0870  143.6410 O   0  0  0  0  0  0  0  0  0  0  0  0
  191.8000  175.4790  145.0920 C   0  0  2  0  0  3  0  0  0  0  0  0
  192.1510  173.7090  141.8420 C   0  0  0  0  0  3  0  0  0  0  0  0
  196.4470  176.6310  143.2240 C   0  0  0  0  0  3  0  0  0  0  0  0
  190.4180  175.1780  142.6800 C   0  0  0  0  0  0  0  0  0  0  0  0
  189.5970  174.7790  141.6240 C   0  0  0  0  0  3  0  0  0  0  0  0
  192.7260  175.8920  146.2440 C   0  0  0  0  0  2  0  0  0  0  0  0
  194.4820  176.3980  144.6180 C   0  0  0  0  0  0  0  0  0  0  0  0
  195.7460  176.9490  144.3890 C   0  0  0  0  0  3  0  0  0  0  0  0
  189.9410  177.0010  145.8750 C   0  0  0  0  0  2  0  0  0  0  0  0
  188.7870  175.2700  147.2620 C   0  0  0  0  0  1  0  0  0  0  0  0
  188.7170  176.1000  145.9940 C   0  0  1  0  0  3  0  0  0  0  0  0
  184.8350  177.7730  146.1850 N   0  0  0  0  0  0  0  0  0  0  0  0
  187.0350  177.4880  147.2020 C   0  0  0  0  0  2  0  0  0  0  0  0
  186.9370  176.2650  143.7390 O   0  0  0  0  0  0  0  0  0  0  0  0
  183.6920  178.6650  146.1400 C   0  0  0  0  0  1  0  0  0  0  0  0
  185.8590  178.4400  146.9820 C   0  0  0  0  0  2  0  0  0  0  0  0
  186.6100  176.8750  144.7910 C   0  0  0  0  0  0  0  0  0  0  0  0
  187.4760  176.8770  145.9460 N   0  0  0  0  0  0  0  0  0  0  0  0
  185.3340  177.6570  144.8180 C   0  0  0  0  0  2  0  0  0  0  0  0
  1 14  1  0  0  0  0
  2 13  1  0  0  0  0
  3  2  1  0  0  0  0
  3 19  1  0  0  0  0
  4  7  1  0  0  0  0
  4 15  2  0  0  0  0
  5  2  1  0  0  0  0
  6  1  2  0  0  0  0
  6 17  1  0  0  0  0
  7  3  2  0  0  0  0
  8 13  1  0  0  0  0
  8 21  1  1  0  0  0
  9  1  1  0  0  0  0
 10 18  1  0  0  0  0
 11  4  1  0  0  0  0
 12  8  1  0  0  0  0
 13 18  1  1  0  0  0
 14  5  2  0  0  0  0
 15 20  1  0  0  0  0
 16  5  1  0  0  0  0
 16 12  1  0  0  0  0
 17 16  2  0  0  0  0
 19 10  1  0  0  0  0
 20 19  2  0  0  0  0
 21 23  1  0  0  0  0
 23 22  1  1  0  0  0
 24 28  1  0  0  0  0
 26 29  2  0  0  0  0
 27 24  1  0  0  0  0
 28 25  1  0  0  0  0
 29 31  1  0  0  0  0
 29 30  1  0  0  0  0
 30 23  1  0  0  0  0
 30 25  1  0  0  0  0
 31 24  1  0  0  0  0
M  END
>  <MODEL>
7

>  <REMARK>
 VINA RESULT:      -7.2      3.081      7.477
  Name = 
  3 active torsions:
  status: ('A' for Active; 'I' for Inactive)
    1  A    between atoms: C_5  and  C_16
    2  A    between atoms: C_5  and  N_30
    3  A    between atoms: C_10  and  C_16
                            x       y       z     vdW  Elec       q    Type
                         _______ _______ _______ _____ _____    ______ ____

>  <TORSDO>
F 3

$$$$
=
 OpenBabel11112416483D

 31 35  0  0  1  0  0  0  0  0999 V2000
  195.2670  174.8180  145.3940 C   0  0  0  0  0  0  0  0  0  0  0  0
  192.0360  174.6580  143.4960 N   0  0  0  0  0  0  0  0  0  0  0  0
  191.7670  173.2890  143.1050 C   0  0  0  0  0  0  0  0  0  0  0  0
  192.3850  170.9370  143.0010 C   0  0  0  0  0  0  0  0  0  0  0  0
  193.0350  174.9680  144.4870 C   0  0  0  0  0  0  0  0  0  0  0  0
  194.8970  175.6260  146.4250 N   0  0  0  0  0  0  0  0  0  0  0  0
  192.7000  172.2610  143.3170 C   0  0  0  0  0  3  0  0  0  0  0  0
  190.3650  175.9740  144.6940 C   0  0  2  0  0  3  0  0  0  0  0  0
  196.9030  174.2060  145.3080 Cl  0  0  0  0  0  0  0  0  0  0  0  0
  189.5710  173.9660  142.3470 O   0  0  0  0  0  0  0  0  0  0  0  0
  193.5640  169.6720  143.2710 Cl  0  0  0  0  0  0  0  0  0  0  0  0
  191.3840  176.3350  145.6340 O   0  0  0  0  0  0  0  0  0  0  0  0
  190.9970  175.6900  143.3280 C   0  0  2  0  0  3  0  0  0  0  0  0
  194.3430  174.4780  144.4030 C   0  0  0  0  0  3  0  0  0  0  0  0
  191.1260  170.6220  142.4850 C   0  0  0  0  0  3  0  0  0  0  0  0
  192.6810  175.8080  145.5580 C   0  0  0  0  0  0  0  0  0  0  0  0
  193.6350  176.1250  146.5260 C   0  0  0  0  0  3  0  0  0  0  0  0
  189.9730  175.3260  142.2450 C   0  0  0  0  0  2  0  0  0  0  0  0
  190.5090  172.9610  142.5680 C   0  0  0  0  0  0  0  0  0  0  0  0
  190.1880  171.6330  142.2710 C   0  0  0  0  0  3  0  0  0  0  0  0
  189.3260  177.0810  144.6160 C   0  0  0  0  0  2  0  0  0  0  0  0
  187.9440  176.7550  146.6740 C   0  0  0  0  0  1  0  0  0  0  0  0
  187.9930  176.5860  145.1660 C   0  0  1  0  0  3  0  0  0  0  0  0
  184.3300  178.2060  143.8020 N   0  0  0  0  0  0  0  0  0  0  0  0
  186.2780  178.3930  145.2590 C   0  0  0  0  0  2  0  0  0  0  0  0
  186.6600  175.7190  142.7680 O   0  0  0  0  0  0  0  0  0  0  0  0
  183.3100  178.9910  143.1330 C   0  0  0  0  0  1  0  0  0  0  0  0
  185.2620  179.1510  144.4050 C   0  0  0  0  0  2  0  0  0  0  0  0
  186.2190  176.7470  143.3470 C   0  0  0  0  0  0  0  0  0  0  0  0
  186.8660  177.2690  144.5270 N   0  0  0  0  0  0  0  0  0  0  0  0
  185.0440  177.4700  142.7630 C   0  0  0  0  0  2  0  0  0  0  0  0
  1  6  1  0  0  0  0
  2  5  1  0  0  0  0
  3  7  1  0  0  0  0
  3  2  1  0  0  0  0
  4 11  1  0  0  0  0
  4  7  2  0  0  0  0
  5 16  2  0  0  0  0
  6 17  2  0  0  0  0
  8 21  1  6  0  0  0
  8 12  1  0  0  0  0
  9  1  1  0  0  0  0
 10 19  1  0  0  0  0
 13 18  1  6  0  0  0
 13  2  1  0  0  0  0
 13  8  1  0  0  0  0
 14  5  1  0  0  0  0
 14  1  2  0  0  0  0
 15  4  1  0  0  0  0
 16 12  1  0  0  0  0
 16 17  1  0  0  0  0
 18 10  1  0  0  0  0
 19  3  2  0  0  0  0
 20 15  2  0  0  0  0
 20 19  1  0  0  0  0
 21 23  1  0  0  0  0
 23 22  1  1  0  0  0
 24 28  1  0  0  0  0
 26 29  2  0  0  0  0
 27 24  1  0  0  0  0
 28 25  1  0  0  0  0
 29 30  1  0  0  0  0
 30 23  1  0  0  0  0
 30 25  1  0  0  0  0
 31 29  1  0  0  0  0
 31 24  1  0  0  0  0
M  END
>  <MODEL>
8

>  <REMARK>
 VINA RESULT:      -7.0      3.763      8.067
  Name = 
  3 active torsions:
  status: ('A' for Active; 'I' for Inactive)
    1  A    between atoms: C_5  and  C_16
    2  A    between atoms: C_5  and  N_30
    3  A    between atoms: C_10  and  C_16
                            x       y       z     vdW  Elec       q    Type
                         _______ _______ _______ _____ _____    ______ ____

>  <TORSDO>
F 3

$$$$
=
 OpenBabel11112416483D

 31 35  0  0  1  0  0  0  0  0999 V2000
  187.4520  177.2790  141.0650 C   0  0  0  0  0  0  0  0  0  0  0  0
  188.8960  174.0000  142.1730 N   0  0  0  0  0  0  0  0  0  0  0  0
  189.2520  173.2070  141.0150 C   0  0  0  0  0  0  0  0  0  0  0  0
  189.3560  172.8720  138.6070 C   0  0  0  0  0  0  0  0  0  0  0  0
  188.6100  175.4080  142.0550 C   0  0  0  0  0  0  0  0  0  0  0  0
  188.1100  178.1250  141.9040 N   0  0  0  0  0  0  0  0  0  0  0  0
  188.9340  173.6170  139.7100 C   0  0  0  0  0  3  0  0  0  0  0  0
  190.5150  174.4260  143.9500 C   0  0  2  0  0  3  0  0  0  0  0  0
  186.3070  177.9150  139.9050 Cl  0  0  0  0  0  0  0  0  0  0  0  0
  190.3260  171.6040  142.4760 O   0  0  0  0  0  0  0  0  0  0  0  0
  188.9470  173.4000  136.9890 Cl  0  0  0  0  0  0  0  0  0  0  0  0
  190.1710  175.8140  143.8740 O   0  0  0  0  0  0  0  0  0  0  0  0
  189.3200  173.5720  143.5180 C   0  0  2  0  0  3  0  0  0  0  0  0
  187.6870  175.9040  141.1280 C   0  0  0  0  0  3  0  0  0  0  0  0
  190.1160  171.7150  138.7930 C   0  0  0  0  0  3  0  0  0  0  0  0
  189.2710  176.3020  142.9160 C   0  0  0  0  0  0  0  0  0  0  0  0
  189.0040  177.6690  142.8220 C   0  0  0  0  0  3  0  0  0  0  0  0
  189.5850  172.0630  143.6010 C   0  0  0  0  0  2  0  0  0  0  0  0
  190.0020  172.0300  141.1910 C   0  0  0  0  0  0  0  0  0  0  0  0
  190.4410  171.2960  140.0850 C   0  0  0  0  0  3  0  0  0  0  0  0
  190.9700  174.0890  145.3610 C   0  0  0  0  0  2  0  0  0  0  0  0
  191.7590  175.3140  147.3920 C   0  0  0  0  0  1  0  0  0  0  0  0
  191.8960  175.1800  145.8860 C   0  0  1  0  0  3  0  0  0  0  0  0
  196.0510  174.4780  145.5070 N   0  0  0  0  0  0  0  0  0  0  0  0
  193.7980  173.5730  145.7490 C   0  0  0  0  0  2  0  0  0  0  0  0
  193.7770  177.1730  145.0130 O   0  0  0  0  0  0  0  0  0  0  0  0
  197.3770  174.1570  145.0130 C   0  0  0  0  0  1  0  0  0  0  0  0
  195.1790  173.3740  145.1240 C   0  0  0  0  0  2  0  0  0  0  0  0
  194.1870  175.9880  145.1230 C   0  0  0  0  0  0  0  0  0  0  0  0
  193.2880  174.9260  145.5100 N   0  0  0  0  0  0  0  0  0  0  0  0
  195.6110  175.6700  144.7880 C   0  0  0  0  0  2  0  0  0  0  0  0
  1 14  2  0  0  0  0
  1  6  1  0  0  0  0
  2 13  1  0  0  0  0
  3 19  1  0  0  0  0
  3  2  1  0  0  0  0
  4 15  2  0  0  0  0
  4  7  1  0  0  0  0
  5  2  1  0  0  0  0
  5 16  2  0  0  0  0
  6 17  2  0  0  0  0
  7  3  2  0  0  0  0
  8 21  1  1  0  0  0
  9  1  1  0  0  0  0
 10 18  1  0  0  0  0
 11  4  1  0  0  0  0
 12  8  1  0  0  0  0
 13 18  1  6  0  0  0
 13  8  1  0  0  0  0
 14  5  1  0  0  0  0
 15 20  1  0  0  0  0
 16 12  1  0  0  0  0
 17 16  1  0  0  0  0
 19 10  1  0  0  0  0
 20 19  2  0  0  0  0
 21 23  1  0  0  0  0
 23 22  1  1  0  0  0
 26 29  2  0  0  0  0
 27 24  1  0  0  0  0
 28 24  1  0  0  0  0
 28 25  1  0  0  0  0
 29 30  1  0  0  0  0
 30 25  1  0  0  0  0
 30 23  1  0  0  0  0
 31 29  1  0  0  0  0
 31 24  1  0  0  0  0
M  END
>  <MODEL>
9

>  <REMARK>
 VINA RESULT:      -7.0      2.950      5.297
  Name = 
  3 active torsions:
  status: ('A' for Active; 'I' for Inactive)
    1  A    between atoms: C_5  and  C_16
    2  A    between atoms: C_5  and  N_30
    3  A    between atoms: C_10  and  C_16
                            x       y       z     vdW  Elec       q    Type
                         _______ _______ _______ _____ _____    ______ ____

>  <TORSDO>
F 3

$$$$
