=
 OpenBabel11112416303D

 32 38  0  0  1  0  0  0  0  0999 V2000
  193.0830  174.0460  145.2160 C   0  0  2  0  0  3  0  0  0  0  0  0
  188.8540  176.4070  144.4980 C   0  0  1  0  0  3  0  0  0  0  0  0
  185.8040  178.1560  148.1430 C   0  0  0  0  0  2  0  0  0  0  0  0
  185.2400  179.0810  147.1030 C   0  0  0  0  0  3  0  0  0  0  0  0
  187.9590  176.5110  142.0890 C   0  0  2  0  0  3  0  0  0  0  0  0
  186.6910  176.8010  141.2960 C   0  0  2  0  0  3  0  0  0  0  0  0
  190.7180  175.0970  145.0970 C   0  0  1  0  0  3  0  0  0  0  0  0
  189.1670  175.8810  146.9020 C   0  0  0  0  0  3  0  0  0  0  0  0
  185.2200  178.4600  140.5130 C   0  0  1  0  0  3  0  0  0  0  0  0
  191.4190  175.0170  147.5510 C   0  0  0  0  0  2  0  0  0  0  0  0
  187.0480  177.6000  147.7100 O   0  0  0  0  0  0  0  0  0  0  0  0
  188.4570  176.5160  145.9600 C   0  0  0  0  0  0  0  0  0  0  0  0
  187.3400  177.4010  146.3530 C   0  0  0  0  0  0  0  0  0  0  0  0
  186.9350  177.9280  143.9570 C   0  0  2  0  0  3  0  0  0  0  0  0
  185.8230  177.6800  139.3440 C   0  0  0  0  0  2  0  0  0  0  0  0
  192.7420  174.5190  143.8090 C   0  0  0  0  0  2  0  0  0  0  0  0
  190.2660  174.9160  146.5520 C   0  0  2  0  0  3  0  0  0  0  0  0
  186.8790  176.7960  139.8560 N   0  0  0  0  0  2  0  0  0  0  0  0
  191.6400  173.9660  144.6800 C   0  0  1  0  0  3  0  0  0  0  0  0
  192.5160  175.9450  147.0470 C   0  0  0  0  0  2  0  0  0  0  0  0
  185.6010  178.9750  145.8590 N   0  0  0  0  0  0  0  0  0  0  0  0
  186.5970  178.0330  145.4260 C   0  0  0  0  0  0  0  0  0  0  0  0
  185.7170  178.2110  143.0670 C   0  0  0  0  0  2  0  0  0  0  0  0
  189.5420  175.1410  144.2340 N   0  0  0  0  0  2  0  0  0  0  0  0
  188.4150  175.2350  141.7510 O   0  0  0  0  0  1  0  0  0  0  0  0
  183.8280  177.9160  140.8030 C   0  0  0  0  0  1  0  0  0  0  0  0
  187.6190  176.5790  143.6000 C   0  0  2  0  0  3  0  0  0  0  0  0
  186.1980  178.1720  141.6270 C   0  0  1  0  0  3  0  0  0  0  0  0
  193.5210  175.2190  146.1420 C   0  0  2  0  0  3  0  0  0  0  0  0
  194.5140  176.1550  145.5320 C   0  0  0  0  0  0  0  0  0  0  0  0
  195.7080  175.6720  145.0100 O   0  0  0  0  0  0  0  0  0  0  0  0
  194.2770  177.3920  145.5100 O   0  0  0  0  0  1  0  0  0  0  0  0
  1 16  1  6  0  0  0
  1 29  1  0  0  0  0
  2 24  1  1  0  0  0
  2 12  1  0  0  0  0
  4  3  1  0  0  0  0
  5 25  1  6  0  0  0
  5 27  1  0  0  0  0
  6 18  1  6  0  0  0
  6 28  1  0  0  0  0
  6  5  1  0  0  0  0
  7 24  1  6  0  0  0
  7 17  1  0  0  0  0
  9 26  1  1  0  0  0
  9 28  1  0  0  0  0
 11  3  1  0  0  0  0
 12 13  1  0  0  0  0
 12  8  2  0  0  0  0
 13 11  1  0  0  0  0
 14 23  1  6  0  0  0
 14 22  1  0  0  0  0
 15 18  1  0  0  0  0
 15  9  1  0  0  0  0
 17  8  1  1  0  0  0
 17 10  1  0  0  0  0
 19 16  1  6  0  0  0
 19  7  1  0  0  0  0
 19  1  1  0  0  0  0
 20 10  1  0  0  0  0
 21  4  2  0  0  0  0
 22 21  1  0  0  0  0
 22 13  2  0  0  0  0
 27 14  1  0  0  0  0
 27  2  1  0  0  0  0
 28 23  1  0  0  0  0
 29 20  1  0  0  0  0
 30 29  1  0  0  0  0
 31 30  2  0  0  0  0
 32 30  1  0  0  0  0
M  END
>  <MODEL>
1

>  <REMARK>
 VINA RESULT:      -9.5      0.000      0.000
  Name = 
  1 active torsions:
  status: ('A' for Active; 'I' for Inactive)
    1  A    between atoms: C_29  and  C_30
                            x       y       z     vdW  Elec       q    Type
                         _______ _______ _______ _____ _____    ______ ____

>  <TORSDO>
F 1

$$$$
=
 OpenBabel11112416303D

 32 38  0  0  1  0  0  0  0  0999 V2000
  190.8090  171.8850  139.9130 C   0  0  2  0  0  3  0  0  0  0  0  0
  189.4470  175.0100  143.4290 C   0  0  1  0  0  3  0  0  0  0  0  0
  191.6240  175.4500  147.9800 C   0  0  0  0  0  2  0  0  0  0  0  0
  191.0190  176.8230  148.0370 C   0  0  0  0  0  3  0  0  0  0  0  0
  187.2720  176.3280  143.0520 C   0  0  2  0  0  3  0  0  0  0  0  0
  186.2310  177.1550  143.7960 C   0  0  2  0  0  3  0  0  0  0  0  0
  190.1340  173.2700  141.9970 C   0  0  1  0  0  3  0  0  0  0  0  0
  191.1540  173.4240  144.2790 C   0  0  0  0  0  3  0  0  0  0  0  0
  185.7490  179.2150  144.8230 C   0  0  1  0  0  3  0  0  0  0  0  0
  192.2660  171.9870  142.5650 C   0  0  0  0  0  2  0  0  0  0  0  0
  191.6050  174.9400  146.6450 O   0  0  0  0  0  0  0  0  0  0  0  0
  190.4180  174.5230  144.4900 C   0  0  0  0  0  0  0  0  0  0  0  0
  190.6220  175.3190  145.7200 C   0  0  0  0  0  0  0  0  0  0  0  0
  188.8790  176.9180  144.9530 C   0  0  2  0  0  3  0  0  0  0  0  0
  184.7760  178.9460  143.6740 C   0  0  0  0  0  2  0  0  0  0  0  0
  189.8160  172.9860  139.5650 C   0  0  0  0  0  2  0  0  0  0  0  0
  190.9380  172.5410  143.0800 C   0  0  2  0  0  3  0  0  0  0  0  0
  185.2280  177.7590  142.9360 N   0  0  0  0  0  2  0  0  0  0  0  0
  189.7070  172.3030  140.9070 C   0  0  1  0  0  3  0  0  0  0  0  0
  192.8260  172.8370  141.4330 C   0  0  0  0  0  2  0  0  0  0  0  0
  190.1960  177.2210  147.1130 N   0  0  0  0  0  0  0  0  0  0  0  0
  189.8810  176.4150  145.9660 C   0  0  0  0  0  0  0  0  0  0  0  0
  187.7850  177.7730  145.6060 C   0  0  0  0  0  2  0  0  0  0  0  0
  188.9660  173.8960  142.6070 N   0  0  0  0  0  2  0  0  0  0  0  0
  186.6230  175.2780  142.3980 O   0  0  0  0  0  1  0  0  0  0  0  0
  185.0740  178.8480  146.1370 C   0  0  0  0  0  1  0  0  0  0  0  0
  188.2870  175.7730  144.0850 C   0  0  2  0  0  3  0  0  0  0  0  0
  186.9000  178.2970  144.4870 C   0  0  1  0  0  3  0  0  0  0  0  0
  192.2610  172.4280  140.0660 C   0  0  2  0  0  3  0  0  0  0  0  0
  192.6980  173.3510  138.9730 C   0  0  0  0  0  0  0  0  0  0  0  0
  192.7180  172.9180  137.6530 O   0  0  0  0  0  0  0  0  0  0  0  0
  193.0690  174.5210  139.2530 O   0  0  0  0  0  1  0  0  0  0  0  0
  1 16  1  6  0  0  0
  1 29  1  0  0  0  0
  1 19  1  0  0  0  0
  2 24  1  1  0  0  0
  2 27  1  0  0  0  0
  2 12  1  0  0  0  0
  3  4  1  0  0  0  0
  5 25  1  1  0  0  0
  5  6  1  0  0  0  0
  5 27  1  0  0  0  0
  6 18  1  6  0  0  0
  6 28  1  0  0  0  0
  7 24  1  1  0  0  0
  7 17  1  0  0  0  0
  8 12  2  0  0  0  0
  9 26  1  1  0  0  0
 11  3  1  0  0  0  0
 12 13  1  0  0  0  0
 13 22  2  0  0  0  0
 13 11  1  0  0  0  0
 14 23  1  1  0  0  0
 14 22  1  0  0  0  0
 15  9  1  0  0  0  0
 17 10  1  6  0  0  0
 17  8  1  0  0  0  0
 18 15  1  0  0  0  0
 19 16  1  6  0  0  0
 19  7  1  0  0  0  0
 20 10  1  0  0  0  0
 21  4  2  0  0  0  0
 22 21  1  0  0  0  0
 27 14  1  0  0  0  0
 28  9  1  0  0  0  0
 28 23  1  0  0  0  0
 29 20  1  0  0  0  0
 30 32  1  0  0  0  0
 30 29  1  0  0  0  0
 31 30  2  0  0  0  0
M  END
>  <MODEL>
2

>  <REMARK>
 VINA RESULT:      -8.0      2.955      4.801
  Name = 
  1 active torsions:
  status: ('A' for Active; 'I' for Inactive)
    1  A    between atoms: C_29  and  C_30
                            x       y       z     vdW  Elec       q    Type
                         _______ _______ _______ _____ _____    ______ ____

>  <TORSDO>
F 1

$$$$
=
 OpenBabel11112416303D

 32 38  0  0  1  0  0  0  0  0999 V2000
  186.3000  178.8160  144.6810 C   0  0  2  0  0  3  0  0  0  0  0  0
  189.2490  175.1610  143.2980 C   0  0  1  0  0  3  0  0  0  0  0  0
  193.4410  173.6840  145.7250 C   0  0  0  0  0  2  0  0  0  0  0  0
  193.2830  172.3710  145.0130 C   0  0  0  0  0  3  0  0  0  0  0  0
  188.8040  174.0950  141.0010 C   0  0  2  0  0  3  0  0  0  0  0  0
  189.4570  173.2100  139.9460 C   0  0  2  0  0  3  0  0  0  0  0  0
  188.1260  177.0970  144.0310 C   0  0  1  0  0  3  0  0  0  0  0  0
  190.2480  176.4270  145.1820 C   0  0  0  0  0  3  0  0  0  0  0  0
  190.1050  171.0260  139.3640 C   0  0  1  0  0  3  0  0  0  0  0  0
  188.7570  178.0940  146.2950 C   0  0  0  0  0  2  0  0  0  0  0  0
  192.2350  174.4470  145.6610 O   0  0  0  0  0  0  0  0  0  0  0  0
  190.3030  175.3610  144.3740 C   0  0  0  0  0  0  0  0  0  0  0  0
  191.3360  174.3260  144.5910 C   0  0  0  0  0  0  0  0  0  0  0  0
  190.4210  173.0330  142.6750 C   0  0  2  0  0  3  0  0  0  0  0  0
  189.1110  171.5830  138.3430 C   0  0  0  0  0  2  0  0  0  0  0  0
  185.8280  177.8760  143.5790 C   0  0  0  0  0  2  0  0  0  0  0  0
  189.2610  177.5410  144.9620 C   0  0  2  0  0  3  0  0  0  0  0  0
  188.5810  172.8580  138.8430 N   0  0  0  0  0  2  0  0  0  0  0  0
  187.2800  178.2870  143.6150 C   0  0  1  0  0  3  0  0  0  0  0  0
  187.4420  177.4480  146.7070 C   0  0  0  0  0  2  0  0  0  0  0  0
  192.3700  172.2200  144.1010 N   0  0  0  0  0  0  0  0  0  0  0  0
  191.4270  173.2560  143.7790 C   0  0  0  0  0  0  0  0  0  0  0  0
  190.9840  172.1420  141.5590 C   0  0  0  0  0  2  0  0  0  0  0  0
  188.6980  176.4440  142.8580 N   0  0  0  0  0  2  0  0  0  0  0  0
  188.4170  175.2940  140.4000 O   0  0  0  0  0  1  0  0  0  0  0  0
  191.5160  171.1720  138.8090 C   0  0  0  0  0  1  0  0  0  0  0  0
  189.8380  174.3640  142.1240 C   0  0  2  0  0  3  0  0  0  0  0  0
  189.8600  171.9110  140.5630 C   0  0  1  0  0  3  0  0  0  0  0  0
  186.2270  178.1550  146.0890 C   0  0  2  0  0  3  0  0  0  0  0  0
  184.9470  177.4380  146.3750 C   0  0  0  0  0  0  0  0  0  0  0  0
  183.7600  178.1470  146.5130 O   0  0  0  0  0  0  0  0  0  0  0  0
  184.9470  176.1870  146.5130 O   0  0  0  0  0  1  0  0  0  0  0  0
  1 16  1  6  0  0  0
  1 29  1  0  0  0  0
  2 24  1  6  0  0  0
  2 12  1  0  0  0  0
  4  3  1  0  0  0  0
  5 25  1  6  0  0  0
  5 27  1  0  0  0  0
  6 18  1  6  0  0  0
  6 28  1  0  0  0  0
  6  5  1  0  0  0  0
  7 24  1  6  0  0  0
  7 17  1  0  0  0  0
  9 26  1  6  0  0  0
  9 28  1  0  0  0  0
 10 20  1  0  0  0  0
 11  3  1  0  0  0  0
 12 13  1  0  0  0  0
 12  8  2  0  0  0  0
 13 11  1  0  0  0  0
 14 23  1  6  0  0  0
 14 22  1  0  0  0  0
 15 18  1  0  0  0  0
 15  9  1  0  0  0  0
 17  8  1  1  0  0  0
 17 10  1  0  0  0  0
 19 16  1  6  0  0  0
 19  7  1  0  0  0  0
 19  1  1  0  0  0  0
 21  4  2  0  0  0  0
 22 21  1  0  0  0  0
 22 13  2  0  0  0  0
 27 14  1  0  0  0  0
 27  2  1  0  0  0  0
 28 23  1  0  0  0  0
 29 30  1  0  0  0  0
 29 20  1  0  0  0  0
 30 31  2  0  0  0  0
 30 32  1  0  0  0  0
M  END
>  <MODEL>
3

>  <REMARK>
 VINA RESULT:      -8.0      3.017      6.896
  Name = 
  1 active torsions:
  status: ('A' for Active; 'I' for Inactive)
    1  A    between atoms: C_29  and  C_30
                            x       y       z     vdW  Elec       q    Type
                         _______ _______ _______ _____ _____    ______ ____

>  <TORSDO>
F 1

$$$$
=
 OpenBabel11112416303D

 32 38  0  0  1  0  0  0  0  0999 V2000
  196.0450  175.4470  144.2880 C   0  0  2  0  0  3  0  0  0  0  0  0
  191.3850  175.1700  142.8110 C   0  0  1  0  0  3  0  0  0  0  0  0
  189.7410  172.7030  138.7050 C   0  0  0  0  0  2  0  0  0  0  0  0
  188.3920  172.6870  139.3650 C   0  0  0  0  0  3  0  0  0  0  0  0
  189.6710  176.6350  144.0460 C   0  0  2  0  0  3  0  0  0  0  0  0
  188.2590  177.1930  143.9140 C   0  0  2  0  0  3  0  0  0  0  0  0
  193.7040  175.3540  143.1810 C   0  0  1  0  0  3  0  0  0  0  0  0
  192.9050  174.2090  141.1020 C   0  0  0  0  0  3  0  0  0  0  0  0
  185.9580  176.7180  144.0180 C   0  0  1  0  0  3  0  0  0  0  0  0
  195.2830  173.9020  141.7980 C   0  0  0  0  0  2  0  0  0  0  0  0
  190.7670  173.0190  139.6490 O   0  0  0  0  0  0  0  0  0  0  0  0
  191.6490  174.4140  141.5200 C   0  0  0  0  0  0  0  0  0  0  0  0
  190.5190  173.8200  140.7730 C   0  0  0  0  0  0  0  0  0  0  0  0
  188.9360  174.8030  142.4190 C   0  0  2  0  0  3  0  0  0  0  0  0
  186.3330  177.7910  145.0410 C   0  0  0  0  0  2  0  0  0  0  0  0
  194.9510  175.9230  145.2350 C   0  0  0  0  0  2  0  0  0  0  0  0
  194.0830  174.8480  141.7840 C   0  0  2  0  0  3  0  0  0  0  0  0
  187.7960  177.9160  145.0860 N   0  0  0  0  0  2  0  0  0  0  0  0
  194.8160  176.2120  143.7580 C   0  0  1  0  0  3  0  0  0  0  0  0
  195.3640  173.1200  143.1030 C   0  0  0  0  0  2  0  0  0  0  0  0
  188.1910  173.3350  140.4740 N   0  0  0  0  0  0  0  0  0  0  0  0
  189.2470  174.0290  141.1600 C   0  0  0  0  0  0  0  0  0  0  0  0
  187.5240  175.4040  142.3880 C   0  0  0  0  0  2  0  0  0  0  0  0
  192.4640  176.1190  143.0930 N   0  0  0  0  0  2  0  0  0  0  0  0
  190.5550  177.6990  144.2350 O   0  0  0  0  0  1  0  0  0  0  0  0
  185.3650  177.3940  142.7890 C   0  0  0  0  0  1  0  0  0  0  0  0
  190.0180  175.8690  142.7440 C   0  0  2  0  0  3  0  0  0  0  0  0
  187.2920  176.0700  143.7340 C   0  0  1  0  0  3  0  0  0  0  0  0
  196.1110  173.8930  144.1980 C   0  0  2  0  0  3  0  0  0  0  0  0
  196.0680  173.1920  145.5180 C   0  0  0  0  0  0  0  0  0  0  0  0
  197.0570  173.4170  146.4670 O   0  0  0  0  0  1  0  0  0  0  0  0
  195.1400  172.3760  145.7630 O   0  0  0  0  0  0  0  0  0  0  0  0
  1 16  1  1  0  0  0
  2 12  1  6  0  0  0
  2 24  1  0  0  0  0
  3  4  1  0  0  0  0
  3 11  1  0  0  0  0
  4 21  2  0  0  0  0
  5 25  1  6  0  0  0
  6  5  1  0  0  0  0
  6 18  1  1  0  0  0
  7 24  1  6  0  0  0
  7 19  1  0  0  0  0
  8 12  2  0  0  0  0
  9 26  1  6  0  0  0
  9 15  1  0  0  0  0
 10 20  1  0  0  0  0
 11 13  1  0  0  0  0
 13 22  2  0  0  0  0
 13 12  1  0  0  0  0
 14 23  1  6  0  0  0
 14 27  1  0  0  0  0
 15 18  1  0  0  0  0
 17  8  1  1  0  0  0
 17 10  1  0  0  0  0
 17  7  1  0  0  0  0
 19  1  1  0  0  0  0
 19 16  1  1  0  0  0
 20 29  1  0  0  0  0
 21 22  1  0  0  0  0
 22 14  1  0  0  0  0
 23 28  1  0  0  0  0
 27  2  1  0  0  0  0
 27  5  1  0  0  0  0
 28  6  1  0  0  0  0
 28  9  1  0  0  0  0
 29  1  1  0  0  0  0
 29 30  1  0  0  0  0
 30 32  2  0  0  0  0
 30 31  1  0  0  0  0
M  END
>  <MODEL>
4

>  <REMARK>
 VINA RESULT:      -7.8      2.772      5.596
  Name = 
  1 active torsions:
  status: ('A' for Active; 'I' for Inactive)
    1  A    between atoms: C_29  and  C_30
                            x       y       z     vdW  Elec       q    Type
                         _______ _______ _______ _____ _____    ______ ____

>  <TORSDO>
F 1

$$$$
=
 OpenBabel11112416303D

 32 38  0  0  1  0  0  0  0  0999 V2000
  192.2370  172.4190  139.3850 C   0  0  2  0  0  3  0  0  0  0  0  0
  190.0990  175.1630  142.8310 C   0  0  1  0  0  3  0  0  0  0  0  0
  191.5490  175.4620  147.6740 C   0  0  0  0  0  2  0  0  0  0  0  0
  190.8160  176.7720  147.7190 C   0  0  0  0  0  3  0  0  0  0  0  0
  187.8870  176.3170  142.2100 C   0  0  2  0  0  3  0  0  0  0  0  0
  186.6770  176.9990  142.8370 C   0  0  2  0  0  3  0  0  0  0  0  0
  191.1430  173.5920  141.4200 C   0  0  1  0  0  3  0  0  0  0  0  0
  191.8070  173.6700  143.8340 C   0  0  0  0  0  3  0  0  0  0  0  0
  185.8630  178.9340  143.8970 C   0  0  1  0  0  3  0  0  0  0  0  0
  193.2820  172.4550  142.2260 C   0  0  0  0  0  2  0  0  0  0  0  0
  191.7700  175.0480  146.3240 O   0  0  0  0  0  0  0  0  0  0  0  0
  190.9490  174.6860  143.9960 C   0  0  0  0  0  0  0  0  0  0  0  0
  190.8990  175.4070  145.2850 C   0  0  0  0  0  0  0  0  0  0  0  0
  189.1420  176.9040  144.3610 C   0  0  2  0  0  3  0  0  0  0  0  0
  185.0940  178.6660  142.6020 C   0  0  0  0  0  2  0  0  0  0  0  0
  191.2060  173.4550  138.9560 C   0  0  0  0  0  2  0  0  0  0  0  0
  191.8480  172.8590  142.5680 C   0  0  2  0  0  3  0  0  0  0  0  0
  185.7560  177.5760  141.8730 N   0  0  0  0  0  2  0  0  0  0  0  0
  190.9700  172.6720  140.2250 C   0  0  1  0  0  3  0  0  0  0  0  0
  193.9170  173.4270  141.2400 C   0  0  0  0  0  2  0  0  0  0  0  0
  190.1010  177.1640  146.7070 N   0  0  0  0  0  0  0  0  0  0  0  0
  190.0310  176.4170  145.4800 C   0  0  0  0  0  0  0  0  0  0  0  0
  187.8910  177.6170  144.8910 C   0  0  0  0  0  2  0  0  0  0  0  0
  189.8470  174.0740  141.8840 N   0  0  0  0  0  2  0  0  0  0  0  0
  187.4390  175.2660  141.4070 O   0  0  0  0  0  1  0  0  0  0  0  0
  185.0430  178.4200  145.0720 C   0  0  0  0  0  1  0  0  0  0  0  0
  188.7900  175.7780  143.3490 C   0  0  2  0  0  3  0  0  0  0  0  0
  187.1310  178.1420  143.6850 C   0  0  1  0  0  3  0  0  0  0  0  0
  193.5950  173.0700  139.7830 C   0  0  2  0  0  3  0  0  0  0  0  0
  194.0960  174.1010  138.8220 C   0  0  0  0  0  0  0  0  0  0  0  0
  194.4290  173.7470  137.5210 O   0  0  0  0  0  0  0  0  0  0  0  0
  194.2360  175.2940  139.2010 O   0  0  0  0  0  1  0  0  0  0  0  0
  1 16  1  6  0  0  0
  1 29  1  0  0  0  0
  1 19  1  0  0  0  0
  2 24  1  6  0  0  0
  2 27  1  0  0  0  0
  2 12  1  0  0  0  0
  3  4  1  0  0  0  0
  5 25  1  6  0  0  0
  5  6  1  0  0  0  0
  5 27  1  0  0  0  0
  6 18  1  6  0  0  0
  6 28  1  0  0  0  0
  7 24  1  1  0  0  0
  7 17  1  0  0  0  0
  8 12  2  0  0  0  0
  9 26  1  1  0  0  0
 11  3  1  0  0  0  0
 12 13  1  0  0  0  0
 13 22  2  0  0  0  0
 13 11  1  0  0  0  0
 14 23  1  1  0  0  0
 14 22  1  0  0  0  0
 15  9  1  0  0  0  0
 17 10  1  6  0  0  0
 17  8  1  0  0  0  0
 18 15  1  0  0  0  0
 19 16  1  6  0  0  0
 19  7  1  0  0  0  0
 20 10  1  0  0  0  0
 21  4  2  0  0  0  0
 22 21  1  0  0  0  0
 27 14  1  0  0  0  0
 28  9  1  0  0  0  0
 28 23  1  0  0  0  0
 29 20  1  0  0  0  0
 30 32  1  0  0  0  0
 30 29  1  0  0  0  0
 31 30  2  0  0  0  0
M  END
>  <MODEL>
5

>  <REMARK>
 VINA RESULT:      -7.5      3.065      4.652
  Name = 
  1 active torsions:
  status: ('A' for Active; 'I' for Inactive)
    1  A    between atoms: C_29  and  C_30
                            x       y       z     vdW  Elec       q    Type
                         _______ _______ _______ _____ _____    ______ ____

>  <TORSDO>
F 1

$$$$
=
 OpenBabel11112416303D

 32 38  0  0  1  0  0  0  0  0999 V2000
  192.5860  173.9360  146.0470 C   0  0  2  0  0  3  0  0  0  0  0  0
  188.8560  176.1810  143.8070 C   0  0  1  0  0  3  0  0  0  0  0  0
  185.3490  179.0410  146.0800 C   0  0  0  0  0  2  0  0  0  0  0  0
  185.1020  179.6520  144.7310 C   0  0  0  0  0  3  0  0  0  0  0  0
  188.4700  175.6290  141.3250 C   0  0  2  0  0  3  0  0  0  0  0  0
  187.4210  175.7360  140.2250 C   0  0  2  0  0  3  0  0  0  0  0  0
  190.4150  175.0150  145.1330 C   0  0  1  0  0  3  0  0  0  0  0  0
  188.6310  176.3550  146.2710 C   0  0  0  0  0  3  0  0  0  0  0  0
  186.3170  177.1640  138.7180 C   0  0  1  0  0  3  0  0  0  0  0  0
  190.6060  175.6130  147.6070 C   0  0  0  0  0  2  0  0  0  0  0  0
  186.5880  178.3280  146.0980 O   0  0  0  0  0  0  0  0  0  0  0  0
  188.1910  176.7240  145.0600 C   0  0  0  0  0  0  0  0  0  0  0  0
  187.1190  177.7350  144.9440 C   0  0  0  0  0  0  0  0  0  0  0  0
  187.2520  177.5680  142.4670 C   0  0  2  0  0  3  0  0  0  0  0  0
  187.0530  176.0540  137.9670 C   0  0  0  0  0  2  0  0  0  0  0  0
  192.5820  174.0000  144.5250 C   0  0  0  0  0  2  0  0  0  0  0  0
  189.6690  175.2810  146.4460 C   0  0  2  0  0  3  0  0  0  0  0  0
  187.8870  175.3080  138.9180 N   0  0  0  0  0  2  0  0  0  0  0  0
  191.2770  173.7710  145.2500 C   0  0  1  0  0  3  0  0  0  0  0  0
  191.8730  176.3060  147.1240 C   0  0  0  0  0  2  0  0  0  0  0  0
  185.6880  179.1770  143.6730 N   0  0  0  0  0  0  0  0  0  0  0  0
  186.6450  178.1060  143.7410 C   0  0  0  0  0  0  0  0  0  0  0  0
  186.2710  177.6380  141.2890 C   0  0  0  0  0  2  0  0  0  0  0  0
  189.4450  174.8630  144.0530 N   0  0  0  0  0  2  0  0  0  0  0  0
  188.8460  174.2900  141.4540 O   0  0  0  0  0  1  0  0  0  0  0  0
  184.8450  176.7900  138.8330 C   0  0  0  0  0  1  0  0  0  0  0  0
  187.8470  176.1440  142.6480 C   0  0  2  0  0  3  0  0  0  0  0  0
  187.0200  177.1650  140.0550 C   0  0  1  0  0  3  0  0  0  0  0  0
  192.9540  175.3050  146.6920 C   0  0  2  0  0  3  0  0  0  0  0  0
  194.1420  175.9810  146.0840 C   0  0  0  0  0  0  0  0  0  0  0  0
  195.3500  175.3050  145.9650 O   0  0  0  0  0  1  0  0  0  0  0  0
  194.0520  177.1750  145.6970 O   0  0  0  0  0  0  0  0  0  0  0  0
  1 16  1  6  0  0  0
  1 29  1  0  0  0  0
  2 24  1  1  0  0  0
  2 12  1  0  0  0  0
  3 11  1  0  0  0  0
  4  3  1  0  0  0  0
  5 25  1  1  0  0  0
  5 27  1  0  0  0  0
  6 18  1  6  0  0  0
  6  5  1  0  0  0  0
  7 24  1  6  0  0  0
  7 19  1  0  0  0  0
  7 17  1  0  0  0  0
  9 26  1  1  0  0  0
  9 28  1  0  0  0  0
 12  8  2  0  0  0  0
 13 12  1  0  0  0  0
 13 11  1  0  0  0  0
 14 23  1  6  0  0  0
 14 27  1  0  0  0  0
 14 22  1  0  0  0  0
 15  9  1  0  0  0  0
 15 18  1  0  0  0  0
 17  8  1  6  0  0  0
 17 10  1  0  0  0  0
 19 16  1  6  0  0  0
 19  1  1  0  0  0  0
 20 10  1  0  0  0  0
 21 22  1  0  0  0  0
 21  4  2  0  0  0  0
 22 13  2  0  0  0  0
 27  2  1  0  0  0  0
 28  6  1  0  0  0  0
 28 23  1  0  0  0  0
 29 20  1  0  0  0  0
 30 29  1  0  0  0  0
 31 30  1  0  0  0  0
 32 30  2  0  0  0  0
M  END
>  <MODEL>
6

>  <REMARK>
 VINA RESULT:      -7.5      1.208      1.513
  Name = 
  1 active torsions:
  status: ('A' for Active; 'I' for Inactive)
    1  A    between atoms: C_29  and  C_30
                            x       y       z     vdW  Elec       q    Type
                         _______ _______ _______ _____ _____    ______ ____

>  <TORSDO>
F 1

$$$$
=
 OpenBabel11112416303D

 32 38  0  0  1  0  0  0  0  0999 V2000
  187.3260  176.7580  144.9560 C   0  0  2  0  0  3  0  0  0  0  0  0
  191.2770  175.2860  142.4650 C   0  0  1  0  0  3  0  0  0  0  0  0
  191.3000  171.8410  138.7540 C   0  0  0  0  0  2  0  0  0  0  0  0
  192.5970  172.4560  138.3130 C   0  0  0  0  0  3  0  0  0  0  0  0
  193.5660  176.1060  143.3010 C   0  0  2  0  0  3  0  0  0  0  0  0
  195.0570  175.8160  143.1790 C   0  0  2  0  0  3  0  0  0  0  0  0
  189.2870  175.6540  143.6710 C   0  0  1  0  0  3  0  0  0  0  0  0
  189.3110  173.8850  141.8980 C   0  0  0  0  0  3  0  0  0  0  0  0
  196.9700  175.9770  141.8210 C   0  0  1  0  0  3  0  0  0  0  0  0
  187.1070  174.6860  142.7600 C   0  0  0  0  0  2  0  0  0  0  0  0
  190.6060  172.7060  139.6550 O   0  0  0  0  0  0  0  0  0  0  0  0
  190.5830  174.2160  141.6410 C   0  0  0  0  0  0  0  0  0  0  0  0
  191.2830  173.6040  140.4920 C   0  0  0  0  0  0  0  0  0  0  0  0
  193.3090  174.9390  141.0380 C   0  0  2  0  0  3  0  0  0  0  0  0
  197.1790  176.7280  143.1370 C   0  0  0  0  0  2  0  0  0  0  0  0
  188.6220  177.5430  145.1150 C   0  0  0  0  0  2  0  0  0  0  0  0
  188.5760  174.4240  143.0950 C   0  0  2  0  0  3  0  0  0  0  0  0
  195.9050  176.7750  143.8660 N   0  0  0  0  0  2  0  0  0  0  0  0
  188.6880  176.0380  145.0120 C   0  0  1  0  0  3  0  0  0  0  0  0
  186.8740  176.1390  142.3690 C   0  0  0  0  0  2  0  0  0  0  0  0
  193.1690  173.3770  139.0300 N   0  0  0  0  0  0  0  0  0  0  0  0
  192.5680  173.9030  140.2260 C   0  0  0  0  0  0  0  0  0  0  0  0
  194.8290  174.7360  140.9760 C   0  0  0  0  0  2  0  0  0  0  0  0
  190.7090  175.3620  143.8130 N   0  0  0  0  0  2  0  0  0  0  0  0
  193.2110  176.0590  144.6500 O   0  0  0  0  0  1  0  0  0  0  0  0
  197.6360  174.6120  141.9200 C   0  0  0  0  0  1  0  0  0  0  0  0
  192.7910  175.0280  142.5010 C   0  0  2  0  0  3  0  0  0  0  0  0
  195.4640  175.8830  141.7440 C   0  0  1  0  0  3  0  0  0  0  0  0
  186.6330  177.0380  143.5890 C   0  0  2  0  0  3  0  0  0  0  0  0
  186.5460  178.4840  143.2200 C   0  0  0  0  0  0  0  0  0  0  0  0
  185.9410  179.3940  144.0790 O   0  0  0  0  0  1  0  0  0  0  0  0
  187.0050  178.8770  142.1150 O   0  0  0  0  0  0  0  0  0  0  0  0
  1 19  1  0  0  0  0
  1 16  1  6  0  0  0
  2 12  1  6  0  0  0
  2 27  1  0  0  0  0
  2 24  1  0  0  0  0
  3 11  1  0  0  0  0
  4  3  1  0  0  0  0
  4 21  2  0  0  0  0
  5 25  1  1  0  0  0
  6  5  1  0  0  0  0
  6 18  1  1  0  0  0
  7 24  1  1  0  0  0
  7 19  1  0  0  0  0
  9 26  1  1  0  0  0
  9 15  1  0  0  0  0
 10 17  1  0  0  0  0
 11 13  1  0  0  0  0
 12  8  2  0  0  0  0
 13 12  1  0  0  0  0
 14 23  1  1  0  0  0
 14 27  1  0  0  0  0
 15 18  1  0  0  0  0
 17  8  1  6  0  0  0
 17  7  1  0  0  0  0
 19 16  1  6  0  0  0
 20 10  1  0  0  0  0
 20 29  1  0  0  0  0
 21 22  1  0  0  0  0
 22 13  2  0  0  0  0
 22 14  1  0  0  0  0
 23 28  1  0  0  0  0
 27  5  1  0  0  0  0
 28  9  1  0  0  0  0
 28  6  1  0  0  0  0
 29  1  1  0  0  0  0
 30 29  1  0  0  0  0
 30 31  1  0  0  0  0
 32 30  2  0  0  0  0
M  END
>  <MODEL>
7

>  <REMARK>
 VINA RESULT:      -7.4      3.457      8.475
  Name = 
  1 active torsions:
  status: ('A' for Active; 'I' for Inactive)
    1  A    between atoms: C_29  and  C_30
                            x       y       z     vdW  Elec       q    Type
                         _______ _______ _______ _____ _____    ______ ____

>  <TORSDO>
F 1

$$$$
=
 OpenBabel11112416303D

 32 38  0  0  1  0  0  0  0  0999 V2000
  194.5370  173.5720  140.7750 C   0  0  2  0  0  3  0  0  0  0  0  0
  191.0750  175.8500  143.3830 C   0  0  1  0  0  3  0  0  0  0  0  0
  191.1910  176.6250  148.3860 C   0  0  0  0  0  2  0  0  0  0  0  0
  190.2040  177.7310  148.1470 C   0  0  0  0  0  3  0  0  0  0  0  0
  188.8870  176.4420  142.1690 C   0  0  2  0  0  3  0  0  0  0  0  0
  187.4430  176.8450  142.4370 C   0  0  2  0  0  3  0  0  0  0  0  0
  192.7500  174.5210  142.3930 C   0  0  1  0  0  3  0  0  0  0  0  0
  192.7660  174.8240  144.8790 C   0  0  0  0  0  3  0  0  0  0  0  0
  185.9930  178.5700  143.1090 C   0  0  1  0  0  3  0  0  0  0  0  0
  194.8190  173.9350  143.7680 C   0  0  0  0  0  2  0  0  0  0  0  0
  191.8210  176.2310  147.1650 O   0  0  0  0  0  0  0  0  0  0  0  0
  191.6960  175.6190  144.7490 C   0  0  0  0  0  0  0  0  0  0  0  0
  191.1750  176.3480  145.9260 C   0  0  0  0  0  0  0  0  0  0  0  0
  189.4180  177.3690  144.4930 C   0  0  2  0  0  3  0  0  0  0  0  0
  185.6430  178.0920  141.6980 C   0  0  0  0  0  2  0  0  0  0  0  0
  193.4440  174.3270  140.0320 C   0  0  0  0  0  2  0  0  0  0  0  0
  193.2930  174.0070  143.7310 C   0  0  2  0  0  3  0  0  0  0  0  0
  186.6850  177.1630  141.2390 N   0  0  0  0  0  2  0  0  0  0  0  0
  193.0790  173.5500  141.2740 C   0  0  1  0  0  3  0  0  0  0  0  0
  195.4500  174.9970  142.8770 C   0  0  0  0  0  2  0  0  0  0  0  0
  189.6910  177.9160  146.9670 N   0  0  0  0  0  0  0  0  0  0  0  0
  190.0880  177.1350  145.8270 C   0  0  0  0  0  0  0  0  0  0  0  0
  187.9510  177.7890  144.6550 C   0  0  0  0  0  2  0  0  0  0  0  0
  191.3060  174.7040  142.5000 N   0  0  0  0  0  2  0  0  0  0  0  0
  188.8900  175.2920  141.3770 O   0  0  0  0  0  1  0  0  0  0  0  0
  185.0420  177.9170  144.1010 C   0  0  0  0  0  1  0  0  0  0  0  0
  189.5780  176.1620  143.5280 C   0  0  2  0  0  3  0  0  0  0  0  0
  187.4150  178.0870  143.2650 C   0  0  1  0  0  3  0  0  0  0  0  0
  195.5810  174.5310  141.4210 C   0  0  2  0  0  3  0  0  0  0  0  0
  196.0670  175.6200  140.5180 C   0  0  0  0  0  0  0  0  0  0  0  0
  196.6250  175.3130  139.2830 O   0  0  0  0  0  0  0  0  0  0  0  0
  195.9880  176.8210  140.8880 O   0  0  0  0  0  1  0  0  0  0  0  0
  1 16  1  6  0  0  0
  1 19  1  0  0  0  0
  1 29  1  0  0  0  0
  2 24  1  6  0  0  0
  2 27  1  0  0  0  0
  2 12  1  0  0  0  0
  4  3  1  0  0  0  0
  5 25  1  6  0  0  0
  5  6  1  0  0  0  0
  5 27  1  0  0  0  0
  6 18  1  6  0  0  0
  6 28  1  0  0  0  0
  7 24  1  1  0  0  0
  7 17  1  0  0  0  0
  9 28  1  0  0  0  0
  9 26  1  1  0  0  0
 11  3  1  0  0  0  0
 12  8  2  0  0  0  0
 12 13  1  0  0  0  0
 13 11  1  0  0  0  0
 14 23  1  1  0  0  0
 14 22  1  0  0  0  0
 15  9  1  0  0  0  0
 17 10  1  6  0  0  0
 17  8  1  0  0  0  0
 18 15  1  0  0  0  0
 19 16  1  6  0  0  0
 19  7  1  0  0  0  0
 20 10  1  0  0  0  0
 21  4  2  0  0  0  0
 22 13  2  0  0  0  0
 22 21  1  0  0  0  0
 27 14  1  0  0  0  0
 28 23  1  0  0  0  0
 29 20  1  0  0  0  0
 30 32  1  0  0  0  0
 30 29  1  0  0  0  0
 31 30  2  0  0  0  0
M  END
>  <MODEL>
8

>  <REMARK>
 VINA RESULT:      -7.4      2.522      3.860
  Name = 
  1 active torsions:
  status: ('A' for Active; 'I' for Inactive)
    1  A    between atoms: C_29  and  C_30
                            x       y       z     vdW  Elec       q    Type
                         _______ _______ _______ _____ _____    ______ ____

>  <TORSDO>
F 1

$$$$
=
 OpenBabel11112416303D

 32 38  0  0  1  0  0  0  0  0999 V2000
  187.4480  177.2740  142.9060 C   0  0  2  0  0  3  0  0  0  0  0  0
  191.1190  174.0910  143.5120 C   0  0  1  0  0  3  0  0  0  0  0  0
  195.6910  175.1950  145.3890 C   0  0  0  0  0  2  0  0  0  0  0  0
  195.8190  173.7310  145.6970 C   0  0  0  0  0  3  0  0  0  0  0  0
  190.8080  171.7360  142.5290 C   0  0  2  0  0  3  0  0  0  0  0  0
  191.5920  170.4880  142.1430 C   0  0  2  0  0  3  0  0  0  0  0  0
  189.5990  175.8430  143.0990 C   0  0  1  0  0  3  0  0  0  0  0  0
  191.8890  176.4090  143.9430 C   0  0  0  0  0  3  0  0  0  0  0  0
  192.7240  168.5800  142.9220 C   0  0  1  0  0  3  0  0  0  0  0  0
  190.1040  178.1530  144.0620 C   0  0  0  0  0  2  0  0  0  0  0  0
  194.3320  175.5430  145.1180 O   0  0  0  0  0  0  0  0  0  0  0  0
  192.1560  175.0970  143.9820 C   0  0  0  0  0  0  0  0  0  0  0  0
  193.4250  174.6230  144.5720 C   0  0  0  0  0  0  0  0  0  0  0  0
  192.7400  172.2760  144.1160 C   0  0  2  0  0  3  0  0  0  0  0  0
  191.5610  168.1810  142.0130 C   0  0  0  0  0  2  0  0  0  0  0  0
  187.1560  175.7870  142.7550 C   0  0  0  0  0  2  0  0  0  0  0  0
  190.6450  176.9480  143.2920 C   0  0  2  0  0  3  0  0  0  0  0  0
  190.7630  169.3770  141.7100 N   0  0  0  0  0  2  0  0  0  0  0  0
  188.4600  176.3320  142.2240 C   0  0  1  0  0  3  0  0  0  0  0  0
  189.0190  177.7450  145.0490 C   0  0  0  0  0  2  0  0  0  0  0  0
  194.9160  172.8890  145.2920 N   0  0  0  0  0  0  0  0  0  0  0  0
  193.7270  173.3110  144.6030 C   0  0  0  0  0  0  0  0  0  0  0  0
  193.4350  170.9700  143.7070 C   0  0  0  0  0  2  0  0  0  0  0  0
  190.2400  174.6780  142.4980 N   0  0  0  0  0  2  0  0  0  0  0  0
  190.0980  172.1800  141.4110 O   0  0  0  0  0  1  0  0  0  0  0  0
  194.0160  168.5360  142.1180 C   0  0  0  0  0  1  0  0  0  0  0  0
  191.8120  172.8210  142.9950 C   0  0  2  0  0  3  0  0  0  0  0  0
  192.3430  169.9820  143.3310 C   0  0  1  0  0  3  0  0  0  0  0  0
  187.6310  177.6890  144.3960 C   0  0  2  0  0  3  0  0  0  0  0  0
  186.5890  177.1520  145.3240 C   0  0  0  0  0  0  0  0  0  0  0  0
  185.2500  177.4780  145.1430 O   0  0  0  0  0  0  0  0  0  0  0  0
  186.9290  176.4160  146.2880 O   0  0  0  0  0  1  0  0  0  0  0  0
  1 16  1  1  0  0  0
  1 29  1  0  0  0  0
  2 24  1  6  0  0  0
  2 12  1  0  0  0  0
  3  4  1  0  0  0  0
  5 25  1  6  0  0  0
  5 27  1  0  0  0  0
  6 18  1  1  0  0  0
  6  5  1  0  0  0  0
  6 28  1  0  0  0  0
  7 24  1  6  0  0  0
  7 17  1  0  0  0  0
  8 12  2  0  0  0  0
  9 26  1  6  0  0  0
  9 28  1  0  0  0  0
 10 20  1  0  0  0  0
 11  3  1  0  0  0  0
 12 13  1  0  0  0  0
 13 22  2  0  0  0  0
 13 11  1  0  0  0  0
 14 23  1  6  0  0  0
 14 22  1  0  0  0  0
 15  9  1  0  0  0  0
 17  8  1  1  0  0  0
 17 10  1  0  0  0  0
 18 15  1  0  0  0  0
 19 16  1  1  0  0  0
 19  1  1  0  0  0  0
 19  7  1  0  0  0  0
 21  4  2  0  0  0  0
 22 21  1  0  0  0  0
 27  2  1  0  0  0  0
 27 14  1  0  0  0  0
 28 23  1  0  0  0  0
 29 20  1  0  0  0  0
 29 30  1  0  0  0  0
 30 32  1  0  0  0  0
 31 30  2  0  0  0  0
M  END
>  <MODEL>
9

>  <REMARK>
 VINA RESULT:      -7.4      3.196      7.991
  Name = 
  1 active torsions:
  status: ('A' for Active; 'I' for Inactive)
    1  A    between atoms: C_29  and  C_30
                            x       y       z     vdW  Elec       q    Type
                         _______ _______ _______ _____ _____    ______ ____

>  <TORSDO>
F 1

$$$$
