=
 OpenBabel11112417373D

 28 31  0  0  1  0  0  0  0  0999 V2000
  187.9270  177.6460  144.4770 C   0  0  0  0  0  0  0  0  0  0  0  0
  189.9220  177.4650  147.5100 C   0  0  0  0  0  1  0  0  0  0  0  0
  185.6810  177.2830  146.1100 C   0  0  0  0  0  3  0  0  0  0  0  0
  189.0440  177.8080  143.6580 O   0  0  0  0  0  0  0  0  0  0  0  0
  190.5330  175.1760  147.7130 O   0  0  0  0  0  1  0  0  0  0  0  0
  190.7050  176.3110  146.9110 C   0  0  1  0  0  0  0  0  0  0  0  0
  193.0380  175.7520  146.0380 C   0  0  2  0  0  3  0  0  0  0  0  0
  190.2700  176.0570  145.5240 N   0  0  1  0  0  0  0  0  0  0  0  0
  186.9070  177.1260  141.2820 C   0  0  0  0  0  1  0  0  0  0  0  0
  189.0350  174.5830  144.1270 C   0  0  2  0  0  3  0  0  0  0  0  0
  192.4350  175.5180  144.7220 N   0  0  0  0  0  2  0  0  0  0  0  0
  192.1900  176.7170  146.8900 C   0  0  0  0  0  2  0  0  0  0  0  0
  188.4210  177.0840  141.4140 C   0  0  2  0  0  3  0  0  0  0  0  0
  187.8610  176.5400  145.3440 C   0  0  0  0  0  0  0  0  0  0  0  0
  194.4310  176.3180  145.8660 C   0  0  0  0  0  1  0  0  0  0  0  0
  188.9660  175.6970  141.7880 C   0  0  0  0  0  2  0  0  0  0  0  0
  186.7330  176.3630  146.1520 C   0  0  0  0  0  3  0  0  0  0  0  0
  186.8650  178.5610  144.4300 C   0  0  0  0  0  3  0  0  0  0  0  0
  185.7470  178.3810  145.2490 C   0  0  0  0  0  3  0  0  0  0  0  0
  188.9480  178.2160  142.3000 C   0  0  0  0  0  2  0  0  0  0  0  0
  190.4560  174.4670  143.7950 N   0  0  0  0  0  0  0  0  0  0  0  0
  188.1780  175.0020  142.9100 C   0  0  1  0  0  3  0  0  0  0  0  0
  191.1040  174.9950  144.9850 C   0  0  2  0  0  3  0  0  0  0  0  0
  188.9390  175.4850  145.3770 C   0  0  2  0  0  3  0  0  0  0  0  0
  188.2290  173.5600  141.2320 C   0  0  0  0  0  1  0  0  0  0  0  0
  187.5240  173.8830  142.3930 O   0  0  0  0  0  0  0  0  0  0  0  0
  190.7590  173.0450  143.7340 C   0  0  0  0  0  2  0  0  0  0  0  0
  189.8860  172.2940  144.7210 C   0  0  0  0  0  1  0  0  0  0  0  0
  1 14  1  0  0  0  0
  3 17  1  0  0  0  0
  4  1  1  0  0  0  0
  6  2  1  1  0  0  0
  6  5  1  0  0  0  0
  7 15  1  6  0  0  0
  7 12  1  0  0  0  0
  8  6  1  0  0  0  0
  9 13  1  0  0  0  0
 10 24  1  0  0  0  0
 11 23  1  0  0  0  0
 11  7  1  0  0  0  0
 12  6  1  0  0  0  0
 13 16  1  0  0  0  0
 13 20  1  0  0  0  0
 14 24  1  0  0  0  0
 14 17  2  0  0  0  0
 16 22  1  0  0  0  0
 18  1  2  0  0  0  0
 18 19  1  0  0  0  0
 19  3  2  0  0  0  0
 20  4  1  0  0  0  0
 21 10  1  0  0  0  0
 21 23  1  0  0  0  0
 22 10  1  0  0  0  0
 23  8  1  0  0  0  0
 24  8  1  0  0  0  0
 25 26  1  0  0  0  0
 26 22  1  0  0  0  0
 27 21  1  0  0  0  0
 27 28  1  0  0  0  0
M  END
>  <MODEL>
1

>  <REMARK>
 VINA RESULT:      -7.5      0.000      0.000
  Name = 
  2 active torsions:
  status: ('A' for Active; 'I' for Inactive)
    1  A    between atoms: C_5  and  N_24
    2  A    between atoms: O_17  and  C_25
                            x       y       z     vdW  Elec       q    Type
                         _______ _______ _______ _____ _____    ______ ____

>  <TORSDO>
F 2

$$$$
=
 OpenBabel11112417373D

 28 31  0  0  1  0  0  0  0  0999 V2000
  189.4550  176.2590  144.7580 C   0  0  0  0  0  0  0  0  0  0  0  0
  192.8580  176.1850  146.0350 C   0  0  0  0  0  1  0  0  0  0  0  0
  188.6750  175.1220  147.1950 C   0  0  0  0  0  3  0  0  0  0  0  0
  189.8420  176.8070  143.5350 O   0  0  0  0  0  0  0  0  0  0  0  0
  193.7600  174.1200  145.2730 O   0  0  0  0  0  1  0  0  0  0  0  0
  193.2770  175.3590  144.8320 C   0  0  1  0  0  0  0  0  0  0  0  0
  194.6940  175.5320  142.7150 C   0  0  2  0  0  3  0  0  0  0  0  0
  192.1450  175.1910  143.9000 N   0  0  1  0  0  0  0  0  0  0  0  0
  186.8250  175.9310  142.6380 C   0  0  0  0  0  1  0  0  0  0  0  0
  190.5260  173.6530  143.0860 C   0  0  2  0  0  3  0  0  0  0  0  0
  193.4680  175.3320  141.9380 N   0  0  0  0  0  2  0  0  0  0  0  0
  194.3970  176.1270  144.1070 C   0  0  0  0  0  2  0  0  0  0  0  0
  188.1150  176.2570  141.9040 C   0  0  2  0  0  3  0  0  0  0  0  0
  190.0560  175.0660  145.2010 C   0  0  0  0  0  0  0  0  0  0  0  0
  195.6310  176.4510  141.9610 C   0  0  0  0  0  1  0  0  0  0  0  0
  188.9490  175.0170  141.5470 C   0  0  0  0  0  2  0  0  0  0  0  0
  189.6560  174.5020  146.4170 C   0  0  0  0  0  3  0  0  0  0  0  0
  188.4640  176.8720  145.5370 C   0  0  0  0  0  3  0  0  0  0  0  0
  188.0780  176.3060  146.7550 C   0  0  0  0  0  3  0  0  0  0  0  0
  188.9120  177.3560  142.6110 C   0  0  0  0  0  2  0  0  0  0  0  0
  191.4780  173.9470  142.0140 N   0  0  0  0  0  0  0  0  0  0  0  0
  189.0720  174.0000  142.6940 C   0  0  1  0  0  3  0  0  0  0  0  0
  192.6290  174.4580  142.7420 C   0  0  2  0  0  3  0  0  0  0  0  0
  191.0710  174.3240  144.3660 C   0  0  2  0  0  3  0  0  0  0  0  0
  188.2010  172.9160  140.9720 C   0  0  0  0  0  1  0  0  0  0  0  0
  188.3890  172.8320  142.3530 O   0  0  0  0  0  0  0  0  0  0  0  0
  191.8670  172.6700  141.4340 C   0  0  0  0  0  2  0  0  0  0  0  0
  191.7950  172.7530  139.9220 C   0  0  0  0  0  1  0  0  0  0  0  0
  1 14  2  0  0  0  0
  1 18  1  0  0  0  0
  4  1  1  0  0  0  0
  6  5  1  0  0  0  0
  6  2  1  1  0  0  0
  7 15  1  6  0  0  0
  7 12  1  0  0  0  0
  8 24  1  0  0  0  0
  8  6  1  0  0  0  0
 10 24  1  0  0  0  0
 11  7  1  0  0  0  0
 11 23  1  0  0  0  0
 12  6  1  0  0  0  0
 13 20  1  0  0  0  0
 13  9  1  0  0  0  0
 14 17  1  0  0  0  0
 16 13  1  0  0  0  0
 16 22  1  0  0  0  0
 17  3  2  0  0  0  0
 18 19  2  0  0  0  0
 19  3  1  0  0  0  0
 20  4  1  0  0  0  0
 21 23  1  0  0  0  0
 21 10  1  0  0  0  0
 22 10  1  0  0  0  0
 23  8  1  0  0  0  0
 24 14  1  0  0  0  0
 25 26  1  0  0  0  0
 26 22  1  0  0  0  0
 27 21  1  0  0  0  0
 28 27  1  0  0  0  0
M  END
>  <MODEL>
2

>  <REMARK>
 VINA RESULT:      -7.1      2.035      2.842
  Name = 
  2 active torsions:
  status: ('A' for Active; 'I' for Inactive)
    1  A    between atoms: C_5  and  N_24
    2  A    between atoms: O_17  and  C_25
                            x       y       z     vdW  Elec       q    Type
                         _______ _______ _______ _____ _____    ______ ____

>  <TORSDO>
F 2

$$$$
=
 OpenBabel11112417373D

 28 31  0  0  1  0  0  0  0  0999 V2000
  191.2740  173.6310  144.3920 C   0  0  0  0  0  0  0  0  0  0  0  0
  191.0720  176.6930  146.3400 C   0  0  0  0  0  1  0  0  0  0  0  0
  193.8950  174.3840  143.7570 C   0  0  0  0  0  3  0  0  0  0  0  0
  189.9620  173.2610  144.6910 O   0  0  0  0  0  0  0  0  0  0  0  0
  190.1650  178.3130  144.8530 O   0  0  0  0  0  1  0  0  0  0  0  0
  189.8670  177.1190  145.5210 C   0  0  1  0  0  0  0  0  0  0  0  0
  187.3520  177.4900  145.7580 C   0  0  2  0  0  3  0  0  0  0  0  0
  189.4850  176.0560  144.5710 N   0  0  1  0  0  0  0  0  0  0  0  0
  190.4250  171.1390  142.2490 C   0  0  0  0  0  1  0  0  0  0  0  0
  189.5080  175.4110  142.2850 C   0  0  2  0  0  3  0  0  0  0  0  0
  187.1520  176.4180  144.7790 N   0  0  0  0  0  2  0  0  0  0  0  0
  188.6970  177.3440  146.4970 C   0  0  0  0  0  2  0  0  0  0  0  0
  189.2110  171.7400  142.9390 C   0  0  2  0  0  3  0  0  0  0  0  0
  191.5230  174.8920  143.8200 C   0  0  0  0  0  0  0  0  0  0  0  0
  186.2190  177.4810  146.7620 C   0  0  0  0  0  1  0  0  0  0  0  0
  188.6400  172.9690  142.2160 C   0  0  0  0  0  2  0  0  0  0  0  0
  192.8350  175.2580  143.5010 C   0  0  0  0  0  3  0  0  0  0  0  0
  192.3400  172.7530  144.6380 C   0  0  0  0  0  3  0  0  0  0  0  0
  193.6480  173.1320  144.3240 C   0  0  0  0  0  3  0  0  0  0  0  0
  189.4550  171.9590  144.4340 C   0  0  0  0  0  2  0  0  0  0  0  0
  188.1250  175.6670  142.6880 N   0  0  0  0  0  0  0  0  0  0  0  0
  189.7110  173.9730  141.7560 C   0  0  1  0  0  3  0  0  0  0  0  0
  188.2870  176.4930  143.8740 C   0  0  2  0  0  3  0  0  0  0  0  0
  190.4060  175.8420  143.4640 C   0  0  2  0  0  3  0  0  0  0  0  0
  188.5500  173.4300  139.9520 C   0  0  0  0  0  1  0  0  0  0  0  0
  189.7610  173.9900  140.3610 O   0  0  0  0  0  0  0  0  0  0  0  0
  187.5330  176.5040  141.6570 C   0  0  0  0  0  2  0  0  0  0  0  0
  188.2070  177.8620  141.6520 C   0  0  0  0  0  1  0  0  0  0  0  0
  1 18  1  0  0  0  0
  1  4  1  0  0  0  0
  3 19  1  0  0  0  0
  5  6  1  0  0  0  0
  6  2  1  1  0  0  0
  6 12  1  0  0  0  0
  7 12  1  0  0  0  0
  7 15  1  1  0  0  0
  8  6  1  0  0  0  0
  9 13  1  0  0  0  0
 10 21  1  0  0  0  0
 10 24  1  0  0  0  0
 11  7  1  0  0  0  0
 13 20  1  0  0  0  0
 14  1  2  0  0  0  0
 16 13  1  0  0  0  0
 17  3  2  0  0  0  0
 17 14  1  0  0  0  0
 19 18  2  0  0  0  0
 20  4  1  0  0  0  0
 21 23  1  0  0  0  0
 22 16  1  0  0  0  0
 22 10  1  0  0  0  0
 23  8  1  0  0  0  0
 23 11  1  0  0  0  0
 24 14  1  0  0  0  0
 24  8  1  0  0  0  0
 25 26  1  0  0  0  0
 26 22  1  0  0  0  0
 27 21  1  0  0  0  0
 28 27  1  0  0  0  0
M  END
>  <MODEL>
3

>  <REMARK>
 VINA RESULT:      -7.1      1.925      5.245
  Name = 
  2 active torsions:
  status: ('A' for Active; 'I' for Inactive)
    1  A    between atoms: C_5  and  N_24
    2  A    between atoms: O_17  and  C_25
                            x       y       z     vdW  Elec       q    Type
                         _______ _______ _______ _____ _____    ______ ____

>  <TORSDO>
F 2

$$$$
=
 OpenBabel11112417373D

 28 31  0  0  1  0  0  0  0  0999 V2000
  188.8060  175.7410  145.0460 C   0  0  0  0  0  0  0  0  0  0  0  0
  187.8530  173.9810  142.0130 C   0  0  0  0  0  1  0  0  0  0  0  0
  187.6510  178.0230  143.9080 C   0  0  0  0  0  3  0  0  0  0  0  0
  189.4000  174.6120  145.6100 O   0  0  0  0  0  0  0  0  0  0  0  0
  189.7490  174.1360  140.5860 O   0  0  0  0  0  1  0  0  0  0  0  0
  189.3040  173.5930  141.7980 C   0  0  1  0  0  0  0  0  0  0  0  0
  190.8220  171.5390  141.8180 C   0  0  2  0  0  3  0  0  0  0  0  0
  190.1360  174.0530  142.9270 N   0  0  1  0  0  0  0  0  0  0  0  0
  190.6630  176.7980  147.6850 C   0  0  0  0  0  1  0  0  0  0  0  0
  191.7480  175.6600  143.6080 C   0  0  2  0  0  3  0  0  0  0  0  0
  191.5550  172.1540  142.9290 N   0  0  0  0  0  2  0  0  0  0  0  0
  189.3710  172.0560  141.7370 C   0  0  0  0  0  2  0  0  0  0  0  0
  191.0170  175.3800  147.2660 C   0  0  2  0  0  3  0  0  0  0  0  0
  189.2200  176.1770  143.7750 C   0  0  0  0  0  0  0  0  0  0  0  0
  190.8160  170.0350  141.9820 C   0  0  0  0  0  1  0  0  0  0  0  0
  192.0770  175.3140  146.1560 C   0  0  0  0  0  2  0  0  0  0  0  0
  188.6410  177.3210  143.2150 C   0  0  0  0  0  3  0  0  0  0  0  0
  187.8190  176.4540  145.7420 C   0  0  0  0  0  3  0  0  0  0  0  0
  187.2400  177.5910  145.1710 C   0  0  0  0  0  3  0  0  0  0  0  0
  189.7680  174.5410  146.9800 C   0  0  0  0  0  2  0  0  0  0  0  0
  192.3850  174.3430  143.5630 N   0  0  0  0  0  0  0  0  0  0  0  0
  191.8370  176.3090  145.0080 C   0  0  1  0  0  3  0  0  0  0  0  0
  191.4940  173.5880  142.6970 C   0  0  2  0  0  3  0  0  0  0  0  0
  190.3310  175.4930  143.0170 C   0  0  2  0  0  3  0  0  0  0  0  0
  193.8630  176.7260  145.7970 C   0  0  0  0  0  1  0  0  0  0  0  0
  192.8460  177.2730  145.0130 O   0  0  0  0  0  0  0  0  0  0  0  0
  193.6420  174.5070  142.8500 C   0  0  0  0  0  2  0  0  0  0  0  0
  194.7590  173.8290  143.6190 C   0  0  0  0  0  1  0  0  0  0  0  0
  1  4  1  0  0  0  0
  1 18  1  0  0  0  0
  3 19  1  0  0  0  0
  4 20  1  0  0  0  0
  5  6  1  0  0  0  0
  6  2  1  1  0  0  0
  6  8  1  0  0  0  0
  7 15  1  1  0  0  0
  7 11  1  0  0  0  0
  8 24  1  0  0  0  0
 10 22  1  0  0  0  0
 12  6  1  0  0  0  0
 12  7  1  0  0  0  0
 13  9  1  0  0  0  0
 14  1  2  0  0  0  0
 16 13  1  0  0  0  0
 17 14  1  0  0  0  0
 17  3  2  0  0  0  0
 19 18  2  0  0  0  0
 20 13  1  0  0  0  0
 21 10  1  0  0  0  0
 22 26  1  0  0  0  0
 22 16  1  0  0  0  0
 23  8  1  0  0  0  0
 23 11  1  0  0  0  0
 23 21  1  0  0  0  0
 24 10  1  0  0  0  0
 24 14  1  0  0  0  0
 26 25  1  0  0  0  0
 27 21  1  0  0  0  0
 27 28  1  0  0  0  0
M  END
>  <MODEL>
4

>  <REMARK>
 VINA RESULT:      -6.9      2.009      5.140
  Name = 
  2 active torsions:
  status: ('A' for Active; 'I' for Inactive)
    1  A    between atoms: C_5  and  N_24
    2  A    between atoms: O_17  and  C_25
                            x       y       z     vdW  Elec       q    Type
                         _______ _______ _______ _____ _____    ______ ____

>  <TORSDO>
F 2

$$$$
=
 OpenBabel11112417373D

 28 31  0  0  1  0  0  0  0  0999 V2000
  191.0560  176.6760  145.0080 C   0  0  0  0  0  0  0  0  0  0  0  0
  194.6250  176.9340  145.6480 C   0  0  0  0  0  1  0  0  0  0  0  0
  190.7670  176.0430  147.7200 C   0  0  0  0  0  3  0  0  0  0  0  0
  191.1980  176.9720  143.6520 O   0  0  0  0  0  0  0  0  0  0  0  0
  195.4990  174.7770  145.1600 O   0  0  0  0  0  1  0  0  0  0  0  0
  194.8790  175.8890  144.5770 C   0  0  1  0  0  0  0  0  0  0  0  0
  195.9040  175.6580  142.2500 C   0  0  2  0  0  3  0  0  0  0  0  0
  193.6170  175.5120  143.9130 N   0  0  1  0  0  0  0  0  0  0  0  0
  188.1260  175.8680  143.4970 C   0  0  0  0  0  1  0  0  0  0  0  0
  191.9720  173.8080  143.7190 C   0  0  2  0  0  3  0  0  0  0  0  0
  194.5760  175.2780  141.7570 N   0  0  0  0  0  2  0  0  0  0  0  0
  195.8150  176.5170  143.5270 C   0  0  0  0  0  2  0  0  0  0  0  0
  189.2520  176.0650  142.4950 C   0  0  2  0  0  3  0  0  0  0  0  0
  191.7900  175.6110  145.5630 C   0  0  0  0  0  0  0  0  0  0  0  0
  196.6450  176.4230  141.1750 C   0  0  0  0  0  1  0  0  0  0  0  0
  190.0820  174.7960  142.2470 C   0  0  0  0  0  2  0  0  0  0  0  0
  191.6350  175.2980  146.9180 C   0  0  0  0  0  3  0  0  0  0  0  0
  190.1790  177.4140  145.8150 C   0  0  0  0  0  3  0  0  0  0  0  0
  190.0380  177.1000  147.1690 C   0  0  0  0  0  3  0  0  0  0  0  0
  190.0950  177.3010  142.8190 C   0  0  0  0  0  2  0  0  0  0  0  0
  192.7100  173.8960  142.4580 N   0  0  0  0  0  0  0  0  0  0  0  0
  190.4550  174.0360  143.5310 C   0  0  1  0  0  3  0  0  0  0  0  0
  193.9370  174.5680  142.8540 C   0  0  2  0  0  3  0  0  0  0  0  0
  192.6880  174.7360  144.7230 C   0  0  2  0  0  3  0  0  0  0  0  0
  189.7320  172.4580  144.9030 C   0  0  0  0  0  1  0  0  0  0  0  0
  189.7910  172.8090  143.5530 O   0  0  0  0  0  0  0  0  0  0  0  0
  193.0650  172.5370  142.0810 C   0  0  0  0  0  2  0  0  0  0  0  0
  192.3250  172.1460  140.8170 C   0  0  0  0  0  1  0  0  0  0  0  0
  1 14  2  0  0  0  0
  1 18  1  0  0  0  0
  4  1  1  0  0  0  0
  6  5  1  0  0  0  0
  6  2  1  1  0  0  0
  7 15  1  6  0  0  0
  7 12  1  0  0  0  0
  8  6  1  0  0  0  0
  8 24  1  0  0  0  0
 10 24  1  0  0  0  0
 11  7  1  0  0  0  0
 11 23  1  0  0  0  0
 12  6  1  0  0  0  0
 13 20  1  0  0  0  0
 13  9  1  0  0  0  0
 14 17  1  0  0  0  0
 16 13  1  0  0  0  0
 16 22  1  0  0  0  0
 17  3  2  0  0  0  0
 18 19  2  0  0  0  0
 19  3  1  0  0  0  0
 20  4  1  0  0  0  0
 21 23  1  0  0  0  0
 21 10  1  0  0  0  0
 22 26  1  0  0  0  0
 22 10  1  0  0  0  0
 23  8  1  0  0  0  0
 24 14  1  0  0  0  0
 26 25  1  0  0  0  0
 27 21  1  0  0  0  0
 28 27  1  0  0  0  0
M  END
>  <MODEL>
5

>  <REMARK>
 VINA RESULT:      -6.8      2.493      3.913
  Name = 
  2 active torsions:
  status: ('A' for Active; 'I' for Inactive)
    1  A    between atoms: C_5  and  N_24
    2  A    between atoms: O_17  and  C_25
                            x       y       z     vdW  Elec       q    Type
                         _______ _______ _______ _____ _____    ______ ____

>  <TORSDO>
F 2

$$$$
=
 OpenBabel11112417373D

 28 31  0  0  1  0  0  0  0  0999 V2000
  191.3190  174.6570  144.6860 C   0  0  0  0  0  0  0  0  0  0  0  0
  189.9220  178.0020  144.4230 C   0  0  0  0  0  1  0  0  0  0  0  0
  193.8380  175.8480  144.4080 C   0  0  0  0  0  3  0  0  0  0  0  0
  190.0650  174.0570  144.8050 O   0  0  0  0  0  0  0  0  0  0  0  0
  189.4450  178.2930  142.1120 O   0  0  0  0  0  1  0  0  0  0  0  0
  189.0870  177.5460  143.2410 C   0  0  1  0  0  0  0  0  0  0  0  0
  186.6560  177.1090  142.5930 C   0  0  2  0  0  3  0  0  0  0  0  0
  189.2690  176.1000  143.0050 N   0  0  1  0  0  0  0  0  0  0  0  0
  191.7550  171.3240  144.2110 C   0  0  0  0  0  1  0  0  0  0  0  0
  190.2820  174.4890  141.5830 C   0  0  2  0  0  3  0  0  0  0  0  0
  187.0150  175.7040  142.3850 N   0  0  0  0  0  2  0  0  0  0  0  0
  187.6090  177.8010  143.5890 C   0  0  0  0  0  2  0  0  0  0  0  0
  190.2940  171.7300  144.1100 C   0  0  2  0  0  3  0  0  0  0  0  0
  191.5850  175.4870  143.5820 C   0  0  0  0  0  0  0  0  0  0  0  0
  185.2340  177.2010  143.1050 C   0  0  0  0  0  1  0  0  0  0  0  0
  189.8790  172.1860  142.7030 C   0  0  0  0  0  2  0  0  0  0  0  0
  192.8470  176.0740  143.4480 C   0  0  0  0  0  3  0  0  0  0  0  0
  192.3190  174.4240  145.6420 C   0  0  0  0  0  3  0  0  0  0  0  0
  193.5740  175.0220  145.5030 C   0  0  0  0  0  3  0  0  0  0  0  0
  189.8960  172.7080  145.2190 C   0  0  0  0  0  2  0  0  0  0  0  0
  188.8300  174.4210  141.4120 N   0  0  0  0  0  0  0  0  0  0  0  0
  190.8850  173.1390  142.0360 C   0  0  1  0  0  3  0  0  0  0  0  0
  188.3910  175.7140  141.9130 C   0  0  2  0  0  3  0  0  0  0  0  0
  190.5710  175.7080  142.4860 C   0  0  2  0  0  3  0  0  0  0  0  0
  192.7060  173.1380  140.7790 C   0  0  0  0  0  1  0  0  0  0  0  0
  191.4750  172.5010  140.9450 O   0  0  0  0  0  0  0  0  0  0  0  0
  188.5750  174.4040  139.9800 C   0  0  0  0  0  2  0  0  0  0  0  0
  188.2110  172.9990  139.5420 C   0  0  0  0  0  1  0  0  0  0  0  0
  1  4  1  0  0  0  0
  1 18  1  0  0  0  0
  3 19  1  0  0  0  0
  4 20  1  0  0  0  0
  5  6  1  0  0  0  0
  6 12  1  0  0  0  0
  6  2  1  1  0  0  0
  7 15  1  1  0  0  0
  7 12  1  0  0  0  0
  8  6  1  0  0  0  0
 10 22  1  0  0  0  0
 10 24  1  0  0  0  0
 11  7  1  0  0  0  0
 13  9  1  0  0  0  0
 13 20  1  0  0  0  0
 14  1  2  0  0  0  0
 16 13  1  0  0  0  0
 17 14  1  0  0  0  0
 17  3  2  0  0  0  0
 19 18  2  0  0  0  0
 21 10  1  0  0  0  0
 21 23  1  0  0  0  0
 22 16  1  0  0  0  0
 23 11  1  0  0  0  0
 23  8  1  0  0  0  0
 24  8  1  0  0  0  0
 24 14  1  0  0  0  0
 25 26  1  0  0  0  0
 26 22  1  0  0  0  0
 27 21  1  0  0  0  0
 28 27  1  0  0  0  0
M  END
>  <MODEL>
6

>  <REMARK>
 VINA RESULT:      -6.7      2.198      5.640
  Name = 
  2 active torsions:
  status: ('A' for Active; 'I' for Inactive)
    1  A    between atoms: C_5  and  N_24
    2  A    between atoms: O_17  and  C_25
                            x       y       z     vdW  Elec       q    Type
                         _______ _______ _______ _____ _____    ______ ____

>  <TORSDO>
F 2

$$$$
=
 OpenBabel11112417373D

 28 31  0  0  1  0  0  0  0  0999 V2000
  191.0760  176.6200  145.1150 C   0  0  0  0  0  0  0  0  0  0  0  0
  194.5650  177.1590  145.9790 C   0  0  0  0  0  1  0  0  0  0  0  0
  190.5390  176.6850  147.8620 C   0  0  0  0  0  3  0  0  0  0  0  0
  191.3410  176.5670  143.7460 O   0  0  0  0  0  0  0  0  0  0  0  0
  195.5070  174.9810  146.1380 O   0  0  0  0  0  1  0  0  0  0  0  0
  194.9310  175.8870  145.2370 C   0  0  1  0  0  0  0  0  0  0  0  0
  196.1730  175.1090  143.1460 C   0  0  2  0  0  3  0  0  0  0  0  0
  193.7420  175.3080  144.5830 N   0  0  1  0  0  0  0  0  0  0  0  0
  188.3110  175.3510  143.6090 C   0  0  0  0  0  1  0  0  0  0  0  0
  192.1440  173.5520  144.6880 C   0  0  2  0  0  3  0  0  0  0  0  0
  194.9030  174.5700  142.6530 N   0  0  0  0  0  2  0  0  0  0  0  0
  195.9540  176.2600  144.1480 C   0  0  0  0  0  2  0  0  0  0  0  0
  189.5240  175.3270  142.6930 C   0  0  2  0  0  3  0  0  0  0  0  0
  191.7660  175.7570  145.9860 C   0  0  0  0  0  0  0  0  0  0  0  0
  197.0040  175.6030  141.9810 C   0  0  0  0  0  1  0  0  0  0  0  0
  190.3880  174.0670  142.8510 C   0  0  0  0  0  2  0  0  0  0  0  0
  191.4880  175.7930  147.3560 C   0  0  0  0  0  3  0  0  0  0  0  0
  190.1170  177.5070  145.6250 C   0  0  0  0  0  3  0  0  0  0  0  0
  189.8530  177.5410  146.9970 C   0  0  0  0  0  3  0  0  0  0  0  0
  190.3170  176.6340  142.7630 C   0  0  0  0  0  2  0  0  0  0  0  0
  192.9960  173.3450  143.5160 N   0  0  0  0  0  0  0  0  0  0  0  0
  190.6480  173.6720  144.3150 C   0  0  1  0  0  3  0  0  0  0  0  0
  194.1710  174.1390  143.8340 C   0  0  2  0  0  3  0  0  0  0  0  0
  192.7500  174.7310  145.4800 C   0  0  2  0  0  3  0  0  0  0  0  0
  189.7170  171.9160  143.3410 C   0  0  0  0  0  1  0  0  0  0  0  0
  190.0000  172.4680  144.5920 O   0  0  0  0  0  0  0  0  0  0  0  0
  193.4010  171.9480  143.5320 C   0  0  0  0  0  2  0  0  0  0  0  0
  193.8270  171.5550  144.9340 C   0  0  0  0  0  1  0  0  0  0  0  0
  1 18  2  0  0  0  0
  1 14  1  0  0  0  0
  4  1  1  0  0  0  0
  6  2  1  1  0  0  0
  6  5  1  0  0  0  0
  7 15  1  6  0  0  0
  7 12  1  0  0  0  0
  8  6  1  0  0  0  0
  8 24  1  0  0  0  0
 10 24  1  0  0  0  0
 11  7  1  0  0  0  0
 11 23  1  0  0  0  0
 12  6  1  0  0  0  0
 13 20  1  0  0  0  0
 13 16  1  0  0  0  0
 13  9  1  0  0  0  0
 14 17  2  0  0  0  0
 16 22  1  0  0  0  0
 17  3  1  0  0  0  0
 18 19  1  0  0  0  0
 19  3  2  0  0  0  0
 20  4  1  0  0  0  0
 21 27  1  0  0  0  0
 21 23  1  0  0  0  0
 21 10  1  0  0  0  0
 22 26  1  0  0  0  0
 22 10  1  0  0  0  0
 23  8  1  0  0  0  0
 24 14  1  0  0  0  0
 25 26  1  0  0  0  0
 27 28  1  0  0  0  0
M  END
>  <MODEL>
7

>  <REMARK>
 VINA RESULT:      -6.7      2.491      3.817
  Name = 
  2 active torsions:
  status: ('A' for Active; 'I' for Inactive)
    1  A    between atoms: C_5  and  N_24
    2  A    between atoms: O_17  and  C_25
                            x       y       z     vdW  Elec       q    Type
                         _______ _______ _______ _____ _____    ______ ____

>  <TORSDO>
F 2

$$$$
=
 OpenBabel11112417373D

 28 31  0  0  1  0  0  0  0  0999 V2000
  193.0810  174.0260  143.8000 C   0  0  0  0  0  0  0  0  0  0  0  0
  190.5780  172.7390  141.4990 C   0  0  0  0  0  1  0  0  0  0  0  0
  193.6680  171.3590  144.4190 C   0  0  0  0  0  3  0  0  0  0  0  0
  192.7780  175.3570  143.5090 O   0  0  0  0  0  0  0  0  0  0  0  0
  188.5610  172.6670  142.7570 O   0  0  0  0  0  1  0  0  0  0  0  0
  189.5160  173.5430  142.2260 C   0  0  1  0  0  0  0  0  0  0  0  0
  187.9690  175.5440  141.8730 C   0  0  2  0  0  3  0  0  0  0  0  0
  190.1270  174.3720  143.2830 N   0  0  1  0  0  0  0  0  0  0  0  0
  194.5460  175.9320  146.1960 C   0  0  0  0  0  1  0  0  0  0  0  0
  190.4250  174.5970  145.6300 C   0  0  2  0  0  3  0  0  0  0  0  0
  188.6760  176.2200  142.9660 N   0  0  0  0  0  2  0  0  0  0  0  0
  188.8520  174.4760  141.1970 C   0  0  0  0  0  2  0  0  0  0  0  0
  193.5050  176.7070  145.4050 C   0  0  2  0  0  3  0  0  0  0  0  0
  192.0550  173.1620  144.2260 C   0  0  0  0  0  0  0  0  0  0  0  0
  187.5290  176.5630  140.8450 C   0  0  0  0  0  1  0  0  0  0  0  0
  192.0800  176.5640  145.9600 C   0  0  0  0  0  2  0  0  0  0  0  0
  192.3580  171.8330  144.5390 C   0  0  0  0  0  3  0  0  0  0  0  0
  194.3950  173.5490  143.6910 C   0  0  0  0  0  3  0  0  0  0  0  0
  194.6860  172.2170  143.9970 C   0  0  0  0  0  3  0  0  0  0  0  0
  193.6130  176.4370  143.9020 C   0  0  0  0  0  2  0  0  0  0  0  0
  189.5620  175.6810  145.1580 N   0  0  0  0  0  0  0  0  0  0  0  0
  191.6990  175.1210  146.3310 C   0  0  1  0  0  3  0  0  0  0  0  0
  189.0730  175.1680  143.8890 C   0  0  2  0  0  3  0  0  0  0  0  0
  190.6400  173.6430  144.4350 C   0  0  2  0  0  3  0  0  0  0  0  0
  191.3790  176.3370  148.1520 C   0  0  0  0  0  1  0  0  0  0  0  0
  191.5460  175.0220  147.7140 O   0  0  0  0  0  0  0  0  0  0  0  0
  188.4270  175.7410  146.0660 C   0  0  0  0  0  2  0  0  0  0  0  0
  188.1840  177.1770  146.4870 C   0  0  0  0  0  1  0  0  0  0  0  0
  1 14  1  0  0  0  0
  3 17  1  0  0  0  0
  4  1  1  0  0  0  0
  4 20  1  0  0  0  0
  6  2  1  6  0  0  0
  6  5  1  0  0  0  0
  6  8  1  0  0  0  0
  7 15  1  6  0  0  0
  7 11  1  0  0  0  0
  8 23  1  0  0  0  0
  8 24  1  0  0  0  0
 10 22  1  0  0  0  0
 11 23  1  0  0  0  0
 12  7  1  0  0  0  0
 12  6  1  0  0  0  0
 13 16  1  0  0  0  0
 13  9  1  0  0  0  0
 14 24  1  0  0  0  0
 14 17  2  0  0  0  0
 16 22  1  0  0  0  0
 18  1  2  0  0  0  0
 18 19  1  0  0  0  0
 19  3  2  0  0  0  0
 20 13  1  0  0  0  0
 21 10  1  0  0  0  0
 21 27  1  0  0  0  0
 22 26  1  0  0  0  0
 23 21  1  0  0  0  0
 24 10  1  0  0  0  0
 26 25  1  0  0  0  0
 27 28  1  0  0  0  0
M  END
>  <MODEL>
8

>  <REMARK>
 VINA RESULT:      -6.5      1.998      6.406
  Name = 
  2 active torsions:
  status: ('A' for Active; 'I' for Inactive)
    1  A    between atoms: C_5  and  N_24
    2  A    between atoms: O_17  and  C_25
                            x       y       z     vdW  Elec       q    Type
                         _______ _______ _______ _____ _____    ______ ____

>  <TORSDO>
F 2

$$$$
=
 OpenBabel11112417373D

 28 31  0  0  1  0  0  0  0  0999 V2000
  190.3120  175.8360  144.6010 C   0  0  0  0  0  0  0  0  0  0  0  0
  190.8640  173.8240  141.6250 C   0  0  0  0  0  1  0  0  0  0  0  0
  190.3920  178.0740  142.9220 C   0  0  0  0  0  3  0  0  0  0  0  0
  190.2910  174.7240  145.4450 O   0  0  0  0  0  0  0  0  0  0  0  0
  193.2230  173.5470  141.4940 O   0  0  0  0  0  1  0  0  0  0  0  0
  192.1020  173.2300  142.2730 C   0  0  1  0  0  0  0  0  0  0  0  0
  192.9690  171.0220  143.2180 C   0  0  2  0  0  3  0  0  0  0  0  0
  192.2530  173.7270  143.6540 N   0  0  1  0  0  0  0  0  0  0  0  0
  190.5900  176.9880  147.7820 C   0  0  0  0  0  1  0  0  0  0  0  0
  193.4920  175.1920  145.0550 C   0  0  2  0  0  3  0  0  0  0  0  0
  193.0760  171.6800  144.5230 N   0  0  0  0  0  2  0  0  0  0  0  0
  191.9160  171.7020  142.3200 C   0  0  0  0  0  2  0  0  0  0  0  0
  190.8540  175.4940  147.6890 C   0  0  2  0  0  3  0  0  0  0  0  0
  191.4210  176.0430  143.7610 C   0  0  0  0  0  0  0  0  0  0  0  0
  192.6060  169.5650  143.4110 C   0  0  0  0  0  1  0  0  0  0  0  0
  192.3150  175.1480  147.3630 C   0  0  0  0  0  2  0  0  0  0  0  0
  191.4550  177.1670  142.9290 C   0  0  0  0  0  3  0  0  0  0  0  0
  189.2520  176.7540  144.5990 C   0  0  0  0  0  3  0  0  0  0  0  0
  189.2920  177.8690  143.7580 C   0  0  0  0  0  3  0  0  0  0  0  0
  189.8360  174.7900  146.7890 C   0  0  0  0  0  2  0  0  0  0  0  0
  193.8040  173.8110  145.4250 N   0  0  0  0  0  0  0  0  0  0  0  0
  192.9210  176.0050  146.2390 C   0  0  1  0  0  3  0  0  0  0  0  0
  193.4080  173.0670  144.2400 C   0  0  2  0  0  3  0  0  0  0  0  0
  192.6220  175.1290  143.7810 C   0  0  2  0  0  3  0  0  0  0  0  0
  194.5470  177.3870  145.6550 C   0  0  0  0  0  1  0  0  0  0  0  0
  193.9180  176.8260  146.7670 O   0  0  0  0  0  0  0  0  0  0  0  0
  195.2520  173.7190  145.5290 C   0  0  0  0  0  2  0  0  0  0  0  0
  195.8770  173.9410  144.1660 C   0  0  0  0  0  1  0  0  0  0  0  0
  1  4  1  0  0  0  0
  3 17  2  0  0  0  0
  3 19  1  0  0  0  0
  4 20  1  0  0  0  0
  5  6  1  0  0  0  0
  6  2  1  6  0  0  0
  6 12  1  0  0  0  0
  6  8  1  0  0  0  0
  7 15  1  1  0  0  0
  7 11  1  0  0  0  0
  8 24  1  0  0  0  0
  8 23  1  0  0  0  0
 10 21  1  0  0  0  0
 10 22  1  0  0  0  0
 12  7  1  0  0  0  0
 13  9  1  0  0  0  0
 14 24  1  0  0  0  0
 14  1  2  0  0  0  0
 16 13  1  0  0  0  0
 17 14  1  0  0  0  0
 18  1  1  0  0  0  0
 19 18  2  0  0  0  0
 20 13  1  0  0  0  0
 21 27  1  0  0  0  0
 22 26  1  0  0  0  0
 22 16  1  0  0  0  0
 23 11  1  0  0  0  0
 23 21  1  0  0  0  0
 24 10  1  0  0  0  0
 25 26  1  0  0  0  0
 28 27  1  0  0  0  0
M  END
>  <MODEL>
9

>  <REMARK>
 VINA RESULT:      -6.5      2.526      5.667
  Name = 
  2 active torsions:
  status: ('A' for Active; 'I' for Inactive)
    1  A    between atoms: C_5  and  N_24
    2  A    between atoms: O_17  and  C_25
                            x       y       z     vdW  Elec       q    Type
                         _______ _______ _______ _____ _____    ______ ____

>  <TORSDO>
F 2

$$$$
