=
 OpenBabel11112417423D

 28 32  0  0  1  0  0  0  0  0999 V2000
  191.8960  175.9020  144.3500 N   0  0  2  0  0  0  0  0  0  0  0  0
  189.6890  174.1350  140.6810 O   0  0  0  0  0  0  0  0  0  0  0  0
  186.3970  177.9900  146.7530 O   0  0  0  0  0  0  0  0  0  0  0  0
  192.2790  173.0690  143.7510 C   0  0  0  0  0  2  0  0  0  0  0  0
  187.1270  178.2640  144.5250 N   0  0  0  0  0  0  0  0  0  0  0  0
  191.7720  176.9390  145.3960 C   0  0  0  0  0  2  0  0  0  0  0  0
  187.7210  173.9000  142.1410 O   0  0  0  0  0  0  0  0  0  0  0  0
  188.5690  174.8680  141.3630 S   0  0  0  0  0  0  0  0  0  0  0  0
  187.0500  176.9720  140.3980 C   0  0  0  0  0  0  0  0  0  0  0  0
  189.2380  176.1270  142.4290 C   0  0  1  0  0  3  0  0  0  0  0  0
  190.0940  174.8890  147.7540 O   0  0  0  0  0  0  0  0  0  0  0  0
  189.0750  176.8870  144.6820 C   0  0  1  0  0  3  0  0  0  0  0  0
  187.3040  177.6770  141.5050 C   0  0  0  0  0  2  0  0  0  0  0  0
  187.5990  175.6680  140.1770 N   0  0  0  0  0  0  0  0  0  0  0  0
  190.2950  176.0300  147.2630 C   0  0  0  0  0  0  0  0  0  0  0  0
  190.7260  174.9810  144.3190 C   0  0  2  0  0  3  0  0  0  0  0  0
  187.2090  177.7050  145.8330 C   0  0  0  0  0  0  0  0  0  0  0  0
  186.1220  177.5410  139.3880 C   0  0  0  0  0  1  0  0  0  0  0  0
  189.1920  176.9240  147.0710 N   0  0  0  0  0  2  0  0  0  0  0  0
  190.9680  173.7590  143.4230 C   0  0  0  0  0  2  0  0  0  0  0  0
  193.1480  175.1880  144.6340 C   0  0  0  0  0  2  0  0  0  0  0  0
  193.4000  174.0760  143.6300 C   0  0  0  0  0  2  0  0  0  0  0  0
  191.6860  176.4160  146.8470 C   0  0  0  0  0  2  0  0  0  0  0  0
  188.2020  177.6660  143.8150 C   0  0  1  0  0  3  0  0  0  0  0  0
  188.2880  176.6670  145.9590 C   0  0  2  0  0  3  0  0  0  0  0  0
  188.2360  177.2420  142.5610 C   0  0  1  0  0  3  0  0  0  0  0  0
  185.9560  178.9180  143.9630 C   0  0  0  0  0  1  0  0  0  0  0  0
  189.3890  175.6450  143.8880 C   0  0  2  0  0  3  0  0  0  0  0  0
  1 21  1  1  0  0  0
  1  6  1  0  0  0  0
  2  8  2  0  0  0  0
  5 17  1  0  0  0  0
  6 23  1  0  0  0  0
  8  7  2  0  0  0  0
  9 13  1  0  0  0  0
 10  8  1  6  0  0  0
 10 26  1  0  0  0  0
 10 28  1  0  0  0  0
 12 25  1  0  0  0  0
 13 26  1  0  0  0  0
 14  9  2  0  0  0  0
 14  8  1  0  0  0  0
 15 11  2  0  0  0  0
 16  1  1  0  0  0  0
 17 25  1  0  0  0  0
 17  3  2  0  0  0  0
 18  9  1  0  0  0  0
 19 15  1  0  0  0  0
 20  4  1  0  0  0  0
 20 16  1  0  0  0  0
 22  4  1  0  0  0  0
 22 21  1  0  0  0  0
 23 15  1  0  0  0  0
 24  5  1  0  0  0  0
 24 12  1  0  0  0  0
 25 19  1  0  0  0  0
 26 24  1  0  0  0  0
 27  5  1  0  0  0  0
 28 16  1  0  0  0  0
 28 12  1  0  0  0  0
M  END
>  <MODEL>
1

>  <REMARK>
 VINA RESULT:      -7.9      0.000      0.000
  Name = 
  0 active torsions:
  status: ('A' for Active; 'I' for Inactive)
                            x       y       z     vdW  Elec       q    Type
                         _______ _______ _______ _____ _____    ______ ____

>  <TORSDO>
F 0

$$$$
=
 OpenBabel11112417423D

 28 32  0  0  1  0  0  0  0  0999 V2000
  190.5610  176.4980  144.4290 N   0  0  2  0  0  0  0  0  0  0  0  0
  189.9290  173.7100  140.7850 O   0  0  0  0  0  0  0  0  0  0  0  0
  184.3900  178.0090  144.4450 O   0  0  0  0  0  0  0  0  0  0  0  0
  191.4120  173.7140  144.6670 C   0  0  0  0  0  2  0  0  0  0  0  0
  185.8030  177.9800  142.5540 N   0  0  0  0  0  0  0  0  0  0  0  0
  189.9830  177.6770  145.1090 C   0  0  0  0  0  2  0  0  0  0  0  0
  187.6160  173.4150  141.5750 O   0  0  0  0  0  0  0  0  0  0  0  0
  188.5750  174.3510  140.8930 S   0  0  0  0  0  0  0  0  0  0  0  0
  187.2690  175.9350  139.0360 C   0  0  0  0  0  0  0  0  0  0  0  0
  188.7080  175.8870  141.7840 C   0  0  1  0  0  3  0  0  0  0  0  0
  187.8210  175.8500  147.2450 O   0  0  0  0  0  0  0  0  0  0  0  0
  187.7110  177.0190  143.6270 C   0  0  1  0  0  3  0  0  0  0  0  0
  187.0570  176.8710  139.9670 C   0  0  0  0  0  2  0  0  0  0  0  0
  187.9910  174.7290  139.3110 N   0  0  0  0  0  0  0  0  0  0  0  0
  188.0590  176.8940  146.5850 C   0  0  0  0  0  0  0  0  0  0  0  0
  189.5730  175.3980  144.2560 C   0  0  2  0  0  3  0  0  0  0  0  0
  185.4910  177.7020  143.9160 C   0  0  0  0  0  0  0  0  0  0  0  0
  186.6880  176.1310  137.6830 C   0  0  0  0  0  1  0  0  0  0  0  0
  187.0030  177.5280  145.8550 N   0  0  0  0  0  2  0  0  0  0  0  0
  190.2290  174.0890  143.7950 C   0  0  0  0  0  2  0  0  0  0  0  0
  191.7070  176.0800  145.2470 C   0  0  0  0  0  2  0  0  0  0  0  0
  192.3990  174.8600  144.6640 C   0  0  0  0  0  2  0  0  0  0  0  0
  189.4620  177.4300  146.5410 C   0  0  0  0  0  2  0  0  0  0  0  0
  187.1110  177.4550  142.3750 C   0  0  1  0  0  3  0  0  0  0  0  0
  186.5630  176.9120  144.6120 C   0  0  2  0  0  3  0  0  0  0  0  0
  187.6130  176.8140  141.3300 C   0  0  1  0  0  3  0  0  0  0  0  0
  184.8330  178.3000  141.5190 C   0  0  0  0  0  1  0  0  0  0  0  0
  188.4020  175.7240  143.2870 C   0  0  2  0  0  3  0  0  0  0  0  0
  1  6  1  1  0  0  0
  1 21  1  0  0  0  0
  2  8  2  0  0  0  0
  5 17  1  0  0  0  0
  6 23  1  0  0  0  0
  8  7  2  0  0  0  0
  9 14  2  0  0  0  0
  9 13  1  0  0  0  0
 10  8  1  6  0  0  0
 10 28  1  0  0  0  0
 12 25  1  0  0  0  0
 13 26  1  0  0  0  0
 14  8  1  0  0  0  0
 15 11  2  0  0  0  0
 16  1  1  0  0  0  0
 17  3  2  0  0  0  0
 17 25  1  0  0  0  0
 18  9  1  0  0  0  0
 19 15  1  0  0  0  0
 20 16  1  0  0  0  0
 20  4  1  0  0  0  0
 22  4  1  0  0  0  0
 22 21  1  0  0  0  0
 23 15  1  0  0  0  0
 24  5  1  0  0  0  0
 24 12  1  0  0  0  0
 25 19  1  0  0  0  0
 26 10  1  0  0  0  0
 26 24  1  0  0  0  0
 27  5  1  0  0  0  0
 28 12  1  0  0  0  0
 28 16  1  0  0  0  0
M  END
>  <MODEL>
2

>  <REMARK>
 VINA RESULT:      -7.8      1.479      1.894
  Name = 
  0 active torsions:
  status: ('A' for Active; 'I' for Inactive)
                            x       y       z     vdW  Elec       q    Type
                         _______ _______ _______ _____ _____    ______ ____

>  <TORSDO>
F 0

$$$$
=
 OpenBabel11112417423D

 28 32  0  0  1  0  0  0  0  0999 V2000
  185.5470  177.2030  145.2910 N   0  0  2  0  0  0  0  0  0  0  0  0
  185.9710  178.0390  140.7540 O   0  0  0  0  0  0  0  0  0  0  0  0
  191.4260  174.8010  145.4800 O   0  0  0  0  0  0  0  0  0  0  0  0
  185.0820  179.9280  144.3470 C   0  0  0  0  0  2  0  0  0  0  0  0
  189.7660  174.2740  143.8870 N   0  0  0  0  0  0  0  0  0  0  0  0
  186.0710  176.3410  146.3710 C   0  0  0  0  0  2  0  0  0  0  0  0
  188.3930  178.2360  141.1490 O   0  0  0  0  0  0  0  0  0  0  0  0
  187.2400  177.2800  141.0250 S   0  0  0  0  0  0  0  0  0  0  0  0
  188.0590  174.8620  139.9570 C   0  0  0  0  0  0  0  0  0  0  0  0
  187.0530  176.3120  142.5080 C   0  0  1  0  0  3  0  0  0  0  0  0
  188.7270  178.4960  147.3090 O   0  0  0  0  0  0  0  0  0  0  0  0
  188.1660  175.9100  144.5760 C   0  0  1  0  0  3  0  0  0  0  0  0
  188.2900  174.3850  141.1840 C   0  0  0  0  0  2  0  0  0  0  0  0
  187.5360  176.1760  139.7300 N   0  0  0  0  0  0  0  0  0  0  0  0
  188.2710  177.3290  147.1960 C   0  0  0  0  0  0  0  0  0  0  0  0
  186.6250  177.9390  144.5740 C   0  0  2  0  0  3  0  0  0  0  0  0
  190.3050  175.0420  144.9590 C   0  0  0  0  0  0  0  0  0  0  0  0
  188.4090  174.0160  138.7860 C   0  0  0  0  0  1  0  0  0  0  0  0
  189.1250  176.2750  146.7370 N   0  0  0  0  0  2  0  0  0  0  0  0
  186.0710  179.0220  143.6380 C   0  0  0  0  0  2  0  0  0  0  0  0
  184.5920  178.1180  145.9300 C   0  0  0  0  0  2  0  0  0  0  0  0
  183.9750  179.0760  144.9270 C   0  0  0  0  0  2  0  0  0  0  0  0
  186.8230  177.0750  147.5030 C   0  0  0  0  0  2  0  0  0  0  0  0
  188.5190  174.8900  143.5990 C   0  0  1  0  0  3  0  0  0  0  0  0
  189.4490  176.2240  145.3200 C   0  0  2  0  0  3  0  0  0  0  0  0
  187.9510  175.1070  142.4230 C   0  0  1  0  0  3  0  0  0  0  0  0
  190.5280  173.3840  143.0250 C   0  0  0  0  0  1  0  0  0  0  0  0
  187.5930  177.0390  143.7580 C   0  0  2  0  0  3  0  0  0  0  0  0
  1 21  1  1  0  0  0
  1  6  1  0  0  0  0
  2  8  2  0  0  0  0
  4 22  1  0  0  0  0
  5 17  1  0  0  0  0
  6 23  1  0  0  0  0
  8  7  2  0  0  0  0
  9 13  1  0  0  0  0
 10  8  1  6  0  0  0
 10 28  1  0  0  0  0
 12 25  1  0  0  0  0
 13 26  1  0  0  0  0
 14  9  2  0  0  0  0
 14  8  1  0  0  0  0
 15 11  2  0  0  0  0
 15 23  1  0  0  0  0
 16  1  1  0  0  0  0
 17 25  1  0  0  0  0
 17  3  2  0  0  0  0
 18  9  1  0  0  0  0
 19 15  1  0  0  0  0
 20  4  1  0  0  0  0
 20 16  1  0  0  0  0
 22 21  1  0  0  0  0
 24  5  1  0  0  0  0
 24 12  1  0  0  0  0
 25 19  1  0  0  0  0
 26 10  1  0  0  0  0
 26 24  1  0  0  0  0
 27  5  1  0  0  0  0
 28 16  1  0  0  0  0
 28 12  1  0  0  0  0
M  END
>  <MODEL>
3

>  <REMARK>
 VINA RESULT:      -7.7      2.260      5.168
  Name = 
  0 active torsions:
  status: ('A' for Active; 'I' for Inactive)
                            x       y       z     vdW  Elec       q    Type
                         _______ _______ _______ _____ _____    ______ ____

>  <TORSDO>
F 0

$$$$
=
 OpenBabel11112417423D

 28 32  0  0  1  0  0  0  0  0999 V2000
  188.9410  172.9240  143.1950 N   0  0  2  0  0  0  0  0  0  0  0  0
  189.9210  175.7690  146.7170 O   0  0  0  0  0  0  0  0  0  0  0  0
  186.3170  177.7150  139.9500 O   0  0  0  0  0  0  0  0  0  0  0  0
  191.7140  173.0830  144.1010 C   0  0  0  0  0  2  0  0  0  0  0  0
  185.9080  177.1890  142.2160 N   0  0  0  0  0  0  0  0  0  0  0  0
  188.0230  172.7630  142.0480 C   0  0  0  0  0  2  0  0  0  0  0  0
  190.0140  177.5840  145.0560 O   0  0  0  0  0  0  0  0  0  0  0  0
  189.1070  176.6740  145.8360 S   0  0  0  0  0  0  0  0  0  0  0  0
  186.6980  177.9150  146.4050 C   0  0  0  0  0  0  0  0  0  0  0  0
  188.0940  175.6960  144.7460 C   0  0  1  0  0  3  0  0  0  0  0  0
  190.0430  174.5000  139.7070 O   0  0  0  0  0  0  0  0  0  0  0  0
  187.5770  175.4920  142.4290 C   0  0  1  0  0  3  0  0  0  0  0  0
  186.1700  177.4320  145.2760 C   0  0  0  0  0  3  0  0  0  0  0  0
  188.0380  177.6160  146.8140 N   0  0  0  0  0  2  0  0  0  0  0  0
  188.8980  174.1660  140.1090 C   0  0  0  0  0  0  0  0  0  0  0  0
  189.6620  174.2270  143.1700 C   0  0  2  0  0  3  0  0  0  0  0  0
  186.6170  177.0640  140.9860 C   0  0  0  0  0  0  0  0  0  0  0  0
  185.8830  178.8370  147.2360 C   0  0  0  0  0  1  0  0  0  0  0  0
  187.8300  175.1190  140.0800 N   0  0  0  0  0  2  0  0  0  0  0  0
  190.7970  174.2880  144.2000 C   0  0  0  0  0  2  0  0  0  0  0  0
  189.8680  171.7860  143.1350 C   0  0  0  0  0  2  0  0  0  0  0  0
  190.8840  171.8290  144.2630 C   0  0  0  0  0  2  0  0  0  0  0  0
  188.6870  172.7820  140.6540 C   0  0  0  0  0  2  0  0  0  0  0  0
  186.5810  176.3090  143.1050 C   0  0  1  0  0  3  0  0  0  0  0  0
  187.8160  176.1640  141.0920 C   0  0  2  0  0  3  0  0  0  0  0  0
  186.8600  176.4790  144.3880 C   0  0  1  0  0  3  0  0  0  0  0  0
  185.0220  178.2880  142.5650 C   0  0  0  0  0  1  0  0  0  0  0  0
  188.7550  175.4730  143.3690 C   0  0  2  0  0  3  0  0  0  0  0  0
  1  6  1  6  0  0  0
  3 17  2  0  0  0  0
  4 20  1  0  0  0  0
  4 22  1  0  0  0  0
  5 27  1  0  0  0  0
  5 24  1  0  0  0  0
  7  8  2  0  0  0  0
  8  2  2  0  0  0  0
  8 14  1  0  0  0  0
  9 14  1  0  0  0  0
  9 18  1  0  0  0  0
 10  8  1  1  0  0  0
 11 15  2  0  0  0  0
 12 24  1  0  0  0  0
 12 28  1  0  0  0  0
 13  9  2  0  0  0  0
 15 23  1  0  0  0  0
 16  1  1  0  0  0  0
 16 28  1  0  0  0  0
 16 20  1  0  0  0  0
 17 25  1  0  0  0  0
 17  5  1  0  0  0  0
 19 15  1  0  0  0  0
 19 25  1  0  0  0  0
 21  1  1  0  0  0  0
 21 22  1  0  0  0  0
 23  6  1  0  0  0  0
 24 26  1  0  0  0  0
 25 12  1  0  0  0  0
 26 10  1  0  0  0  0
 26 13  1  0  0  0  0
 28 10  1  0  0  0  0
M  END
>  <MODEL>
4

>  <REMARK>
 VINA RESULT:      -7.6      2.420      5.092
  Name = 
  0 active torsions:
  status: ('A' for Active; 'I' for Inactive)
                            x       y       z     vdW  Elec       q    Type
                         _______ _______ _______ _____ _____    ______ ____

>  <TORSDO>
F 0

$$$$
=
 OpenBabel11112417423D

 28 32  0  0  1  0  0  0  0  0999 V2000
  188.2630  175.4180  146.2400 N   0  0  2  0  0  0  0  0  0  0  0  0
  186.5160  177.0710  142.2810 O   0  0  0  0  0  0  0  0  0  0  0  0
  193.8460  174.3200  143.4120 O   0  0  0  0  0  0  0  0  0  0  0  0
  187.1080  178.1010  146.2630 C   0  0  0  0  0  2  0  0  0  0  0  0
  191.7240  173.7270  142.5640 N   0  0  0  0  0  0  0  0  0  0  0  0
  189.3120  174.5190  146.7650 C   0  0  0  0  0  2  0  0  0  0  0  0
  188.8180  177.7090  141.6820 O   0  0  0  0  0  0  0  0  0  0  0  0
  187.8520  176.5640  141.8150 S   0  0  0  0  0  0  0  0  0  0  0  0
  188.3870  174.5880  139.9520 C   0  0  0  0  0  0  0  0  0  0  0  0
  188.4620  175.3450  142.9600 C   0  0  1  0  0  3  0  0  0  0  0  0
  191.8330  177.0000  147.0240 O   0  0  0  0  0  0  0  0  0  0  0  0
  190.4200  174.8480  144.2240 C   0  0  1  0  0  3  0  0  0  0  0  0
  189.1960  173.9730  140.8200 C   0  0  0  0  0  2  0  0  0  0  0  0
  187.6670  175.7800  140.2860 N   0  0  0  0  0  0  0  0  0  0  0  0
  191.5150  175.7990  146.8280 C   0  0  0  0  0  0  0  0  0  0  0  0
  188.8120  176.4760  145.3460 C   0  0  2  0  0  3  0  0  0  0  0  0
  192.5900  174.4020  143.4730 C   0  0  0  0  0  0  0  0  0  0  0  0
  188.2740  174.0440  138.5740 C   0  0  0  0  0  1  0  0  0  0  0  0
  192.1920  175.0420  145.8190 N   0  0  0  0  0  2  0  0  0  0  0  0
  187.7760  177.5570  145.0140 C   0  0  0  0  0  2  0  0  0  0  0  0
  187.5930  175.9900  147.4160 C   0  0  0  0  0  2  0  0  0  0  0  0
  186.4850  176.9500  147.0200 C   0  0  0  0  0  2  0  0  0  0  0  0
  190.3970  175.1950  147.6310 C   0  0  0  0  0  2  0  0  0  0  0  0
  190.4170  174.1040  142.9730 C   0  0  1  0  0  3  0  0  0  0  0  0
  191.8530  175.2980  144.4270 C   0  0  2  0  0  3  0  0  0  0  0  0
  189.3620  174.3890  142.2240 C   0  0  1  0  0  3  0  0  0  0  0  0
  192.1210  173.1760  141.2780 C   0  0  0  0  0  1  0  0  0  0  0  0
  189.4140  175.9500  144.0130 C   0  0  2  0  0  3  0  0  0  0  0  0
  1  6  1  1  0  0  0
  1 21  1  0  0  0  0
  3 17  2  0  0  0  0
  4 22  1  0  0  0  0
  5 24  1  0  0  0  0
  5 17  1  0  0  0  0
  6 23  1  0  0  0  0
  7  8  2  0  0  0  0
  8  2  2  0  0  0  0
  9 14  2  0  0  0  0
  9 13  1  0  0  0  0
 10  8  1  6  0  0  0
 10 28  1  0  0  0  0
 12 25  1  0  0  0  0
 13 26  1  0  0  0  0
 14  8  1  0  0  0  0
 15 11  2  0  0  0  0
 15 23  1  0  0  0  0
 16  1  1  0  0  0  0
 17 25  1  0  0  0  0
 18  9  1  0  0  0  0
 19 15  1  0  0  0  0
 20 16  1  0  0  0  0
 20  4  1  0  0  0  0
 22 21  1  0  0  0  0
 24 12  1  0  0  0  0
 25 19  1  0  0  0  0
 26 10  1  0  0  0  0
 26 24  1  0  0  0  0
 27  5  1  0  0  0  0
 28 12  1  0  0  0  0
 28 16  1  0  0  0  0
M  END
>  <MODEL>
5

>  <REMARK>
 VINA RESULT:      -7.3      2.182      4.793
  Name = 
  0 active torsions:
  status: ('A' for Active; 'I' for Inactive)
                            x       y       z     vdW  Elec       q    Type
                         _______ _______ _______ _____ _____    ______ ____

>  <TORSDO>
F 0

$$$$
=
 OpenBabel11112417423D

 28 32  0  0  1  0  0  0  0  0999 V2000
  193.0970  175.0960  144.6980 N   0  0  2  0  0  0  0  0  0  0  0  0
  191.8930  171.5590  141.9590 O   0  0  0  0  0  0  0  0  0  0  0  0
  187.0050  176.7910  145.3210 O   0  0  0  0  0  0  0  0  0  0  0  0
  193.9800  172.4150  145.4500 C   0  0  0  0  0  2  0  0  0  0  0  0
  188.0970  176.2710  143.2940 N   0  0  0  0  0  0  0  0  0  0  0  0
  192.6330  176.4200  145.1620 C   0  0  0  0  0  2  0  0  0  0  0  0
  189.7370  171.5410  143.1480 O   0  0  0  0  0  0  0  0  0  0  0  0
  190.5720  172.2570  142.1230 S   0  0  0  0  0  0  0  0  0  0  0  0
  188.9830  173.4110  140.1730 C   0  0  0  0  0  0  0  0  0  0  0  0
  190.8450  173.9520  142.5950 C   0  0  1  0  0  3  0  0  0  0  0  0
  190.8450  175.2220  147.9810 O   0  0  0  0  0  0  0  0  0  0  0  0
  190.1540  175.5180  144.2520 C   0  0  1  0  0  3  0  0  0  0  0  0
  188.9210  174.5440  140.8780 C   0  0  0  0  0  2  0  0  0  0  0  0
  189.7420  172.2770  140.6080 N   0  0  0  0  0  0  0  0  0  0  0  0
  190.9720  176.0740  147.0640 C   0  0  0  0  0  0  0  0  0  0  0  0
  192.0950  174.0220  144.9460 C   0  0  2  0  0  3  0  0  0  0  0  0
  188.0080  176.3290  144.7150 C   0  0  0  0  0  0  0  0  0  0  0  0
  188.1910  173.3070  138.9200 C   0  0  0  0  0  1  0  0  0  0  0  0
  189.8110  176.5580  146.3790 N   0  0  0  0  0  2  0  0  0  0  0  0
  192.6710  172.6190  144.7100 C   0  0  0  0  0  2  0  0  0  0  0  0
  194.3600  174.8390  145.4020 C   0  0  0  0  0  2  0  0  0  0  0  0
  194.9510  173.4930  145.0230 C   0  0  0  0  0  2  0  0  0  0  0  0
  192.3490  176.5340  146.6760 C   0  0  0  0  0  2  0  0  0  0  0  0
  189.3600  175.6710  143.0410 C   0  0  1  0  0  3  0  0  0  0  0  0
  189.1790  175.6850  145.4010 C   0  0  2  0  0  3  0  0  0  0  0  0
  189.6890  174.7870  142.1130 C   0  0  1  0  0  3  0  0  0  0  0  0
  186.9730  176.3760  142.3770 C   0  0  0  0  0  1  0  0  0  0  0  0
  190.7840  174.1550  144.1230 C   0  0  2  0  0  3  0  0  0  0  0  0
  1 16  1  0  0  0  0
  1  6  1  1  0  0  0
  1 21  1  0  0  0  0
  2  8  2  0  0  0  0
  5 17  1  0  0  0  0
  6 23  1  0  0  0  0
  8  7  2  0  0  0  0
  9 14  2  0  0  0  0
  9 13  1  0  0  0  0
 10  8  1  1  0  0  0
 10 28  1  0  0  0  0
 12 25  1  0  0  0  0
 13 26  1  0  0  0  0
 14  8  1  0  0  0  0
 15 11  2  0  0  0  0
 17  3  2  0  0  0  0
 17 25  1  0  0  0  0
 18  9  1  0  0  0  0
 19 15  1  0  0  0  0
 20 16  1  0  0  0  0
 20  4  1  0  0  0  0
 22 21  1  0  0  0  0
 22  4  1  0  0  0  0
 23 15  1  0  0  0  0
 24  5  1  0  0  0  0
 24 12  1  0  0  0  0
 25 19  1  0  0  0  0
 26 10  1  0  0  0  0
 26 24  1  0  0  0  0
 27  5  1  0  0  0  0
 28 12  1  0  0  0  0
 28 16  1  0  0  0  0
M  END
>  <MODEL>
6

>  <REMARK>
 VINA RESULT:      -7.3      2.150      2.581
  Name = 
  0 active torsions:
  status: ('A' for Active; 'I' for Inactive)
                            x       y       z     vdW  Elec       q    Type
                         _______ _______ _______ _____ _____    ______ ____

>  <TORSDO>
F 0

$$$$
=
 OpenBabel11112417423D

 28 32  0  0  1  0  0  0  0  0999 V2000
  190.4310  172.4920  143.3120 N   0  0  2  0  0  0  0  0  0  0  0  0
  193.7970  174.9210  145.3700 O   0  0  0  0  0  0  0  0  0  0  0  0
  186.4610  177.4290  143.7990 O   0  0  0  0  0  0  0  0  0  0  0  0
  192.9810  172.7650  141.9120 C   0  0  0  0  0  2  0  0  0  0  0  0
  187.8280  176.5760  145.5250 N   0  0  0  0  0  0  0  0  0  0  0  0
  188.9600  172.4060  143.1970 C   0  0  0  0  0  2  0  0  0  0  0  0
  192.7110  176.9400  144.4730 O   0  0  0  0  0  0  0  0  0  0  0  0
  192.6340  175.8620  145.5170 S   0  0  0  0  0  0  0  0  0  0  0  0
  191.4710  176.8080  147.8440 C   0  0  0  0  0  0  0  0  0  0  0  0
  191.1090  174.9530  145.3840 C   0  0  1  0  0  3  0  0  0  0  0  0
  188.6760  174.6020  140.4260 O   0  0  0  0  0  0  0  0  0  0  0  0
  189.0480  175.0140  144.1890 C   0  0  1  0  0  3  0  0  0  0  0  0
  190.2650  176.4350  147.4060 C   0  0  0  0  0  2  0  0  0  0  0  0
  192.6670  176.5730  147.0910 N   0  0  0  0  0  0  0  0  0  0  0  0
  188.1840  174.1220  141.4790 C   0  0  0  0  0  0  0  0  0  0  0  0
  190.9530  173.8440  142.9670 C   0  0  2  0  0  3  0  0  0  0  0  0
  187.4000  176.6750  144.1700 C   0  0  0  0  0  0  0  0  0  0  0  0
  191.5670  177.5400  149.1330 C   0  0  0  0  0  1  0  0  0  0  0  0
  187.4770  174.9760  142.3860 N   0  0  0  0  0  2  0  0  0  0  0  0
  192.4810  173.8650  142.8310 C   0  0  0  0  0  2  0  0  0  0  0  0
  190.9690  171.4550  142.4230 C   0  0  0  0  0  2  0  0  0  0  0  0
  192.4880  171.4350  142.4360 C   0  0  0  0  0  2  0  0  0  0  0  0
  188.3870  172.6650  141.7870 C   0  0  0  0  0  2  0  0  0  0  0  0
  188.9020  175.6470  145.4920 C   0  0  1  0  0  3  0  0  0  0  0  0
  188.2530  175.8740  143.2270 C   0  0  2  0  0  3  0  0  0  0  0  0
  190.0410  175.6700  146.1670 C   0  0  1  0  0  3  0  0  0  0  0  0
  187.5290  177.5410  146.5720 C   0  0  0  0  0  1  0  0  0  0  0  0
  190.5350  174.9710  143.9510 C   0  0  2  0  0  3  0  0  0  0  0  0
  1 21  1  6  0  0  0
  2  8  2  0  0  0  0
  3 17  2  0  0  0  0
  4 22  1  0  0  0  0
  4 20  1  0  0  0  0
  5 27  1  0  0  0  0
  6  1  1  0  0  0  0
  7  8  2  0  0  0  0
  8 14  1  0  0  0  0
  9 18  1  0  0  0  0
 10  8  1  6  0  0  0
 10 26  1  0  0  0  0
 11 15  2  0  0  0  0
 12 24  1  0  0  0  0
 13  9  1  0  0  0  0
 14  9  2  0  0  0  0
 15 23  1  0  0  0  0
 15 19  1  0  0  0  0
 16  1  1  0  0  0  0
 16 28  1  0  0  0  0
 17  5  1  0  0  0  0
 19 25  1  0  0  0  0
 20 16  1  0  0  0  0
 21 22  1  0  0  0  0
 23  6  1  0  0  0  0
 24  5  1  0  0  0  0
 24 26  1  0  0  0  0
 25 17  1  0  0  0  0
 25 12  1  0  0  0  0
 26 13  1  0  0  0  0
 28 12  1  0  0  0  0
 28 10  1  0  0  0  0
M  END
>  <MODEL>
7

>  <REMARK>
 VINA RESULT:      -7.2      2.502      5.285
  Name = 
  0 active torsions:
  status: ('A' for Active; 'I' for Inactive)
                            x       y       z     vdW  Elec       q    Type
                         _______ _______ _______ _____ _____    ______ ____

>  <TORSDO>
F 0

$$$$
=
 OpenBabel11112417423D

 28 32  0  0  1  0  0  0  0  0999 V2000
  192.0230  174.9670  146.0590 N   0  0  2  0  0  0  0  0  0  0  0  0
  188.0600  175.8960  143.8470 O   0  0  0  0  0  0  0  0  0  0  0  0
  195.3090  175.7880  140.6840 O   0  0  0  0  0  0  0  0  0  0  0  0
  190.3320  177.1040  147.1110 C   0  0  0  0  0  2  0  0  0  0  0  0
  193.3420  174.5050  140.9210 N   0  0  0  0  0  0  0  0  0  0  0  0
  193.3990  174.4790  145.8290 C   0  0  0  0  0  2  0  0  0  0  0  0
  189.3960  177.2660  142.2980 O   0  0  0  0  0  0  0  0  0  0  0  0
  189.0290  175.8640  142.6980 S   0  0  0  0  0  0  0  0  0  0  0  0
  189.0500  174.1660  140.5130 C   0  0  0  0  0  0  0  0  0  0  0  0
  190.4740  174.9330  143.1600 C   0  0  1  0  0  3  0  0  0  0  0  0
  194.8250  177.6680  145.2130 O   0  0  0  0  0  0  0  0  0  0  0  0
  192.8480  175.1370  143.1730 C   0  0  1  0  0  3  0  0  0  0  0  0
  190.3320  173.8680  140.7420 C   0  0  0  0  0  3  0  0  0  0  0  0
  188.3040  175.0490  141.3590 N   0  0  0  0  0  2  0  0  0  0  0  0
  194.8180  176.4280  145.0010 C   0  0  0  0  0  0  0  0  0  0  0  0
  191.6820  176.1390  145.2050 C   0  0  2  0  0  3  0  0  0  0  0  0
  194.3150  175.4420  141.3750 C   0  0  0  0  0  0  0  0  0  0  0  0
  188.3920  173.6020  139.3060 C   0  0  0  0  0  1  0  0  0  0  0  0
  195.0470  175.9330  143.6770 N   0  0  0  0  0  2  0  0  0  0  0  0
  190.3650  176.8050  145.6240 C   0  0  0  0  0  2  0  0  0  0  0  0
  191.9410  175.2910  147.4900 C   0  0  0  0  0  2  0  0  0  0  0  0
  190.5690  175.8170  147.8690 C   0  0  0  0  0  2  0  0  0  0  0  0
  194.5250  175.4900  146.1380 C   0  0  0  0  0  2  0  0  0  0  0  0
  192.4040  174.4240  141.9840 C   0  0  1  0  0  3  0  0  0  0  0  0
  193.9690  176.0460  142.7070 C   0  0  2  0  0  3  0  0  0  0  0  0
  191.0840  174.3300  141.9230 C   0  0  1  0  0  3  0  0  0  0  0  0
  193.1410  174.1080  139.5360 C   0  0  0  0  0  1  0  0  0  0  0  0
  191.6130  175.8340  143.6830 C   0  0  2  0  0  3  0  0  0  0  0  0
  1  6  1  6  0  0  0
  1 21  1  0  0  0  0
  3 17  2  0  0  0  0
  4 22  1  0  0  0  0
  5 17  1  0  0  0  0
  5 24  1  0  0  0  0
  6 23  1  0  0  0  0
  7  8  2  0  0  0  0
  8  2  2  0  0  0  0
  9 13  2  0  0  0  0
  9 14  1  0  0  0  0
 10  8  1  6  0  0  0
 10 28  1  0  0  0  0
 12 28  1  0  0  0  0
 13 26  1  0  0  0  0
 14  8  1  0  0  0  0
 15 11  2  0  0  0  0
 15 23  1  0  0  0  0
 16 20  1  0  0  0  0
 16  1  1  0  0  0  0
 17 25  1  0  0  0  0
 18  9  1  0  0  0  0
 19 15  1  0  0  0  0
 20  4  1  0  0  0  0
 21 22  1  0  0  0  0
 24 12  1  0  0  0  0
 25 12  1  0  0  0  0
 25 19  1  0  0  0  0
 26 24  1  0  0  0  0
 26 10  1  0  0  0  0
 27  5  1  0  0  0  0
 28 16  1  0  0  0  0
M  END
>  <MODEL>
8

>  <REMARK>
 VINA RESULT:      -7.2      2.880      5.302
  Name = 
  0 active torsions:
  status: ('A' for Active; 'I' for Inactive)
                            x       y       z     vdW  Elec       q    Type
                         _______ _______ _______ _____ _____    ______ ____

>  <TORSDO>
F 0

$$$$
=
 OpenBabel11112417423D

 28 32  0  0  1  0  0  0  0  0999 V2000
  187.7290  177.9490  143.7810 N   0  0  2  0  0  0  0  0  0  0  0  0
  190.0190  177.3260  147.7590 O   0  0  0  0  0  0  0  0  0  0  0  0
  191.3890  173.6250  140.9040 O   0  0  0  0  0  0  0  0  0  0  0  0
  186.1850  177.2470  146.1590 C   0  0  0  0  0  2  0  0  0  0  0  0
  192.1490  175.3920  142.2720 N   0  0  0  0  0  0  0  0  0  0  0  0
  187.8780  177.8090  142.3170 C   0  0  0  0  0  2  0  0  0  0  0  0
  190.4860  175.0370  146.9820 O   0  0  0  0  0  0  0  0  0  0  0  0
  190.8420  176.4880  146.8210 S   0  0  0  0  0  0  0  0  0  0  0  0
  193.5060  176.7910  146.1330 C   0  0  0  0  0  0  0  0  0  0  0  0
  190.5750  177.0280  145.1460 C   0  0  1  0  0  3  0  0  0  0  0  0
  186.6950  174.4700  142.1420 O   0  0  0  0  0  0  0  0  0  0  0  0
  190.0020  176.1370  143.0110 C   0  0  1  0  0  3  0  0  0  0  0  0
  193.1870  176.7510  144.8360 C   0  0  0  0  0  3  0  0  0  0  0  0
  192.5190  176.7180  147.1680 N   0  0  0  0  0  2  0  0  0  0  0  0
  187.4400  175.3780  141.6900 C   0  0  0  0  0  0  0  0  0  0  0  0
  188.0120  176.6790  144.5070 C   0  0  2  0  0  3  0  0  0  0  0  0
  191.1400  174.5530  141.7180 C   0  0  0  0  0  0  0  0  0  0  0  0
  194.9410  176.8590  146.5120 C   0  0  0  0  0  1  0  0  0  0  0  0
  188.7700  175.0590  141.2670 N   0  0  0  0  0  2  0  0  0  0  0  0
  187.6080  176.7490  145.9860 C   0  0  0  0  0  2  0  0  0  0  0  0
  186.3540  178.4140  144.0070 C   0  0  0  0  0  2  0  0  0  0  0  0
  186.0580  178.5950  145.4850 C   0  0  0  0  0  2  0  0  0  0  0  0
  186.9300  176.7900  141.6460 C   0  0  0  0  0  2  0  0  0  0  0  0
  191.4460  176.2700  143.1390 C   0  0  1  0  0  3  0  0  0  0  0  0
  189.7770  174.8220  142.2910 C   0  0  2  0  0  3  0  0  0  0  0  0
  191.8030  176.7240  144.3310 C   0  0  1  0  0  3  0  0  0  0  0  0
  193.5740  175.0970  142.2830 C   0  0  0  0  0  1  0  0  0  0  0  0
  189.4880  176.2010  144.4270 C   0  0  2  0  0  3  0  0  0  0  0  0
  1  6  1  6  0  0  0
  1 21  1  0  0  0  0
  1 16  1  0  0  0  0
  3 17  2  0  0  0  0
  5 27  1  0  0  0  0
  5 24  1  0  0  0  0
  8  7  2  0  0  0  0
  8 14  1  0  0  0  0
  8  2  2  0  0  0  0
  9 18  1  0  0  0  0
  9 14  1  0  0  0  0
 10  8  1  1  0  0  0
 12 24  1  0  0  0  0
 12 28  1  0  0  0  0
 13  9  2  0  0  0  0
 15 11  2  0  0  0  0
 16 20  1  0  0  0  0
 17  5  1  0  0  0  0
 17 25  1  0  0  0  0
 19 15  1  0  0  0  0
 19 25  1  0  0  0  0
 20  4  1  0  0  0  0
 21 22  1  0  0  0  0
 22  4  1  0  0  0  0
 23 15  1  0  0  0  0
 23  6  1  0  0  0  0
 24 26  1  0  0  0  0
 25 12  1  0  0  0  0
 26 13  1  0  0  0  0
 26 10  1  0  0  0  0
 28 16  1  0  0  0  0
 28 10  1  0  0  0  0
M  END
>  <MODEL>
9

>  <REMARK>
 VINA RESULT:      -7.2      2.093      6.551
  Name = 
  0 active torsions:
  status: ('A' for Active; 'I' for Inactive)
                            x       y       z     vdW  Elec       q    Type
                         _______ _______ _______ _____ _____    ______ ____

>  <TORSDO>
F 0

$$$$
