=
 OpenBabel11112417123D

 37 43  0  0  1  0  0  0  0  0999 V2000
  191.5340  172.5920  143.0430 C   0  0  0  0  0  2  0  0  0  0  0  0
  194.8650  176.2170  145.0650 C   0  0  0  0  0  0  0  0  0  0  0  0
  190.7200  175.1300  145.6430 C   0  0  1  0  0  3  0  0  0  0  0  0
  191.0870  171.5510  142.0210 C   0  0  2  0  0  3  0  0  0  0  0  0
  189.3430  176.4910  142.2070 C   0  0  0  0  0  2  0  0  0  0  0  0
  192.7630  176.3900  146.4630 C   0  0  1  0  0  3  0  0  0  0  0  0
  190.3660  175.1210  144.1550 C   0  0  1  0  0  3  0  0  0  0  0  0
  188.8550  172.8770  141.8720 C   0  0  0  0  0  0  0  0  0  0  0  0
  192.2430  175.1610  145.7030 C   0  0  2  0  0  3  0  0  0  0  0  0
  189.4170  176.2670  143.7240 C   0  0  2  0  0  3  0  0  0  0  0  0
  192.2180  176.3950  147.8180 N   0  0  0  0  0  2  0  0  0  0  0  0
  189.5650  171.5430  141.8400 C   0  0  0  0  0  2  0  0  0  0  0  0
  192.8020  175.0140  144.3440 N   0  0  2  0  0  0  0  0  0  0  0  0
  195.7890  175.0150  145.0260 C   0  0  0  0  0  1  0  0  0  0  0  0
  188.5640  176.1680  146.5910 C   0  0  0  0  0  2  0  0  0  0  0  0
  190.7430  176.4820  147.8220 C   0  0  0  0  0  2  0  0  0  0  0  0
  193.7730  176.0610  143.9940 C   0  0  0  0  0  2  0  0  0  0  0  0
  189.4830  174.1230  141.5050 N   0  0  0  0  0  0  0  0  0  0  0  0
  188.6820  175.3410  141.4410 C   0  0  0  0  0  2  0  0  0  0  0  0
  190.0840  176.2880  146.4440 C   0  0  1  0  0  3  0  0  0  0  0  0
  191.6960  175.1130  143.3950 C   0  0  1  0  0  3  0  0  0  0  0  0
  194.2840  176.3550  146.4800 C   0  0  0  0  0  2  0  0  0  0  0  0
  188.0050  176.1110  144.3300 C   0  0  1  0  0  3  0  0  0  0  0  0
  195.6760  177.4560  144.7490 C   0  0  0  0  0  1  0  0  0  0  0  0
  190.8970  174.2100  141.1540 C   0  0  0  0  0  2  0  0  0  0  0  0
  187.6400  172.8750  142.2080 O   0  0  0  0  0  0  0  0  0  0  0  0
  191.7770  173.9590  142.3830 C   0  0  2  0  0  3  0  0  0  0  0  0
  187.9630  175.4100  145.5620 O   0  0  0  0  0  0  0  0  0  0  0  0
  186.8150  177.9290  143.0860 C   0  0  0  0  0  3  0  0  0  0  0  0
  187.1700  177.3630  144.3140 C   0  0  0  0  0  0  0  0  0  0  0  0
  186.7200  177.9510  145.5060 C   0  0  0  0  0  3  0  0  0  0  0  0
  185.5010  179.6720  146.6160 F   0  0  0  0  0  0  0  0  0  0  0  0
  185.5850  179.6700  144.2340 C   0  0  0  0  0  3  0  0  0  0  0  0
  185.9310  179.1050  145.4640 C   0  0  0  0  0  0  0  0  0  0  0  0
  186.0250  179.0830  143.0450 C   0  0  0  0  0  3  0  0  0  0  0  0
  190.7850  169.1530  141.7320 N   0  0  0  0  0  1  0  0  0  0  0  0
  191.5410  170.1670  142.4470 C   0  0  0  0  0  2  0  0  0  0  0  0
  2 22  1  0  0  0  0
  3  9  1  0  0  0  0
  3 20  1  0  0  0  0
  4 37  1  0  0  0  0
  4  1  1  0  0  0  0
  5 10  1  0  0  0  0
  6 22  1  0  0  0  0
  6 11  1  0  0  0  0
  7  3  1  0  0  0  0
  8 26  2  0  0  0  0
  9  6  1  0  0  0  0
 10  7  1  0  0  0  0
 10 23  1  0  0  0  0
 11 16  1  0  0  0  0
 12  8  1  0  0  0  0
 12  4  1  0  0  0  0
 13  9  1  0  0  0  0
 14  2  1  0  0  0  0
 17 13  1  0  0  0  0
 17  2  1  0  0  0  0
 18  8  1  0  0  0  0
 19 18  1  0  0  0  0
 19  5  1  0  0  0  0
 20 15  1  0  0  0  0
 20 16  1  0  0  0  0
 21  7  1  0  0  0  0
 21 13  1  0  0  0  0
 23 28  1  0  0  0  0
 24  2  1  0  0  0  0
 25 18  1  0  0  0  0
 25 27  1  0  0  0  0
 27  1  1  0  0  0  0
 27 21  1  0  0  0  0
 28 15  1  0  0  0  0
 29 30  1  0  0  0  0
 30 23  1  0  0  0  0
 30 31  2  0  0  0  0
 33 34  2  0  0  0  0
 34 31  1  0  0  0  0
 34 32  1  0  0  0  0
 35 29  2  0  0  0  0
 35 33  1  0  0  0  0
 36 37  1  0  0  0  0
M  END
>  <MODEL>
1

>  <REMARK>
 VINA RESULT:      -8.8      0.000      0.000
  Name = 
  2 active torsions:
  status: ('A' for Active; 'I' for Inactive)
    1  A    between atoms: C_4  and  C_37
    2  A    between atoms: C_23  and  C_30
                            x       y       z     vdW  Elec       q    Type
                         _______ _______ _______ _____ _____    ______ ____

>  <TORSDO>
F 2

$$$$
=
 OpenBabel11112417123D

 37 43  0  0  1  0  0  0  0  0999 V2000
  188.7770  175.6140  143.5260 C   0  0  0  0  0  2  0  0  0  0  0  0
  189.6540  172.6540  139.1910 C   0  0  0  0  0  0  0  0  0  0  0  0
  191.0770  172.6970  143.2730 C   0  0  1  0  0  3  0  0  0  0  0  0
  188.2750  176.8450  144.2740 C   0  0  2  0  0  3  0  0  0  0  0  0
  193.2860  175.9540  143.0180 C   0  0  0  0  0  2  0  0  0  0  0  0
  190.8660  171.4650  141.0660 C   0  0  1  0  0  3  0  0  0  0  0  0
  191.4070  174.1900  143.2940 C   0  0  1  0  0  3  0  0  0  0  0  0
  190.6440  176.9780  145.3390 C   0  0  0  0  0  0  0  0  0  0  0  0
  190.2280  172.4800  142.0250 C   0  0  2  0  0  3  0  0  0  0  0  0
  192.9230  174.5020  143.3600 C   0  0  2  0  0  3  0  0  0  0  0  0
  191.0580  170.1920  141.7570 N   0  0  0  0  0  2  0  0  0  0  0  0
  189.1520  177.1760  145.4860 C   0  0  0  0  0  2  0  0  0  0  0  0
  189.9130  173.7810  141.4010 N   0  0  2  0  0  0  0  0  0  0  0  0
  188.1490  172.8140  139.0910 C   0  0  0  0  0  1  0  0  0  0  0  0
  193.0680  171.7980  144.6360 C   0  0  0  0  0  2  0  0  0  0  0  0
  191.9700  170.3200  142.9120 C   0  0  0  0  0  2  0  0  0  0  0  0
  190.2470  173.8400  139.9700 C   0  0  0  0  0  2  0  0  0  0  0  0
  191.3360  177.0500  144.0750 N   0  0  0  0  0  0  0  0  0  0  0  0
  192.7940  176.9750  144.0480 C   0  0  0  0  0  2  0  0  0  0  0  0
  192.3120  171.7690  143.3040 C   0  0  1  0  0  3  0  0  0  0  0  0
  190.7110  174.8030  142.0740 C   0  0  1  0  0  3  0  0  0  0  0  0
  189.9690  171.3020  139.8490 C   0  0  0  0  0  2  0  0  0  0  0  0
  193.5450  174.0780  144.7080 C   0  0  1  0  0  3  0  0  0  0  0  0
  190.2330  172.6610  137.7910 C   0  0  0  0  0  1  0  0  0  0  0  0
  190.6330  177.2380  142.8100 C   0  0  0  0  0  2  0  0  0  0  0  0
  191.3040  176.7700  146.3920 O   0  0  0  0  0  0  0  0  0  0  0  0
  189.8140  175.9910  142.4560 C   0  0  2  0  0  3  0  0  0  0  0  0
  192.8850  173.0020  145.3540 O   0  0  0  0  0  0  0  0  0  0  0  0
  195.7390  173.9980  145.9130 C   0  0  0  0  0  3  0  0  0  0  0  0
  195.0450  173.9530  144.6990 C   0  0  0  0  0  0  0  0  0  0  0  0
  195.7520  173.7660  143.5020 C   0  0  0  0  0  3  0  0  0  0  0  0
  197.8230  173.4590  142.3650 F   0  0  0  0  0  0  0  0  0  0  0  0
  197.8330  173.6880  144.7370 C   0  0  0  0  0  3  0  0  0  0  0  0
  197.1440  173.6370  143.5220 C   0  0  0  0  0  0  0  0  0  0  0  0
  197.1310  173.8680  145.9320 C   0  0  0  0  0  3  0  0  0  0  0  0
  185.9840  176.3690  143.6030 N   0  0  0  0  0  1  0  0  0  0  0  0
  186.8480  176.6310  144.7420 C   0  0  0  0  0  2  0  0  0  0  0  0
  1  4  1  0  0  0  0
  2 22  1  0  0  0  0
  2 17  1  0  0  0  0
  3  7  1  0  0  0  0
  3 20  1  0  0  0  0
  4 37  1  0  0  0  0
  4 12  1  0  0  0  0
  5 10  1  0  0  0  0
  5 19  1  0  0  0  0
  6 11  1  0  0  0  0
  6  9  1  0  0  0  0
  7 10  1  0  0  0  0
  8 12  1  0  0  0  0
  8 26  2  0  0  0  0
  9  3  1  0  0  0  0
 10 23  1  0  0  0  0
 11 16  1  0  0  0  0
 13  9  1  0  0  0  0
 13 21  1  0  0  0  0
 14  2  1  0  0  0  0
 15 28  1  0  0  0  0
 16 20  1  0  0  0  0
 17 13  1  0  0  0  0
 18  8  1  0  0  0  0
 19 18  1  0  0  0  0
 20 15  1  0  0  0  0
 21 27  1  0  0  0  0
 21  7  1  0  0  0  0
 22  6  1  0  0  0  0
 23 28  1  0  0  0  0
 24  2  1  0  0  0  0
 25 18  1  0  0  0  0
 27 25  1  0  0  0  0
 27  1  1  0  0  0  0
 29 35  1  0  0  0  0
 30 23  1  0  0  0  0
 30 29  2  0  0  0  0
 31 34  2  0  0  0  0
 31 30  1  0  0  0  0
 32 34  1  0  0  0  0
 33 35  2  0  0  0  0
 34 33  1  0  0  0  0
 36 37  1  0  0  0  0
M  END
>  <MODEL>
2

>  <REMARK>
 VINA RESULT:      -8.7      3.221      7.738
  Name = 
  2 active torsions:
  status: ('A' for Active; 'I' for Inactive)
    1  A    between atoms: C_4  and  C_37
    2  A    between atoms: C_23  and  C_30
                            x       y       z     vdW  Elec       q    Type
                         _______ _______ _______ _____ _____    ______ ____

>  <TORSDO>
F 2

$$$$
=
 OpenBabel11112417123D

 37 43  0  0  1  0  0  0  0  0999 V2000
  194.5990  174.4170  142.9140 C   0  0  0  0  0  2  0  0  0  0  0  0
  191.4630  170.4050  141.3670 C   0  0  0  0  0  0  0  0  0  0  0  0
  191.0040  174.6610  141.9740 C   0  0  1  0  0  3  0  0  0  0  0  0
  195.8470  175.0240  143.5470 C   0  0  2  0  0  3  0  0  0  0  0  0
  191.1850  174.6450  145.9140 C   0  0  0  0  0  2  0  0  0  0  0  0
  190.0880  172.5000  141.0140 C   0  0  1  0  0  3  0  0  0  0  0  0
  191.6450  174.6770  143.3630 C   0  0  1  0  0  3  0  0  0  0  0  0
  194.2330  176.4580  144.9960 C   0  0  0  0  0  0  0  0  0  0  0  0
  191.3470  173.3000  141.3790 C   0  0  2  0  0  3  0  0  0  0  0  0
  190.6520  174.9790  144.5140 C   0  0  2  0  0  3  0  0  0  0  0  0
  189.2820  173.2620  140.0640 N   0  0  0  0  0  2  0  0  0  0  0  0
  195.5450  176.3490  144.2540 C   0  0  0  0  0  2  0  0  0  0  0  0
  192.2780  172.5820  142.2720 N   0  0  2  0  0  0  0  0  0  0  0  0
  192.7240  170.0530  140.6030 C   0  0  0  0  0  1  0  0  0  0  0  0
  189.1140  176.3670  142.3530 C   0  0  0  0  0  2  0  0  0  0  0  0
  188.8220  174.5460  140.6330 C   0  0  0  0  0  2  0  0  0  0  0  0
  191.8300  171.2240  142.6150 C   0  0  0  0  0  2  0  0  0  0  0  0
  193.5370  175.3230  145.5540 N   0  0  0  0  0  0  0  0  0  0  0  0
  192.3440  175.5390  146.3660 C   0  0  0  0  0  2  0  0  0  0  0  0
  189.4830  174.9310  141.9680 C   0  0  1  0  0  3  0  0  0  0  0  0
  192.3690  173.3360  143.5190 C   0  0  1  0  0  3  0  0  0  0  0  0
  190.5060  171.1590  140.4300 C   0  0  0  0  0  2  0  0  0  0  0  0
  190.1170  176.4270  144.4550 C   0  0  1  0  0  3  0  0  0  0  0  0
  190.7960  169.1210  141.8130 C   0  0  0  0  0  1  0  0  0  0  0  0
  194.0060  173.9530  145.3690 C   0  0  0  0  0  2  0  0  0  0  0  0
  193.7530  177.6120  145.1530 O   0  0  0  0  0  0  0  0  0  0  0  0
  193.8450  173.5180  143.9080 C   0  0  2  0  0  3  0  0  0  0  0  0
  190.0910  176.9970  143.1570 O   0  0  0  0  0  0  0  0  0  0  0  0
  188.5610  175.8210  146.3210 C   0  0  0  0  0  3  0  0  0  0  0  0
  188.8640  176.6700  145.2520 C   0  0  0  0  0  0  0  0  0  0  0  0
  188.0150  177.7470  144.9580 C   0  0  0  0  0  3  0  0  0  0  0  0
  186.0450  179.0000  145.4360 F   0  0  0  0  0  0  0  0  0  0  0  0
  186.5630  177.1060  146.7860 C   0  0  0  0  0  3  0  0  0  0  0  0
  186.8640  177.9610  145.7230 C   0  0  0  0  0  0  0  0  0  0  0  0
  187.4110  176.0360  147.0860 C   0  0  0  0  0  3  0  0  0  0  0  0
  196.5410  176.3840  141.6520 N   0  0  0  0  0  1  0  0  0  0  0  0
  196.9120  175.2580  142.4920 C   0  0  0  0  0  2  0  0  0  0  0  0
  1  4  1  0  0  0  0
  1 27  1  0  0  0  0
  2 24  1  0  0  0  0
  2 17  1  0  0  0  0
  3  7  1  0  0  0  0
  4 12  1  0  0  0  0
  5 19  1  0  0  0  0
  6  9  1  0  0  0  0
  7 21  1  0  0  0  0
  7 10  1  0  0  0  0
  8 26  2  0  0  0  0
  8 18  1  0  0  0  0
  9  3  1  0  0  0  0
  9 13  1  0  0  0  0
 10  5  1  0  0  0  0
 11 16  1  0  0  0  0
 11  6  1  0  0  0  0
 12  8  1  0  0  0  0
 13 17  1  0  0  0  0
 13 21  1  0  0  0  0
 14  2  1  0  0  0  0
 15 28  1  0  0  0  0
 16 20  1  0  0  0  0
 18 19  1  0  0  0  0
 20  3  1  0  0  0  0
 20 15  1  0  0  0  0
 21 27  1  0  0  0  0
 22  6  1  0  0  0  0
 22  2  1  0  0  0  0
 23 10  1  0  0  0  0
 23 30  1  0  0  0  0
 25 18  1  0  0  0  0
 27 25  1  0  0  0  0
 28 23  1  0  0  0  0
 29 35  1  0  0  0  0
 30 29  2  0  0  0  0
 31 30  1  0  0  0  0
 31 34  2  0  0  0  0
 32 34  1  0  0  0  0
 33 35  2  0  0  0  0
 34 33  1  0  0  0  0
 36 37  1  0  0  0  0
 37  4  1  0  0  0  0
M  END
>  <MODEL>
3

>  <REMARK>
 VINA RESULT:      -8.7      2.007      5.690
  Name = 
  2 active torsions:
  status: ('A' for Active; 'I' for Inactive)
    1  A    between atoms: C_4  and  C_37
    2  A    between atoms: C_23  and  C_30
                            x       y       z     vdW  Elec       q    Type
                         _______ _______ _______ _____ _____    ______ ____

>  <TORSDO>
F 2

$$$$
=
 OpenBabel11112417123D

 37 43  0  0  1  0  0  0  0  0999 V2000
  191.2550  173.0660  141.3370 C   0  0  0  0  0  2  0  0  0  0  0  0
  189.7470  175.1260  146.0070 C   0  0  0  0  0  0  0  0  0  0  0  0
  193.4680  173.8190  144.2350 C   0  0  1  0  0  3  0  0  0  0  0  0
  191.0190  172.3900  139.9900 C   0  0  2  0  0  3  0  0  0  0  0  0
  192.7380  169.9430  144.2950 C   0  0  0  0  0  2  0  0  0  0  0  0
  192.2760  175.0830  146.0830 C   0  0  1  0  0  3  0  0  0  0  0  0
  192.9300  172.4700  143.7520 C   0  0  1  0  0  3  0  0  0  0  0  0
  192.8310  170.6680  140.7060 C   0  0  0  0  0  0  0  0  0  0  0  0
  192.2400  174.6400  144.6130 C   0  0  2  0  0  3  0  0  0  0  0  0
  193.5160  171.2500  144.5050 C   0  0  2  0  0  3  0  0  0  0  0  0
  193.4840  175.8650  146.3290 N   0  0  0  0  0  2  0  0  0  0  0  0
  192.1790  171.4670  139.6010 C   0  0  0  0  0  2  0  0  0  0  0  0
  191.0130  173.9100  144.2340 N   0  0  2  0  0  0  0  0  0  0  0  0
  188.9190  175.9840  145.0700 C   0  0  0  0  0  1  0  0  0  0  0  0
  195.8210  173.0970  144.9910 C   0  0  0  0  0  2  0  0  0  0  0  0
  194.7120  175.0780  146.0900 C   0  0  0  0  0  2  0  0  0  0  0  0
  190.0490  173.7760  145.3360 C   0  0  0  0  0  2  0  0  0  0  0  0
  192.1480  170.2770  141.9160 N   0  0  0  0  0  0  0  0  0  0  0  0
  192.8190  169.3960  142.8680 C   0  0  0  0  0  2  0  0  0  0  0  0
  194.4830  173.7230  145.3960 C   0  0  1  0  0  3  0  0  0  0  0  0
  191.4030  172.5610  143.8320 C   0  0  1  0  0  3  0  0  0  0  0  0
  191.0240  175.8920  146.3860 C   0  0  0  0  0  2  0  0  0  0  0  0
  195.0190  171.0530  144.2130 C   0  0  1  0  0  3  0  0  0  0  0  0
  188.9410  174.8700  147.2630 C   0  0  0  0  0  1  0  0  0  0  0  0
  190.7830  170.6990  142.2120 C   0  0  0  0  0  2  0  0  0  0  0  0
  194.0250  170.3080  140.5290 O   0  0  0  0  0  0  0  0  0  0  0  0
  190.7320  172.2040  142.4970 C   0  0  2  0  0  3  0  0  0  0  0  0
  195.7180  172.2390  143.8730 O   0  0  0  0  0  0  0  0  0  0  0  0
  197.0870  169.8580  144.9670 C   0  0  0  0  0  3  0  0  0  0  0  0
  195.7460  170.1800  145.2000 C   0  0  0  0  0  0  0  0  0  0  0  0
  195.1110  169.7120  146.3600 C   0  0  0  0  0  3  0  0  0  0  0  0
  195.1960  168.4630  148.3880 F   0  0  0  0  0  0  0  0  0  0  0  0
  197.1500  168.5910  147.0290 C   0  0  0  0  0  3  0  0  0  0  0  0
  195.8130  168.9160  147.2710 C   0  0  0  0  0  0  0  0  0  0  0  0
  197.7880  169.0620  145.8780 C   0  0  0  0  0  3  0  0  0  0  0  0
  189.4290  173.7910  138.7920 N   0  0  0  0  0  1  0  0  0  0  0  0
  190.8330  173.4330  138.9030 C   0  0  0  0  0  2  0  0  0  0  0  0
  1 27  1  0  0  0  0
  2 22  1  0  0  0  0
  2 24  1  0  0  0  0
  3  9  1  0  0  0  0
  3 20  1  0  0  0  0
  4  1  1  0  0  0  0
  5 10  1  0  0  0  0
  6 11  1  0  0  0  0
  6 22  1  0  0  0  0
  7 21  1  0  0  0  0
  7  3  1  0  0  0  0
  7 10  1  0  0  0  0
  8 18  1  0  0  0  0
  9  6  1  0  0  0  0
 12  4  1  0  0  0  0
 12  8  1  0  0  0  0
 13  9  1  0  0  0  0
 13 17  1  0  0  0  0
 14  2  1  0  0  0  0
 15 20  1  0  0  0  0
 16 11  1  0  0  0  0
 17  2  1  0  0  0  0
 18 25  1  0  0  0  0
 18 19  1  0  0  0  0
 19  5  1  0  0  0  0
 20 16  1  0  0  0  0
 21 13  1  0  0  0  0
 23 10  1  0  0  0  0
 23 30  1  0  0  0  0
 25 27  1  0  0  0  0
 26  8  2  0  0  0  0
 27 21  1  0  0  0  0
 28 23  1  0  0  0  0
 28 15  1  0  0  0  0
 29 30  2  0  0  0  0
 29 35  1  0  0  0  0
 30 31  1  0  0  0  0
 31 34  2  0  0  0  0
 33 34  1  0  0  0  0
 34 32  1  0  0  0  0
 35 33  2  0  0  0  0
 36 37  1  0  0  0  0
 37  4  1  0  0  0  0
M  END
>  <MODEL>
4

>  <REMARK>
 VINA RESULT:      -8.5      4.203      7.696
  Name = 
  2 active torsions:
  status: ('A' for Active; 'I' for Inactive)
    1  A    between atoms: C_4  and  C_37
    2  A    between atoms: C_23  and  C_30
                            x       y       z     vdW  Elec       q    Type
                         _______ _______ _______ _____ _____    ______ ____

>  <TORSDO>
F 2

$$$$
=
 OpenBabel11112417123D

 37 43  0  0  1  0  0  0  0  0999 V2000
  192.6130  171.7360  142.3860 C   0  0  0  0  0  2  0  0  0  0  0  0
  195.9020  175.9200  142.4210 C   0  0  0  0  0  0  0  0  0  0  0  0
  192.5360  174.5850  144.7830 C   0  0  1  0  0  3  0  0  0  0  0  0
  191.9550  170.5080  141.7670 C   0  0  2  0  0  3  0  0  0  0  0  0
  189.7250  175.2400  142.0950 C   0  0  0  0  0  2  0  0  0  0  0  0
  194.5280  176.1350  144.5340 C   0  0  1  0  0  3  0  0  0  0  0  0
  191.6260  174.3010  143.5870 C   0  0  1  0  0  3  0  0  0  0  0  0
  189.6790  171.5910  142.4050 C   0  0  0  0  0  0  0  0  0  0  0  0
  193.9350  174.7580  144.2030 C   0  0  2  0  0  3  0  0  0  0  0  0
  190.4270  175.2740  143.4600 C   0  0  2  0  0  3  0  0  0  0  0  0
  194.5710  176.3140  145.9830 N   0  0  0  0  0  2  0  0  0  0  0  0
  190.5060  170.3370  142.2340 C   0  0  0  0  0  2  0  0  0  0  0  0
  193.9230  174.4400  142.7600 N   0  0  2  0  0  0  0  0  0  0  0  0
  196.9000  174.8130  142.1400 C   0  0  0  0  0  1  0  0  0  0  0  0
  190.8070  175.5720  146.4140 C   0  0  0  0  0  2  0  0  0  0  0  0
  193.2240  176.2720  146.5870 C   0  0  0  0  0  2  0  0  0  0  0  0
  194.5100  175.4960  141.9230 C   0  0  0  0  0  2  0  0  0  0  0  0
  189.9200  172.8110  141.6730 N   0  0  0  0  0  0  0  0  0  0  0  0
  188.9900  173.9270  141.8080 C   0  0  0  0  0  2  0  0  0  0  0  0
  192.1080  175.7980  145.6380 C   0  0  1  0  0  3  0  0  0  0  0  0
  192.5300  174.2850  142.3500 C   0  0  1  0  0  3  0  0  0  0  0  0
  195.9180  176.2370  143.9240 C   0  0  0  0  0  2  0  0  0  0  0  0
  189.4110  175.0970  144.6100 C   0  0  1  0  0  3  0  0  0  0  0  0
  196.3290  177.1570  141.6590 C   0  0  0  0  0  1  0  0  0  0  0  0
  191.0490  172.9610  140.7600 C   0  0  0  0  0  2  0  0  0  0  0  0
  188.7120  171.5380  143.2120 O   0  0  0  0  0  0  0  0  0  0  0  0
  192.3710  172.9930  141.5340 C   0  0  2  0  0  3  0  0  0  0  0  0
  189.9640  174.6050  145.8190 O   0  0  0  0  0  0  0  0  0  0  0  0
  188.3720  177.2280  143.8030 C   0  0  0  0  0  3  0  0  0  0  0  0
  188.4640  176.2510  144.8000 C   0  0  0  0  0  0  0  0  0  0  0  0
  187.6560  176.3480  145.9430 C   0  0  0  0  0  3  0  0  0  0  0  0
  185.9970  177.5130  147.1940 F   0  0  0  0  0  0  0  0  0  0  0  0
  186.6890  178.3970  145.0920 C   0  0  0  0  0  3  0  0  0  0  0  0
  186.7730  177.4210  146.0880 C   0  0  0  0  0  0  0  0  0  0  0  0
  187.4880  178.3010  143.9490 C   0  0  0  0  0  3  0  0  0  0  0  0
  192.7000  169.0340  143.5550 N   0  0  0  0  0  1  0  0  0  0  0  0
  192.7380  169.2570  142.1200 C   0  0  0  0  0  2  0  0  0  0  0  0
  2 22  1  0  0  0  0
  3 20  1  0  0  0  0
  4 37  1  0  0  0  0
  4 12  1  0  0  0  0
  4  1  1  0  0  0  0
  5 10  1  0  0  0  0
  6 11  1  0  0  0  0
  7  3  1  0  0  0  0
  8 26  2  0  0  0  0
  9  6  1  0  0  0  0
  9  3  1  0  0  0  0
 10  7  1  0  0  0  0
 10 23  1  0  0  0  0
 11 16  1  0  0  0  0
 12  8  1  0  0  0  0
 13  9  1  0  0  0  0
 14  2  1  0  0  0  0
 17  2  1  0  0  0  0
 17 13  1  0  0  0  0
 18 19  1  0  0  0  0
 18  8  1  0  0  0  0
 19  5  1  0  0  0  0
 20 15  1  0  0  0  0
 20 16  1  0  0  0  0
 21 13  1  0  0  0  0
 21  7  1  0  0  0  0
 22  6  1  0  0  0  0
 23 30  1  0  0  0  0
 23 28  1  0  0  0  0
 24  2  1  0  0  0  0
 25 27  1  0  0  0  0
 25 18  1  0  0  0  0
 27 21  1  0  0  0  0
 27  1  1  0  0  0  0
 28 15  1  0  0  0  0
 29 35  2  0  0  0  0
 29 30  1  0  0  0  0
 30 31  2  0  0  0  0
 31 34  1  0  0  0  0
 33 34  2  0  0  0  0
 34 32  1  0  0  0  0
 35 33  1  0  0  0  0
 37 36  1  0  0  0  0
M  END
>  <MODEL>
5

>  <REMARK>
 VINA RESULT:      -8.4      1.605      2.103
  Name = 
  2 active torsions:
  status: ('A' for Active; 'I' for Inactive)
    1  A    between atoms: C_4  and  C_37
    2  A    between atoms: C_23  and  C_30
                            x       y       z     vdW  Elec       q    Type
                         _______ _______ _______ _____ _____    ______ ____

>  <TORSDO>
F 2

$$$$
=
 OpenBabel11112417123D

 37 43  0  0  1  0  0  0  0  0999 V2000
  189.0150  174.3370  140.5340 C   0  0  0  0  0  2  0  0  0  0  0  0
  188.7420  177.0550  145.1020 C   0  0  0  0  0  0  0  0  0  0  0  0
  191.8730  175.2220  142.7500 C   0  0  1  0  0  3  0  0  0  0  0  0
  188.4370  173.5320  139.3740 C   0  0  2  0  0  3  0  0  0  0  0  0
  190.9410  171.4610  143.4880 C   0  0  0  0  0  2  0  0  0  0  0  0
  191.2130  176.7940  144.6280 C   0  0  1  0  0  3  0  0  0  0  0  0
  191.1580  173.8800  142.5820 C   0  0  1  0  0  3  0  0  0  0  0  0
  190.2560  171.7510  139.9010 C   0  0  0  0  0  0  0  0  0  0  0  0
  190.8160  176.1880  143.2740 C   0  0  2  0  0  3  0  0  0  0  0  0
  191.8240  172.7080  143.3450 C   0  0  2  0  0  3  0  0  0  0  0  0
  192.4910  177.4890  144.4970 N   0  0  0  0  0  2  0  0  0  0  0  0
  189.4190  172.4700  138.8690 C   0  0  0  0  0  2  0  0  0  0  0  0
  189.4930  175.5320  143.2740 N   0  0  2  0  0  0  0  0  0  0  0  0
  187.7750  177.8680  144.2620 C   0  0  0  0  0  1  0  0  0  0  0  0
  194.2870  174.3860  143.0630 C   0  0  0  0  0  2  0  0  0  0  0  0
  193.5820  176.5730  144.1030 C   0  0  0  0  0  2  0  0  0  0  0  0
  188.7990  175.6140  144.5680 C   0  0  0  0  0  2  0  0  0  0  0  0
  189.8450  171.5660  141.2720 N   0  0  0  0  0  0  0  0  0  0  0  0
  190.6600  170.7460  142.1630 C   0  0  0  0  0  2  0  0  0  0  0  0
  193.1180  175.1730  143.6640 C   0  0  1  0  0  3  0  0  0  0  0  0
  189.6980  174.1160  142.9810 C   0  0  1  0  0  3  0  0  0  0  0  0
  190.1150  177.7420  145.0870 C   0  0  0  0  0  2  0  0  0  0  0  0
  193.2060  172.3450  142.7600 C   0  0  1  0  0  3  0  0  0  0  0  0
  188.2300  177.0210  146.5260 C   0  0  0  0  0  1  0  0  0  0  0  0
  188.6120  172.1400  141.8000 C   0  0  0  0  0  2  0  0  0  0  0  0
  191.3540  171.2670  139.5170 O   0  0  0  0  0  0  0  0  0  0  0  0
  188.7190  173.6670  141.8850 C   0  0  2  0  0  3  0  0  0  0  0  0
  193.8800  173.4150  142.1200 O   0  0  0  0  0  0  0  0  0  0  0  0
  193.9370  171.6660  145.0570 C   0  0  0  0  0  3  0  0  0  0  0  0
  194.0850  171.5320  143.6730 C   0  0  0  0  0  0  0  0  0  0  0  0
  195.0260  170.6270  143.1590 C   0  0  0  0  0  3  0  0  0  0  0  0
  196.7280  169.0020  143.5290 F   0  0  0  0  0  0  0  0  0  0  0  0
  195.6720  170.0140  145.4100 C   0  0  0  0  0  3  0  0  0  0  0  0
  195.8190  169.8720  144.0280 C   0  0  0  0  0  0  0  0  0  0  0  0
  194.7300  170.9100  145.9250 C   0  0  0  0  0  3  0  0  0  0  0  0
  188.9160  174.1760  137.0760 N   0  0  0  0  0  1  0  0  0  0  0  0
  188.0710  174.4540  138.2250 C   0  0  0  0  0  2  0  0  0  0  0  0
  1 27  1  0  0  0  0
  2 24  1  0  0  0  0
  3  9  1  0  0  0  0
  3 20  1  0  0  0  0
  4  1  1  0  0  0  0
  6 22  1  0  0  0  0
  7  3  1  0  0  0  0
  7 21  1  0  0  0  0
  7 10  1  0  0  0  0
  8 18  1  0  0  0  0
  9  6  1  0  0  0  0
 10  5  1  0  0  0  0
 11  6  1  0  0  0  0
 12  4  1  0  0  0  0
 12  8  1  0  0  0  0
 13  9  1  0  0  0  0
 13 17  1  0  0  0  0
 14  2  1  0  0  0  0
 15 20  1  0  0  0  0
 16 11  1  0  0  0  0
 17  2  1  0  0  0  0
 18 25  1  0  0  0  0
 18 19  1  0  0  0  0
 19  5  1  0  0  0  0
 20 16  1  0  0  0  0
 21 13  1  0  0  0  0
 22  2  1  0  0  0  0
 23 10  1  0  0  0  0
 23 30  1  0  0  0  0
 25 27  1  0  0  0  0
 26  8  2  0  0  0  0
 27 21  1  0  0  0  0
 28 23  1  0  0  0  0
 28 15  1  0  0  0  0
 29 35  1  0  0  0  0
 30 29  2  0  0  0  0
 31 30  1  0  0  0  0
 31 34  2  0  0  0  0
 32 34  1  0  0  0  0
 33 35  2  0  0  0  0
 34 33  1  0  0  0  0
 36 37  1  0  0  0  0
 37  4  1  0  0  0  0
M  END
>  <MODEL>
6

>  <REMARK>
 VINA RESULT:      -8.4      3.717      7.008
  Name = 
  2 active torsions:
  status: ('A' for Active; 'I' for Inactive)
    1  A    between atoms: C_4  and  C_37
    2  A    between atoms: C_23  and  C_30
                            x       y       z     vdW  Elec       q    Type
                         _______ _______ _______ _____ _____    ______ ____

>  <TORSDO>
F 2

$$$$
=
 OpenBabel11112417123D

 37 43  0  0  1  0  0  0  0  0999 V2000
  189.0430  173.5110  140.9780 C   0  0  0  0  0  2  0  0  0  0  0  0
  187.4840  176.7130  144.9330 C   0  0  0  0  0  0  0  0  0  0  0  0
  191.1560  176.0030  142.7640 C   0  0  1  0  0  3  0  0  0  0  0  0
  188.9120  172.3130  140.0430 C   0  0  2  0  0  3  0  0  0  0  0  0
  191.9820  172.4600  144.2890 C   0  0  0  0  0  2  0  0  0  0  0  0
  189.8230  177.4750  144.3410 C   0  0  1  0  0  3  0  0  0  0  0  0
  191.1190  174.4810  142.9140 C   0  0  1  0  0  3  0  0  0  0  0  0
  191.3220  171.6670  140.7750 C   0  0  0  0  0  0  0  0  0  0  0  0
  189.7680  176.4900  143.1650 C   0  0  2  0  0  3  0  0  0  0  0  0
  192.2200  173.9090  143.8410 C   0  0  2  0  0  3  0  0  0  0  0  0
  190.6600  178.6170  143.9840 N   0  0  0  0  0  2  0  0  0  0  0  0
  190.2750  171.7120  139.6850 C   0  0  0  0  0  2  0  0  0  0  0  0
  188.8770  175.3340  143.3890 N   0  0  2  0  0  0  0  0  0  0  0  0
  186.2760  176.8230  144.0230 C   0  0  0  0  0  1  0  0  0  0  0  0
  193.6830  176.4010  143.0580 C   0  0  0  0  0  2  0  0  0  0  0  0
  192.0530  178.2160  143.6980 C   0  0  0  0  0  2  0  0  0  0  0  0
  188.1900  175.3690  144.6890 C   0  0  0  0  0  2  0  0  0  0  0  0
  191.0060  171.6090  142.1820 N   0  0  0  0  0  0  0  0  0  0  0  0
  192.0800  171.4370  143.1540 C   0  0  0  0  0  2  0  0  0  0  0  0
  192.2720  176.6980  143.5770 C   0  0  1  0  0  3  0  0  0  0  0  0
  189.6980  174.1270  143.3650 C   0  0  1  0  0  3  0  0  0  0  0  0
  188.4070  177.9150  144.6840 C   0  0  0  0  0  2  0  0  0  0  0  0
  193.6320  174.0790  143.2390 C   0  0  1  0  0  3  0  0  0  0  0  0
  187.0090  176.7530  146.3700 C   0  0  0  0  0  1  0  0  0  0  0  0
  189.6340  171.6770  142.6760 C   0  0  0  0  0  2  0  0  0  0  0  0
  192.5290  171.6480  140.4130 O   0  0  0  0  0  0  0  0  0  0  0  0
  189.0470  173.0760  142.4520 C   0  0  2  0  0  3  0  0  0  0  0  0
  193.7720  175.1780  142.3550 O   0  0  0  0  0  0  0  0  0  0  0  0
  194.6960  174.6500  145.4330 C   0  0  0  0  0  3  0  0  0  0  0  0
  194.7600  173.9450  144.2270 C   0  0  0  0  0  0  0  0  0  0  0  0
  195.8560  173.1080  143.9700 C   0  0  0  0  0  3  0  0  0  0  0  0
  197.9410  172.1830  144.6570 F   0  0  0  0  0  0  0  0  0  0  0  0
  196.8170  173.7000  146.1110 C   0  0  0  0  0  3  0  0  0  0  0  0
  196.8840  172.9890  144.9100 C   0  0  0  0  0  0  0  0  0  0  0  0
  195.7240  174.5300  146.3740 C   0  0  0  0  0  3  0  0  0  0  0  0
  189.0750  173.5380  137.9460 N   0  0  0  0  0  1  0  0  0  0  0  0
  188.2000  172.7180  138.7660 C   0  0  0  0  0  2  0  0  0  0  0  0
  1 27  1  0  0  0  0
  2 24  1  0  0  0  0
  3  7  1  0  0  0  0
  3  9  1  0  0  0  0
  3 20  1  0  0  0  0
  4  1  1  0  0  0  0
  6 22  1  0  0  0  0
  7 21  1  0  0  0  0
  7 10  1  0  0  0  0
  8 18  1  0  0  0  0
  9 13  1  0  0  0  0
  9  6  1  0  0  0  0
 10  5  1  0  0  0  0
 11  6  1  0  0  0  0
 12  4  1  0  0  0  0
 12  8  1  0  0  0  0
 13 17  1  0  0  0  0
 14  2  1  0  0  0  0
 15 20  1  0  0  0  0
 16 11  1  0  0  0  0
 17  2  1  0  0  0  0
 18 25  1  0  0  0  0
 18 19  1  0  0  0  0
 19  5  1  0  0  0  0
 20 16  1  0  0  0  0
 21 13  1  0  0  0  0
 22  2  1  0  0  0  0
 23 10  1  0  0  0  0
 23 30  1  0  0  0  0
 26  8  2  0  0  0  0
 27 25  1  0  0  0  0
 27 21  1  0  0  0  0
 28 15  1  0  0  0  0
 28 23  1  0  0  0  0
 29 35  1  0  0  0  0
 30 29  2  0  0  0  0
 31 30  1  0  0  0  0
 31 34  2  0  0  0  0
 32 34  1  0  0  0  0
 33 35  2  0  0  0  0
 34 33  1  0  0  0  0
 36 37  1  0  0  0  0
 37  4  1  0  0  0  0
M  END
>  <MODEL>
7

>  <REMARK>
 VINA RESULT:      -8.3      3.468      6.755
  Name = 
  2 active torsions:
  status: ('A' for Active; 'I' for Inactive)
    1  A    between atoms: C_4  and  C_37
    2  A    between atoms: C_23  and  C_30
                            x       y       z     vdW  Elec       q    Type
                         _______ _______ _______ _____ _____    ______ ____

>  <TORSDO>
F 2

$$$$
=
 OpenBabel11112417123D

 37 43  0  0  1  0  0  0  0  0999 V2000
  195.3650  173.7480  141.7410 C   0  0  0  0  0  2  0  0  0  0  0  0
  191.8290  169.9280  140.6300 C   0  0  0  0  0  0  0  0  0  0  0  0
  191.6660  174.1430  141.5800 C   0  0  1  0  0  3  0  0  0  0  0  0
  196.7380  174.2800  142.1390 C   0  0  2  0  0  3  0  0  0  0  0  0
  192.6470  173.8550  145.3890 C   0  0  0  0  0  2  0  0  0  0  0  0
  190.4920  172.0750  140.6980 C   0  0  1  0  0  3  0  0  0  0  0  0
  192.5770  174.0490  142.8050 C   0  0  1  0  0  3  0  0  0  0  0  0
  195.5090  175.6510  143.9750 C   0  0  0  0  0  0  0  0  0  0  0  0
  191.8280  172.8170  140.8440 C   0  0  2  0  0  3  0  0  0  0  0  0
  191.8520  174.2960  144.1520 C   0  0  2  0  0  3  0  0  0  0  0  0
  189.5380  172.9190  139.9840 N   0  0  0  0  0  2  0  0  0  0  0  0
  196.6370  175.5610  142.9720 C   0  0  0  0  0  2  0  0  0  0  0  0
  192.8940  172.0180  141.4800 N   0  0  2  0  0  0  0  0  0  0  0  0
  192.8940  169.5970  139.6020 C   0  0  0  0  0  1  0  0  0  0  0  0
  189.9580  175.8650  142.4450 C   0  0  0  0  0  2  0  0  0  0  0  0
  189.2520  174.1720  140.7140 C   0  0  0  0  0  2  0  0  0  0  0  0
  192.4740  170.6510  141.8240 C   0  0  0  0  0  2  0  0  0  0  0  0
  194.8990  174.4980  144.5930 N   0  0  0  0  0  0  0  0  0  0  0  0
  193.9070  174.6870  145.6460 C   0  0  0  0  0  2  0  0  0  0  0  0
  190.1870  174.4490  141.9050 C   0  0  1  0  0  3  0  0  0  0  0  0
  193.2670  172.6830  142.7260 C   0  0  1  0  0  3  0  0  0  0  0  0
  190.7310  170.7660  139.9590 C   0  0  0  0  0  2  0  0  0  0  0  0
  191.3720  175.7570  144.2940 C   0  0  1  0  0  3  0  0  0  0  0  0
  191.2190  168.6330  141.1250 C   0  0  0  0  0  1  0  0  0  0  0  0
  195.2690  173.1330  144.2320 C   0  0  0  0  0  2  0  0  0  0  0  0
  195.1160  176.8030  144.2980 O   0  0  0  0  0  0  0  0  0  0  0  0
  194.7960  172.8030  142.8110 C   0  0  2  0  0  3  0  0  0  0  0  0
  191.1020  176.4140  143.0670 O   0  0  0  0  0  0  0  0  0  0  0  0
  189.7000  177.2270  145.4400 C   0  0  0  0  0  3  0  0  0  0  0  0
  190.3180  175.9760  145.3460 C   0  0  0  0  0  0  0  0  0  0  0  0
  189.9290  174.9420  146.2110 C   0  0  0  0  0  3  0  0  0  0  0  0
  188.5650  174.1670  148.0040 F   0  0  0  0  0  0  0  0  0  0  0  0
  188.3260  176.4200  147.2630 C   0  0  0  0  0  3  0  0  0  0  0  0
  188.9370  175.1660  147.1690 C   0  0  0  0  0  0  0  0  0  0  0  0
  188.7060  177.4500  146.3990 C   0  0  0  0  0  3  0  0  0  0  0  0
  197.0160  175.6840  140.1700 N   0  0  0  0  0  1  0  0  0  0  0  0
  197.5720  174.5590  140.9020 C   0  0  0  0  0  2  0  0  0  0  0  0
  1  4  1  0  0  0  0
  1 27  1  0  0  0  0
  2 24  1  0  0  0  0
  2 17  1  0  0  0  0
  3 20  1  0  0  0  0
  3  7  1  0  0  0  0
  4 12  1  0  0  0  0
  5 19  1  0  0  0  0
  6  9  1  0  0  0  0
  7 10  1  0  0  0  0
  8 26  2  0  0  0  0
  8 18  1  0  0  0  0
  9 13  1  0  0  0  0
  9  3  1  0  0  0  0
 10 23  1  0  0  0  0
 10  5  1  0  0  0  0
 11  6  1  0  0  0  0
 11 16  1  0  0  0  0
 12  8  1  0  0  0  0
 13 17  1  0  0  0  0
 13 21  1  0  0  0  0
 14  2  1  0  0  0  0
 15 28  1  0  0  0  0
 16 20  1  0  0  0  0
 18 19  1  0  0  0  0
 20 15  1  0  0  0  0
 21  7  1  0  0  0  0
 21 27  1  0  0  0  0
 22  2  1  0  0  0  0
 22  6  1  0  0  0  0
 23 30  1  0  0  0  0
 25 18  1  0  0  0  0
 27 25  1  0  0  0  0
 28 23  1  0  0  0  0
 29 35  1  0  0  0  0
 30 29  2  0  0  0  0
 30 31  1  0  0  0  0
 31 34  2  0  0  0  0
 34 33  1  0  0  0  0
 34 32  1  0  0  0  0
 35 33  2  0  0  0  0
 36 37  1  0  0  0  0
 37  4  1  0  0  0  0
M  END
>  <MODEL>
8

>  <REMARK>
 VINA RESULT:      -8.2      2.793      6.246
  Name = 
  2 active torsions:
  status: ('A' for Active; 'I' for Inactive)
    1  A    between atoms: C_4  and  C_37
    2  A    between atoms: C_23  and  C_30
                            x       y       z     vdW  Elec       q    Type
                         _______ _______ _______ _____ _____    ______ ____

>  <TORSDO>
F 2

$$$$
=
 OpenBabel11112417123D

 37 43  0  0  1  0  0  0  0  0999 V2000
  189.8000  173.6770  141.1910 C   0  0  0  0  0  2  0  0  0  0  0  0
  189.3450  175.3440  146.2250 C   0  0  0  0  0  0  0  0  0  0  0  0
  192.5670  174.8600  143.3830 C   0  0  1  0  0  3  0  0  0  0  0  0
  189.3210  172.9750  139.9240 C   0  0  2  0  0  3  0  0  0  0  0  0
  192.6750  170.9180  143.3880 C   0  0  0  0  0  2  0  0  0  0  0  0
  191.7410  175.8330  145.5750 C   0  0  1  0  0  3  0  0  0  0  0  0
  192.1920  173.4320  142.9840 C   0  0  1  0  0  3  0  0  0  0  0  0
  191.5680  171.6690  139.9780 C   0  0  0  0  0  0  0  0  0  0  0  0
  191.3660  175.4020  144.1500 C   0  0  2  0  0  3  0  0  0  0  0  0
  193.2030  172.3570  143.4550 C   0  0  2  0  0  3  0  0  0  0  0  0
  192.7870  176.8500  145.5190 N   0  0  0  0  0  2  0  0  0  0  0  0
  190.4750  172.3190  139.1600 C   0  0  0  0  0  2  0  0  0  0  0  0
  190.2530  174.4330  144.0870 N   0  0  2  0  0  0  0  0  0  0  0  0
  188.1250  176.0150  145.6220 C   0  0  0  0  0  1  0  0  0  0  0  0
  195.1330  174.6450  143.3880 C   0  0  0  0  0  2  0  0  0  0  0  0
  194.0220  176.3410  144.8890 C   0  0  0  0  0  2  0  0  0  0  0  0
  189.7000  174.0920  145.4060 C   0  0  0  0  0  2  0  0  0  0  0  0
  191.3610  171.1350  141.3030 N   0  0  0  0  0  0  0  0  0  0  0  0
  192.4420  170.4080  141.9620 C   0  0  0  0  0  2  0  0  0  0  0  0
  193.8750  174.9730  144.1990 C   0  0  1  0  0  3  0  0  0  0  0  0
  190.7690  173.1990  143.5010 C   0  0  1  0  0  3  0  0  0  0  0  0
  190.4970  176.3590  146.2760 C   0  0  0  0  0  2  0  0  0  0  0  0
  194.5630  172.4820  142.7340 C   0  0  1  0  0  3  0  0  0  0  0  0
  189.0090  174.9160  147.6380 C   0  0  0  0  0  1  0  0  0  0  0  0
  190.0870  171.2580  142.0030 C   0  0  0  0  0  2  0  0  0  0  0  0
  192.7050  171.5690  139.4440 O   0  0  0  0  0  0  0  0  0  0  0  0
  189.8220  172.7170  142.3910 C   0  0  2  0  0  3  0  0  0  0  0  0
  194.8810  173.7910  142.2900 O   0  0  0  0  0  0  0  0  0  0  0  0
  196.7800  171.3220  142.6420 C   0  0  0  0  0  3  0  0  0  0  0  0
  195.7050  171.7760  143.4130 C   0  0  0  0  0  0  0  0  0  0  0  0
  195.7220  171.5920  144.8030 C   0  0  0  0  0  3  0  0  0  0  0  0
  196.8140  170.7690  146.7550 F   0  0  0  0  0  0  0  0  0  0  0  0
  197.8710  170.4900  144.6370 C   0  0  0  0  0  3  0  0  0  0  0  0
  196.8030  170.9470  145.4130 C   0  0  0  0  0  0  0  0  0  0  0  0
  197.8610  170.6780  143.2520 C   0  0  0  0  0  3  0  0  0  0  0  0
  188.7540  173.5390  137.6250 N   0  0  0  0  0  1  0  0  0  0  0  0
  188.6210  173.9630  139.0090 C   0  0  0  0  0  2  0  0  0  0  0  0
  1 27  1  0  0  0  0
  2 22  1  0  0  0  0
  2 24  1  0  0  0  0
  3  9  1  0  0  0  0
  3 20  1  0  0  0  0
  4  1  1  0  0  0  0
  5 10  1  0  0  0  0
  6 22  1  0  0  0  0
  7  3  1  0  0  0  0
  7 10  1  0  0  0  0
  7 21  1  0  0  0  0
  8 18  1  0  0  0  0
  9  6  1  0  0  0  0
 11  6  1  0  0  0  0
 12  4  1  0  0  0  0
 12  8  1  0  0  0  0
 13  9  1  0  0  0  0
 13 17  1  0  0  0  0
 14  2  1  0  0  0  0
 15 20  1  0  0  0  0
 16 11  1  0  0  0  0
 17  2  1  0  0  0  0
 18 19  1  0  0  0  0
 18 25  1  0  0  0  0
 19  5  1  0  0  0  0
 20 16  1  0  0  0  0
 21 13  1  0  0  0  0
 23 30  1  0  0  0  0
 23 10  1  0  0  0  0
 25 27  1  0  0  0  0
 26  8  2  0  0  0  0
 27 21  1  0  0  0  0
 28 23  1  0  0  0  0
 28 15  1  0  0  0  0
 29 35  2  0  0  0  0
 29 30  1  0  0  0  0
 30 31  2  0  0  0  0
 31 34  1  0  0  0  0
 33 34  2  0  0  0  0
 34 32  1  0  0  0  0
 35 33  1  0  0  0  0
 36 37  1  0  0  0  0
 37  4  1  0  0  0  0
M  END
>  <MODEL>
9

>  <REMARK>
 VINA RESULT:      -8.1      3.684      7.241
  Name = 
  2 active torsions:
  status: ('A' for Active; 'I' for Inactive)
    1  A    between atoms: C_4  and  C_37
    2  A    between atoms: C_23  and  C_30
                            x       y       z     vdW  Elec       q    Type
                         _______ _______ _______ _____ _____    ______ ____

>  <TORSDO>
F 2

$$$$
