=
 OpenBabel11112417563D

 34 41  0  0  1  0  0  0  0  0999 V2000
  192.0070  176.4560  145.6770 C   0  0  2  0  0  3  0  0  0  0  0  0
  189.9020  176.4410  146.8800 C   0  0  0  0  0  2  0  0  0  0  0  0
  195.8100  175.4610  140.3080 C   0  0  2  0  0  3  0  0  0  0  0  0
  194.1230  176.3710  144.2860 C   0  0  1  0  0  3  0  0  0  0  0  0
  193.9470  175.5520  141.9000 C   0  0  1  0  0  3  0  0  0  0  0  0
  193.8120  174.4910  139.2650 S   0  0  0  0  0  0  0  0  0  0  0  0
  195.4660  175.1570  138.8690 C   0  0  0  0  0  2  0  0  0  0  0  0
  197.2150  174.9810  142.6590 S   0  0  0  0  0  0  0  0  0  0  0  0
  189.9450  176.0340  144.6610 C   0  0  1  0  0  3  0  0  0  0  0  0
  187.2720  175.6470  142.8020 C   0  0  0  0  0  2  0  0  0  0  0  0
  192.6020  174.9440  142.2870 C   0  0  0  0  0  2  0  0  0  0  0  0
  196.0630  176.2600  142.8580 O   0  0  0  0  0  0  0  0  0  0  0  0
  190.5680  175.2970  143.4710 C   0  0  2  0  0  3  0  0  0  0  0  0
  188.4490  176.2230  146.4630 C   0  0  0  0  0  2  0  0  0  0  0  0
  194.8410  175.6310  143.1560 C   0  0  1  0  0  3  0  0  0  0  0  0
  197.1220  174.8980  140.8180 C   0  0  0  0  0  2  0  0  0  0  0  0
  187.5610  176.4420  144.0840 C   0  0  2  0  0  3  0  0  0  0  0  0
  192.7310  175.7500  144.5100 C   0  0  2  0  0  3  0  0  0  0  0  0
  194.6490  174.6840  140.8680 C   0  0  1  0  0  3  0  0  0  0  0  0
  191.9370  175.8090  143.2630 N   0  0  1  0  0  0  0  0  0  0  0  0
  194.2240  176.9770  146.7180 C   0  0  0  0  0  2  0  0  0  0  0  0
  188.4230  174.7820  142.2800 C   0  0  0  0  0  2  0  0  0  0  0  0
  194.9460  176.2790  145.5710 C   0  0  0  0  0  2  0  0  0  0  0  0
  189.7340  175.5480  142.2110 C   0  0  0  0  0  2  0  0  0  0  0  0
  188.5170  175.7070  145.0310 C   0  0  1  0  0  3  0  0  0  0  0  0
  192.8600  176.3340  146.9430 C   0  0  0  0  0  2  0  0  0  0  0  0
  190.7180  175.7960  145.8620 N   0  0  1  0  0  0  0  0  0  0  0  0
  186.3460  176.7270  144.7160 O   0  0  0  0  0  0  0  0  0  0  0  0
  185.8060  177.7910  143.9880 C   0  0  0  0  0  2  0  0  0  0  0  0
  183.7080  178.4170  146.3950 O   0  0  0  0  0  0  0  0  0  0  0  0
  186.0510  178.6710  146.2850 C   0  0  0  0  0  2  0  0  0  0  0  0
  185.4860  178.9460  144.9220 C   0  0  2  0  0  3  0  0  0  0  0  0
  184.8400  178.6590  147.1850 C   0  0  0  0  0  2  0  0  0  0  0  0
  183.9940  179.0050  145.1550 C   0  0  0  0  0  2  0  0  0  0  0  0
  1 27  1  0  0  0  0
  1 26  1  1  0  0  0
  3  7  1  6  0  0  0
  3 16  1  0  0  0  0
  3 19  1  0  0  0  0
  4 18  1  0  0  0  0
  4 23  1  1  0  0  0
  5 11  1  1  0  0  0
  5 15  1  0  0  0  0
  6 19  1  0  0  0  0
  7  6  1  0  0  0  0
  8 12  1  0  0  0  0
  9 25  1  0  0  0  0
  9 27  1  0  0  0  0
 10 17  1  0  0  0  0
 11 20  1  0  0  0  0
 12 15  1  0  0  0  0
 13  9  1  0  0  0  0
 14  2  1  0  0  0  0
 15  4  1  0  0  0  0
 16  8  1  0  0  0  0
 17 28  1  0  0  0  0
 17 25  1  0  0  0  0
 18  1  1  0  0  0  0
 19  5  1  0  0  0  0
 20 13  1  0  0  0  0
 20 18  1  0  0  0  0
 21 26  1  0  0  0  0
 22 10  1  0  0  0  0
 23 21  1  0  0  0  0
 24 22  1  0  0  0  0
 24 13  1  0  0  0  0
 25 14  1  0  0  0  0
 27  2  1  0  0  0  0
 29 28  1  0  0  0  0
 29 32  1  0  0  0  0
 30 33  1  0  0  0  0
 31 33  1  0  0  0  0
 32 34  1  0  0  0  0
 32 31  1  0  0  0  0
 34 30  1  0  0  0  0
M  END
>  <MODEL>
1

>  <REMARK>
 VINA RESULT:      -8.7      0.000      0.000
  Name = 
  3 active torsions:
  status: ('A' for Active; 'I' for Inactive)
    1  A    between atoms: C_17  and  O_28
    2  A    between atoms: O_28  and  C_29
    3  A    between atoms: C_29  and  C_32
                            x       y       z     vdW  Elec       q    Type
                         _______ _______ _______ _____ _____    ______ ____

>  <TORSDO>
F 3

$$$$
=
 OpenBabel11112417563D

 34 41  0  0  1  0  0  0  0  0999 V2000
  192.1360  176.1250  145.5010 C   0  0  2  0  0  3  0  0  0  0  0  0
  190.2580  177.1780  146.6170 C   0  0  0  0  0  2  0  0  0  0  0  0
  194.9390  172.5510  140.6380 C   0  0  2  0  0  3  0  0  0  0  0  0
  193.9750  174.9340  144.2280 C   0  0  1  0  0  3  0  0  0  0  0  0
  193.3500  173.7010  142.1110 C   0  0  1  0  0  3  0  0  0  0  0  0
  192.6580  172.1750  139.8130 S   0  0  0  0  0  0  0  0  0  0  0  0
  194.4100  172.0650  139.3090 C   0  0  0  0  0  2  0  0  0  0  0  0
  196.2260  172.1530  143.0710 S   0  0  0  0  0  0  0  0  0  0  0  0
  190.0000  176.2720  144.5670 C   0  0  1  0  0  3  0  0  0  0  0  0
  187.2510  176.4770  142.7910 C   0  0  0  0  0  2  0  0  0  0  0  0
  191.9060  173.7450  142.6000 C   0  0  0  0  0  2  0  0  0  0  0  0
  195.6380  173.7760  142.9210 O   0  0  0  0  0  0  0  0  0  0  0  0
  190.2280  175.0970  143.6090 C   0  0  2  0  0  3  0  0  0  0  0  0
  188.8020  177.4230  146.2280 C   0  0  0  0  0  2  0  0  0  0  0  0
  194.2940  173.7360  143.3320 C   0  0  1  0  0  3  0  0  0  0  0  0
  195.9850  171.6780  141.3040 C   0  0  0  0  0  2  0  0  0  0  0  0
  187.8970  177.3870  143.8470 C   0  0  2  0  0  3  0  0  0  0  0  0
  192.4710  174.9460  144.5610 C   0  0  2  0  0  3  0  0  0  0  0  0
  193.6150  172.4170  141.3410 C   0  0  1  0  0  3  0  0  0  0  0  0
  191.6710  175.0000  143.3180 N   0  0  1  0  0  0  0  0  0  0  0  0
  194.4560  176.0150  146.4400 C   0  0  0  0  0  2  0  0  0  0  0  0
  187.9670  175.1500  142.5260 C   0  0  0  0  0  2  0  0  0  0  0  0
  194.7920  174.8500  145.5180 C   0  0  0  0  0  2  0  0  0  0  0  0
  189.4600  175.3350  142.3050 C   0  0  0  0  0  2  0  0  0  0  0  0
  188.5790  176.5960  144.9690 C   0  0  1  0  0  3  0  0  0  0  0  0
  192.9690  175.9980  146.7810 C   0  0  0  0  0  2  0  0  0  0  0  0
  190.7110  176.0550  145.8090 N   0  0  1  0  0  0  0  0  0  0  0  0
  186.9160  178.2440  144.3580 O   0  0  0  0  0  0  0  0  0  0  0  0
  185.7180  177.5390  144.2190 C   0  0  0  0  0  2  0  0  0  0  0  0
  185.7370  177.4310  147.4700 O   0  0  0  0  0  0  0  0  0  0  0  0
  185.2010  179.1860  145.9870 C   0  0  0  0  0  2  0  0  0  0  0  0
  184.7740  177.8930  145.3550 C   0  0  2  0  0  3  0  0  0  0  0  0
  185.4980  178.8120  147.4180 C   0  0  0  0  0  2  0  0  0  0  0  0
  184.9250  176.8810  146.4680 C   0  0  0  0  0  2  0  0  0  0  0  0
  1 27  1  0  0  0  0
  1 26  1  1  0  0  0
  3  7  1  6  0  0  0
  3 16  1  0  0  0  0
  3 19  1  0  0  0  0
  4 18  1  0  0  0  0
  4 23  1  1  0  0  0
  5 11  1  1  0  0  0
  5 15  1  0  0  0  0
  6 19  1  0  0  0  0
  7  6  1  0  0  0  0
  9 25  1  0  0  0  0
  9 27  1  0  0  0  0
 10 17  1  0  0  0  0
 11 20  1  0  0  0  0
 12  8  1  0  0  0  0
 12 15  1  0  0  0  0
 13  9  1  0  0  0  0
 14  2  1  0  0  0  0
 15  4  1  0  0  0  0
 16  8  1  0  0  0  0
 17 28  1  0  0  0  0
 17 25  1  0  0  0  0
 18  1  1  0  0  0  0
 19  5  1  0  0  0  0
 20 13  1  0  0  0  0
 20 18  1  0  0  0  0
 21 26  1  0  0  0  0
 22 10  1  0  0  0  0
 23 21  1  0  0  0  0
 24 22  1  0  0  0  0
 24 13  1  0  0  0  0
 25 14  1  0  0  0  0
 27  2  1  0  0  0  0
 29 28  1  0  0  0  0
 29 32  1  0  0  0  0
 31 33  1  0  0  0  0
 32 31  1  0  0  0  0
 32 34  1  0  0  0  0
 33 30  1  0  0  0  0
 34 30  1  0  0  0  0
M  END
>  <MODEL>
2

>  <REMARK>
 VINA RESULT:      -8.3      1.636      1.742
  Name = 
  3 active torsions:
  status: ('A' for Active; 'I' for Inactive)
    1  A    between atoms: C_17  and  O_28
    2  A    between atoms: O_28  and  C_29
    3  A    between atoms: C_29  and  C_32
                            x       y       z     vdW  Elec       q    Type
                         _______ _______ _______ _____ _____    ______ ____

>  <TORSDO>
F 3

$$$$
=
 OpenBabel11112417563D

 34 41  0  0  1  0  0  0  0  0999 V2000
  189.2500  174.5690  142.0280 C   0  0  2  0  0  3  0  0  0  0  0  0
  187.0660  175.5360  142.4490 C   0  0  0  0  0  2  0  0  0  0  0  0
  195.6980  173.6040  143.3580 C   0  0  2  0  0  3  0  0  0  0  0  0
  191.6010  173.6790  141.7130 C   0  0  1  0  0  3  0  0  0  0  0  0
  193.3740  174.3890  143.3690 C   0  0  1  0  0  3  0  0  0  0  0  0
  195.4260  175.2900  145.1200 S   0  0  0  0  0  0  0  0  0  0  0  0
  196.5470  173.9640  144.5540 C   0  0  0  0  0  2  0  0  0  0  0  0
  195.1970  173.5380  140.6230 S   0  0  0  0  0  0  0  0  0  0  0  0
  188.7300  175.7890  143.9520 C   0  0  1  0  0  3  0  0  0  0  0  0
  188.3670  177.2030  146.8880 C   0  0  0  0  0  2  0  0  0  0  0  0
  192.4430  175.5310  143.7630 C   0  0  0  0  0  2  0  0  0  0  0  0
  193.8710  172.8860  141.5280 O   0  0  0  0  0  0  0  0  0  0  0  0
  190.1930  176.1360  144.2490 C   0  0  2  0  0  3  0  0  0  0  0  0
  186.4720  176.3370  143.6060 C   0  0  0  0  0  2  0  0  0  0  0  0
  193.0860  173.9900  141.9060 C   0  0  1  0  0  3  0  0  0  0  0  0
  196.4060  173.5730  142.0170 C   0  0  0  0  0  2  0  0  0  0  0  0
  187.4190  176.4170  145.9700 C   0  0  2  0  0  3  0  0  0  0  0  0
  190.7520  174.8450  142.2540 C   0  0  2  0  0  3  0  0  0  0  0  0
  194.8270  174.8270  143.4660 C   0  0  1  0  0  3  0  0  0  0  0  0
  191.0530  175.0780  143.6830 N   0  0  1  0  0  0  0  0  0  0  0  0
  189.8200  173.1940  140.0140 C   0  0  0  0  0  2  0  0  0  0  0  0
  189.7690  177.4680  146.3310 C   0  0  0  0  0  2  0  0  0  0  0  0
  191.3040  173.4650  140.2280 C   0  0  0  0  0  2  0  0  0  0  0  0
  190.4100  176.2120  145.7640 C   0  0  0  0  0  2  0  0  0  0  0  0
  187.6590  176.7120  144.4850 C   0  0  1  0  0  3  0  0  0  0  0  0
  188.9960  174.3680  140.5310 C   0  0  0  0  0  2  0  0  0  0  0  0
  188.5080  175.7250  142.5240 N   0  0  1  0  0  0  0  0  0  0  0  0
  186.1010  176.7080  146.3350 O   0  0  0  0  0  0  0  0  0  0  0  0
  186.2070  177.7570  147.2520 C   0  0  0  0  0  2  0  0  0  0  0  0
  185.4140  179.4670  144.6000 O   0  0  0  0  0  0  0  0  0  0  0  0
  184.0660  178.2910  146.1380 C   0  0  0  0  0  2  0  0  0  0  0  0
  185.2350  178.8650  146.8850 C   0  0  2  0  0  3  0  0  0  0  0  0
  184.1140  178.9830  144.7990 C   0  0  0  0  0  2  0  0  0  0  0  0
  185.8840  179.7910  145.8810 C   0  0  0  0  0  2  0  0  0  0  0  0
  1 26  1  6  0  0  0
  1 18  1  0  0  0  0
  1 27  1  0  0  0  0
  2 27  1  0  0  0  0
  2 14  1  0  0  0  0
  3 16  1  6  0  0  0
  3 19  1  0  0  0  0
  3  7  1  0  0  0  0
  4 23  1  6  0  0  0
  4 15  1  0  0  0  0
  4 18  1  0  0  0  0
  5 19  1  0  0  0  0
  5 11  1  6  0  0  0
  7  6  1  0  0  0  0
  8 12  1  0  0  0  0
  8 16  1  0  0  0  0
  9 13  1  0  0  0  0
  9 25  1  0  0  0  0
 12 15  1  0  0  0  0
 13 24  1  0  0  0  0
 14 25  1  0  0  0  0
 15  5  1  0  0  0  0
 17 28  1  0  0  0  0
 17 10  1  0  0  0  0
 18 20  1  0  0  0  0
 19  6  1  0  0  0  0
 20 11  1  0  0  0  0
 20 13  1  0  0  0  0
 21 23  1  0  0  0  0
 21 26  1  0  0  0  0
 22 10  1  0  0  0  0
 24 22  1  0  0  0  0
 25 17  1  0  0  0  0
 27  9  1  0  0  0  0
 28 29  1  0  0  0  0
 30 33  1  0  0  0  0
 30 34  1  0  0  0  0
 31 32  1  0  0  0  0
 32 29  1  0  0  0  0
 33 31  1  0  0  0  0
 34 32  1  0  0  0  0
M  END
>  <MODEL>
3

>  <REMARK>
 VINA RESULT:      -8.3      1.959      4.010
  Name = 
  3 active torsions:
  status: ('A' for Active; 'I' for Inactive)
    1  A    between atoms: C_17  and  O_28
    2  A    between atoms: O_28  and  C_29
    3  A    between atoms: C_29  and  C_32
                            x       y       z     vdW  Elec       q    Type
                         _______ _______ _______ _____ _____    ______ ____

>  <TORSDO>
F 3

$$$$
=
 OpenBabel11112417563D

 34 41  0  0  1  0  0  0  0  0999 V2000
  190.4470  173.8230  141.3770 C   0  0  2  0  0  3  0  0  0  0  0  0
  188.1400  174.4080  141.8370 C   0  0  0  0  0  2  0  0  0  0  0  0
  197.0280  174.6020  141.9790 C   0  0  2  0  0  3  0  0  0  0  0  0
  192.9080  173.3730  140.9740 C   0  0  1  0  0  3  0  0  0  0  0  0
  194.5940  174.8710  142.1150 C   0  0  1  0  0  3  0  0  0  0  0  0
  196.5130  176.6320  143.2570 S   0  0  0  0  0  0  0  0  0  0  0  0
  197.8630  175.4540  142.9050 C   0  0  0  0  0  2  0  0  0  0  0  0
  196.3380  173.6540  139.4570 S   0  0  0  0  0  0  0  0  0  0  0  0
  189.8150  175.4120  142.9680 C   0  0  1  0  0  3  0  0  0  0  0  0
  189.3690  177.5060  145.4520 C   0  0  0  0  0  2  0  0  0  0  0  0
  193.4570  175.8660  142.3250 C   0  0  0  0  0  2  0  0  0  0  0  0
  195.2780  173.0360  140.6810 O   0  0  0  0  0  0  0  0  0  0  0  0
  191.1750  176.1180  142.9520 C   0  0  2  0  0  3  0  0  0  0  0  0
  187.4700  175.3700  142.8160 C   0  0  0  0  0  2  0  0  0  0  0  0
  194.2900  174.0190  140.8650 C   0  0  1  0  0  3  0  0  0  0  0  0
  197.6130  174.3310  140.6060 C   0  0  0  0  0  2  0  0  0  0  0  0
  188.5600  176.3150  144.9160 C   0  0  2  0  0  3  0  0  0  0  0  0
  191.8570  174.4490  141.3050 C   0  0  2  0  0  3  0  0  0  0  0  0
  195.9080  175.6030  141.8860 C   0  0  1  0  0  3  0  0  0  0  0  0
  192.2090  175.1380  142.5660 N   0  0  1  0  0  0  0  0  0  0  0  0
  191.1580  172.0720  139.7330 C   0  0  0  0  0  2  0  0  0  0  0  0
  190.6210  177.8770  144.6500 C   0  0  0  0  0  2  0  0  0  0  0  0
  192.5510  172.6870  139.6550 C   0  0  0  0  0  2  0  0  0  0  0  0
  191.4900  176.6670  144.3470 C   0  0  0  0  0  2  0  0  0  0  0  0
  188.6030  176.2130  143.3870 C   0  0  1  0  0  3  0  0  0  0  0  0
  190.1280  173.1530  140.0360 C   0  0  0  0  0  2  0  0  0  0  0  0
  189.4990  174.8970  141.6530 N   0  0  1  0  0  0  0  0  0  0  0  0
  187.2440  176.4260  145.3770 O   0  0  0  0  0  0  0  0  0  0  0  0
  187.3600  176.5330  146.7660 C   0  0  0  0  0  2  0  0  0  0  0  0
  185.6630  179.3090  146.7450 O   0  0  0  0  0  0  0  0  0  0  0  0
  184.9990  177.0900  146.2930 C   0  0  0  0  0  2  0  0  0  0  0  0
  186.0600  177.0530  147.3540 C   0  0  2  0  0  3  0  0  0  0  0  0
  184.6140  178.5470  146.2140 C   0  0  0  0  0  2  0  0  0  0  0  0
  186.2310  178.5040  147.7440 C   0  0  0  0  0  2  0  0  0  0  0  0
  1 26  1  6  0  0  0
  1 27  1  0  0  0  0
  2 14  1  0  0  0  0
  3 16  1  6  0  0  0
  3  7  1  0  0  0  0
  4 23  1  6  0  0  0
  4 18  1  0  0  0  0
  5 11  1  6  0  0  0
  7  6  1  0  0  0  0
  8 16  1  0  0  0  0
  8 12  1  0  0  0  0
  9 25  1  0  0  0  0
 11 20  1  0  0  0  0
 12 15  1  0  0  0  0
 13  9  1  0  0  0  0
 13 24  1  0  0  0  0
 14 25  1  0  0  0  0
 15  4  1  0  0  0  0
 15  5  1  0  0  0  0
 17 28  1  0  0  0  0
 17 10  1  0  0  0  0
 18  1  1  0  0  0  0
 18 20  1  0  0  0  0
 19  3  1  0  0  0  0
 19  5  1  0  0  0  0
 19  6  1  0  0  0  0
 20 13  1  0  0  0  0
 21 26  1  0  0  0  0
 22 10  1  0  0  0  0
 23 21  1  0  0  0  0
 24 22  1  0  0  0  0
 25 17  1  0  0  0  0
 27  2  1  0  0  0  0
 27  9  1  0  0  0  0
 28 29  1  0  0  0  0
 29 32  1  0  0  0  0
 30 34  1  0  0  0  0
 31 32  1  0  0  0  0
 32 34  1  0  0  0  0
 33 31  1  0  0  0  0
 33 30  1  0  0  0  0
M  END
>  <MODEL>
4

>  <REMARK>
 VINA RESULT:      -8.1      1.954      3.938
  Name = 
  3 active torsions:
  status: ('A' for Active; 'I' for Inactive)
    1  A    between atoms: C_17  and  O_28
    2  A    between atoms: O_28  and  C_29
    3  A    between atoms: C_29  and  C_32
                            x       y       z     vdW  Elec       q    Type
                         _______ _______ _______ _____ _____    ______ ____

>  <TORSDO>
F 3

$$$$
=
 OpenBabel11112417563D

 34 41  0  0  1  0  0  0  0  0999 V2000
  192.3110  176.2220  145.2590 C   0  0  2  0  0  3  0  0  0  0  0  0
  190.3000  177.5450  145.5460 C   0  0  0  0  0  2  0  0  0  0  0  0
  195.7770  171.1010  142.7990 C   0  0  2  0  0  3  0  0  0  0  0  0
  194.3070  174.7060  144.8820 C   0  0  1  0  0  3  0  0  0  0  0  0
  193.9970  172.6750  143.4080 C   0  0  1  0  0  3  0  0  0  0  0  0
  193.6450  170.3000  141.8840 S   0  0  0  0  0  0  0  0  0  0  0  0
  195.4520  170.0810  141.7330 C   0  0  0  0  0  2  0  0  0  0  0  0
  196.6690  171.8150  145.3340 S   0  0  0  0  0  0  0  0  0  0  0  0
  190.3460  175.8570  144.0490 C   0  0  1  0  0  3  0  0  0  0  0  0
  187.9060  175.1650  141.9700 C   0  0  0  0  0  2  0  0  0  0  0  0
  192.4960  172.8440  143.6180 C   0  0  0  0  0  2  0  0  0  0  0  0
  196.1340  173.1980  144.4360 O   0  0  0  0  0  0  0  0  0  0  0  0
  190.7020  174.4040  143.7140 C   0  0  2  0  0  3  0  0  0  0  0  0
  188.9240  177.5310  144.8830 C   0  0  0  0  0  2  0  0  0  0  0  0
  194.7430  173.2620  144.6250 C   0  0  1  0  0  3  0  0  0  0  0  0
  196.6950  170.6380  143.9130 C   0  0  0  0  0  2  0  0  0  0  0  0
  188.3950  176.4630  142.6310 C   0  0  2  0  0  3  0  0  0  0  0  0
  192.7700  174.7780  144.9570 C   0  0  2  0  0  3  0  0  0  0  0  0
  194.3590  171.2030  143.2930 C   0  0  1  0  0  3  0  0  0  0  0  0
  192.1710  174.2690  143.7030 N   0  0  1  0  0  0  0  0  0  0  0  0
  194.4570  176.6310  146.4840 C   0  0  0  0  0  2  0  0  0  0  0  0
  188.6360  173.8870  142.3920 C   0  0  0  0  0  2  0  0  0  0  0  0
  194.9150  175.2070  146.1930 C   0  0  0  0  0  2  0  0  0  0  0  0
  190.1470  174.0400  142.3330 C   0  0  0  0  0  2  0  0  0  0  0  0
  188.8850  176.2450  144.0670 C   0  0  1  0  0  3  0  0  0  0  0  0
  192.9360  176.6800  146.5800 C   0  0  0  0  0  2  0  0  0  0  0  0
  190.8550  176.2120  145.3560 N   0  0  1  0  0  0  0  0  0  0  0  0
  187.3600  177.4030  142.5890 O   0  0  0  0  0  0  0  0  0  0  0  0
  186.2080  176.6810  142.9130 C   0  0  0  0  0  2  0  0  0  0  0  0
  185.8230  178.8700  145.2890 O   0  0  0  0  0  0  0  0  0  0  0  0
  185.4420  179.0300  142.9670 C   0  0  0  0  0  2  0  0  0  0  0  0
  185.1230  177.6280  143.3970 C   0  0  2  0  0  3  0  0  0  0  0  0
  185.5650  179.7900  144.2640 C   0  0  0  0  0  2  0  0  0  0  0  0
  185.1540  177.6980  144.9070 C   0  0  0  0  0  2  0  0  0  0  0  0
  1 27  1  0  0  0  0
  1 26  1  1  0  0  0
  3  7  1  6  0  0  0
  3 19  1  0  0  0  0
  3 16  1  0  0  0  0
  4 18  1  0  0  0  0
  4 23  1  1  0  0  0
  5 11  1  1  0  0  0
  5 15  1  0  0  0  0
  6 19  1  0  0  0  0
  7  6  1  0  0  0  0
  9 25  1  0  0  0  0
  9 27  1  0  0  0  0
 10 22  1  0  0  0  0
 10 17  1  0  0  0  0
 11 20  1  0  0  0  0
 12 15  1  0  0  0  0
 12  8  1  0  0  0  0
 13  9  1  0  0  0  0
 14  2  1  0  0  0  0
 15  4  1  0  0  0  0
 16  8  1  0  0  0  0
 17 25  1  0  0  0  0
 18  1  1  0  0  0  0
 19  5  1  0  0  0  0
 20 13  1  0  0  0  0
 20 18  1  0  0  0  0
 21 26  1  0  0  0  0
 23 21  1  0  0  0  0
 24 22  1  0  0  0  0
 24 13  1  0  0  0  0
 25 14  1  0  0  0  0
 27  2  1  0  0  0  0
 28 17  1  0  0  0  0
 28 29  1  0  0  0  0
 29 32  1  0  0  0  0
 31 32  1  0  0  0  0
 31 33  1  0  0  0  0
 32 34  1  0  0  0  0
 33 30  1  0  0  0  0
 34 30  1  0  0  0  0
M  END
>  <MODEL>
5

>  <REMARK>
 VINA RESULT:      -8.0      2.466      2.737
  Name = 
  3 active torsions:
  status: ('A' for Active; 'I' for Inactive)
    1  A    between atoms: C_17  and  O_28
    2  A    between atoms: O_28  and  C_29
    3  A    between atoms: C_29  and  C_32
                            x       y       z     vdW  Elec       q    Type
                         _______ _______ _______ _____ _____    ______ ____

>  <TORSDO>
F 3

$$$$
=
 OpenBabel11112417563D

 34 41  0  0  1  0  0  0  0  0999 V2000
  191.8860  176.1550  144.5010 C   0  0  2  0  0  3  0  0  0  0  0  0
  190.3620  177.1870  146.0790 C   0  0  0  0  0  2  0  0  0  0  0  0
  193.3560  172.9580  138.8530 C   0  0  2  0  0  3  0  0  0  0  0  0
  193.3310  175.0060  142.7660 C   0  0  1  0  0  3  0  0  0  0  0  0
  192.1950  174.0330  140.7270 C   0  0  1  0  0  3  0  0  0  0  0  0
  190.9340  172.7940  138.5000 S   0  0  0  0  0  0  0  0  0  0  0  0
  192.5310  172.6420  137.6280 C   0  0  0  0  0  2  0  0  0  0  0  0
  195.0830  172.2420  140.9120 S   0  0  0  0  0  0  0  0  0  0  0  0
  189.6210  176.5130  144.0570 C   0  0  1  0  0  3  0  0  0  0  0  0
  186.5880  177.0490  142.9300 C   0  0  0  0  0  2  0  0  0  0  0  0
  190.8890  174.1040  141.5120 C   0  0  0  0  0  2  0  0  0  0  0  0
  194.5990  173.9020  141.0370 O   0  0  0  0  0  0  0  0  0  0  0  0
  189.5590  175.4330  142.9720 C   0  0  2  0  0  3  0  0  0  0  0  0
  188.8790  177.5490  146.0320 C   0  0  0  0  0  2  0  0  0  0  0  0
  193.3690  173.8910  141.7180 C   0  0  1  0  0  3  0  0  0  0  0  0
  194.4490  171.9660  139.2010 C   0  0  0  0  0  2  0  0  0  0  0  0
  187.5030  177.8090  143.9020 C   0  0  2  0  0  3  0  0  0  0  0  0
  191.9330  175.0640  143.4090 C   0  0  2  0  0  3  0  0  0  0  0  0
  192.1990  172.8240  139.8060 C   0  0  1  0  0  3  0  0  0  0  0  0
  190.9000  175.2890  142.3740 N   0  0  1  0  0  0  0  0  0  0  0  0
  194.3350  175.8240  144.9140 C   0  0  0  0  0  2  0  0  0  0  0  0
  187.1350  175.7200  142.4010 C   0  0  0  0  0  2  0  0  0  0  0  0
  194.3870  174.7440  143.8400 C   0  0  0  0  0  2  0  0  0  0  0  0
  188.5590  175.8460  141.8860 C   0  0  0  0  0  2  0  0  0  0  0  0
  188.3410  176.8700  144.7780 C   0  0  1  0  0  3  0  0  0  0  0  0
  192.9530  175.8520  145.5580 C   0  0  0  0  0  2  0  0  0  0  0  0
  190.5530  176.1310  145.0960 N   0  0  1  0  0  0  0  0  0  0  0  0
  186.7160  178.6590  144.6850 O   0  0  0  0  0  0  0  0  0  0  0  0
  185.4150  178.1670  144.5490 C   0  0  0  0  0  2  0  0  0  0  0  0
  185.9180  176.8100  147.4630 O   0  0  0  0  0  0  0  0  0  0  0  0
  185.4510  179.0430  146.8590 C   0  0  0  0  0  2  0  0  0  0  0  0
  184.7280  178.1400  145.9030 C   0  0  2  0  0  3  0  0  0  0  0  0
  185.9010  178.1190  147.9640 C   0  0  0  0  0  2  0  0  0  0  0  0
  184.8830  176.7670  146.5180 C   0  0  0  0  0  2  0  0  0  0  0  0
  1 27  1  0  0  0  0
  1 26  1  1  0  0  0
  3  7  1  6  0  0  0
  3 16  1  0  0  0  0
  3 19  1  0  0  0  0
  4 18  1  0  0  0  0
  4 23  1  1  0  0  0
  5 11  1  1  0  0  0
  5 15  1  0  0  0  0
  6 19  1  0  0  0  0
  7  6  1  0  0  0  0
  8 12  1  0  0  0  0
  9 25  1  0  0  0  0
  9 27  1  0  0  0  0
 10 17  1  0  0  0  0
 11 20  1  0  0  0  0
 12 15  1  0  0  0  0
 13  9  1  0  0  0  0
 14  2  1  0  0  0  0
 15  4  1  0  0  0  0
 16  8  1  0  0  0  0
 17 28  1  0  0  0  0
 17 25  1  0  0  0  0
 18  1  1  0  0  0  0
 19  5  1  0  0  0  0
 20 13  1  0  0  0  0
 20 18  1  0  0  0  0
 21 26  1  0  0  0  0
 22 10  1  0  0  0  0
 23 21  1  0  0  0  0
 24 22  1  0  0  0  0
 24 13  1  0  0  0  0
 25 14  1  0  0  0  0
 27  2  1  0  0  0  0
 29 28  1  0  0  0  0
 29 32  1  0  0  0  0
 30 33  1  0  0  0  0
 31 33  1  0  0  0  0
 32 34  1  0  0  0  0
 32 31  1  0  0  0  0
 34 30  1  0  0  0  0
M  END
>  <MODEL>
6

>  <REMARK>
 VINA RESULT:      -8.0      1.953      2.308
  Name = 
  3 active torsions:
  status: ('A' for Active; 'I' for Inactive)
    1  A    between atoms: C_17  and  O_28
    2  A    between atoms: O_28  and  C_29
    3  A    between atoms: C_29  and  C_32
                            x       y       z     vdW  Elec       q    Type
                         _______ _______ _______ _____ _____    ______ ____

>  <TORSDO>
F 3

$$$$
=
 OpenBabel11112417563D

 34 41  0  0  1  0  0  0  0  0999 V2000
  191.9910  176.3730  145.5360 C   0  0  2  0  0  3  0  0  0  0  0  0
  189.8590  177.1470  146.3930 C   0  0  0  0  0  2  0  0  0  0  0  0
  195.8370  173.0450  141.2440 C   0  0  2  0  0  3  0  0  0  0  0  0
  194.1250  175.4470  144.5300 C   0  0  1  0  0  3  0  0  0  0  0  0
  193.9360  173.9880  142.4740 C   0  0  1  0  0  3  0  0  0  0  0  0
  193.7480  172.2190  140.2550 S   0  0  0  0  0  0  0  0  0  0  0  0
  195.5350  172.3880  139.9180 C   0  0  0  0  0  2  0  0  0  0  0  0
  196.9210  173.0390  143.8050 S   0  0  0  0  0  0  0  0  0  0  0  0
  189.9670  176.0780  144.4080 C   0  0  1  0  0  3  0  0  0  0  0  0
  187.4160  175.6790  142.3860 C   0  0  0  0  0  2  0  0  0  0  0  0
  192.4630  173.8070  142.8280 C   0  0  0  0  0  2  0  0  0  0  0  0
  196.0840  174.5200  143.4730 O   0  0  0  0  0  0  0  0  0  0  0  0
  190.4860  174.9030  143.5730 C   0  0  2  0  0  3  0  0  0  0  0  0
  188.4290  177.1050  145.8590 C   0  0  0  0  0  2  0  0  0  0  0  0
  194.7320  174.2690  143.7660 C   0  0  1  0  0  3  0  0  0  0  0  0
  196.9430  172.4160  142.0680 C   0  0  0  0  0  2  0  0  0  0  0  0
  187.7880  176.7550  143.4180 C   0  0  2  0  0  3  0  0  0  0  0  0
  192.6150  175.2140  144.7280 C   0  0  2  0  0  3  0  0  0  0  0  0
  194.4910  172.7240  141.8370 C   0  0  1  0  0  3  0  0  0  0  0  0
  191.9470  175.0440  143.4190 N   0  0  1  0  0  0  0  0  0  0  0  0
  194.1890  176.7360  146.6810 C   0  0  0  0  0  2  0  0  0  0  0  0
  188.3710  174.4860  142.2940 C   0  0  0  0  0  2  0  0  0  0  0  0
  194.8100  175.5920  145.8890 C   0  0  0  0  0  2  0  0  0  0  0  0
  189.8240  174.9170  142.1910 C   0  0  0  0  0  2  0  0  0  0  0  0
  188.4780  176.1720  144.6560 C   0  0  1  0  0  3  0  0  0  0  0  0
  192.7010  176.4780  146.8900 C   0  0  0  0  0  2  0  0  0  0  0  0
  190.5750  176.0720  145.7210 N   0  0  1  0  0  0  0  0  0  0  0  0
  186.6300  177.4560  143.7700 O   0  0  0  0  0  0  0  0  0  0  0  0
  185.6830  177.0870  142.8100 C   0  0  0  0  0  2  0  0  0  0  0  0
  184.0000  177.8560  140.1350 O   0  0  0  0  0  0  0  0  0  0  0  0
  183.5610  178.2900  142.4120 C   0  0  0  0  0  2  0  0  0  0  0  0
  185.0480  178.3270  142.2070 C   0  0  2  0  0  3  0  0  0  0  0  0
  183.0000  178.2990  141.0120 C   0  0  0  0  0  2  0  0  0  0  0  0
  185.2050  178.2920  140.7030 C   0  0  0  0  0  2  0  0  0  0  0  0
  1 27  1  0  0  0  0
  1 26  1  1  0  0  0
  3  7  1  6  0  0  0
  3 19  1  0  0  0  0
  3 16  1  0  0  0  0
  4 18  1  0  0  0  0
  4 23  1  1  0  0  0
  5 11  1  1  0  0  0
  5 15  1  0  0  0  0
  6 19  1  0  0  0  0
  7  6  1  0  0  0  0
  9 25  1  0  0  0  0
  9 27  1  0  0  0  0
 10 17  1  0  0  0  0
 11 20  1  0  0  0  0
 12 15  1  0  0  0  0
 12  8  1  0  0  0  0
 13  9  1  0  0  0  0
 14  2  1  0  0  0  0
 15  4  1  0  0  0  0
 16  8  1  0  0  0  0
 17 28  1  0  0  0  0
 17 25  1  0  0  0  0
 18  1  1  0  0  0  0
 19  5  1  0  0  0  0
 20 13  1  0  0  0  0
 20 18  1  0  0  0  0
 21 26  1  0  0  0  0
 22 10  1  0  0  0  0
 23 21  1  0  0  0  0
 24 22  1  0  0  0  0
 24 13  1  0  0  0  0
 25 14  1  0  0  0  0
 27  2  1  0  0  0  0
 29 28  1  0  0  0  0
 30 34  1  0  0  0  0
 30 33  1  0  0  0  0
 32 31  1  0  0  0  0
 32 29  1  0  0  0  0
 33 31  1  0  0  0  0
 34 32  1  0  0  0  0
M  END
>  <MODEL>
7

>  <REMARK>
 VINA RESULT:      -7.9      1.901      2.374
  Name = 
  3 active torsions:
  status: ('A' for Active; 'I' for Inactive)
    1  A    between atoms: C_17  and  O_28
    2  A    between atoms: O_28  and  C_29
    3  A    between atoms: C_29  and  C_32
                            x       y       z     vdW  Elec       q    Type
                         _______ _______ _______ _____ _____    ______ ____

>  <TORSDO>
F 3

$$$$
=
 OpenBabel11112417563D

 34 41  0  0  1  0  0  0  0  0999 V2000
  190.0110  172.8430  142.4620 C   0  0  2  0  0  3  0  0  0  0  0  0
  187.9100  173.9530  141.9780 C   0  0  0  0  0  2  0  0  0  0  0  0
  196.0900  172.4980  145.1460 C   0  0  2  0  0  3  0  0  0  0  0  0
  192.2720  171.8480  143.0250 C   0  0  1  0  0  3  0  0  0  0  0  0
  193.8840  173.2470  144.3790 C   0  0  1  0  0  3  0  0  0  0  0  0
  195.7790  174.8510  145.7670 S   0  0  0  0  0  0  0  0  0  0  0  0
  196.8120  173.3890  146.1280 C   0  0  0  0  0  2  0  0  0  0  0  0
  195.9420  171.0700  142.7640 S   0  0  0  0  0  0  0  0  0  0  0  0
  189.3840  174.8840  143.4110 C   0  0  1  0  0  3  0  0  0  0  0  0
  188.8020  177.6010  145.1520 C   0  0  0  0  0  2  0  0  0  0  0  0
  193.0400  174.4580  143.9950 C   0  0  0  0  0  2  0  0  0  0  0  0
  194.4470  171.0050  143.6380 O   0  0  0  0  0  0  0  0  0  0  0  0
  190.8260  175.2910  143.7360 C   0  0  2  0  0  3  0  0  0  0  0  0
  187.2630  175.2470  142.4680 C   0  0  0  0  0  2  0  0  0  0  0  0
  193.7450  172.1700  143.2830 C   0  0  1  0  0  3  0  0  0  0  0  0
  196.9570  171.7710  144.1360 C   0  0  0  0  0  2  0  0  0  0  0  0
  187.9000  176.4860  144.6010 C   0  0  2  0  0  3  0  0  0  0  0  0
  191.4930  173.1510  142.7670 C   0  0  2  0  0  3  0  0  0  0  0  0
  195.3510  173.6310  144.4870 C   0  0  1  0  0  3  0  0  0  0  0  0
  191.6300  174.0680  143.9200 N   0  0  1  0  0  0  0  0  0  0  0  0
  190.6820  170.6210  141.5210 C   0  0  0  0  0  2  0  0  0  0  0  0
  190.2840  177.5050  144.7790 C   0  0  0  0  0  2  0  0  0  0  0  0
  192.1480  170.9200  141.8160 C   0  0  0  0  0  2  0  0  0  0  0  0
  190.8530  176.1180  145.0260 C   0  0  0  0  0  2  0  0  0  0  0  0
  188.3600  175.9800  143.2290 C   0  0  1  0  0  3  0  0  0  0  0  0
  189.9320  171.9190  141.2430 C   0  0  0  0  0  2  0  0  0  0  0  0
  189.3420  174.1110  142.1880 N   0  0  1  0  0  0  0  0  0  0  0  0
  186.5850  176.9600  144.5500 O   0  0  0  0  0  0  0  0  0  0  0  0
  186.6690  178.2910  144.9670 C   0  0  0  0  0  2  0  0  0  0  0  0
  185.1960  178.0950  142.0720 O   0  0  0  0  0  0  0  0  0  0  0  0
  184.3470  178.6540  144.2020 C   0  0  0  0  0  2  0  0  0  0  0  0
  185.7580  179.1580  144.1150 C   0  0  2  0  0  3  0  0  0  0  0  0
  184.0010  178.2910  142.7790 C   0  0  0  0  0  2  0  0  0  0  0  0
  186.1150  178.9790  142.6560 C   0  0  0  0  0  2  0  0  0  0  0  0
  1 26  1  6  0  0  0
  1 18  1  0  0  0  0
  2 27  1  0  0  0  0
  2 14  1  0  0  0  0
  3 16  1  6  0  0  0
  3  7  1  0  0  0  0
  4 23  1  6  0  0  0
  4 15  1  0  0  0  0
  5 11  1  6  0  0  0
  5 19  1  0  0  0  0
  6  7  1  0  0  0  0
  8 12  1  0  0  0  0
  8 16  1  0  0  0  0
  9 13  1  0  0  0  0
 13 20  1  0  0  0  0
 13 24  1  0  0  0  0
 14 25  1  0  0  0  0
 15 12  1  0  0  0  0
 15  5  1  0  0  0  0
 17 10  1  0  0  0  0
 18  4  1  0  0  0  0
 18 20  1  0  0  0  0
 19  3  1  0  0  0  0
 19  6  1  0  0  0  0
 20 11  1  0  0  0  0
 21 23  1  0  0  0  0
 22 24  1  0  0  0  0
 22 10  1  0  0  0  0
 25  9  1  0  0  0  0
 25 17  1  0  0  0  0
 26 21  1  0  0  0  0
 27  1  1  0  0  0  0
 27  9  1  0  0  0  0
 28 17  1  0  0  0  0
 28 29  1  0  0  0  0
 30 34  1  0  0  0  0
 30 33  1  0  0  0  0
 32 31  1  0  0  0  0
 32 29  1  0  0  0  0
 33 31  1  0  0  0  0
 34 32  1  0  0  0  0
M  END
>  <MODEL>
8

>  <REMARK>
 VINA RESULT:      -7.9      2.780      4.487
  Name = 
  3 active torsions:
  status: ('A' for Active; 'I' for Inactive)
    1  A    between atoms: C_17  and  O_28
    2  A    between atoms: O_28  and  C_29
    3  A    between atoms: C_29  and  C_32
                            x       y       z     vdW  Elec       q    Type
                         _______ _______ _______ _____ _____    ______ ____

>  <TORSDO>
F 3

$$$$
=
 OpenBabel11112417563D

 34 41  0  0  1  0  0  0  0  0999 V2000
  188.5120  174.3530  140.7710 C   0  0  2  0  0  3  0  0  0  0  0  0
  187.3060  176.4550  140.7960 C   0  0  0  0  0  2  0  0  0  0  0  0
  192.8710  169.9520  143.2040 C   0  0  2  0  0  3  0  0  0  0  0  0
  189.8840  172.2240  140.8780 C   0  0  1  0  0  3  0  0  0  0  0  0
  191.4980  171.9440  142.8040 C   0  0  1  0  0  3  0  0  0  0  0  0
  193.4340  171.6650  144.8680 S   0  0  0  0  0  0  0  0  0  0  0  0
  193.6030  169.8800  144.5230 C   0  0  0  0  0  2  0  0  0  0  0  0
  192.7890  169.8800  140.4260 S   0  0  0  0  0  0  0  0  0  0  0  0
  188.5800  175.8550  142.5590 C   0  0  1  0  0  3  0  0  0  0  0  0
  188.7560  177.5380  145.3680 C   0  0  0  0  0  2  0  0  0  0  0  0
  191.3910  173.4510  143.0160 C   0  0  0  0  0  2  0  0  0  0  0  0
  191.2320  170.2370  141.0980 O   0  0  0  0  0  0  0  0  0  0  0  0
  189.9070  175.3100  143.0990 C   0  0  2  0  0  3  0  0  0  0  0  0
  187.1630  177.5790  141.8210 C   0  0  0  0  0  2  0  0  0  0  0  0
  191.2210  171.6260  141.3200 C   0  0  1  0  0  3  0  0  0  0  0  0
  193.5870  169.3590  142.0060 C   0  0  0  0  0  2  0  0  0  0  0  0
  187.6550  177.3580  144.3120 C   0  0  2  0  0  3  0  0  0  0  0  0
  189.8380  173.7190  141.2480 C   0  0  2  0  0  3  0  0  0  0  0  0
  192.8970  171.4560  143.1430 C   0  0  1  0  0  3  0  0  0  0  0  0
  190.0300  173.8930  142.7040 N   0  0  1  0  0  0  0  0  0  0  0  0
  188.4040  172.6850  138.9050 C   0  0  0  0  0  2  0  0  0  0  0  0
  190.0960  176.8650  145.0560 C   0  0  0  0  0  2  0  0  0  0  0  0
  189.7140  172.0570  139.3680 C   0  0  0  0  0  2  0  0  0  0  0  0
  189.9280  175.4170  144.6270 C   0  0  0  0  0  2  0  0  0  0  0  0
  188.2130  177.2840  142.8860 C   0  0  1  0  0  3  0  0  0  0  0  0
  188.3860  174.1690  139.2560 C   0  0  0  0  0  2  0  0  0  0  0  0
  188.5500  175.7710  141.1150 N   0  0  1  0  0  0  0  0  0  0  0  0
  186.7370  178.4050  144.4410 O   0  0  0  0  0  0  0  0  0  0  0  0
  185.4870  177.7800  144.4880 C   0  0  0  0  0  2  0  0  0  0  0  0
  186.1110  177.0400  147.5940 O   0  0  0  0  0  0  0  0  0  0  0  0
  185.5770  179.1000  146.5760 C   0  0  0  0  0  2  0  0  0  0  0  0
  184.8440  178.0130  145.8440 C   0  0  2  0  0  3  0  0  0  0  0  0
  186.0810  178.4220  147.8260 C   0  0  0  0  0  2  0  0  0  0  0  0
  185.0480  176.7930  146.7130 C   0  0  0  0  0  2  0  0  0  0  0  0
  1 26  1  6  0  0  0
  1 27  1  0  0  0  0
  1 18  1  0  0  0  0
  2 27  1  0  0  0  0
  2 14  1  0  0  0  0
  3 16  1  6  0  0  0
  3  7  1  0  0  0  0
  4 23  1  6  0  0  0
  4 18  1  0  0  0  0
  4 15  1  0  0  0  0
  5 11  1  6  0  0  0
  5 19  1  0  0  0  0
  7  6  1  0  0  0  0
  8 12  1  0  0  0  0
  8 16  1  0  0  0  0
  9 25  1  0  0  0  0
  9 13  1  0  0  0  0
 12 15  1  0  0  0  0
 13 24  1  0  0  0  0
 14 25  1  0  0  0  0
 15  5  1  0  0  0  0
 17 28  1  0  0  0  0
 17 10  1  0  0  0  0
 18 20  1  0  0  0  0
 19  3  1  0  0  0  0
 19  6  1  0  0  0  0
 20 11  1  0  0  0  0
 20 13  1  0  0  0  0
 21 26  1  0  0  0  0
 21 23  1  0  0  0  0
 22 10  1  0  0  0  0
 24 22  1  0  0  0  0
 25 17  1  0  0  0  0
 27  9  1  0  0  0  0
 28 29  1  0  0  0  0
 29 32  1  0  0  0  0
 30 33  1  0  0  0  0
 31 33  1  0  0  0  0
 32 31  1  0  0  0  0
 32 34  1  0  0  0  0
 34 30  1  0  0  0  0
M  END
>  <MODEL>
9

>  <REMARK>
 VINA RESULT:      -7.7      3.463      5.292
  Name = 
  3 active torsions:
  status: ('A' for Active; 'I' for Inactive)
    1  A    between atoms: C_17  and  O_28
    2  A    between atoms: O_28  and  C_29
    3  A    between atoms: C_29  and  C_32
                            x       y       z     vdW  Elec       q    Type
                         _______ _______ _______ _____ _____    ______ ____

>  <TORSDO>
F 3

$$$$
