=
 OpenBabel11112416213D

 30 35  0  0  1  0  0  0  0  0999 V2000
  186.3370  177.3570  143.6920 C   0  0  0  0  0  0  0  0  0  0  0  0
  184.6480  178.5080  145.2030 C   0  0  0  0  0  0  0  0  0  0  0  0
  188.5380  176.0540  147.0130 N   0  0  0  0  0  2  0  0  0  0  0  0
  187.5420  176.5900  143.5740 C   0  0  0  0  0  0  0  0  0  0  0  0
  185.6590  177.7030  142.5180 C   0  0  0  0  0  3  0  0  0  0  0  0
  187.6860  176.1130  139.8880 O   0  0  0  0  0  1  0  0  0  0  0  0
  190.4530  175.8930  142.6040 C   0  0  1  0  0  3  0  0  0  0  0  0
  187.2560  176.5250  141.1480 C   0  0  0  0  0  0  0  0  0  0  0  0
  190.6630  175.8940  144.1110 C   0  0  2  0  0  3  0  0  0  0  0  0
  189.6330  175.3430  146.3540 C   0  0  1  0  0  3  0  0  0  0  0  0
  186.1050  177.3070  141.2620 C   0  0  0  0  0  0  0  0  0  0  0  0
  187.9740  176.1510  142.2940 C   0  0  0  0  0  0  0  0  0  0  0  0
  184.2250  178.7940  146.5050 C   0  0  0  0  0  3  0  0  0  0  0  0
  191.7700  174.8840  144.3290 C   0  0  0  0  0  2  0  0  0  0  0  0
  191.6580  175.1730  142.0260 C   0  0  0  0  0  2  0  0  0  0  0  0
  183.6200  179.1840  143.9410 Cl  0  0  0  0  0  0  0  0  0  0  0  0
  187.7200  176.5680  145.9780 C   0  0  0  0  0  0  0  0  0  0  0  0
  184.9380  178.3430  147.6100 C   0  0  0  0  0  3  0  0  0  0  0  0
  185.8340  177.7350  144.9860 C   0  0  0  0  0  0  0  0  0  0  0  0
  188.2310  176.2660  144.7570 C   0  0  0  0  0  0  0  0  0  0  0  0
  189.5200  173.8590  146.6530 C   0  0  0  0  0  1  0  0  0  0  0  0
  189.4730  175.5710  144.9080 N   0  0  0  0  0  0  0  0  0  0  0  0
  192.5740  174.8610  143.1170 N   0  0  0  0  0  2  0  0  0  0  0  0
  188.9090  173.8290  142.5860 C   0  0  0  0  0  1  0  0  0  0  0  0
  186.0970  177.6000  147.4280 C   0  0  0  0  0  3  0  0  0  0  0  0
  186.5490  177.2980  146.1400 C   0  0  0  0  0  0  0  0  0  0  0  0
  189.1620  175.2540  142.1010 C   0  0  2  0  0  3  0  0  0  0  0  0
  185.3400  177.7330  140.0540 C   0  0  0  0  0  2  0  0  0  0  0  0
  182.9630  177.7500  140.0720 O   0  0  0  0  0  1  0  0  0  0  0  0
  184.0830  178.4780  140.4660 C   0  0  0  0  0  2  0  0  0  0  0  0
  1 19  1  0  0  0  0
  2 13  1  0  0  0  0
  4  1  1  0  0  0  0
  4 20  1  0  0  0  0
  5  1  2  0  0  0  0
  6  8  1  0  0  0  0
  7 15  1  6  0  0  0
  7  9  1  0  0  0  0
  8 11  2  0  0  0  0
  8 12  1  0  0  0  0
  9 14  1  6  0  0  0
  9 22  1  0  0  0  0
 10 21  1  6  0  0  0
 10  3  1  0  0  0  0
 11  5  1  0  0  0  0
 12  4  2  0  0  0  0
 13 18  2  0  0  0  0
 15 23  1  0  0  0  0
 16  2  1  0  0  0  0
 17 26  1  0  0  0  0
 17  3  1  0  0  0  0
 19  2  2  0  0  0  0
 19 26  1  0  0  0  0
 20 22  1  0  0  0  0
 20 17  2  0  0  0  0
 22 10  1  0  0  0  0
 23 14  1  0  0  0  0
 25 18  1  0  0  0  0
 26 25  2  0  0  0  0
 27 12  1  0  0  0  0
 27 24  1  1  0  0  0
 27  7  1  0  0  0  0
 28 30  1  0  0  0  0
 28 11  1  0  0  0  0
 29 30  1  0  0  0  0
M  END
>  <MODEL>
1

>  <REMARK>
 VINA RESULT:      -8.9      0.000      0.000
  Name = 
  2 active torsions:
  status: ('A' for Active; 'I' for Inactive)
    1  A    between atoms: C_11  and  C_28
    2  A    between atoms: C_28  and  C_30
                            x       y       z     vdW  Elec       q    Type
                         _______ _______ _______ _____ _____    ______ ____

>  <TORSDO>
F 2

$$$$
=
 OpenBabel11112416213D

 30 35  0  0  1  0  0  0  0  0999 V2000
  188.5170  177.1370  146.1820 C   0  0  0  0  0  0  0  0  0  0  0  0
  186.6130  178.4480  147.2370 C   0  0  0  0  0  0  0  0  0  0  0  0
  186.2070  176.3730  142.7690 N   0  0  0  0  0  2  0  0  0  0  0  0
  188.9990  176.3650  145.0740 C   0  0  0  0  0  0  0  0  0  0  0  0
  189.3890  177.3650  147.2520 C   0  0  0  0  0  3  0  0  0  0  0  0
  192.4960  175.7200  146.1620 O   0  0  0  0  0  1  0  0  0  0  0  0
  190.2390  173.8840  143.5900 C   0  0  1  0  0  3  0  0  0  0  0  0
  191.1790  176.1740  146.1610 C   0  0  0  0  0  0  0  0  0  0  0  0
  188.9030  173.9900  142.8690 C   0  0  2  0  0  3  0  0  0  0  0  0
  187.1400  175.5700  141.9800 C   0  0  1  0  0  3  0  0  0  0  0  0
  190.6960  176.8910  147.2580 C   0  0  0  0  0  0  0  0  0  0  0  0
  190.3460  175.9160  145.0620 C   0  0  0  0  0  0  0  0  0  0  0  0
  185.3160  178.9580  147.1160 C   0  0  0  0  0  3  0  0  0  0  0  0
  189.1950  173.4710  141.4760 C   0  0  0  0  0  2  0  0  0  0  0  0
  191.1070  173.0030  142.7090 C   0  0  0  0  0  2  0  0  0  0  0  0
  187.4040  178.8320  148.7640 Cl  0  0  0  0  0  0  0  0  0  0  0  0
  186.8750  176.6830  143.9780 C   0  0  0  0  0  0  0  0  0  0  0  0
  184.5540  178.7280  145.9760 C   0  0  0  0  0  3  0  0  0  0  0  0
  187.1840  177.6760  146.1740 C   0  0  0  0  0  0  0  0  0  0  0  0
  188.1090  176.1180  144.0130 C   0  0  0  0  0  0  0  0  0  0  0  0
  187.5510  176.3490  140.7430 C   0  0  0  0  0  1  0  0  0  0  0  0
  188.3180  175.3360  142.8320 N   0  0  0  0  0  0  0  0  0  0  0  0
  190.3000  172.5320  141.5900 N   0  0  0  0  0  2  0  0  0  0  0  0
  191.1680  176.1130  142.6880 C   0  0  0  0  0  1  0  0  0  0  0  0
  185.0800  177.9750  144.9340 C   0  0  0  0  0  3  0  0  0  0  0  0
  186.3720  177.4490  145.0240 C   0  0  0  0  0  0  0  0  0  0  0  0
  190.9530  175.1990  143.8910 C   0  0  2  0  0  3  0  0  0  0  0  0
  191.5590  177.1570  148.4450 C   0  0  0  0  0  2  0  0  0  0  0  0
  191.5380  178.2620  150.5500 O   0  0  0  0  0  1  0  0  0  0  0  0
  190.9710  178.2820  149.2780 C   0  0  0  0  0  2  0  0  0  0  0  0
  1  5  1  0  0  0  0
  2 16  1  0  0  0  0
  3 17  1  0  0  0  0
  4  1  2  0  0  0  0
  5 11  2  0  0  0  0
  7 15  1  6  0  0  0
  7 27  1  0  0  0  0
  8  6  1  0  0  0  0
  8 11  1  0  0  0  0
  9 14  1  6  0  0  0
  9  7  1  0  0  0  0
 10 21  1  6  0  0  0
 10  3  1  0  0  0  0
 10 22  1  0  0  0  0
 11 28  1  0  0  0  0
 12  4  1  0  0  0  0
 12  8  2  0  0  0  0
 13  2  1  0  0  0  0
 14 23  1  0  0  0  0
 17 20  2  0  0  0  0
 17 26  1  0  0  0  0
 18 13  2  0  0  0  0
 19  1  1  0  0  0  0
 19  2  2  0  0  0  0
 20  4  1  0  0  0  0
 22  9  1  0  0  0  0
 22 20  1  0  0  0  0
 23 15  1  0  0  0  0
 25 26  2  0  0  0  0
 25 18  1  0  0  0  0
 26 19  1  0  0  0  0
 27 24  1  6  0  0  0
 27 12  1  0  0  0  0
 28 30  1  0  0  0  0
 30 29  1  0  0  0  0
M  END
>  <MODEL>
2

>  <REMARK>
 VINA RESULT:      -8.5      3.320      5.404
  Name = 
  2 active torsions:
  status: ('A' for Active; 'I' for Inactive)
    1  A    between atoms: C_11  and  C_28
    2  A    between atoms: C_28  and  C_30
                            x       y       z     vdW  Elec       q    Type
                         _______ _______ _______ _____ _____    ______ ____

>  <TORSDO>
F 2

$$$$
=
 OpenBabel11112416213D

 30 35  0  0  1  0  0  0  0  0999 V2000
  188.5560  176.0860  143.7350 C   0  0  0  0  0  0  0  0  0  0  0  0
  186.2910  177.1090  144.2640 C   0  0  0  0  0  0  0  0  0  0  0  0
  189.9960  177.1120  147.5350 N   0  0  0  0  0  2  0  0  0  0  0  0
  189.8940  175.8000  144.1630 C   0  0  0  0  0  0  0  0  0  0  0  0
  188.1690  175.6610  142.4600 C   0  0  0  0  0  3  0  0  0  0  0  0
  191.1640  173.9180  141.2160 O   0  0  0  0  0  1  0  0  0  0  0  0
  193.0380  175.8000  144.0500 C   0  0  1  0  0  3  0  0  0  0  0  0
  190.3160  174.6420  142.0530 C   0  0  0  0  0  0  0  0  0  0  0  0
  192.8160  176.4970  145.3840 C   0  0  2  0  0  3  0  0  0  0  0  0
  191.3680  176.6120  147.4530 C   0  0  1  0  0  3  0  0  0  0  0  0
  189.0260  174.9570  141.6210 C   0  0  0  0  0  0  0  0  0  0  0  0
  190.7560  175.0450  143.3230 C   0  0  0  0  0  0  0  0  0  0  0  0
  185.4680  177.7460  145.1980 C   0  0  0  0  0  3  0  0  0  0  0  0
  194.0280  176.1120  146.2060 C   0  0  0  0  0  2  0  0  0  0  0  0
  194.4920  175.3630  144.0570 C   0  0  0  0  0  2  0  0  0  0  0  0
  185.5230  176.8070  142.7070 Cl  0  0  0  0  0  0  0  0  0  0  0  0
  189.3990  176.8390  146.2820 C   0  0  0  0  0  0  0  0  0  0  0  0
  185.9330  178.0660  146.4690 C   0  0  0  0  0  3  0  0  0  0  0  0
  187.6400  176.7710  144.6070 C   0  0  0  0  0  0  0  0  0  0  0  0
  190.2850  176.2510  145.4370 C   0  0  0  0  0  0  0  0  0  0  0  0
  191.5340  175.4440  148.4100 C   0  0  0  0  0  1  0  0  0  0  0  0
  191.5650  176.1500  146.0690 N   0  0  0  0  0  0  0  0  0  0  0  0
  195.1170  175.8630  145.2760 N   0  0  0  0  0  2  0  0  0  0  0  0
  192.1000  173.5250  144.8160 C   0  0  0  0  0  1  0  0  0  0  0  0
  187.2390  177.7580  146.8240 C   0  0  0  0  0  3  0  0  0  0  0  0
  188.0890  177.1230  145.9130 C   0  0  0  0  0  0  0  0  0  0  0  0
  192.1290  174.6120  143.7460 C   0  0  2  0  0  3  0  0  0  0  0  0
  188.5470  174.5560  140.2660 C   0  0  0  0  0  2  0  0  0  0  0  0
  188.1270  172.6150  138.9590 O   0  0  0  0  0  1  0  0  0  0  0  0
  188.1410  173.0930  140.2670 C   0  0  0  0  0  2  0  0  0  0  0  0
  1  4  1  0  0  0  0
  1 19  1  0  0  0  0
  2 19  2  0  0  0  0
  2 13  1  0  0  0  0
  4 20  1  0  0  0  0
  5  1  2  0  0  0  0
  6  8  1  0  0  0  0
  7 15  1  1  0  0  0
  7  9  1  0  0  0  0
  8 12  1  0  0  0  0
  9 22  1  0  0  0  0
  9 14  1  1  0  0  0
 10  3  1  0  0  0  0
 10 21  1  1  0  0  0
 11  8  2  0  0  0  0
 11  5  1  0  0  0  0
 12 27  1  0  0  0  0
 12  4  2  0  0  0  0
 13 18  2  0  0  0  0
 15 23  1  0  0  0  0
 16  2  1  0  0  0  0
 17  3  1  0  0  0  0
 18 25  1  0  0  0  0
 19 26  1  0  0  0  0
 20 22  1  0  0  0  0
 20 17  2  0  0  0  0
 22 10  1  0  0  0  0
 23 14  1  0  0  0  0
 26 17  1  0  0  0  0
 26 25  2  0  0  0  0
 27  7  1  0  0  0  0
 27 24  1  1  0  0  0
 28 30  1  0  0  0  0
 28 11  1  0  0  0  0
 29 30  1  0  0  0  0
M  END
>  <MODEL>
3

>  <REMARK>
 VINA RESULT:      -8.0      2.473      3.374
  Name = 
  2 active torsions:
  status: ('A' for Active; 'I' for Inactive)
    1  A    between atoms: C_11  and  C_28
    2  A    between atoms: C_28  and  C_30
                            x       y       z     vdW  Elec       q    Type
                         _______ _______ _______ _____ _____    ______ ____

>  <TORSDO>
F 2

$$$$
=
 OpenBabel11112416213D

 30 35  0  0  1  0  0  0  0  0999 V2000
  188.0120  175.9700  142.0530 C   0  0  0  0  0  0  0  0  0  0  0  0
  186.2400  177.7850  141.8970 C   0  0  0  0  0  0  0  0  0  0  0  0
  188.6880  176.8640  146.0920 N   0  0  0  0  0  2  0  0  0  0  0  0
  188.9850  175.2800  142.8500 C   0  0  0  0  0  0  0  0  0  0  0  0
  187.8410  175.5600  140.7260 C   0  0  0  0  0  3  0  0  0  0  0  0
  190.1790  172.7340  140.4160 O   0  0  0  0  0  1  0  0  0  0  0  0
  191.8130  174.1530  143.6410 C   0  0  1  0  0  3  0  0  0  0  0  0
  189.4770  173.8050  140.9650 C   0  0  0  0  0  0  0  0  0  0  0  0
  191.5280  175.0370  144.8460 C   0  0  2  0  0  3  0  0  0  0  0  0
  189.7430  175.9040  146.4130 C   0  0  1  0  0  3  0  0  0  0  0  0
  188.5590  174.5040  140.1780 C   0  0  0  0  0  0  0  0  0  0  0  0
  189.6880  174.1750  142.3020 C   0  0  0  0  0  0  0  0  0  0  0  0
  185.5030  178.7790  142.5480 C   0  0  0  0  0  3  0  0  0  0  0  0
  192.2480  174.3480  145.9860 C   0  0  0  0  0  2  0  0  0  0  0  0
  192.9420  173.2320  144.0710 C   0  0  0  0  0  2  0  0  0  0  0  0
  185.8500  177.5910  140.1900 Cl  0  0  0  0  0  0  0  0  0  0  0  0
  188.3800  176.6730  144.7230 C   0  0  0  0  0  0  0  0  0  0  0  0
  185.7060  179.0630  143.8940 C   0  0  0  0  0  3  0  0  0  0  0  0
  187.2260  177.0340  142.6160 C   0  0  0  0  0  0  0  0  0  0  0  0
  189.1690  175.7130  144.1760 C   0  0  0  0  0  0  0  0  0  0  0  0
  189.2050  174.8770  147.3930 C   0  0  0  0  0  1  0  0  0  0  0  0
  190.1060  175.2410  145.1500 N   0  0  0  0  0  0  0  0  0  0  0  0
  193.3670  173.6200  145.4100 N   0  0  0  0  0  2  0  0  0  0  0  0
  189.9270  172.4670  144.1390 C   0  0  0  0  0  1  0  0  0  0  0  0
  186.6610  178.3560  144.6120 C   0  0  0  0  0  3  0  0  0  0  0  0
  187.4170  177.3570  143.9920 C   0  0  0  0  0  0  0  0  0  0  0  0
  190.6390  173.3370  143.1070 C   0  0  2  0  0  3  0  0  0  0  0  0
  188.3360  174.1400  138.7480 C   0  0  0  0  0  2  0  0  0  0  0  0
  187.8570  175.2530  136.7030 O   0  0  0  0  0  1  0  0  0  0  0  0
  187.5220  175.2170  138.0550 C   0  0  0  0  0  2  0  0  0  0  0  0
  1 19  2  0  0  0  0
  1  4  1  0  0  0  0
  2 13  2  0  0  0  0
  2 19  1  0  0  0  0
  3 10  1  0  0  0  0
  4 20  2  0  0  0  0
  5  1  1  0  0  0  0
  6  8  1  0  0  0  0
  7 15  1  1  0  0  0
  7  9  1  0  0  0  0
  8 12  2  0  0  0  0
  9 22  1  0  0  0  0
  9 14  1  1  0  0  0
 10 21  1  1  0  0  0
 11  5  2  0  0  0  0
 11  8  1  0  0  0  0
 12  4  1  0  0  0  0
 12 27  1  0  0  0  0
 13 18  1  0  0  0  0
 15 23  1  0  0  0  0
 16  2  1  0  0  0  0
 17  3  1  0  0  0  0
 18 25  2  0  0  0  0
 19 26  1  0  0  0  0
 20 17  1  0  0  0  0
 20 22  1  0  0  0  0
 22 10  1  0  0  0  0
 23 14  1  0  0  0  0
 26 25  1  0  0  0  0
 26 17  2  0  0  0  0
 27  7  1  0  0  0  0
 27 24  1  1  0  0  0
 28 11  1  0  0  0  0
 29 30  1  0  0  0  0
 30 28  1  0  0  0  0
M  END
>  <MODEL>
4

>  <REMARK>
 VINA RESULT:      -8.0      2.244      3.204
  Name = 
  2 active torsions:
  status: ('A' for Active; 'I' for Inactive)
    1  A    between atoms: C_11  and  C_28
    2  A    between atoms: C_28  and  C_30
                            x       y       z     vdW  Elec       q    Type
                         _______ _______ _______ _____ _____    ______ ____

>  <TORSDO>
F 2

$$$$
=
 OpenBabel11112416213D

 30 35  0  0  1  0  0  0  0  0999 V2000
  187.9960  176.1650  142.1050 C   0  0  0  0  0  0  0  0  0  0  0  0
  186.2040  177.1660  140.6060 C   0  0  0  0  0  0  0  0  0  0  0  0
  186.5130  178.2650  145.4150 N   0  0  0  0  0  2  0  0  0  0  0  0
  188.5880  176.0800  143.4080 C   0  0  0  0  0  0  0  0  0  0  0  0
  188.5480  175.3870  141.0810 C   0  0  0  0  0  3  0  0  0  0  0  0
  191.2350  173.5410  142.7910 O   0  0  0  0  0  1  0  0  0  0  0  0
  190.8650  176.2240  145.5750 C   0  0  1  0  0  3  0  0  0  0  0  0
  190.1730  174.4170  142.5750 C   0  0  0  0  0  0  0  0  0  0  0  0
  189.8880  177.2450  146.1400 C   0  0  2  0  0  3  0  0  0  0  0  0
  187.4500  177.8380  146.4540 C   0  0  1  0  0  3  0  0  0  0  0  0
  189.6220  174.5310  141.2970 C   0  0  0  0  0  0  0  0  0  0  0  0
  189.6580  175.1740  143.6380 C   0  0  0  0  0  0  0  0  0  0  0  0
  185.0780  177.9860  140.4930 C   0  0  0  0  0  3  0  0  0  0  0  0
  190.1010  177.1660  147.6380 C   0  0  0  0  0  2  0  0  0  0  0  0
  191.8080  175.8870  146.7160 C   0  0  0  0  0  2  0  0  0  0  0  0
  186.7060  176.4090  139.0960 Cl  0  0  0  0  0  0  0  0  0  0  0  0
  186.9270  177.6270  144.2210 C   0  0  0  0  0  0  0  0  0  0  0  0
  184.5670  178.6660  141.5930 C   0  0  0  0  0  3  0  0  0  0  0  0
  186.8550  177.0090  141.8730 C   0  0  0  0  0  0  0  0  0  0  0  0
  188.0430  176.8830  144.4270 C   0  0  0  0  0  0  0  0  0  0  0  0
  186.7160  176.9860  147.4730 C   0  0  0  0  0  1  0  0  0  0  0  0
  188.4810  177.0290  145.7830 N   0  0  0  0  0  0  0  0  0  0  0  0
  191.4730  176.7340  147.8550 N   0  0  0  0  0  2  0  0  0  0  0  0
  189.3160  174.1960  145.9350 C   0  0  0  0  0  1  0  0  0  0  0  0
  185.1840  178.5380  142.8310 C   0  0  0  0  0  3  0  0  0  0  0  0
  186.3130  177.7280  142.9780 C   0  0  0  0  0  0  0  0  0  0  0  0
  190.2540  174.9500  144.9970 C   0  0  2  0  0  3  0  0  0  0  0  0
  190.1690  173.7500  140.1500 C   0  0  0  0  0  2  0  0  0  0  0  0
  188.4590  172.4660  139.1100 O   0  0  0  0  0  1  0  0  0  0  0  0
  189.1450  173.6770  139.0320 C   0  0  0  0  0  2  0  0  0  0  0  0
  1  4  1  0  0  0  0
  2 19  1  0  0  0  0
  3 10  1  0  0  0  0
  4 12  1  0  0  0  0
  4 20  2  0  0  0  0
  5 11  2  0  0  0  0
  5  1  1  0  0  0  0
  7  9  1  0  0  0  0
  7 15  1  1  0  0  0
  8  6  1  0  0  0  0
  8 12  2  0  0  0  0
  9 14  1  1  0  0  0
 10 21  1  1  0  0  0
 11  8  1  0  0  0  0
 12 27  1  0  0  0  0
 13  2  2  0  0  0  0
 13 18  1  0  0  0  0
 14 23  1  0  0  0  0
 15 23  1  0  0  0  0
 16  2  1  0  0  0  0
 17 20  1  0  0  0  0
 17  3  1  0  0  0  0
 18 25  2  0  0  0  0
 19  1  2  0  0  0  0
 19 26  1  0  0  0  0
 20 22  1  0  0  0  0
 22  9  1  0  0  0  0
 22 10  1  0  0  0  0
 25 26  1  0  0  0  0
 26 17  2  0  0  0  0
 27  7  1  0  0  0  0
 27 24  1  1  0  0  0
 28 11  1  0  0  0  0
 30 29  1  0  0  0  0
 30 28  1  0  0  0  0
M  END
>  <MODEL>
5

>  <REMARK>
 VINA RESULT:      -7.4      2.556      4.401
  Name = 
  2 active torsions:
  status: ('A' for Active; 'I' for Inactive)
    1  A    between atoms: C_11  and  C_28
    2  A    between atoms: C_28  and  C_30
                            x       y       z     vdW  Elec       q    Type
                         _______ _______ _______ _____ _____    ______ ____

>  <TORSDO>
F 2

$$$$
=
 OpenBabel11112416213D

 30 35  0  0  1  0  0  0  0  0999 V2000
  187.9860  175.6780  141.7150 C   0  0  0  0  0  0  0  0  0  0  0  0
  189.7100  173.8830  141.2000 C   0  0  0  0  0  0  0  0  0  0  0  0
  188.8890  175.4850  145.8030 N   0  0  0  0  0  2  0  0  0  0  0  0
  187.3210  176.4830  142.6970 C   0  0  0  0  0  0  0  0  0  0  0  0
  187.6350  175.8540  140.3730 C   0  0  0  0  0  3  0  0  0  0  0  0
  185.1410  178.5590  140.5130 O   0  0  0  0  0  1  0  0  0  0  0  0
  184.8970  177.6980  144.2920 C   0  0  1  0  0  3  0  0  0  0  0  0
  186.0710  177.6060  140.9230 C   0  0  0  0  0  0  0  0  0  0  0  0
  185.6640  177.0380  145.4280 C   0  0  2  0  0  3  0  0  0  0  0  0
  187.9540  176.4740  146.3380 C   0  0  1  0  0  3  0  0  0  0  0  0
  186.6900  176.7920  139.9710 C   0  0  0  0  0  0  0  0  0  0  0  0
  186.3870  177.4690  142.2830 C   0  0  0  0  0  0  0  0  0  0  0  0
  190.7050  173.0240  141.6780 C   0  0  0  0  0  3  0  0  0  0  0  0
  185.3570  177.9040  146.6320 C   0  0  0  0  0  2  0  0  0  0  0  0
  183.9350  178.6660  144.9590 C   0  0  0  0  0  2  0  0  0  0  0  0
  189.4400  173.7840  139.4610 Cl  0  0  0  0  0  0  0  0  0  0  0  0
  188.6650  175.4410  144.4070 C   0  0  0  0  0  0  0  0  0  0  0  0
  191.0260  172.9740  143.0300 C   0  0  0  0  0  3  0  0  0  0  0  0
  189.0000  174.7360  142.1060 C   0  0  0  0  0  0  0  0  0  0  0  0
  187.6620  176.2830  144.0470 C   0  0  0  0  0  0  0  0  0  0  0  0
  188.7330  177.6600  146.8770 C   0  0  0  0  0  1  0  0  0  0  0  0
  187.1100  176.9050  145.2120 N   0  0  0  0  0  0  0  0  0  0  0  0
  184.0540  178.5100  146.4040 N   0  0  0  0  0  2  0  0  0  0  0  0
  186.7040  179.4650  143.7880 C   0  0  0  0  0  1  0  0  0  0  0  0
  190.3470  173.7840  143.9310 C   0  0  0  0  0  3  0  0  0  0  0  0
  189.3450  174.6510  143.4870 C   0  0  0  0  0  0  0  0  0  0  0  0
  185.7340  178.4220  143.2410 C   0  0  2  0  0  3  0  0  0  0  0  0
  186.3520  176.9080  138.5220 C   0  0  0  0  0  2  0  0  0  0  0  0
  186.7840  175.9810  136.3760 O   0  0  0  0  0  1  0  0  0  0  0  0
  187.0650  175.8250  137.7320 C   0  0  0  0  0  2  0  0  0  0  0  0
  1 19  2  0  0  0  0
  1  4  1  0  0  0  0
  2 13  2  0  0  0  0
  2 19  1  0  0  0  0
  3 10  1  0  0  0  0
  4 20  2  0  0  0  0
  5  1  1  0  0  0  0
  6  8  1  0  0  0  0
  7 15  1  1  0  0  0
  7  9  1  0  0  0  0
  8 12  2  0  0  0  0
  9 14  1  1  0  0  0
 10 21  1  6  0  0  0
 11  5  2  0  0  0  0
 11  8  1  0  0  0  0
 12  4  1  0  0  0  0
 12 27  1  0  0  0  0
 13 18  1  0  0  0  0
 15 23  1  0  0  0  0
 16  2  1  0  0  0  0
 17  3  1  0  0  0  0
 18 25  2  0  0  0  0
 19 26  1  0  0  0  0
 20 17  1  0  0  0  0
 20 22  1  0  0  0  0
 22  9  1  0  0  0  0
 22 10  1  0  0  0  0
 23 14  1  0  0  0  0
 26 25  1  0  0  0  0
 26 17  2  0  0  0  0
 27 24  1  1  0  0  0
 27  7  1  0  0  0  0
 28 11  1  0  0  0  0
 29 30  1  0  0  0  0
 30 28  1  0  0  0  0
M  END
>  <MODEL>
6

>  <REMARK>
 VINA RESULT:      -7.4      2.509      5.543
  Name = 
  2 active torsions:
  status: ('A' for Active; 'I' for Inactive)
    1  A    between atoms: C_11  and  C_28
    2  A    between atoms: C_28  and  C_30
                            x       y       z     vdW  Elec       q    Type
                         _______ _______ _______ _____ _____    ______ ____

>  <TORSDO>
F 2

$$$$
=
 OpenBabel11112416213D

 30 35  0  0  1  0  0  0  0  0999 V2000
  189.1140  176.2440  144.9500 C   0  0  0  0  0  0  0  0  0  0  0  0
  190.3200  176.8900  147.0910 C   0  0  0  0  0  0  0  0  0  0  0  0
  191.9980  173.3190  144.1140 N   0  0  0  0  0  2  0  0  0  0  0  0
  189.0700  175.4210  143.7760 C   0  0  0  0  0  0  0  0  0  0  0  0
  188.0750  177.1590  145.1500 C   0  0  0  0  0  3  0  0  0  0  0  0
  185.8580  176.5470  142.2750 O   0  0  0  0  0  1  0  0  0  0  0  0
  188.9250  174.7550  140.7050 C   0  0  1  0  0  3  0  0  0  0  0  0
  186.9420  176.4430  143.1450 C   0  0  0  0  0  0  0  0  0  0  0  0
  190.2400  174.0800  141.0670 C   0  0  2  0  0  3  0  0  0  0  0  0
  191.4970  172.7940  142.8450 C   0  0  1  0  0  3  0  0  0  0  0  0
  187.0070  177.2730  144.2670 C   0  0  0  0  0  0  0  0  0  0  0  0
  187.9580  175.5080  142.8970 C   0  0  0  0  0  0  0  0  0  0  0  0
  191.3830  176.6560  147.9690 C   0  0  0  0  0  3  0  0  0  0  0  0
  190.3300  172.9130  140.1050 C   0  0  0  0  0  2  0  0  0  0  0  0
  188.5240  174.1700  139.3630 C   0  0  0  0  0  2  0  0  0  0  0  0
  189.2420  178.1930  147.5880 Cl  0  0  0  0  0  0  0  0  0  0  0  0
  191.1040  174.3470  144.4990 C   0  0  0  0  0  0  0  0  0  0  0  0
  192.3290  175.6700  147.7090 C   0  0  0  0  0  3  0  0  0  0  0  0
  190.1860  176.1080  145.8990 C   0  0  0  0  0  0  0  0  0  0  0  0
  190.1300  174.5190  143.5690 C   0  0  0  0  0  0  0  0  0  0  0  0
  191.0310  171.3630  143.0420 C   0  0  0  0  0  1  0  0  0  0  0  0
  190.3540  173.6400  142.4620 N   0  0  0  0  0  0  0  0  0  0  0  0
  189.5880  173.2820  138.9110 N   0  0  0  0  0  2  0  0  0  0  0  0
  187.4550  173.1690  142.1070 C   0  0  0  0  0  1  0  0  0  0  0  0
  192.2270  174.9030  146.5560 C   0  0  0  0  0  3  0  0  0  0  0  0
  191.1790  175.1130  145.6560 C   0  0  0  0  0  0  0  0  0  0  0  0
  187.7870  174.6040  141.7110 C   0  0  2  0  0  3  0  0  0  0  0  0
  185.9480  178.2890  144.5370 C   0  0  0  0  0  2  0  0  0  0  0  0
  183.9760  178.6920  145.8020 O   0  0  0  0  0  1  0  0  0  0  0  0
  185.0650  177.8310  145.6830 C   0  0  0  0  0  2  0  0  0  0  0  0
  1  5  1  0  0  0  0
  1 19  1  0  0  0  0
  2 16  1  0  0  0  0
  2 13  1  0  0  0  0
  3 17  1  0  0  0  0
  4  1  2  0  0  0  0
  6  8  1  0  0  0  0
  7 15  1  6  0  0  0
  7  9  1  0  0  0  0
  7 27  1  0  0  0  0
  8 11  1  0  0  0  0
  9 14  1  6  0  0  0
  9 22  1  0  0  0  0
 10 21  1  1  0  0  0
 10  3  1  0  0  0  0
 11 28  1  0  0  0  0
 11  5  2  0  0  0  0
 12  8  2  0  0  0  0
 12  4  1  0  0  0  0
 17 26  1  0  0  0  0
 18 13  2  0  0  0  0
 19  2  2  0  0  0  0
 20  4  1  0  0  0  0
 20 17  2  0  0  0  0
 22 10  1  0  0  0  0
 22 20  1  0  0  0  0
 23 15  1  0  0  0  0
 23 14  1  0  0  0  0
 25 18  1  0  0  0  0
 26 19  1  0  0  0  0
 26 25  2  0  0  0  0
 27 24  1  1  0  0  0
 27 12  1  0  0  0  0
 28 30  1  0  0  0  0
 30 29  1  0  0  0  0
M  END
>  <MODEL>
7

>  <REMARK>
 VINA RESULT:      -7.4      2.678      4.614
  Name = 
  2 active torsions:
  status: ('A' for Active; 'I' for Inactive)
    1  A    between atoms: C_11  and  C_28
    2  A    between atoms: C_28  and  C_30
                            x       y       z     vdW  Elec       q    Type
                         _______ _______ _______ _____ _____    ______ ____

>  <TORSDO>
F 2

$$$$
=
 OpenBabel11112416213D

 30 35  0  0  1  0  0  0  0  0999 V2000
  187.9590  176.5680  143.4350 C   0  0  0  0  0  0  0  0  0  0  0  0
  186.2570  178.1150  142.3550 C   0  0  0  0  0  0  0  0  0  0  0  0
  188.5320  174.5390  139.8120 N   0  0  0  0  0  2  0  0  0  0  0  0
  188.8580  175.4590  143.2980 C   0  0  0  0  0  0  0  0  0  0  0  0
  187.8780  177.1980  144.6810 C   0  0  0  0  0  3  0  0  0  0  0  0
  190.3450  175.3630  146.7060 O   0  0  0  0  0  1  0  0  0  0  0  0
  190.1130  172.6460  143.9400 C   0  0  1  0  0  3  0  0  0  0  0  0
  189.5570  175.7460  145.6220 C   0  0  0  0  0  0  0  0  0  0  0  0
  189.7190  172.4410  142.4850 C   0  0  2  0  0  3  0  0  0  0  0  0
  189.5130  173.5320  140.2130 C   0  0  1  0  0  3  0  0  0  0  0  0
  188.6510  176.7990  145.7650 C   0  0  0  0  0  0  0  0  0  0  0  0
  189.6780  175.0780  144.3930 C   0  0  0  0  0  0  0  0  0  0  0  0
  185.5780  178.5050  141.1960 C   0  0  0  0  0  3  0  0  0  0  0  0
  190.7460  171.4580  141.9620 C   0  0  0  0  0  2  0  0  0  0  0  0
  191.0930  171.5310  144.2580 C   0  0  0  0  0  2  0  0  0  0  0  0
  185.8460  179.0550  143.7880 Cl  0  0  0  0  0  0  0  0  0  0  0  0
  188.2360  175.2900  140.9750 C   0  0  0  0  0  0  0  0  0  0  0  0
  185.7830  177.8510  139.9860 C   0  0  0  0  0  3  0  0  0  0  0  0
  187.1860  177.0260  142.3120 C   0  0  0  0  0  0  0  0  0  0  0  0
  188.9170  174.8150  142.0480 C   0  0  0  0  0  0  0  0  0  0  0  0
  190.8350  173.8170  139.5230 C   0  0  0  0  0  1  0  0  0  0  0  0
  189.6760  173.6620  141.6710 N   0  0  0  0  0  0  0  0  0  0  0  0
  191.1920  170.6600  143.0930 N   0  0  0  0  0  2  0  0  0  0  0  0
  191.9180  174.4190  143.4460 C   0  0  0  0  0  1  0  0  0  0  0  0
  186.6710  176.7860  139.9180 C   0  0  0  0  0  3  0  0  0  0  0  0
  187.3640  176.3690  141.0580 C   0  0  0  0  0  0  0  0  0  0  0  0
  190.7190  174.0020  144.2930 C   0  0  2  0  0  3  0  0  0  0  0  0
  188.4930  177.5070  147.0690 C   0  0  0  0  0  2  0  0  0  0  0  0
  186.2960  176.8190  147.6620 O   0  0  0  0  0  1  0  0  0  0  0  0
  187.0470  177.9240  147.2650 C   0  0  0  0  0  2  0  0  0  0  0  0
  1  5  2  0  0  0  0
  2 16  1  0  0  0  0
  3 10  1  0  0  0  0
  3 17  1  0  0  0  0
  4  1  1  0  0  0  0
  4 12  2  0  0  0  0
  5 11  1  0  0  0  0
  7 15  1  6  0  0  0
  7 27  1  0  0  0  0
  8 11  2  0  0  0  0
  8  6  1  0  0  0  0
  9 14  1  6  0  0  0
  9  7  1  0  0  0  0
 10 21  1  6  0  0  0
 10 22  1  0  0  0  0
 11 28  1  0  0  0  0
 12  8  1  0  0  0  0
 13  2  2  0  0  0  0
 14 23  1  0  0  0  0
 17 26  1  0  0  0  0
 17 20  2  0  0  0  0
 18 13  1  0  0  0  0
 19  2  1  0  0  0  0
 19  1  1  0  0  0  0
 20  4  1  0  0  0  0
 22 20  1  0  0  0  0
 22  9  1  0  0  0  0
 23 15  1  0  0  0  0
 25 18  2  0  0  0  0
 25 26  1  0  0  0  0
 26 19  2  0  0  0  0
 27 24  1  6  0  0  0
 27 12  1  0  0  0  0
 28 30  1  0  0  0  0
 30 29  1  0  0  0  0
M  END
>  <MODEL>
8

>  <REMARK>
 VINA RESULT:      -7.3      2.880      5.219
  Name = 
  2 active torsions:
  status: ('A' for Active; 'I' for Inactive)
    1  A    between atoms: C_11  and  C_28
    2  A    between atoms: C_28  and  C_30
                            x       y       z     vdW  Elec       q    Type
                         _______ _______ _______ _____ _____    ______ ____

>  <TORSDO>
F 2

$$$$
=
 OpenBabel11112416213D

 30 35  0  0  1  0  0  0  0  0999 V2000
  189.1030  173.9690  141.5140 C   0  0  0  0  0  0  0  0  0  0  0  0
  190.6520  171.9900  141.8900 C   0  0  0  0  0  0  0  0  0  0  0  0
  189.3510  175.0340  145.5610 N   0  0  0  0  0  2  0  0  0  0  0  0
  188.4000  175.0900  142.0680 C   0  0  0  0  0  0  0  0  0  0  0  0
  188.9810  173.7310  140.1420 C   0  0  0  0  0  3  0  0  0  0  0  0
  186.8430  176.5020  139.0000 O   0  0  0  0  0  1  0  0  0  0  0  0
  185.9310  176.9150  142.7520 C   0  0  1  0  0  3  0  0  0  0  0  0
  187.5780  175.6690  139.8410 C   0  0  0  0  0  0  0  0  0  0  0  0
  186.4320  176.6020  144.1540 C   0  0  2  0  0  3  0  0  0  0  0  0
  188.4740  176.2040  145.5910 C   0  0  1  0  0  3  0  0  0  0  0  0
  188.2290  174.5530  139.3100 C   0  0  0  0  0  0  0  0  0  0  0  0
  187.6670  175.9540  141.2120 C   0  0  0  0  0  0  0  0  0  0  0  0
  191.4520  171.2640  142.7780 C   0  0  0  0  0  3  0  0  0  0  0  0
  186.0560  177.8270  144.9610 C   0  0  0  0  0  2  0  0  0  0  0  0
  185.0060  178.1090  142.9080 C   0  0  0  0  0  2  0  0  0  0  0  0
  190.6370  171.3590  140.2450 Cl  0  0  0  0  0  0  0  0  0  0  0  0
  189.3350  174.5610  144.2270 C   0  0  0  0  0  0  0  0  0  0  0  0
  191.5570  171.6270  144.1160 C   0  0  0  0  0  3  0  0  0  0  0  0
  189.9240  173.1350  142.3500 C   0  0  0  0  0  0  0  0  0  0  0  0
  188.5080  175.3100  143.4540 C   0  0  0  0  0  0  0  0  0  0  0  0
  189.3020  177.4440  145.8760 C   0  0  0  0  0  1  0  0  0  0  0  0
  187.8670  176.3090  144.2540 N   0  0  0  0  0  0  0  0  0  0  0  0
  184.8860  178.4160  144.3280 N   0  0  0  0  0  2  0  0  0  0  0  0
  187.9960  178.2990  142.0710 C   0  0  0  0  0  1  0  0  0  0  0  0
  190.8540  172.7270  144.5900 C   0  0  0  0  0  3  0  0  0  0  0  0
  190.0440  173.4740  143.7300 C   0  0  0  0  0  0  0  0  0  0  0  0
  186.9980  177.2060  141.7000 C   0  0  2  0  0  3  0  0  0  0  0  0
  188.1290  174.2210  137.8590 C   0  0  0  0  0  2  0  0  0  0  0  0
  190.2730  174.2670  136.8310 O   0  0  0  0  0  1  0  0  0  0  0  0
  189.3400  173.4170  137.4220 C   0  0  0  0  0  2  0  0  0  0  0  0
  1  4  1  0  0  0  0
  1 19  1  0  0  0  0
  2 19  2  0  0  0  0
  2 13  1  0  0  0  0
  3 10  1  0  0  0  0
  4 20  1  0  0  0  0
  5  1  2  0  0  0  0
  6  8  1  0  0  0  0
  7 15  1  1  0  0  0
  7  9  1  0  0  0  0
  8 12  1  0  0  0  0
  9 22  1  0  0  0  0
  9 14  1  1  0  0  0
 10 21  1  6  0  0  0
 11  8  2  0  0  0  0
 11  5  1  0  0  0  0
 12 27  1  0  0  0  0
 12  4  2  0  0  0  0
 13 18  2  0  0  0  0
 15 23  1  0  0  0  0
 16  2  1  0  0  0  0
 17  3  1  0  0  0  0
 18 25  1  0  0  0  0
 19 26  1  0  0  0  0
 20 17  2  0  0  0  0
 20 22  1  0  0  0  0
 22 10  1  0  0  0  0
 23 14  1  0  0  0  0
 26 17  1  0  0  0  0
 26 25  2  0  0  0  0
 27 24  1  1  0  0  0
 27  7  1  0  0  0  0
 28 11  1  0  0  0  0
 29 30  1  0  0  0  0
 30 28  1  0  0  0  0
M  END
>  <MODEL>
9

>  <REMARK>
 VINA RESULT:      -7.2      3.135      6.028
  Name = 
  2 active torsions:
  status: ('A' for Active; 'I' for Inactive)
    1  A    between atoms: C_11  and  C_28
    2  A    between atoms: C_28  and  C_30
                            x       y       z     vdW  Elec       q    Type
                         _______ _______ _______ _____ _____    ______ ____

>  <TORSDO>
F 2

$$$$
