=
 OpenBabel11112417353D

 28 32  0  0  1  0  0  0  0  0999 V2000
  191.0390  176.5970  144.8810 C   0  0  0  0  0  0  0  0  0  0  0  0
  190.6090  172.2200  142.2980 O   0  0  0  0  0  0  0  0  0  0  0  0
  184.9890  177.1760  142.9850 O   0  0  0  0  0  0  0  0  0  0  0  0
  193.0870  174.8540  144.0920 C   0  0  0  0  0  3  0  0  0  0  0  0
  186.7910  176.9880  141.4890 N   0  0  0  0  0  0  0  0  0  0  0  0
  190.0220  177.5520  145.3980 C   0  0  0  0  0  2  0  0  0  0  0  0
  188.1960  172.3900  142.7900 O   0  0  0  0  0  0  0  0  0  0  0  0
  189.3140  172.8750  141.9100 S   0  0  0  0  0  0  0  0  0  0  0  0
  188.6000  173.4950  139.4110 C   0  0  0  0  0  0  0  0  0  0  0  0
  189.4550  174.6350  141.9800 C   0  0  1  0  0  3  0  0  0  0  0  0
  187.0320  176.2790  147.0490 O   0  0  0  0  0  0  0  0  0  0  0  0
  188.5210  176.5730  143.0800 C   0  0  1  0  0  3  0  0  0  0  0  0
  188.4270  174.8300  139.8320 O   0  0  0  0  0  0  0  0  0  0  0  0
  188.9550  172.5510  140.2410 N   0  0  0  0  0  0  0  0  0  0  0  0
  187.7500  176.8600  146.1960 C   0  0  0  0  0  0  0  0  0  0  0  0
  190.7530  175.5820  143.9240 C   0  0  0  0  0  0  0  0  0  0  0  0
  186.2060  176.9270  142.7720 C   0  0  0  0  0  0  0  0  0  0  0  0
  188.3830  173.1580  137.9810 C   0  0  0  0  0  1  0  0  0  0  0  0
  187.1150  177.4740  144.9920 C   0  0  0  0  0  2  0  0  0  0  0  0
  191.8030  174.7110  143.5680 C   0  0  0  0  0  3  0  0  0  0  0  0
  192.3320  176.7280  145.4030 C   0  0  0  0  0  3  0  0  0  0  0  0
  193.3520  175.8670  145.0080 C   0  0  0  0  0  3  0  0  0  0  0  0
  189.1650  176.8920  146.3690 N   0  0  0  0  0  2  0  0  0  0  0  0
  188.1810  176.5900  141.5680 C   0  0  1  0  0  3  0  0  0  0  0  0
  187.1650  176.5070  143.8180 C   0  0  2  0  0  3  0  0  0  0  0  0
  188.2850  175.1330  141.2120 C   0  0  2  0  0  3  0  0  0  0  0  0
  186.2410  177.7490  140.3800 C   0  0  0  0  0  1  0  0  0  0  0  0
  189.3570  175.3010  143.3530 C   0  0  2  0  0  3  0  0  0  0  0  0
  1  6  1  0  0  0  0
  1 21  1  0  0  0  0
  4 22  1  0  0  0  0
  5 24  1  0  0  0  0
  5 17  1  0  0  0  0
  6 23  1  0  0  0  0
  8  2  2  0  0  0  0
  8  7  2  0  0  0  0
  9 13  1  0  0  0  0
  9 14  2  0  0  0  0
 10  8  1  1  0  0  0
 10 28  1  0  0  0  0
 12 28  1  0  0  0  0
 12 25  1  0  0  0  0
 13 26  1  0  0  0  0
 14  8  1  0  0  0  0
 15 23  1  0  0  0  0
 15 11  2  0  0  0  0
 16  1  2  0  0  0  0
 17  3  2  0  0  0  0
 17 25  1  0  0  0  0
 18  9  1  0  0  0  0
 19 15  1  0  0  0  0
 20 16  1  0  0  0  0
 20  4  2  0  0  0  0
 22 21  2  0  0  0  0
 24 12  1  0  0  0  0
 25 19  1  0  0  0  0
 26 24  1  0  0  0  0
 26 10  1  0  0  0  0
 27  5  1  0  0  0  0
 28 16  1  0  0  0  0
M  END
>  <MODEL>
1

>  <REMARK>
 VINA RESULT:      -8.3      0.000      0.000
  Name = 
  0 active torsions:
  status: ('A' for Active; 'I' for Inactive)
                            x       y       z     vdW  Elec       q    Type
                         _______ _______ _______ _____ _____    ______ ____

>  <TORSDO>
F 0

$$$$
=
 OpenBabel11112417353D

 28 32  0  0  1  0  0  0  0  0999 V2000
  191.7390  176.4050  145.0340 C   0  0  0  0  0  0  0  0  0  0  0  0
  189.9780  174.2960  140.7380 O   0  0  0  0  0  0  0  0  0  0  0  0
  185.4990  177.0150  146.1380 O   0  0  0  0  0  0  0  0  0  0  0  0
  193.1740  175.7740  142.7110 C   0  0  0  0  0  3  0  0  0  0  0  0
  186.5800  178.0010  144.3000 N   0  0  0  0  0  0  0  0  0  0  0  0
  191.0820  176.7200  146.3320 C   0  0  0  0  0  2  0  0  0  0  0  0
  187.9530  173.7750  142.0510 O   0  0  0  0  0  0  0  0  0  0  0  0
  188.6960  174.8440  141.2990 S   0  0  0  0  0  0  0  0  0  0  0  0
  187.1520  176.6620  140.0960 C   0  0  0  0  0  0  0  0  0  0  0  0
  189.0110  176.2420  142.3320 C   0  0  1  0  0  3  0  0  0  0  0  0
  188.8330  174.2840  147.8460 O   0  0  0  0  0  0  0  0  0  0  0  0
  188.7380  177.0260  144.6010 C   0  0  1  0  0  3  0  0  0  0  0  0
  187.2710  177.4690  141.2470 O   0  0  0  0  0  0  0  0  0  0  0  0
  187.7080  175.4820  140.0210 N   0  0  0  0  0  0  0  0  0  0  0  0
  189.2260  175.3520  147.3110 C   0  0  0  0  0  0  0  0  0  0  0  0
  191.0250  176.0930  143.8430 C   0  0  0  0  0  0  0  0  0  0  0  0
  186.5180  177.1260  145.4060 C   0  0  0  0  0  0  0  0  0  0  0  0
  186.3830  177.1760  138.9340 C   0  0  0  0  0  1  0  0  0  0  0  0
  188.2420  176.4370  147.0200 C   0  0  0  0  0  2  0  0  0  0  0  0
  191.7800  175.7590  142.7010 C   0  0  0  0  0  3  0  0  0  0  0  0
  193.1400  176.4140  145.0320 C   0  0  0  0  0  3  0  0  0  0  0  0
  193.8550  176.1060  143.8780 C   0  0  0  0  0  3  0  0  0  0  0  0
  190.5990  175.4990  146.9540 N   0  0  0  0  0  2  0  0  0  0  0  0
  187.8560  177.8520  143.6310 C   0  0  1  0  0  3  0  0  0  0  0  0
  187.7590  176.3390  145.5810 C   0  0  2  0  0  3  0  0  0  0  0  0
  187.6870  176.8990  142.4800 C   0  0  2  0  0  3  0  0  0  0  0  0
  185.7230  179.1630  144.1340 C   0  0  0  0  0  1  0  0  0  0  0  0
  189.4970  175.9760  143.7570 C   0  0  2  0  0  3  0  0  0  0  0  0
  1  6  1  0  0  0  0
  2  8  2  0  0  0  0
  4 22  1  0  0  0  0
  5 17  1  0  0  0  0
  6 23  1  0  0  0  0
  8  7  2  0  0  0  0
  9 13  1  0  0  0  0
 10  8  1  6  0  0  0
 10 26  1  0  0  0  0
 10 28  1  0  0  0  0
 12 25  1  0  0  0  0
 13 26  1  0  0  0  0
 14  9  2  0  0  0  0
 14  8  1  0  0  0  0
 15 11  2  0  0  0  0
 16  1  2  0  0  0  0
 17 25  1  0  0  0  0
 17  3  2  0  0  0  0
 18  9  1  0  0  0  0
 19 15  1  0  0  0  0
 20  4  2  0  0  0  0
 20 16  1  0  0  0  0
 21  1  1  0  0  0  0
 22 21  2  0  0  0  0
 23 15  1  0  0  0  0
 24  5  1  0  0  0  0
 24 12  1  0  0  0  0
 25 19  1  0  0  0  0
 26 24  1  0  0  0  0
 27  5  1  0  0  0  0
 28 16  1  0  0  0  0
 28 12  1  0  0  0  0
M  END
>  <MODEL>
2

>  <REMARK>
 VINA RESULT:      -8.2      1.941      2.440
  Name = 
  0 active torsions:
  status: ('A' for Active; 'I' for Inactive)
                            x       y       z     vdW  Elec       q    Type
                         _______ _______ _______ _____ _____    ______ ____

>  <TORSDO>
F 0

$$$$
=
 OpenBabel11112417353D

 28 32  0  0  1  0  0  0  0  0999 V2000
  187.4800  176.3140  146.4570 C   0  0  0  0  0  0  0  0  0  0  0  0
  186.5880  179.0420  142.2410 O   0  0  0  0  0  0  0  0  0  0  0  0
  192.0720  173.9170  142.7560 O   0  0  0  0  0  0  0  0  0  0  0  0
  185.2430  177.8990  145.8710 C   0  0  0  0  0  3  0  0  0  0  0  0
  189.7890  173.7780  142.2210 N   0  0  0  0  0  0  0  0  0  0  0  0
  188.6480  175.5000  146.8870 C   0  0  0  0  0  2  0  0  0  0  0  0
  188.9720  178.6660  141.7250 O   0  0  0  0  0  0  0  0  0  0  0  0
  187.5940  178.0640  141.7050 S   0  0  0  0  0  0  0  0  0  0  0  0
  187.1420  176.3340  139.7200 C   0  0  0  0  0  0  0  0  0  0  0  0
  187.5510  176.5540  142.6210 C   0  0  1  0  0  3  0  0  0  0  0  0
  192.0210  176.7910  146.3940 O   0  0  0  0  0  0  0  0  0  0  0  0
  188.9330  175.1260  143.9950 C   0  0  1  0  0  3  0  0  0  0  0  0
  187.5230  175.2930  140.5920 O   0  0  0  0  0  0  0  0  0  0  0  0
  187.1650  177.5860  140.0910 N   0  0  0  0  0  0  0  0  0  0  0  0
  191.0160  176.0440  146.2770 C   0  0  0  0  0  0  0  0  0  0  0  0
  187.2800  176.7630  145.1200 C   0  0  0  0  0  0  0  0  0  0  0  0
  190.8810  174.2670  142.9700 C   0  0  0  0  0  0  0  0  0  0  0  0
  186.6910  175.9930  138.3470 C   0  0  0  0  0  1  0  0  0  0  0  0
  191.0680  174.8770  145.3460 C   0  0  0  0  0  2  0  0  0  0  0  0
  186.1560  177.5750  144.8690 C   0  0  0  0  0  3  0  0  0  0  0  0
  186.5570  176.6480  147.4560 C   0  0  0  0  0  3  0  0  0  0  0  0
  185.4430  177.4310  147.1660 C   0  0  0  0  0  3  0  0  0  0  0  0
  189.8270  176.3410  147.0050 N   0  0  0  0  0  2  0  0  0  0  0  0
  188.5670  174.4150  142.6680 C   0  0  1  0  0  3  0  0  0  0  0  0
  190.4740  175.2520  143.9960 C   0  0  2  0  0  3  0  0  0  0  0  0
  188.2730  175.5790  141.7640 C   0  0  2  0  0  3  0  0  0  0  0  0
  189.8110  172.5360  141.4670 C   0  0  0  0  0  1  0  0  0  0  0  0
  188.2680  176.5220  143.9710 C   0  0  2  0  0  3  0  0  0  0  0  0
  1  6  1  0  0  0  0
  1 21  1  0  0  0  0
  3 17  2  0  0  0  0
  4 22  1  0  0  0  0
  5 24  1  0  0  0  0
  5 17  1  0  0  0  0
  6 23  1  0  0  0  0
  8  7  2  0  0  0  0
  8  2  2  0  0  0  0
  9 14  2  0  0  0  0
  9 13  1  0  0  0  0
 10  8  1  6  0  0  0
 10 28  1  0  0  0  0
 12 25  1  0  0  0  0
 13 26  1  0  0  0  0
 14  8  1  0  0  0  0
 15 11  2  0  0  0  0
 15 23  1  0  0  0  0
 16  1  2  0  0  0  0
 17 25  1  0  0  0  0
 18  9  1  0  0  0  0
 19 15  1  0  0  0  0
 20 16  1  0  0  0  0
 20  4  2  0  0  0  0
 22 21  2  0  0  0  0
 24 12  1  0  0  0  0
 25 19  1  0  0  0  0
 26 10  1  0  0  0  0
 26 24  1  0  0  0  0
 27  5  1  0  0  0  0
 28 12  1  0  0  0  0
 28 16  1  0  0  0  0
M  END
>  <MODEL>
3

>  <REMARK>
 VINA RESULT:      -7.9      2.273      4.968
  Name = 
  0 active torsions:
  status: ('A' for Active; 'I' for Inactive)
                            x       y       z     vdW  Elec       q    Type
                         _______ _______ _______ _____ _____    ______ ____

>  <TORSDO>
F 0

$$$$
=
 OpenBabel11112417353D

 28 32  0  0  1  0  0  0  0  0999 V2000
  188.7140  173.7070  142.4150 C   0  0  0  0  0  0  0  0  0  0  0  0
  192.8640  175.6020  144.6940 O   0  0  0  0  0  0  0  0  0  0  0  0
  186.2280  179.1460  144.5980 O   0  0  0  0  0  0  0  0  0  0  0  0
  191.1180  172.3850  142.9920 C   0  0  0  0  0  3  0  0  0  0  0  0
  187.1520  177.5020  146.0000 N   0  0  0  0  0  0  0  0  0  0  0  0
  187.4260  174.3330  142.0110 C   0  0  0  0  0  2  0  0  0  0  0  0
  191.8280  177.8100  144.3160 O   0  0  0  0  0  0  0  0  0  0  0  0
  191.8350  176.5810  145.1820 S   0  0  0  0  0  0  0  0  0  0  0  0
  191.2120  176.9980  147.7460 C   0  0  0  0  0  0  0  0  0  0  0  0
  190.2340  175.8350  145.2320 C   0  0  1  0  0  3  0  0  0  0  0  0
  187.4440  177.6020  140.3990 O   0  0  0  0  0  0  0  0  0  0  0  0
  188.0090  176.0480  144.3140 C   0  0  1  0  0  3  0  0  0  0  0  0
  189.8710  176.7000  147.4300 O   0  0  0  0  0  0  0  0  0  0  0  0
  192.1490  177.0070  146.8370 N   0  0  0  0  0  0  0  0  0  0  0  0
  187.2200  176.7140  141.2610 C   0  0  0  0  0  0  0  0  0  0  0  0
  189.6410  174.3150  143.3080 C   0  0  0  0  0  0  0  0  0  0  0  0
  186.9000  178.0900  144.7420 C   0  0  0  0  0  0  0  0  0  0  0  0
  191.5680  177.2990  149.1570 C   0  0  0  0  0  1  0  0  0  0  0  0
  186.5240  177.0780  142.5310 C   0  0  0  0  0  2  0  0  0  0  0  0
  190.8480  173.6310  143.5580 C   0  0  0  0  0  3  0  0  0  0  0  0
  188.9980  172.4570  141.8520 C   0  0  0  0  0  3  0  0  0  0  0  0
  190.1890  171.7960  142.1410 C   0  0  0  0  0  3  0  0  0  0  0  0
  187.6660  175.3800  141.0320 N   0  0  0  0  0  2  0  0  0  0  0  0
  187.9990  176.3410  145.8350 C   0  0  1  0  0  3  0  0  0  0  0  0
  187.5400  177.3520  143.6300 C   0  0  2  0  0  3  0  0  0  0  0  0
  189.4250  176.7470  146.0810 C   0  0  2  0  0  3  0  0  0  0  0  0
  186.3400  177.7370  147.1830 C   0  0  0  0  0  1  0  0  0  0  0  0
  189.4660  175.7130  143.9150 C   0  0  2  0  0  3  0  0  0  0  0  0
  1 16  1  0  0  0  0
  2  8  2  0  0  0  0
  3 17  2  0  0  0  0
  4 20  1  0  0  0  0
  5 27  1  0  0  0  0
  6  1  1  0  0  0  0
  7  8  2  0  0  0  0
  8 14  1  0  0  0  0
  9 18  1  0  0  0  0
 10  8  1  6  0  0  0
 10 26  1  0  0  0  0
 11 15  2  0  0  0  0
 12 24  1  0  0  0  0
 13  9  1  0  0  0  0
 14  9  2  0  0  0  0
 15 19  1  0  0  0  0
 16 20  2  0  0  0  0
 16 28  1  0  0  0  0
 17  5  1  0  0  0  0
 19 25  1  0  0  0  0
 21 22  1  0  0  0  0
 21  1  2  0  0  0  0
 22  4  2  0  0  0  0
 23 15  1  0  0  0  0
 23  6  1  0  0  0  0
 24  5  1  0  0  0  0
 24 26  1  0  0  0  0
 25 12  1  0  0  0  0
 25 17  1  0  0  0  0
 26 13  1  0  0  0  0
 28 12  1  0  0  0  0
 28 10  1  0  0  0  0
M  END
>  <MODEL>
4

>  <REMARK>
 VINA RESULT:      -7.6      2.629      5.575
  Name = 
  0 active torsions:
  status: ('A' for Active; 'I' for Inactive)
                            x       y       z     vdW  Elec       q    Type
                         _______ _______ _______ _____ _____    ______ ____

>  <TORSDO>
F 0

$$$$
=
 OpenBabel11112417353D

 28 32  0  0  1  0  0  0  0  0999 V2000
  192.2810  175.0500  145.2580 C   0  0  0  0  0  0  0  0  0  0  0  0
  190.8090  171.7130  141.6930 O   0  0  0  0  0  0  0  0  0  0  0  0
  186.1880  176.8180  144.7250 O   0  0  0  0  0  0  0  0  0  0  0  0
  193.8980  173.4090  143.6620 C   0  0  0  0  0  3  0  0  0  0  0  0
  187.7070  176.8890  142.9340 N   0  0  0  0  0  0  0  0  0  0  0  0
  191.5090  175.9130  146.1940 C   0  0  0  0  0  2  0  0  0  0  0  0
  188.5470  171.9890  142.6420 O   0  0  0  0  0  0  0  0  0  0  0  0
  189.5910  172.5900  141.7420 S   0  0  0  0  0  0  0  0  0  0  0  0
  188.6340  173.9980  139.6830 C   0  0  0  0  0  0  0  0  0  0  0  0
  190.0140  174.2240  142.2660 C   0  0  1  0  0  3  0  0  0  0  0  0
  188.6230  174.5380  147.9440 O   0  0  0  0  0  0  0  0  0  0  0  0
  189.5600  175.8360  144.0080 C   0  0  1  0  0  3  0  0  0  0  0  0
  188.7330  175.1580  140.4780 O   0  0  0  0  0  0  0  0  0  0  0  0
  188.9520  172.8170  140.1420 N   0  0  0  0  0  0  0  0  0  0  0  0
  189.2950  175.2650  147.1680 C   0  0  0  0  0  0  0  0  0  0  0  0
  191.7070  174.4030  144.1270 C   0  0  0  0  0  0  0  0  0  0  0  0
  187.3080  176.5140  144.2350 C   0  0  0  0  0  0  0  0  0  0  0  0
  188.1650  174.1270  138.2790 C   0  0  0  0  0  1  0  0  0  0  0  0
  188.5980  176.2750  146.3160 C   0  0  0  0  0  2  0  0  0  0  0  0
  192.5460  173.5690  143.3610 C   0  0  0  0  0  3  0  0  0  0  0  0
  193.6390  174.8800  145.5520 C   0  0  0  0  0  3  0  0  0  0  0  0
  194.4460  174.0700  144.7570 C   0  0  0  0  0  3  0  0  0  0  0  0
  190.7070  175.0910  147.0840 N   0  0  0  0  0  2  0  0  0  0  0  0
  189.0150  176.3380  142.6470 C   0  0  1  0  0  3  0  0  0  0  0  0
  188.3290  175.7010  144.9330 C   0  0  2  0  0  3  0  0  0  0  0  0
  188.8380  175.0500  141.8910 C   0  0  2  0  0  3  0  0  0  0  0  0
  187.1300  178.0000  142.1960 C   0  0  0  0  0  1  0  0  0  0  0  0
  190.2170  174.4570  143.7640 C   0  0  2  0  0  3  0  0  0  0  0  0
  1 21  1  0  0  0  0
  1  6  1  0  0  0  0
  2  8  2  0  0  0  0
  4 22  1  0  0  0  0
  5 17  1  0  0  0  0
  6 23  1  0  0  0  0
  8  7  2  0  0  0  0
  9 14  2  0  0  0  0
  9 13  1  0  0  0  0
 10  8  1  1  0  0  0
 10 28  1  0  0  0  0
 12 25  1  0  0  0  0
 13 26  1  0  0  0  0
 14  8  1  0  0  0  0
 15 11  2  0  0  0  0
 16  1  2  0  0  0  0
 17  3  2  0  0  0  0
 17 25  1  0  0  0  0
 18  9  1  0  0  0  0
 19 15  1  0  0  0  0
 20  4  2  0  0  0  0
 20 16  1  0  0  0  0
 22 21  2  0  0  0  0
 23 15  1  0  0  0  0
 24  5  1  0  0  0  0
 24 12  1  0  0  0  0
 25 19  1  0  0  0  0
 26 10  1  0  0  0  0
 26 24  1  0  0  0  0
 27  5  1  0  0  0  0
 28 12  1  0  0  0  0
 28 16  1  0  0  0  0
M  END
>  <MODEL>
5

>  <REMARK>
 VINA RESULT:      -7.4      1.380      1.682
  Name = 
  0 active torsions:
  status: ('A' for Active; 'I' for Inactive)
                            x       y       z     vdW  Elec       q    Type
                         _______ _______ _______ _____ _____    ______ ____

>  <TORSDO>
F 0

$$$$
=
 OpenBabel11112417353D

 28 32  0  0  1  0  0  0  0  0999 V2000
  187.3550  177.0510  143.0180 C   0  0  0  0  0  0  0  0  0  0  0  0
  189.6610  176.6400  147.5480 O   0  0  0  0  0  0  0  0  0  0  0  0
  192.1330  173.1960  141.3320 O   0  0  0  0  0  0  0  0  0  0  0  0
  186.9160  178.5880  145.3210 C   0  0  0  0  0  3  0  0  0  0  0  0
  192.4690  175.3460  142.2200 N   0  0  0  0  0  0  0  0  0  0  0  0
  187.4690  176.2540  141.7670 C   0  0  0  0  0  2  0  0  0  0  0  0
  190.5000  174.4750  146.7100 O   0  0  0  0  0  0  0  0  0  0  0  0
  190.6840  175.9670  146.6780 S   0  0  0  0  0  0  0  0  0  0  0  0
  193.2070  176.7890  146.3630 C   0  0  0  0  0  0  0  0  0  0  0  0
  190.6010  176.5790  145.0230 C   0  0  1  0  0  3  0  0  0  0  0  0
  187.5760  172.6150  141.9550 O   0  0  0  0  0  0  0  0  0  0  0  0
  190.2010  175.8620  142.7510 C   0  0  1  0  0  3  0  0  0  0  0  0
  192.9750  176.8440  144.9730 O   0  0  0  0  0  0  0  0  0  0  0  0
  192.2870  176.3900  147.2000 N   0  0  0  0  0  0  0  0  0  0  0  0
  187.9480  173.7950  141.7300 C   0  0  0  0  0  0  0  0  0  0  0  0
  188.2930  176.9780  144.0880 C   0  0  0  0  0  0  0  0  0  0  0  0
  191.6760  174.2210  141.9040 C   0  0  0  0  0  0  0  0  0  0  0  0
  194.5320  177.2070  146.8880 C   0  0  0  0  0  1  0  0  0  0  0  0
  189.3240  174.0480  141.2060 C   0  0  0  0  0  2  0  0  0  0  0  0
  188.0270  177.7500  145.2370 C   0  0  0  0  0  3  0  0  0  0  0  0
  186.2420  177.8950  143.1150 C   0  0  0  0  0  3  0  0  0  0  0  0
  186.0250  178.6640  144.2550 C   0  0  0  0  0  3  0  0  0  0  0  0
  187.0660  174.8790  142.0130 N   0  0  0  0  0  2  0  0  0  0  0  0
  191.6690  176.3250  142.9240 C   0  0  1  0  0  3  0  0  0  0  0  0
  190.2730  174.3700  142.3500 C   0  0  2  0  0  3  0  0  0  0  0  0
  191.8780  176.1450  144.4010 C   0  0  2  0  0  3  0  0  0  0  0  0
  193.7240  175.6660  141.5600 C   0  0  0  0  0  1  0  0  0  0  0  0
  189.4970  176.0290  144.1180 C   0  0  2  0  0  3  0  0  0  0  0  0
  1 21  2  0  0  0  0
  1 16  1  0  0  0  0
  3 17  2  0  0  0  0
  5 24  1  0  0  0  0
  6 23  1  0  0  0  0
  6  1  1  0  0  0  0
  8  7  2  0  0  0  0
  8 14  1  0  0  0  0
  8  2  2  0  0  0  0
  9 18  1  0  0  0  0
  9 14  2  0  0  0  0
 10  8  1  1  0  0  0
 12 24  1  0  0  0  0
 12 28  1  0  0  0  0
 13  9  1  0  0  0  0
 15 11  2  0  0  0  0
 15 23  1  0  0  0  0
 16 28  1  0  0  0  0
 16 20  2  0  0  0  0
 17  5  1  0  0  0  0
 17 25  1  0  0  0  0
 19 15  1  0  0  0  0
 19 25  1  0  0  0  0
 20  4  1  0  0  0  0
 21 22  1  0  0  0  0
 22  4  2  0  0  0  0
 24 26  1  0  0  0  0
 25 12  1  0  0  0  0
 26 13  1  0  0  0  0
 26 10  1  0  0  0  0
 27  5  1  0  0  0  0
 28 10  1  0  0  0  0
M  END
>  <MODEL>
6

>  <REMARK>
 VINA RESULT:      -7.2      2.496      6.223
  Name = 
  0 active torsions:
  status: ('A' for Active; 'I' for Inactive)
                            x       y       z     vdW  Elec       q    Type
                         _______ _______ _______ _____ _____    ______ ____

>  <TORSDO>
F 0

$$$$
=
 OpenBabel11112417353D

 28 32  0  0  1  0  0  0  0  0999 V2000
  188.8890  173.9010  141.3120 C   0  0  0  0  0  0  0  0  0  0  0  0
  193.9710  174.2580  141.0800 O   0  0  0  0  0  0  0  0  0  0  0  0
  189.8210  177.7650  146.2850 O   0  0  0  0  0  0  0  0  0  0  0  0
  190.6590  172.3400  139.8000 C   0  0  0  0  0  3  0  0  0  0  0  0
  190.7360  175.6060  146.1480 N   0  0  0  0  0  0  0  0  0  0  0  0
  187.8650  174.7120  142.0250 C   0  0  0  0  0  2  0  0  0  0  0  0
  193.6780  176.4310  142.2150 O   0  0  0  0  0  0  0  0  0  0  0  0
  193.7260  174.9390  142.3970 S   0  0  0  0  0  0  0  0  0  0  0  0
  194.6880  174.1160  144.7500 C   0  0  0  0  0  0  0  0  0  0  0  0
  192.2390  174.3450  143.1440 C   0  0  1  0  0  3  0  0  0  0  0  0
  188.1200  178.3480  142.0120 O   0  0  0  0  0  0  0  0  0  0  0  0
  190.0730  175.0880  143.9140 C   0  0  1  0  0  3  0  0  0  0  0  0
  193.3640  174.0760  145.2340 O   0  0  0  0  0  0  0  0  0  0  0  0
  194.9660  174.5080  143.5350 N   0  0  0  0  0  0  0  0  0  0  0  0
  188.0950  177.1700  142.4510 C   0  0  0  0  0  0  0  0  0  0  0  0
  190.2820  173.9610  141.5990 C   0  0  0  0  0  0  0  0  0  0  0  0
  190.0820  176.7350  145.6090 C   0  0  0  0  0  0  0  0  0  0  0  0
  195.7940  173.6890  145.6440 C   0  0  0  0  0  1  0  0  0  0  0  0
  188.3160  176.9200  143.9070 C   0  0  0  0  0  2  0  0  0  0  0  0
  191.1430  173.1770  140.8040 C   0  0  0  0  0  3  0  0  0  0  0  0
  188.4150  173.0580  140.2990 C   0  0  0  0  0  3  0  0  0  0  0  0
  189.2910  172.2770  139.5510 C   0  0  0  0  0  3  0  0  0  0  0  0
  187.8950  176.0840  141.5490 N   0  0  0  0  0  2  0  0  0  0  0  0
  190.9430  174.6200  145.1080 C   0  0  1  0  0  3  0  0  0  0  0  0
  189.7760  176.5830  144.1690 C   0  0  2  0  0  3  0  0  0  0  0  0
  192.3330  174.7840  144.5590 C   0  0  2  0  0  3  0  0  0  0  0  0
  190.7780  175.2900  147.5660 C   0  0  0  0  0  1  0  0  0  0  0  0
  190.9130  174.9070  142.6280 C   0  0  2  0  0  3  0  0  0  0  0  0
  1 16  1  0  0  0  0
  1  6  1  0  0  0  0
  2  8  2  0  0  0  0
  4 20  1  0  0  0  0
  5 27  1  0  0  0  0
  7  8  2  0  0  0  0
  8 14  1  0  0  0  0
  9 13  1  0  0  0  0
  9 18  1  0  0  0  0
 10  8  1  6  0  0  0
 10 26  1  0  0  0  0
 11 15  2  0  0  0  0
 12 25  1  0  0  0  0
 12 24  1  0  0  0  0
 14  9  2  0  0  0  0
 15 19  1  0  0  0  0
 16 28  1  0  0  0  0
 17  5  1  0  0  0  0
 17  3  2  0  0  0  0
 19 25  1  0  0  0  0
 20 16  2  0  0  0  0
 21  1  2  0  0  0  0
 22  4  2  0  0  0  0
 22 21  1  0  0  0  0
 23  6  1  0  0  0  0
 23 15  1  0  0  0  0
 24  5  1  0  0  0  0
 25 17  1  0  0  0  0
 26 24  1  0  0  0  0
 26 13  1  0  0  0  0
 28 10  1  0  0  0  0
 28 12  1  0  0  0  0
M  END
>  <MODEL>
7

>  <REMARK>
 VINA RESULT:      -6.9      2.783      5.699
  Name = 
  0 active torsions:
  status: ('A' for Active; 'I' for Inactive)
                            x       y       z     vdW  Elec       q    Type
                         _______ _______ _______ _____ _____    ______ ____

>  <TORSDO>
F 0

$$$$
=
 OpenBabel11112417353D

 28 32  0  0  1  0  0  0  0  0999 V2000
  192.2630  176.5190  145.1170 C   0  0  0  0  0  0  0  0  0  0  0  0
  192.2800  171.4650  144.4330 O   0  0  0  0  0  0  0  0  0  0  0  0
  186.4060  175.8420  142.7160 O   0  0  0  0  0  0  0  0  0  0  0  0
  194.4530  174.7730  145.2240 C   0  0  0  0  0  3  0  0  0  0  0  0
  188.3510  175.2320  141.5470 N   0  0  0  0  0  0  0  0  0  0  0  0
  191.1590  177.5170  145.1430 C   0  0  0  0  0  2  0  0  0  0  0  0
  189.8250  171.6210  144.6440 O   0  0  0  0  0  0  0  0  0  0  0  0
  191.0010  171.8150  143.7270 S   0  0  0  0  0  0  0  0  0  0  0  0
  190.5060  171.3620  141.1410 C   0  0  0  0  0  0  0  0  0  0  0  0
  191.0570  173.4700  143.1110 C   0  0  1  0  0  3  0  0  0  0  0  0
  188.0830  176.7500  146.9410 O   0  0  0  0  0  0  0  0  0  0  0  0
  189.9360  175.6030  143.2930 C   0  0  1  0  0  3  0  0  0  0  0  0
  190.2340  172.7370  140.9910 O   0  0  0  0  0  0  0  0  0  0  0  0
  190.8200  170.8440  142.2980 N   0  0  0  0  0  0  0  0  0  0  0  0
  188.8540  177.0100  145.9830 C   0  0  0  0  0  0  0  0  0  0  0  0
  192.1170  175.1940  144.6170 C   0  0  0  0  0  0  0  0  0  0  0  0
  187.6470  175.6270  142.7060 C   0  0  0  0  0  0  0  0  0  0  0  0
  190.4440  170.4820  139.9460 C   0  0  0  0  0  1  0  0  0  0  0  0
  188.3120  177.0590  144.5920 C   0  0  0  0  0  2  0  0  0  0  0  0
  193.2330  174.3390  144.7070 C   0  0  0  0  0  3  0  0  0  0  0  0
  193.4920  176.9430  145.6370 C   0  0  0  0  0  3  0  0  0  0  0  0
  194.5830  176.0790  145.6860 C   0  0  0  0  0  3  0  0  0  0  0  0
  190.2430  177.2180  146.2300 N   0  0  0  0  0  2  0  0  0  0  0  0
  189.7430  175.0060  141.8760 C   0  0  1  0  0  3  0  0  0  0  0  0
  188.5180  175.7210  143.8980 C   0  0  2  0  0  3  0  0  0  0  0  0
  189.9450  173.5390  142.1280 C   0  0  2  0  0  3  0  0  0  0  0  0
  187.8780  175.4590  140.1920 C   0  0  0  0  0  1  0  0  0  0  0  0
  190.7970  174.6050  144.1030 C   0  0  2  0  0  3  0  0  0  0  0  0
  1  6  1  0  0  0  0
  1 21  1  0  0  0  0
  4 22  1  0  0  0  0
  5 24  1  0  0  0  0
  5 17  1  0  0  0  0
  6 23  1  0  0  0  0
  8  2  2  0  0  0  0
  8  7  2  0  0  0  0
  9 14  2  0  0  0  0
 10  8  1  1  0  0  0
 10 28  1  0  0  0  0
 12 25  1  0  0  0  0
 12 28  1  0  0  0  0
 13  9  1  0  0  0  0
 13 26  1  0  0  0  0
 14  8  1  0  0  0  0
 15 23  1  0  0  0  0
 15 11  2  0  0  0  0
 16 20  1  0  0  0  0
 16  1  2  0  0  0  0
 17  3  2  0  0  0  0
 17 25  1  0  0  0  0
 18  9  1  0  0  0  0
 19 15  1  0  0  0  0
 20  4  2  0  0  0  0
 21 22  2  0  0  0  0
 24 26  1  0  0  0  0
 24 12  1  0  0  0  0
 25 19  1  0  0  0  0
 26 10  1  0  0  0  0
 27  5  1  0  0  0  0
 28 16  1  0  0  0  0
M  END
>  <MODEL>
8

>  <REMARK>
 VINA RESULT:      -6.8      1.814      2.197
  Name = 
  0 active torsions:
  status: ('A' for Active; 'I' for Inactive)
                            x       y       z     vdW  Elec       q    Type
                         _______ _______ _______ _____ _____    ______ ____

>  <TORSDO>
F 0

$$$$
=
 OpenBabel11112417353D

 28 32  0  0  1  0  0  0  0  0999 V2000
  188.0230  176.1370  146.8570 C   0  0  0  0  0  0  0  0  0  0  0  0
  187.3440  177.0400  141.8840 O   0  0  0  0  0  0  0  0  0  0  0  0
  193.2210  173.2210  144.6190 O   0  0  0  0  0  0  0  0  0  0  0  0
  185.7190  177.0930  145.5790 C   0  0  0  0  0  3  0  0  0  0  0  0
  191.0380  172.5950  144.0160 N   0  0  0  0  0  0  0  0  0  0  0  0
  189.2120  175.6930  147.6350 C   0  0  0  0  0  2  0  0  0  0  0  0
  189.7970  176.8280  141.7060 O   0  0  0  0  0  0  0  0  0  0  0  0
  188.4970  176.0800  141.8150 S   0  0  0  0  0  0  0  0  0  0  0  0
  188.4480  173.7120  140.5770 C   0  0  0  0  0  0  0  0  0  0  0  0
  188.5020  175.0030  143.2150 C   0  0  1  0  0  3  0  0  0  0  0  0
  192.4720  177.1660  146.9350 O   0  0  0  0  0  0  0  0  0  0  0  0
  189.8570  174.3570  145.1090 C   0  0  1  0  0  3  0  0  0  0  0  0
  188.8310  173.1110  141.7940 O   0  0  0  0  0  0  0  0  0  0  0  0
  188.3030  175.0060  140.4630 N   0  0  0  0  0  0  0  0  0  0  0  0
  191.5660  176.2980  147.0320 C   0  0  0  0  0  0  0  0  0  0  0  0
  187.9320  176.0490  145.4390 C   0  0  0  0  0  0  0  0  0  0  0  0
  191.9840  173.4600  144.6070 C   0  0  0  0  0  0  0  0  0  0  0  0
  188.1920  172.8480  139.3970 C   0  0  0  0  0  1  0  0  0  0  0  0
  191.8400  174.8950  146.6000 C   0  0  0  0  0  2  0  0  0  0  0  0
  186.7680  176.5590  144.8300 C   0  0  0  0  0  3  0  0  0  0  0  0
  186.9650  176.6770  147.5970 C   0  0  0  0  0  3  0  0  0  0  0  0
  185.8170  177.1480  146.9650 C   0  0  0  0  0  3  0  0  0  0  0  0
  190.2790  176.6720  147.5160 N   0  0  0  0  0  2  0  0  0  0  0  0
  189.7170  173.1780  144.1140 C   0  0  1  0  0  3  0  0  0  0  0  0
  191.3670  174.6810  145.1700 C   0  0  2  0  0  3  0  0  0  0  0  0
  189.4110  173.8940  142.8280 C   0  0  2  0  0  3  0  0  0  0  0  0
  191.2700  171.1810  143.7740 C   0  0  0  0  0  1  0  0  0  0  0  0
  189.0620  175.5510  144.5290 C   0  0  2  0  0  3  0  0  0  0  0  0
  1 21  1  0  0  0  0
  1  6  1  0  0  0  0
  4 22  1  0  0  0  0
  5 24  1  0  0  0  0
  5 17  1  0  0  0  0
  7  8  2  0  0  0  0
  8  2  2  0  0  0  0
  9 13  1  0  0  0  0
 10  8  1  6  0  0  0
 10 28  1  0  0  0  0
 11 15  2  0  0  0  0
 12 25  1  0  0  0  0
 13 26  1  0  0  0  0
 14  9  2  0  0  0  0
 14  8  1  0  0  0  0
 15 23  1  0  0  0  0
 16  1  2  0  0  0  0
 17  3  2  0  0  0  0
 17 25  1  0  0  0  0
 18  9  1  0  0  0  0
 19 15  1  0  0  0  0
 20 16  1  0  0  0  0
 20  4  2  0  0  0  0
 22 21  2  0  0  0  0
 23  6  1  0  0  0  0
 24 12  1  0  0  0  0
 25 19  1  0  0  0  0
 26 10  1  0  0  0  0
 26 24  1  0  0  0  0
 27  5  1  0  0  0  0
 28 12  1  0  0  0  0
 28 16  1  0  0  0  0
M  END
>  <MODEL>
9

>  <REMARK>
 VINA RESULT:      -6.8      2.390      5.030
  Name = 
  0 active torsions:
  status: ('A' for Active; 'I' for Inactive)
                            x       y       z     vdW  Elec       q    Type
                         _______ _______ _______ _____ _____    ______ ____

>  <TORSDO>
F 0

$$$$
