=
 OpenBabel11112416183D

 30 35  0  0  1  0  0  0  0  0999 V2000
  186.5140  177.2040  143.7240 C   0  0  0  0  0  0  0  0  0  0  0  0
  184.8360  178.3280  145.2380 C   0  0  0  0  0  0  0  0  0  0  0  0
  188.7140  175.9360  146.9630 N   0  0  0  0  0  2  0  0  0  0  0  0
  187.6910  176.4060  143.5730 C   0  0  0  0  0  0  0  0  0  0  0  0
  185.8630  177.6100  142.6050 N   0  0  0  0  0  0  0  0  0  0  0  0
  187.7080  176.0430  140.0510 O   0  0  0  0  0  0  0  0  0  0  0  0
  190.4380  175.4270  142.5160 C   0  0  1  0  0  3  0  0  0  0  0  0
  187.3600  176.4080  141.2100 C   0  0  0  0  0  0  0  0  0  0  0  0
  190.7350  175.2830  143.9970 C   0  0  2  0  0  3  0  0  0  0  0  0
  189.7430  175.4050  146.2710 C   0  0  0  0  0  0  0  0  0  0  0  0
  186.2620  177.2570  141.3630 C   0  0  0  0  0  0  0  0  0  0  0  0
  188.0400  175.9650  142.3140 N   0  0  0  0  0  0  0  0  0  0  0  0
  184.4070  178.6020  146.5390 C   0  0  0  0  0  3  0  0  0  0  0  0
  191.4100  173.9360  144.1490 C   0  0  0  0  0  2  0  0  0  0  0  0
  191.5020  174.6010  141.8090 C   0  0  0  0  0  2  0  0  0  0  0  0
  183.8280  179.0080  143.9630 Cl  0  0  0  0  0  0  0  0  0  0  0  0
  187.8870  176.3540  145.9890 C   0  0  0  0  0  0  0  0  0  0  0  0
  185.1120  178.1310  147.6430 C   0  0  0  0  0  3  0  0  0  0  0  0
  186.0140  177.5500  145.0210 C   0  0  0  0  0  0  0  0  0  0  0  0
  188.3950  176.0570  144.7500 C   0  0  0  0  0  0  0  0  0  0  0  0
  190.7710  174.9540  146.8430 O   0  0  0  0  0  0  0  0  0  0  0  0
  189.6010  175.4520  144.9210 N   0  0  0  0  0  0  0  0  0  0  0  0
  192.1840  173.7410  142.8620 C   0  0  0  0  0  2  0  0  0  0  0  0
  188.6300  173.5770  142.6330 C   0  0  0  0  0  1  0  0  0  0  0  0
  186.2640  177.3770  147.4580 C   0  0  0  0  0  3  0  0  0  0  0  0
  186.7160  177.0820  146.1670 C   0  0  0  0  0  0  0  0  0  0  0  0
  189.0590  174.9420  142.0960 C   0  0  2  0  0  3  0  0  0  0  0  0
  185.5090  177.7750  140.1820 C   0  0  0  0  0  2  0  0  0  0  0  0
  183.1920  177.9660  140.3100 C   0  0  0  0  0  1  0  0  0  0  0  0
  184.4340  178.6430  140.6300 N   0  0  0  0  0  2  0  0  0  0  0  0
  1 19  1  0  0  0  0
  2 13  1  0  0  0  0
  4  1  2  0  0  0  0
  4 20  1  0  0  0  0
  5  1  1  0  0  0  0
  6  8  2  0  0  0  0
  7 15  1  6  0  0  0
  7  9  1  0  0  0  0
  8 11  1  0  0  0  0
  8 12  1  0  0  0  0
  9 14  1  6  0  0  0
  9 22  1  0  0  0  0
 10 21  2  0  0  0  0
 10  3  1  0  0  0  0
 11  5  2  0  0  0  0
 12  4  1  0  0  0  0
 13 18  2  0  0  0  0
 15 23  1  0  0  0  0
 16  2  1  0  0  0  0
 17 26  1  0  0  0  0
 17  3  1  0  0  0  0
 19  2  2  0  0  0  0
 19 26  1  0  0  0  0
 20 22  1  0  0  0  0
 20 17  2  0  0  0  0
 22 10  1  0  0  0  0
 23 14  1  0  0  0  0
 25 18  1  0  0  0  0
 26 25  2  0  0  0  0
 27 12  1  0  0  0  0
 27  7  1  0  0  0  0
 27 24  1  1  0  0  0
 28 30  1  0  0  0  0
 28 11  1  0  0  0  0
 29 30  1  0  0  0  0
M  END
>  <MODEL>
1

>  <REMARK>
 VINA RESULT:      -8.9      0.000      0.000
  Name = 
  2 active torsions:
  status: ('A' for Active; 'I' for Inactive)
    1  A    between atoms: C_11  and  C_28
    2  A    between atoms: C_28  and  N_30
                            x       y       z     vdW  Elec       q    Type
                         _______ _______ _______ _____ _____    ______ ____

>  <TORSDO>
F 2

$$$$
=
 OpenBabel11112416183D

 30 35  0  0  1  0  0  0  0  0999 V2000
  189.5500  175.4550  143.9220 C   0  0  0  0  0  0  0  0  0  0  0  0
  191.5280  174.6230  145.2530 C   0  0  0  0  0  0  0  0  0  0  0  0
  188.1390  177.5540  147.1680 N   0  0  0  0  0  2  0  0  0  0  0  0
  188.3700  176.2580  143.8470 C   0  0  0  0  0  0  0  0  0  0  0  0
  189.9320  174.7660  142.8170 N   0  0  0  0  0  0  0  0  0  0  0  0
  187.5570  175.7960  140.4330 O   0  0  0  0  0  0  0  0  0  0  0  0
  185.4550  177.1120  143.2170 C   0  0  1  0  0  3  0  0  0  0  0  0
  188.1590  175.6910  141.5400 C   0  0  0  0  0  0  0  0  0  0  0  0
  185.5010  177.6100  144.6500 C   0  0  2  0  0  3  0  0  0  0  0  0
  186.9800  177.9650  146.6130 C   0  0  0  0  0  0  0  0  0  0  0  0
  189.2630  174.8430  141.6450 C   0  0  0  0  0  0  0  0  0  0  0  0
  187.7460  176.4140  142.6280 N   0  0  0  0  0  0  0  0  0  0  0  0
  192.2390  174.6350  146.4560 C   0  0  0  0  0  3  0  0  0  0  0  0
  184.8770  178.9910  144.6220 C   0  0  0  0  0  2  0  0  0  0  0  0
  184.2590  177.8070  142.5860 C   0  0  0  0  0  2  0  0  0  0  0  0
  192.2210  173.6130  143.9870 Cl  0  0  0  0  0  0  0  0  0  0  0  0
  188.7250  176.8780  146.1640 C   0  0  0  0  0  0  0  0  0  0  0  0
  191.8020  175.3860  147.5420 C   0  0  0  0  0  3  0  0  0  0  0  0
  190.3310  175.3920  145.1220 C   0  0  0  0  0  0  0  0  0  0  0  0
  187.9500  176.9070  145.0330 C   0  0  0  0  0  0  0  0  0  0  0  0
  186.1090  178.5910  147.2730 O   0  0  0  0  0  0  0  0  0  0  0  0
  186.8140  177.5990  145.3150 N   0  0  0  0  0  0  0  0  0  0  0  0
  183.8330  178.9230  143.5280 C   0  0  0  0  0  2  0  0  0  0  0  0
  187.2430  178.8380  142.4920 C   0  0  0  0  0  1  0  0  0  0  0  0
  190.6380  176.1370  147.4420 C   0  0  0  0  0  3  0  0  0  0  0  0
  189.9060  176.1500  146.2490 C   0  0  0  0  0  0  0  0  0  0  0  0
  186.7040  177.4120  142.4020 C   0  0  2  0  0  3  0  0  0  0  0  0
  189.7290  174.0260  140.4850 C   0  0  0  0  0  2  0  0  0  0  0  0
  188.3790  172.5740  139.2650 C   0  0  0  0  0  1  0  0  0  0  0  0
  189.0920  172.7210  140.5190 N   0  0  0  0  0  2  0  0  0  0  0  0
  1 19  1  0  0  0  0
  2 13  1  0  0  0  0
  4  1  2  0  0  0  0
  4 20  1  0  0  0  0
  5  1  1  0  0  0  0
  6  8  2  0  0  0  0
  7 15  1  6  0  0  0
  7  9  1  0  0  0  0
  8 11  1  0  0  0  0
  8 12  1  0  0  0  0
  9 14  1  6  0  0  0
  9 22  1  0  0  0  0
 10  3  1  0  0  0  0
 10 21  2  0  0  0  0
 11  5  2  0  0  0  0
 12  4  1  0  0  0  0
 13 18  2  0  0  0  0
 15 23  1  0  0  0  0
 16  2  1  0  0  0  0
 17 26  1  0  0  0  0
 17  3  1  0  0  0  0
 19  2  2  0  0  0  0
 19 26  1  0  0  0  0
 20 22  1  0  0  0  0
 20 17  2  0  0  0  0
 22 10  1  0  0  0  0
 23 14  1  0  0  0  0
 25 18  1  0  0  0  0
 26 25  2  0  0  0  0
 27 24  1  1  0  0  0
 27 12  1  0  0  0  0
 27  7  1  0  0  0  0
 28 30  1  0  0  0  0
 28 11  1  0  0  0  0
 29 30  1  0  0  0  0
M  END
>  <MODEL>
2

>  <REMARK>
 VINA RESULT:      -8.3      2.749      5.601
  Name = 
  2 active torsions:
  status: ('A' for Active; 'I' for Inactive)
    1  A    between atoms: C_11  and  C_28
    2  A    between atoms: C_28  and  N_30
                            x       y       z     vdW  Elec       q    Type
                         _______ _______ _______ _____ _____    ______ ____

>  <TORSDO>
F 2

$$$$
=
 OpenBabel11112416183D

 30 35  0  0  1  0  0  0  0  0999 V2000
  187.3530  176.8440  143.2800 C   0  0  0  0  0  0  0  0  0  0  0  0
  185.1770  178.0950  143.5510 C   0  0  0  0  0  0  0  0  0  0  0  0
  188.4450  177.7360  147.1460 N   0  0  0  0  0  2  0  0  0  0  0  0
  188.5760  176.3690  143.8480 C   0  0  0  0  0  0  0  0  0  0  0  0
  187.0810  176.5340  141.9880 N   0  0  0  0  0  0  0  0  0  0  0  0
  189.7970  174.4720  141.1200 O   0  0  0  0  0  0  0  0  0  0  0  0
  191.5900  175.7020  144.1500 C   0  0  1  0  0  3  0  0  0  0  0  0
  189.0520  175.2270  141.8100 C   0  0  0  0  0  0  0  0  0  0  0  0
  191.3870  176.3170  145.5220 C   0  0  2  0  0  3  0  0  0  0  0  0
  189.6870  177.2120  147.0970 C   0  0  0  0  0  0  0  0  0  0  0  0
  187.8990  175.7650  141.2360 C   0  0  0  0  0  0  0  0  0  0  0  0
  189.3600  175.5050  143.1160 N   0  0  0  0  0  0  0  0  0  0  0  0
  184.3170  178.8160  144.3840 C   0  0  0  0  0  3  0  0  0  0  0  0
  192.0840  175.3860  146.4940 C   0  0  0  0  0  2  0  0  0  0  0  0
  192.8950  174.9260  144.2440 C   0  0  0  0  0  2  0  0  0  0  0  0
  184.5990  177.8660  141.9030 Cl  0  0  0  0  0  0  0  0  0  0  0  0
  187.9580  177.4600  145.9240 C   0  0  0  0  0  0  0  0  0  0  0  0
  184.6510  179.0760  145.7090 C   0  0  0  0  0  3  0  0  0  0  0  0
  186.4210  177.6080  144.0560 C   0  0  0  0  0  0  0  0  0  0  0  0
  188.8740  176.7670  145.1740 C   0  0  0  0  0  0  0  0  0  0  0  0
  190.4990  177.3260  148.0530 O   0  0  0  0  0  0  0  0  0  0  0  0
  190.0000  176.6090  145.9200 N   0  0  0  0  0  0  0  0  0  0  0  0
  193.2560  174.8220  145.7180 C   0  0  0  0  0  2  0  0  0  0  0  0
  190.0090  173.7340  144.7260 C   0  0  0  0  0  1  0  0  0  0  0  0
  185.8580  178.6180  146.2220 C   0  0  0  0  0  3  0  0  0  0  0  0
  186.7380  177.8880  145.4140 C   0  0  0  0  0  0  0  0  0  0  0  0
  190.4760  174.7680  143.7020 C   0  0  2  0  0  3  0  0  0  0  0  0
  187.5420  175.4990  139.8110 C   0  0  0  0  0  2  0  0  0  0  0  0
  186.5670  176.3390  137.8700 C   0  0  0  0  0  1  0  0  0  0  0  0
  186.8310  176.6420  139.2640 N   0  0  0  0  0  2  0  0  0  0  0  0
  1  4  2  0  0  0  0
  1 19  1  0  0  0  0
  2 19  2  0  0  0  0
  2 13  1  0  0  0  0
  4 20  1  0  0  0  0
  5  1  1  0  0  0  0
  6  8  2  0  0  0  0
  7 15  1  1  0  0  0
  7  9  1  0  0  0  0
  8 12  1  0  0  0  0
  9 22  1  0  0  0  0
  9 14  1  1  0  0  0
 10  3  1  0  0  0  0
 10 21  2  0  0  0  0
 11  8  1  0  0  0  0
 11  5  2  0  0  0  0
 12 27  1  0  0  0  0
 12  4  1  0  0  0  0
 13 18  2  0  0  0  0
 15 23  1  0  0  0  0
 16  2  1  0  0  0  0
 17  3  1  0  0  0  0
 18 25  1  0  0  0  0
 19 26  1  0  0  0  0
 20 22  1  0  0  0  0
 20 17  2  0  0  0  0
 22 10  1  0  0  0  0
 23 14  1  0  0  0  0
 26 17  1  0  0  0  0
 26 25  2  0  0  0  0
 27  7  1  0  0  0  0
 27 24  1  1  0  0  0
 28 11  1  0  0  0  0
 29 30  1  0  0  0  0
 30 28  1  0  0  0  0
M  END
>  <MODEL>
3

>  <REMARK>
 VINA RESULT:      -8.2      1.865      2.271
  Name = 
  2 active torsions:
  status: ('A' for Active; 'I' for Inactive)
    1  A    between atoms: C_11  and  C_28
    2  A    between atoms: C_28  and  N_30
                            x       y       z     vdW  Elec       q    Type
                         _______ _______ _______ _____ _____    ______ ____

>  <TORSDO>
F 2

$$$$
=
 OpenBabel11112416183D

 30 35  0  0  1  0  0  0  0  0999 V2000
  187.7600  176.5170  143.0430 C   0  0  0  0  0  0  0  0  0  0  0  0
  185.6470  177.8970  143.0010 C   0  0  0  0  0  0  0  0  0  0  0  0
  188.5770  177.7300  146.8900 N   0  0  0  0  0  2  0  0  0  0  0  0
  188.9010  176.0390  143.7600 C   0  0  0  0  0  0  0  0  0  0  0  0
  187.5790  176.0950  141.7670 N   0  0  0  0  0  0  0  0  0  0  0  0
  190.2320  173.8240  141.3410 O   0  0  0  0  0  0  0  0  0  0  0  0
  191.8360  175.2550  144.3890 C   0  0  1  0  0  3  0  0  0  0  0  0
  189.4790  174.6790  141.8880 C   0  0  0  0  0  0  0  0  0  0  0  0
  191.5550  176.0120  145.6740 C   0  0  2  0  0  3  0  0  0  0  0  0
  189.7860  177.1420  147.0000 C   0  0  0  0  0  0  0  0  0  0  0  0
  188.4100  175.2160  141.1660 C   0  0  0  0  0  0  0  0  0  0  0  0
  189.6920  175.0690  143.1840 N   0  0  0  0  0  0  0  0  0  0  0  0
  184.7640  178.7390  143.6830 C   0  0  0  0  0  3  0  0  0  0  0  0
  192.1140  175.1480  146.7860 C   0  0  0  0  0  2  0  0  0  0  0  0
  193.0800  174.4270  144.6710 C   0  0  0  0  0  2  0  0  0  0  0  0
  185.1960  177.5360  141.3370 Cl  0  0  0  0  0  0  0  0  0  0  0  0
  188.1780  177.3600  145.6610 C   0  0  0  0  0  0  0  0  0  0  0  0
  185.0010  179.1110  145.0030 C   0  0  0  0  0  3  0  0  0  0  0  0
  186.8140  177.4000  143.6580 C   0  0  0  0  0  0  0  0  0  0  0  0
  189.1110  176.5510  145.0630 C   0  0  0  0  0  0  0  0  0  0  0  0
  190.5200  177.3090  148.0100 O   0  0  0  0  0  0  0  0  0  0  0  0
  190.1600  176.4110  145.9170 N   0  0  0  0  0  0  0  0  0  0  0  0
  193.3110  174.4520  146.1740 C   0  0  0  0  0  2  0  0  0  0  0  0
  190.1000  173.4350  145.0050 C   0  0  0  0  0  1  0  0  0  0  0  0
  186.1320  178.6460  145.6620 C   0  0  0  0  0  3  0  0  0  0  0  0
  187.0320  177.7970  145.0070 C   0  0  0  0  0  0  0  0  0  0  0  0
  190.7100  174.3380  143.9340 C   0  0  2  0  0  3  0  0  0  0  0  0
  188.1590  174.8290  139.7460 C   0  0  0  0  0  2  0  0  0  0  0  0
  188.4630  172.9800  138.3640 C   0  0  0  0  0  1  0  0  0  0  0  0
  187.9590  173.3930  139.6590 N   0  0  0  0  0  2  0  0  0  0  0  0
  1 19  2  0  0  0  0
  1  4  1  0  0  0  0
  2 19  1  0  0  0  0
  2 13  2  0  0  0  0
  3 10  1  0  0  0  0
  4 20  2  0  0  0  0
  5  1  1  0  0  0  0
  6  8  2  0  0  0  0
  7 15  1  1  0  0  0
  7  9  1  0  0  0  0
  8 12  1  0  0  0  0
  9 22  1  0  0  0  0
  9 14  1  1  0  0  0
 10 21  2  0  0  0  0
 11  5  2  0  0  0  0
 11  8  1  0  0  0  0
 12  4  1  0  0  0  0
 12 27  1  0  0  0  0
 13 18  1  0  0  0  0
 15 23  1  0  0  0  0
 16  2  1  0  0  0  0
 17  3  1  0  0  0  0
 18 25  2  0  0  0  0
 19 26  1  0  0  0  0
 20 17  1  0  0  0  0
 20 22  1  0  0  0  0
 22 10  1  0  0  0  0
 23 14  1  0  0  0  0
 26 17  2  0  0  0  0
 26 25  1  0  0  0  0
 27  7  1  0  0  0  0
 27 24  1  1  0  0  0
 28 11  1  0  0  0  0
 29 30  1  0  0  0  0
 30 28  1  0  0  0  0
M  END
>  <MODEL>
4

>  <REMARK>
 VINA RESULT:      -7.9      2.035      3.022
  Name = 
  2 active torsions:
  status: ('A' for Active; 'I' for Inactive)
    1  A    between atoms: C_11  and  C_28
    2  A    between atoms: C_28  and  N_30
                            x       y       z     vdW  Elec       q    Type
                         _______ _______ _______ _____ _____    ______ ____

>  <TORSDO>
F 2

$$$$
=
 OpenBabel11112416183D

 30 35  0  0  1  0  0  0  0  0999 V2000
  187.9680  176.4060  144.6160 C   0  0  0  0  0  0  0  0  0  0  0  0
  186.5600  178.3300  145.4470 C   0  0  0  0  0  0  0  0  0  0  0  0
  186.8080  177.1230  140.7330 N   0  0  0  0  0  2  0  0  0  0  0  0
  188.4690  175.6330  143.5230 C   0  0  0  0  0  0  0  0  0  0  0  0
  188.3740  176.0860  145.8700 N   0  0  0  0  0  0  0  0  0  0  0  0
  190.6750  173.4910  145.2770 O   0  0  0  0  0  0  0  0  0  0  0  0
  189.2990  173.1720  141.8260 C   0  0  1  0  0  3  0  0  0  0  0  0
  189.8160  174.3910  145.0500 C   0  0  0  0  0  0  0  0  0  0  0  0
  188.5520  173.9190  140.7370 C   0  0  2  0  0  3  0  0  0  0  0  0
  187.4130  176.0540  140.1750 C   0  0  0  0  0  0  0  0  0  0  0  0
  189.2570  175.0950  146.1180 C   0  0  0  0  0  0  0  0  0  0  0  0
  189.4430  174.6890  143.7650 N   0  0  0  0  0  0  0  0  0  0  0  0
  185.7140  179.4010  145.1440 C   0  0  0  0  0  3  0  0  0  0  0  0
  189.4360  173.8390  139.5080 C   0  0  0  0  0  2  0  0  0  0  0  0
  190.1460  172.1380  141.1000 C   0  0  0  0  0  2  0  0  0  0  0  0
  186.8970  178.1100  147.1620 Cl  0  0  0  0  0  0  0  0  0  0  0  0
  187.1600  177.0210  142.0260 C   0  0  0  0  0  0  0  0  0  0  0  0
  185.3600  179.6870  143.8290 C   0  0  0  0  0  3  0  0  0  0  0  0
  187.0800  177.5100  144.3990 C   0  0  0  0  0  0  0  0  0  0  0  0
  187.9750  175.9370  142.2320 C   0  0  0  0  0  0  0  0  0  0  0  0
  187.2670  175.7630  138.9590 O   0  0  0  0  0  0  0  0  0  0  0  0
  188.1370  175.2980  141.0420 N   0  0  0  0  0  0  0  0  0  0  0  0
  190.1410  172.5040  139.6230 C   0  0  0  0  0  2  0  0  0  0  0  0
  191.1020  175.0260  141.9530 C   0  0  0  0  0  1  0  0  0  0  0  0
  185.8470  178.9000  142.7930 C   0  0  0  0  0  3  0  0  0  0  0  0
  186.7010  177.8240  143.0640 C   0  0  0  0  0  0  0  0  0  0  0  0
  190.1950  174.0430  142.6930 C   0  0  2  0  0  3  0  0  0  0  0  0
  189.6250  174.7840  147.5320 C   0  0  0  0  0  2  0  0  0  0  0  0
  190.9930  176.6200  147.9550 C   0  0  0  0  0  1  0  0  0  0  0  0
  191.0010  175.1810  147.7770 N   0  0  0  0  0  2  0  0  0  0  0  0
  1  5  1  0  0  0  0
  2 16  1  0  0  0  0
  3 17  1  0  0  0  0
  4 12  1  0  0  0  0
  4  1  2  0  0  0  0
  5 11  2  0  0  0  0
  7 15  1  6  0  0  0
  7 27  1  0  0  0  0
  8  6  2  0  0  0  0
  8 11  1  0  0  0  0
  9 14  1  6  0  0  0
  9 22  1  0  0  0  0
  9  7  1  0  0  0  0
 10  3  1  0  0  0  0
 10 22  1  0  0  0  0
 11 28  1  0  0  0  0
 12  8  1  0  0  0  0
 13  2  1  0  0  0  0
 14 23  1  0  0  0  0
 17 20  2  0  0  0  0
 17 26  1  0  0  0  0
 18 13  2  0  0  0  0
 19  1  1  0  0  0  0
 19  2  2  0  0  0  0
 20  4  1  0  0  0  0
 21 10  2  0  0  0  0
 22 20  1  0  0  0  0
 23 15  1  0  0  0  0
 25 26  2  0  0  0  0
 25 18  1  0  0  0  0
 26 19  1  0  0  0  0
 27 24  1  6  0  0  0
 27 12  1  0  0  0  0
 28 30  1  0  0  0  0
 30 29  1  0  0  0  0
M  END
>  <MODEL>
5

>  <REMARK>
 VINA RESULT:      -7.9      1.899      5.193
  Name = 
  2 active torsions:
  status: ('A' for Active; 'I' for Inactive)
    1  A    between atoms: C_11  and  C_28
    2  A    between atoms: C_28  and  N_30
                            x       y       z     vdW  Elec       q    Type
                         _______ _______ _______ _____ _____    ______ ____

>  <TORSDO>
F 2

$$$$
=
 OpenBabel11112416183D

 30 35  0  0  1  0  0  0  0  0999 V2000
  188.6460  176.0500  144.0590 C   0  0  0  0  0  0  0  0  0  0  0  0
  186.3220  176.8250  144.6680 C   0  0  0  0  0  0  0  0  0  0  0  0
  190.0890  177.2140  147.7330 N   0  0  0  0  0  2  0  0  0  0  0  0
  190.0110  175.8490  144.4320 C   0  0  0  0  0  0  0  0  0  0  0  0
  188.2560  175.6690  142.8170 N   0  0  0  0  0  0  0  0  0  0  0  0
  191.1830  174.2040  141.5250 O   0  0  0  0  0  0  0  0  0  0  0  0
  193.1100  175.8300  144.2720 C   0  0  1  0  0  3  0  0  0  0  0  0
  190.4080  174.7980  142.3280 C   0  0  0  0  0  0  0  0  0  0  0  0
  192.9880  176.4120  145.6690 C   0  0  2  0  0  3  0  0  0  0  0  0
  191.3920  176.9600  147.4910 C   0  0  0  0  0  0  0  0  0  0  0  0
  189.0950  175.0740  141.9410 C   0  0  0  0  0  0  0  0  0  0  0  0
  190.8410  175.1550  143.5780 N   0  0  0  0  0  0  0  0  0  0  0  0
  185.4640  177.3650  145.6300 C   0  0  0  0  0  3  0  0  0  0  0  0
  194.0000  175.6640  146.5120 C   0  0  0  0  0  2  0  0  0  0  0  0
  194.5460  175.3440  144.1610 C   0  0  0  0  0  2  0  0  0  0  0  0
  185.5660  176.4530  143.1210 Cl  0  0  0  0  0  0  0  0  0  0  0  0
  189.4950  176.8220  146.5920 C   0  0  0  0  0  0  0  0  0  0  0  0
  185.9290  177.7110  146.8950 C   0  0  0  0  0  3  0  0  0  0  0  0
  187.7010  176.6160  144.9750 C   0  0  0  0  0  0  0  0  0  0  0  0
  190.4130  176.3230  145.7040 C   0  0  0  0  0  0  0  0  0  0  0  0
  192.2950  177.2560  148.3180 O   0  0  0  0  0  0  0  0  0  0  0  0
  191.6450  176.4160  146.2720 N   0  0  0  0  0  0  0  0  0  0  0  0
  195.1360  175.3430  145.5630 C   0  0  0  0  0  2  0  0  0  0  0  0
  192.0760  173.5860  145.0480 C   0  0  0  0  0  1  0  0  0  0  0  0
  187.2680  177.5220  147.2160 C   0  0  0  0  0  3  0  0  0  0  0  0
  188.1500  176.9790  146.2760 C   0  0  0  0  0  0  0  0  0  0  0  0
  192.1610  174.6770  143.9820 C   0  0  2  0  0  3  0  0  0  0  0  0
  188.5950  174.7160  140.5800 C   0  0  0  0  0  2  0  0  0  0  0  0
  188.2570  172.8890  139.1760 C   0  0  0  0  0  1  0  0  0  0  0  0
  188.1920  173.3210  140.5590 N   0  0  0  0  0  2  0  0  0  0  0  0
  1  4  2  0  0  0  0
  1 19  1  0  0  0  0
  2 19  2  0  0  0  0
  2 13  1  0  0  0  0
  4 20  1  0  0  0  0
  5  1  1  0  0  0  0
  6  8  2  0  0  0  0
  7 15  1  1  0  0  0
  7  9  1  0  0  0  0
  8 12  1  0  0  0  0
  9 22  1  0  0  0  0
  9 14  1  1  0  0  0
 10  3  1  0  0  0  0
 10 21  2  0  0  0  0
 11  8  1  0  0  0  0
 11  5  2  0  0  0  0
 12 27  1  0  0  0  0
 12  4  1  0  0  0  0
 13 18  2  0  0  0  0
 15 23  1  0  0  0  0
 16  2  1  0  0  0  0
 17  3  1  0  0  0  0
 18 25  1  0  0  0  0
 19 26  1  0  0  0  0
 20 22  1  0  0  0  0
 20 17  2  0  0  0  0
 22 10  1  0  0  0  0
 23 14  1  0  0  0  0
 26 17  1  0  0  0  0
 26 25  2  0  0  0  0
 27  7  1  0  0  0  0
 27 24  1  1  0  0  0
 28 11  1  0  0  0  0
 29 30  1  0  0  0  0
 30 28  1  0  0  0  0
M  END
>  <MODEL>
6

>  <REMARK>
 VINA RESULT:      -7.8      2.392      3.427
  Name = 
  2 active torsions:
  status: ('A' for Active; 'I' for Inactive)
    1  A    between atoms: C_11  and  C_28
    2  A    between atoms: C_28  and  N_30
                            x       y       z     vdW  Elec       q    Type
                         _______ _______ _______ _____ _____    ______ ____

>  <TORSDO>
F 2

$$$$
=
 OpenBabel11112416183D

 30 35  0  0  1  0  0  0  0  0999 V2000
  186.5330  176.8660  144.0230 C   0  0  0  0  0  0  0  0  0  0  0  0
  184.6530  178.2070  143.0020 C   0  0  0  0  0  0  0  0  0  0  0  0
  187.8160  175.6710  140.3000 N   0  0  0  0  0  2  0  0  0  0  0  0
  187.6870  176.0410  143.8510 C   0  0  0  0  0  0  0  0  0  0  0  0
  186.1550  177.1900  145.2850 N   0  0  0  0  0  0  0  0  0  0  0  0
  188.6960  175.7260  147.2290 O   0  0  0  0  0  0  0  0  0  0  0  0
  189.6990  173.7130  144.2540 C   0  0  1  0  0  3  0  0  0  0  0  0
  188.0240  176.0600  146.2120 C   0  0  0  0  0  0  0  0  0  0  0  0
  189.6480  173.6690  142.7380 C   0  0  2  0  0  3  0  0  0  0  0  0
  188.7780  174.8210  140.7170 C   0  0  0  0  0  0  0  0  0  0  0  0
  186.8480  176.7950  146.3750 C   0  0  0  0  0  0  0  0  0  0  0  0
  188.4490  175.7210  144.9540 N   0  0  0  0  0  0  0  0  0  0  0  0
  184.0110  178.6650  141.8480 C   0  0  0  0  0  3  0  0  0  0  0  0
  191.0880  173.5400  142.2850 C   0  0  0  0  0  2  0  0  0  0  0  0
  190.9470  172.9340  144.6390 C   0  0  0  0  0  2  0  0  0  0  0  0
  183.9340  178.7440  144.5170 Cl  0  0  0  0  0  0  0  0  0  0  0  0
  187.3420  176.1710  141.4540 C   0  0  0  0  0  0  0  0  0  0  0  0
  184.4700  178.3130  140.5820 C   0  0  0  0  0  3  0  0  0  0  0  0
  185.8020  177.3650  142.8960 C   0  0  0  0  0  0  0  0  0  0  0  0
  188.0190  175.6550  142.5300 C   0  0  0  0  0  0  0  0  0  0  0  0
  189.4250  174.0990  139.9130 O   0  0  0  0  0  0  0  0  0  0  0  0
  188.9440  174.7730  142.0650 N   0  0  0  0  0  0  0  0  0  0  0  0
  191.7670  172.7360  143.3740 C   0  0  0  0  0  2  0  0  0  0  0  0
  190.7910  176.0610  144.2140 C   0  0  0  0  0  1  0  0  0  0  0  0
  185.5820  177.4900  140.4530 C   0  0  0  0  0  3  0  0  0  0  0  0
  186.2490  177.0200  141.5900 C   0  0  0  0  0  0  0  0  0  0  0  0
  189.7720  175.1130  144.8450 C   0  0  2  0  0  3  0  0  0  0  0  0
  186.3450  177.1650  147.7320 C   0  0  0  0  0  2  0  0  0  0  0  0
  186.3160  179.4760  148.0130 C   0  0  0  0  0  1  0  0  0  0  0  0
  185.4980  178.3410  147.6340 N   0  0  0  0  0  2  0  0  0  0  0  0
  1  5  1  0  0  0  0
  2 16  1  0  0  0  0
  3 10  1  0  0  0  0
  3 17  1  0  0  0  0
  4  1  1  0  0  0  0
  4 12  1  0  0  0  0
  5 11  2  0  0  0  0
  7 15  1  6  0  0  0
  7 27  1  0  0  0  0
  8 11  1  0  0  0  0
  8  6  2  0  0  0  0
  9 14  1  6  0  0  0
  9  7  1  0  0  0  0
 10 22  1  0  0  0  0
 11 28  1  0  0  0  0
 12  8  1  0  0  0  0
 13  2  2  0  0  0  0
 14 23  1  0  0  0  0
 17 26  2  0  0  0  0
 17 20  1  0  0  0  0
 18 13  1  0  0  0  0
 19  2  1  0  0  0  0
 19  1  2  0  0  0  0
 20  4  2  0  0  0  0
 21 10  2  0  0  0  0
 22 20  1  0  0  0  0
 22  9  1  0  0  0  0
 23 15  1  0  0  0  0
 25 18  2  0  0  0  0
 25 26  1  0  0  0  0
 26 19  1  0  0  0  0
 27 24  1  6  0  0  0
 27 12  1  0  0  0  0
 30 28  1  0  0  0  0
 30 29  1  0  0  0  0
M  END
>  <MODEL>
7

>  <REMARK>
 VINA RESULT:      -7.6      1.648      4.707
  Name = 
  2 active torsions:
  status: ('A' for Active; 'I' for Inactive)
    1  A    between atoms: C_11  and  C_28
    2  A    between atoms: C_28  and  N_30
                            x       y       z     vdW  Elec       q    Type
                         _______ _______ _______ _____ _____    ______ ____

>  <TORSDO>
F 2

$$$$
=
 OpenBabel11112416183D

 30 35  0  0  1  0  0  0  0  0999 V2000
  188.1830  176.0820  142.1620 C   0  0  0  0  0  0  0  0  0  0  0  0
  186.2410  177.6690  141.8670 C   0  0  0  0  0  0  0  0  0  0  0  0
  188.9250  177.5550  145.9330 N   0  0  0  0  0  2  0  0  0  0  0  0
  189.2240  175.5550  142.9880 C   0  0  0  0  0  0  0  0  0  0  0  0
  188.0240  175.5650  140.9190 N   0  0  0  0  0  0  0  0  0  0  0  0
  190.4260  172.9950  140.8590 O   0  0  0  0  0  0  0  0  0  0  0  0
  192.0160  174.5250  143.8660 C   0  0  1  0  0  3  0  0  0  0  0  0
  189.7440  173.9720  141.2810 C   0  0  0  0  0  0  0  0  0  0  0  0
  191.7530  175.4240  145.0600 C   0  0  2  0  0  3  0  0  0  0  0  0
  190.0530  176.8550  146.1690 C   0  0  0  0  0  0  0  0  0  0  0  0
  188.7820  174.5500  140.4500 C   0  0  0  0  0  0  0  0  0  0  0  0
  189.9310  174.4560  142.5500 N   0  0  0  0  0  0  0  0  0  0  0  0
  185.4230  178.6590  142.4170 C   0  0  0  0  0  3  0  0  0  0  0  0
  192.1520  174.6140  146.2760 C   0  0  0  0  0  2  0  0  0  0  0  0
  193.1430  173.6000  144.2960 C   0  0  0  0  0  2  0  0  0  0  0  0
  185.8410  177.2040  140.2160 Cl  0  0  0  0  0  0  0  0  0  0  0  0
  188.5530  177.1160  144.7180 C   0  0  0  0  0  0  0  0  0  0  0  0
  185.6300  179.1260  143.7120 C   0  0  0  0  0  3  0  0  0  0  0  0
  187.3090  177.1140  142.6370 C   0  0  0  0  0  0  0  0  0  0  0  0
  189.4200  176.1600  144.2530 C   0  0  0  0  0  0  0  0  0  0  0  0
  190.7470  177.0360  147.2050 O   0  0  0  0  0  0  0  0  0  0  0  0
  190.4000  175.9910  145.1800 N   0  0  0  0  0  0  0  0  0  0  0  0
  193.2950  173.7400  145.8040 C   0  0  0  0  0  2  0  0  0  0  0  0
  190.0570  172.9660  144.5280 C   0  0  0  0  0  1  0  0  0  0  0  0
  186.6660  178.6060  144.4780 C   0  0  0  0  0  3  0  0  0  0  0  0
  187.4980  177.6100  143.9580 C   0  0  0  0  0  0  0  0  0  0  0  0
  190.8210  173.6950  143.4230 C   0  0  2  0  0  3  0  0  0  0  0  0
  188.5650  174.0610  139.0560 C   0  0  0  0  0  2  0  0  0  0  0  0
  188.0930  174.9150  136.9420 C   0  0  0  0  0  1  0  0  0  0  0  0
  187.7120  174.9930  138.3390 N   0  0  0  0  0  2  0  0  0  0  0  0
  1 19  2  0  0  0  0
  1  4  1  0  0  0  0
  2 13  2  0  0  0  0
  2 19  1  0  0  0  0
  3 10  1  0  0  0  0
  4 20  2  0  0  0  0
  5  1  1  0  0  0  0
  6  8  2  0  0  0  0
  7 15  1  1  0  0  0
  7  9  1  0  0  0  0
  8 12  1  0  0  0  0
  9 22  1  0  0  0  0
  9 14  1  1  0  0  0
 10 21  2  0  0  0  0
 11  5  2  0  0  0  0
 11  8  1  0  0  0  0
 12  4  1  0  0  0  0
 12 27  1  0  0  0  0
 13 18  1  0  0  0  0
 15 23  1  0  0  0  0
 16  2  1  0  0  0  0
 17  3  1  0  0  0  0
 18 25  2  0  0  0  0
 19 26  1  0  0  0  0
 20 17  1  0  0  0  0
 20 22  1  0  0  0  0
 22 10  1  0  0  0  0
 23 14  1  0  0  0  0
 26 25  1  0  0  0  0
 26 17  2  0  0  0  0
 27  7  1  0  0  0  0
 27 24  1  1  0  0  0
 28 11  1  0  0  0  0
 29 30  1  0  0  0  0
 30 28  1  0  0  0  0
M  END
>  <MODEL>
8

>  <REMARK>
 VINA RESULT:      -7.6      2.352      3.284
  Name = 
  2 active torsions:
  status: ('A' for Active; 'I' for Inactive)
    1  A    between atoms: C_11  and  C_28
    2  A    between atoms: C_28  and  N_30
                            x       y       z     vdW  Elec       q    Type
                         _______ _______ _______ _____ _____    ______ ____

>  <TORSDO>
F 2

$$$$
=
 OpenBabel11112416183D

 30 35  0  0  1  0  0  0  0  0999 V2000
  191.6440  175.1090  143.4450 C   0  0  0  0  0  0  0  0  0  0  0  0
  192.4710  174.0440  141.3100 C   0  0  0  0  0  0  0  0  0  0  0  0
  187.7650  175.0490  142.0720 N   0  0  0  0  0  2  0  0  0  0  0  0
  190.5530  175.5750  144.2420 C   0  0  0  0  0  0  0  0  0  0  0  0
  192.8970  175.1920  143.9570 N   0  0  0  0  0  0  0  0  0  0  0  0
  192.3060  176.4370  147.1940 O   0  0  0  0  0  0  0  0  0  0  0  0
  188.8680  177.3920  146.1100 C   0  0  1  0  0  3  0  0  0  0  0  0
  192.0780  176.0390  146.0160 C   0  0  0  0  0  0  0  0  0  0  0  0
  187.7790  177.0850  145.0980 C   0  0  2  0  0  3  0  0  0  0  0  0
  187.2100  175.7240  143.1000 C   0  0  0  0  0  0  0  0  0  0  0  0
  193.1460  175.6610  145.1990 C   0  0  0  0  0  0  0  0  0  0  0  0
  190.7950  175.9590  145.5440 N   0  0  0  0  0  0  0  0  0  0  0  0
  192.1670  173.4880  140.0650 C   0  0  0  0  0  3  0  0  0  0  0  0
  186.5440  176.7610  145.9150 C   0  0  0  0  0  2  0  0  0  0  0  0
  188.1430  177.9250  147.3360 C   0  0  0  0  0  2  0  0  0  0  0  0
  194.1840  174.0660  141.7170 Cl  0  0  0  0  0  0  0  0  0  0  0  0
  189.0560  174.9640  142.4350 C   0  0  0  0  0  0  0  0  0  0  0  0
  190.8520  173.4120  139.6140 C   0  0  0  0  0  3  0  0  0  0  0  0
  191.4260  174.5420  142.1470 C   0  0  0  0  0  0  0  0  0  0  0  0
  189.2630  175.5470  143.6590 C   0  0  0  0  0  0  0  0  0  0  0  0
  185.9970  176.0620  143.1010 O   0  0  0  0  0  0  0  0  0  0  0  0
  188.0770  176.0510  144.0940 N   0  0  0  0  0  0  0  0  0  0  0  0
  186.6640  177.6190  147.1570 C   0  0  0  0  0  2  0  0  0  0  0  0
  188.9670  174.9130  146.8530 C   0  0  0  0  0  1  0  0  0  0  0  0
  189.8190  173.8960  140.4060 C   0  0  0  0  0  3  0  0  0  0  0  0
  190.0910  174.4530  141.6600 C   0  0  0  0  0  0  0  0  0  0  0  0
  189.7210  176.1960  146.5050 C   0  0  2  0  0  3  0  0  0  0  0  0
  194.5590  175.7520  145.6740 C   0  0  0  0  0  2  0  0  0  0  0  0
  196.4490  174.8550  144.6520 C   0  0  0  0  0  1  0  0  0  0  0  0
  195.4490  175.8990  144.5360 N   0  0  0  0  0  2  0  0  0  0  0  0
  1  5  1  0  0  0  0
  1  4  1  0  0  0  0
  2 16  1  0  0  0  0
  2 19  1  0  0  0  0
  3 17  1  0  0  0  0
  3 10  1  0  0  0  0
  4 12  1  0  0  0  0
  5 11  2  0  0  0  0
  7 27  1  0  0  0  0
  7 15  1  1  0  0  0
  8  6  2  0  0  0  0
  9 14  1  1  0  0  0
  9  7  1  0  0  0  0
 10 21  2  0  0  0  0
 10 22  1  0  0  0  0
 11 28  1  0  0  0  0
 11  8  1  0  0  0  0
 12  8  1  0  0  0  0
 12 27  1  0  0  0  0
 13  2  2  0  0  0  0
 14 23  1  0  0  0  0
 17 20  1  0  0  0  0
 18 13  1  0  0  0  0
 18 25  2  0  0  0  0
 19  1  2  0  0  0  0
 20 22  1  0  0  0  0
 20  4  2  0  0  0  0
 22  9  1  0  0  0  0
 23 15  1  0  0  0  0
 25 26  1  0  0  0  0
 26 19  1  0  0  0  0
 26 17  2  0  0  0  0
 27 24  1  6  0  0  0
 30 29  1  0  0  0  0
 30 28  1  0  0  0  0
M  END
>  <MODEL>
9

>  <REMARK>
 VINA RESULT:      -7.5      3.113      7.584
  Name = 
  2 active torsions:
  status: ('A' for Active; 'I' for Inactive)
    1  A    between atoms: C_11  and  C_28
    2  A    between atoms: C_28  and  N_30
                            x       y       z     vdW  Elec       q    Type
                         _______ _______ _______ _____ _____    ______ ____

>  <TORSDO>
F 2

$$$$
