=
 OpenBabel11112416393D

 32 38  0  0  1  0  0  0  0  0999 V2000
  185.5080  179.3090  143.6170 C   0  0  1  0  0  3  0  0  0  0  0  0
  188.8850  175.2580  143.4640 C   0  0  0  0  0  0  0  0  0  0  0  0
  192.0230  176.4490  146.9810 C   0  0  0  0  0  3  0  0  0  0  0  0
  192.8420  175.2630  146.6780 C   0  0  0  0  0  3  0  0  0  0  0  0
  189.3100  173.2850  141.9740 C   0  0  0  0  0  0  0  0  0  0  0  0
  190.2560  172.2350  141.6190 C   0  0  0  0  0  0  0  0  0  0  0  0
  186.7580  176.5900  143.2530 C   0  0  1  0  0  3  0  0  0  0  0  0
  188.2720  177.0560  145.1430 C   0  0  0  0  0  2  0  0  0  0  0  0
  192.0690  171.0220  141.6920 N   0  0  0  0  0  0  0  0  0  0  0  0
  186.5580  178.7980  144.6040 C   0  0  2  0  0  3  0  0  0  0  0  0
  190.8000  176.5920  146.4610 C   0  0  0  0  0  3  0  0  0  0  0  0
  189.2110  176.0400  144.6440 N   0  0  0  0  0  0  0  0  0  0  0  0
  190.1580  175.5030  145.6280 C   0  0  1  0  0  3  0  0  0  0  0  0
  190.9130  173.9010  143.8870 C   0  0  0  0  0  0  0  0  0  0  0  0
  191.2450  170.5760  140.7200 C   0  0  0  0  0  3  0  0  0  0  0  0
  185.5720  178.6260  142.2340 C   0  0  0  0  0  2  0  0  0  0  0  0
  187.4730  177.7000  144.0260 C   0  0  2  0  0  3  0  0  0  0  0  0
  190.1060  171.3090  140.6500 N   0  0  0  0  0  0  0  0  0  0  0  0
  185.7180  177.0990  142.2520 C   0  0  0  0  0  2  0  0  0  0  0  0
  185.0990  178.3830  144.7550 C   0  0  1  0  0  3  0  0  0  0  0  0
  192.4610  174.3910  145.7430 C   0  0  0  0  0  3  0  0  0  0  0  0
  191.1880  174.5850  145.0100 C   0  0  0  0  0  0  0  0  0  0  0  0
  191.9650  172.9480  143.3400 C   0  0  0  0  0  2  0  0  0  0  0  0
  187.7930  175.7440  142.5380 C   0  0  0  0  0  2  0  0  0  0  0  0
  188.2220  173.3720  141.3410 O   0  0  0  0  0  0  0  0  0  0  0  0
  193.3770  170.4850  142.0280 C   0  0  0  0  0  1  0  0  0  0  0  0
  189.6500  174.1900  143.1190 C   0  0  0  0  0  0  0  0  0  0  0  0
  191.4410  172.0580  142.2600 C   0  0  0  0  0  0  0  0  0  0  0  0
  184.5090  179.1350  145.7730 O   0  0  0  0  0  0  0  0  0  0  0  0
  184.5800  178.3220  146.9060 C   0  0  0  0  0  3  0  0  0  0  0  0
  185.7360  178.7680  147.7770 C   0  0  0  0  0  1  0  0  0  0  0  0
  184.7970  176.8830  146.4840 C   0  0  0  0  0  1  0  0  0  0  0  0
  1 16  1  6  0  0  0
  1 10  1  0  0  0  0
  1 20  1  0  0  0  0
  2 12  1  0  0  0  0
  4  3  1  0  0  0  0
  5 27  1  0  0  0  0
  6  5  1  0  0  0  0
  6 28  2  0  0  0  0
  7 19  1  6  0  0  0
  7 17  1  0  0  0  0
  9 26  1  0  0  0  0
  9 28  1  0  0  0  0
 10 20  1  0  0  0  0
 11  3  2  0  0  0  0
 12  8  1  0  0  0  0
 12 13  1  0  0  0  0
 13 11  1  0  0  0  0
 14 22  2  0  0  0  0
 15  9  1  0  0  0  0
 16 19  1  0  0  0  0
 17 10  1  0  0  0  0
 17  8  1  0  0  0  0
 18 15  2  0  0  0  0
 18  6  1  0  0  0  0
 20 29  1  0  0  0  0
 21  4  2  0  0  0  0
 22 13  1  0  0  0  0
 22 21  1  0  0  0  0
 23 14  1  0  0  0  0
 24  7  1  0  0  0  0
 24  2  1  0  0  0  0
 25  5  2  0  0  0  0
 27  2  2  0  0  0  0
 27 14  1  0  0  0  0
 28 23  1  0  0  0  0
 29 30  1  0  0  0  0
 30 31  1  0  0  0  0
 32 30  1  0  0  0  0
M  END
>  <MODEL>
1

>  <REMARK>
 VINA RESULT:      -9.1      0.000      0.000
  Name = 
  2 active torsions:
  status: ('A' for Active; 'I' for Inactive)
    1  A    between atoms: C_20  and  O_29
    2  A    between atoms: O_29  and  C_30
                            x       y       z     vdW  Elec       q    Type
                         _______ _______ _______ _____ _____    ______ ____

>  <TORSDO>
F 2

$$$$
=
 OpenBabel11112416393D

 32 38  0  0  1  0  0  0  0  0999 V2000
  184.7890  177.6030  146.8420 C   0  0  1  0  0  3  0  0  0  0  0  0
  189.5120  176.0210  145.1030 C   0  0  0  0  0  0  0  0  0  0  0  0
  188.2940  173.3130  141.2540 C   0  0  0  0  0  3  0  0  0  0  0  0
  189.7070  172.9600  141.0300 C   0  0  0  0  0  3  0  0  0  0  0  0
  191.8850  176.1210  145.9070 C   0  0  0  0  0  0  0  0  0  0  0  0
  193.2330  175.5930  145.7310 C   0  0  0  0  0  0  0  0  0  0  0  0
  187.7270  177.4240  146.1940 C   0  0  1  0  0  3  0  0  0  0  0  0
  187.1760  176.1900  144.1310 C   0  0  0  0  0  2  0  0  0  0  0  0
  194.8570  174.4080  144.8810 N   0  0  0  0  0  0  0  0  0  0  0  0
  185.2560  177.0060  145.5150 C   0  0  2  0  0  3  0  0  0  0  0  0
  187.9540  174.2840  142.1050 C   0  0  0  0  0  3  0  0  0  0  0  0
  188.5360  175.6310  144.0990 N   0  0  0  0  0  0  0  0  0  0  0  0
  188.9960  175.1370  142.7960 C   0  0  1  0  0  3  0  0  0  0  0  0
  191.2200  174.7540  143.8340 C   0  0  0  0  0  0  0  0  0  0  0  0
  195.3120  175.1610  145.9050 C   0  0  0  0  0  3  0  0  0  0  0  0
  185.8610  177.5670  147.9520 C   0  0  0  0  0  2  0  0  0  0  0  0
  186.7080  176.4860  145.5440 C   0  0  2  0  0  3  0  0  0  0  0  0
  194.3250  175.9120  146.4540 N   0  0  0  0  0  0  0  0  0  0  0  0
  187.2690  178.0100  147.5310 C   0  0  0  0  0  2  0  0  0  0  0  0
  185.1290  178.5170  145.6710 C   0  0  1  0  0  3  0  0  0  0  0  0
  190.6690  173.4750  141.7990 C   0  0  0  0  0  3  0  0  0  0  0  0
  190.3340  174.4380  142.8740 C   0  0  0  0  0  0  0  0  0  0  0  0
  192.5740  174.0600  143.8310 C   0  0  0  0  0  2  0  0  0  0  0  0
  189.0340  176.6760  146.3790 C   0  0  0  0  0  2  0  0  0  0  0  0
  191.6730  176.9720  146.8130 O   0  0  0  0  0  0  0  0  0  0  0  0
  195.6350  173.4760  144.0850 C   0  0  0  0  0  1  0  0  0  0  0  0
  190.8150  175.6660  144.9620 C   0  0  0  0  0  0  0  0  0  0  0  0
  193.5530  174.6890  144.7680 C   0  0  0  0  0  0  0  0  0  0  0  0
  183.9480  178.9460  145.0620 O   0  0  0  0  0  0  0  0  0  0  0  0
  184.3470  179.4470  143.8210 C   0  0  0  0  0  3  0  0  0  0  0  0
  184.1790  178.3750  142.7640 C   0  0  0  0  0  1  0  0  0  0  0  0
  185.8030  179.8620  143.8870 C   0  0  0  0  0  1  0  0  0  0  0  0
  1 16  1  1  0  0  0
  2 24  1  0  0  0  0
  3 11  2  0  0  0  0
  4  3  1  0  0  0  0
  4 21  2  0  0  0  0
  5 25  2  0  0  0  0
  6  5  1  0  0  0  0
  6 18  1  0  0  0  0
  7 24  1  1  0  0  0
  7 19  1  0  0  0  0
  8 17  1  0  0  0  0
  9 15  1  0  0  0  0
 10 17  1  0  0  0  0
 10 20  1  0  0  0  0
 10  1  1  0  0  0  0
 11 13  1  0  0  0  0
 12  8  1  0  0  0  0
 12  2  1  0  0  0  0
 13 22  1  0  0  0  0
 13 12  1  0  0  0  0
 14 27  1  0  0  0  0
 15 18  2  0  0  0  0
 17  7  1  0  0  0  0
 19 16  1  0  0  0  0
 20  1  1  0  0  0  0
 21 22  1  0  0  0  0
 22 14  2  0  0  0  0
 23 14  1  0  0  0  0
 23 28  1  0  0  0  0
 26  9  1  0  0  0  0
 27  2  2  0  0  0  0
 27  5  1  0  0  0  0
 28  9  1  0  0  0  0
 28  6  2  0  0  0  0
 29 20  1  0  0  0  0
 30 32  1  0  0  0  0
 30 29  1  0  0  0  0
 31 30  1  0  0  0  0
M  END
>  <MODEL>
2

>  <REMARK>
 VINA RESULT:      -9.0      2.375      4.628
  Name = 
  2 active torsions:
  status: ('A' for Active; 'I' for Inactive)
    1  A    between atoms: C_20  and  O_29
    2  A    between atoms: O_29  and  C_30
                            x       y       z     vdW  Elec       q    Type
                         _______ _______ _______ _____ _____    ______ ____

>  <TORSDO>
F 2

$$$$
=
 OpenBabel11112416393D

 32 38  0  0  1  0  0  0  0  0999 V2000
  192.3560  174.8280  144.3760 C   0  0  1  0  0  3  0  0  0  0  0  0
  187.6840  177.1450  143.5800 C   0  0  0  0  0  0  0  0  0  0  0  0
  186.3070  178.1870  148.1250 C   0  0  0  0  0  3  0  0  0  0  0  0
  185.0230  178.7170  147.6360 C   0  0  0  0  0  3  0  0  0  0  0  0
  186.1230  177.5010  141.6500 C   0  0  0  0  0  0  0  0  0  0  0  0
  184.7700  177.8780  141.2570 C   0  0  0  0  0  0  0  0  0  0  0  0
  190.0450  176.3600  143.1930 C   0  0  1  0  0  3  0  0  0  0  0  0
  189.3830  177.0710  145.4600 C   0  0  0  0  0  2  0  0  0  0  0  0
  182.6990  178.5310  141.4700 N   0  0  0  0  0  0  0  0  0  0  0  0
  191.4720  175.7060  145.2620 C   0  0  2  0  0  3  0  0  0  0  0  0
  187.3060  177.9160  147.2810 C   0  0  0  0  0  3  0  0  0  0  0  0
  188.0160  177.3280  144.9830 N   0  0  0  0  0  0  0  0  0  0  0  0
  187.2090  178.2380  145.8050 C   0  0  1  0  0  3  0  0  0  0  0  0
  185.4510  178.1060  144.0560 C   0  0  0  0  0  0  0  0  0  0  0  0
  182.9930  178.3210  140.1690 C   0  0  0  0  0  3  0  0  0  0  0  0
  191.6730  174.3790  143.0670 C   0  0  0  0  0  2  0  0  0  0  0  0
  190.0710  175.9720  144.6730 C   0  0  2  0  0  3  0  0  0  0  0  0
  184.2760  177.9160  140.0030 N   0  0  0  0  0  0  0  0  0  0  0  0
  190.9170  175.4730  142.3020 C   0  0  0  0  0  2  0  0  0  0  0  0
  192.6140  176.3270  144.4660 C   0  0  1  0  0  3  0  0  0  0  0  0
  184.7610  178.7730  146.3280 C   0  0  0  0  0  3  0  0  0  0  0  0
  185.7740  178.3290  145.3410 C   0  0  0  0  0  0  0  0  0  0  0  0
  183.9990  178.2670  143.6330 C   0  0  0  0  0  2  0  0  0  0  0  0
  188.6100  176.3330  142.7040 C   0  0  0  0  0  2  0  0  0  0  0  0
  186.9530  177.1750  140.7580 O   0  0  0  0  0  0  0  0  0  0  0  0
  181.4160  178.9490  142.0080 C   0  0  0  0  0  1  0  0  0  0  0  0
  186.4850  177.5690  143.1020 C   0  0  0  0  0  0  0  0  0  0  0  0
  183.8200  178.2610  142.1500 C   0  0  0  0  0  0  0  0  0  0  0  0
  193.6960  176.5590  145.3180 O   0  0  0  0  0  0  0  0  0  0  0  0
  194.6740  175.6500  144.9100 C   0  0  0  0  0  3  0  0  0  0  0  0
  195.3150  175.0170  146.1280 C   0  0  0  0  0  1  0  0  0  0  0  0
  195.7350  176.3750  144.1070 C   0  0  0  0  0  1  0  0  0  0  0  0
  1 16  1  6  0  0  0
  1 20  1  0  0  0  0
  1 10  1  0  0  0  0
  2 12  1  0  0  0  0
  4  3  1  0  0  0  0
  5 27  1  0  0  0  0
  6  5  1  0  0  0  0
  6 28  2  0  0  0  0
  7 19  1  6  0  0  0
  7 17  1  0  0  0  0
  9 26  1  0  0  0  0
  9 28  1  0  0  0  0
 11  3  2  0  0  0  0
 12  8  1  0  0  0  0
 12 13  1  0  0  0  0
 13 11  1  0  0  0  0
 14 22  2  0  0  0  0
 15  9  1  0  0  0  0
 17 10  1  0  0  0  0
 17  8  1  0  0  0  0
 18 15  2  0  0  0  0
 18  6  1  0  0  0  0
 19 16  1  0  0  0  0
 20 10  1  0  0  0  0
 20 29  1  0  0  0  0
 21  4  2  0  0  0  0
 22 13  1  0  0  0  0
 22 21  1  0  0  0  0
 23 14  1  0  0  0  0
 24  7  1  0  0  0  0
 24  2  1  0  0  0  0
 25  5  2  0  0  0  0
 27  2  2  0  0  0  0
 27 14  1  0  0  0  0
 28 23  1  0  0  0  0
 30 29  1  0  0  0  0
 30 31  1  0  0  0  0
 32 30  1  0  0  0  0
M  END
>  <MODEL>
3

>  <REMARK>
 VINA RESULT:      -8.9      2.969      7.729
  Name = 
  2 active torsions:
  status: ('A' for Active; 'I' for Inactive)
    1  A    between atoms: C_20  and  O_29
    2  A    between atoms: O_29  and  C_30
                            x       y       z     vdW  Elec       q    Type
                         _______ _______ _______ _____ _____    ______ ____

>  <TORSDO>
F 2

$$$$
=
 OpenBabel11112416393D

 32 38  0  0  1  0  0  0  0  0999 V2000
  186.3440  178.6710  143.3860 C   0  0  1  0  0  3  0  0  0  0  0  0
  189.6420  174.5740  143.7870 C   0  0  0  0  0  0  0  0  0  0  0  0
  193.1890  176.4230  146.5500 C   0  0  0  0  0  3  0  0  0  0  0  0
  193.9560  175.1700  146.4380 C   0  0  0  0  0  3  0  0  0  0  0  0
  189.8690  172.2990  142.7550 C   0  0  0  0  0  0  0  0  0  0  0  0
  190.7570  171.1620  142.5460 C   0  0  0  0  0  0  0  0  0  0  0  0
  187.5170  175.8980  143.5200 C   0  0  1  0  0  3  0  0  0  0  0  0
  189.2510  176.7280  145.0650 C   0  0  0  0  0  2  0  0  0  0  0  0
  192.5550  169.9330  142.6890 N   0  0  0  0  0  0  0  0  0  0  0  0
  187.5000  178.3630  144.3380 C   0  0  2  0  0  3  0  0  0  0  0  0
  191.9150  176.4870  146.1550 C   0  0  0  0  0  3  0  0  0  0  0  0
  190.1140  175.5920  144.7100 N   0  0  0  0  0  0  0  0  0  0  0  0
  191.1680  175.2610  145.6760 C   0  0  1  0  0  3  0  0  0  0  0  0
  191.6950  173.2780  144.2770 C   0  0  0  0  0  0  0  0  0  0  0  0
  191.6170  169.3070  141.9470 C   0  0  0  0  0  3  0  0  0  0  0  0
  186.2350  177.6890  142.2010 C   0  0  0  0  0  2  0  0  0  0  0  0
  188.3300  177.1290  143.9280 C   0  0  2  0  0  3  0  0  0  0  0  0
  190.4830  170.0450  141.8410 N   0  0  0  0  0  0  0  0  0  0  0  0
  186.3690  176.2020  142.5550 C   0  0  0  0  0  2  0  0  0  0  0  0
  186.0660  178.0450  144.7470 C   0  0  1  0  0  3  0  0  0  0  0  0
  193.4590  174.1220  145.7790 C   0  0  0  0  0  3  0  0  0  0  0  0
  192.1090  174.1890  145.1730 C   0  0  0  0  0  0  0  0  0  0  0  0
  192.6660  172.1880  143.8480 C   0  0  0  0  0  2  0  0  0  0  0  0
  188.4520  174.8740  142.9060 C   0  0  0  0  0  2  0  0  0  0  0  0
  188.7140  172.2780  142.2490 O   0  0  0  0  0  0  0  0  0  0  0  0
  193.8880  169.4410  142.9870 C   0  0  0  0  0  1  0  0  0  0  0  0
  190.3520  173.4290  143.6130 C   0  0  0  0  0  0  0  0  0  0  0  0
  192.0080  171.0940  143.0710 C   0  0  0  0  0  0  0  0  0  0  0  0
  185.6090  179.0310  145.6250 O   0  0  0  0  0  0  0  0  0  0  0  0
  185.2350  178.3380  146.7780 C   0  0  0  0  0  3  0  0  0  0  0  0
  186.3170  178.4830  147.8280 C   0  0  0  0  0  1  0  0  0  0  0  0
  185.0500  176.8700  146.4490 C   0  0  0  0  0  1  0  0  0  0  0  0
  1 16  1  6  0  0  0
  1 10  1  0  0  0  0
  1 20  1  0  0  0  0
  2 12  1  0  0  0  0
  4  3  1  0  0  0  0
  5 27  1  0  0  0  0
  6  5  1  0  0  0  0
  6 28  2  0  0  0  0
  7 19  1  6  0  0  0
  7 17  1  0  0  0  0
  9 26  1  0  0  0  0
  9 28  1  0  0  0  0
 10 20  1  0  0  0  0
 11  3  2  0  0  0  0
 12  8  1  0  0  0  0
 12 13  1  0  0  0  0
 13 11  1  0  0  0  0
 14 22  2  0  0  0  0
 15  9  1  0  0  0  0
 16 19  1  0  0  0  0
 17 10  1  0  0  0  0
 17  8  1  0  0  0  0
 18 15  2  0  0  0  0
 18  6  1  0  0  0  0
 20 29  1  0  0  0  0
 21  4  2  0  0  0  0
 22 13  1  0  0  0  0
 22 21  1  0  0  0  0
 23 14  1  0  0  0  0
 24  7  1  0  0  0  0
 24  2  1  0  0  0  0
 25  5  2  0  0  0  0
 27  2  2  0  0  0  0
 27 14  1  0  0  0  0
 28 23  1  0  0  0  0
 29 30  1  0  0  0  0
 30 31  1  0  0  0  0
 32 30  1  0  0  0  0
M  END
>  <MODEL>
4

>  <REMARK>
 VINA RESULT:      -8.8      1.098      1.193
  Name = 
  2 active torsions:
  status: ('A' for Active; 'I' for Inactive)
    1  A    between atoms: C_20  and  O_29
    2  A    between atoms: O_29  and  C_30
                            x       y       z     vdW  Elec       q    Type
                         _______ _______ _______ _____ _____    ______ ____

>  <TORSDO>
F 2

$$$$
=
 OpenBabel11112416393D

 32 38  0  0  1  0  0  0  0  0999 V2000
  195.6200  175.6000  144.4210 C   0  0  1  0  0  3  0  0  0  0  0  0
  190.4210  176.2800  145.0020 C   0  0  0  0  0  0  0  0  0  0  0  0
  188.7320  174.7250  140.7170 C   0  0  0  0  0  3  0  0  0  0  0  0
  187.3570  175.0820  141.1060 C   0  0  0  0  0  3  0  0  0  0  0  0
  188.8920  177.3570  146.6730 C   0  0  0  0  0  0  0  0  0  0  0  0
  187.5390  177.8420  146.9210 C   0  0  0  0  0  0  0  0  0  0  0  0
  192.8410  175.8640  145.5590 C   0  0  1  0  0  3  0  0  0  0  0  0
  191.9200  174.9210  143.4760 C   0  0  0  0  0  2  0  0  0  0  0  0
  185.4330  178.2740  146.5430 N   0  0  0  0  0  0  0  0  0  0  0  0
  194.4130  175.0540  143.6580 C   0  0  2  0  0  3  0  0  0  0  0  0
  189.7200  174.7080  141.6160 C   0  0  0  0  0  3  0  0  0  0  0  0
  190.6180  175.5370  143.7690 N   0  0  0  0  0  0  0  0  0  0  0  0
  189.4600  174.9470  143.0870 C   0  0  1  0  0  3  0  0  0  0  0  0
  188.0180  176.4610  144.4270 C   0  0  0  0  0  0  0  0  0  0  0  0
  185.7850  178.6970  147.7760 C   0  0  0  0  0  3  0  0  0  0  0  0
  195.2640  176.7050  145.4390 C   0  0  0  0  0  2  0  0  0  0  0  0
  193.0760  175.7140  144.0550 C   0  0  2  0  0  3  0  0  0  0  0  0
  187.0900  178.4400  148.0430 N   0  0  0  0  0  0  0  0  0  0  0  0
  194.0420  176.4250  146.3240 C   0  0  0  0  0  2  0  0  0  0  0  0
  195.0560  174.2260  144.7640 C   0  0  1  0  0  3  0  0  0  0  0  0
  187.0970  175.5670  142.3220 C   0  0  0  0  0  3  0  0  0  0  0  0
  188.1850  175.7270  143.3150 C   0  0  0  0  0  0  0  0  0  0  0  0
  186.6940  177.1810  144.6320 C   0  0  0  0  0  2  0  0  0  0  0  0
  191.6290  176.7480  145.7800 C   0  0  0  0  0  2  0  0  0  0  0  0
  189.7640  177.4830  147.5760 O   0  0  0  0  0  0  0  0  0  0  0  0
  184.1250  178.4060  145.9270 C   0  0  0  0  0  1  0  0  0  0  0  0
  189.1740  176.6770  145.3680 C   0  0  0  0  0  0  0  0  0  0  0  0
  186.5350  177.7290  146.0120 C   0  0  0  0  0  0  0  0  0  0  0  0
  195.8620  173.2400  144.1920 O   0  0  0  0  0  0  0  0  0  0  0  0
  195.7090  172.1270  145.0210 C   0  0  0  0  0  3  0  0  0  0  0  0
  194.3350  172.1550  145.6570 C   0  0  0  0  0  1  0  0  0  0  0  0
  196.7640  172.1570  146.1090 C   0  0  0  0  0  1  0  0  0  0  0  0
  1 20  1  0  0  0  0
  1 16  1  1  0  0  0
  2 27  2  0  0  0  0
  2 24  1  0  0  0  0
  3  4  1  0  0  0  0
  3 11  2  0  0  0  0
  4 21  2  0  0  0  0
  5  6  1  0  0  0  0
  5 25  2  0  0  0  0
  6 18  1  0  0  0  0
  7 24  1  6  0  0  0
  7 19  1  0  0  0  0
  8 12  1  0  0  0  0
  8 17  1  0  0  0  0
  9 15  1  0  0  0  0
 10 17  1  0  0  0  0
 10  1  1  0  0  0  0
 10 20  1  0  0  0  0
 11 13  1  0  0  0  0
 12  2  1  0  0  0  0
 13 22  1  0  0  0  0
 13 12  1  0  0  0  0
 14 23  1  0  0  0  0
 14 27  1  0  0  0  0
 15 18  2  0  0  0  0
 16 19  1  0  0  0  0
 17  7  1  0  0  0  0
 21 22  1  0  0  0  0
 22 14  2  0  0  0  0
 23 28  1  0  0  0  0
 26  9  1  0  0  0  0
 27  5  1  0  0  0  0
 28  9  1  0  0  0  0
 28  6  2  0  0  0  0
 29 20  1  0  0  0  0
 29 30  1  0  0  0  0
 30 31  1  0  0  0  0
 30 32  1  0  0  0  0
M  END
>  <MODEL>
5

>  <REMARK>
 VINA RESULT:      -8.4      2.928      8.504
  Name = 
  2 active torsions:
  status: ('A' for Active; 'I' for Inactive)
    1  A    between atoms: C_20  and  O_29
    2  A    between atoms: O_29  and  C_30
                            x       y       z     vdW  Elec       q    Type
                         _______ _______ _______ _____ _____    ______ ____

>  <TORSDO>
F 2

$$$$
=
 OpenBabel11112416393D

 32 38  0  0  1  0  0  0  0  0999 V2000
  186.0550  176.8510  146.1290 C   0  0  1  0  0  3  0  0  0  0  0  0
  190.6170  175.8400  143.6830 C   0  0  0  0  0  0  0  0  0  0  0  0
  189.2300  172.6700  140.2680 C   0  0  0  0  0  3  0  0  0  0  0  0
  190.6250  172.5110  139.8210 C   0  0  0  0  0  3  0  0  0  0  0  0
  193.0450  176.3540  144.0510 C   0  0  0  0  0  0  0  0  0  0  0  0
  194.4110  176.0160  143.6720 C   0  0  0  0  0  0  0  0  0  0  0  0
  188.8370  177.0510  144.9880 C   0  0  1  0  0  3  0  0  0  0  0  0
  188.1570  175.5820  143.1270 C   0  0  0  0  0  2  0  0  0  0  0  0
  196.0410  175.0160  142.6200 N   0  0  0  0  0  0  0  0  0  0  0  0
  186.3860  176.2210  144.7770 C   0  0  2  0  0  3  0  0  0  0  0  0
  188.8840  173.6490  141.1080 C   0  0  0  0  0  3  0  0  0  0  0  0
  189.5650  175.2280  142.8900 N   0  0  0  0  0  0  0  0  0  0  0  0
  189.8770  174.6990  141.5560 C   0  0  1  0  0  3  0  0  0  0  0  0
  192.2730  174.7350  142.2080 C   0  0  0  0  0  0  0  0  0  0  0  0
  196.5330  175.9100  143.5040 C   0  0  0  0  0  3  0  0  0  0  0  0
  187.2870  177.0660  147.0340 C   0  0  0  0  0  2  0  0  0  0  0  0
  187.8870  175.9230  144.5810 C   0  0  2  0  0  3  0  0  0  0  0  0
  195.5420  176.5510  144.1740 N   0  0  0  0  0  0  0  0  0  0  0  0
  188.5170  177.6740  146.3490 C   0  0  0  0  0  2  0  0  0  0  0  0
  186.0470  177.7040  144.8670 C   0  0  1  0  0  3  0  0  0  0  0  0
  191.6060  173.2240  140.3780 C   0  0  0  0  0  3  0  0  0  0  0  0
  191.3040  174.2130  141.4390 C   0  0  0  0  0  0  0  0  0  0  0  0
  193.7010  174.2500  142.0080 C   0  0  0  0  0  2  0  0  0  0  0  0
  190.2580  176.5220  144.9830 C   0  0  0  0  0  2  0  0  0  0  0  0
  192.8520  177.2370  144.9300 O   0  0  0  0  0  0  0  0  0  0  0  0
  196.8160  174.1440  141.7540 C   0  0  0  0  0  1  0  0  0  0  0  0
  191.9200  175.6690  143.3360 C   0  0  0  0  0  0  0  0  0  0  0  0
  194.7080  175.0910  142.7220 C   0  0  0  0  0  0  0  0  0  0  0  0
  184.7300  177.9020  144.4500 O   0  0  0  0  0  0  0  0  0  0  0  0
  184.7930  178.9770  143.5610 C   0  0  0  0  0  3  0  0  0  0  0  0
  185.5490  178.5600  142.3160 C   0  0  0  0  0  1  0  0  0  0  0  0
  185.5130  180.1370  144.2190 C   0  0  0  0  0  1  0  0  0  0  0  0
  1 16  1  1  0  0  0
  2 24  1  0  0  0  0
  3 11  2  0  0  0  0
  4  3  1  0  0  0  0
  4 21  2  0  0  0  0
  5 25  2  0  0  0  0
  6  5  1  0  0  0  0
  6 18  1  0  0  0  0
  7 24  1  1  0  0  0
  7 19  1  0  0  0  0
  8 17  1  0  0  0  0
  9 28  1  0  0  0  0
  9 15  1  0  0  0  0
 10 20  1  0  0  0  0
 10  1  1  0  0  0  0
 11 13  1  0  0  0  0
 12  8  1  0  0  0  0
 12  2  1  0  0  0  0
 13 12  1  0  0  0  0
 14 27  1  0  0  0  0
 15 18  2  0  0  0  0
 17 10  1  0  0  0  0
 17  7  1  0  0  0  0
 19 16  1  0  0  0  0
 20  1  1  0  0  0  0
 21 22  1  0  0  0  0
 22 13  1  0  0  0  0
 22 14  2  0  0  0  0
 23 14  1  0  0  0  0
 23 28  1  0  0  0  0
 26  9  1  0  0  0  0
 27  2  2  0  0  0  0
 27  5  1  0  0  0  0
 28  6  2  0  0  0  0
 29 20  1  0  0  0  0
 30 32  1  0  0  0  0
 30 29  1  0  0  0  0
 31 30  1  0  0  0  0
M  END
>  <MODEL>
6

>  <REMARK>
 VINA RESULT:      -8.3      2.879      4.824
  Name = 
  2 active torsions:
  status: ('A' for Active; 'I' for Inactive)
    1  A    between atoms: C_20  and  O_29
    2  A    between atoms: O_29  and  C_30
                            x       y       z     vdW  Elec       q    Type
                         _______ _______ _______ _____ _____    ______ ____

>  <TORSDO>
F 2

$$$$
=
 OpenBabel11112416393D

 32 38  0  0  1  0  0  0  0  0999 V2000
  195.3100  175.3580  145.4430 C   0  0  1  0  0  3  0  0  0  0  0  0
  190.2590  175.9580  144.0460 C   0  0  0  0  0  0  0  0  0  0  0  0
  190.1420  173.6870  139.7490 C   0  0  0  0  0  3  0  0  0  0  0  0
  188.7280  174.0570  139.5700 C   0  0  0  0  0  3  0  0  0  0  0  0
  188.2690  177.2380  144.8800 C   0  0  0  0  0  0  0  0  0  0  0  0
  186.9300  177.7130  144.5560 C   0  0  0  0  0  0  0  0  0  0  0  0
  192.3170  175.7130  145.4760 C   0  0  1  0  0  3  0  0  0  0  0  0
  192.1620  174.4210  143.3820 C   0  0  0  0  0  2  0  0  0  0  0  0
  185.1030  178.0120  143.3990 N   0  0  0  0  0  0  0  0  0  0  0  0
  194.4350  174.6600  144.4030 C   0  0  2  0  0  3  0  0  0  0  0  0
  190.7500  173.8440  140.9280 C   0  0  0  0  0  3  0  0  0  0  0  0
  190.8570  175.0340  143.0970 N   0  0  0  0  0  0  0  0  0  0  0  0
  189.9960  174.3060  142.1560 C   0  0  1  0  0  3  0  0  0  0  0  0
  188.2170  175.9680  142.6440 C   0  0  0  0  0  0  0  0  0  0  0  0
  185.0100  178.6370  144.5920 C   0  0  0  0  0  3  0  0  0  0  0  0
  194.6500  176.6000  146.0800 C   0  0  0  0  0  2  0  0  0  0  0  0
  193.0620  175.3320  144.1950 C   0  0  2  0  0  3  0  0  0  0  0  0
  186.1310  178.4680  145.3370 N   0  0  0  0  0  0  0  0  0  0  0  0
  193.1880  176.4260  146.5130 C   0  0  0  0  0  2  0  0  0  0  0  0
  194.6260  174.0400  145.7820 C   0  0  1  0  0  3  0  0  0  0  0  0
  188.0700  174.7210  140.5220 C   0  0  0  0  0  3  0  0  0  0  0  0
  188.7440  175.0720  141.7940 C   0  0  0  0  0  0  0  0  0  0  0  0
  186.9250  176.6690  142.2530 C   0  0  0  0  0  2  0  0  0  0  0  0
  191.1290  176.5820  145.1130 C   0  0  0  0  0  2  0  0  0  0  0  0
  188.7720  177.5330  145.9980 O   0  0  0  0  0  0  0  0  0  0  0  0
  184.0980  178.0030  142.3500 C   0  0  0  0  0  1  0  0  0  0  0  0
  188.9740  176.3680  143.8830 C   0  0  0  0  0  0  0  0  0  0  0  0
  186.3060  177.4250  143.3830 C   0  0  0  0  0  0  0  0  0  0  0  0
  195.5550  173.0010  145.6950 O   0  0  0  0  0  0  0  0  0  0  0  0
  195.0460  172.1460  144.7160 C   0  0  0  0  0  3  0  0  0  0  0  0
  194.1640  171.1000  145.3670 C   0  0  0  0  0  1  0  0  0  0  0  0
  196.1900  171.4590  143.9980 C   0  0  0  0  0  1  0  0  0  0  0  0
  1 20  1  0  0  0  0
  1 16  1  1  0  0  0
  2 24  1  0  0  0  0
  3 11  2  0  0  0  0
  4  3  1  0  0  0  0
  4 21  2  0  0  0  0
  5 25  2  0  0  0  0
  6  5  1  0  0  0  0
  6 18  1  0  0  0  0
  7 24  1  6  0  0  0
  7 19  1  0  0  0  0
  8 17  1  0  0  0  0
  9 15  1  0  0  0  0
 10  1  1  0  0  0  0
 10 20  1  0  0  0  0
 11 13  1  0  0  0  0
 12  8  1  0  0  0  0
 12  2  1  0  0  0  0
 13 12  1  0  0  0  0
 14 27  1  0  0  0  0
 15 18  2  0  0  0  0
 16 19  1  0  0  0  0
 17 10  1  0  0  0  0
 17  7  1  0  0  0  0
 21 22  1  0  0  0  0
 22 13  1  0  0  0  0
 22 14  2  0  0  0  0
 23 14  1  0  0  0  0
 23 28  1  0  0  0  0
 26  9  1  0  0  0  0
 27  2  2  0  0  0  0
 27  5  1  0  0  0  0
 28  9  1  0  0  0  0
 28  6  2  0  0  0  0
 29 20  1  0  0  0  0
 30 31  1  0  0  0  0
 30 29  1  0  0  0  0
 32 30  1  0  0  0  0
M  END
>  <MODEL>
7

>  <REMARK>
 VINA RESULT:      -8.3      2.755      8.193
  Name = 
  2 active torsions:
  status: ('A' for Active; 'I' for Inactive)
    1  A    between atoms: C_20  and  O_29
    2  A    between atoms: O_29  and  C_30
                            x       y       z     vdW  Elec       q    Type
                         _______ _______ _______ _____ _____    ______ ____

>  <TORSDO>
F 2

$$$$
=
 OpenBabel11112416393D

 32 38  0  0  1  0  0  0  0  0999 V2000
  191.2130  171.8020  139.8980 C   0  0  1  0  0  3  0  0  0  0  0  0
  189.0430  175.3410  143.1520 C   0  0  0  0  0  0  0  0  0  0  0  0
  192.1520  175.2910  146.8890 C   0  0  0  0  0  3  0  0  0  0  0  0
  191.3100  176.2460  147.6290 C   0  0  0  0  0  3  0  0  0  0  0  0
  186.8980  176.6350  143.2800 C   0  0  0  0  0  0  0  0  0  0  0  0
  186.0330  177.4390  144.1370 C   0  0  0  0  0  0  0  0  0  0  0  0
  189.6930  174.1430  141.0350 C   0  0  1  0  0  3  0  0  0  0  0  0
  191.3320  174.2880  142.8720 C   0  0  0  0  0  2  0  0  0  0  0  0
  185.3530  178.4950  145.9210 N   0  0  0  0  0  0  0  0  0  0  0  0
  191.7560  172.5670  141.1050 C   0  0  2  0  0  3  0  0  0  0  0  0
  191.9380  175.0430  145.5940 C   0  0  0  0  0  3  0  0  0  0  0  0
  190.3490  175.0090  143.6950 N   0  0  0  0  0  0  0  0  0  0  0  0
  190.8960  175.8030  144.8010 C   0  0  1  0  0  3  0  0  0  0  0  0
  188.5960  176.6440  145.2110 C   0  0  0  0  0  0  0  0  0  0  0  0
  184.4450  178.6160  144.9300 C   0  0  0  0  0  3  0  0  0  0  0  0
  189.6890  171.9490  139.7020 C   0  0  0  0  0  2  0  0  0  0  0  0
  190.6740  173.3380  141.8900 C   0  0  2  0  0  3  0  0  0  0  0  0
  184.8400  177.9710  143.8040 N   0  0  0  0  0  0  0  0  0  0  0  0
  189.1360  173.3740  139.8350 C   0  0  0  0  0  2  0  0  0  0  0  0
  192.0000  173.0910  139.6940 C   0  0  1  0  0  3  0  0  0  0  0  0
  190.2050  176.7530  147.0760 C   0  0  0  0  0  3  0  0  0  0  0  0
  189.8230  176.3850  145.6920 C   0  0  0  0  0  0  0  0  0  0  0  0
  187.5710  177.2820  146.1370 C   0  0  0  0  0  2  0  0  0  0  0  0
  188.5550  174.6230  141.9150 C   0  0  0  0  0  2  0  0  0  0  0  0
  186.5370  176.3940  142.0970 O   0  0  0  0  0  0  0  0  0  0  0  0
  185.2430  179.0410  147.2630 C   0  0  0  0  0  1  0  0  0  0  0  0
  188.2130  176.1750  143.8320 C   0  0  0  0  0  0  0  0  0  0  0  0
  186.3540  177.7630  145.4170 C   0  0  0  0  0  0  0  0  0  0  0  0
  193.3040  172.7800  139.3060 O   0  0  0  0  0  0  0  0  0  0  0  0
  193.7760  173.9350  138.6780 C   0  0  0  0  0  3  0  0  0  0  0  0
  194.1890  174.9480  139.7260 C   0  0  0  0  0  1  0  0  0  0  0  0
  192.6790  174.5260  137.8160 C   0  0  0  0  0  1  0  0  0  0  0  0
  1 16  1  1  0  0  0
  1 10  1  0  0  0  0
  2 12  1  0  0  0  0
  2 27  2  0  0  0  0
  3  4  1  0  0  0  0
  5 27  1  0  0  0  0
  5  6  1  0  0  0  0
  6 28  2  0  0  0  0
  7 19  1  6  0  0  0
  7 17  1  0  0  0  0
  7 24  1  0  0  0  0
  8 12  1  0  0  0  0
  9 26  1  0  0  0  0
 10 17  1  0  0  0  0
 11  3  2  0  0  0  0
 12 13  1  0  0  0  0
 13 11  1  0  0  0  0
 13 22  1  0  0  0  0
 14 22  2  0  0  0  0
 14 23  1  0  0  0  0
 15  9  1  0  0  0  0
 16 19  1  0  0  0  0
 17  8  1  0  0  0  0
 18  6  1  0  0  0  0
 18 15  2  0  0  0  0
 20  1  1  0  0  0  0
 20 10  1  0  0  0  0
 21  4  2  0  0  0  0
 22 21  1  0  0  0  0
 24  2  1  0  0  0  0
 25  5  2  0  0  0  0
 27 14  1  0  0  0  0
 28  9  1  0  0  0  0
 28 23  1  0  0  0  0
 29 20  1  0  0  0  0
 30 29  1  0  0  0  0
 30 31  1  0  0  0  0
 32 30  1  0  0  0  0
M  END
>  <MODEL>
8

>  <REMARK>
 VINA RESULT:      -8.2      2.512      7.564
  Name = 
  2 active torsions:
  status: ('A' for Active; 'I' for Inactive)
    1  A    between atoms: C_20  and  O_29
    2  A    between atoms: O_29  and  C_30
                            x       y       z     vdW  Elec       q    Type
                         _______ _______ _______ _____ _____    ______ ____

>  <TORSDO>
F 2

$$$$
=
 OpenBabel11112416393D

 32 38  0  0  1  0  0  0  0  0999 V2000
  193.0070  172.1440  141.0910 C   0  0  1  0  0  3  0  0  0  0  0  0
  189.6340  175.6000  143.2130 C   0  0  0  0  0  0  0  0  0  0  0  0
  191.6320  176.3860  147.5740 C   0  0  0  0  0  3  0  0  0  0  0  0
  190.5120  177.2660  147.9510 C   0  0  0  0  0  3  0  0  0  0  0  0
  187.3870  176.5540  142.6360 C   0  0  0  0  0  0  0  0  0  0  0  0
  186.2340  177.2920  143.1390 C   0  0  0  0  0  0  0  0  0  0  0  0
  190.9620  174.3200  141.4980 C   0  0  1  0  0  3  0  0  0  0  0  0
  192.0280  174.8910  143.6480 C   0  0  0  0  0  2  0  0  0  0  0  0
  184.9830  178.3960  144.5450 N   0  0  0  0  0  0  0  0  0  0  0  0
  193.1140  173.0950  142.2820 C   0  0  2  0  0  3  0  0  0  0  0  0
  191.7980  175.9860  146.3110 C   0  0  0  0  0  3  0  0  0  0  0  0
  190.7820  175.5260  144.1000 N   0  0  0  0  0  0  0  0  0  0  0  0
  190.9160  176.4970  145.1920 C   0  0  1  0  0  3  0  0  0  0  0  0
  188.5020  177.0070  144.9080 C   0  0  0  0  0  0  0  0  0  0  0  0
  184.3590  178.2800  143.3540 C   0  0  0  0  0  3  0  0  0  0  0  0
  191.5830  172.0350  140.5070 C   0  0  0  0  0  2  0  0  0  0  0  0
  191.7760  173.7610  142.6670 C   0  0  2  0  0  3  0  0  0  0  0  0
  185.1140  177.5990  142.4550 N   0  0  0  0  0  0  0  0  0  0  0  0
  190.8410  173.3630  140.3100 C   0  0  0  0  0  2  0  0  0  0  0  0
  193.6530  173.5130  140.9190 C   0  0  1  0  0  3  0  0  0  0  0  0
  189.5380  177.5410  147.0810 C   0  0  0  0  0  3  0  0  0  0  0  0
  189.5820  176.9880  145.7070 C   0  0  0  0  0  0  0  0  0  0  0  0
  187.1990  177.5650  145.4600 C   0  0  0  0  0  2  0  0  0  0  0  0
  189.5820  174.7000  141.9990 C   0  0  0  0  0  2  0  0  0  0  0  0
  187.3830  176.1470  141.4420 O   0  0  0  0  0  0  0  0  0  0  0  0
  184.4570  179.0430  145.7340 C   0  0  0  0  0  1  0  0  0  0  0  0
  188.5570  176.3560  143.5510 C   0  0  0  0  0  0  0  0  0  0  0  0
  186.1640  177.7810  144.4040 C   0  0  0  0  0  0  0  0  0  0  0  0
  195.0420  173.3720  140.9100 O   0  0  0  0  0  0  0  0  0  0  0  0
  195.5180  174.5530  140.3360 C   0  0  0  0  0  3  0  0  0  0  0  0
  195.3820  175.6880  141.3300 C   0  0  0  0  0  1  0  0  0  0  0  0
  194.7100  174.8750  139.0960 C   0  0  0  0  0  1  0  0  0  0  0  0
  1 16  1  6  0  0  0
  1 10  1  0  0  0  0
  2 27  2  0  0  0  0
  2 12  1  0  0  0  0
  3  4  1  0  0  0  0
  5  6  1  0  0  0  0
  5 27  1  0  0  0  0
  6 28  2  0  0  0  0
  7 19  1  6  0  0  0
  7 24  1  0  0  0  0
  7 17  1  0  0  0  0
  8 12  1  0  0  0  0
  9 26  1  0  0  0  0
 10 17  1  0  0  0  0
 11  3  2  0  0  0  0
 12 13  1  0  0  0  0
 13 22  1  0  0  0  0
 13 11  1  0  0  0  0
 14 23  1  0  0  0  0
 14 22  2  0  0  0  0
 15  9  1  0  0  0  0
 17  8  1  0  0  0  0
 18  6  1  0  0  0  0
 18 15  2  0  0  0  0
 19 16  1  0  0  0  0
 20  1  1  0  0  0  0
 20 10  1  0  0  0  0
 21  4  2  0  0  0  0
 22 21  1  0  0  0  0
 24  2  1  0  0  0  0
 25  5  2  0  0  0  0
 27 14  1  0  0  0  0
 28  9  1  0  0  0  0
 28 23  1  0  0  0  0
 29 20  1  0  0  0  0
 30 29  1  0  0  0  0
 30 31  1  0  0  0  0
 32 30  1  0  0  0  0
M  END
>  <MODEL>
9

>  <REMARK>
 VINA RESULT:      -8.0      2.694      7.661
  Name = 
  2 active torsions:
  status: ('A' for Active; 'I' for Inactive)
    1  A    between atoms: C_20  and  O_29
    2  A    between atoms: O_29  and  C_30
                            x       y       z     vdW  Elec       q    Type
                         _______ _______ _______ _____ _____    ______ ____

>  <TORSDO>
F 2

$$$$
