=
 OpenBabel11112417473D

 34 40  0  0  1  0  0  0  0  0999 V2000
  189.5640  176.3670  146.4130 C   0  0  2  0  0  3  0  0  0  0  0  0
  187.2410  177.2610  146.3060 C   0  0  0  0  0  2  0  0  0  0  0  0
  195.6680  176.2260  143.5230 C   0  0  2  0  0  3  0  0  0  0  0  0
  191.9910  175.7760  146.0380 C   0  0  0  0  0  0  0  0  0  0  0  0
  193.0940  176.2320  143.9070 C   0  0  0  0  0  0  0  0  0  0  0  0
  194.0690  176.2900  141.7410 O   0  0  0  0  0  0  0  0  0  0  0  0
  196.6830  176.7770  142.5350 C   0  0  0  0  0  1  0  0  0  0  0  0
  195.0890  174.1900  144.9520 C   0  0  0  0  0  2  0  0  0  0  0  0
  188.1860  176.5190  144.1830 C   0  0  2  0  0  3  0  0  0  0  0  0
  187.1770  177.9840  141.6970 O   0  0  0  0  0  0  0  0  0  0  0  0
  191.8710  176.6950  143.4090 C   0  0  0  0  0  3  0  0  0  0  0  0
  194.4350  175.2310  145.8520 C   0  0  0  0  0  2  0  0  0  0  0  0
  189.4190  177.2870  143.6460 C   0  0  1  0  0  3  0  0  0  0  0  0
  186.1770  177.4830  145.2590 C   0  0  0  0  0  2  0  0  0  0  0  0
  193.1560  175.7540  145.2430 C   0  0  0  0  0  0  0  0  0  0  0  0
  196.0780  174.8250  143.9720 C   0  0  0  0  0  2  0  0  0  0  0  0
  186.7930  178.3780  142.9820 C   0  0  2  0  0  3  0  0  0  0  0  0
  190.7640  176.2250  145.5020 C   0  0  0  0  0  0  0  0  0  0  0  0
  194.2620  176.2590  142.9890 C   0  0  0  0  0  0  0  0  0  0  0  0
  190.7030  176.6890  144.1810 C   0  0  0  0  0  0  0  0  0  0  0  0
  190.9310  175.2080  148.1750 C   0  0  0  0  0  3  0  0  0  0  0  0
  188.5100  178.3800  141.5730 C   0  0  0  0  0  2  0  0  0  0  0  0
  192.0440  175.3760  147.4620 C   0  0  0  0  0  3  0  0  0  0  0  0
  189.4210  177.2910  142.1120 C   0  0  0  0  0  2  0  0  0  0  0  0
  186.8030  177.1570  143.9110 C   0  0  1  0  0  3  0  0  0  0  0  0
  189.5820  175.3190  147.5320 C   0  0  0  0  0  2  0  0  0  0  0  0
  188.2130  176.2780  145.6970 C   0  0  1  0  0  3  0  0  0  0  0  0
  185.5130  178.9360  142.9220 O   0  0  0  0  0  0  0  0  0  0  0  0
  185.0280  178.5770  141.6630 C   0  0  0  0  0  2  0  0  0  0  0  0
  181.5250  178.8540  142.2280 O   0  0  0  0  0  0  0  0  0  0  0  0
  182.9070  178.0130  140.5050 C   0  0  0  0  0  2  0  0  0  0  0  0
  183.6590  177.9340  141.8000 C   0  0  2  0  0  3  0  0  0  0  0  0
  181.6980  178.8570  140.8370 C   0  0  0  0  0  2  0  0  0  0  0  0
  182.8180  178.7420  142.7590 C   0  0  0  0  0  2  0  0  0  0  0  0
  1 26  1  1  0  0  0
  3  7  1  6  0  0  0
  3 16  1  0  0  0  0
  4 23  1  0  0  0  0
  5 15  1  0  0  0  0
  6 19  2  0  0  0  0
  8 12  1  0  0  0  0
  9 27  1  0  0  0  0
 10 17  1  0  0  0  0
 11  5  2  0  0  0  0
 11 20  1  0  0  0  0
 13 20  1  0  0  0  0
 13  9  1  0  0  0  0
 14  2  1  0  0  0  0
 15 12  1  0  0  0  0
 15  4  2  0  0  0  0
 16  8  1  0  0  0  0
 17 25  1  0  0  0  0
 18  4  1  0  0  0  0
 18  1  1  0  0  0  0
 19  3  1  0  0  0  0
 19  5  1  0  0  0  0
 20 18  2  0  0  0  0
 22 10  1  0  0  0  0
 22 24  1  0  0  0  0
 23 21  2  0  0  0  0
 24 13  1  0  0  0  0
 25  9  1  0  0  0  0
 25 14  1  0  0  0  0
 26 21  1  0  0  0  0
 27  2  1  0  0  0  0
 27  1  1  0  0  0  0
 28 17  1  0  0  0  0
 29 32  1  0  0  0  0
 29 28  1  0  0  0  0
 30 34  1  0  0  0  0
 31 33  1  0  0  0  0
 31 32  1  0  0  0  0
 32 34  1  0  0  0  0
 33 30  1  0  0  0  0
M  END
>  <MODEL>
1

>  <REMARK>
 VINA RESULT:      -9.1      0.000      0.000
  Name = 
  3 active torsions:
  status: ('A' for Active; 'I' for Inactive)
    1  A    between atoms: C_17  and  O_28
    2  A    between atoms: O_28  and  C_29
    3  A    between atoms: C_29  and  C_32
                            x       y       z     vdW  Elec       q    Type
                         _______ _______ _______ _____ _____    ______ ____

>  <TORSDO>
F 3

$$$$
=
 OpenBabel11112417473D

 34 40  0  0  1  0  0  0  0  0999 V2000
  186.7560  178.1780  145.3450 C   0  0  2  0  0  3  0  0  0  0  0  0
  184.6130  179.1340  144.5110 C   0  0  0  0  0  2  0  0  0  0  0  0
  192.9420  175.9980  143.7290 C   0  0  2  0  0  3  0  0  0  0  0  0
  189.0810  177.2330  145.6310 C   0  0  0  0  0  0  0  0  0  0  0  0
  190.3810  176.4570  143.7130 C   0  0  0  0  0  0  0  0  0  0  0  0
  191.4950  175.3340  141.9400 O   0  0  0  0  0  0  0  0  0  0  0  0
  194.0940  175.8790  142.7440 C   0  0  0  0  0  1  0  0  0  0  0  0
  191.9600  175.0090  145.8690 C   0  0  0  0  0  2  0  0  0  0  0  0
  185.5700  177.3450  143.1560 C   0  0  2  0  0  3  0  0  0  0  0  0
  184.9670  177.4810  140.1620 O   0  0  0  0  0  0  0  0  0  0  0  0
  189.2800  176.7350  142.8950 C   0  0  0  0  0  3  0  0  0  0  0  0
  191.4180  176.4200  146.0590 C   0  0  0  0  0  2  0  0  0  0  0  0
  186.9390  177.6150  142.4860 C   0  0  1  0  0  3  0  0  0  0  0  0
  183.6680  178.9160  143.3540 C   0  0  0  0  0  2  0  0  0  0  0  0
  190.2790  176.7000  145.1090 C   0  0  0  0  0  0  0  0  0  0  0  0
  193.0990  174.9690  144.8470 C   0  0  0  0  0  2  0  0  0  0  0  0
  184.5650  178.4970  141.0330 C   0  0  2  0  0  3  0  0  0  0  0  0
  187.9770  177.4810  144.7850 C   0  0  0  0  0  0  0  0  0  0  0  0
  191.5970  175.9060  143.0620 C   0  0  0  0  0  0  0  0  0  0  0  0
  188.0770  177.2330  143.4090 C   0  0  0  0  0  0  0  0  0  0  0  0
  187.8070  177.9100  147.6130 C   0  0  0  0  0  3  0  0  0  0  0  0
  186.3500  177.6240  140.0430 C   0  0  0  0  0  2  0  0  0  0  0  0
  188.9780  177.5880  147.0640 C   0  0  0  0  0  3  0  0  0  0  0  0
  187.0430  176.8590  141.1560 C   0  0  0  0  0  2  0  0  0  0  0  0
  184.3230  177.9030  142.4270 C   0  0  1  0  0  3  0  0  0  0  0  0
  186.5370  177.8260  146.8210 C   0  0  0  0  0  2  0  0  0  0  0  0
  185.4580  177.8840  144.5870 C   0  0  1  0  0  3  0  0  0  0  0  0
  183.3940  179.0800  140.5420 O   0  0  0  0  0  0  0  0  0  0  0  0
  182.4500  178.0510  140.5620 C   0  0  0  0  0  2  0  0  0  0  0  0
  178.9180  177.6110  140.5360 O   0  0  0  0  0  0  0  0  0  0  0  0
  180.4840  178.7100  141.9250 C   0  0  0  0  0  2  0  0  0  0  0  0
  181.0490  178.6340  140.5370 C   0  0  2  0  0  3  0  0  0  0  0  0
  179.2800  177.7990  141.8780 C   0  0  0  0  0  2  0  0  0  0  0  0
  180.1200  177.6850  139.8190 C   0  0  0  0  0  2  0  0  0  0  0  0
  1 26  1  1  0  0  0
  2 27  1  0  0  0  0
  3  7  1  6  0  0  0
  3 16  1  0  0  0  0
  4 23  1  0  0  0  0
  5 15  2  0  0  0  0
  6 19  2  0  0  0  0
  8 12  1  0  0  0  0
  9 27  1  0  0  0  0
 10 17  1  0  0  0  0
 11 20  2  0  0  0  0
 11  5  1  0  0  0  0
 13  9  1  0  0  0  0
 13 20  1  0  0  0  0
 14  2  1  0  0  0  0
 15  4  1  0  0  0  0
 15 12  1  0  0  0  0
 16  8  1  0  0  0  0
 17 25  1  0  0  0  0
 18  1  1  0  0  0  0
 18  4  2  0  0  0  0
 19  5  1  0  0  0  0
 19  3  1  0  0  0  0
 20 18  1  0  0  0  0
 22 10  1  0  0  0  0
 22 24  1  0  0  0  0
 23 21  2  0  0  0  0
 24 13  1  0  0  0  0
 25  9  1  0  0  0  0
 25 14  1  0  0  0  0
 26 21  1  0  0  0  0
 27  1  1  0  0  0  0
 28 29  1  0  0  0  0
 28 17  1  0  0  0  0
 30 33  1  0  0  0  0
 32 29  1  0  0  0  0
 32 31  1  0  0  0  0
 33 31  1  0  0  0  0
 34 30  1  0  0  0  0
 34 32  1  0  0  0  0
M  END
>  <MODEL>
2

>  <REMARK>
 VINA RESULT:      -9.1      1.649      3.154
  Name = 
  3 active torsions:
  status: ('A' for Active; 'I' for Inactive)
    1  A    between atoms: C_17  and  O_28
    2  A    between atoms: O_28  and  C_29
    3  A    between atoms: C_29  and  C_32
                            x       y       z     vdW  Elec       q    Type
                         _______ _______ _______ _____ _____    ______ ____

>  <TORSDO>
F 3

$$$$
=
 OpenBabel11112417473D

 34 40  0  0  1  0  0  0  0  0999 V2000
  191.9470  176.7300  145.5850 C   0  0  2  0  0  3  0  0  0  0  0  0
  189.6680  177.4500  146.2850 C   0  0  0  0  0  2  0  0  0  0  0  0
  195.9840  175.0950  140.4210 C   0  0  2  0  0  3  0  0  0  0  0  0
  194.0280  176.0210  144.3410 C   0  0  0  0  0  0  0  0  0  0  0  0
  193.9310  175.3080  142.0060 C   0  0  0  0  0  0  0  0  0  0  0  0
  193.8120  174.2380  139.8890 O   0  0  0  0  0  0  0  0  0  0  0  0
  196.2850  175.0530  138.9320 C   0  0  0  0  0  1  0  0  0  0  0  0
  196.6340  174.0890  142.6770 C   0  0  0  0  0  2  0  0  0  0  0  0
  189.7470  175.7160  144.5710 C   0  0  2  0  0  3  0  0  0  0  0  0
  187.4140  175.6940  142.5960 O   0  0  0  0  0  0  0  0  0  0  0  0
  192.5400  175.4530  142.0530 C   0  0  0  0  0  3  0  0  0  0  0  0
  196.1940  175.4480  143.2070 C   0  0  0  0  0  2  0  0  0  0  0  0
  190.3770  176.0920  143.2070 C   0  0  1  0  0  3  0  0  0  0  0  0
  188.2360  177.1050  145.9530 C   0  0  0  0  0  2  0  0  0  0  0  0
  194.6910  175.5870  143.1740 C   0  0  0  0  0  0  0  0  0  0  0  0
  196.8950  174.1240  141.1690 C   0  0  0  0  0  2  0  0  0  0  0  0
  187.5420  176.6960  143.5620 C   0  0  2  0  0  3  0  0  0  0  0  0
  192.6200  176.1340  144.3670 C   0  0  0  0  0  0  0  0  0  0  0  0
  194.5310  174.8530  140.7250 C   0  0  0  0  0  0  0  0  0  0  0  0
  191.8720  175.8510  143.2170 C   0  0  0  0  0  0  0  0  0  0  0  0
  194.1940  176.6400  146.7080 C   0  0  0  0  0  3  0  0  0  0  0  0
  188.4070  175.9640  141.6520 C   0  0  0  0  0  2  0  0  0  0  0  0
  194.7990  176.4120  145.5430 C   0  0  0  0  0  3  0  0  0  0  0  0
  189.7080  175.3050  142.0730 C   0  0  0  0  0  2  0  0  0  0  0  0
  188.2710  176.1280  144.7870 C   0  0  1  0  0  3  0  0  0  0  0  0
  192.7220  176.4090  146.8680 C   0  0  0  0  0  2  0  0  0  0  0  0
  190.4930  176.2900  145.7810 C   0  0  1  0  0  3  0  0  0  0  0  0
  186.2690  177.1480  143.9190 O   0  0  0  0  0  0  0  0  0  0  0  0
  186.1590  178.4050  143.3190 C   0  0  0  0  0  2  0  0  0  0  0  0
  183.6010  178.8520  145.7540 O   0  0  0  0  0  0  0  0  0  0  0  0
  185.8840  179.4340  145.5600 C   0  0  0  0  0  2  0  0  0  0  0  0
  185.3040  179.3160  144.1820 C   0  0  2  0  0  3  0  0  0  0  0  0
  184.8150  178.8540  146.4560 C   0  0  0  0  0  2  0  0  0  0  0  0
  183.9560  178.6760  144.4090 C   0  0  0  0  0  2  0  0  0  0  0  0
  1 27  1  0  0  0  0
  1 26  1  1  0  0  0
  3  7  1  6  0  0  0
  3 19  1  0  0  0  0
  3 16  1  0  0  0  0
  4 18  1  0  0  0  0
  4 23  1  0  0  0  0
  5 11  2  0  0  0  0
  5 15  1  0  0  0  0
  6 19  2  0  0  0  0
  8 12  1  0  0  0  0
  9 25  1  0  0  0  0
  9 27  1  0  0  0  0
 10 17  1  0  0  0  0
 11 20  1  0  0  0  0
 13 20  1  0  0  0  0
 13  9  1  0  0  0  0
 14  2  1  0  0  0  0
 15 12  1  0  0  0  0
 15  4  2  0  0  0  0
 16  8  1  0  0  0  0
 17 28  1  0  0  0  0
 17 25  1  0  0  0  0
 18  1  1  0  0  0  0
 19  5  1  0  0  0  0
 20 18  2  0  0  0  0
 21 26  1  0  0  0  0
 22 24  1  0  0  0  0
 22 10  1  0  0  0  0
 23 21  2  0  0  0  0
 24 13  1  0  0  0  0
 25 14  1  0  0  0  0
 27  2  1  0  0  0  0
 29 28  1  0  0  0  0
 29 32  1  0  0  0  0
 30 33  1  0  0  0  0
 31 33  1  0  0  0  0
 32 34  1  0  0  0  0
 32 31  1  0  0  0  0
 34 30  1  0  0  0  0
M  END
>  <MODEL>
3

>  <REMARK>
 VINA RESULT:      -8.8      1.997      3.007
  Name = 
  3 active torsions:
  status: ('A' for Active; 'I' for Inactive)
    1  A    between atoms: C_17  and  O_28
    2  A    between atoms: O_28  and  C_29
    3  A    between atoms: C_29  and  C_32
                            x       y       z     vdW  Elec       q    Type
                         _______ _______ _______ _____ _____    ______ ____

>  <TORSDO>
F 3

$$$$
=
 OpenBabel11112417473D

 34 40  0  0  1  0  0  0  0  0999 V2000
  189.7400  174.2340  144.9270 C   0  0  2  0  0  3  0  0  0  0  0  0
  191.2470  172.3520  144.3020 C   0  0  0  0  0  2  0  0  0  0  0  0
  184.4600  178.0420  143.1200 C   0  0  2  0  0  3  0  0  0  0  0  0
  187.9600  176.0230  145.0500 C   0  0  0  0  0  0  0  0  0  0  0  0
  186.6700  176.6680  143.0780 C   0  0  0  0  0  0  0  0  0  0  0  0
  185.6940  177.5900  141.1190 O   0  0  0  0  0  0  0  0  0  0  0  0
  183.2560  178.3070  142.2320 C   0  0  0  0  0  1  0  0  0  0  0  0
  186.0900  179.1380  144.7530 C   0  0  0  0  0  2  0  0  0  0  0  0
  190.7160  173.9200  142.5100 C   0  0  2  0  0  3  0  0  0  0  0  0
  190.6810  172.7460  139.6870 O   0  0  0  0  0  0  0  0  0  0  0  0
  187.4440  175.7820  142.3210 C   0  0  0  0  0  3  0  0  0  0  0  0
  186.1520  177.7390  145.3520 C   0  0  0  0  0  2  0  0  0  0  0  0
  189.2380  174.0120  142.0590 C   0  0  1  0  0  3  0  0  0  0  0  0
  191.9830  171.8700  143.0750 C   0  0  0  0  0  2  0  0  0  0  0  0
  186.9370  176.8000  144.4680 C   0  0  0  0  0  0  0  0  0  0  0  0
  184.8640  179.3190  143.8540 C   0  0  0  0  0  2  0  0  0  0  0  0
  190.8700  171.9370  140.8110 C   0  0  2  0  0  3  0  0  0  0  0  0
  188.7430  175.1550  144.2570 C   0  0  0  0  0  0  0  0  0  0  0  0
  185.6120  177.4330  142.3690 C   0  0  0  0  0  0  0  0  0  0  0  0
  188.4830  175.0320  142.8850 C   0  0  0  0  0  0  0  0  0  0  0  0
  189.2720  175.4920  147.0520 C   0  0  0  0  0  3  0  0  0  0  0  0
  189.3330  173.1070  139.7160 C   0  0  0  0  0  2  0  0  0  0  0  0
  188.1980  176.0650  146.5100 C   0  0  0  0  0  3  0  0  0  0  0  0
  189.1520  174.3520  140.5660 C   0  0  0  0  0  2  0  0  0  0  0  0
  191.5480  172.7570  141.9170 C   0  0  1  0  0  3  0  0  0  0  0  0
  190.3290  174.8700  146.1910 C   0  0  0  0  0  2  0  0  0  0  0  0
  190.8990  173.7960  144.0270 C   0  0  1  0  0  3  0  0  0  0  0  0
  191.6670  170.8460  140.4550 O   0  0  0  0  0  0  0  0  0  0  0  0
  190.7650  169.7970  140.2590 C   0  0  0  0  0  2  0  0  0  0  0  0
  190.3170  170.0910  136.7410 O   0  0  0  0  0  0  0  0  0  0  0  0
  192.1510  169.7930  138.2010 C   0  0  0  0  0  2  0  0  0  0  0  0
  190.9230  169.2340  138.8580 C   0  0  2  0  0  3  0  0  0  0  0  0
  191.6140  170.5500  137.0100 C   0  0  0  0  0  2  0  0  0  0  0  0
  189.7910  169.7250  137.9880 C   0  0  0  0  0  2  0  0  0  0  0  0
  1 26  1  1  0  0  0
  3  7  1  6  0  0  0
  3 16  1  0  0  0  0
  4 23  1  0  0  0  0
  5 15  2  0  0  0  0
  6 19  2  0  0  0  0
  8 12  1  0  0  0  0
  9 27  1  0  0  0  0
 10 22  1  0  0  0  0
 10 17  1  0  0  0  0
 11 20  2  0  0  0  0
 11  5  1  0  0  0  0
 13  9  1  0  0  0  0
 13 20  1  0  0  0  0
 14  2  1  0  0  0  0
 15  4  1  0  0  0  0
 15 12  1  0  0  0  0
 16  8  1  0  0  0  0
 17 25  1  0  0  0  0
 18  1  1  0  0  0  0
 18  4  2  0  0  0  0
 19  5  1  0  0  0  0
 19  3  1  0  0  0  0
 20 18  1  0  0  0  0
 22 24  1  0  0  0  0
 23 21  2  0  0  0  0
 24 13  1  0  0  0  0
 25  9  1  0  0  0  0
 25 14  1  0  0  0  0
 26 21  1  0  0  0  0
 27  2  1  0  0  0  0
 27  1  1  0  0  0  0
 28 17  1  0  0  0  0
 29 28  1  0  0  0  0
 30 33  1  0  0  0  0
 30 34  1  0  0  0  0
 31 32  1  0  0  0  0
 32 29  1  0  0  0  0
 33 31  1  0  0  0  0
 34 32  1  0  0  0  0
M  END
>  <MODEL>
4

>  <REMARK>
 VINA RESULT:      -8.5      4.474      8.305
  Name = 
  3 active torsions:
  status: ('A' for Active; 'I' for Inactive)
    1  A    between atoms: C_17  and  O_28
    2  A    between atoms: O_28  and  C_29
    3  A    between atoms: C_29  and  C_32
                            x       y       z     vdW  Elec       q    Type
                         _______ _______ _______ _____ _____    ______ ____

>  <TORSDO>
F 3

$$$$
=
 OpenBabel11112417473D

 34 40  0  0  1  0  0  0  0  0999 V2000
  192.4400  175.9490  144.9420 C   0  0  2  0  0  3  0  0  0  0  0  0
  190.8860  177.7820  144.2830 C   0  0  0  0  0  2  0  0  0  0  0  0
  194.4910  169.6240  143.7520 C   0  0  2  0  0  3  0  0  0  0  0  0
  193.7520  173.8040  145.1780 C   0  0  0  0  0  0  0  0  0  0  0  0
  193.0160  171.7400  144.0960 C   0  0  0  0  0  0  0  0  0  0  0  0
  192.1220  169.6510  143.4030 O   0  0  0  0  0  0  0  0  0  0  0  0
  194.5320  168.3840  142.8750 C   0  0  0  0  0  1  0  0  0  0  0  0
  194.8900  170.4730  146.1280 C   0  0  0  0  0  2  0  0  0  0  0  0
  189.9070  175.5490  144.3740 C   0  0  2  0  0  3  0  0  0  0  0  0
  187.5960  175.0340  142.4410 O   0  0  0  0  0  0  0  0  0  0  0  0
  191.8780  172.4190  143.6470 C   0  0  0  0  0  3  0  0  0  0  0  0
  195.2170  171.7780  145.4140 C   0  0  0  0  0  2  0  0  0  0  0  0
  190.4490  174.4940  143.3790 C   0  0  1  0  0  3  0  0  0  0  0  0
  189.4310  177.9330  143.9130 C   0  0  0  0  0  2  0  0  0  0  0  0
  193.9680  172.4410  144.8850 C   0  0  0  0  0  0  0  0  0  0  0  0
  194.9290  169.2770  145.1730 C   0  0  0  0  0  2  0  0  0  0  0  0
  188.3100  176.2350  142.4200 C   0  0  2  0  0  3  0  0  0  0  0  0
  192.5810  174.4570  144.7320 C   0  0  0  0  0  0  0  0  0  0  0  0
  193.1510  170.3080  143.7260 C   0  0  0  0  0  0  0  0  0  0  0  0
  191.6400  173.7620  143.9610 C   0  0  0  0  0  0  0  0  0  0  0  0
  194.5080  175.8120  146.3630 C   0  0  0  0  0  3  0  0  0  0  0  0
  188.4600  174.0820  141.8980 C   0  0  0  0  0  2  0  0  0  0  0  0
  194.7700  174.5860  145.9130 C   0  0  0  0  0  3  0  0  0  0  0  0
  189.3420  173.5060  142.9900 C   0  0  0  0  0  2  0  0  0  0  0  0
  188.8440  176.5320  143.8280 C   0  0  1  0  0  3  0  0  0  0  0  0
  193.1370  176.4040  146.2280 C   0  0  0  0  0  2  0  0  0  0  0  0
  190.9910  176.4470  144.9820 C   0  0  1  0  0  3  0  0  0  0  0  0
  187.4610  177.2600  141.9950 O   0  0  0  0  0  0  0  0  0  0  0  0
  186.2880  177.0780  142.7310 C   0  0  0  0  0  2  0  0  0  0  0  0
  183.5380  178.9860  143.9410 O   0  0  0  0  0  0  0  0  0  0  0  0
  185.8520  178.8590  144.4030 C   0  0  0  0  0  2  0  0  0  0  0  0
  185.6240  178.4190  142.9860 C   0  0  2  0  0  3  0  0  0  0  0  0
  184.4630  178.9220  144.9920 C   0  0  0  0  0  2  0  0  0  0  0  0
  184.1250  178.2660  142.8910 C   0  0  0  0  0  2  0  0  0  0  0  0
  1 27  1  0  0  0  0
  1 26  1  1  0  0  0
  2 27  1  0  0  0  0
  3  7  1  6  0  0  0
  3 16  1  0  0  0  0
  4 23  1  0  0  0  0
  5 15  2  0  0  0  0
  6 19  2  0  0  0  0
  9 27  1  0  0  0  0
 11 20  2  0  0  0  0
 11  5  1  0  0  0  0
 12  8  1  0  0  0  0
 13 20  1  0  0  0  0
 13  9  1  0  0  0  0
 14  2  1  0  0  0  0
 15  4  1  0  0  0  0
 15 12  1  0  0  0  0
 16  8  1  0  0  0  0
 17 10  1  0  0  0  0
 17 25  1  0  0  0  0
 18  1  1  0  0  0  0
 18  4  2  0  0  0  0
 19  3  1  0  0  0  0
 19  5  1  0  0  0  0
 20 18  1  0  0  0  0
 22 10  1  0  0  0  0
 22 24  1  0  0  0  0
 23 21  2  0  0  0  0
 24 13  1  0  0  0  0
 25 14  1  0  0  0  0
 25  9  1  0  0  0  0
 26 21  1  0  0  0  0
 28 17  1  0  0  0  0
 28 29  1  0  0  0  0
 29 32  1  0  0  0  0
 30 33  1  0  0  0  0
 31 33  1  0  0  0  0
 32 31  1  0  0  0  0
 34 32  1  0  0  0  0
 34 30  1  0  0  0  0
M  END
>  <MODEL>
5

>  <REMARK>
 VINA RESULT:      -8.5      2.902      4.130
  Name = 
  3 active torsions:
  status: ('A' for Active; 'I' for Inactive)
    1  A    between atoms: C_17  and  O_28
    2  A    between atoms: O_28  and  C_29
    3  A    between atoms: C_29  and  C_32
                            x       y       z     vdW  Elec       q    Type
                         _______ _______ _______ _____ _____    ______ ____

>  <TORSDO>
F 3

$$$$
=
 OpenBabel11112417473D

 34 40  0  0  1  0  0  0  0  0999 V2000
  191.3390  175.1300  146.0820 C   0  0  2  0  0  3  0  0  0  0  0  0
  193.6580  174.2300  146.2030 C   0  0  0  0  0  2  0  0  0  0  0  0
  186.4890  177.6470  142.1090 C   0  0  2  0  0  3  0  0  0  0  0  0
  189.1060  176.0900  145.3920 C   0  0  0  0  0  0  0  0  0  0  0  0
  188.7930  177.1290  143.2030 C   0  0  0  0  0  0  0  0  0  0  0  0
  188.5670  178.4900  141.2690 O   0  0  0  0  0  0  0  0  0  0  0  0
  185.9070  177.9160  140.7310 C   0  0  0  0  0  1  0  0  0  0  0  0
  186.3590  178.3390  144.5640 C   0  0  0  0  0  2  0  0  0  0  0  0
  193.3600  176.1960  144.7890 C   0  0  2  0  0  3  0  0  0  0  0  0
  195.2600  176.4150  142.4040 O   0  0  0  0  0  0  0  0  0  0  0  0
  190.1540  176.9260  142.9470 C   0  0  0  0  0  3  0  0  0  0  0  0
  186.8030  176.9030  144.8070 C   0  0  0  0  0  2  0  0  0  0  0  0
  192.4540  176.0460  143.5430 C   0  0  1  0  0  3  0  0  0  0  0  0
  195.0170  174.5650  145.6380 C   0  0  0  0  0  2  0  0  0  0  0  0
  188.2590  176.7130  144.4520 C   0  0  0  0  0  0  0  0  0  0  0  0
  185.8070  178.5340  143.1500 C   0  0  0  0  0  2  0  0  0  0  0  0
  195.2570  175.2900  143.2330 C   0  0  2  0  0  3  0  0  0  0  0  0
  190.4820  175.9210  145.1170 C   0  0  0  0  0  0  0  0  0  0  0  0
  187.9870  177.7870  142.1420 C   0  0  0  0  0  0  0  0  0  0  0  0
  191.0090  176.3390  143.8880 C   0  0  0  0  0  0  0  0  0  0  0  0
  189.3650  175.1420  147.6380 C   0  0  0  0  0  3  0  0  0  0  0  0
  194.0870  176.3230  141.6530 C   0  0  0  0  0  2  0  0  0  0  0  0
  188.5610  175.5590  146.6610 C   0  0  0  0  0  3  0  0  0  0  0  0
  192.9390  176.9620  142.4130 C   0  0  0  0  0  2  0  0  0  0  0  0
  194.8200  175.7010  144.6450 C   0  0  1  0  0  3  0  0  0  0  0  0
  190.8520  175.2910  147.5260 C   0  0  0  0  0  2  0  0  0  0  0  0
  192.8290  175.4820  146.0370 C   0  0  1  0  0  3  0  0  0  0  0  0
  196.5420  174.7430  143.2600 O   0  0  0  0  0  0  0  0  0  0  0  0
  196.5300  173.7570  142.2700 C   0  0  0  0  0  2  0  0  0  0  0  0
  197.5850  171.7680  145.0250 O   0  0  0  0  0  0  0  0  0  0  0  0
  196.0110  171.5500  143.2760 C   0  0  0  0  0  2  0  0  0  0  0  0
  197.1070  172.4650  142.8180 C   0  0  2  0  0  3  0  0  0  0  0  0
  196.2610  171.3950  144.7580 C   0  0  0  0  0  2  0  0  0  0  0  0
  197.8860  172.7570  144.0780 C   0  0  0  0  0  2  0  0  0  0  0  0
  1 26  1  1  0  0  0
  3  7  1  6  0  0  0
  3 19  1  0  0  0  0
  3 16  1  0  0  0  0
  4 23  1  0  0  0  0
  5 15  1  0  0  0  0
  6 19  2  0  0  0  0
  8 12  1  0  0  0  0
  9 27  1  0  0  0  0
 10 17  1  0  0  0  0
 11  5  2  0  0  0  0
 11 20  1  0  0  0  0
 13 20  1  0  0  0  0
 13  9  1  0  0  0  0
 14  2  1  0  0  0  0
 15 12  1  0  0  0  0
 15  4  2  0  0  0  0
 16  8  1  0  0  0  0
 17 28  1  0  0  0  0
 17 25  1  0  0  0  0
 18  4  1  0  0  0  0
 18  1  1  0  0  0  0
 19  5  1  0  0  0  0
 20 18  2  0  0  0  0
 22 10  1  0  0  0  0
 22 24  1  0  0  0  0
 23 21  2  0  0  0  0
 24 13  1  0  0  0  0
 25  9  1  0  0  0  0
 25 14  1  0  0  0  0
 26 21  1  0  0  0  0
 27  1  1  0  0  0  0
 27  2  1  0  0  0  0
 29 32  1  0  0  0  0
 29 28  1  0  0  0  0
 31 33  1  0  0  0  0
 32 31  1  0  0  0  0
 32 34  1  0  0  0  0
 33 30  1  0  0  0  0
 34 30  1  0  0  0  0
M  END
>  <MODEL>
6

>  <REMARK>
 VINA RESULT:      -8.5      2.019      8.904
  Name = 
  3 active torsions:
  status: ('A' for Active; 'I' for Inactive)
    1  A    between atoms: C_17  and  O_28
    2  A    between atoms: O_28  and  C_29
    3  A    between atoms: C_29  and  C_32
                            x       y       z     vdW  Elec       q    Type
                         _______ _______ _______ _____ _____    ______ ____

>  <TORSDO>
F 3

$$$$
=
 OpenBabel11112417473D

 34 40  0  0  1  0  0  0  0  0999 V2000
  190.2570  175.2370  142.5590 C   0  0  2  0  0  3  0  0  0  0  0  0
  192.6110  174.7500  141.9040 C   0  0  0  0  0  2  0  0  0  0  0  0
  186.1760  178.6520  146.7210 C   0  0  2  0  0  3  0  0  0  0  0  0
  188.1230  176.0770  143.6180 C   0  0  0  0  0  0  0  0  0  0  0  0
  188.1430  177.2420  145.7650 C   0  0  0  0  0  0  0  0  0  0  0  0
  188.0860  178.0060  148.0130 O   0  0  0  0  0  0  0  0  0  0  0  0
  185.9410  179.7460  147.7490 C   0  0  0  0  0  1  0  0  0  0  0  0
  185.1940  176.5050  145.7460 C   0  0  0  0  0  2  0  0  0  0  0  0
  192.1770  174.8240  144.3030 C   0  0  2  0  0  3  0  0  0  0  0  0
  194.5160  175.7330  146.0480 O   0  0  0  0  0  0  0  0  0  0  0  0
  189.5230  177.0180  145.8370 C   0  0  0  0  0  3  0  0  0  0  0  0
  185.9360  176.9480  144.4910 C   0  0  0  0  0  2  0  0  0  0  0  0
  191.7230  176.1770  144.9030 C   0  0  1  0  0  3  0  0  0  0  0  0
  193.9240  174.4590  142.5890 C   0  0  0  0  0  2  0  0  0  0  0  0
  187.4260  176.7540  144.6400 C   0  0  0  0  0  0  0  0  0  0  0  0
  185.0180  177.6560  146.7400 C   0  0  0  0  0  2  0  0  0  0  0  0
  194.6000  175.7440  144.6530 C   0  0  2  0  0  3  0  0  0  0  0  0
  189.5120  175.8430  143.7290 C   0  0  0  0  0  0  0  0  0  0  0  0
  187.5070  177.9730  146.8910 C   0  0  0  0  0  0  0  0  0  0  0  0
  190.2170  176.3170  144.8430 C   0  0  0  0  0  0  0  0  0  0  0  0
  188.0110  174.8410  141.5030 C   0  0  0  0  0  3  0  0  0  0  0  0
  193.6660  176.7920  146.3740 C   0  0  0  0  0  2  0  0  0  0  0  0
  187.4220  175.6430  142.3890 C   0  0  0  0  0  3  0  0  0  0  0  0
  192.2240  176.3190  146.3460 C   0  0  0  0  0  2  0  0  0  0  0  0
  193.6980  174.6410  144.0830 C   0  0  1  0  0  3  0  0  0  0  0  0
  189.3700  174.2680  141.7700 C   0  0  0  0  0  2  0  0  0  0  0  0
  191.5440  174.5010  142.9440 C   0  0  1  0  0  3  0  0  0  0  0  0
  195.9280  175.5310  144.2760 O   0  0  0  0  0  0  0  0  0  0  0  0
  196.3940  176.7890  143.8880 C   0  0  0  0  0  2  0  0  0  0  0  0
  197.8540  174.8070  141.3180 O   0  0  0  0  0  0  0  0  0  0  0  0
  196.5610  176.7830  141.4120 C   0  0  0  0  0  2  0  0  0  0  0  0
  197.3250  176.6520  142.6970 C   0  0  2  0  0  3  0  0  0  0  0  0
  196.7470  175.4420  140.7400 C   0  0  0  0  0  2  0  0  0  0  0  0
  197.8770  175.2470  142.6490 C   0  0  0  0  0  2  0  0  0  0  0  0
  1 26  1  1  0  0  0
  1 27  1  0  0  0  0
  1 18  1  0  0  0  0
  2 14  1  0  0  0  0
  2 27  1  0  0  0  0
  3 16  1  0  0  0  0
  3 19  1  0  0  0  0
  3  7  1  1  0  0  0
  4 18  2  0  0  0  0
  4 15  1  0  0  0  0
  5 11  1  0  0  0  0
  5 19  1  0  0  0  0
  8 16  1  0  0  0  0
  9 13  1  0  0  0  0
 10 22  1  0  0  0  0
 12 15  1  0  0  0  0
 12  8  1  0  0  0  0
 13 24  1  0  0  0  0
 14 25  1  0  0  0  0
 15  5  2  0  0  0  0
 17 10  1  0  0  0  0
 18 20  1  0  0  0  0
 19  6  2  0  0  0  0
 20 13  1  0  0  0  0
 20 11  2  0  0  0  0
 21 26  1  0  0  0  0
 21 23  2  0  0  0  0
 23  4  1  0  0  0  0
 24 22  1  0  0  0  0
 25  9  1  0  0  0  0
 25 17  1  0  0  0  0
 27  9  1  0  0  0  0
 28 17  1  0  0  0  0
 29 28  1  0  0  0  0
 30 34  1  0  0  0  0
 31 32  1  0  0  0  0
 32 29  1  0  0  0  0
 33 30  1  0  0  0  0
 33 31  1  0  0  0  0
 34 32  1  0  0  0  0
M  END
>  <MODEL>
7

>  <REMARK>
 VINA RESULT:      -8.5      3.099      9.123
  Name = 
  3 active torsions:
  status: ('A' for Active; 'I' for Inactive)
    1  A    between atoms: C_17  and  O_28
    2  A    between atoms: O_28  and  C_29
    3  A    between atoms: C_29  and  C_32
                            x       y       z     vdW  Elec       q    Type
                         _______ _______ _______ _____ _____    ______ ____

>  <TORSDO>
F 3

$$$$
=
 OpenBabel11112417473D

 34 40  0  0  1  0  0  0  0  0999 V2000
  188.6380  176.2190  146.4940 C   0  0  2  0  0  3  0  0  0  0  0  0
  190.6990  175.3710  147.6050 C   0  0  0  0  0  2  0  0  0  0  0  0
  185.5020  177.4150  140.6310 C   0  0  2  0  0  3  0  0  0  0  0  0
  186.8340  176.9430  144.8800 C   0  0  0  0  0  0  0  0  0  0  0  0
  187.3040  177.2370  142.5000 C   0  0  0  0  0  0  0  0  0  0  0  0
  187.8170  177.9170  140.2830 O   0  0  0  0  0  0  0  0  0  0  0  0
  185.3880  177.2400  139.1250 C   0  0  0  0  0  1  0  0  0  0  0  0
  184.7290  178.8520  142.5960 C   0  0  0  0  0  2  0  0  0  0  0  0
  191.0590  176.7910  145.6540 C   0  0  2  0  0  3  0  0  0  0  0  0
  193.5920  176.2150  144.0420 O   0  0  0  0  0  0  0  0  0  0  0  0
  188.6470  176.9450  142.7610 C   0  0  0  0  0  3  0  0  0  0  0  0
  184.9160  177.5600  143.3820 C   0  0  0  0  0  2  0  0  0  0  0  0
  190.5510  176.2660  144.2880 C   0  0  1  0  0  3  0  0  0  0  0  0
  192.1940  175.4910  147.4270 C   0  0  0  0  0  2  0  0  0  0  0  0
  186.3800  177.2470  143.5800 C   0  0  0  0  0  0  0  0  0  0  0  0
  184.6470  178.5950  141.0890 C   0  0  0  0  0  2  0  0  0  0  0  0
  193.2160  175.4110  145.1210 C   0  0  2  0  0  3  0  0  0  0  0  0
  188.2010  176.6750  145.1180 C   0  0  0  0  0  0  0  0  0  0  0  0
  186.9280  177.5360  141.0940 C   0  0  0  0  0  0  0  0  0  0  0  0
  189.1120  176.6750  144.0540 C   0  0  0  0  0  0  0  0  0  0  0  0
  186.3060  176.7530  147.2660 C   0  0  0  0  0  3  0  0  0  0  0  0
  192.6910  175.9060  143.0210 C   0  0  0  0  0  2  0  0  0  0  0  0
  185.8800  176.8490  146.0070 C   0  0  0  0  0  3  0  0  0  0  0  0
  191.4500  176.7700  143.1530 C   0  0  0  0  0  2  0  0  0  0  0  0
  192.4300  176.2550  146.1330 C   0  0  1  0  0  3  0  0  0  0  0  0
  187.7670  176.8370  147.5930 C   0  0  0  0  0  2  0  0  0  0  0  0
  190.1040  176.5170  146.8210 C   0  0  1  0  0  3  0  0  0  0  0  0
  194.3650  174.8820  145.7160 O   0  0  0  0  0  0  0  0  0  0  0  0
  194.4400  173.5710  145.2390 C   0  0  0  0  0  2  0  0  0  0  0  0
  197.7350  172.4940  144.4370 O   0  0  0  0  0  0  0  0  0  0  0  0
  196.7690  174.0080  145.9730 C   0  0  0  0  0  2  0  0  0  0  0  0
  195.7600  172.9450  145.6520 C   0  0  2  0  0  3  0  0  0  0  0  0
  197.8630  173.7910  144.9540 C   0  0  0  0  0  2  0  0  0  0  0  0
  196.3620  172.2170  144.4750 C   0  0  0  0  0  2  0  0  0  0  0  0
  1 27  1  0  0  0  0
  1 26  1  1  0  0  0
  3  7  1  6  0  0  0
  3 16  1  0  0  0  0
  3 19  1  0  0  0  0
  4 18  1  0  0  0  0
  4 23  1  0  0  0  0
  5 11  2  0  0  0  0
  5 15  1  0  0  0  0
  6 19  2  0  0  0  0
  8 12  1  0  0  0  0
  9 25  1  0  0  0  0
  9 27  1  0  0  0  0
 10 17  1  0  0  0  0
 11 20  1  0  0  0  0
 12 15  1  0  0  0  0
 13  9  1  0  0  0  0
 14  2  1  0  0  0  0
 15  4  2  0  0  0  0
 16  8  1  0  0  0  0
 17 28  1  0  0  0  0
 17 25  1  0  0  0  0
 18  1  1  0  0  0  0
 19  5  1  0  0  0  0
 20 13  1  0  0  0  0
 20 18  2  0  0  0  0
 21 26  1  0  0  0  0
 22 24  1  0  0  0  0
 22 10  1  0  0  0  0
 23 21  2  0  0  0  0
 24 13  1  0  0  0  0
 25 14  1  0  0  0  0
 27  2  1  0  0  0  0
 29 32  1  0  0  0  0
 29 28  1  0  0  0  0
 30 34  1  0  0  0  0
 30 33  1  0  0  0  0
 32 31  1  0  0  0  0
 33 31  1  0  0  0  0
 34 32  1  0  0  0  0
M  END
>  <MODEL>
8

>  <REMARK>
 VINA RESULT:      -8.2      2.004      8.917
  Name = 
  3 active torsions:
  status: ('A' for Active; 'I' for Inactive)
    1  A    between atoms: C_17  and  O_28
    2  A    between atoms: O_28  and  C_29
    3  A    between atoms: C_29  and  C_32
                            x       y       z     vdW  Elec       q    Type
                         _______ _______ _______ _____ _____    ______ ____

>  <TORSDO>
F 3

$$$$
=
 OpenBabel11112417473D

 34 40  0  0  1  0  0  0  0  0999 V2000
  191.5900  176.4620  145.5810 C   0  0  2  0  0  3  0  0  0  0  0  0
  189.3690  177.5220  145.1970 C   0  0  0  0  0  2  0  0  0  0  0  0
  196.4260  172.4790  143.0550 C   0  0  2  0  0  3  0  0  0  0  0  0
  193.7570  175.1730  145.4360 C   0  0  0  0  0  0  0  0  0  0  0  0
  194.1160  173.4810  143.7100 C   0  0  0  0  0  0  0  0  0  0  0  0
  194.3370  171.5710  142.3150 O   0  0  0  0  0  0  0  0  0  0  0  0
  197.0720  171.7510  141.8880 C   0  0  0  0  0  1  0  0  0  0  0  0
  196.3170  172.5820  145.6040 C   0  0  0  0  0  2  0  0  0  0  0  0
  189.5660  175.1970  144.4870 C   0  0  2  0  0  3  0  0  0  0  0  0
  187.8230  174.3830  142.1110 O   0  0  0  0  0  0  0  0  0  0  0  0
  192.8030  173.6930  143.2740 C   0  0  0  0  0  3  0  0  0  0  0  0
  196.0020  174.0510  145.3530 C   0  0  0  0  0  2  0  0  0  0  0  0
  190.5670  174.8830  143.3480 C   0  0  1  0  0  3  0  0  0  0  0  0
  188.0250  177.1280  144.6330 C   0  0  0  0  0  2  0  0  0  0  0  0
  194.6010  174.2270  144.8180 C   0  0  0  0  0  0  0  0  0  0  0  0
  196.9430  171.9150  144.3770 C   0  0  0  0  0  2  0  0  0  0  0  0
  187.8810  175.7070  142.5530 C   0  0  2  0  0  3  0  0  0  0  0  0
  192.4280  175.3480  144.9910 C   0  0  0  0  0  0  0  0  0  0  0  0
  194.9240  172.4670  142.9850 C   0  0  0  0  0  0  0  0  0  0  0  0
  191.9480  174.6060  143.9040 C   0  0  0  0  0  0  0  0  0  0  0  0
  193.4410  176.7920  147.2490 C   0  0  0  0  0  3  0  0  0  0  0  0
  189.0480  174.1490  141.4850 C   0  0  0  0  0  2  0  0  0  0  0  0
  194.2640  176.0330  146.5290 C   0  0  0  0  0  3  0  0  0  0  0  0
  190.0720  173.6970  142.5110 C   0  0  0  0  0  2  0  0  0  0  0  0
  188.1760  175.7270  144.0580 C   0  0  1  0  0  3  0  0  0  0  0  0
  191.9570  176.7260  147.0460 C   0  0  0  0  0  2  0  0  0  0  0  0
  190.0780  176.2240  145.5030 C   0  0  1  0  0  3  0  0  0  0  0  0
  186.6580  176.3280  142.2870 O   0  0  0  0  0  0  0  0  0  0  0  0
  186.8980  177.1190  141.1610 C   0  0  0  0  0  2  0  0  0  0  0  0
  183.5970  178.4120  140.8510 O   0  0  0  0  0  0  0  0  0  0  0  0
  185.3020  178.4800  142.4860 C   0  0  0  0  0  2  0  0  0  0  0  0
  185.9400  178.2960  141.1400 C   0  0  2  0  0  3  0  0  0  0  0  0
  183.8310  178.2610  142.2250 C   0  0  0  0  0  2  0  0  0  0  0  0
  184.7780  177.9830  140.2280 C   0  0  0  0  0  2  0  0  0  0  0  0
  1 26  1  1  0  0  0
  2 27  1  0  0  0  0
  3  7  1  6  0  0  0
  3 16  1  0  0  0  0
  4 23  1  0  0  0  0
  5 15  1  0  0  0  0
  6 19  2  0  0  0  0
  9 27  1  0  0  0  0
 10 17  1  0  0  0  0
 11  5  2  0  0  0  0
 11 20  1  0  0  0  0
 12  8  1  0  0  0  0
 13 20  1  0  0  0  0
 13  9  1  0  0  0  0
 14  2  1  0  0  0  0
 15 12  1  0  0  0  0
 15  4  2  0  0  0  0
 16  8  1  0  0  0  0
 17 25  1  0  0  0  0
 18  4  1  0  0  0  0
 18  1  1  0  0  0  0
 19  3  1  0  0  0  0
 19  5  1  0  0  0  0
 20 18  2  0  0  0  0
 22 10  1  0  0  0  0
 22 24  1  0  0  0  0
 23 21  2  0  0  0  0
 24 13  1  0  0  0  0
 25  9  1  0  0  0  0
 25 14  1  0  0  0  0
 26 21  1  0  0  0  0
 27  1  1  0  0  0  0
 28 17  1  0  0  0  0
 29 28  1  0  0  0  0
 30 33  1  0  0  0  0
 32 29  1  0  0  0  0
 32 31  1  0  0  0  0
 33 31  1  0  0  0  0
 34 30  1  0  0  0  0
 34 32  1  0  0  0  0
M  END
>  <MODEL>
9

>  <REMARK>
 VINA RESULT:      -8.2      2.160      2.958
  Name = 
  3 active torsions:
  status: ('A' for Active; 'I' for Inactive)
    1  A    between atoms: C_17  and  O_28
    2  A    between atoms: O_28  and  C_29
    3  A    between atoms: C_29  and  C_32
                            x       y       z     vdW  Elec       q    Type
                         _______ _______ _______ _____ _____    ______ ____

>  <TORSDO>
F 3

$$$$
