=
 OpenBabel11112417523D

 34 42  0  0  1  0  0  0  0  0999 V2000
  192.1750  176.1650  145.8880 C   0  0  0  0  0  0  0  0  0  0  0  0
  189.9240  176.4310  147.0270 C   0  0  0  0  0  2  0  0  0  0  0  0
  196.1200  175.4630  140.4100 C   0  0  1  0  0  0  0  0  0  0  0  0
  194.1860  176.2620  144.5350 C   0  0  0  0  0  0  0  0  0  0  0  0
  194.1530  175.7630  142.1440 C   0  0  0  0  0  0  0  0  0  0  0  0
  194.3910  175.2280  139.5620 C   0  0  1  0  0  3  0  0  0  0  0  0
  195.6920  175.1560  139.0410 N   0  0  0  0  0  2  0  0  0  0  0  0
  197.3300  175.9500  142.4580 C   0  0  0  0  0  3  0  0  0  0  0  0
  190.0590  175.0960  145.0080 C   0  0  2  0  0  3  0  0  0  0  0  0
  187.6830  175.7780  142.8740 C   0  0  0  0  0  2  0  0  0  0  0  0
  192.6480  175.8220  142.1950 C   0  0  0  0  0  2  0  0  0  0  0  0
  196.3430  176.0970  143.3040 N   0  0  0  0  0  0  0  0  0  0  0  0
  190.5770  175.4440  143.5920 C   0  0  1  0  0  3  0  0  0  0  0  0
  188.5210  175.9680  146.6870 C   0  0  0  0  0  2  0  0  0  0  0  0
  194.8940  176.0300  143.2510 C   0  0  0  0  0  0  0  0  0  0  0  0
  197.2650  175.6350  141.0240 C   0  0  0  0  0  2  0  0  0  0  0  0
  187.9850  176.4110  144.2440 C   0  0  2  0  0  3  0  0  0  0  0  0
  192.8230  175.9380  144.6650 C   0  0  0  0  0  0  0  0  0  0  0  0
  194.7540  175.5190  140.8860 N   0  0  0  0  0  0  0  0  0  0  0  0
  192.1050  175.2730  143.5160 C   0  0  2  0  0  3  0  0  0  0  0  0
  194.2390  177.0380  146.7840 C   0  0  0  0  0  3  0  0  0  0  0  0
  188.4000  174.4510  142.6150 C   0  0  0  0  0  2  0  0  0  0  0  0
  194.8530  176.7980  145.5940 N   0  0  0  0  0  0  0  0  0  0  0  0
  189.9160  174.5950  142.4940 C   0  0  0  0  0  2  0  0  0  0  0  0
  188.5720  175.4090  145.2650 C   0  0  1  0  0  3  0  0  0  0  0  0
  192.8880  176.7300  146.9510 C   0  0  0  0  0  3  0  0  0  0  0  0
  190.7840  175.8460  146.0180 N   0  0  0  0  0  0  0  0  0  0  0  0
  186.8170  177.0020  144.7350 O   0  0  0  0  0  0  0  0  0  0  0  0
  186.7270  178.2260  144.0670 C   0  0  0  0  0  2  0  0  0  0  0  0
  183.7240  178.8410  145.4970 O   0  0  0  0  0  0  0  0  0  0  0  0
  185.7920  178.7110  146.3030 C   0  0  0  0  0  3  0  0  0  0  0  0
  185.9400  179.2180  144.9060 C   0  0  2  0  0  3  0  0  0  0  0  0
  184.5180  178.5180  146.5800 C   0  0  0  0  0  3  0  0  0  0  0  0
  184.5020  179.2840  144.4010 C   0  0  0  0  0  2  0  0  0  0  0  0
  1 27  1  0  0  0  0
  1 26  1  0  0  0  0
  3 19  1  0  0  0  0
  3 16  1  6  0  0  0
  4 18  1  0  0  0  0
  4 23  2  0  0  0  0
  5 11  1  0  0  0  0
  5 15  2  0  0  0  0
  6  7  1  1  0  0  0
  6  3  1  0  0  0  0
  6 19  1  0  0  0  0
  7  3  1  0  0  0  0
  8 12  2  0  0  0  0
  9 25  1  0  0  0  0
  9 27  1  1  0  0  0
 10 17  1  0  0  0  0
 13 24  1  6  0  0  0
 13  9  1  0  0  0  0
 14  2  1  0  0  0  0
 15 12  1  0  0  0  0
 15  4  1  0  0  0  0
 16  8  1  0  0  0  0
 17 28  1  1  0  0  0
 17 25  1  0  0  0  0
 18  1  2  0  0  0  0
 19  5  1  0  0  0  0
 20 11  1  6  0  0  0
 20 13  1  0  0  0  0
 20 18  1  0  0  0  0
 21 26  2  0  0  0  0
 22 10  1  0  0  0  0
 23 21  1  0  0  0  0
 24 22  1  0  0  0  0
 25 14  1  1  0  0  0
 27  2  1  0  0  0  0
 29 28  1  0  0  0  0
 30 33  1  0  0  0  0
 31 33  2  0  0  0  0
 32 29  1  6  0  0  0
 32 31  1  0  0  0  0
 34 32  1  0  0  0  0
 34 30  1  0  0  0  0
M  END
>  <MODEL>
1

>  <REMARK>
 VINA RESULT:      -8.9      0.000      0.000
  Name = 
  3 active torsions:
  status: ('A' for Active; 'I' for Inactive)
    1  A    between atoms: C_17  and  O_28
    2  A    between atoms: O_28  and  C_29
    3  A    between atoms: C_29  and  C_32
                            x       y       z     vdW  Elec       q    Type
                         _______ _______ _______ _____ _____    ______ ____

>  <TORSDO>
F 3

$$$$
=
 OpenBabel11112417523D

 34 42  0  0  1  0  0  0  0  0999 V2000
  189.7420  174.5970  142.6930 C   0  0  0  0  0  0  0  0  0  0  0  0
  192.0570  173.5900  142.9410 C   0  0  0  0  0  2  0  0  0  0  0  0
  184.7270  178.7420  144.6240 C   0  0  1  0  0  0  0  0  0  0  0  0
  187.7490  175.9640  142.4920 C   0  0  0  0  0  0  0  0  0  0  0  0
  186.9620  177.3700  144.3290 C   0  0  0  0  0  0  0  0  0  0  0  0
  185.8810  178.9310  146.1730 C   0  0  1  0  0  3  0  0  0  0  0  0
  184.6140  179.4680  145.8940 N   0  0  0  0  0  2  0  0  0  0  0  0
  184.4250  177.7660  142.4210 C   0  0  0  0  0  3  0  0  0  0  0  0
  190.8270  174.1930  144.9410 C   0  0  2  0  0  3  0  0  0  0  0  0
  192.6450  175.8280  147.1060 C   0  0  0  0  0  2  0  0  0  0  0  0
  188.2810  177.1340  145.0180 C   0  0  0  0  0  2  0  0  0  0  0  0
  185.5390  177.0910  142.2910 N   0  0  0  0  0  0  0  0  0  0  0  0
  190.2040  175.5380  145.3860 C   0  0  1  0  0  3  0  0  0  0  0  0
  192.9510  173.3080  144.1340 C   0  0  0  0  0  2  0  0  0  0  0  0
  186.7260  176.8570  143.0920 C   0  0  0  0  0  0  0  0  0  0  0  0
  183.9840  178.5900  143.5550 C   0  0  0  0  0  2  0  0  0  0  0  0
  193.0180  175.2990  145.7100 C   0  0  2  0  0  3  0  0  0  0  0  0
  188.7870  175.4390  143.2820 C   0  0  0  0  0  0  0  0  0  0  0  0
  186.0300  178.2180  144.9740 N   0  0  0  0  0  0  0  0  0  0  0  0
  188.8080  175.7210  144.7650 C   0  0  2  0  0  3  0  0  0  0  0  0
  188.6140  174.8510  140.5750 C   0  0  0  0  0  3  0  0  0  0  0  0
  191.3530  175.2450  147.6820 C   0  0  0  0  0  2  0  0  0  0  0  0
  187.6910  175.6550  141.1670 N   0  0  0  0  0  0  0  0  0  0  0  0
  190.1020  175.6680  146.9130 C   0  0  0  0  0  2  0  0  0  0  0  0
  192.3000  173.9800  145.3430 C   0  0  1  0  0  3  0  0  0  0  0  0
  189.6600  174.3120  141.3260 C   0  0  0  0  0  3  0  0  0  0  0  0
  190.8070  174.0710  143.4940 N   0  0  0  0  0  0  0  0  0  0  0  0
  194.4070  175.1520  145.6400 O   0  0  0  0  0  0  0  0  0  0  0  0
  194.8740  176.3790  145.1640 C   0  0  0  0  0  2  0  0  0  0  0  0
  196.3020  174.0820  143.1330 O   0  0  0  0  0  0  0  0  0  0  0  0
  195.3680  176.0650  142.7620 C   0  0  0  0  0  3  0  0  0  0  0  0
  195.9630  176.1540  144.1290 C   0  0  2  0  0  3  0  0  0  0  0  0
  195.5920  174.8710  142.2500 C   0  0  0  0  0  3  0  0  0  0  0  0
  196.5830  174.7750  144.3340 C   0  0  0  0  0  2  0  0  0  0  0  0
  1 18  1  0  0  0  0
  1 27  1  0  0  0  0
  2 27  1  0  0  0  0
  2 14  1  0  0  0  0
  3 16  1  6  0  0  0
  3 19  1  0  0  0  0
  3  7  1  0  0  0  0
  3  6  1  0  0  0  0
  4 15  1  0  0  0  0
  4 18  2  0  0  0  0
  5 19  1  0  0  0  0
  5 11  1  0  0  0  0
  6  7  1  1  0  0  0
  8 16  1  0  0  0  0
  9 27  1  6  0  0  0
  9 25  1  0  0  0  0
  9 13  1  0  0  0  0
 10 22  1  0  0  0  0
 12  8  2  0  0  0  0
 12 15  1  0  0  0  0
 13 24  1  1  0  0  0
 15  5  2  0  0  0  0
 17 28  1  1  0  0  0
 17 10  1  0  0  0  0
 18 20  1  0  0  0  0
 19  6  1  0  0  0  0
 20 11  1  6  0  0  0
 20 13  1  0  0  0  0
 21 23  2  0  0  0  0
 21 26  1  0  0  0  0
 23  4  1  0  0  0  0
 24 22  1  0  0  0  0
 25 14  1  6  0  0  0
 25 17  1  0  0  0  0
 26  1  2  0  0  0  0
 29 28  1  0  0  0  0
 30 34  1  0  0  0  0
 31 32  1  0  0  0  0
 32 34  1  0  0  0  0
 32 29  1  1  0  0  0
 33 31  2  0  0  0  0
 33 30  1  0  0  0  0
M  END
>  <MODEL>
2

>  <REMARK>
 VINA RESULT:      -8.7      3.375      8.718
  Name = 
  3 active torsions:
  status: ('A' for Active; 'I' for Inactive)
    1  A    between atoms: C_17  and  O_28
    2  A    between atoms: O_28  and  C_29
    3  A    between atoms: C_29  and  C_32
                            x       y       z     vdW  Elec       q    Type
                         _______ _______ _______ _____ _____    ______ ____

>  <TORSDO>
F 3

$$$$
=
 OpenBabel11112417523D

 34 42  0  0  1  0  0  0  0  0999 V2000
  188.5440  176.5990  146.3810 C   0  0  0  0  0  0  0  0  0  0  0  0
  190.5320  175.6450  147.6350 C   0  0  0  0  0  2  0  0  0  0  0  0
  185.0500  177.9090  140.7120 C   0  0  1  0  0  0  0  0  0  0  0  0
  186.6240  177.0930  144.9840 C   0  0  0  0  0  0  0  0  0  0  0  0
  186.7820  177.1360  142.5470 C   0  0  0  0  0  0  0  0  0  0  0  0
  186.7020  177.2880  139.9050 C   0  0  1  0  0  3  0  0  0  0  0  0
  185.5240  177.7880  139.3290 N   0  0  0  0  0  2  0  0  0  0  0  0
  183.8070  178.2910  142.7630 C   0  0  0  0  0  3  0  0  0  0  0  0
  190.8840  176.5700  145.4220 C   0  0  2  0  0  3  0  0  0  0  0  0
  192.7220  174.6530  143.5220 C   0  0  0  0  0  2  0  0  0  0  0  0
  188.1380  176.4890  142.6660 C   0  0  0  0  0  2  0  0  0  0  0  0
  184.6780  177.9030  143.6590 N   0  0  0  0  0  0  0  0  0  0  0  0
  190.2280  176.2310  144.0620 C   0  0  1  0  0  3  0  0  0  0  0  0
  191.9930  175.4450  147.2800 C   0  0  0  0  0  2  0  0  0  0  0  0
  186.0300  177.3740  143.6530 C   0  0  0  0  0  0  0  0  0  0  0  0
  183.9510  178.3120  141.3000 C   0  0  0  0  0  2  0  0  0  0  0  0
  192.2320  174.4290  144.9640 C   0  0  2  0  0  3  0  0  0  0  0  0
  188.0050  176.8610  145.1130 C   0  0  0  0  0  0  0  0  0  0  0  0
  186.2920  177.3890  141.2430 N   0  0  0  0  0  0  0  0  0  0  0  0
  188.8950  176.9830  143.9000 C   0  0  2  0  0  3  0  0  0  0  0  0
  186.3310  176.7860  147.3260 C   0  0  0  0  0  3  0  0  0  0  0  0
  192.5900  176.0930  143.0230 C   0  0  0  0  0  2  0  0  0  0  0  0
  185.8300  177.0520  146.0900 N   0  0  0  0  0  0  0  0  0  0  0  0
  191.1400  176.5500  142.8680 C   0  0  0  0  0  2  0  0  0  0  0  0
  192.1270  175.7350  145.7840 C   0  0  1  0  0  3  0  0  0  0  0  0
  187.6960  176.5500  147.4930 C   0  0  0  0  0  3  0  0  0  0  0  0
  189.9490  176.3510  146.5120 N   0  0  0  0  0  0  0  0  0  0  0  0
  193.0800  173.5090  145.5900 O   0  0  0  0  0  0  0  0  0  0  0  0
  194.1120  173.2930  144.6730 C   0  0  0  0  0  2  0  0  0  0  0  0
  197.4710  173.0290  144.3780 O   0  0  0  0  0  0  0  0  0  0  0  0
  196.1530  174.1670  145.7610 C   0  0  0  0  0  3  0  0  0  0  0  0
  195.3910  172.9310  145.4090 C   0  0  2  0  0  3  0  0  0  0  0  0
  197.3200  174.1660  145.1490 C   0  0  0  0  0  3  0  0  0  0  0  0
  196.3330  172.1930  144.4620 C   0  0  0  0  0  2  0  0  0  0  0  0
  1 27  1  0  0  0  0
  1 26  1  0  0  0  0
  3 19  1  0  0  0  0
  3 16  1  6  0  0  0
  4 18  1  0  0  0  0
  4 23  2  0  0  0  0
  5 11  1  0  0  0  0
  5 15  2  0  0  0  0
  6  7  1  1  0  0  0
  6  3  1  0  0  0  0
  6 19  1  0  0  0  0
  7  3  1  0  0  0  0
  8 12  2  0  0  0  0
  9 25  1  0  0  0  0
  9 27  1  1  0  0  0
 10 17  1  0  0  0  0
 13 24  1  6  0  0  0
 13  9  1  0  0  0  0
 14  2  1  0  0  0  0
 15 12  1  0  0  0  0
 15  4  1  0  0  0  0
 16  8  1  0  0  0  0
 17 28  1  1  0  0  0
 17 25  1  0  0  0  0
 18  1  2  0  0  0  0
 19  5  1  0  0  0  0
 20 11  1  6  0  0  0
 20 13  1  0  0  0  0
 20 18  1  0  0  0  0
 21 26  2  0  0  0  0
 22 10  1  0  0  0  0
 23 21  1  0  0  0  0
 24 22  1  0  0  0  0
 25 14  1  1  0  0  0
 27  2  1  0  0  0  0
 29 28  1  0  0  0  0
 30 34  1  0  0  0  0
 30 33  1  0  0  0  0
 32 29  1  6  0  0  0
 32 31  1  0  0  0  0
 33 31  2  0  0  0  0
 34 32  1  0  0  0  0
M  END
>  <MODEL>
3

>  <REMARK>
 VINA RESULT:      -8.6      3.927      8.445
  Name = 
  3 active torsions:
  status: ('A' for Active; 'I' for Inactive)
    1  A    between atoms: C_17  and  O_28
    2  A    between atoms: O_28  and  C_29
    3  A    between atoms: C_29  and  C_32
                            x       y       z     vdW  Elec       q    Type
                         _______ _______ _______ _____ _____    ______ ____

>  <TORSDO>
F 3

$$$$
=
 OpenBabel11112417523D

 34 42  0  0  1  0  0  0  0  0999 V2000
  189.4500  175.1320  142.5840 C   0  0  0  0  0  0  0  0  0  0  0  0
  191.7060  174.1140  142.0300 C   0  0  0  0  0  2  0  0  0  0  0  0
  185.2880  178.8320  146.4630 C   0  0  1  0  0  0  0  0  0  0  0  0
  187.5300  176.4990  143.1580 C   0  0  0  0  0  0  0  0  0  0  0  0
  187.3100  177.5500  145.3520 C   0  0  0  0  0  0  0  0  0  0  0  0
  186.8140  178.7520  147.6580 C   0  0  1  0  0  3  0  0  0  0  0  0
  185.5410  179.3200  147.8220 N   0  0  0  0  0  2  0  0  0  0  0  0
  184.3790  178.2600  144.2850 C   0  0  0  0  0  3  0  0  0  0  0  0
  191.0700  174.3440  144.3580 C   0  0  2  0  0  3  0  0  0  0  0  0
  193.4570  175.5820  146.2120 C   0  0  0  0  0  2  0  0  0  0  0  0
  188.7530  177.2060  145.6160 C   0  0  0  0  0  2  0  0  0  0  0  0
  185.3920  177.6270  143.7490 N   0  0  0  0  0  0  0  0  0  0  0  0
  190.6400  175.5840  145.1780 C   0  0  1  0  0  3  0  0  0  0  0  0
  192.8700  173.6310  142.8750 C   0  0  0  0  0  2  0  0  0  0  0  0
  186.7370  177.2640  144.1530 C   0  0  0  0  0  0  0  0  0  0  0  0
  184.2850  178.8670  145.6200 C   0  0  0  0  0  2  0  0  0  0  0  0
  193.4280  175.3120  144.6970 C   0  0  2  0  0  3  0  0  0  0  0  0
  188.7180  175.8490  143.5410 C   0  0  0  0  0  0  0  0  0  0  0  0
  186.6150  178.2640  146.3580 N   0  0  0  0  0  0  0  0  0  0  0  0
  189.1380  175.8630  144.9910 C   0  0  2  0  0  3  0  0  0  0  0  0
  187.8170  175.7500  140.9170 C   0  0  0  0  0  3  0  0  0  0  0  0
  192.3390  174.8970  147.0000 C   0  0  0  0  0  2  0  0  0  0  0  0
  187.1140  176.4290  141.8630 N   0  0  0  0  0  0  0  0  0  0  0  0
  190.9470  175.4400  146.6760 C   0  0  0  0  0  2  0  0  0  0  0  0
  192.5860  174.0740  144.3110 C   0  0  1  0  0  3  0  0  0  0  0  0
  189.0000  175.0930  141.2590 C   0  0  0  0  0  3  0  0  0  0  0  0
  190.6660  174.4800  142.9700 N   0  0  0  0  0  0  0  0  0  0  0  0
  194.7430  175.1890  144.2360 O   0  0  0  0  0  0  0  0  0  0  0  0
  195.5200  175.0970  145.3930 C   0  0  0  0  0  2  0  0  0  0  0  0
  196.8160  172.0620  146.1370 O   0  0  0  0  0  0  0  0  0  0  0  0
  196.3050  173.0670  144.2200 C   0  0  0  0  0  3  0  0  0  0  0  0
  196.6960  174.1660  145.1550 C   0  0  2  0  0  3  0  0  0  0  0  0
  196.3940  171.9030  144.8320 C   0  0  0  0  0  3  0  0  0  0  0  0
  197.0310  173.4270  146.4470 C   0  0  0  0  0  2  0  0  0  0  0  0
  1 27  1  0  0  0  0
  1 18  1  0  0  0  0
  2 14  1  0  0  0  0
  2 27  1  0  0  0  0
  3 16  1  6  0  0  0
  3  6  1  0  0  0  0
  3  7  1  0  0  0  0
  4 18  2  0  0  0  0
  4 15  1  0  0  0  0
  5 11  1  0  0  0  0
  5 19  1  0  0  0  0
  6  7  1  1  0  0  0
  8 16  1  0  0  0  0
  9 27  1  6  0  0  0
  9 13  1  0  0  0  0
 10 22  1  0  0  0  0
 12 15  1  0  0  0  0
 12  8  2  0  0  0  0
 13 24  1  1  0  0  0
 15  5  2  0  0  0  0
 17 28  1  1  0  0  0
 17 10  1  0  0  0  0
 18 20  1  0  0  0  0
 19  3  1  0  0  0  0
 19  6  1  0  0  0  0
 20 13  1  0  0  0  0
 20 11  1  6  0  0  0
 21 26  1  0  0  0  0
 21 23  2  0  0  0  0
 23  4  1  0  0  0  0
 24 22  1  0  0  0  0
 25 14  1  6  0  0  0
 25  9  1  0  0  0  0
 25 17  1  0  0  0  0
 26  1  2  0  0  0  0
 28 29  1  0  0  0  0
 30 34  1  0  0  0  0
 31 33  2  0  0  0  0
 31 32  1  0  0  0  0
 32 29  1  1  0  0  0
 32 34  1  0  0  0  0
 33 30  1  0  0  0  0
M  END
>  <MODEL>
4

>  <REMARK>
 VINA RESULT:      -8.6      3.640      9.134
  Name = 
  3 active torsions:
  status: ('A' for Active; 'I' for Inactive)
    1  A    between atoms: C_17  and  O_28
    2  A    between atoms: O_28  and  C_29
    3  A    between atoms: C_29  and  C_32
                            x       y       z     vdW  Elec       q    Type
                         _______ _______ _______ _____ _____    ______ ____

>  <TORSDO>
F 3

$$$$
=
 OpenBabel11112417523D

 34 42  0  0  1  0  0  0  0  0999 V2000
  193.4370  176.0370  143.1930 C   0  0  0  0  0  0  0  0  0  0  0  0
  191.3940  177.5400  143.2350 C   0  0  0  0  0  2  0  0  0  0  0  0
  197.0130  170.6570  145.2710 C   0  0  1  0  0  0  0  0  0  0  0  0
  195.0830  174.2580  143.1040 C   0  0  0  0  0  0  0  0  0  0  0  0
  195.2190  172.5440  144.8390 C   0  0  0  0  0  0  0  0  0  0  0  0
  195.6020  170.6070  146.6020 C   0  0  1  0  0  3  0  0  0  0  0  0
  196.7480  169.8120  146.4400 N   0  0  0  0  0  2  0  0  0  0  0  0
  197.8900  171.7310  143.2780 C   0  0  0  0  0  3  0  0  0  0  0  0
  192.1050  176.4810  145.2960 C   0  0  2  0  0  3  0  0  0  0  0  0
  189.6320  175.1350  146.9510 C   0  0  0  0  0  2  0  0  0  0  0  0
  193.8880  173.0230  145.3570 C   0  0  0  0  0  2  0  0  0  0  0  0
  196.9910  172.6600  143.0780 N   0  0  0  0  0  0  0  0  0  0  0  0
  192.3310  174.9910  145.6480 C   0  0  1  0  0  3  0  0  0  0  0  0
  190.3960  177.9170  144.3140 C   0  0  0  0  0  2  0  0  0  0  0  0
  195.7680  173.0960  143.7240 C   0  0  0  0  0  0  0  0  0  0  0  0
  197.9400  170.7240  144.3480 C   0  0  0  0  0  2  0  0  0  0  0  0
  189.6270  175.8630  145.5950 C   0  0  2  0  0  3  0  0  0  0  0  0
  194.0690  174.9420  143.7990 C   0  0  0  0  0  0  0  0  0  0  0  0
  195.8190  171.4420  145.4960 N   0  0  0  0  0  0  0  0  0  0  0  0
  193.7370  174.5380  145.2150 C   0  0  2  0  0  3  0  0  0  0  0  0
  194.8210  175.7170  141.2420 C   0  0  0  0  0  3  0  0  0  0  0  0
  190.9050  175.3380  147.7750 C   0  0  0  0  0  2  0  0  0  0  0  0
  195.4310  174.6650  141.8520 N   0  0  0  0  0  0  0  0  0  0  0  0
  192.1430  174.7010  147.1450 C   0  0  0  0  0  2  0  0  0  0  0  0
  190.6700  177.0010  145.5070 C   0  0  1  0  0  3  0  0  0  0  0  0
  193.8100  176.4190  141.8990 C   0  0  0  0  0  3  0  0  0  0  0  0
  192.3950  176.7260  143.8940 N   0  0  0  0  0  0  0  0  0  0  0  0
  188.3370  176.3440  145.3470 O   0  0  0  0  0  0  0  0  0  0  0  0
  187.7360  176.4220  146.6060 C   0  0  0  0  0  2  0  0  0  0  0  0
  185.6280  179.0370  147.0030 O   0  0  0  0  0  0  0  0  0  0  0  0
  186.1420  177.7510  145.2630 C   0  0  0  0  0  3  0  0  0  0  0  0
  186.2940  176.8760  146.4650 C   0  0  2  0  0  3  0  0  0  0  0  0
  185.7640  178.9600  145.6310 C   0  0  0  0  0  3  0  0  0  0  0  0
  185.9350  177.8020  147.6230 C   0  0  0  0  0  2  0  0  0  0  0  0
  1 18  1  0  0  0  0
  1 27  1  0  0  0  0
  2 27  1  0  0  0  0
  2 14  1  0  0  0  0
  3 16  1  6  0  0  0
  3 19  1  0  0  0  0
  3  7  1  0  0  0  0
  3  6  1  0  0  0  0
  4 15  1  0  0  0  0
  4 18  2  0  0  0  0
  5 11  1  0  0  0  0
  5 19  1  0  0  0  0
  6  7  1  1  0  0  0
  8 16  1  0  0  0  0
  9 27  1  6  0  0  0
  9 25  1  0  0  0  0
  9 13  1  0  0  0  0
 10 22  1  0  0  0  0
 12  8  2  0  0  0  0
 12 15  1  0  0  0  0
 13 24  1  1  0  0  0
 15  5  2  0  0  0  0
 17 28  1  1  0  0  0
 17 10  1  0  0  0  0
 18 20  1  0  0  0  0
 19  6  1  0  0  0  0
 20 11  1  6  0  0  0
 20 13  1  0  0  0  0
 21 23  2  0  0  0  0
 21 26  1  0  0  0  0
 23  4  1  0  0  0  0
 24 22  1  0  0  0  0
 25 14  1  6  0  0  0
 25 17  1  0  0  0  0
 26  1  2  0  0  0  0
 28 29  1  0  0  0  0
 30 34  1  0  0  0  0
 31 33  2  0  0  0  0
 31 32  1  0  0  0  0
 32 29  1  1  0  0  0
 32 34  1  0  0  0  0
 33 30  1  0  0  0  0
M  END
>  <MODEL>
5

>  <REMARK>
 VINA RESULT:      -8.1      3.040      4.384
  Name = 
  3 active torsions:
  status: ('A' for Active; 'I' for Inactive)
    1  A    between atoms: C_17  and  O_28
    2  A    between atoms: O_28  and  C_29
    3  A    between atoms: C_29  and  C_32
                            x       y       z     vdW  Elec       q    Type
                         _______ _______ _______ _____ _____    ______ ____

>  <TORSDO>
F 3

$$$$
=
 OpenBabel11112417523D

 34 42  0  0  1  0  0  0  0  0999 V2000
  190.4990  172.8670  142.4680 C   0  0  0  0  0  0  0  0  0  0  0  0
  188.2770  173.9970  141.9950 C   0  0  0  0  0  2  0  0  0  0  0  0
  196.5410  172.4830  145.5340 C   0  0  1  0  0  0  0  0  0  0  0  0
  192.5070  171.8440  143.3630 C   0  0  0  0  0  0  0  0  0  0  0  0
  194.1350  173.1240  144.6590 C   0  0  0  0  0  0  0  0  0  0  0  0
  196.0630  174.2930  146.0450 C   0  0  1  0  0  3  0  0  0  0  0  0
  197.2260  173.5430  146.2820 N   0  0  0  0  0  2  0  0  0  0  0  0
  195.8620  170.4440  144.4030 C   0  0  0  0  0  3  0  0  0  0  0  0
  190.2220  175.3800  142.4220 C   0  0  2  0  0  3  0  0  0  0  0  0
  189.6170  177.8110  144.5180 C   0  0  0  0  0  2  0  0  0  0  0  0
  193.1250  174.2390  144.7480 C   0  0  0  0  0  2  0  0  0  0  0  0
  194.6710  170.7790  143.9780 N   0  0  0  0  0  0  0  0  0  0  0  0
  191.1970  175.4220  143.6230 C   0  0  1  0  0  3  0  0  0  0  0  0
  187.8260  175.4450  141.9730 C   0  0  0  0  0  2  0  0  0  0  0  0
  193.8210  171.9530  144.0450 C   0  0  0  0  0  0  0  0  0  0  0  0
  196.8180  171.2550  145.1710 C   0  0  0  0  0  2  0  0  0  0  0  0
  188.6860  176.6950  144.0100 C   0  0  2  0  0  3  0  0  0  0  0  0
  191.7370  172.9940  143.1140 C   0  0  0  0  0  0  0  0  0  0  0  0
  195.3730  173.3100  145.3200 N   0  0  0  0  0  0  0  0  0  0  0  0
  192.2930  174.3520  143.4690 C   0  0  2  0  0  3  0  0  0  0  0  0
  190.8330  170.4790  142.3650 C   0  0  0  0  0  3  0  0  0  0  0  0
  190.8990  177.9880  143.7010 C   0  0  0  0  0  2  0  0  0  0  0  0
  192.0360  170.6250  142.9810 N   0  0  0  0  0  0  0  0  0  0  0  0
  191.8530  176.7990  143.8060 C   0  0  0  0  0  2  0  0  0  0  0  0
  188.9740  176.2740  142.5510 C   0  0  1  0  0  3  0  0  0  0  0  0
  190.0400  171.5970  142.1020 C   0  0  0  0  0  3  0  0  0  0  0  0
  189.7070  174.0360  142.2240 N   0  0  0  0  0  0  0  0  0  0  0  0
  187.3590  177.1130  144.1600 O   0  0  0  0  0  0  0  0  0  0  0  0
  187.2790  177.5830  145.4740 C   0  0  0  0  0  2  0  0  0  0  0  0
  184.7890  178.5010  147.5710 O   0  0  0  0  0  0  0  0  0  0  0  0
  184.8200  177.8320  145.4510 C   0  0  0  0  0  3  0  0  0  0  0  0
  185.9710  177.1390  146.1040 C   0  0  2  0  0  3  0  0  0  0  0  0
  184.1900  178.5860  146.3300 C   0  0  0  0  0  3  0  0  0  0  0  0
  185.9070  177.6330  147.5470 C   0  0  0  0  0  2  0  0  0  0  0  0
  1 18  1  0  0  0  0
  2 27  1  0  0  0  0
  3 16  1  1  0  0  0
  3  6  1  0  0  0  0
  3  7  1  0  0  0  0
  4 15  1  0  0  0  0
  5 11  1  0  0  0  0
  5 19  1  0  0  0  0
  6  7  1  6  0  0  0
  8 16  1  0  0  0  0
  9 27  1  1  0  0  0
  9 25  1  0  0  0  0
  9 13  1  0  0  0  0
 12 15  1  0  0  0  0
 12  8  2  0  0  0  0
 13 24  1  6  0  0  0
 14  2  1  0  0  0  0
 15  5  2  0  0  0  0
 17 28  1  6  0  0  0
 17 10  1  0  0  0  0
 18  4  2  0  0  0  0
 18 20  1  0  0  0  0
 19  3  1  0  0  0  0
 19  6  1  0  0  0  0
 20 13  1  0  0  0  0
 20 11  1  1  0  0  0
 21 23  2  0  0  0  0
 22 24  1  0  0  0  0
 22 10  1  0  0  0  0
 23  4  1  0  0  0  0
 25 14  1  1  0  0  0
 25 17  1  0  0  0  0
 26 21  1  0  0  0  0
 26  1  2  0  0  0  0
 27  1  1  0  0  0  0
 28 29  1  0  0  0  0
 31 32  1  0  0  0  0
 31 33  2  0  0  0  0
 32 29  1  6  0  0  0
 32 34  1  0  0  0  0
 33 30  1  0  0  0  0
 34 30  1  0  0  0  0
M  END
>  <MODEL>
6

>  <REMARK>
 VINA RESULT:      -8.1      3.062      4.603
  Name = 
  3 active torsions:
  status: ('A' for Active; 'I' for Inactive)
    1  A    between atoms: C_17  and  O_28
    2  A    between atoms: O_28  and  C_29
    3  A    between atoms: C_29  and  C_32
                            x       y       z     vdW  Elec       q    Type
                         _______ _______ _______ _____ _____    ______ ____

>  <TORSDO>
F 3

$$$$
=
 OpenBabel11112417523D

 34 42  0  0  1  0  0  0  0  0999 V2000
  190.5350  174.0130  141.2930 C   0  0  0  0  0  0  0  0  0  0  0  0
  188.1210  174.3740  141.9840 C   0  0  0  0  0  2  0  0  0  0  0  0
  197.2260  174.8010  142.1070 C   0  0  1  0  0  0  0  0  0  0  0  0
  192.9010  173.5310  141.0700 C   0  0  0  0  0  0  0  0  0  0  0  0
  194.5930  174.8010  142.2910 C   0  0  0  0  0  0  0  0  0  0  0  0
  196.6140  176.0500  143.4600 C   0  0  1  0  0  3  0  0  0  0  0  0
  197.9070  175.7240  143.0200 N   0  0  0  0  0  2  0  0  0  0  0  0
  196.6100  173.1470  140.4390 C   0  0  0  0  0  3  0  0  0  0  0  0
  189.7330  176.1320  142.4170 C   0  0  2  0  0  3  0  0  0  0  0  0
  189.4970  177.3580  145.4340 C   0  0  0  0  0  2  0  0  0  0  0  0
  193.4870  175.3910  143.1260 C   0  0  0  0  0  2  0  0  0  0  0  0
  195.3050  173.1590  140.5450 N   0  0  0  0  0  0  0  0  0  0  0  0
  191.0680  176.1170  143.2000 C   0  0  1  0  0  3  0  0  0  0  0  0
  187.4000  175.4910  142.7150 C   0  0  0  0  0  2  0  0  0  0  0  0
  194.3210  173.8660  141.3430 C   0  0  0  0  0  0  0  0  0  0  0  0
  197.5930  173.9420  141.1880 C   0  0  0  0  0  2  0  0  0  0  0  0
  188.7020  176.2200  144.7700 C   0  0  2  0  0  3  0  0  0  0  0  0
  191.8690  174.3490  141.5650 C   0  0  0  0  0  0  0  0  0  0  0  0
  195.9210  175.1840  142.6010 N   0  0  0  0  0  0  0  0  0  0  0  0
  192.2160  175.6180  142.3050 C   0  0  2  0  0  3  0  0  0  0  0  0
  191.3020  172.0730  140.0800 C   0  0  0  0  0  3  0  0  0  0  0  0
  190.2860  178.2340  144.4590 C   0  0  0  0  0  2  0  0  0  0  0  0
  192.5900  172.4230  140.3430 N   0  0  0  0  0  0  0  0  0  0  0  0
  191.4340  177.4950  143.7730 C   0  0  0  0  0  2  0  0  0  0  0  0
  188.4770  176.4320  143.2560 C   0  0  1  0  0  3  0  0  0  0  0  0
  190.2510  172.8590  140.5540 C   0  0  0  0  0  3  0  0  0  0  0  0
  189.4820  174.8380  141.8070 N   0  0  0  0  0  0  0  0  0  0  0  0
  187.4850  176.0680  145.4440 O   0  0  0  0  0  0  0  0  0  0  0  0
  187.6410  176.7870  146.6310 C   0  0  0  0  0  2  0  0  0  0  0  0
  185.1020  179.0000  146.9470 O   0  0  0  0  0  0  0  0  0  0  0  0
  185.1990  176.8880  146.2580 C   0  0  0  0  0  3  0  0  0  0  0  0
  186.2860  177.0270  147.2730 C   0  0  2  0  0  3  0  0  0  0  0  0
  184.5650  178.0350  146.1170 C   0  0  0  0  0  3  0  0  0  0  0  0
  186.1780  178.4850  147.7080 C   0  0  0  0  0  2  0  0  0  0  0  0
  1 18  1  0  0  0  0
  1 27  1  0  0  0  0
  2 14  1  0  0  0  0
  3 16  1  1  0  0  0
  3 19  1  0  0  0  0
  3  7  1  0  0  0  0
  3  6  1  0  0  0  0
  4 15  1  0  0  0  0
  4 18  2  0  0  0  0
  5 19  1  0  0  0  0
  5 11  1  0  0  0  0
  6  7  1  6  0  0  0
  8 12  2  0  0  0  0
  8 16  1  0  0  0  0
  9 27  1  1  0  0  0
  9 13  1  0  0  0  0
  9 25  1  0  0  0  0
 12 15  1  0  0  0  0
 13 24  1  6  0  0  0
 15  5  2  0  0  0  0
 17 10  1  0  0  0  0
 17 28  1  1  0  0  0
 18 20  1  0  0  0  0
 19  6  1  0  0  0  0
 20 11  1  1  0  0  0
 20 13  1  0  0  0  0
 21 23  2  0  0  0  0
 21 26  1  0  0  0  0
 22 10  1  0  0  0  0
 23  4  1  0  0  0  0
 24 22  1  0  0  0  0
 25 14  1  6  0  0  0
 25 17  1  0  0  0  0
 26  1  2  0  0  0  0
 27  2  1  0  0  0  0
 28 29  1  0  0  0  0
 30 34  1  0  0  0  0
 31 32  1  0  0  0  0
 32 29  1  6  0  0  0
 32 34  1  0  0  0  0
 33 31  2  0  0  0  0
 33 30  1  0  0  0  0
M  END
>  <MODEL>
7

>  <REMARK>
 VINA RESULT:      -8.0      2.061      3.940
  Name = 
  3 active torsions:
  status: ('A' for Active; 'I' for Inactive)
    1  A    between atoms: C_17  and  O_28
    2  A    between atoms: O_28  and  C_29
    3  A    between atoms: C_29  and  C_32
                            x       y       z     vdW  Elec       q    Type
                         _______ _______ _______ _____ _____    ______ ____

>  <TORSDO>
F 3

$$$$
=
 OpenBabel11112417523D

 34 42  0  0  1  0  0  0  0  0999 V2000
  191.6800  175.6060  145.3960 C   0  0  0  0  0  0  0  0  0  0  0  0
  190.1570  177.5790  144.9190 C   0  0  0  0  0  2  0  0  0  0  0  0
  194.1910  169.4520  144.0230 C   0  0  1  0  0  0  0  0  0  0  0  0
  193.2590  173.7660  145.4090 C   0  0  0  0  0  0  0  0  0  0  0  0
  192.9050  171.7570  144.0640 C   0  0  0  0  0  0  0  0  0  0  0  0
  192.7320  169.4700  142.7440 C   0  0  1  0  0  3  0  0  0  0  0  0
  193.6650  168.4720  143.0670 N   0  0  0  0  0  2  0  0  0  0  0  0
  195.4250  170.6810  145.7150 C   0  0  0  0  0  3  0  0  0  0  0  0
  189.3810  175.3480  144.3730 C   0  0  2  0  0  3  0  0  0  0  0  0
  188.0360  175.1630  141.4030 C   0  0  0  0  0  2  0  0  0  0  0  0
  191.8090  172.4900  143.3350 C   0  0  0  0  0  2  0  0  0  0  0  0
  194.7760  171.8180  145.7220 N   0  0  0  0  0  0  0  0  0  0  0  0
  189.9990  174.2470  143.4780 C   0  0  1  0  0  3  0  0  0  0  0  0
  188.7940  177.7120  144.2670 C   0  0  0  0  0  2  0  0  0  0  0  0
  193.6400  172.3850  145.0200 C   0  0  0  0  0  0  0  0  0  0  0  0
  195.1680  169.4890  144.8950 C   0  0  0  0  0  2  0  0  0  0  0  0
  188.6800  176.3640  142.1170 C   0  0  2  0  0  3  0  0  0  0  0  0
  192.0180  174.3000  145.0160 C   0  0  0  0  0  0  0  0  0  0  0  0
  193.1980  170.4360  143.6480 N   0  0  0  0  0  0  0  0  0  0  0  0
  191.0400  173.4290  144.2650 C   0  0  2  0  0  3  0  0  0  0  0  0
  193.8100  175.8010  146.5140 C   0  0  0  0  0  3  0  0  0  0  0  0
  187.7050  173.9830  142.3190 C   0  0  0  0  0  2  0  0  0  0  0  0
  194.1150  174.5270  146.1460 N   0  0  0  0  0  0  0  0  0  0  0  0
  188.9430  173.2960  142.8940 C   0  0  0  0  0  2  0  0  0  0  0  0
  188.4660  176.3530  143.6480 C   0  0  1  0  0  3  0  0  0  0  0  0
  192.5890  176.3650  146.1410 C   0  0  0  0  0  3  0  0  0  0  0  0
  190.4220  176.1560  144.9850 N   0  0  0  0  0  0  0  0  0  0  0  0
  188.1870  177.5430  141.5490 O   0  0  0  0  0  0  0  0  0  0  0  0
  186.8890  177.2280  141.1400 C   0  0  0  0  0  2  0  0  0  0  0  0
  183.6610  178.1890  141.4550 O   0  0  0  0  0  0  0  0  0  0  0  0
  185.4470  178.4120  142.7620 C   0  0  0  0  0  3  0  0  0  0  0  0
  185.9720  178.4180  141.3630 C   0  0  2  0  0  3  0  0  0  0  0  0
  184.1350  178.2810  142.7490 C   0  0  0  0  0  3  0  0  0  0  0  0
  184.7150  178.2600  140.5130 C   0  0  0  0  0  2  0  0  0  0  0  0
  1 26  1  0  0  0  0
  2 27  1  0  0  0  0
  3 16  1  6  0  0  0
  4 23  2  0  0  0  0
  5 15  2  0  0  0  0
  6  7  1  1  0  0  0
  6 19  1  0  0  0  0
  6  3  1  0  0  0  0
  7  3  1  0  0  0  0
  8 12  2  0  0  0  0
  9 27  1  6  0  0  0
 10 17  1  0  0  0  0
 10 22  1  0  0  0  0
 11  5  1  0  0  0  0
 13 24  1  1  0  0  0
 13 20  1  0  0  0  0
 13  9  1  0  0  0  0
 14  2  1  0  0  0  0
 15  4  1  0  0  0  0
 15 12  1  0  0  0  0
 16  8  1  0  0  0  0
 17 28  1  6  0  0  0
 17 25  1  0  0  0  0
 18  1  2  0  0  0  0
 18  4  1  0  0  0  0
 19  3  1  0  0  0  0
 19  5  1  0  0  0  0
 20 11  1  6  0  0  0
 20 18  1  0  0  0  0
 22 24  1  0  0  0  0
 23 21  1  0  0  0  0
 25 14  1  1  0  0  0
 25  9  1  0  0  0  0
 26 21  2  0  0  0  0
 27  1  1  0  0  0  0
 29 28  1  0  0  0  0
 30 33  1  0  0  0  0
 32 29  1  1  0  0  0
 32 31  1  0  0  0  0
 33 31  2  0  0  0  0
 34 32  1  0  0  0  0
 34 30  1  0  0  0  0
M  END
>  <MODEL>
8

>  <REMARK>
 VINA RESULT:      -7.8      3.467      3.960
  Name = 
  3 active torsions:
  status: ('A' for Active; 'I' for Inactive)
    1  A    between atoms: C_17  and  O_28
    2  A    between atoms: O_28  and  C_29
    3  A    between atoms: C_29  and  C_32
                            x       y       z     vdW  Elec       q    Type
                         _______ _______ _______ _____ _____    ______ ____

>  <TORSDO>
F 3

$$$$
=
 OpenBabel11112417523D

 34 42  0  0  1  0  0  0  0  0999 V2000
  190.0500  174.5290  144.1590 C   0  0  0  0  0  0  0  0  0  0  0  0
  191.4350  172.7210  143.0410 C   0  0  0  0  0  2  0  0  0  0  0  0
  184.6400  178.6070  144.5550 C   0  0  1  0  0  0  0  0  0  0  0  0
  188.3790  175.9580  145.1830 C   0  0  0  0  0  0  0  0  0  0  0  0
  186.4750  176.8200  143.9180 C   0  0  0  0  0  0  0  0  0  0  0  0
  184.3600  177.9150  142.7630 C   0  0  1  0  0  3  0  0  0  0  0  0
  183.6480  178.8700  143.5070 N   0  0  0  0  0  2  0  0  0  0  0  0
  185.9900  178.5390  146.5720 C   0  0  0  0  0  3  0  0  0  0  0  0
  190.1690  174.2490  141.6480 C   0  0  2  0  0  3  0  0  0  0  0  0
  188.5120  172.7320  139.2780 C   0  0  0  0  0  2  0  0  0  0  0  0
  186.8220  175.8520  142.8170 C   0  0  0  0  0  2  0  0  0  0  0  0
  186.8920  177.6500  146.2400 N   0  0  0  0  0  0  0  0  0  0  0  0
  188.6600  174.5930  141.6270 C   0  0  1  0  0  3  0  0  0  0  0  0
  191.6280  172.2960  141.5980 C   0  0  0  0  0  2  0  0  0  0  0  0
  187.1850  176.8340  145.0770 C   0  0  0  0  0  0  0  0  0  0  0  0
  184.8650  179.0410  145.7710 C   0  0  0  0  0  2  0  0  0  0  0  0
  189.3990  172.1430  140.3900 C   0  0  2  0  0  3  0  0  0  0  0  0
  188.9220  175.3520  144.0350 C   0  0  0  0  0  0  0  0  0  0  0  0
  185.3330  177.6360  143.7350 N   0  0  0  0  0  0  0  0  0  0  0  0
  188.3340  175.6670  142.6800 C   0  0  2  0  0  3  0  0  0  0  0  0
  190.0380  174.9240  146.5400 C   0  0  0  0  0  3  0  0  0  0  0  0
  188.6760  174.2380  139.0670 C   0  0  0  0  0  2  0  0  0  0  0  0
  188.9510  175.7290  146.3970 N   0  0  0  0  0  0  0  0  0  0  0  0
  188.1820  175.0730  140.2480 C   0  0  0  0  0  2  0  0  0  0  0  0
  190.5880  173.0540  140.7710 C   0  0  1  0  0  3  0  0  0  0  0  0
  190.6040  174.3050  145.4240 C   0  0  0  0  0  3  0  0  0  0  0  0
  190.5970  173.9020  142.9920 N   0  0  0  0  0  0  0  0  0  0  0  0
  189.8420  170.8780  139.9910 O   0  0  0  0  0  0  0  0  0  0  0  0
  189.7380  170.8860  138.5980 C   0  0  0  0  0  2  0  0  0  0  0  0
  191.3600  170.3640  135.6760 O   0  0  0  0  0  0  0  0  0  0  0  0
  191.7020  171.7570  137.3750 C   0  0  0  0  0  3  0  0  0  0  0  0
  191.0800  170.5390  137.9760 C   0  0  2  0  0  3  0  0  0  0  0  0
  191.8360  171.5990  136.0730 C   0  0  0  0  0  3  0  0  0  0  0  0
  190.8640  169.6240  136.7750 C   0  0  0  0  0  2  0  0  0  0  0  0
  1 26  1  0  0  0  0
  3 16  1  1  0  0  0
  4 23  2  0  0  0  0
  5 15  2  0  0  0  0
  6  7  1  6  0  0  0
  6 19  1  0  0  0  0
  6  3  1  0  0  0  0
  7  3  1  0  0  0  0
  9 27  1  1  0  0  0
 10 17  1  0  0  0  0
 11  5  1  0  0  0  0
 12  8  2  0  0  0  0
 13 24  1  6  0  0  0
 13  9  1  0  0  0  0
 13 20  1  0  0  0  0
 14  2  1  0  0  0  0
 15  4  1  0  0  0  0
 15 12  1  0  0  0  0
 16  8  1  0  0  0  0
 17 28  1  6  0  0  0
 17 25  1  0  0  0  0
 18  1  2  0  0  0  0
 18  4  1  0  0  0  0
 19  5  1  0  0  0  0
 19  3  1  0  0  0  0
 20 11  1  1  0  0  0
 20 18  1  0  0  0  0
 22 10  1  0  0  0  0
 22 24  1  0  0  0  0
 23 21  1  0  0  0  0
 25 14  1  1  0  0  0
 25  9  1  0  0  0  0
 26 21  2  0  0  0  0
 27  2  1  0  0  0  0
 27  1  1  0  0  0  0
 29 28  1  0  0  0  0
 30 33  1  0  0  0  0
 30 34  1  0  0  0  0
 31 32  1  0  0  0  0
 32 29  1  6  0  0  0
 33 31  2  0  0  0  0
 34 32  1  0  0  0  0
M  END
>  <MODEL>
9

>  <REMARK>
 VINA RESULT:      -7.7      4.271      8.802
  Name = 
  3 active torsions:
  status: ('A' for Active; 'I' for Inactive)
    1  A    between atoms: C_17  and  O_28
    2  A    between atoms: O_28  and  C_29
    3  A    between atoms: C_29  and  C_32
                            x       y       z     vdW  Elec       q    Type
                         _______ _______ _______ _____ _____    ______ ____

>  <TORSDO>
F 3

$$$$
