=
 OpenBabel11112417093D

 37 43  0  0  1  0  0  0  0  0999 V2000
  194.2820  174.5700  141.9970 C   0  0  0  0  0  2  0  0  0  0  0  0
  191.4930  169.9170  141.1840 C   0  0  0  0  0  0  0  0  0  0  0  0
  191.0530  174.1550  141.5850 C   0  0  1  0  0  3  0  0  0  0  0  0
  195.7660  174.6900  141.6490 C   0  0  2  0  0  3  0  0  0  0  0  0
  192.5450  175.3350  144.8490 O   0  0  0  0  0  0  0  0  0  0  0  0
  190.4430  172.0490  140.4290 C   0  0  0  0  0  0  0  0  0  0  0  0
  191.5410  174.0780  143.0280 C   0  0  2  0  0  3  0  0  0  0  0  0
  196.2400  175.5050  144.0620 C   0  0  2  0  0  3  0  0  0  0  0  0
  191.3140  172.7650  141.1510 C   0  0  0  0  0  0  0  0  0  0  0  0
  191.8740  175.4560  143.6290 C   0  0  1  0  0  3  0  0  0  0  0  0
  189.2970  172.7510  139.7620 C   0  0  0  0  0  2  0  0  0  0  0  0
  196.7050  174.6660  142.8640 C   0  0  0  0  0  2  0  0  0  0  0  0
  192.3660  172.1310  141.9750 C   0  0  2  0  0  3  0  0  0  0  0  0
  192.6990  169.5720  140.3280 C   0  0  0  0  0  1  0  0  0  0  0  0
  188.9970  175.5950  142.3500 C   0  0  0  0  0  2  0  0  0  0  0  0
  188.7670  173.8460  140.6550 C   0  0  0  0  0  3  0  0  0  0  0  0
  191.9340  170.7320  142.4150 C   0  0  0  0  0  2  0  0  0  0  0  0
  194.9330  175.0160  144.7290 C   0  0  1  0  0  3  0  0  0  0  0  0
  193.7570  175.9940  144.6330 C   0  0  0  0  0  2  0  0  0  0  0  0
  189.5810  174.5140  141.4930 C   0  0  0  0  0  0  0  0  0  0  0  0
  192.5880  173.0180  143.1200 N   0  0  1  0  0  0  0  0  0  0  0  0
  190.5400  170.6500  140.3960 O   0  0  0  0  0  0  0  0  0  0  0  0
  190.6280  176.3450  143.8050 C   0  0  1  0  0  3  0  0  0  0  0  0
  190.8530  168.6290  141.6550 C   0  0  0  0  0  1  0  0  0  0  0  0
  194.5810  173.6320  144.3690 N   0  0  0  0  0  2  0  0  0  0  0  0
  196.2080  176.8650  143.7420 O   0  0  0  0  0  1  0  0  0  0  0  0
  193.9930  173.4570  143.0270 C   0  0  2  0  0  3  0  0  0  0  0  0
  189.9340  176.6170  142.6000 O   0  0  0  0  0  0  0  0  0  0  0  0
  189.9660  174.9200  145.7630 C   0  0  0  0  0  3  0  0  0  0  0  0
  189.7680  176.0900  145.0210 C   0  0  0  0  0  0  0  0  0  0  0  0
  188.7980  177.0160  145.4330 C   0  0  0  0  0  3  0  0  0  0  0  0
  186.9970  177.7480  147.0000 C   0  0  0  0  0  1  0  0  0  0  0  0
  188.2240  175.5930  147.3060 C   0  0  0  0  0  3  0  0  0  0  0  0
  188.0260  176.7660  146.5700 C   0  0  0  0  0  0  0  0  0  0  0  0
  189.1940  174.6710  146.9020 C   0  0  0  0  0  3  0  0  0  0  0  0
  197.2220  175.6950  140.1190 C   0  0  0  0  0  1  0  0  0  0  0  0
  195.9930  175.8950  140.8690 N   0  0  0  0  0  2  0  0  0  0  0  0
  1 27  1  0  0  0  0
  2 24  1  0  0  0  0
  2 17  1  0  0  0  0
  3  9  1  1  0  0  0
  3  7  1  0  0  0  0
  4 37  1  1  0  0  0
  4  1  1  0  0  0  0
  4 12  1  0  0  0  0
  6  9  2  0  0  0  0
  7 21  1  0  0  0  0
  7 10  1  0  0  0  0
  8 18  1  0  0  0  0
  9 13  1  0  0  0  0
 10 23  1  0  0  0  0
 10  5  1  0  0  0  0
 11  6  1  0  0  0  0
 11 16  1  0  0  0  0
 12  8  1  0  0  0  0
 13 17  1  0  0  0  0
 13 21  1  0  0  0  0
 14  2  1  0  0  0  0
 15 28  1  0  0  0  0
 16 20  2  0  0  0  0
 19 18  1  0  0  0  0
 19  5  1  0  0  0  0
 20  3  1  0  0  0  0
 20 15  1  0  0  0  0
 22  6  1  0  0  0  0
 22  2  1  0  0  0  0
 23 30  1  0  0  0  0
 25 18  1  0  0  0  0
 26  8  1  0  0  0  0
 27 21  1  0  0  0  0
 27 25  1  0  0  0  0
 28 23  1  0  0  0  0
 29 35  1  0  0  0  0
 30 31  1  0  0  0  0
 30 29  2  0  0  0  0
 31 34  2  0  0  0  0
 34 32  1  0  0  0  0
 34 33  1  0  0  0  0
 35 33  2  0  0  0  0
 36 37  1  0  0  0  0
M  END
>  <MODEL>
1

>  <REMARK>
 VINA RESULT:      -8.2      0.000      0.000
  Name = 
  2 active torsions:
  status: ('A' for Active; 'I' for Inactive)
    1  A    between atoms: C_4  and  N_37
    2  A    between atoms: C_23  and  C_30
                            x       y       z     vdW  Elec       q    Type
                         _______ _______ _______ _____ _____    ______ ____

>  <TORSDO>
F 2

$$$$
=
 OpenBabel11112417093D

 37 43  0  0  1  0  0  0  0  0999 V2000
  192.7310  171.7020  143.3320 C   0  0  0  0  0  2  0  0  0  0  0  0
  196.3510  175.8090  143.6770 C   0  0  0  0  0  0  0  0  0  0  0  0
  192.4890  174.5200  144.9950 C   0  0  1  0  0  3  0  0  0  0  0  0
  193.1610  170.2770  142.9850 C   0  0  2  0  0  3  0  0  0  0  0  0
  190.2830  173.7180  142.0360 O   0  0  0  0  0  0  0  0  0  0  0  0
  194.6690  175.5850  145.5050 C   0  0  0  0  0  0  0  0  0  0  0  0
  191.9750  174.5650  143.5610 C   0  0  2  0  0  3  0  0  0  0  0  0
  191.4250  170.2470  141.0630 C   0  0  2  0  0  3  0  0  0  0  0  0
  193.9310  174.7530  144.7590 C   0  0  0  0  0  0  0  0  0  0  0  0
  190.6080  173.8790  143.3860 C   0  0  1  0  0  3  0  0  0  0  0  0
  194.1220  176.0720  146.8130 C   0  0  0  0  0  2  0  0  0  0  0  0
  192.8230  169.8450  141.5510 C   0  0  0  0  0  2  0  0  0  0  0  0
  194.3220  174.3650  143.3870 C   0  0  2  0  0  3  0  0  0  0  0  0
  197.3510  174.6650  143.7160 C   0  0  0  0  0  1  0  0  0  0  0  0
  190.4060  175.9030  145.7930 C   0  0  0  0  0  2  0  0  0  0  0  0
  192.6400  176.3320  146.6930 C   0  0  0  0  0  3  0  0  0  0  0  0
  195.1790  175.4540  142.7430 C   0  0  0  0  0  2  0  0  0  0  0  0
  191.1930  171.7710  140.9420 C   0  0  1  0  0  3  0  0  0  0  0  0
  190.1300  172.3380  141.8880 C   0  0  0  0  0  2  0  0  0  0  0  0
  191.8720  175.6030  145.8630 C   0  0  0  0  0  0  0  0  0  0  0  0
  193.0770  174.1420  142.6470 N   0  0  1  0  0  0  0  0  0  0  0  0
  195.8850  176.0810  145.0090 O   0  0  0  0  0  0  0  0  0  0  0  0
  189.4710  174.6240  144.1110 C   0  0  1  0  0  3  0  0  0  0  0  0
  197.0500  177.0400  143.1410 C   0  0  0  0  0  1  0  0  0  0  0  0
  192.4440  172.5480  140.9240 N   0  0  0  0  0  2  0  0  0  0  0  0
  190.4290  169.6060  141.8050 O   0  0  0  0  0  1  0  0  0  0  0  0
  193.0970  172.7260  142.2350 C   0  0  2  0  0  3  0  0  0  0  0  0
  189.6560  174.7450  145.5100 O   0  0  0  0  0  0  0  0  0  0  0  0
  189.7490  176.7800  142.8560 C   0  0  0  0  0  3  0  0  0  0  0  0
  188.8870  175.8300  143.4140 C   0  0  0  0  0  0  0  0  0  0  0  0
  187.4990  175.9990  143.2930 C   0  0  0  0  0  3  0  0  0  0  0  0
  185.5110  177.2900  142.5070 C   0  0  0  0  0  1  0  0  0  0  0  0
  187.8480  178.0640  142.0780 C   0  0  0  0  0  3  0  0  0  0  0  0
  186.9820  177.1150  142.6290 C   0  0  0  0  0  0  0  0  0  0  0  0
  189.2310  177.8960  142.1910 C   0  0  0  0  0  3  0  0  0  0  0  0
  193.6650  168.8600  144.7760 C   0  0  0  0  0  1  0  0  0  0  0  0
  192.5830  169.3430  143.9350 N   0  0  0  0  0  2  0  0  0  0  0  0
  2 14  1  0  0  0  0
  2 22  1  0  0  0  0
  3  9  1  6  0  0  0
  3 20  1  0  0  0  0
  4  1  1  0  0  0  0
  4 37  1  1  0  0  0
  5 10  1  0  0  0  0
  6 11  1  0  0  0  0
  7  3  1  0  0  0  0
  8 12  1  0  0  0  0
  8 26  1  0  0  0  0
  9  6  2  0  0  0  0
 10  7  1  0  0  0  0
 10 23  1  0  0  0  0
 12  4  1  0  0  0  0
 13  9  1  0  0  0  0
 15 20  1  0  0  0  0
 16 11  1  0  0  0  0
 17 13  1  0  0  0  0
 17  2  1  0  0  0  0
 18  8  1  0  0  0  0
 18 19  1  0  0  0  0
 19  5  1  0  0  0  0
 20 16  2  0  0  0  0
 21 13  1  0  0  0  0
 21  7  1  0  0  0  0
 22  6  1  0  0  0  0
 23 28  1  0  0  0  0
 24  2  1  0  0  0  0
 25 18  1  0  0  0  0
 25 27  1  0  0  0  0
 27 21  1  0  0  0  0
 27  1  1  0  0  0  0
 28 15  1  0  0  0  0
 29 30  1  0  0  0  0
 30 23  1  0  0  0  0
 31 30  2  0  0  0  0
 32 34  1  0  0  0  0
 33 35  1  0  0  0  0
 33 34  2  0  0  0  0
 34 31  1  0  0  0  0
 35 29  2  0  0  0  0
 37 36  1  0  0  0  0
M  END
>  <MODEL>
2

>  <REMARK>
 VINA RESULT:      -8.1      1.953      5.853
  Name = 
  2 active torsions:
  status: ('A' for Active; 'I' for Inactive)
    1  A    between atoms: C_4  and  N_37
    2  A    between atoms: C_23  and  C_30
                            x       y       z     vdW  Elec       q    Type
                         _______ _______ _______ _____ _____    ______ ____

>  <TORSDO>
F 2

$$$$
=
 OpenBabel11112417093D

 37 43  0  0  1  0  0  0  0  0999 V2000
  195.6350  173.7880  142.6510 C   0  0  0  0  0  2  0  0  0  0  0  0
  194.5800  169.0160  145.1420 C   0  0  0  0  0  0  0  0  0  0  0  0
  192.8080  172.1300  142.8000 C   0  0  1  0  0  3  0  0  0  0  0  0
  197.0490  174.1720  142.2130 C   0  0  2  0  0  3  0  0  0  0  0  0
  193.2840  175.4790  144.4810 O   0  0  0  0  0  0  0  0  0  0  0  0
  193.0770  169.7120  143.2770 C   0  0  0  0  0  0  0  0  0  0  0  0
  193.0400  173.1240  143.9320 C   0  0  2  0  0  3  0  0  0  0  0  0
  196.8290  176.3900  143.5310 C   0  0  2  0  0  3  0  0  0  0  0  0
  193.5500  170.9630  143.3280 C   0  0  0  0  0  0  0  0  0  0  0  0
  192.8280  174.5880  143.5050 C   0  0  1  0  0  3  0  0  0  0  0  0
  191.9050  169.4090  142.3920 C   0  0  0  0  0  2  0  0  0  0  0  0
  197.7260  175.2200  143.1060 C   0  0  0  0  0  2  0  0  0  0  0  0
  194.5870  171.3780  144.2980 C   0  0  2  0  0  3  0  0  0  0  0  0
  195.9630  168.6620  144.6220 C   0  0  0  0  0  1  0  0  0  0  0  0
  190.3120  172.9150  142.6110 C   0  0  0  0  0  2  0  0  0  0  0  0
  190.9210  170.5530  142.4230 C   0  0  0  0  0  3  0  0  0  0  0  0
  194.5330  170.5010  145.5490 C   0  0  0  0  0  2  0  0  0  0  0  0
  195.6380  176.0000  144.4370 C   0  0  1  0  0  3  0  0  0  0  0  0
  194.2560  176.2340  143.8200 C   0  0  0  0  0  2  0  0  0  0  0  0
  191.3350  171.8220  142.5960 C   0  0  0  0  0  0  0  0  0  0  0  0
  194.3270  172.7860  144.6070 N   0  0  1  0  0  0  0  0  0  0  0  0
  193.6000  168.7280  144.1300 O   0  0  0  0  0  0  0  0  0  0  0  0
  191.3600  174.9000  143.1570 C   0  0  1  0  0  3  0  0  0  0  0  0
  194.2920  168.1660  146.3600 C   0  0  0  0  0  1  0  0  0  0  0  0
  195.7920  174.6730  145.0570 N   0  0  0  0  0  2  0  0  0  0  0  0
  196.4400  177.1530  142.4260 O   0  0  0  0  0  1  0  0  0  0  0  0
  195.5260  173.5260  144.1690 C   0  0  2  0  0  3  0  0  0  0  0  0
  190.8350  174.1180  142.0990 O   0  0  0  0  0  0  0  0  0  0  0  0
  190.4900  174.3500  145.4470 C   0  0  0  0  0  3  0  0  0  0  0  0
  190.4230  175.1660  144.3120 C   0  0  0  0  0  0  0  0  0  0  0  0
  189.5100  176.2310  144.2780 C   0  0  0  0  0  3  0  0  0  0  0  0
  187.6960  177.5940  145.3210 C   0  0  0  0  0  1  0  0  0  0  0  0
  188.7310  175.6460  146.4940 C   0  0  0  0  0  3  0  0  0  0  0  0
  188.6640  176.4680  145.3640 C   0  0  0  0  0  0  0  0  0  0  0  0
  189.6440  174.5880  146.5340 C   0  0  0  0  0  3  0  0  0  0  0  0
  195.6770  174.4400  140.3370 C   0  0  0  0  0  1  0  0  0  0  0  0
  197.0290  174.6310  140.8340 N   0  0  0  0  0  2  0  0  0  0  0  0
  1 27  1  0  0  0  0
  2 17  1  0  0  0  0
  2 24  1  0  0  0  0
  3 20  1  1  0  0  0
  3  9  1  0  0  0  0
  3  7  1  0  0  0  0
  4 37  1  6  0  0  0
  4  1  1  0  0  0  0
  4 12  1  0  0  0  0
  6  9  2  0  0  0  0
  6 22  1  0  0  0  0
  7 21  1  0  0  0  0
  8 18  1  0  0  0  0
  9 13  1  0  0  0  0
 10  7  1  0  0  0  0
 10  5  1  0  0  0  0
 11 16  1  0  0  0  0
 11  6  1  0  0  0  0
 12  8  1  0  0  0  0
 13 21  1  0  0  0  0
 13 17  1  0  0  0  0
 14  2  1  0  0  0  0
 16 20  2  0  0  0  0
 18 25  1  0  0  0  0
 19 18  1  0  0  0  0
 19  5  1  0  0  0  0
 20 15  1  0  0  0  0
 22  2  1  0  0  0  0
 23 10  1  0  0  0  0
 23 30  1  0  0  0  0
 26  8  1  0  0  0  0
 27 21  1  0  0  0  0
 27 25  1  0  0  0  0
 28 15  1  0  0  0  0
 28 23  1  0  0  0  0
 29 35  1  0  0  0  0
 30 29  2  0  0  0  0
 31 30  1  0  0  0  0
 31 34  2  0  0  0  0
 32 34  1  0  0  0  0
 33 35  2  0  0  0  0
 34 33  1  0  0  0  0
 36 37  1  0  0  0  0
M  END
>  <MODEL>
3

>  <REMARK>
 VINA RESULT:      -7.8      2.160      2.894
  Name = 
  2 active torsions:
  status: ('A' for Active; 'I' for Inactive)
    1  A    between atoms: C_4  and  N_37
    2  A    between atoms: C_23  and  C_30
                            x       y       z     vdW  Elec       q    Type
                         _______ _______ _______ _____ _____    ______ ____

>  <TORSDO>
F 2

$$$$
=
 OpenBabel11112417093D

 37 43  0  0  1  0  0  0  0  0999 V2000
  189.8520  175.0000  144.4920 C   0  0  0  0  0  2  0  0  0  0  0  0
  189.9920  172.4260  139.6500 C   0  0  0  0  0  0  0  0  0  0  0  0
  191.6360  172.3950  143.6010 C   0  0  1  0  0  3  0  0  0  0  0  0
  188.6410  175.8230  144.9300 C   0  0  2  0  0  3  0  0  0  0  0  0
  193.1950  175.7390  144.4090 O   0  0  0  0  0  0  0  0  0  0  0  0
  190.7130  171.1490  141.6660 C   0  0  0  0  0  0  0  0  0  0  0  0
  192.2900  173.7490  143.3490 C   0  0  2  0  0  3  0  0  0  0  0  0
  190.2020  177.8440  145.3620 C   0  0  2  0  0  3  0  0  0  0  0  0
  190.8090  172.2780  142.3800 C   0  0  0  0  0  0  0  0  0  0  0  0
  192.8310  174.4080  144.6310 C   0  0  1  0  0  3  0  0  0  0  0  0
  191.1980  169.8630  142.2660 C   0  0  0  0  0  2  0  0  0  0  0  0
  188.8460  177.3430  144.8500 C   0  0  0  0  0  2  0  0  0  0  0  0
  190.5120  173.6060  141.8010 C   0  0  2  0  0  3  0  0  0  0  0  0
  188.4980  172.6960  139.6820 C   0  0  0  0  0  1  0  0  0  0  0  0
  193.9160  171.4520  144.4960 C   0  0  0  0  0  2  0  0  0  0  0  0
  192.4520  170.1050  143.0710 C   0  0  0  0  0  3  0  0  0  0  0  0
  190.7550  173.6000  140.2910 C   0  0  0  0  0  2  0  0  0  0  0  0
  191.4230  177.3690  144.5400 C   0  0  1  0  0  3  0  0  0  0  0  0
  192.3950  176.4600  145.2980 C   0  0  0  0  0  2  0  0  0  0  0  0
  192.6550  171.2740  143.7080 C   0  0  0  0  0  0  0  0  0  0  0  0
  191.3820  174.5630  142.4890 N   0  0  1  0  0  0  0  0  0  0  0  0
  190.2710  171.1940  140.3350 O   0  0  0  0  0  0  0  0  0  0  0  0
  194.0170  173.6360  145.2410 C   0  0  1  0  0  3  0  0  0  0  0  0
  190.4250  172.2930  138.2050 C   0  0  0  0  0  1  0  0  0  0  0  0
  191.0610  176.8650  143.2050 N   0  0  0  0  0  2  0  0  0  0  0  0
  190.3450  177.6000  146.7310 O   0  0  0  0  0  1  0  0  0  0  0  0
  190.4810  175.5080  143.1770 C   0  0  2  0  0  3  0  0  0  0  0  0
  193.7160  172.3000  145.6020 O   0  0  0  0  0  0  0  0  0  0  0  0
  196.5050  173.8920  145.4490 C   0  0  0  0  0  3  0  0  0  0  0  0
  195.3760  173.8650  144.6230 C   0  0  0  0  0  0  0  0  0  0  0  0
  195.5280  174.0210  143.2370 C   0  0  0  0  0  3  0  0  0  0  0  0
  196.9530  174.3830  141.2180 C   0  0  0  0  0  1  0  0  0  0  0  0
  197.9230  174.2460  143.5170 C   0  0  0  0  0  3  0  0  0  0  0  0
  196.7980  174.2140  142.6860 C   0  0  0  0  0  0  0  0  0  0  0  0
  197.7760  174.0850  144.8980 C   0  0  0  0  0  3  0  0  0  0  0  0
  189.2360  174.4930  146.7600 C   0  0  0  0  0  1  0  0  0  0  0  0
  188.2490  175.4450  146.2780 N   0  0  0  0  0  2  0  0  0  0  0  0
  1  4  1  0  0  0  0
  2 14  1  0  0  0  0
  2 17  1  0  0  0  0
  2 22  1  0  0  0  0
  3  9  1  6  0  0  0
  3 20  1  0  0  0  0
  4 37  1  1  0  0  0
  5 10  1  0  0  0  0
  5 19  1  0  0  0  0
  6 11  1  0  0  0  0
  6  9  2  0  0  0  0
  7  3  1  0  0  0  0
  7 10  1  0  0  0  0
  8 26  1  0  0  0  0
 10 23  1  0  0  0  0
 11 16  1  0  0  0  0
 12  4  1  0  0  0  0
 12  8  1  0  0  0  0
 13  9  1  0  0  0  0
 13 21  1  0  0  0  0
 15 28  1  0  0  0  0
 16 20  2  0  0  0  0
 17 13  1  0  0  0  0
 18 19  1  0  0  0  0
 18  8  1  0  0  0  0
 20 15  1  0  0  0  0
 21 27  1  0  0  0  0
 21  7  1  0  0  0  0
 22  6  1  0  0  0  0
 23 28  1  0  0  0  0
 24  2  1  0  0  0  0
 25 18  1  0  0  0  0
 27 25  1  0  0  0  0
 27  1  1  0  0  0  0
 30 23  1  0  0  0  0
 30 29  2  0  0  0  0
 31 30  1  0  0  0  0
 32 34  1  0  0  0  0
 33 35  2  0  0  0  0
 34 31  2  0  0  0  0
 34 33  1  0  0  0  0
 35 29  1  0  0  0  0
 37 36  1  0  0  0  0
M  END
>  <MODEL>
4

>  <REMARK>
 VINA RESULT:      -7.8      1.968      6.084
  Name = 
  2 active torsions:
  status: ('A' for Active; 'I' for Inactive)
    1  A    between atoms: C_4  and  N_37
    2  A    between atoms: C_23  and  C_30
                            x       y       z     vdW  Elec       q    Type
                         _______ _______ _______ _____ _____    ______ ____

>  <TORSDO>
F 2

$$$$
=
 OpenBabel11112417093D

 37 43  0  0  1  0  0  0  0  0999 V2000
  191.9870  171.9240  140.8330 C   0  0  0  0  0  2  0  0  0  0  0  0
  195.7150  175.4560  142.7600 C   0  0  0  0  0  0  0  0  0  0  0  0
  191.8310  173.8220  143.5040 C   0  0  1  0  0  3  0  0  0  0  0  0
  192.3780  170.7560  139.9270 C   0  0  2  0  0  3  0  0  0  0  0  0
  189.5840  174.3430  140.5130 O   0  0  0  0  0  0  0  0  0  0  0  0
  194.0410  174.5410  144.3660 C   0  0  0  0  0  0  0  0  0  0  0  0
  191.3080  174.4580  142.2210 C   0  0  2  0  0  3  0  0  0  0  0  0
  190.6280  171.5490  138.1900 C   0  0  2  0  0  3  0  0  0  0  0  0
  193.2760  174.1010  143.3590 C   0  0  0  0  0  0  0  0  0  0  0  0
  189.9220  173.9320  141.8050 C   0  0  1  0  0  3  0  0  0  0  0  0
  193.5170  174.4630  145.7690 C   0  0  0  0  0  2  0  0  0  0  0  0
  192.0190  170.9530  138.4470 C   0  0  0  0  0  2  0  0  0  0  0  0
  193.6470  174.2980  141.9410 C   0  0  2  0  0  3  0  0  0  0  0  0
  196.6850  174.3760  142.3120 C   0  0  0  0  0  1  0  0  0  0  0  0
  189.7900  174.8020  144.8320 C   0  0  0  0  0  2  0  0  0  0  0  0
  192.0410  174.7790  145.7900 C   0  0  0  0  0  3  0  0  0  0  0  0
  194.5280  175.5380  141.7830 C   0  0  0  0  0  2  0  0  0  0  0  0
  190.4340  172.9940  138.7050 C   0  0  1  0  0  3  0  0  0  0  0  0
  189.3940  173.1470  139.8180 C   0  0  0  0  0  2  0  0  0  0  0  0
  191.2480  174.4690  144.7480 C   0  0  0  0  0  0  0  0  0  0  0  0
  192.3910  174.4230  141.1960 N   0  0  1  0  0  0  0  0  0  0  0  0
  195.2660  175.1710  144.0950 O   0  0  0  0  0  0  0  0  0  0  0  0
  188.8100  174.3400  142.7910 C   0  0  1  0  0  3  0  0  0  0  0  0
  196.4410  176.7840  142.7600 C   0  0  0  0  0  1  0  0  0  0  0  0
  191.7050  173.6850  138.9840 N   0  0  0  0  0  2  0  0  0  0  0  0
  189.6210  170.6810  138.6230 O   0  0  0  0  0  1  0  0  0  0  0  0
  192.3720  173.2980  140.2420 C   0  0  2  0  0  3  0  0  0  0  0  0
  189.0080  173.8750  144.1150 O   0  0  0  0  0  0  0  0  0  0  0  0
  189.1250  176.7970  142.3860 C   0  0  0  0  0  3  0  0  0  0  0  0
  188.2520  175.7370  142.6570 C   0  0  0  0  0  0  0  0  0  0  0  0
  186.8750  175.9850  142.7700 C   0  0  0  0  0  3  0  0  0  0  0  0
  184.9220  177.5410  142.7510 C   0  0  0  0  0  1  0  0  0  0  0  0
  187.2570  178.3410  142.3610 C   0  0  0  0  0  3  0  0  0  0  0  0
  186.3810  177.2840  142.6260 C   0  0  0  0  0  0  0  0  0  0  0  0
  188.6290  178.0970  142.2410 C   0  0  0  0  0  3  0  0  0  0  0  0
  191.0520  169.8630  141.6340 C   0  0  0  0  0  1  0  0  0  0  0  0
  191.7820  169.5270  140.4230 N   0  0  0  0  0  2  0  0  0  0  0  0
  2 22  1  0  0  0  0
  3  9  1  1  0  0  0
  3 20  1  0  0  0  0
  4 37  1  1  0  0  0
  4  1  1  0  0  0  0
  5 10  1  0  0  0  0
  6 11  1  0  0  0  0
  7  3  1  0  0  0  0
  8 12  1  0  0  0  0
  8 26  1  0  0  0  0
  8 18  1  0  0  0  0
  9  6  2  0  0  0  0
 10  7  1  0  0  0  0
 10 23  1  0  0  0  0
 11 16  1  0  0  0  0
 12  4  1  0  0  0  0
 13  9  1  0  0  0  0
 14  2  1  0  0  0  0
 17 13  1  0  0  0  0
 17  2  1  0  0  0  0
 18 25  1  0  0  0  0
 18 19  1  0  0  0  0
 19  5  1  0  0  0  0
 20 15  1  0  0  0  0
 20 16  2  0  0  0  0
 21 13  1  0  0  0  0
 21  7  1  0  0  0  0
 22  6  1  0  0  0  0
 23 28  1  0  0  0  0
 24  2  1  0  0  0  0
 25 27  1  0  0  0  0
 27  1  1  0  0  0  0
 27 21  1  0  0  0  0
 28 15  1  0  0  0  0
 29 30  1  0  0  0  0
 30 31  2  0  0  0  0
 30 23  1  0  0  0  0
 33 34  2  0  0  0  0
 34 32  1  0  0  0  0
 34 31  1  0  0  0  0
 35 33  1  0  0  0  0
 35 29  2  0  0  0  0
 37 36  1  0  0  0  0
M  END
>  <MODEL>
5

>  <REMARK>
 VINA RESULT:      -7.8      2.141      5.783
  Name = 
  2 active torsions:
  status: ('A' for Active; 'I' for Inactive)
    1  A    between atoms: C_4  and  N_37
    2  A    between atoms: C_23  and  C_30
                            x       y       z     vdW  Elec       q    Type
                         _______ _______ _______ _____ _____    ______ ____

>  <TORSDO>
F 2

$$$$
=
 OpenBabel11112417093D

 37 43  0  0  1  0  0  0  0  0999 V2000
  192.5620  173.3620  141.4700 C   0  0  0  0  0  2  0  0  0  0  0  0
  189.9480  174.8750  146.0490 C   0  0  0  0  0  0  0  0  0  0  0  0
  193.8300  174.2110  144.3740 C   0  0  1  0  0  3  0  0  0  0  0  0
  191.9190  173.5080  140.0910 C   0  0  2  0  0  3  0  0  0  0  0  0
  194.0920  170.7040  142.9960 O   0  0  0  0  0  0  0  0  0  0  0  0
  192.3200  175.5930  145.7730 C   0  0  0  0  0  0  0  0  0  0  0  0
  193.5150  172.7290  144.2100 C   0  0  2  0  0  3  0  0  0  0  0  0
  192.3790  171.0000  139.6380 C   0  0  2  0  0  3  0  0  0  0  0  0
  192.4990  174.7130  144.7800 C   0  0  0  0  0  0  0  0  0  0  0  0
  194.5370  171.9870  143.3290 C   0  0  1  0  0  3  0  0  0  0  0  0
  193.5040  176.3450  146.3040 C   0  0  0  0  0  2  0  0  0  0  0  0
  191.4230  172.1900  139.4800 C   0  0  0  0  0  2  0  0  0  0  0  0
  191.4200  173.8130  144.3180 C   0  0  2  0  0  3  0  0  0  0  0  0
  189.0440  175.5950  145.0630 C   0  0  0  0  0  1  0  0  0  0  0  0
  196.1080  173.6070  145.5280 C   0  0  0  0  0  2  0  0  0  0  0  0
  194.7160  175.4450  146.3440 C   0  0  0  0  0  3  0  0  0  0  0  0
  190.4280  173.5400  145.4490 C   0  0  0  0  0  2  0  0  0  0  0  0
  192.6150  170.5440  141.0970 C   0  0  1  0  0  3  0  0  0  0  0  0
  194.0520  170.7130  141.6000 C   0  0  0  0  0  2  0  0  0  0  0  0
  194.8820  174.4620  145.4400 C   0  0  0  0  0  0  0  0  0  0  0  0
  192.0720  172.5850  143.8570 N   0  0  1  0  0  0  0  0  0  0  0  0
  191.0620  175.7200  146.3820 O   0  0  0  0  0  0  0  0  0  0  0  0
  195.9320  171.9040  143.9770 C   0  0  1  0  0  3  0  0  0  0  0  0
  189.1560  174.5890  147.3070 C   0  0  0  0  0  1  0  0  0  0  0  0
  191.5960  171.0490  142.0330 N   0  0  0  0  0  2  0  0  0  0  0  0
  193.5710  171.2170  138.9400 O   0  0  0  0  0  1  0  0  0  0  0  0
  191.7440  172.4650  142.4240 C   0  0  2  0  0  3  0  0  0  0  0  0
  196.5190  173.1630  144.2560 O   0  0  0  0  0  0  0  0  0  0  0  0
  197.4280  170.3120  145.2140 C   0  0  0  0  0  3  0  0  0  0  0  0
  196.1430  170.8300  145.0190 C   0  0  0  0  0  0  0  0  0  0  0  0
  195.0810  170.3670  145.8110 C   0  0  0  0  0  3  0  0  0  0  0  0
  194.1750  168.8950  147.6130 C   0  0  0  0  0  1  0  0  0  0  0  0
  196.5890  168.8660  146.9670 C   0  0  0  0  0  3  0  0  0  0  0  0
  195.3040  169.3850  146.7800 C   0  0  0  0  0  0  0  0  0  0  0  0
  197.6500  169.3300  146.1840 C   0  0  0  0  0  3  0  0  0  0  0  0
  193.9750  174.6170  139.9740 C   0  0  0  0  0  1  0  0  0  0  0  0
  192.8460  174.1590  139.1810 N   0  0  0  0  0  2  0  0  0  0  0  0
  1 27  1  0  0  0  0
  2 22  1  0  0  0  0
  2 24  1  0  0  0  0
  3  9  1  1  0  0  0
  3 20  1  0  0  0  0
  4 37  1  6  0  0  0
  4  1  1  0  0  0  0
  5 10  1  0  0  0  0
  6 11  1  0  0  0  0
  6 22  1  0  0  0  0
  7  3  1  0  0  0  0
  8 18  1  0  0  0  0
  9  6  2  0  0  0  0
 10 23  1  0  0  0  0
 10  7  1  0  0  0  0
 11 16  1  0  0  0  0
 12  8  1  0  0  0  0
 12  4  1  0  0  0  0
 13  9  1  0  0  0  0
 13 17  1  0  0  0  0
 14  2  1  0  0  0  0
 17  2  1  0  0  0  0
 18 19  1  0  0  0  0
 18 25  1  0  0  0  0
 19  5  1  0  0  0  0
 20 15  1  0  0  0  0
 20 16  2  0  0  0  0
 21  7  1  0  0  0  0
 21 13  1  0  0  0  0
 23 28  1  0  0  0  0
 23 30  1  0  0  0  0
 25 27  1  0  0  0  0
 26  8  1  0  0  0  0
 27 21  1  0  0  0  0
 28 15  1  0  0  0  0
 29 35  1  0  0  0  0
 30 29  2  0  0  0  0
 30 31  1  0  0  0  0
 31 34  2  0  0  0  0
 34 33  1  0  0  0  0
 34 32  1  0  0  0  0
 35 33  2  0  0  0  0
 37 36  1  0  0  0  0
M  END
>  <MODEL>
6

>  <REMARK>
 VINA RESULT:      -7.7      3.021      6.924
  Name = 
  2 active torsions:
  status: ('A' for Active; 'I' for Inactive)
    1  A    between atoms: C_4  and  N_37
    2  A    between atoms: C_23  and  C_30
                            x       y       z     vdW  Elec       q    Type
                         _______ _______ _______ _____ _____    ______ ____

>  <TORSDO>
F 2

$$$$
=
 OpenBabel11112417093D

 37 43  0  0  1  0  0  0  0  0999 V2000
  194.5350  175.0210  143.5520 C   0  0  0  0  0  2  0  0  0  0  0  0
  189.6120  176.5290  145.4450 C   0  0  0  0  0  0  0  0  0  0  0  0
  191.7180  173.3390  143.5200 C   0  0  1  0  0  3  0  0  0  0  0  0
  195.8270  175.6410  144.0860 C   0  0  2  0  0  3  0  0  0  0  0  0
  193.3790  174.5710  140.3590 O   0  0  0  0  0  0  0  0  0  0  0  0
  190.0720  174.0890  145.2160 C   0  0  0  0  0  0  0  0  0  0  0  0
  191.9630  174.2240  142.3030 C   0  0  2  0  0  3  0  0  0  0  0  0
  196.5140  176.2370  141.6610 C   0  0  2  0  0  3  0  0  0  0  0  0
  191.1430  174.3360  144.4500 C   0  0  0  0  0  0  0  0  0  0  0  0
  192.9970  173.6360  141.3250 C   0  0  1  0  0  3  0  0  0  0  0  0
  189.6080  172.6730  145.3880 C   0  0  0  0  0  2  0  0  0  0  0  0
  196.4820  176.6540  143.1380 C   0  0  0  0  0  2  0  0  0  0  0  0
  191.5590  175.7090  144.0940 C   0  0  2  0  0  3  0  0  0  0  0  0
  190.4440  177.1370  146.5620 C   0  0  0  0  0  1  0  0  0  0  0  0
  190.8520  171.4160  141.9600 C   0  0  0  0  0  2  0  0  0  0  0  0
  189.7600  171.9150  144.0920 C   0  0  0  0  0  3  0  0  0  0  0  0
  190.3580  176.6550  144.1030 C   0  0  0  0  0  2  0  0  0  0  0  0
  195.1260  176.1080  140.9920 C   0  0  1  0  0  3  0  0  0  0  0  0
  194.7590  174.6930  140.5370 C   0  0  0  0  0  2  0  0  0  0  0  0
  190.7490  172.2080  143.2270 C   0  0  0  0  0  0  0  0  0  0  0  0
  192.1770  175.6250  142.7680 N   0  0  1  0  0  0  0  0  0  0  0  0
  189.3310  175.1540  145.7510 O   0  0  0  0  0  0  0  0  0  0  0  0
  192.5020  172.3480  140.6390 C   0  0  1  0  0  3  0  0  0  0  0  0
  188.3060  177.2880  145.3510 C   0  0  0  0  0  1  0  0  0  0  0  0
  194.0550  176.7830  141.7460 N   0  0  0  0  0  2  0  0  0  0  0  0
  197.3110  175.1040  141.4760 O   0  0  0  0  0  1  0  0  0  0  0  0
  193.5750  176.0650  142.9420 C   0  0  2  0  0  3  0  0  0  0  0  0
  192.1890  171.2960  141.5340 O   0  0  0  0  0  0  0  0  0  0  0  0
  191.8890  171.8890  138.2480 C   0  0  0  0  0  3  0  0  0  0  0  0
  191.5720  172.5130  139.4600 C   0  0  0  0  0  0  0  0  0  0  0  0
  190.3840  173.2530  139.5670 C   0  0  0  0  0  3  0  0  0  0  0  0
  188.2780  174.1660  138.5860 C   0  0  0  0  0  1  0  0  0  0  0  0
  189.8560  172.7570  137.2570 C   0  0  0  0  0  3  0  0  0  0  0  0
  189.5310  173.3770  138.4670 C   0  0  0  0  0  0  0  0  0  0  0  0
  191.0350  172.0130  137.1480 C   0  0  0  0  0  3  0  0  0  0  0  0
  196.4430  174.1300  145.7620 C   0  0  0  0  0  1  0  0  0  0  0  0
  196.7730  174.5910  144.4240 N   0  0  0  0  0  2  0  0  0  0  0  0
  1  4  1  0  0  0  0
  2 22  1  0  0  0  0
  2 14  1  0  0  0  0
  3 20  1  6  0  0  0
  3  9  1  0  0  0  0
  4 37  1  6  0  0  0
  5 19  1  0  0  0  0
  5 10  1  0  0  0  0
  6 11  1  0  0  0  0
  6 22  1  0  0  0  0
  7 21  1  0  0  0  0
  7  3  1  0  0  0  0
  8 12  1  0  0  0  0
  9  6  2  0  0  0  0
 10  7  1  0  0  0  0
 12  4  1  0  0  0  0
 13 17  1  0  0  0  0
 13  9  1  0  0  0  0
 15 20  1  0  0  0  0
 16 11  1  0  0  0  0
 17  2  1  0  0  0  0
 18  8  1  0  0  0  0
 18 25  1  0  0  0  0
 19 18  1  0  0  0  0
 20 16  2  0  0  0  0
 21 27  1  0  0  0  0
 21 13  1  0  0  0  0
 23 10  1  0  0  0  0
 23 28  1  0  0  0  0
 24  2  1  0  0  0  0
 25 27  1  0  0  0  0
 26  8  1  0  0  0  0
 27  1  1  0  0  0  0
 28 15  1  0  0  0  0
 29 30  1  0  0  0  0
 30 31  2  0  0  0  0
 30 23  1  0  0  0  0
 33 34  2  0  0  0  0
 34 32  1  0  0  0  0
 34 31  1  0  0  0  0
 35 33  1  0  0  0  0
 35 29  2  0  0  0  0
 37 36  1  0  0  0  0
M  END
>  <MODEL>
7

>  <REMARK>
 VINA RESULT:      -7.5      2.032      5.894
  Name = 
  2 active torsions:
  status: ('A' for Active; 'I' for Inactive)
    1  A    between atoms: C_4  and  N_37
    2  A    between atoms: C_23  and  C_30
                            x       y       z     vdW  Elec       q    Type
                         _______ _______ _______ _____ _____    ______ ____

>  <TORSDO>
F 2

$$$$
=
 OpenBabel11112417093D

 37 43  0  0  1  0  0  0  0  0999 V2000
  189.7260  174.0980  140.5320 C   0  0  0  0  0  2  0  0  0  0  0  0
  187.8890  176.5640  145.0740 C   0  0  0  0  0  0  0  0  0  0  0  0
  191.3650  176.0010  142.6420 C   0  0  1  0  0  3  0  0  0  0  0  0
  188.7840  173.7020  139.3940 C   0  0  2  0  0  3  0  0  0  0  0  0
  192.1090  172.3210  142.2330 O   0  0  0  0  0  0  0  0  0  0  0  0
  189.9210  177.5090  143.9790 C   0  0  0  0  0  0  0  0  0  0  0  0
  191.3650  174.5130  142.9720 C   0  0  2  0  0  3  0  0  0  0  0  0
  189.6900  171.2800  139.5190 C   0  0  2  0  0  3  0  0  0  0  0  0
  190.0750  176.3980  143.2470 C   0  0  0  0  0  0  0  0  0  0  0  0
  192.3140  173.6940  142.0770 C   0  0  1  0  0  3  0  0  0  0  0  0
  190.9900  178.5600  143.9450 C   0  0  0  0  0  2  0  0  0  0  0  0
  188.4790  172.2000  139.3180 C   0  0  0  0  0  2  0  0  0  0  0  0
  189.1540  175.2460  143.3560 C   0  0  2  0  0  3  0  0  0  0  0  0
  186.6550  176.7910  144.2180 C   0  0  0  0  0  1  0  0  0  0  0  0
  193.9150  176.1440  143.2460 C   0  0  0  0  0  2  0  0  0  0  0  0
  192.3530  177.9130  143.8910 C   0  0  0  0  0  3  0  0  0  0  0  0
  188.5170  175.1970  144.7450 C   0  0  0  0  0  2  0  0  0  0  0  0
  190.3320  171.3480  140.9250 C   0  0  1  0  0  3  0  0  0  0  0  0
  191.7670  171.8830  140.9520 C   0  0  0  0  0  2  0  0  0  0  0  0
  192.5380  176.7320  143.2720 C   0  0  0  0  0  0  0  0  0  0  0  0
  189.9520  174.0490  143.0790 N   0  0  1  0  0  0  0  0  0  0  0  0
  188.8280  177.6290  144.8510 O   0  0  0  0  0  0  0  0  0  0  0  0
  193.7970  174.0320  142.3150 C   0  0  1  0  0  3  0  0  0  0  0  0
  187.4740  176.5730  146.5300 C   0  0  0  0  0  1  0  0  0  0  0  0
  189.4530  171.9630  141.9340 N   0  0  0  0  0  2  0  0  0  0  0  0
  190.6230  171.4420  138.4910 O   0  0  0  0  0  1  0  0  0  0  0  0
  189.3570  173.4340  141.8760 C   0  0  2  0  0  3  0  0  0  0  0  0
  194.1300  175.3880  142.0770 O   0  0  0  0  0  0  0  0  0  0  0  0
  193.7070  173.1230  144.6540 C   0  0  0  0  0  3  0  0  0  0  0  0
  194.4650  173.3870  143.5070 C   0  0  0  0  0  0  0  0  0  0  0  0
  195.8200  173.0230  143.4740 C   0  0  0  0  0  3  0  0  0  0  0  0
  197.8480  172.0320  144.5430 C   0  0  0  0  0  1  0  0  0  0  0  0
  195.6520  172.1560  145.7280 C   0  0  0  0  0  3  0  0  0  0  0  0
  196.4120  172.4120  144.5820 C   0  0  0  0  0  0  0  0  0  0  0  0
  194.3000  172.5110  145.7630 C   0  0  0  0  0  3  0  0  0  0  0  0
  188.1910  174.5410  137.2930 C   0  0  0  0  0  1  0  0  0  0  0  0
  189.3210  174.1660  138.1260 N   0  0  0  0  0  2  0  0  0  0  0  0
  1 27  1  0  0  0  0
  2 24  1  0  0  0  0
  3  7  1  0  0  0  0
  3  9  1  1  0  0  0
  3 20  1  0  0  0  0
  4 37  1  6  0  0  0
  4  1  1  0  0  0  0
  6 22  1  0  0  0  0
  7 21  1  0  0  0  0
  8 18  1  0  0  0  0
  9 13  1  0  0  0  0
  9  6  2  0  0  0  0
 10  5  1  0  0  0  0
 10 23  1  0  0  0  0
 10  7  1  0  0  0  0
 11  6  1  0  0  0  0
 12  4  1  0  0  0  0
 12  8  1  0  0  0  0
 13 17  1  0  0  0  0
 14  2  1  0  0  0  0
 15 20  1  0  0  0  0
 16 11  1  0  0  0  0
 17  2  1  0  0  0  0
 18 19  1  0  0  0  0
 18 25  1  0  0  0  0
 19  5  1  0  0  0  0
 20 16  2  0  0  0  0
 21 13  1  0  0  0  0
 22  2  1  0  0  0  0
 23 30  1  0  0  0  0
 26  8  1  0  0  0  0
 27 25  1  0  0  0  0
 27 21  1  0  0  0  0
 28 23  1  0  0  0  0
 28 15  1  0  0  0  0
 29 35  1  0  0  0  0
 30 29  2  0  0  0  0
 31 30  1  0  0  0  0
 31 34  2  0  0  0  0
 32 34  1  0  0  0  0
 33 35  2  0  0  0  0
 34 33  1  0  0  0  0
 36 37  1  0  0  0  0
M  END
>  <MODEL>
8

>  <REMARK>
 VINA RESULT:      -7.2      2.321      6.908
  Name = 
  2 active torsions:
  status: ('A' for Active; 'I' for Inactive)
    1  A    between atoms: C_4  and  N_37
    2  A    between atoms: C_23  and  C_30
                            x       y       z     vdW  Elec       q    Type
                         _______ _______ _______ _____ _____    ______ ____

>  <TORSDO>
F 2

$$$$
=
 OpenBabel11112417093D

 37 43  0  0  1  0  0  0  0  0999 V2000
  192.9020  171.5460  142.6730 C   0  0  0  0  0  2  0  0  0  0  0  0
  196.3130  175.8220  142.2590 C   0  0  0  0  0  0  0  0  0  0  0  0
  193.1840  174.1480  144.6510 C   0  0  1  0  0  3  0  0  0  0  0  0
  193.2200  170.1970  142.0260 C   0  0  2  0  0  3  0  0  0  0  0  0
  190.1070  173.5230  142.5520 O   0  0  0  0  0  0  0  0  0  0  0  0
  195.3780  175.2940  144.5100 C   0  0  0  0  0  0  0  0  0  0  0  0
  192.2020  174.3110  143.4970 C   0  0  2  0  0  3  0  0  0  0  0  0
  190.9250  170.2580  140.8280 C   0  0  2  0  0  3  0  0  0  0  0  0
  194.4470  174.4990  143.9660 C   0  0  0  0  0  0  0  0  0  0  0  0
  190.8770  173.5600  143.7180 C   0  0  1  0  0  3  0  0  0  0  0  0
  195.3090  175.6010  145.9760 C   0  0  0  0  0  2  0  0  0  0  0  0
  192.4150  169.8990  140.7540 C   0  0  0  0  0  2  0  0  0  0  0  0
  194.3460  174.2860  142.5060 C   0  0  2  0  0  3  0  0  0  0  0  0
  197.2920  174.7490  141.8120 C   0  0  0  0  0  1  0  0  0  0  0  0
  191.4750  175.2970  146.2780 C   0  0  0  0  0  2  0  0  0  0  0  0
  193.8720  175.7740  146.4040 C   0  0  0  0  0  3  0  0  0  0  0  0
  194.8990  175.4930  141.7470 C   0  0  0  0  0  2  0  0  0  0  0  0
  190.6270  171.7680  140.9820 C   0  0  1  0  0  3  0  0  0  0  0  0
  189.9460  172.1590  142.2970 C   0  0  0  0  0  2  0  0  0  0  0  0
  192.8810  175.0880  145.8040 C   0  0  0  0  0  0  0  0  0  0  0  0
  192.9270  174.0620  142.2170 N   0  0  1  0  0  0  0  0  0  0  0  0
  196.3330  175.9190  143.6930 O   0  0  0  0  0  0  0  0  0  0  0  0
  190.0460  174.1460  144.8740 C   0  0  1  0  0  3  0  0  0  0  0  0
  196.7500  177.1460  141.6720 C   0  0  0  0  0  1  0  0  0  0  0  0
  191.7740  172.6230  140.6320 N   0  0  0  0  0  2  0  0  0  0  0  0
  190.2660  169.4770  141.7810 O   0  0  0  0  0  1  0  0  0  0  0  0
  192.8380  172.7020  141.6520 C   0  0  2  0  0  3  0  0  0  0  0  0
  190.7030  174.1290  146.1290 O   0  0  0  0  0  0  0  0  0  0  0  0
  188.2460  175.7860  145.4870 C   0  0  0  0  0  3  0  0  0  0  0  0
  189.2250  175.3790  144.5740 C   0  0  0  0  0  0  0  0  0  0  0  0
  189.4480  176.1370  143.4140 C   0  0  0  0  0  3  0  0  0  0  0  0
  188.9250  178.0780  141.9340 C   0  0  0  0  0  1  0  0  0  0  0  0
  187.7060  177.6810  144.0790 C   0  0  0  0  0  3  0  0  0  0  0  0
  188.6880  177.2820  143.1660 C   0  0  0  0  0  0  0  0  0  0  0  0
  187.4860  176.9330  145.2390 C   0  0  0  0  0  3  0  0  0  0  0  0
  192.8390  169.7570  144.2920 C   0  0  0  0  0  1  0  0  0  0  0  0
  193.0320  169.1300  142.9950 N   0  0  0  0  0  2  0  0  0  0  0  0
  2 22  1  0  0  0  0
  3  9  1  6  0  0  0
  3 20  1  0  0  0  0
  4  1  1  0  0  0  0
  4 37  1  1  0  0  0
  5 10  1  0  0  0  0
  6 11  1  0  0  0  0
  7 10  1  0  0  0  0
  7  3  1  0  0  0  0
  8 18  1  0  0  0  0
  8 26  1  0  0  0  0
  9  6  2  0  0  0  0
 10 23  1  0  0  0  0
 11 16  1  0  0  0  0
 12  8  1  0  0  0  0
 12  4  1  0  0  0  0
 13  9  1  0  0  0  0
 14  2  1  0  0  0  0
 17  2  1  0  0  0  0
 17 13  1  0  0  0  0
 18 19  1  0  0  0  0
 19  5  1  0  0  0  0
 20 15  1  0  0  0  0
 20 16  2  0  0  0  0
 21 13  1  0  0  0  0
 21  7  1  0  0  0  0
 22  6  1  0  0  0  0
 23 28  1  0  0  0  0
 24  2  1  0  0  0  0
 25 18  1  0  0  0  0
 25 27  1  0  0  0  0
 27 21  1  0  0  0  0
 27  1  1  0  0  0  0
 28 15  1  0  0  0  0
 30 23  1  0  0  0  0
 30 29  2  0  0  0  0
 31 30  1  0  0  0  0
 32 34  1  0  0  0  0
 33 35  2  0  0  0  0
 34 31  2  0  0  0  0
 34 33  1  0  0  0  0
 35 29  1  0  0  0  0
 37 36  1  0  0  0  0
M  END
>  <MODEL>
9

>  <REMARK>
 VINA RESULT:      -7.2      1.731      5.736
  Name = 
  2 active torsions:
  status: ('A' for Active; 'I' for Inactive)
    1  A    between atoms: C_4  and  N_37
    2  A    between atoms: C_23  and  C_30
                            x       y       z     vdW  Elec       q    Type
                         _______ _______ _______ _____ _____    ______ ____

>  <TORSDO>
F 2

$$$$
