=
 OpenBabel11112418003D

 34 40  0  0  1  0  0  0  0  0999 V2000
  189.4730  174.5440  144.8140 C   0  0  0  0  0  0  0  0  0  0  0  0
  190.7130  172.4420  144.4680 N   0  0  0  0  0  0  0  0  0  0  0  0
  184.2770  178.1710  142.9910 C   0  0  2  0  0  3  0  0  0  0  0  0
  187.7700  176.3900  145.0080 C   0  0  0  0  0  0  0  0  0  0  0  0
  186.5990  177.1520  142.9590 C   0  0  0  0  0  0  0  0  0  0  0  0
  185.5760  177.9390  140.7740 C   0  0  0  0  0  1  0  0  0  0  0  0
  183.0980  178.3980  142.0540 C   0  0  0  0  0  1  0  0  0  0  0  0
  185.4050  179.1560  144.9260 C   0  0  0  0  0  2  0  0  0  0  0  0
  189.6410  173.4620  142.6450 C   0  0  0  0  0  0  0  0  0  0  0  0
  189.4020  172.2160  139.8430 C   0  0  0  0  0  2  0  0  0  0  0  0
  187.3160  176.3660  142.2030 N   0  0  0  0  0  2  0  0  0  0  0  0
  185.7420  177.7410  145.3680 C   0  0  0  0  0  2  0  0  0  0  0  0
  188.7790  174.4590  141.9710 C   0  0  0  0  0  0  0  0  0  0  0  0
  190.9460  171.7620  143.3870 C   0  0  0  0  0  3  0  0  0  0  0  0
  186.7610  177.1030  144.4560 C   0  0  0  0  0  0  0  0  0  0  0  0
  184.2290  179.1840  144.0520 N   0  0  0  0  0  2  0  0  0  0  0  0
  190.3810  171.8860  140.8720 N   0  0  0  0  0  0  0  0  0  0  0  0
  188.8140  175.7350  144.1340 C   0  0  0  0  0  0  0  0  0  0  0  0
  185.6550  178.1400  142.2910 C   0  0  1  0  0  3  0  0  0  0  0  0
  188.2910  175.4640  142.7310 C   0  0  0  0  0  0  0  0  0  0  0  0
  189.3480  175.9000  146.9160 C   0  0  0  0  0  2  0  0  0  0  0  0
  189.3160  173.7120  139.6360 C   0  0  0  0  0  2  0  0  0  0  0  0
  187.9340  176.3200  146.5110 C   0  0  0  0  0  2  0  0  0  0  0  0
  188.2650  174.2680  140.5730 C   0  0  0  0  0  2  0  0  0  0  0  0
  190.2790  172.3740  142.2220 C   0  0  0  0  0  0  0  0  0  0  0  0
  189.7310  174.5590  146.2940 C   0  0  0  0  0  2  0  0  0  0  0  0
  189.9040  173.5370  144.0570 C   0  0  0  0  0  0  0  0  0  0  0  0
  191.4190  171.0040  140.5350 N   0  0  0  0  0  2  0  0  0  0  0  0
  192.2110  171.6350  139.4880 C   0  0  0  0  0  2  0  0  0  0  0  0
  191.0400  169.0640  137.2500 C   0  0  0  0  0  2  0  0  0  0  0  0
  191.6210  171.3900  137.0780 C   0  0  0  0  0  2  0  0  0  0  0  0
  192.2780  170.7290  138.2720 C   0  0  2  0  0  3  0  0  0  0  0  0
  190.8200  170.3020  136.4080 C   0  0  0  0  0  2  0  0  0  0  0  0
  191.5590  169.4930  138.5390 N   0  0  0  0  0  2  0  0  0  0  0  0
  1 26  1  0  0  0  0
  3  7  1  6  0  0  0
  3 16  1  0  0  0  0
  4 23  1  0  0  0  0
  5 15  2  0  0  0  0
  8 12  1  0  0  0  0
  9 27  1  0  0  0  0
 10 17  1  0  0  0  0
 11 20  1  0  0  0  0
 11  5  1  0  0  0  0
 13  9  1  0  0  0  0
 13 20  2  0  0  0  0
 14  2  2  0  0  0  0
 15  4  1  0  0  0  0
 15 12  1  0  0  0  0
 16  8  1  0  0  0  0
 17 25  1  0  0  0  0
 18  1  1  0  0  0  0
 18  4  2  0  0  0  0
 19  6  1  6  0  0  0
 19  5  1  0  0  0  0
 19  3  1  0  0  0  0
 20 18  1  0  0  0  0
 22 10  1  0  0  0  0
 22 24  1  0  0  0  0
 23 21  1  0  0  0  0
 24 13  1  0  0  0  0
 25  9  2  0  0  0  0
 25 14  1  0  0  0  0
 26 21  1  0  0  0  0
 27  2  1  0  0  0  0
 27  1  2  0  0  0  0
 28 17  1  0  0  0  0
 29 28  1  0  0  0  0
 30 34  1  0  0  0  0
 31 32  1  0  0  0  0
 32 34  1  0  0  0  0
 32 29  1  1  0  0  0
 33 31  1  0  0  0  0
 33 30  1  0  0  0  0
M  END
>  <MODEL>
1

>  <REMARK>
 VINA RESULT:      -8.4      0.000      0.000
  Name = 
  3 active torsions:
  status: ('A' for Active; 'I' for Inactive)
    1  A    between atoms: N_17  and  N_28
    2  A    between atoms: N_28  and  C_29
    3  A    between atoms: C_29  and  C_32
                            x       y       z     vdW  Elec       q    Type
                         _______ _______ _______ _____ _____    ______ ____

>  <TORSDO>
F 3

$$$$
=
 OpenBabel11112418003D

 34 40  0  0  1  0  0  0  0  0999 V2000
  189.3170  174.6780  144.8960 C   0  0  0  0  0  0  0  0  0  0  0  0
  190.6410  172.6150  144.6380 N   0  0  0  0  0  0  0  0  0  0  0  0
  184.1070  178.1120  142.7630 C   0  0  2  0  0  3  0  0  0  0  0  0
  187.5460  176.4690  144.9790 C   0  0  0  0  0  0  0  0  0  0  0  0
  186.4600  177.1700  142.8630 C   0  0  0  0  0  0  0  0  0  0  0  0
  185.5270  177.9020  140.6190 C   0  0  0  0  0  1  0  0  0  0  0  0
  182.9720  178.2910  141.7640 C   0  0  0  0  0  1  0  0  0  0  0  0
  185.1000  179.1540  144.7420 C   0  0  0  0  0  2  0  0  0  0  0  0
  189.6320  173.5810  142.7500 C   0  0  0  0  0  0  0  0  0  0  0  0
  189.5820  172.3000  139.9540 C   0  0  0  0  0  2  0  0  0  0  0  0
  187.2400  176.4020  142.1550 N   0  0  0  0  0  0  0  0  0  0  0  0
  185.4590  177.7550  145.2180 C   0  0  0  0  0  2  0  0  0  0  0  0
  188.7750  174.5420  142.0210 C   0  0  0  0  0  0  0  0  0  0  0  0
  190.9520  171.9320  143.5780 C   0  0  0  0  0  3  0  0  0  0  0  0
  186.5450  177.1420  144.3680 C   0  0  0  0  0  0  0  0  0  0  0  0
  183.9710  179.1330  143.8080 N   0  0  0  0  0  2  0  0  0  0  0  0
  190.5150  172.0130  141.0360 N   0  0  0  0  0  0  0  0  0  0  0  0
  188.6550  175.8390  144.1680 C   0  0  0  0  0  0  0  0  0  0  0  0
  185.5200  178.1210  142.1360 C   0  0  1  0  0  3  0  0  0  0  0  0
  188.2160  175.5380  142.7430 C   0  0  0  0  0  0  0  0  0  0  0  0
  189.0380  176.0490  146.9720 C   0  0  0  0  0  2  0  0  0  0  0  0
  189.4580  173.7910  139.7250 C   0  0  0  0  0  2  0  0  0  0  0  0
  187.6340  176.4180  146.4890 C   0  0  0  0  0  2  0  0  0  0  0  0
  188.3410  174.3200  140.6010 C   0  0  0  0  0  2  0  0  0  0  0  0
  190.3270  172.5100  142.3740 C   0  0  0  0  0  0  0  0  0  0  0  0
  189.4960  174.7160  146.3860 C   0  0  0  0  0  2  0  0  0  0  0  0
  189.8190  173.6790  144.1730 C   0  0  2  0  0  3  0  0  0  0  0  0
  191.5970  171.1630  140.7640 N   0  0  0  0  0  2  0  0  0  0  0  0
  192.3460  171.7420  139.6560 C   0  0  0  0  0  2  0  0  0  0  0  0
  193.9260  174.3690  141.5490 C   0  0  0  0  0  2  0  0  0  0  0  0
  194.0130  171.9670  141.4960 C   0  0  0  0  0  2  0  0  0  0  0  0
  193.5190  172.5460  140.1870 C   0  0  2  0  0  3  0  0  0  0  0  0
  194.2850  173.1580  142.3810 C   0  0  0  0  0  2  0  0  0  0  0  0
  193.1000  173.9150  140.4410 N   0  0  0  0  0  2  0  0  0  0  0  0
  1 26  1  0  0  0  0
  3  7  1  6  0  0  0
  3 16  1  0  0  0  0
  4 23  1  0  0  0  0
  5 15  1  0  0  0  0
  8 12  1  0  0  0  0
 10 17  1  0  0  0  0
 11 20  1  0  0  0  0
 11  5  2  0  0  0  0
 13 20  2  0  0  0  0
 13  9  1  0  0  0  0
 14  2  2  0  0  0  0
 15  4  2  0  0  0  0
 15 12  1  0  0  0  0
 16  8  1  0  0  0  0
 17 25  1  0  0  0  0
 18  1  2  0  0  0  0
 18  4  1  0  0  0  0
 19  6  1  6  0  0  0
 19  3  1  0  0  0  0
 19  5  1  0  0  0  0
 20 18  1  0  0  0  0
 22 10  1  0  0  0  0
 22 24  1  0  0  0  0
 23 21  1  0  0  0  0
 24 13  1  0  0  0  0
 25  9  2  0  0  0  0
 25 14  1  0  0  0  0
 26 21  1  0  0  0  0
 27  9  1  6  0  0  0
 27  2  1  0  0  0  0
 27  1  1  0  0  0  0
 28 17  1  0  0  0  0
 29 28  1  0  0  0  0
 30 33  1  0  0  0  0
 31 33  1  0  0  0  0
 32 29  1  1  0  0  0
 32 34  1  0  0  0  0
 32 31  1  0  0  0  0
 34 30  1  0  0  0  0
M  END
>  <MODEL>
2

>  <REMARK>
 VINA RESULT:      -8.3      1.240      2.250
  Name = 
  3 active torsions:
  status: ('A' for Active; 'I' for Inactive)
    1  A    between atoms: N_17  and  N_28
    2  A    between atoms: N_28  and  C_29
    3  A    between atoms: C_29  and  C_32
                            x       y       z     vdW  Elec       q    Type
                         _______ _______ _______ _____ _____    ______ ____

>  <TORSDO>
F 3

$$$$
=
 OpenBabel11112418003D

 34 40  0  0  1  0  0  0  0  0999 V2000
  192.5770  176.1490  144.8540 C   0  0  0  0  0  0  0  0  0  0  0  0
  191.1600  177.8960  143.8470 N   0  0  0  0  0  0  0  0  0  0  0  0
  195.2550  170.1750  144.0610 C   0  0  2  0  0  3  0  0  0  0  0  0
  194.1450  174.2410  145.3560 C   0  0  0  0  0  0  0  0  0  0  0  0
  193.5350  171.9640  144.5870 C   0  0  0  0  0  0  0  0  0  0  0  0
  192.7330  169.6640  143.8750 C   0  0  0  0  0  1  0  0  0  0  0  0
  195.3800  168.8890  143.2560 C   0  0  0  0  0  1  0  0  0  0  0  0
  196.0960  171.2560  146.0890 C   0  0  0  0  0  2  0  0  0  0  0  0
  190.6950  175.6370  143.4050 C   0  0  0  0  0  0  0  0  0  0  0  0
  188.5880  174.6550  141.3900 C   0  0  0  0  0  2  0  0  0  0  0  0
  192.3790  172.3740  144.1430 N   0  0  0  0  0  2  0  0  0  0  0  0
  195.9660  172.5830  145.3570 C   0  0  0  0  0  2  0  0  0  0  0  0
  190.9310  174.1770  143.4480 C   0  0  0  0  0  0  0  0  0  0  0  0
  190.1010  177.8060  143.1020 C   0  0  0  0  0  3  0  0  0  0  0  0
  194.5200  172.9590  145.1430 C   0  0  0  0  0  0  0  0  0  0  0  0
  196.2320  170.1350  145.1550 N   0  0  0  0  0  2  0  0  0  0  0  0
  188.6460  175.9600  142.0360 N   0  0  0  0  0  0  0  0  0  0  0  0
  192.7070  174.6630  145.1560 C   0  0  0  0  0  0  0  0  0  0  0  0
  193.8280  170.4710  144.5790 C   0  0  1  0  0  3  0  0  0  0  0  0
  191.9760  173.7450  144.1870 C   0  0  0  0  0  0  0  0  0  0  0  0
  194.4270  176.4670  146.5120 C   0  0  0  0  0  2  0  0  0  0  0  0
  188.7390  173.5410  142.4040 C   0  0  0  0  0  2  0  0  0  0  0  0
  195.1290  175.2550  145.8980 C   0  0  0  0  0  2  0  0  0  0  0  0
  190.2120  173.2170  142.5460 C   0  0  0  0  0  2  0  0  0  0  0  0
  189.7850  176.3970  142.7990 C   0  0  0  0  0  0  0  0  0  0  0  0
  193.4970  177.1410  145.5060 C   0  0  0  0  0  2  0  0  0  0  0  0
  191.5710  176.5550  144.0820 C   0  0  0  0  0  0  0  0  0  0  0  0
  187.5700  176.8390  141.8410 N   0  0  0  0  0  2  0  0  0  0  0  0
  186.4830  176.4080  142.7100 C   0  0  0  0  0  2  0  0  0  0  0  0
  184.7800  177.9740  145.4720 C   0  0  0  0  0  2  0  0  0  0  0  0
  186.8050  176.7160  145.1630 C   0  0  0  0  0  2  0  0  0  0  0  0
  186.3400  177.3670  143.8770 C   0  0  2  0  0  3  0  0  0  0  0  0
  185.7910  177.1180  146.2040 C   0  0  0  0  0  2  0  0  0  0  0  0
  184.9420  177.7270  144.0480 N   0  0  0  0  0  2  0  0  0  0  0  0
  1 18  1  0  0  0  0
  1 26  1  0  0  0  0
  2 27  1  0  0  0  0
  3  7  1  1  0  0  0
  3 19  1  0  0  0  0
  3 16  1  0  0  0  0
  4 23  1  0  0  0  0
  5 15  2  0  0  0  0
  9 13  1  0  0  0  0
  9 27  1  0  0  0  0
 10 17  1  0  0  0  0
 10 22  1  0  0  0  0
 11 20  1  0  0  0  0
 11  5  1  0  0  0  0
 12  8  1  0  0  0  0
 13 20  2  0  0  0  0
 14  2  2  0  0  0  0
 15  4  1  0  0  0  0
 15 12  1  0  0  0  0
 16  8  1  0  0  0  0
 17 25  1  0  0  0  0
 18  4  2  0  0  0  0
 19  6  1  6  0  0  0
 19  5  1  0  0  0  0
 20 18  1  0  0  0  0
 22 24  1  0  0  0  0
 23 21  1  0  0  0  0
 24 13  1  0  0  0  0
 25 14  1  0  0  0  0
 25  9  2  0  0  0  0
 26 21  1  0  0  0  0
 27  1  2  0  0  0  0
 28 17  1  0  0  0  0
 28 29  1  0  0  0  0
 30 33  1  0  0  0  0
 31 33  1  0  0  0  0
 32 29  1  6  0  0  0
 32 34  1  0  0  0  0
 32 31  1  0  0  0  0
 34 30  1  0  0  0  0
M  END
>  <MODEL>
3

>  <REMARK>
 VINA RESULT:      -8.1      3.321      8.773
  Name = 
  3 active torsions:
  status: ('A' for Active; 'I' for Inactive)
    1  A    between atoms: N_17  and  N_28
    2  A    between atoms: N_28  and  C_29
    3  A    between atoms: C_29  and  C_32
                            x       y       z     vdW  Elec       q    Type
                         _______ _______ _______ _____ _____    ______ ____

>  <TORSDO>
F 3

$$$$
=
 OpenBabel11112418003D

 34 40  0  0  1  0  0  0  0  0999 V2000
  185.6400  178.0100  145.6450 C   0  0  0  0  0  0  0  0  0  0  0  0
  183.7170  179.0080  144.4720 N   0  0  0  0  0  0  0  0  0  0  0  0
  192.1160  176.7840  145.4320 C   0  0  2  0  0  3  0  0  0  0  0  0
  187.8970  177.3730  146.5680 C   0  0  0  0  0  0  0  0  0  0  0  0
  189.6280  176.5300  145.0060 C   0  0  0  0  0  0  0  0  0  0  0  0
  191.2650  175.5480  143.3320 C   0  0  0  0  0  1  0  0  0  0  0  0
  193.4290  176.7910  144.6610 C   0  0  0  0  0  1  0  0  0  0  0  0
  191.1780  176.1930  147.6130 C   0  0  0  0  0  2  0  0  0  0  0  0
  185.4290  177.9960  143.2240 C   0  0  0  0  0  0  0  0  0  0  0  0
  185.6230  178.0660  140.1550 C   0  0  0  0  0  2  0  0  0  0  0  0
  188.7980  176.5540  144.0000 N   0  0  0  0  0  2  0  0  0  0  0  0
  190.2020  177.3460  147.4330 C   0  0  0  0  0  2  0  0  0  0  0  0
  186.7360  177.3350  143.0140 C   0  0  0  0  0  0  0  0  0  0  0  0
  183.4180  179.0470  143.2090 C   0  0  0  0  0  3  0  0  0  0  0  0
  189.1930  177.0540  146.3500 C   0  0  0  0  0  0  0  0  0  0  0  0
  192.3930  176.3840  146.8160 N   0  0  0  0  0  2  0  0  0  0  0  0
  184.4290  178.2680  140.9650 N   0  0  0  0  0  0  0  0  0  0  0  0
  186.8510  177.0970  145.5120 C   0  0  0  0  0  0  0  0  0  0  0  0
  191.0050  175.9160  144.7970 C   0  0  1  0  0  3  0  0  0  0  0  0
  187.4560  177.0310  144.1170 C   0  0  0  0  0  0  0  0  0  0  0  0
  185.9420  177.7570  148.1180 C   0  0  0  0  0  2  0  0  0  0  0  0
  186.3670  176.8210  140.5860 C   0  0  0  0  0  2  0  0  0  0  0  0
  187.4490  177.9150  147.9070 C   0  0  0  0  0  2  0  0  0  0  0  0
  187.3660  177.2040  141.6580 C   0  0  0  0  0  2  0  0  0  0  0  0
  184.4800  178.4250  142.3950 C   0  0  0  0  0  0  0  0  0  0  0  0
  185.1500  178.4320  147.0000 C   0  0  0  0  0  2  0  0  0  0  0  0
  184.9710  178.3420  144.5430 C   0  0  0  0  0  0  0  0  0  0  0  0
  183.1960  178.3780  140.3050 N   0  0  0  0  0  2  0  0  0  0  0  0
  182.1610  177.9160  141.2200 C   0  0  0  0  0  2  0  0  0  0  0  0
  178.6880  178.8430  141.4710 C   0  0  0  0  0  2  0  0  0  0  0  0
  180.6780  179.7920  140.5130 C   0  0  0  0  0  2  0  0  0  0  0  0
  180.7910  178.2910  140.6850 C   0  0  2  0  0  3  0  0  0  0  0  0
  179.3040  180.1490  141.0190 C   0  0  0  0  0  2  0  0  0  0  0  0
  179.7650  177.8790  141.6290 N   0  0  0  0  0  2  0  0  0  0  0  0
  1 26  1  0  0  0  0
  2 27  1  0  0  0  0
  3  7  1  6  0  0  0
  3 16  1  0  0  0  0
  4 23  1  0  0  0  0
  5 15  2  0  0  0  0
  9 27  1  0  0  0  0
 10 22  1  0  0  0  0
 10 17  1  0  0  0  0
 11 20  1  0  0  0  0
 11  5  1  0  0  0  0
 12  8  1  0  0  0  0
 13  9  1  0  0  0  0
 13 20  2  0  0  0  0
 14  2  2  0  0  0  0
 15  4  1  0  0  0  0
 15 12  1  0  0  0  0
 16  8  1  0  0  0  0
 17 25  1  0  0  0  0
 18  1  1  0  0  0  0
 18  4  2  0  0  0  0
 19  6  1  6  0  0  0
 19  5  1  0  0  0  0
 19  3  1  0  0  0  0
 20 18  1  0  0  0  0
 22 24  1  0  0  0  0
 23 21  1  0  0  0  0
 24 13  1  0  0  0  0
 25 14  1  0  0  0  0
 25  9  2  0  0  0  0
 26 21  1  0  0  0  0
 27  1  2  0  0  0  0
 28 17  1  0  0  0  0
 28 29  1  0  0  0  0
 30 34  1  0  0  0  0
 31 32  1  0  0  0  0
 31 33  1  0  0  0  0
 32 29  1  1  0  0  0
 32 34  1  0  0  0  0
 33 30  1  0  0  0  0
M  END
>  <MODEL>
4

>  <REMARK>
 VINA RESULT:      -8.1      4.277      8.541
  Name = 
  3 active torsions:
  status: ('A' for Active; 'I' for Inactive)
    1  A    between atoms: N_17  and  N_28
    2  A    between atoms: N_28  and  C_29
    3  A    between atoms: C_29  and  C_32
                            x       y       z     vdW  Elec       q    Type
                         _______ _______ _______ _____ _____    ______ ____

>  <TORSDO>
F 3

$$$$
=
 OpenBabel11112418003D

 34 40  0  0  1  0  0  0  0  0999 V2000
  189.9820  174.5580  141.7920 C   0  0  0  0  0  0  0  0  0  0  0  0
  187.5590  174.9050  142.0750 N   0  0  0  0  0  0  0  0  0  0  0  0
  195.7250  173.4710  144.8440 C   0  0  2  0  0  3  0  0  0  0  0  0
  192.4110  173.9100  141.9700 C   0  0  0  0  0  0  0  0  0  0  0  0
  193.7190  174.7150  143.9170 C   0  0  0  0  0  0  0  0  0  0  0  0
  194.9850  175.7170  145.8750 C   0  0  0  0  0  1  0  0  0  0  0  0
  196.5270  173.3620  146.1340 C   0  0  0  0  0  1  0  0  0  0  0  0
  195.9730  173.3090  142.4150 C   0  0  0  0  0  2  0  0  0  0  0  0
  189.0380  175.7170  143.7080 C   0  0  0  0  0  0  0  0  0  0  0  0
  188.1690  176.9580  146.3850 C   0  0  0  0  0  2  0  0  0  0  0  0
  192.7160  175.4240  144.3550 N   0  0  0  0  0  0  0  0  0  0  0  0
  194.5530  172.7650  142.3710 C   0  0  0  0  0  2  0  0  0  0  0  0
  190.3510  175.9150  144.3610 C   0  0  0  0  0  0  0  0  0  0  0  0
  186.8920  175.5360  142.9940 C   0  0  0  0  0  2  0  0  0  0  0  0
  193.5410  173.8310  142.7090 C   0  0  0  0  0  0  0  0  0  0  0  0
  196.5950  173.0930  143.7240 N   0  0  0  0  0  2  0  0  0  0  0  0
  187.3700  176.8360  145.1710 N   0  0  0  0  0  0  0  0  0  0  0  0
  191.3690  174.9630  142.2710 C   0  0  0  0  0  0  0  0  0  0  0  0
  195.0640  174.8500  144.6140 C   0  0  1  0  0  3  0  0  0  0  0  0
  191.4370  175.4320  143.7170 C   0  0  0  0  0  0  0  0  0  0  0  0
  191.1490  173.5660  139.8110 C   0  0  0  0  0  2  0  0  0  0  0  0
  189.5300  177.5460  146.0820 C   0  0  0  0  0  2  0  0  0  0  0  0
  192.2110  173.0170  140.7650 C   0  0  0  0  0  2  0  0  0  0  0  0
  190.4850  176.4130  145.7710 C   0  0  0  0  0  2  0  0  0  0  0  0
  187.7940  176.0530  144.0410 C   0  0  0  0  0  0  0  0  0  0  0  0
  189.8140  173.7730  140.5230 C   0  0  0  0  0  2  0  0  0  0  0  0
  188.9220  175.0000  142.4670 C   0  0  0  0  0  0  0  0  0  0  0  0
  186.1120  177.4570  145.1460 N   0  0  0  0  0  2  0  0  0  0  0  0
  186.3250  178.8750  144.8910 C   0  0  0  0  0  2  0  0  0  0  0  0
  185.1950  178.6260  141.4780 C   0  0  0  0  0  2  0  0  0  0  0  0
  184.1710  178.6650  143.6530 C   0  0  0  0  0  2  0  0  0  0  0  0
  185.5450  179.3030  143.6610 C   0  0  2  0  0  3  0  0  0  0  0  0
  183.9410  178.2310  142.2270 C   0  0  0  0  0  2  0  0  0  0  0  0
  186.2400  178.8650  142.4610 N   0  0  0  0  0  2  0  0  0  0  0  0
  1 18  2  0  0  0  0
  1 27  1  0  0  0  0
  2 27  2  0  0  0  0
  2 14  1  0  0  0  0
  3  7  1  1  0  0  0
  4 18  1  0  0  0  0
  4 15  2  0  0  0  0
  5 11  2  0  0  0  0
  5 19  1  0  0  0  0
  8 16  1  0  0  0  0
  9 25  2  0  0  0  0
  9 13  1  0  0  0  0
 12  8  1  0  0  0  0
 12 15  1  0  0  0  0
 13 24  1  0  0  0  0
 14 25  1  0  0  0  0
 15  5  1  0  0  0  0
 16  3  1  0  0  0  0
 17 10  1  0  0  0  0
 18 20  1  0  0  0  0
 19  3  1  0  0  0  0
 19  6  1  1  0  0  0
 20 11  1  0  0  0  0
 20 13  2  0  0  0  0
 21 26  1  0  0  0  0
 21 23  1  0  0  0  0
 22 10  1  0  0  0  0
 23  4  1  0  0  0  0
 24 22  1  0  0  0  0
 25 17  1  0  0  0  0
 26  1  1  0  0  0  0
 27  9  1  0  0  0  0
 28 17  1  0  0  0  0
 29 28  1  0  0  0  0
 30 33  1  0  0  0  0
 30 34  1  0  0  0  0
 31 32  1  0  0  0  0
 32 29  1  1  0  0  0
 33 31  1  0  0  0  0
 34 32  1  0  0  0  0
M  END
>  <MODEL>
5

>  <REMARK>
 VINA RESULT:      -8.0      3.040      8.858
  Name = 
  3 active torsions:
  status: ('A' for Active; 'I' for Inactive)
    1  A    between atoms: N_17  and  N_28
    2  A    between atoms: N_28  and  C_29
    3  A    between atoms: C_29  and  C_32
                            x       y       z     vdW  Elec       q    Type
                         _______ _______ _______ _____ _____    ______ ____

>  <TORSDO>
F 3

$$$$
=
 OpenBabel11112418003D

 34 40  0  0  1  0  0  0  0  0999 V2000
  191.7510  176.2860  145.3630 C   0  0  0  0  0  0  0  0  0  0  0  0
  189.6000  177.1450  146.2070 N   0  0  0  0  0  0  0  0  0  0  0  0
  195.5030  175.2740  140.0360 C   0  0  2  0  0  3  0  0  0  0  0  0
  193.8730  175.7840  144.1000 C   0  0  0  0  0  0  0  0  0  0  0  0
  193.7040  174.9100  141.7860 C   0  0  0  0  0  0  0  0  0  0  0  0
  193.3990  173.8870  139.4840 C   0  0  0  0  0  1  0  0  0  0  0  0
  195.6620  175.2810  138.5220 C   0  0  0  0  0  1  0  0  0  0  0  0
  196.7380  174.7840  142.0900 C   0  0  0  0  0  2  0  0  0  0  0  0
  189.6840  176.1200  144.0960 C   0  0  0  0  0  0  0  0  0  0  0  0
  187.3320  176.0120  142.1170 C   0  0  0  0  0  2  0  0  0  0  0  0
  192.4030  174.8440  141.8580 N   0  0  0  0  0  0  0  0  0  0  0  0
  195.9360  175.8890  142.7600 C   0  0  0  0  0  2  0  0  0  0  0  0
  190.3360  175.4930  142.9250 C   0  0  0  0  0  0  0  0  0  0  0  0
  188.4070  177.0980  145.6970 C   0  0  0  0  0  2  0  0  0  0  0  0
  194.4880  175.4980  142.9310 C   0  0  0  0  0  0  0  0  0  0  0  0
  196.8060  174.9680  140.6380 N   0  0  0  0  0  2  0  0  0  0  0  0
  187.2600  176.2210  143.5580 N   0  0  0  0  0  0  0  0  0  0  0  0
  192.4250  175.4100  144.3180 C   0  0  0  0  0  0  0  0  0  0  0  0
  194.3950  174.3320  140.5600 C   0  0  1  0  0  3  0  0  0  0  0  0
  191.6680  175.2810  143.0030 C   0  0  0  0  0  0  0  0  0  0  0  0
  193.9320  176.1930  146.5910 C   0  0  0  0  0  2  0  0  0  0  0  0
  188.2040  174.8210  141.7840 C   0  0  0  0  0  2  0  0  0  0  0  0
  194.6450  176.3900  145.2520 C   0  0  0  0  0  2  0  0  0  0  0  0
  189.6300  175.3030  141.6140 C   0  0  0  0  0  2  0  0  0  0  0  0
  188.4270  176.4650  144.3640 C   0  0  0  0  0  0  0  0  0  0  0  0
  192.5190  176.7710  146.5600 C   0  0  0  0  0  2  0  0  0  0  0  0
  190.4470  176.5280  145.2450 C   0  0  0  0  0  0  0  0  0  0  0  0
  185.9920  176.2480  144.1570 N   0  0  0  0  0  2  0  0  0  0  0  0
  185.3410  177.4890  143.7580 C   0  0  0  0  0  2  0  0  0  0  0  0
  184.9630  178.1640  147.2770 C   0  0  0  0  0  2  0  0  0  0  0  0
  185.5480  179.4250  145.3160 C   0  0  0  0  0  2  0  0  0  0  0  0
  184.7540  178.1810  144.9740 C   0  0  2  0  0  3  0  0  0  0  0  0
  185.6770  179.4160  146.8180 C   0  0  0  0  0  2  0  0  0  0  0  0
  184.8160  177.2910  146.1230 N   0  0  0  0  0  2  0  0  0  0  0  0
  1 26  1  0  0  0  0
  3  7  1  6  0  0  0
  3 19  1  0  0  0  0
  3 16  1  0  0  0  0
  4 18  1  0  0  0  0
  4 23  1  0  0  0  0
  5 11  2  0  0  0  0
  5 15  1  0  0  0  0
  8 12  1  0  0  0  0
  9 25  2  0  0  0  0
  9 27  1  0  0  0  0
 10 17  1  0  0  0  0
 11 20  1  0  0  0  0
 12 15  1  0  0  0  0
 13 20  2  0  0  0  0
 13  9  1  0  0  0  0
 14  2  1  0  0  0  0
 15  4  2  0  0  0  0
 16  8  1  0  0  0  0
 17 28  1  0  0  0  0
 17 25  1  0  0  0  0
 18  1  2  0  0  0  0
 19  6  1  6  0  0  0
 19  5  1  0  0  0  0
 20 18  1  0  0  0  0
 22 10  1  0  0  0  0
 23 21  1  0  0  0  0
 24 22  1  0  0  0  0
 24 13  1  0  0  0  0
 25 14  1  0  0  0  0
 26 21  1  0  0  0  0
 27  1  1  0  0  0  0
 27  2  2  0  0  0  0
 29 28  1  0  0  0  0
 31 33  1  0  0  0  0
 32 29  1  6  0  0  0
 32 31  1  0  0  0  0
 32 34  1  0  0  0  0
 33 30  1  0  0  0  0
 34 30  1  0  0  0  0
M  END
>  <MODEL>
6

>  <REMARK>
 VINA RESULT:      -8.0      3.525      8.643
  Name = 
  3 active torsions:
  status: ('A' for Active; 'I' for Inactive)
    1  A    between atoms: N_17  and  N_28
    2  A    between atoms: N_28  and  C_29
    3  A    between atoms: C_29  and  C_32
                            x       y       z     vdW  Elec       q    Type
                         _______ _______ _______ _____ _____    ______ ____

>  <TORSDO>
F 3

$$$$
=
 OpenBabel11112418003D

 34 40  0  0  1  0  0  0  0  0999 V2000
  190.4850  176.2780  146.0030 C   0  0  0  0  0  0  0  0  0  0  0  0
  192.1850  174.5120  146.2630 N   0  0  0  0  0  0  0  0  0  0  0  0
  185.0130  178.1520  142.8370 C   0  0  2  0  0  3  0  0  0  0  0  0
  188.4190  177.6600  145.5930 C   0  0  0  0  0  0  0  0  0  0  0  0
  187.4720  177.7370  143.3030 C   0  0  0  0  0  0  0  0  0  0  0  0
  186.6830  177.8490  140.8930 C   0  0  0  0  0  1  0  0  0  0  0  0
  183.9860  177.9160  141.7380 C   0  0  0  0  0  1  0  0  0  0  0  0
  185.5660  179.7100  144.6400 C   0  0  0  0  0  2  0  0  0  0  0  0
  191.2390  174.8990  144.1490 C   0  0  0  0  0  0  0  0  0  0  0  0
  191.7430  173.1520  141.6680 C   0  0  0  0  0  2  0  0  0  0  0  0
  188.4550  177.0260  142.8240 N   0  0  0  0  0  0  0  0  0  0  0  0
  186.1190  178.5220  145.4110 C   0  0  0  0  0  2  0  0  0  0  0  0
  190.3090  175.5210  143.1800 C   0  0  0  0  0  0  0  0  0  0  0  0
  192.7350  173.7260  145.3880 C   0  0  0  0  0  3  0  0  0  0  0  0
  187.3880  177.9970  144.7850 C   0  0  0  0  0  0  0  0  0  0  0  0
  184.5740  179.2960  143.6450 N   0  0  0  0  0  2  0  0  0  0  0  0
  192.5830  173.2590  142.8540 N   0  0  0  0  0  0  0  0  0  0  0  0
  189.7100  177.1320  145.0110 C   0  0  0  0  0  0  0  0  0  0  0  0
  186.4630  178.3320  142.3310 C   0  0  1  0  0  3  0  0  0  0  0  0
  189.4980  176.4970  143.6440 C   0  0  0  0  0  0  0  0  0  0  0  0
  189.7250  177.9160  147.7380 C   0  0  0  0  0  2  0  0  0  0  0  0
  191.3750  174.5210  141.1390 C   0  0  0  0  0  2  0  0  0  0  0  0
  188.3420  177.9010  147.0850 C   0  0  0  0  0  2  0  0  0  0  0  0
  190.0880  174.9640  141.8030 C   0  0  0  0  0  2  0  0  0  0  0  0
  192.1560  173.9400  144.0480 C   0  0  0  0  0  0  0  0  0  0  0  0
  190.4840  176.6190  147.4660 C   0  0  0  0  0  2  0  0  0  0  0  0
  191.2410  175.2870  145.5340 C   0  0  2  0  0  3  0  0  0  0  0  0
  193.8260  172.6090  142.8400 N   0  0  0  0  0  2  0  0  0  0  0  0
  194.6840  173.3160  141.8980 C   0  0  0  0  0  2  0  0  0  0  0  0
  195.9880  175.7460  144.2160 C   0  0  0  0  0  2  0  0  0  0  0  0
  196.1030  173.3600  143.9470 C   0  0  0  0  0  2  0  0  0  0  0  0
  195.7720  174.0620  142.6460 C   0  0  2  0  0  3  0  0  0  0  0  0
  196.2510  174.4600  144.9680 C   0  0  0  0  0  2  0  0  0  0  0  0
  195.3120  175.4020  142.9750 N   0  0  0  0  0  2  0  0  0  0  0  0
  1 26  1  0  0  0  0
  3  7  1  6  0  0  0
  3 16  1  0  0  0  0
  4 23  1  0  0  0  0
  5 15  1  0  0  0  0
  8 12  1  0  0  0  0
 10 17  1  0  0  0  0
 11  5  2  0  0  0  0
 11 20  1  0  0  0  0
 13 20  2  0  0  0  0
 13  9  1  0  0  0  0
 14  2  2  0  0  0  0
 15 12  1  0  0  0  0
 15  4  2  0  0  0  0
 16  8  1  0  0  0  0
 17 25  1  0  0  0  0
 18  4  1  0  0  0  0
 18  1  2  0  0  0  0
 19  6  1  6  0  0  0
 19  3  1  0  0  0  0
 19  5  1  0  0  0  0
 20 18  1  0  0  0  0
 22 10  1  0  0  0  0
 22 24  1  0  0  0  0
 23 21  1  0  0  0  0
 24 13  1  0  0  0  0
 25  9  2  0  0  0  0
 25 14  1  0  0  0  0
 26 21  1  0  0  0  0
 27  9  1  6  0  0  0
 27  1  1  0  0  0  0
 27  2  1  0  0  0  0
 28 17  1  0  0  0  0
 29 28  1  0  0  0  0
 30 33  1  0  0  0  0
 31 33  1  0  0  0  0
 32 29  1  1  0  0  0
 32 34  1  0  0  0  0
 32 31  1  0  0  0  0
 34 30  1  0  0  0  0
M  END
>  <MODEL>
7

>  <REMARK>
 VINA RESULT:      -8.0      2.867      4.090
  Name = 
  3 active torsions:
  status: ('A' for Active; 'I' for Inactive)
    1  A    between atoms: N_17  and  N_28
    2  A    between atoms: N_28  and  C_29
    3  A    between atoms: C_29  and  C_32
                            x       y       z     vdW  Elec       q    Type
                         _______ _______ _______ _____ _____    ______ ____

>  <TORSDO>
F 3

$$$$
=
 OpenBabel11112418003D

 34 40  0  0  1  0  0  0  0  0999 V2000
  191.2280  174.5020  142.0390 C   0  0  0  0  0  0  0  0  0  0  0  0
  193.6430  174.2430  141.6230 N   0  0  0  0  0  0  0  0  0  0  0  0
  186.5490  178.1880  144.8670 C   0  0  2  0  0  3  0  0  0  0  0  0
  188.8810  175.3070  142.4810 C   0  0  0  0  0  0  0  0  0  0  0  0
  188.4050  176.4790  144.6130 C   0  0  0  0  0  0  0  0  0  0  0  0
  188.0140  177.5340  146.8880 C   0  0  0  0  0  1  0  0  0  0  0  0
  186.1600  179.3520  145.7690 C   0  0  0  0  0  1  0  0  0  0  0  0
  185.5660  176.4160  143.4950 C   0  0  0  0  0  2  0  0  0  0  0  0
  192.9170  175.1840  143.6470 C   0  0  0  0  0  0  0  0  0  0  0  0
  194.7780  176.4200  145.7620 C   0  0  0  0  0  2  0  0  0  0  0  0
  189.6180  176.2760  145.0480 N   0  0  0  0  0  0  0  0  0  0  0  0
  186.7630  176.5600  142.5680 C   0  0  0  0  0  2  0  0  0  0  0  0
  191.9270  175.7180  144.6090 C   0  0  0  0  0  0  0  0  0  0  0  0
  194.6680  174.5020  142.3770 C   0  0  0  0  0  3  0  0  0  0  0  0
  188.0300  176.0580  143.2160 C   0  0  0  0  0  0  0  0  0  0  0  0
  185.3280  177.6400  144.2640 N   0  0  0  0  0  2  0  0  0  0  0  0
  195.1380  175.4580  144.7270 N   0  0  0  0  0  0  0  0  0  0  0  0
  190.1620  174.7810  143.0880 C   0  0  2  0  0  3  0  0  0  0  0  0
  187.3850  177.0890  145.5630 C   0  0  1  0  0  3  0  0  0  0  0  0
  190.6230  175.6310  144.2630 C   0  0  0  0  0  0  0  0  0  0  0  0
  189.3470  173.6910  140.5980 C   0  0  0  0  0  2  0  0  0  0  0  0
  193.5420  175.9720  146.5130 C   0  0  0  0  0  2  0  0  0  0  0  0
  188.5240  174.8910  141.0700 C   0  0  0  0  0  2  0  0  0  0  0  0
  192.3230  176.5300  145.8080 C   0  0  0  0  0  2  0  0  0  0  0  0
  194.2450  175.1020  143.6570 C   0  0  0  0  0  0  0  0  0  0  0  0
  190.8450  173.9730  140.6860 C   0  0  0  0  0  2  0  0  0  0  0  0
  192.5080  174.6410  142.3800 C   0  0  0  0  0  0  0  0  0  0  0  0
  196.4330  174.9190  144.7530 N   0  0  0  0  0  2  0  0  0  0  0  0
  196.4640  173.8920  145.7850 C   0  0  0  0  0  2  0  0  0  0  0  0
  196.5070  170.2890  145.7100 C   0  0  0  0  0  2  0  0  0  0  0  0
  194.8620  172.0170  145.4150 C   0  0  0  0  0  2  0  0  0  0  0  0
  196.2670  172.5220  145.1610 C   0  0  2  0  0  3  0  0  0  0  0  0
  195.0190  170.5590  145.7660 C   0  0  0  0  0  2  0  0  0  0  0  0
  197.1910  171.5720  145.7590 N   0  0  0  0  0  2  0  0  0  0  0  0
  1 27  2  0  0  0  0
  2 14  2  0  0  0  0
  2 27  1  0  0  0  0
  3 19  1  0  0  0  0
  3  7  1  1  0  0  0
  4 18  1  0  0  0  0
  4 15  2  0  0  0  0
  5 11  2  0  0  0  0
  5 19  1  0  0  0  0
  8 16  1  0  0  0  0
  9 25  2  0  0  0  0
  9 13  1  0  0  0  0
 10 22  1  0  0  0  0
 12 15  1  0  0  0  0
 12  8  1  0  0  0  0
 13 24  1  0  0  0  0
 14 25  1  0  0  0  0
 15  5  1  0  0  0  0
 16  3  1  0  0  0  0
 17 28  1  0  0  0  0
 17 10  1  0  0  0  0
 18  1  1  6  0  0  0
 18 20  1  0  0  0  0
 19  6  1  1  0  0  0
 20 13  2  0  0  0  0
 20 11  1  0  0  0  0
 21 26  1  0  0  0  0
 21 23  1  0  0  0  0
 23  4  1  0  0  0  0
 24 22  1  0  0  0  0
 25 17  1  0  0  0  0
 26  1  1  0  0  0  0
 27  9  1  0  0  0  0
 28 29  1  0  0  0  0
 30 34  1  0  0  0  0
 30 33  1  0  0  0  0
 31 33  1  0  0  0  0
 32 31  1  0  0  0  0
 32 34  1  0  0  0  0
 32 29  1  1  0  0  0
M  END
>  <MODEL>
8

>  <REMARK>
 VINA RESULT:      -7.9      3.648      5.958
  Name = 
  3 active torsions:
  status: ('A' for Active; 'I' for Inactive)
    1  A    between atoms: N_17  and  N_28
    2  A    between atoms: N_28  and  C_29
    3  A    between atoms: C_29  and  C_32
                            x       y       z     vdW  Elec       q    Type
                         _______ _______ _______ _____ _____    ______ ____

>  <TORSDO>
F 3

$$$$
=
 OpenBabel11112418003D

 34 40  0  0  1  0  0  0  0  0999 V2000
  189.9150  175.4010  145.0890 C   0  0  0  0  0  0  0  0  0  0  0  0
  191.3150  173.3730  145.0130 N   0  0  0  0  0  0  0  0  0  0  0  0
  184.3970  178.2990  142.9370 C   0  0  2  0  0  3  0  0  0  0  0  0
  188.0710  177.1180  145.0690 C   0  0  0  0  0  0  0  0  0  0  0  0
  186.7940  177.4700  142.9730 C   0  0  0  0  0  0  0  0  0  0  0  0
  185.6580  177.8380  140.7340 C   0  0  0  0  0  1  0  0  0  0  0  0
  183.1820  178.2910  142.0200 C   0  0  0  0  0  1  0  0  0  0  0  0
  185.4870  179.6480  144.6630 C   0  0  0  0  0  2  0  0  0  0  0  0
  190.1190  174.0220  143.0990 C   0  0  0  0  0  0  0  0  0  0  0  0
  189.9170  172.3540  140.5230 C   0  0  0  0  0  2  0  0  0  0  0  0
  187.5540  176.6370  142.3170 N   0  0  0  0  0  0  0  0  0  0  0  0
  185.9490  178.3460  145.2980 C   0  0  0  0  0  2  0  0  0  0  0  0
  189.1630  174.8360  142.3170 C   0  0  0  0  0  0  0  0  0  0  0  0
  191.5770  172.5580  144.0370 C   0  0  0  0  0  3  0  0  0  0  0  0
  186.9950  177.6590  144.4540 C   0  0  0  0  0  0  0  0  0  0  0  0
  184.2920  179.4530  143.8380 N   0  0  0  0  0  2  0  0  0  0  0  0
  190.9430  172.2590  141.5540 N   0  0  0  0  0  0  0  0  0  0  0  0
  189.1450  176.4210  144.2650 C   0  0  0  0  0  0  0  0  0  0  0  0
  185.7560  178.2700  142.2000 C   0  0  1  0  0  3  0  0  0  0  0  0
  188.6120  175.9030  142.9360 C   0  0  0  0  0  0  0  0  0  0  0  0
  189.7300  177.0430  146.9710 C   0  0  0  0  0  2  0  0  0  0  0  0
  189.7030  173.7910  140.1000 C   0  0  0  0  0  2  0  0  0  0  0  0
  188.2770  177.2870  146.5590 C   0  0  0  0  0  2  0  0  0  0  0  0
  188.6320  174.3980  140.9820 C   0  0  0  0  0  2  0  0  0  0  0  0
  190.8340  172.9350  142.8190 C   0  0  0  0  0  0  0  0  0  0  0  0
  190.2070  175.6580  146.5410 C   0  0  0  0  0  2  0  0  0  0  0  0
  190.4090  174.3280  144.4740 C   0  0  2  0  0  3  0  0  0  0  0  0
  192.0410  171.4200  141.3130 N   0  0  0  0  0  2  0  0  0  0  0  0
  191.6530  170.0660  141.6830 C   0  0  0  0  0  2  0  0  0  0  0  0
  194.6810  169.7940  143.6180 C   0  0  0  0  0  2  0  0  0  0  0  0
  192.4750  168.8400  143.6930 C   0  0  0  0  0  2  0  0  0  0  0  0
  192.8300  169.3400  142.3070 C   0  0  2  0  0  3  0  0  0  0  0  0
  193.6860  169.1300  144.5440 C   0  0  0  0  0  2  0  0  0  0  0  0
  193.9540  170.2540  142.4450 N   0  0  0  0  0  2  0  0  0  0  0  0
  1 26  1  0  0  0  0
  3  7  1  6  0  0  0
  3 16  1  0  0  0  0
  4 23  1  0  0  0  0
  5 15  1  0  0  0  0
  8 12  1  0  0  0  0
 10 17  1  0  0  0  0
 11 20  1  0  0  0  0
 11  5  2  0  0  0  0
 13 20  2  0  0  0  0
 13  9  1  0  0  0  0
 14  2  2  0  0  0  0
 15  4  2  0  0  0  0
 15 12  1  0  0  0  0
 16  8  1  0  0  0  0
 17 25  1  0  0  0  0
 18  4  1  0  0  0  0
 18  1  2  0  0  0  0
 19  6  1  6  0  0  0
 19  3  1  0  0  0  0
 19  5  1  0  0  0  0
 20 18  1  0  0  0  0
 22 10  1  0  0  0  0
 22 24  1  0  0  0  0
 23 21  1  0  0  0  0
 24 13  1  0  0  0  0
 25  9  2  0  0  0  0
 25 14  1  0  0  0  0
 26 21  1  0  0  0  0
 27  9  1  6  0  0  0
 27  2  1  0  0  0  0
 27  1  1  0  0  0  0
 28 17  1  0  0  0  0
 28 29  1  0  0  0  0
 30 33  1  0  0  0  0
 31 33  1  0  0  0  0
 32 29  1  1  0  0  0
 32 34  1  0  0  0  0
 32 31  1  0  0  0  0
 34 30  1  0  0  0  0
M  END
>  <MODEL>
9

>  <REMARK>
 VINA RESULT:      -7.8      1.774      2.693
  Name = 
  3 active torsions:
  status: ('A' for Active; 'I' for Inactive)
    1  A    between atoms: N_17  and  N_28
    2  A    between atoms: N_28  and  C_29
    3  A    between atoms: C_29  and  C_32
                            x       y       z     vdW  Elec       q    Type
                         _______ _______ _______ _____ _____    ______ ____

>  <TORSDO>
F 3

$$$$
