=
 OpenBabel11112416423D

 32 37  0  0  1  0  0  0  0  0999 V2000
  189.0100  175.5570  144.9160 C   0  0  1  0  0  3  0  0  0  0  0  0
  188.5520  175.0610  140.6920 O   0  0  0  0  0  0  0  0  0  0  0  0
  187.5030  175.9970  140.7360 C   0  0  0  0  0  2  0  0  0  0  0  0
  187.0040  176.6950  146.0740 C   0  0  2  0  0  3  0  0  0  0  0  0
  186.0850  177.8930  145.8940 C   0  0  2  0  0  3  0  0  0  0  0  0
  191.0720  175.2330  146.3990 C   0  0  2  0  0  3  0  0  0  0  0  0
  190.9500  174.7520  143.9910 O   0  0  0  0  0  0  0  0  0  0  0  0
  184.5480  178.9420  144.5290 C   0  0  1  0  0  3  0  0  0  0  0  0
  188.9230  174.8010  142.0240 C   0  0  0  0  0  2  0  0  0  0  0  0
  190.1150  175.8260  143.9840 N   0  0  1  0  0  0  0  0  0  0  0  0
  189.6140  176.0420  142.6190 C   0  0  2  0  0  3  0  0  0  0  0  0
  187.5710  177.1460  143.6430 C   0  0  2  0  0  3  0  0  0  0  0  0
  184.0200  178.7000  145.9440 C   0  0  0  0  0  2  0  0  0  0  0  0
  191.8250  174.9540  145.0800 C   0  0  2  0  0  3  0  0  0  0  0  0
  184.9100  177.8520  146.6480 O   0  0  0  0  0  0  0  0  0  0  0  0
  188.0370  177.3650  141.1780 C   0  0  0  0  0  2  0  0  0  0  0  0
  188.6650  177.2580  142.5710 C   0  0  2  0  0  3  0  0  0  0  0  0
  186.7580  178.3020  143.6660 O   0  0  0  0  0  0  0  0  0  0  0  0
  189.5570  175.0360  146.2570 C   0  0  0  0  0  2  0  0  0  0  0  0
  187.5130  176.7100  147.3740 O   0  0  0  0  0  1  0  0  0  0  0  0
  185.0460  180.2460  144.4410 O   0  0  0  0  0  1  0  0  0  0  0  0
  188.1570  176.8250  145.0480 C   0  0  2  0  0  3  0  0  0  0  0  0
  185.6600  177.9440  144.4620 C   0  0  1  0  0  3  0  0  0  0  0  0
  193.1990  173.2600  143.8960 C   0  0  0  0  0  2  0  0  0  0  0  0
  192.7170  173.7410  145.2490 C   0  0  1  0  0  3  0  0  0  0  0  0
  194.1150  174.0850  144.7740 C   0  0  1  0  0  3  0  0  0  0  0  0
  195.1090  173.1750  145.4680 C   0  0  0  0  0  2  0  0  0  0  0  0
  196.4110  173.8780  145.6250 C   0  0  0  0  0  0  0  0  0  0  0  0
  196.8080  174.8260  144.6920 O   0  0  0  0  0  0  0  0  0  0  0  0
  197.1710  173.5880  146.5870 O   0  0  0  0  0  1  0  0  0  0  0  0
  190.7910  176.6180  148.0130 O   0  0  0  0  0  1  0  0  0  0  0  0
  191.3370  176.5370  146.8190 O   0  0  0  0  0  0  0  0  0  0  0  0
  1 22  1  0  0  0  0
  1 19  1  1  0  0  0
  2  3  1  0  0  0  0
  2  9  1  0  0  0  0
  3 16  1  0  0  0  0
  4 20  1  1  0  0  0
  5  4  1  0  0  0  0
  5 15  1  1  0  0  0
  6 32  1  6  0  0  0
  8 21  1  1  0  0  0
  8 13  1  0  0  0  0
 10  7  1  6  0  0  0
 10  1  1  0  0  0  0
 11  9  1  1  0  0  0
 11 10  1  0  0  0  0
 12 18  1  1  0  0  0
 12 22  1  0  0  0  0
 13 15  1  0  0  0  0
 14  7  1  6  0  0  0
 14 25  1  0  0  0  0
 14  6  1  0  0  0  0
 17 16  1  6  0  0  0
 17 11  1  0  0  0  0
 17 12  1  0  0  0  0
 18 23  1  0  0  0  0
 19  6  1  0  0  0  0
 22  4  1  0  0  0  0
 23  8  1  0  0  0  0
 23  5  1  0  0  0  0
 24 26  1  0  0  0  0
 24 25  1  0  0  0  0
 26 25  1  0  0  0  0
 26 27  1  0  0  0  0
 27 28  1  0  0  0  0
 28 30  1  0  0  0  0
 29 28  2  0  0  0  0
 32 31  1  0  0  0  0
M  END
>  <MODEL>
1

>  <REMARK>
 VINA RESULT:      -8.0      0.000      0.000
  Name = 
  4 active torsions:
  status: ('A' for Active; 'I' for Inactive)
    1  A    between atoms: C_7  and  O_19
    2  A    between atoms: C_10  and  C_17
    3  A    between atoms: C_20  and  C_29
    4  A    between atoms: C_29  and  C_30
                            x       y       z     vdW  Elec       q    Type
                         _______ _______ _______ _____ _____    ______ ____

>  <TORSDO>
F 4

$$$$
=
 OpenBabel11112416423D

 32 37  0  0  1  0  0  0  0  0999 V2000
  191.1260  175.1970  144.4070 C   0  0  1  0  0  3  0  0  0  0  0  0
  189.6260  172.9210  141.1090 O   0  0  0  0  0  0  0  0  0  0  0  0
  190.5840  171.9360  141.4050 C   0  0  0  0  0  2  0  0  0  0  0  0
  193.4420  174.4370  145.2530 C   0  0  2  0  0  3  0  0  0  0  0  0
  194.1850  173.1600  145.6180 C   0  0  2  0  0  3  0  0  0  0  0  0
  189.9550  176.9340  145.8780 C   0  0  2  0  0  3  0  0  0  0  0  0
  188.9740  175.8270  143.9140 O   0  0  0  0  0  0  0  0  0  0  0  0
  194.9430  171.1080  144.8850 C   0  0  1  0  0  3  0  0  0  0  0  0
  189.8950  174.0170  141.9490 C   0  0  0  0  0  2  0  0  0  0  0  0
  189.7190  174.7710  144.3400 N   0  0  1  0  0  0  0  0  0  0  0  0
  189.5510  173.6500  143.4040 C   0  0  2  0  0  3  0  0  0  0  0  0
  191.8400  172.8240  144.1270 C   0  0  2  0  0  3  0  0  0  0  0  0
  196.0530  171.9720  145.4870 C   0  0  0  0  0  2  0  0  0  0  0  0
  188.6870  176.5830  145.0700 C   0  0  2  0  0  3  0  0  0  0  0  0
  195.5730  173.2890  145.6940 O   0  0  0  0  0  0  0  0  0  0  0  0
  190.3120  171.3350  142.7900 C   0  0  0  0  0  2  0  0  0  0  0  0
  190.3810  172.4300  143.8590 C   0  0  2  0  0  3  0  0  0  0  0  0
  192.5790  171.7320  144.6350 O   0  0  0  0  0  0  0  0  0  0  0  0
  191.2420  176.5460  145.1380 C   0  0  0  0  0  2  0  0  0  0  0  0
  193.5760  175.3490  146.3010 O   0  0  0  0  0  1  0  0  0  0  0  0
  194.4640  170.2300  145.8620 O   0  0  0  0  0  1  0  0  0  0  0  0
  191.9510  174.0730  145.0480 C   0  0  2  0  0  3  0  0  0  0  0  0
  193.9170  172.1450  144.5540 C   0  0  1  0  0  3  0  0  0  0  0  0
  187.0120  177.5800  143.5320 C   0  0  0  0  0  2  0  0  0  0  0  0
  187.9630  177.8570  144.6790 C   0  0  1  0  0  3  0  0  0  0  0  0
  186.4800  177.6840  144.9460 C   0  0  1  0  0  3  0  0  0  0  0  0
  185.8560  179.0500  145.1550 C   0  0  0  0  0  2  0  0  0  0  0  0
  184.3730  178.9370  145.1170 C   0  0  0  0  0  0  0  0  0  0  0  0
  183.6980  179.0360  143.9080 O   0  0  0  0  0  0  0  0  0  0  0  0
  183.7260  178.7870  146.1870 O   0  0  0  0  0  1  0  0  0  0  0  0
  190.9400  176.7730  147.7770 O   0  0  0  0  0  1  0  0  0  0  0  0
  189.9120  176.2890  147.1140 O   0  0  0  0  0  0  0  0  0  0  0  0
  1 22  1  0  0  0  0
  1 19  1  1  0  0  0
  2  3  1  0  0  0  0
  2  9  1  0  0  0  0
  3 16  1  0  0  0  0
  4  5  1  0  0  0  0
  4 20  1  1  0  0  0
  5 15  1  6  0  0  0
  6 32  1  1  0  0  0
  8 13  1  0  0  0  0
  8 21  1  1  0  0  0
 10  7  1  6  0  0  0
 10  1  1  0  0  0  0
 11  9  1  6  0  0  0
 11 17  1  0  0  0  0
 11 10  1  0  0  0  0
 12 18  1  1  0  0  0
 12 22  1  0  0  0  0
 13 15  1  0  0  0  0
 14  7  1  6  0  0  0
 14  6  1  0  0  0  0
 17 16  1  6  0  0  0
 17 12  1  0  0  0  0
 19  6  1  0  0  0  0
 22  4  1  0  0  0  0
 23 18  1  0  0  0  0
 23  8  1  0  0  0  0
 23  5  1  0  0  0  0
 24 25  1  0  0  0  0
 24 26  1  0  0  0  0
 25 26  1  0  0  0  0
 25 14  1  0  0  0  0
 26 27  1  0  0  0  0
 28 27  1  0  0  0  0
 28 30  1  0  0  0  0
 29 28  2  0  0  0  0
 32 31  1  0  0  0  0
M  END
>  <MODEL>
2

>  <REMARK>
 VINA RESULT:      -7.4      1.989      8.114
  Name = 
  4 active torsions:
  status: ('A' for Active; 'I' for Inactive)
    1  A    between atoms: C_7  and  O_19
    2  A    between atoms: C_10  and  C_17
    3  A    between atoms: C_20  and  C_29
    4  A    between atoms: C_29  and  C_30
                            x       y       z     vdW  Elec       q    Type
                         _______ _______ _______ _____ _____    ______ ____

>  <TORSDO>
F 4

$$$$
=
 OpenBabel11112416423D

 32 37  0  0  1  0  0  0  0  0999 V2000
  191.4520  175.7200  144.0990 C   0  0  1  0  0  3  0  0  0  0  0  0
  190.1310  172.4750  141.6450 O   0  0  0  0  0  0  0  0  0  0  0  0
  191.3450  171.8230  141.9230 C   0  0  0  0  0  2  0  0  0  0  0  0
  193.9840  175.7110  144.5960 C   0  0  2  0  0  3  0  0  0  0  0  0
  195.0780  174.7510  145.0370 C   0  0  2  0  0  3  0  0  0  0  0  0
  190.0970  177.4410  145.4240 C   0  0  2  0  0  3  0  0  0  0  0  0
  189.1620  175.7230  143.9340 O   0  0  0  0  0  0  0  0  0  0  0  0
  196.2290  172.8080  144.5620 C   0  0  1  0  0  3  0  0  0  0  0  0
  190.2250  173.7650  142.1960 C   0  0  0  0  0  2  0  0  0  0  0  0
  190.2110  174.9870  144.3920 N   0  0  1  0  0  0  0  0  0  0  0  0
  190.2050  173.6730  143.7330 C   0  0  2  0  0  3  0  0  0  0  0  0
  192.7100  173.5680  144.1290 C   0  0  2  0  0  3  0  0  0  0  0  0
  197.1510  174.0130  144.7620 C   0  0  0  0  0  2  0  0  0  0  0  0
  188.8600  176.6400  144.9630 C   0  0  2  0  0  3  0  0  0  0  0  0
  196.3810  175.2010  144.8110 O   0  0  0  0  0  0  0  0  0  0  0  0
  191.4440  171.5100  143.4210 C   0  0  0  0  0  2  0  0  0  0  0  0
  191.3810  172.8060  144.2330 C   0  0  2  0  0  3  0  0  0  0  0  0
  193.7740  172.8140  144.6740 O   0  0  0  0  0  0  0  0  0  0  0  0
  191.3180  177.1910  144.5300 C   0  0  0  0  0  2  0  0  0  0  0  0
  194.0270  176.8450  145.4090 O   0  0  0  0  0  1  0  0  0  0  0  0
  196.1430  172.0930  145.7610 O   0  0  0  0  0  1  0  0  0  0  0  0
  192.6250  174.9860  144.7610 C   0  0  2  0  0  3  0  0  0  0  0  0
  194.9320  173.4860  144.2550 C   0  0  1  0  0  3  0  0  0  0  0  0
  186.4870  176.8410  144.2620 C   0  0  0  0  0  2  0  0  0  0  0  0
  187.7800  177.5960  144.4940 C   0  0  1  0  0  3  0  0  0  0  0  0
  186.6770  177.6430  145.5320 C   0  0  1  0  0  3  0  0  0  0  0  0
  185.9450  178.9650  145.4130 C   0  0  0  0  0  2  0  0  0  0  0  0
  184.4940  178.7640  145.6690 C   0  0  0  0  0  0  0  0  0  0  0  0
  184.0670  178.2410  146.8820 O   0  0  0  0  0  1  0  0  0  0  0  0
  183.6520  179.0360  144.7730 O   0  0  0  0  0  0  0  0  0  0  0  0
  189.6720  177.9160  147.4730 O   0  0  0  0  0  1  0  0  0  0  0  0
  190.4050  177.1030  146.7430 O   0  0  0  0  0  0  0  0  0  0  0  0
  1 10  1  0  0  0  0
  1 19  1  1  0  0  0
  1 22  1  0  0  0  0
  2  3  1  0  0  0  0
  2  9  1  0  0  0  0
  3 16  1  0  0  0  0
  4 22  1  0  0  0  0
  4  5  1  0  0  0  0
  4 20  1  1  0  0  0
  5 15  1  6  0  0  0
  6 32  1  1  0  0  0
  8 13  1  0  0  0  0
  8 21  1  1  0  0  0
 10  7  1  6  0  0  0
 11  9  1  6  0  0  0
 11 17  1  0  0  0  0
 11 10  1  0  0  0  0
 12 17  1  0  0  0  0
 12 18  1  1  0  0  0
 12 22  1  0  0  0  0
 13 15  1  0  0  0  0
 14  7  1  6  0  0  0
 14  6  1  0  0  0  0
 17 16  1  6  0  0  0
 19  6  1  0  0  0  0
 23  8  1  0  0  0  0
 23 18  1  0  0  0  0
 23  5  1  0  0  0  0
 24 25  1  0  0  0  0
 24 26  1  0  0  0  0
 25 14  1  0  0  0  0
 25 26  1  0  0  0  0
 27 26  1  0  0  0  0
 27 28  1  0  0  0  0
 28 29  1  0  0  0  0
 30 28  2  0  0  0  0
 32 31  1  0  0  0  0
M  END
>  <MODEL>
3

>  <REMARK>
 VINA RESULT:      -7.4      1.834      8.228
  Name = 
  4 active torsions:
  status: ('A' for Active; 'I' for Inactive)
    1  A    between atoms: C_7  and  O_19
    2  A    between atoms: C_10  and  C_17
    3  A    between atoms: C_20  and  C_29
    4  A    between atoms: C_29  and  C_30
                            x       y       z     vdW  Elec       q    Type
                         _______ _______ _______ _____ _____    ______ ____

>  <TORSDO>
F 4

$$$$
=
 OpenBabel11112416423D

 32 37  0  0  1  0  0  0  0  0999 V2000
  189.8540  175.1000  145.1700 C   0  0  1  0  0  3  0  0  0  0  0  0
  188.8230  172.5720  141.8770 O   0  0  0  0  0  0  0  0  0  0  0  0
  187.7340  173.4230  141.6170 C   0  0  0  0  0  2  0  0  0  0  0  0
  187.9680  176.6960  145.9140 C   0  0  2  0  0  3  0  0  0  0  0  0
  186.9560  177.6600  145.3120 C   0  0  2  0  0  3  0  0  0  0  0  0
  192.1250  175.5240  146.2730 C   0  0  2  0  0  3  0  0  0  0  0  0
  191.6880  173.9090  144.4710 O   0  0  0  0  0  0  0  0  0  0  0  0
  185.1740  177.9140  143.8680 C   0  0  1  0  0  3  0  0  0  0  0  0
  189.3990  173.0050  143.0850 C   0  0  0  0  0  2  0  0  0  0  0  0
  190.7930  174.8510  144.0660 N   0  0  1  0  0  0  0  0  0  0  0  0
  190.0870  174.3650  142.8710 C   0  0  2  0  0  3  0  0  0  0  0  0
  188.1470  175.8660  143.5230 C   0  0  2  0  0  3  0  0  0  0  0  0
  184.8720  178.4180  145.2810 C   0  0  0  0  0  2  0  0  0  0  0  0
  192.6960  174.6130  145.1650 C   0  0  2  0  0  3  0  0  0  0  0  0
  185.9080  178.0190  146.1620 O   0  0  0  0  0  0  0  0  0  0  0  0
  188.2360  174.8200  141.2340 C   0  0  0  0  0  2  0  0  0  0  0  0
  189.0640  175.4120  142.3790 C   0  0  2  0  0  3  0  0  0  0  0  0
  187.2730  176.8930  143.0990 O   0  0  0  0  0  0  0  0  0  0  0  0
  190.6210  175.3070  146.4880 C   0  0  0  0  0  2  0  0  0  0  0  0
  188.6560  177.3480  146.9370 O   0  0  0  0  0  1  0  0  0  0  0  0
  185.5680  178.9920  143.0700 O   0  0  0  0  0  1  0  0  0  0  0  0
  188.9490  176.2790  144.7900 C   0  0  2  0  0  3  0  0  0  0  0  0
  186.3270  176.9970  144.1290 C   0  0  1  0  0  3  0  0  0  0  0  0
  193.9080  172.4750  144.8170 C   0  0  0  0  0  2  0  0  0  0  0  0
  193.6800  173.6310  145.7690 C   0  0  1  0  0  3  0  0  0  0  0  0
  194.9280  173.5900  144.9090 C   0  0  1  0  0  3  0  0  0  0  0  0
  196.0980  173.1390  145.7610 C   0  0  0  0  0  2  0  0  0  0  0  0
  197.3450  173.1460  144.9500 C   0  0  0  0  0  0  0  0  0  0  0  0
  197.9400  171.9480  144.5770 O   0  0  0  0  0  0  0  0  0  0  0  0
  197.8820  174.2390  144.6290 O   0  0  0  0  0  1  0  0  0  0  0  0
  193.5030  176.8410  145.2880 O   0  0  0  0  0  1  0  0  0  0  0  0
  192.3640  176.8600  145.9460 O   0  0  0  0  0  0  0  0  0  0  0  0
  1 19  1  1  0  0  0
  2  9  1  0  0  0  0
  3  2  1  0  0  0  0
  4 20  1  1  0  0  0
  5  4  1  0  0  0  0
  5 15  1  1  0  0  0
  6 32  1  6  0  0  0
  6 19  1  0  0  0  0
  8 21  1  6  0  0  0
  8 23  1  0  0  0  0
  8 13  1  0  0  0  0
 10  7  1  1  0  0  0
 10  1  1  0  0  0  0
 11  9  1  1  0  0  0
 11 10  1  0  0  0  0
 12 18  1  6  0  0  0
 12 22  1  0  0  0  0
 13 15  1  0  0  0  0
 14  7  1  1  0  0  0
 14 25  1  0  0  0  0
 14  6  1  0  0  0  0
 16  3  1  0  0  0  0
 17 16  1  6  0  0  0
 17 11  1  0  0  0  0
 17 12  1  0  0  0  0
 18 23  1  0  0  0  0
 22  1  1  0  0  0  0
 22  4  1  0  0  0  0
 23  5  1  0  0  0  0
 24 26  1  0  0  0  0
 24 25  1  0  0  0  0
 26 27  1  0  0  0  0
 26 25  1  0  0  0  0
 28 27  1  0  0  0  0
 29 28  2  0  0  0  0
 30 28  1  0  0  0  0
 31 32  1  0  0  0  0
M  END
>  <MODEL>
4

>  <REMARK>
 VINA RESULT:      -7.2      1.428      1.745
  Name = 
  4 active torsions:
  status: ('A' for Active; 'I' for Inactive)
    1  A    between atoms: C_7  and  O_19
    2  A    between atoms: C_10  and  C_17
    3  A    between atoms: C_20  and  C_29
    4  A    between atoms: C_29  and  C_30
                            x       y       z     vdW  Elec       q    Type
                         _______ _______ _______ _____ _____    ______ ____

>  <TORSDO>
F 4

$$$$
=
 OpenBabel11112416423D

 32 37  0  0  1  0  0  0  0  0999 V2000
  188.2360  176.7350  144.2290 C   0  0  1  0  0  3  0  0  0  0  0  0
  186.6360  178.6760  147.6900 O   0  0  0  0  0  0  0  0  0  0  0  0
  185.4990  179.0050  146.9300 C   0  0  0  0  0  2  0  0  0  0  0  0
  187.0650  177.3710  142.0200 C   0  0  2  0  0  3  0  0  0  0  0  0
  185.6630  177.5310  141.4520 C   0  0  2  0  0  3  0  0  0  0  0  0
  189.9090  174.8050  144.0490 C   0  0  2  0  0  3  0  0  0  0  0  0
  189.2110  175.9050  146.1340 O   0  0  0  0  0  0  0  0  0  0  0  0
  183.6400  178.6290  141.6200 C   0  0  1  0  0  3  0  0  0  0  0  0
  187.5650  178.1020  146.8040 C   0  0  0  0  0  2  0  0  0  0  0  0
  188.0170  176.0080  145.4890 N   0  0  1  0  0  0  0  0  0  0  0  0
  187.0610  176.7190  146.3500 C   0  0  2  0  0  3  0  0  0  0  0  0
  185.8450  177.4440  144.2430 C   0  0  2  0  0  3  0  0  0  0  0  0
  184.2590  178.7330  140.2250 C   0  0  0  0  0  2  0  0  0  0  0  0
  189.8420  174.7650  145.5910 C   0  0  2  0  0  3  0  0  0  0  0  0
  185.5910  178.2500  140.2560 O   0  0  0  0  0  0  0  0  0  0  0  0
  184.7650  177.7290  146.4990 C   0  0  0  0  0  2  0  0  0  0  0  0
  185.6910  176.8520  145.6510 C   0  0  2  0  0  3  0  0  0  0  0  0
  184.6060  177.4780  143.5650 O   0  0  0  0  0  0  0  0  0  0  0  0
  189.4490  176.1550  143.4810 C   0  0  0  0  0  2  0  0  0  0  0  0
  187.8060  176.5540  141.1640 O   0  0  0  0  0  1  0  0  0  0  0  0
  182.7150  177.5800  141.6350 O   0  0  0  0  0  1  0  0  0  0  0  0
  186.9370  176.7080  143.4140 C   0  0  2  0  0  3  0  0  0  0  0  0
  184.8410  178.2880  142.4440 C   0  0  1  0  0  3  0  0  0  0  0  0
  192.2580  174.6420  145.0340 C   0  0  0  0  0  2  0  0  0  0  0  0
  191.2420  174.6380  146.1580 C   0  0  1  0  0  3  0  0  0  0  0  0
  192.0200  175.9000  145.8420 C   0  0  1  0  0  3  0  0  0  0  0  0
  193.1270  176.0650  146.8640 C   0  0  0  0  0  2  0  0  0  0  0  0
  194.4180  176.3230  146.1720 C   0  0  0  0  0  0  0  0  0  0  0  0
  195.3760  175.3210  146.0910 O   0  0  0  0  0  1  0  0  0  0  0  0
  194.6580  177.4610  145.6900 O   0  0  0  0  0  0  0  0  0  0  0  0
  189.7050  173.4620  142.3880 O   0  0  0  0  0  1  0  0  0  0  0  0
  189.1190  173.7830  143.5220 O   0  0  0  0  0  0  0  0  0  0  0  0
  1 19  1  6  0  0  0
  1 10  1  0  0  0  0
  3  2  1  0  0  0  0
  4 20  1  6  0  0  0
  4 22  1  0  0  0  0
  5 15  1  6  0  0  0
  5  4  1  0  0  0  0
  5 23  1  0  0  0  0
  6 32  1  6  0  0  0
  6 14  1  0  0  0  0
  8 21  1  6  0  0  0
  8 23  1  0  0  0  0
  9  2  1  0  0  0  0
 10  7  1  1  0  0  0
 10 11  1  0  0  0  0
 11  9  1  6  0  0  0
 12 18  1  6  0  0  0
 12 17  1  0  0  0  0
 13 15  1  0  0  0  0
 13  8  1  0  0  0  0
 14  7  1  1  0  0  0
 14 25  1  0  0  0  0
 16  3  1  0  0  0  0
 17 11  1  0  0  0  0
 17 16  1  1  0  0  0
 19  6  1  0  0  0  0
 22  1  1  0  0  0  0
 22 12  1  0  0  0  0
 23 18  1  0  0  0  0
 24 26  1  0  0  0  0
 24 25  1  0  0  0  0
 26 25  1  0  0  0  0
 26 27  1  0  0  0  0
 28 27  1  0  0  0  0
 29 28  1  0  0  0  0
 30 28  2  0  0  0  0
 31 32  1  0  0  0  0
M  END
>  <MODEL>
5

>  <REMARK>
 VINA RESULT:      -7.2      2.182      4.333
  Name = 
  4 active torsions:
  status: ('A' for Active; 'I' for Inactive)
    1  A    between atoms: C_7  and  O_19
    2  A    between atoms: C_10  and  C_17
    3  A    between atoms: C_20  and  C_29
    4  A    between atoms: C_29  and  C_30
                            x       y       z     vdW  Elec       q    Type
                         _______ _______ _______ _____ _____    ______ ____

>  <TORSDO>
F 4

$$$$
=
 OpenBabel11112416423D

 32 37  0  0  1  0  0  0  0  0999 V2000
  191.0820  175.1640  143.7950 C   0  0  1  0  0  3  0  0  0  0  0  0
  193.4230  176.0580  147.2620 O   0  0  0  0  0  0  0  0  0  0  0  0
  194.5670  176.0380  146.4460 C   0  0  0  0  0  2  0  0  0  0  0  0
  192.4480  174.2850  141.7910 C   0  0  2  0  0  3  0  0  0  0  0  0
  193.7190  174.6080  141.0190 C   0  0  2  0  0  3  0  0  0  0  0  0
  188.6290  175.6910  143.2830 C   0  0  2  0  0  3  0  0  0  0  0  0
  189.7780  176.1500  145.4070 O   0  0  0  0  0  0  0  0  0  0  0  0
  196.0100  174.8690  141.1210 C   0  0  1  0  0  3  0  0  0  0  0  0
  192.3460  175.6290  146.4660 C   0  0  0  0  0  2  0  0  0  0  0  0
  190.8450  176.3770  144.5940 N   0  0  1  0  0  0  0  0  0  0  0  0
  192.0190  176.7060  145.4150 C   0  0  2  0  0  3  0  0  0  0  0  0
  193.4700  175.8280  143.5250 C   0  0  2  0  0  3  0  0  0  0  0  0
  195.5720  173.8610  140.0570 C   0  0  0  0  0  2  0  0  0  0  0  0
  188.6360  176.4430  144.6310 C   0  0  2  0  0  3  0  0  0  0  0  0
  194.1930  173.5750  140.2080 O   0  0  0  0  0  0  0  0  0  0  0  0
  194.4910  177.1600  145.4030 C   0  0  0  0  0  2  0  0  0  0  0  0
  193.2510  176.9750  144.5230 C   0  0  2  0  0  3  0  0  0  0  0  0
  194.5380  176.1150  142.6450 O   0  0  0  0  0  0  0  0  0  0  0  0
  189.7620  174.6600  143.1850 C   0  0  0  0  0  2  0  0  0  0  0  0
  191.3960  174.1430  140.8840 O   0  0  0  0  0  1  0  0  0  0  0  0
  196.2100  176.1150  140.5200 O   0  0  0  0  0  1  0  0  0  0  0  0
  192.1690  175.4640  142.7550 C   0  0  2  0  0  3  0  0  0  0  0  0
  194.8040  174.8950  142.0060 C   0  0  1  0  0  3  0  0  0  0  0  0
  187.4840  176.6530  146.8200 C   0  0  0  0  0  2  0  0  0  0  0  0
  187.3850  176.0960  145.4140 C   0  0  1  0  0  3  0  0  0  0  0  0
  186.6590  177.3770  145.7770 C   0  0  1  0  0  3  0  0  0  0  0  0
  185.1900  177.0670  145.9860 C   0  0  0  0  0  2  0  0  0  0  0  0
  184.4760  178.2910  146.4400 C   0  0  0  0  0  0  0  0  0  0  0  0
  183.7340  179.0400  145.5370 O   0  0  0  0  0  0  0  0  0  0  0  0
  184.5730  178.6680  147.6380 O   0  0  0  0  0  1  0  0  0  0  0  0
  188.4060  177.7630  142.7740 O   0  0  0  0  0  1  0  0  0  0  0  0
  188.7400  176.6090  142.2380 O   0  0  0  0  0  0  0  0  0  0  0  0
  1 19  1  6  0  0  0
  1 10  1  0  0  0  0
  3  2  1  0  0  0  0
  4 20  1  6  0  0  0
  4 22  1  0  0  0  0
  5 15  1  1  0  0  0
  5  4  1  0  0  0  0
  5 23  1  0  0  0  0
  6 32  1  6  0  0  0
  6 14  1  0  0  0  0
  8 21  1  6  0  0  0
  8 23  1  0  0  0  0
  9  2  1  0  0  0  0
 10  7  1  1  0  0  0
 10 11  1  0  0  0  0
 11  9  1  1  0  0  0
 12 18  1  6  0  0  0
 12 17  1  0  0  0  0
 13 15  1  0  0  0  0
 13  8  1  0  0  0  0
 14  7  1  1  0  0  0
 14 25  1  0  0  0  0
 16  3  1  0  0  0  0
 17 16  1  1  0  0  0
 17 11  1  0  0  0  0
 19  6  1  0  0  0  0
 22 12  1  0  0  0  0
 22  1  1  0  0  0  0
 23 18  1  0  0  0  0
 25 26  1  0  0  0  0
 25 24  1  0  0  0  0
 26 27  1  0  0  0  0
 26 24  1  0  0  0  0
 27 28  1  0  0  0  0
 28 30  1  0  0  0  0
 29 28  2  0  0  0  0
 32 31  1  0  0  0  0
M  END
>  <MODEL>
6

>  <REMARK>
 VINA RESULT:      -7.1      2.524      8.457
  Name = 
  4 active torsions:
  status: ('A' for Active; 'I' for Inactive)
    1  A    between atoms: C_7  and  O_19
    2  A    between atoms: C_10  and  C_17
    3  A    between atoms: C_20  and  C_29
    4  A    between atoms: C_29  and  C_30
                            x       y       z     vdW  Elec       q    Type
                         _______ _______ _______ _____ _____    ______ ____

>  <TORSDO>
F 4

$$$$
=
 OpenBabel11112416423D

 32 37  0  0  1  0  0  0  0  0999 V2000
  189.2880  175.6960  143.9500 C   0  0  1  0  0  3  0  0  0  0  0  0
  190.6290  175.8540  148.0090 O   0  0  0  0  0  0  0  0  0  0  0  0
  191.8810  175.3880  147.5710 C   0  0  0  0  0  2  0  0  0  0  0  0
  190.7910  174.2940  142.3900 C   0  0  2  0  0  3  0  0  0  0  0  0
  192.2630  174.1050  142.0560 C   0  0  2  0  0  3  0  0  0  0  0  0
  187.4580  177.0410  142.7660 C   0  0  2  0  0  3  0  0  0  0  0  0
  187.9960  177.1560  145.1620 O   0  0  0  0  0  0  0  0  0  0  0  0
  194.3520  173.5350  142.8540 C   0  0  1  0  0  3  0  0  0  0  0  0
  189.7640  175.8020  146.9000 C   0  0  0  0  0  2  0  0  0  0  0  0
  189.2660  176.9490  144.7210 N   0  0  1  0  0  0  0  0  0  0  0  0
  190.1740  176.8740  145.8740 C   0  0  2  0  0  3  0  0  0  0  0  0
  191.7180  175.4490  144.4490 C   0  0  2  0  0  3  0  0  0  0  0  0
  193.9290  172.7020  141.6420 C   0  0  0  0  0  2  0  0  0  0  0  0
  187.3240  177.8020  144.1020 C   0  0  2  0  0  3  0  0  0  0  0  0
  192.5610  172.9340  141.3560 O   0  0  0  0  0  0  0  0  0  0  0  0
  192.5260  176.4130  146.6310 C   0  0  0  0  0  2  0  0  0  0  0  0
  191.6290  176.6430  145.4110 C   0  0  2  0  0  3  0  0  0  0  0  0
  193.0300  175.2940  143.9490 O   0  0  0  0  0  0  0  0  0  0  0  0
  188.1250  175.6700  142.9410 C   0  0  0  0  0  2  0  0  0  0  0  0
  190.0830  174.4960  141.2040 O   0  0  0  0  0  1  0  0  0  0  0  0
  195.1520  174.5980  142.4240 O   0  0  0  0  0  1  0  0  0  0  0  0
  190.6700  175.5390  143.3030 C   0  0  2  0  0  3  0  0  0  0  0  0
  193.0260  174.0310  143.3390 C   0  0  1  0  0  3  0  0  0  0  0  0
  185.5830  179.3880  144.8880 C   0  0  0  0  0  2  0  0  0  0  0  0
  185.8570  177.9630  144.4510 C   0  0  1  0  0  3  0  0  0  0  0  0
  185.2240  178.9450  143.4850 C   0  0  1  0  0  3  0  0  0  0  0  0
  183.7360  178.6660  143.4050 C   0  0  0  0  0  2  0  0  0  0  0  0
  183.3670  178.2930  142.0130 C   0  0  0  0  0  0  0  0  0  0  0  0
  184.3580  177.9940  141.0870 O   0  0  0  0  0  0  0  0  0  0  0  0
  182.1580  178.2820  141.6630 O   0  0  0  0  0  1  0  0  0  0  0  0
  187.4830  177.8010  140.7590 O   0  0  0  0  0  1  0  0  0  0  0  0
  188.1970  177.8090  141.8650 O   0  0  0  0  0  0  0  0  0  0  0  0
  1 19  1  6  0  0  0
  1 10  1  0  0  0  0
  3  2  1  0  0  0  0
  4 20  1  6  0  0  0
  4 22  1  0  0  0  0
  5 15  1  1  0  0  0
  5  4  1  0  0  0  0
  5 23  1  0  0  0  0
  6 32  1  6  0  0  0
  6 19  1  0  0  0  0
  6 14  1  0  0  0  0
  8 21  1  6  0  0  0
  8 23  1  0  0  0  0
  9  2  1  0  0  0  0
 10  7  1  1  0  0  0
 10 11  1  0  0  0  0
 11  9  1  1  0  0  0
 12 18  1  6  0  0  0
 12 17  1  0  0  0  0
 13  8  1  0  0  0  0
 14 25  1  0  0  0  0
 14  7  1  1  0  0  0
 15 13  1  0  0  0  0
 16  3  1  0  0  0  0
 17 11  1  0  0  0  0
 17 16  1  1  0  0  0
 22  1  1  0  0  0  0
 22 12  1  0  0  0  0
 23 18  1  0  0  0  0
 25 24  1  0  0  0  0
 26 25  1  0  0  0  0
 26 24  1  0  0  0  0
 27 26  1  0  0  0  0
 28 27  1  0  0  0  0
 29 28  2  0  0  0  0
 30 28  1  0  0  0  0
 31 32  1  0  0  0  0
M  END
>  <MODEL>
7

>  <REMARK>
 VINA RESULT:      -7.1      2.129      8.545
  Name = 
  4 active torsions:
  status: ('A' for Active; 'I' for Inactive)
    1  A    between atoms: C_7  and  O_19
    2  A    between atoms: C_10  and  C_17
    3  A    between atoms: C_20  and  C_29
    4  A    between atoms: C_29  and  C_30
                            x       y       z     vdW  Elec       q    Type
                         _______ _______ _______ _____ _____    ______ ____

>  <TORSDO>
F 4

$$$$
=
 OpenBabel11112416423D

 32 37  0  0  1  0  0  0  0  0999 V2000
  189.2100  175.6700  143.5290 C   0  0  1  0  0  3  0  0  0  0  0  0
  192.4850  175.4390  146.2710 O   0  0  0  0  0  0  0  0  0  0  0  0
  191.6670  176.0530  147.2370 C   0  0  0  0  0  2  0  0  0  0  0  0
  187.3390  177.2970  144.2440 C   0  0  2  0  0  3  0  0  0  0  0  0
  186.5150  177.6530  145.4730 C   0  0  2  0  0  3  0  0  0  0  0  0
  188.6530  174.2090  141.5010 C   0  0  2  0  0  3  0  0  0  0  0  0
  190.6760  174.0250  142.8860 O   0  0  0  0  0  0  0  0  0  0  0  0
  186.5530  178.3910  147.6590 C   0  0  1  0  0  3  0  0  0  0  0  0
  191.7700  175.4600  145.0600 C   0  0  0  0  0  2  0  0  0  0  0  0
  189.8260  174.3830  143.8870 N   0  0  1  0  0  0  0  0  0  0  0  0
  190.5780  174.4900  145.1460 C   0  0  2  0  0  3  0  0  0  0  0  0
  188.8200  176.1380  145.9470 C   0  0  2  0  0  3  0  0  0  0  0  0
  185.6510  179.2390  146.7600 C   0  0  0  0  0  2  0  0  0  0  0  0
  189.8780  173.3700  141.9240 C   0  0  2  0  0  3  0  0  0  0  0  0
  185.8580  178.8830  145.4040 O   0  0  0  0  0  0  0  0  0  0  0  0
  190.4730  175.1490  147.5680 C   0  0  0  0  0  2  0  0  0  0  0  0
  189.6430  174.8920  146.3070 C   0  0  2  0  0  3  0  0  0  0  0  0
  187.8960  176.4520  146.9690 O   0  0  0  0  0  0  0  0  0  0  0  0
  188.6940  175.6300  142.0790 C   0  0  0  0  0  2  0  0  0  0  0  0
  186.4750  177.0860  143.1690 O   0  0  0  0  0  1  0  0  0  0  0  0
  185.7750  177.4390  148.3240 O   0  0  0  0  0  1  0  0  0  0  0  0
  188.1250  176.0010  144.5620 C   0  0  2  0  0  3  0  0  0  0  0  0
  187.4390  177.7380  146.6450 C   0  0  1  0  0  3  0  0  0  0  0  0
  191.9560  172.2750  141.1190 C   0  0  0  0  0  2  0  0  0  0  0  0
  190.7160  173.0420  140.7040 C   0  0  1  0  0  3  0  0  0  0  0  0
  190.7720  171.5370  140.5320 C   0  0  1  0  0  3  0  0  0  0  0  0
  191.0430  171.2170  139.0760 C   0  0  0  0  0  2  0  0  0  0  0  0
  190.4420  169.9020  138.7270 C   0  0  0  0  0  0  0  0  0  0  0  0
  189.7680  169.7410  137.5250 O   0  0  0  0  0  0  0  0  0  0  0  0
  190.5160  168.9410  139.5390 O   0  0  0  0  0  1  0  0  0  0  0  0
  187.8760  172.3640  142.2720 O   0  0  0  0  0  1  0  0  0  0  0  0
  187.4850  173.5680  141.9140 O   0  0  0  0  0  0  0  0  0  0  0  0
  1 19  1  6  0  0  0
  1 10  1  0  0  0  0
  1 22  1  0  0  0  0
  2  3  1  0  0  0  0
  3 16  1  0  0  0  0
  4 20  1  6  0  0  0
  4 22  1  0  0  0  0
  4  5  1  0  0  0  0
  5 15  1  6  0  0  0
  5 23  1  0  0  0  0
  6 32  1  1  0  0  0
  6 14  1  0  0  0  0
  6 19  1  0  0  0  0
  8 21  1  6  0  0  0
  9  2  1  0  0  0  0
 10  7  1  6  0  0  0
 10 11  1  0  0  0  0
 11  9  1  6  0  0  0
 11 17  1  0  0  0  0
 12 17  1  0  0  0  0
 12 18  1  1  0  0  0
 13  8  1  0  0  0  0
 14  7  1  1  0  0  0
 15 13  1  0  0  0  0
 17 16  1  1  0  0  0
 22 12  1  0  0  0  0
 23 18  1  0  0  0  0
 23  8  1  0  0  0  0
 25 24  1  0  0  0  0
 25 14  1  0  0  0  0
 26 25  1  0  0  0  0
 26 24  1  0  0  0  0
 27 26  1  0  0  0  0
 28 27  1  0  0  0  0
 28 30  1  0  0  0  0
 29 28  2  0  0  0  0
 32 31  1  0  0  0  0
M  END
>  <MODEL>
8

>  <REMARK>
 VINA RESULT:      -7.1      2.702      5.474
  Name = 
  4 active torsions:
  status: ('A' for Active; 'I' for Inactive)
    1  A    between atoms: C_7  and  O_19
    2  A    between atoms: C_10  and  C_17
    3  A    between atoms: C_20  and  C_29
    4  A    between atoms: C_29  and  C_30
                            x       y       z     vdW  Elec       q    Type
                         _______ _______ _______ _____ _____    ______ ____

>  <TORSDO>
F 4

$$$$
=
 OpenBabel11112416423D

 32 37  0  0  1  0  0  0  0  0999 V2000
  188.8950  176.4160  143.6320 C   0  0  1  0  0  3  0  0  0  0  0  0
  188.3130  174.3940  139.9070 O   0  0  0  0  0  0  0  0  0  0  0  0
  189.4420  173.6100  140.2030 C   0  0  0  0  0  2  0  0  0  0  0  0
  191.2270  176.0620  144.6780 C   0  0  2  0  0  3  0  0  0  0  0  0
  192.2090  174.9390  144.9750 C   0  0  2  0  0  3  0  0  0  0  0  0
  187.2050  177.6100  145.1400 C   0  0  2  0  0  3  0  0  0  0  0  0
  186.7160  176.6260  142.9400 O   0  0  0  0  0  0  0  0  0  0  0  0
  193.5000  173.2380  144.1000 C   0  0  1  0  0  3  0  0  0  0  0  0
  188.2310  175.3820  140.9050 C   0  0  0  0  0  2  0  0  0  0  0  0
  187.6420  175.7070  143.3270 N   0  0  1  0  0  0  0  0  0  0  0  0
  187.8380  174.7320  142.2450 C   0  0  2  0  0  3  0  0  0  0  0  0
  190.1720  174.3280  143.1560 C   0  0  2  0  0  3  0  0  0  0  0  0
  194.3080  174.2230  144.9470 C   0  0  0  0  0  2  0  0  0  0  0  0
  186.1430  177.1160  144.1330 C   0  0  2  0  0  3  0  0  0  0  0  0
  193.5130  175.3560  145.2510 O   0  0  0  0  0  0  0  0  0  0  0  0
  189.1810  172.7610  141.4530 C   0  0  0  0  0  2  0  0  0  0  0  0
  188.8810  173.6680  142.6500 C   0  0  2  0  0  3  0  0  0  0  0  0
  191.0930  173.3600  143.6170 O   0  0  0  0  0  0  0  0  0  0  0  0
  188.6150  177.6300  144.5350 C   0  0  0  0  0  2  0  0  0  0  0  0
  191.0360  176.8120  145.8390 O   0  0  0  0  0  1  0  0  0  0  0  0
  193.1450  172.1390  144.8870 O   0  0  0  0  0  1  0  0  0  0  0  0
  189.8920  175.4160  144.2320 C   0  0  2  0  0  3  0  0  0  0  0  0
  192.2970  174.0640  143.7680 C   0  0  1  0  0  3  0  0  0  0  0  0
  185.5830  178.9090  142.5090 C   0  0  0  0  0  2  0  0  0  0  0  0
  185.1830  178.2450  143.8120 C   0  0  1  0  0  3  0  0  0  0  0  0
  184.4420  177.9130  142.5310 C   0  0  1  0  0  3  0  0  0  0  0  0
  183.1200  178.6540  142.5210 C   0  0  0  0  0  2  0  0  0  0  0  0
  182.3500  178.2950  141.3000 C   0  0  0  0  0  0  0  0  0  0  0  0
  183.0170  177.9260  140.1400 O   0  0  0  0  0  0  0  0  0  0  0  0
  181.0920  178.3570  141.3080 O   0  0  0  0  0  1  0  0  0  0  0  0
  187.4190  177.6090  147.2750 O   0  0  0  0  0  1  0  0  0  0  0  0
  187.1910  176.7910  146.2690 O   0  0  0  0  0  0  0  0  0  0  0  0
  1 22  1  0  0  0  0
  1 19  1  1  0  0  0
  2  3  1  0  0  0  0
  2  9  1  0  0  0  0
  3 16  1  0  0  0  0
  4  5  1  0  0  0  0
  4 20  1  1  0  0  0
  5 15  1  6  0  0  0
  6 32  1  1  0  0  0
  8 21  1  1  0  0  0
  8 13  1  0  0  0  0
 10  7  1  6  0  0  0
 10  1  1  0  0  0  0
 11  9  1  6  0  0  0
 11 17  1  0  0  0  0
 11 10  1  0  0  0  0
 12 18  1  1  0  0  0
 12 22  1  0  0  0  0
 13 15  1  0  0  0  0
 14  7  1  6  0  0  0
 14  6  1  0  0  0  0
 17 16  1  6  0  0  0
 17 12  1  0  0  0  0
 18 23  1  0  0  0  0
 19  6  1  0  0  0  0
 22  4  1  0  0  0  0
 23  8  1  0  0  0  0
 23  5  1  0  0  0  0
 24 26  1  0  0  0  0
 24 25  1  0  0  0  0
 25 14  1  0  0  0  0
 26 25  1  0  0  0  0
 27 26  1  0  0  0  0
 28 30  1  0  0  0  0
 28 27  1  0  0  0  0
 29 28  2  0  0  0  0
 32 31  1  0  0  0  0
M  END
>  <MODEL>
9

>  <REMARK>
 VINA RESULT:      -7.0      2.180      8.057
  Name = 
  4 active torsions:
  status: ('A' for Active; 'I' for Inactive)
    1  A    between atoms: C_7  and  O_19
    2  A    between atoms: C_10  and  C_17
    3  A    between atoms: C_20  and  C_29
    4  A    between atoms: C_29  and  C_30
                            x       y       z     vdW  Elec       q    Type
                         _______ _______ _______ _____ _____    ______ ____

>  <TORSDO>
F 4

$$$$
