=
 OpenBabel11112416363D

 32 37  0  0  1  0  0  0  0  0999 V2000
  193.4290  176.2630  144.1090 C   0  0  0  0  0  2  0  0  0  0  0  0
  188.0550  177.2210  143.7200 C   0  0  2  0  0  3  0  0  0  0  0  0
  184.7560  176.9030  146.5270 C   0  0  0  0  0  2  0  0  0  0  0  0
  184.6330  178.2820  147.1780 C   0  0  0  0  0  2  0  0  0  0  0  0
  186.6320  177.7270  141.7040 C   0  0  0  0  0  0  0  0  0  0  0  0
  185.2560  177.9580  141.2590 C   0  0  0  0  0  0  0  0  0  0  0  0
  190.4110  176.3820  143.5400 C   0  0  2  0  0  3  0  0  0  0  0  0
  189.2980  176.6390  145.8070 C   0  0  0  0  0  2  0  0  0  0  0  0
  183.0780  178.3040  141.4280 N   0  0  0  0  0  0  0  0  0  0  0  0
  191.5120  175.5540  145.6570 C   0  0  0  0  0  2  0  0  0  0  0  0
  186.2010  176.5770  146.1180 C   0  0  0  0  0  2  0  0  0  0  0  0
  188.3370  177.6290  145.1630 C   0  0  2  0  0  3  0  0  0  0  0  0
  187.0750  177.8360  145.9710 C   0  0  1  0  0  3  0  0  0  0  0  0
  185.9930  178.8260  143.8550 C   0  0  2  0  0  3  0  0  0  0  0  0
  183.2170  177.9890  140.0660 N   0  0  0  0  0  0  0  0  0  0  0  0
  192.6590  175.6030  143.1450 O   0  0  0  0  0  0  0  0  0  0  0  0
  190.6280  176.6390  145.0500 C   0  0  1  0  0  3  0  0  0  0  0  0
  184.6640  177.7480  139.9050 C   0  0  0  0  0  3  0  0  0  0  0  0
  191.7070  176.5490  142.7490 C   0  0  0  0  0  2  0  0  0  0  0  0
  193.0100  175.8600  145.5260 C   0  0  1  0  0  3  0  0  0  0  0  0
  185.0850  179.3920  146.2160 C   0  0  0  0  0  2  0  0  0  0  0  0
  186.3090  179.0020  145.3630 C   0  0  1  0  0  3  0  0  0  0  0  0
  184.5370  178.3940  143.5730 C   0  0  0  0  0  2  0  0  0  0  0  0
  189.3750  177.3460  142.9610 C   0  0  0  0  0  2  0  0  0  0  0  0
  187.4820  177.2620  140.8990 O   0  0  0  0  0  0  0  0  0  0  0  0
  181.7920  178.5610  142.0530 C   0  0  0  0  0  1  0  0  0  0  0  0
  186.9680  177.9990  143.0870 N   0  0  0  0  0  0  0  0  0  0  0  0
  184.3160  178.2900  142.0960 C   0  0  0  0  0  0  0  0  0  0  0  0
  193.8280  174.6580  145.9710 C   0  0  0  0  0  2  0  0  0  0  0  0
  195.0780  174.5400  145.1660 C   0  0  0  0  0  0  0  0  0  0  0  0
  196.0540  175.2980  145.4040 O   0  0  0  0  0  1  0  0  0  0  0  0
  195.1790  173.5720  144.1760 O   0  0  0  0  0  0  0  0  0  0  0  0
  1 20  1  0  0  0  0
  2 24  1  6  0  0  0
  2 12  1  0  0  0  0
  3  4  1  0  0  0  0
  5 27  1  0  0  0  0
  6  5  1  0  0  0  0
  6 28  2  0  0  0  0
  7 19  1  6  0  0  0
  7 17  1  0  0  0  0
  9 26  1  0  0  0  0
  9 28  1  0  0  0  0
 11  3  1  0  0  0  0
 12  8  1  1  0  0  0
 12 13  1  0  0  0  0
 13 11  1  6  0  0  0
 14 23  1  1  0  0  0
 14 22  1  0  0  0  0
 15  9  1  0  0  0  0
 16  1  1  0  0  0  0
 17 10  1  1  0  0  0
 17  8  1  0  0  0  0
 18 15  2  0  0  0  0
 18  6  1  0  0  0  0
 19 16  1  0  0  0  0
 20 10  1  0  0  0  0
 20 29  1  6  0  0  0
 21  4  1  0  0  0  0
 22 13  1  0  0  0  0
 22 21  1  1  0  0  0
 24  7  1  0  0  0  0
 25  5  2  0  0  0  0
 27  2  1  0  0  0  0
 27 14  1  0  0  0  0
 28 23  1  0  0  0  0
 30 31  1  0  0  0  0
 30 29  1  0  0  0  0
 32 30  2  0  0  0  0
M  END
>  <MODEL>
1

>  <REMARK>
 VINA RESULT:      -9.5      0.000      0.000
  Name = 
  2 active torsions:
  status: ('A' for Active; 'I' for Inactive)
    1  A    between atoms: C_20  and  C_29
    2  A    between atoms: C_29  and  C_30
                            x       y       z     vdW  Elec       q    Type
                         _______ _______ _______ _____ _____    ______ ____

>  <TORSDO>
F 2

$$$$
=
 OpenBabel11112416363D

 32 37  0  0  1  0  0  0  0  0999 V2000
  195.4840  175.1120  145.3900 C   0  0  0  0  0  2  0  0  0  0  0  0
  190.3040  176.8010  144.8770 C   0  0  2  0  0  3  0  0  0  0  0  0
  187.9100  178.1000  141.4920 C   0  0  0  0  0  2  0  0  0  0  0  0
  187.2180  176.8400  140.9690 C   0  0  0  0  0  2  0  0  0  0  0  0
  188.5900  177.3610  146.6350 C   0  0  0  0  0  0  0  0  0  0  0  0
  187.2310  177.8650  146.8400 C   0  0  0  0  0  0  0  0  0  0  0  0
  192.7350  176.4870  145.4030 C   0  0  2  0  0  3  0  0  0  0  0  0
  191.9050  176.3790  143.0070 C   0  0  0  0  0  2  0  0  0  0  0  0
  185.1890  178.5310  146.3080 N   0  0  0  0  0  0  0  0  0  0  0  0
  194.3340  176.3390  143.4540 C   0  0  0  0  0  2  0  0  0  0  0  0
  189.2760  177.7940  142.1270 C   0  0  0  0  0  2  0  0  0  0  0  0
  190.5200  176.0660  143.5570 C   0  0  2  0  0  3  0  0  0  0  0  0
  189.4160  176.3230  142.5550 C   0  0  1  0  0  3  0  0  0  0  0  0
  187.7550  176.3210  144.5220 C   0  0  2  0  0  3  0  0  0  0  0  0
  185.3040  178.9780  147.6350 N   0  0  0  0  0  0  0  0  0  0  0  0
  195.0180  176.2080  146.1260 O   0  0  0  0  0  0  0  0  0  0  0  0
  192.9750  175.9010  143.9910 C   0  0  1  0  0  3  0  0  0  0  0  0
  186.6590  178.5550  148.0350 C   0  0  0  0  0  3  0  0  0  0  0  0
  193.6900  175.8860  146.4310 C   0  0  0  0  0  2  0  0  0  0  0  0
  195.4760  175.4100  143.8880 C   0  0  1  0  0  3  0  0  0  0  0  0
  186.9670  175.8330  142.1020 C   0  0  0  0  0  2  0  0  0  0  0  0
  188.1200  175.7610  143.1230 C   0  0  1  0  0  3  0  0  0  0  0  0
  186.6630  177.4130  144.4880 C   0  0  0  0  0  2  0  0  0  0  0  0
  191.3040  176.2200  145.8740 C   0  0  0  0  0  2  0  0  0  0  0  0
  189.4590  177.5170  147.5340 O   0  0  0  0  0  0  0  0  0  0  0  0
  184.0200  178.7850  145.4860 C   0  0  0  0  0  1  0  0  0  0  0  0
  188.9120  176.7290  145.3710 N   0  0  0  0  0  0  0  0  0  0  0  0
  186.3500  177.8610  145.8810 C   0  0  0  0  0  0  0  0  0  0  0  0
  196.8150  176.0070  143.4850 C   0  0  0  0  0  2  0  0  0  0  0  0
  197.1920  175.5820  142.1060 C   0  0  0  0  0  0  0  0  0  0  0  0
  197.8760  174.5400  141.9330 O   0  0  0  0  0  1  0  0  0  0  0  0
  196.7600  176.3170  141.0100 O   0  0  0  0  0  0  0  0  0  0  0  0
  1 16  1  0  0  0  0
  2 27  1  0  0  0  0
  2 24  1  1  0  0  0
  3 11  1  0  0  0  0
  4  3  1  0  0  0  0
  4 21  1  0  0  0  0
  5  6  1  0  0  0  0
  5 25  2  0  0  0  0
  6 18  1  0  0  0  0
  7 24  1  1  0  0  0
  7 19  1  0  0  0  0
  9 15  1  0  0  0  0
 10 20  1  0  0  0  0
 10 17  1  0  0  0  0
 12  8  1  6  0  0  0
 12  2  1  0  0  0  0
 13 11  1  1  0  0  0
 13 22  1  0  0  0  0
 13 12  1  0  0  0  0
 14 23  1  6  0  0  0
 14 27  1  0  0  0  0
 15 18  2  0  0  0  0
 16 19  1  0  0  0  0
 17  8  1  6  0  0  0
 17  7  1  0  0  0  0
 20 29  1  1  0  0  0
 20  1  1  0  0  0  0
 22 21  1  6  0  0  0
 22 14  1  0  0  0  0
 23 28  1  0  0  0  0
 26  9  1  0  0  0  0
 27  5  1  0  0  0  0
 28  9  1  0  0  0  0
 28  6  2  0  0  0  0
 30 29  1  0  0  0  0
 31 30  1  0  0  0  0
 32 30  2  0  0  0  0
M  END
>  <MODEL>
2

>  <REMARK>
 VINA RESULT:      -9.3      2.697      4.705
  Name = 
  2 active torsions:
  status: ('A' for Active; 'I' for Inactive)
    1  A    between atoms: C_20  and  C_29
    2  A    between atoms: C_29  and  C_30
                            x       y       z     vdW  Elec       q    Type
                         _______ _______ _______ _____ _____    ______ ____

>  <TORSDO>
F 2

$$$$
=
 OpenBabel11112416363D

 32 37  0  0  1  0  0  0  0  0999 V2000
  189.9670  172.8370  138.3200 C   0  0  0  0  0  2  0  0  0  0  0  0
  188.3480  175.4010  142.8760 C   0  0  2  0  0  3  0  0  0  0  0  0
  189.3240  174.9160  147.0810 C   0  0  0  0  0  2  0  0  0  0  0  0
  190.4970  175.8620  147.3440 C   0  0  0  0  0  2  0  0  0  0  0  0
  186.5230  177.1000  143.2290 C   0  0  0  0  0  0  0  0  0  0  0  0
  185.8260  177.8890  144.2460 C   0  0  0  0  0  0  0  0  0  0  0  0
  188.5680  174.0640  140.7660 C   0  0  2  0  0  3  0  0  0  0  0  0
  190.1320  173.6590  142.7230 C   0  0  0  0  0  2  0  0  0  0  0  0
  185.4090  178.7550  146.2390 N   0  0  0  0  0  0  0  0  0  0  0  0
  190.2040  172.1410  140.7760 C   0  0  0  0  0  2  0  0  0  0  0  0
  189.3160  174.3840  145.6390 C   0  0  0  0  0  2  0  0  0  0  0  0
  189.7980  175.0620  143.2130 C   0  0  2  0  0  3  0  0  0  0  0  0
  190.1240  175.2700  144.6750 C   0  0  1  0  0  3  0  0  0  0  0  0
  188.5770  177.3280  144.6320 C   0  0  2  0  0  3  0  0  0  0  0  0
  184.2110  179.0160  145.5530 N   0  0  0  0  0  0  0  0  0  0  0  0
  188.6100  172.9020  138.6540 O   0  0  0  0  0  0  0  0  0  0  0  0
  189.9730  173.5870  141.2030 C   0  0  1  0  0  3  0  0  0  0  0  0
  184.4430  178.4520  144.2090 C   0  0  0  0  0  3  0  0  0  0  0  0
  188.4540  174.1610  139.2460 C   0  0  0  0  0  2  0  0  0  0  0  0
  190.7530  172.0190  139.3490 C   0  0  1  0  0  3  0  0  0  0  0  0
  190.4410  177.0870  146.4180 C   0  0  0  0  0  2  0  0  0  0  0  0
  189.9730  176.7520  144.9880 C   0  0  1  0  0  3  0  0  0  0  0  0
  187.6490  177.5020  145.8550 C   0  0  0  0  0  2  0  0  0  0  0  0
  188.2470  175.4400  141.3520 C   0  0  0  0  0  2  0  0  0  0  0  0
  185.9300  176.7910  142.1610 O   0  0  0  0  0  0  0  0  0  0  0  0
  185.6080  179.0900  147.6380 C   0  0  0  0  0  1  0  0  0  0  0  0
  187.8740  176.6540  143.5030 N   0  0  0  0  0  0  0  0  0  0  0  0
  186.3470  178.0990  145.4210 C   0  0  0  0  0  0  0  0  0  0  0  0
  190.7750  170.5600  138.9220 C   0  0  0  0  0  2  0  0  0  0  0  0
  191.4870  170.3980  137.6210 C   0  0  0  0  0  0  0  0  0  0  0  0
  192.7060  170.6990  137.5290 O   0  0  0  0  0  1  0  0  0  0  0  0
  190.8160  169.8850  136.5200 O   0  0  0  0  0  0  0  0  0  0  0  0
  1 16  1  0  0  0  0
  1 20  1  0  0  0  0
  2 24  1  6  0  0  0
  2 12  1  0  0  0  0
  2 27  1  0  0  0  0
  3  4  1  0  0  0  0
  5 27  1  0  0  0  0
  5  6  1  0  0  0  0
  6 28  2  0  0  0  0
  7 19  1  6  0  0  0
  7 17  1  0  0  0  0
  7 24  1  0  0  0  0
  9 26  1  0  0  0  0
 11  3  1  0  0  0  0
 12  8  1  1  0  0  0
 12 13  1  0  0  0  0
 13 22  1  0  0  0  0
 13 11  1  1  0  0  0
 14 22  1  0  0  0  0
 14 23  1  1  0  0  0
 15  9  1  0  0  0  0
 16 19  1  0  0  0  0
 17 10  1  1  0  0  0
 17  8  1  0  0  0  0
 18  6  1  0  0  0  0
 18 15  2  0  0  0  0
 20 29  1  6  0  0  0
 20 10  1  0  0  0  0
 21  4  1  0  0  0  0
 22 21  1  1  0  0  0
 25  5  2  0  0  0  0
 27 14  1  0  0  0  0
 28 23  1  0  0  0  0
 28  9  1  0  0  0  0
 30 29  1  0  0  0  0
 31 30  1  0  0  0  0
 32 30  2  0  0  0  0
M  END
>  <MODEL>
3

>  <REMARK>
 VINA RESULT:      -9.0      3.976      5.571
  Name = 
  2 active torsions:
  status: ('A' for Active; 'I' for Inactive)
    1  A    between atoms: C_20  and  C_29
    2  A    between atoms: C_29  and  C_30
                            x       y       z     vdW  Elec       q    Type
                         _______ _______ _______ _____ _____    ______ ____

>  <TORSDO>
F 2

$$$$
=
 OpenBabel11112416363D

 32 37  0  0  1  0  0  0  0  0999 V2000
  185.8810  176.6460  143.3940 C   0  0  0  0  0  2  0  0  0  0  0  0
  191.1740  175.3430  142.9050 C   0  0  2  0  0  3  0  0  0  0  0  0
  194.7600  176.5820  145.0200 C   0  0  0  0  0  2  0  0  0  0  0  0
  194.9420  175.5690  146.1520 C   0  0  0  0  0  2  0  0  0  0  0  0
  192.3670  174.0090  141.1330 C   0  0  0  0  0  0  0  0  0  0  0  0
  193.6840  173.5520  140.6870 C   0  0  0  0  0  0  0  0  0  0  0  0
  188.8190  176.1600  142.6320 C   0  0  2  0  0  3  0  0  0  0  0  0
  190.1690  176.7660  144.6940 C   0  0  0  0  0  2  0  0  0  0  0  0
  195.8660  173.1920  140.7690 N   0  0  0  0  0  0  0  0  0  0  0  0
  187.9600  177.8130  144.3370 C   0  0  0  0  0  2  0  0  0  0  0  0
  193.2810  176.7910  144.6560 C   0  0  0  0  0  2  0  0  0  0  0  0
  191.0470  175.5550  144.4110 C   0  0  2  0  0  3  0  0  0  0  0  0
  192.3880  175.6230  145.1080 C   0  0  1  0  0  3  0  0  0  0  0  0
  193.2270  173.8210  143.4710 C   0  0  2  0  0  3  0  0  0  0  0  0
  195.5820  172.9480  139.4150 N   0  0  0  0  0  0  0  0  0  0  0  0
  186.5480  176.8300  142.1780 O   0  0  0  0  0  0  0  0  0  0  0  0
  188.7650  176.5330  144.1330 C   0  0  1  0  0  3  0  0  0  0  0  0
  194.1280  173.1780  139.3110 C   0  0  0  0  0  3  0  0  0  0  0  0
  187.4440  175.7580  142.1030 C   0  0  0  0  0  2  0  0  0  0  0  0
  186.4540  177.5560  144.4840 C   0  0  1  0  0  3  0  0  0  0  0  0
  194.3800  174.1930  145.7620 C   0  0  0  0  0  2  0  0  0  0  0  0
  193.0740  174.2730  144.9460 C   0  0  1  0  0  3  0  0  0  0  0  0
  194.6470  174.0330  142.9010 C   0  0  0  0  0  2  0  0  0  0  0  0
  189.7780  174.9930  142.3900 C   0  0  0  0  0  2  0  0  0  0  0  0
  191.4380  174.1580  140.2940 O   0  0  0  0  0  0  0  0  0  0  0  0
  197.2090  173.1390  141.3180 C   0  0  0  0  0  1  0  0  0  0  0  0
  192.1800  174.3240  142.5340 N   0  0  0  0  0  0  0  0  0  0  0  0
  194.7070  173.5320  141.4920 C   0  0  0  0  0  0  0  0  0  0  0  0
  185.6990  178.8750  144.4890 C   0  0  0  0  0  2  0  0  0  0  0  0
  184.9290  179.0410  145.7560 C   0  0  0  0  0  0  0  0  0  0  0  0
  183.6910  178.8160  145.7740 O   0  0  0  0  0  0  0  0  0  0  0  0
  185.5820  179.4130  146.9220 O   0  0  0  0  0  1  0  0  0  0  0  0
  1 20  1  0  0  0  0
  2 24  1  1  0  0  0
  2 12  1  0  0  0  0
  3  4  1  0  0  0  0
  5 27  1  0  0  0  0
  6  5  1  0  0  0  0
  6 28  2  0  0  0  0
  7 19  1  1  0  0  0
  7 17  1  0  0  0  0
  9 26  1  0  0  0  0
  9 28  1  0  0  0  0
 10 20  1  0  0  0  0
 11  3  1  0  0  0  0
 12  8  1  6  0  0  0
 12 13  1  0  0  0  0
 13 11  1  6  0  0  0
 14 23  1  6  0  0  0
 14 22  1  0  0  0  0
 15  9  1  0  0  0  0
 16  1  1  0  0  0  0
 17 10  1  6  0  0  0
 17  8  1  0  0  0  0
 18 15  2  0  0  0  0
 18  6  1  0  0  0  0
 19 16  1  0  0  0  0
 20 29  1  6  0  0  0
 21  4  1  0  0  0  0
 22 13  1  0  0  0  0
 22 21  1  6  0  0  0
 24  7  1  0  0  0  0
 25  5  2  0  0  0  0
 27  2  1  0  0  0  0
 27 14  1  0  0  0  0
 28 23  1  0  0  0  0
 29 30  1  0  0  0  0
 30 31  2  0  0  0  0
 30 32  1  0  0  0  0
M  END
>  <MODEL>
4

>  <REMARK>
 VINA RESULT:      -8.1      3.940      8.840
  Name = 
  2 active torsions:
  status: ('A' for Active; 'I' for Inactive)
    1  A    between atoms: C_20  and  C_29
    2  A    between atoms: C_29  and  C_30
                            x       y       z     vdW  Elec       q    Type
                         _______ _______ _______ _____ _____    ______ ____

>  <TORSDO>
F 2

$$$$
=
 OpenBabel11112416363D

 32 37  0  0  1  0  0  0  0  0999 V2000
  191.1760  171.6140  139.1790 C   0  0  0  0  0  2  0  0  0  0  0  0
  189.0190  174.7110  143.1430 C   0  0  2  0  0  3  0  0  0  0  0  0
  189.4590  174.7600  147.4640 C   0  0  0  0  0  2  0  0  0  0  0  0
  190.5960  175.7430  147.7520 C   0  0  0  0  0  2  0  0  0  0  0  0
  187.1760  176.4250  143.0510 C   0  0  0  0  0  0  0  0  0  0  0  0
  186.3620  177.3280  143.8670 C   0  0  0  0  0  0  0  0  0  0  0  0
  189.4910  173.1240  141.2590 C   0  0  2  0  0  3  0  0  0  0  0  0
  190.7950  172.9790  143.4320 C   0  0  0  0  0  2  0  0  0  0  0  0
  185.7050  178.4300  145.6690 N   0  0  0  0  0  0  0  0  0  0  0  0
  191.0990  171.2310  141.7130 C   0  0  0  0  0  2  0  0  0  0  0  0
  189.6270  174.0540  146.1100 C   0  0  0  0  0  2  0  0  0  0  0  0
  190.4120  174.4290  143.6970 C   0  0  2  0  0  3  0  0  0  0  0  0
  190.5550  174.8200  145.1510 C   0  0  1  0  0  3  0  0  0  0  0  0
  189.0400  176.8430  144.6600 C   0  0  2  0  0  3  0  0  0  0  0  0
  184.6050  178.5940  144.8110 N   0  0  0  0  0  0  0  0  0  0  0  0
  189.7880  171.7080  139.3300 O   0  0  0  0  0  0  0  0  0  0  0  0
  190.8270  172.7170  141.9250 C   0  0  1  0  0  3  0  0  0  0  0  0
  184.9990  177.8690  143.5870 C   0  0  0  0  0  3  0  0  0  0  0  0
  189.5680  173.0290  139.7370 C   0  0  0  0  0  2  0  0  0  0  0  0
  191.8220  170.9370  140.3920 C   0  0  1  0  0  3  0  0  0  0  0  0
  190.6640  176.8430  146.6810 C   0  0  0  0  0  2  0  0  0  0  0  0
  190.3760  176.3280  145.2560 C   0  0  1  0  0  3  0  0  0  0  0  0
  187.9670  177.1590  145.7260 C   0  0  0  0  0  2  0  0  0  0  0  0
  189.1090  174.5590  141.6250 C   0  0  0  0  0  2  0  0  0  0  0  0
  186.7190  175.9790  141.9640 O   0  0  0  0  0  0  0  0  0  0  0  0
  185.7300  178.9390  147.0290 C   0  0  0  0  0  1  0  0  0  0  0  0
  188.4790  176.0280  143.5440 N   0  0  0  0  0  0  0  0  0  0  0  0
  186.7340  177.6860  145.0620 C   0  0  0  0  0  0  0  0  0  0  0  0
  191.8870  169.4370  140.1560 C   0  0  0  0  0  2  0  0  0  0  0  0
  193.2260  169.0390  139.6320 C   0  0  0  0  0  0  0  0  0  0  0  0
  194.1960  168.9060  140.4220 O   0  0  0  0  0  1  0  0  0  0  0  0
  193.3950  168.7840  138.2780 O   0  0  0  0  0  0  0  0  0  0  0  0
  1 16  1  0  0  0  0
  1 20  1  0  0  0  0
  2 24  1  6  0  0  0
  2 27  1  0  0  0  0
  2 12  1  0  0  0  0
  3  4  1  0  0  0  0
  5 27  1  0  0  0  0
  5  6  1  0  0  0  0
  6 28  2  0  0  0  0
  7 19  1  6  0  0  0
  7 24  1  0  0  0  0
  7 17  1  0  0  0  0
  9 26  1  0  0  0  0
 11  3  1  0  0  0  0
 12  8  1  1  0  0  0
 12 13  1  0  0  0  0
 13 22  1  0  0  0  0
 13 11  1  1  0  0  0
 14 22  1  0  0  0  0
 14 23  1  1  0  0  0
 15  9  1  0  0  0  0
 16 19  1  0  0  0  0
 17 10  1  1  0  0  0
 17  8  1  0  0  0  0
 18  6  1  0  0  0  0
 18 15  2  0  0  0  0
 20 29  1  6  0  0  0
 20 10  1  0  0  0  0
 21  4  1  0  0  0  0
 22 21  1  1  0  0  0
 25  5  2  0  0  0  0
 27 14  1  0  0  0  0
 28  9  1  0  0  0  0
 28 23  1  0  0  0  0
 30 29  1  0  0  0  0
 30 31  1  0  0  0  0
 32 30  2  0  0  0  0
M  END
>  <MODEL>
5

>  <REMARK>
 VINA RESULT:      -8.1      3.984      5.308
  Name = 
  2 active torsions:
  status: ('A' for Active; 'I' for Inactive)
    1  A    between atoms: C_20  and  C_29
    2  A    between atoms: C_29  and  C_30
                            x       y       z     vdW  Elec       q    Type
                         _______ _______ _______ _____ _____    ______ ____

>  <TORSDO>
F 2

$$$$
=
 OpenBabel11112416363D

 32 37  0  0  1  0  0  0  0  0999 V2000
  185.0120  177.5700  144.4960 C   0  0  0  0  0  2  0  0  0  0  0  0
  189.1600  174.6990  142.3740 C   0  0  2  0  0  3  0  0  0  0  0  0
  193.1290  173.6780  143.8170 C   0  0  0  0  0  2  0  0  0  0  0  0
  192.9760  172.3310  144.5270 C   0  0  0  0  0  2  0  0  0  0  0  0
  189.4810  173.7680  140.0560 C   0  0  0  0  0  0  0  0  0  0  0  0
  190.4230  173.0580  139.1890 C   0  0  0  0  0  0  0  0  0  0  0  0
  187.3650  176.3580  142.9340 C   0  0  2  0  0  3  0  0  0  0  0  0
  189.0490  175.6320  144.6890 C   0  0  0  0  0  2  0  0  0  0  0  0
  192.2380  171.9230  138.6300 N   0  0  0  0  0  0  0  0  0  0  0  0
  187.4750  177.4650  145.2010 C   0  0  0  0  0  2  0  0  0  0  0  0
  191.8520  174.5300  143.9010 C   0  0  0  0  0  2  0  0  0  0  0  0
  189.2920  174.3770  143.8600 C   0  0  2  0  0  3  0  0  0  0  0  0
  190.5970  173.6910  144.1980 C   0  0  1  0  0  3  0  0  0  0  0  0
  190.4130  172.4400  141.9560 C   0  0  2  0  0  3  0  0  0  0  0  0
  191.7400  172.3120  137.3750 N   0  0  0  0  0  0  0  0  0  0  0  0
  185.5650  177.9280  143.2610 O   0  0  0  0  0  0  0  0  0  0  0  0
  187.6300  176.1500  144.4440 C   0  0  1  0  0  3  0  0  0  0  0  0
  190.5210  173.0780  137.7000 C   0  0  0  0  0  3  0  0  0  0  0  0
  185.9050  176.7100  142.6620 C   0  0  0  0  0  2  0  0  0  0  0  0
  186.0280  177.7410  145.6290 C   0  0  1  0  0  3  0  0  0  0  0  0
  191.8430  171.5000  143.9030 C   0  0  0  0  0  2  0  0  0  0  0  0
  190.6210  172.3440  143.4890 C   0  0  1  0  0  3  0  0  0  0  0  0
  191.7210  172.3100  141.1430 C   0  0  0  0  0  2  0  0  0  0  0  0
  187.7050  175.0980  142.1360 C   0  0  0  0  0  2  0  0  0  0  0  0
  188.6240  174.5410  139.5500 O   0  0  0  0  0  0  0  0  0  0  0  0
  193.4790  171.1870  138.7950 C   0  0  0  0  0  1  0  0  0  0  0  0
  189.5920  173.5940  141.4900 N   0  0  0  0  0  0  0  0  0  0  0  0
  191.4160  172.3730  139.6790 C   0  0  0  0  0  0  0  0  0  0  0  0
  185.9130  179.1460  146.2010 C   0  0  0  0  0  2  0  0  0  0  0  0
  186.0790  179.1310  147.6830 C   0  0  0  0  0  0  0  0  0  0  0  0
  186.3160  180.2010  148.3010 O   0  0  0  0  0  0  0  0  0  0  0  0
  185.9410  177.9420  148.3860 O   0  0  0  0  0  1  0  0  0  0  0  0
  1 20  1  0  0  0  0
  2 24  1  1  0  0  0
  2 12  1  0  0  0  0
  3 11  1  0  0  0  0
  3  4  1  0  0  0  0
  5 27  1  0  0  0  0
  6 28  2  0  0  0  0
  6  5  1  0  0  0  0
  7 24  1  6  0  0  0
  7 17  1  0  0  0  0
  9 26  1  0  0  0  0
  9 28  1  0  0  0  0
 10 20  1  0  0  0  0
 12 13  1  0  0  0  0
 12  8  1  1  0  0  0
 13 11  1  6  0  0  0
 14 23  1  6  0  0  0
 14 22  1  0  0  0  0
 15 18  2  0  0  0  0
 15  9  1  0  0  0  0
 16  1  1  0  0  0  0
 17  8  1  6  0  0  0
 17 10  1  0  0  0  0
 18  6  1  0  0  0  0
 19  7  1  0  0  0  0
 19 16  1  0  0  0  0
 20 29  1  6  0  0  0
 21  4  1  0  0  0  0
 22 21  1  6  0  0  0
 22 13  1  0  0  0  0
 25  5  2  0  0  0  0
 27 14  1  0  0  0  0
 27  2  1  0  0  0  0
 28 23  1  0  0  0  0
 29 30  1  0  0  0  0
 30 31  2  0  0  0  0
 30 32  1  0  0  0  0
M  END
>  <MODEL>
6

>  <REMARK>
 VINA RESULT:      -7.7      4.461      8.022
  Name = 
  2 active torsions:
  status: ('A' for Active; 'I' for Inactive)
    1  A    between atoms: C_20  and  C_29
    2  A    between atoms: C_29  and  C_30
                            x       y       z     vdW  Elec       q    Type
                         _______ _______ _______ _____ _____    ______ ____

>  <TORSDO>
F 2

$$$$
=
 OpenBabel11112416363D

 32 37  0  0  1  0  0  0  0  0999 V2000
  187.4680  178.2040  146.3940 C   0  0  0  0  0  2  0  0  0  0  0  0
  191.6690  175.2990  144.4300 C   0  0  2  0  0  3  0  0  0  0  0  0
  192.0400  172.3640  141.2490 C   0  0  0  0  0  2  0  0  0  0  0  0
  192.4150  173.1580  139.9960 C   0  0  0  0  0  2  0  0  0  0  0  0
  194.0140  175.0260  145.3090 C   0  0  0  0  0  0  0  0  0  0  0  0
  195.2820  174.3290  145.0890 C   0  0  0  0  0  0  0  0  0  0  0  0
  189.8260  176.3310  145.7810 C   0  0  2  0  0  3  0  0  0  0  0  0
  189.3640  175.3830  143.4720 C   0  0  0  0  0  2  0  0  0  0  0  0
  196.7750  173.0670  144.0530 N   0  0  0  0  0  0  0  0  0  0  0  0
  187.4760  176.1380  144.8760 C   0  0  0  0  0  2  0  0  0  0  0  0
  191.1750  173.1820  142.2210 C   0  0  0  0  0  2  0  0  0  0  0  0
  190.8470  175.5430  143.1670 C   0  0  2  0  0  3  0  0  0  0  0  0
  191.3040  174.6990  141.9990 C   0  0  1  0  0  3  0  0  0  0  0  0
  193.7200  175.0210  142.8280 C   0  0  2  0  0  3  0  0  0  0  0  0
  197.3210  173.1620  145.3450 N   0  0  0  0  0  0  0  0  0  0  0  0
  188.2080  177.3680  147.2370 O   0  0  0  0  0  0  0  0  0  0  0  0
  188.9340  176.4130  144.5190 C   0  0  1  0  0  3  0  0  0  0  0  0
  196.3520  174.0000  146.0770 C   0  0  0  0  0  3  0  0  0  0  0  0
  189.5200  177.4620  146.7600 C   0  0  0  0  0  2  0  0  0  0  0  0
  186.7230  177.3970  145.3260 C   0  0  1  0  0  3  0  0  0  0  0  0
  193.2190  174.4170  140.3570 C   0  0  0  0  0  2  0  0  0  0  0  0
  192.7250  175.1120  141.6420 C   0  0  1  0  0  3  0  0  0  0  0  0
  194.6230  173.7680  142.7840 C   0  0  0  0  0  2  0  0  0  0  0  0
  191.3090  176.4120  145.4130 C   0  0  0  0  0  2  0  0  0  0  0  0
  193.7000  175.4050  146.4680 O   0  0  0  0  0  0  0  0  0  0  0  0
  197.3780  172.2730  142.9970 C   0  0  0  0  0  1  0  0  0  0  0  0
  193.1250  175.2200  144.1810 N   0  0  0  0  0  0  0  0  0  0  0  0
  195.5730  173.7890  143.9410 C   0  0  0  0  0  0  0  0  0  0  0  0
  185.3460  177.0210  145.8480 C   0  0  0  0  0  2  0  0  0  0  0  0
  184.5920  178.2340  146.2780 C   0  0  0  0  0  0  0  0  0  0  0  0
  184.0670  178.9870  145.4170 O   0  0  0  0  0  0  0  0  0  0  0  0
  184.4410  178.5160  147.6290 O   0  0  0  0  0  1  0  0  0  0  0  0
  1 16  1  0  0  0  0
  2 24  1  1  0  0  0
  3 11  1  0  0  0  0
  4 21  1  0  0  0  0
  4  3  1  0  0  0  0
  5 25  2  0  0  0  0
  6  5  1  0  0  0  0
  6 18  1  0  0  0  0
  7 24  1  6  0  0  0
  7 19  1  0  0  0  0
  9 15  1  0  0  0  0
 10 20  1  0  0  0  0
 12  8  1  1  0  0  0
 12  2  1  0  0  0  0
 13 11  1  1  0  0  0
 13 12  1  0  0  0  0
 14 23  1  1  0  0  0
 14 27  1  0  0  0  0
 15 18  2  0  0  0  0
 17  8  1  6  0  0  0
 17 10  1  0  0  0  0
 17  7  1  0  0  0  0
 19 16  1  0  0  0  0
 20 29  1  1  0  0  0
 20  1  1  0  0  0  0
 22 21  1  6  0  0  0
 22 13  1  0  0  0  0
 22 14  1  0  0  0  0
 23 28  1  0  0  0  0
 26  9  1  0  0  0  0
 27  2  1  0  0  0  0
 27  5  1  0  0  0  0
 28  9  1  0  0  0  0
 28  6  2  0  0  0  0
 29 30  1  0  0  0  0
 30 32  1  0  0  0  0
 31 30  2  0  0  0  0
M  END
>  <MODEL>
7

>  <REMARK>
 VINA RESULT:      -7.6      4.181      9.489
  Name = 
  2 active torsions:
  status: ('A' for Active; 'I' for Inactive)
    1  A    between atoms: C_20  and  C_29
    2  A    between atoms: C_29  and  C_30
                            x       y       z     vdW  Elec       q    Type
                         _______ _______ _______ _____ _____    ______ ____

>  <TORSDO>
F 2

$$$$
=
 OpenBabel11112416363D

 32 37  0  0  1  0  0  0  0  0999 V2000
  188.5580  177.3360  146.5760 C   0  0  0  0  0  2  0  0  0  0  0  0
  189.9250  173.4820  142.9390 C   0  0  2  0  0  3  0  0  0  0  0  0
  188.3320  172.3360  139.0640 C   0  0  0  0  0  2  0  0  0  0  0  0
  189.1300  173.1410  138.0360 C   0  0  0  0  0  2  0  0  0  0  0  0
  191.5500  171.5670  143.1270 C   0  0  0  0  0  0  0  0  0  0  0  0
  192.0780  170.3940  142.4280 C   0  0  0  0  0  0  0  0  0  0  0  0
  189.1700  174.8190  144.9210 C   0  0  2  0  0  3  0  0  0  0  0  0
  188.2090  175.2670  142.6150 C   0  0  0  0  0  2  0  0  0  0  0  0
  192.4170  168.9850  140.7560 N   0  0  0  0  0  0  0  0  0  0  0  0
  187.2420  176.4140  144.5770 C   0  0  0  0  0  2  0  0  0  0  0  0
  188.1910  173.0770  140.4030 C   0  0  0  0  0  2  0  0  0  0  0  0
  189.4510  174.6100  142.0280 C   0  0  2  0  0  3  0  0  0  0  0  0
  189.2620  174.1660  140.5950 C   0  0  1  0  0  3  0  0  0  0  0  0
  191.3230  172.6510  140.8880 C   0  0  2  0  0  3  0  0  0  0  0  0
  192.8960  168.2520  141.8550 N   0  0  0  0  0  0  0  0  0  0  0  0
  188.5910  175.9880  146.9490 O   0  0  0  0  0  0  0  0  0  0  0  0
  188.5380  175.8730  143.9810 C   0  0  1  0  0  3  0  0  0  0  0  0
  192.6890  169.1580  143.0020 C   0  0  0  0  0  3  0  0  0  0  0  0
  189.6590  175.4490  146.2230 C   0  0  0  0  0  2  0  0  0  0  0  0
  187.4700  177.5960  145.5300 C   0  0  1  0  0  3  0  0  0  0  0  0
  190.5530  173.4280  138.5380 C   0  0  0  0  0  2  0  0  0  0  0  0
  190.6180  173.7450  140.0460 C   0  0  1  0  0  3  0  0  0  0  0  0
  191.2140  171.2350  140.2810 C   0  0  0  0  0  2  0  0  0  0  0  0
  190.3600  174.1290  144.2530 C   0  0  0  0  0  2  0  0  0  0  0  0
  191.5510  171.5970  144.3870 O   0  0  0  0  0  0  0  0  0  0  0  0
  192.3720  168.4480  139.4070 C   0  0  0  0  0  1  0  0  0  0  0  0
  190.9930  172.6500  142.3430 N   0  0  0  0  0  0  0  0  0  0  0  0
  191.9560  170.2580  141.1390 C   0  0  0  0  0  0  0  0  0  0  0  0
  186.1710  177.9560  146.2320 C   0  0  0  0  0  2  0  0  0  0  0  0
  185.3750  178.9180  145.4160 C   0  0  0  0  0  0  0  0  0  0  0  0
  185.9420  179.6160  144.5350 O   0  0  0  0  0  0  0  0  0  0  0  0
  184.0040  179.0200  145.6030 O   0  0  0  0  0  1  0  0  0  0  0  0
  1 16  1  0  0  0  0
  2 24  1  1  0  0  0
  3 11  1  0  0  0  0
  4 21  1  0  0  0  0
  4  3  1  0  0  0  0
  5 25  2  0  0  0  0
  6 18  1  0  0  0  0
  6  5  1  0  0  0  0
  7 24  1  6  0  0  0
  7 19  1  0  0  0  0
  9 28  1  0  0  0  0
  9 15  1  0  0  0  0
 10 20  1  0  0  0  0
 12  8  1  1  0  0  0
 12  2  1  0  0  0  0
 13 11  1  1  0  0  0
 13 12  1  0  0  0  0
 14 23  1  6  0  0  0
 14 27  1  0  0  0  0
 15 18  2  0  0  0  0
 17  8  1  6  0  0  0
 17 10  1  0  0  0  0
 17  7  1  0  0  0  0
 19 16  1  0  0  0  0
 20 29  1  1  0  0  0
 20  1  1  0  0  0  0
 22 21  1  6  0  0  0
 22 13  1  0  0  0  0
 22 14  1  0  0  0  0
 23 28  1  0  0  0  0
 26  9  1  0  0  0  0
 27  2  1  0  0  0  0
 27  5  1  0  0  0  0
 28  6  2  0  0  0  0
 30 32  1  0  0  0  0
 30 29  1  0  0  0  0
 31 30  2  0  0  0  0
M  END
>  <MODEL>
8

>  <REMARK>
 VINA RESULT:      -7.5      5.223      8.843
  Name = 
  2 active torsions:
  status: ('A' for Active; 'I' for Inactive)
    1  A    between atoms: C_20  and  C_29
    2  A    between atoms: C_29  and  C_30
                            x       y       z     vdW  Elec       q    Type
                         _______ _______ _______ _____ _____    ______ ____

>  <TORSDO>
F 2

$$$$
=
 OpenBabel11112416363D

 32 37  0  0  1  0  0  0  0  0999 V2000
  187.9300  176.9740  146.7060 C   0  0  0  0  0  2  0  0  0  0  0  0
  192.3370  174.7500  144.3440 C   0  0  2  0  0  3  0  0  0  0  0  0
  193.6770  174.4380  140.2230 C   0  0  0  0  0  2  0  0  0  0  0  0
  194.5590  175.6650  139.9820 C   0  0  0  0  0  2  0  0  0  0  0  0
  194.1420  173.2850  145.3140 C   0  0  0  0  0  0  0  0  0  0  0  0
  195.3440  172.5170  144.9820 C   0  0  0  0  0  0  0  0  0  0  0  0
  190.1990  175.2500  145.5550 C   0  0  2  0  0  3  0  0  0  0  0  0
  190.5850  176.1130  143.1990 C   0  0  0  0  0  2  0  0  0  0  0  0
  197.0210  171.7650  143.7510 N   0  0  0  0  0  0  0  0  0  0  0  0
  188.3660  176.3930  144.2480 C   0  0  0  0  0  2  0  0  0  0  0  0
  192.5690  174.7100  141.2540 C   0  0  0  0  0  2  0  0  0  0  0  0
  192.0800  175.9540  143.4420 C   0  0  2  0  0  3  0  0  0  0  0  0
  192.8840  175.9110  142.1620 C   0  0  1  0  0  3  0  0  0  0  0  0
  194.8180  174.8870  143.5200 C   0  0  2  0  0  3  0  0  0  0  0  0
  197.0380  170.8760  144.8390 N   0  0  0  0  0  0  0  0  0  0  0  0
  188.2290  175.6200  146.8950 O   0  0  0  0  0  0  0  0  0  0  0  0
  189.8650  176.3570  144.5270 C   0  0  1  0  0  3  0  0  0  0  0  0
  195.9280  171.3410  145.6930 C   0  0  0  0  0  3  0  0  0  0  0  0
  189.6270  175.5710  146.9340 C   0  0  0  0  0  2  0  0  0  0  0  0
  187.5930  177.2690  145.2420 C   0  0  1  0  0  3  0  0  0  0  0  0
  195.2550  176.1120  141.2780 C   0  0  0  0  0  2  0  0  0  0  0  0
  194.3600  175.9870  142.5270 C   0  0  1  0  0  3  0  0  0  0  0  0
  195.5740  173.7210  142.8470 C   0  0  0  0  0  2  0  0  0  0  0  0
  191.7120  175.0720  145.7000 C   0  0  0  0  0  2  0  0  0  0  0  0
  193.4380  172.9510  146.3030 O   0  0  0  0  0  0  0  0  0  0  0  0
  197.9210  171.6450  142.6180 C   0  0  0  0  0  1  0  0  0  0  0  0
  193.7680  174.3910  144.4560 N   0  0  0  0  0  0  0  0  0  0  0  0
  196.0100  172.7340  143.8850 C   0  0  0  0  0  0  0  0  0  0  0  0
  186.0960  177.1050  145.0270 C   0  0  0  0  0  2  0  0  0  0  0  0
  185.3690  178.3590  145.3820 C   0  0  0  0  0  0  0  0  0  0  0  0
  185.9400  179.4740  145.2600 O   0  0  0  0  0  0  0  0  0  0  0  0
  184.0520  178.2990  145.8150 O   0  0  0  0  0  1  0  0  0  0  0  0
  1 16  1  0  0  0  0
  2 27  1  0  0  0  0
  2 24  1  1  0  0  0
  3 11  1  0  0  0  0
  4  3  1  0  0  0  0
  4 21  1  0  0  0  0
  5 25  2  0  0  0  0
  6  5  1  0  0  0  0
  6 18  1  0  0  0  0
  7 24  1  1  0  0  0
  7 19  1  0  0  0  0
  9 28  1  0  0  0  0
  9 15  1  0  0  0  0
 10 17  1  0  0  0  0
 10 20  1  0  0  0  0
 12  8  1  6  0  0  0
 12  2  1  0  0  0  0
 13 11  1  1  0  0  0
 13 22  1  0  0  0  0
 13 12  1  0  0  0  0
 14 23  1  6  0  0  0
 14 27  1  0  0  0  0
 15 18  2  0  0  0  0
 16 19  1  0  0  0  0
 17  8  1  6  0  0  0
 17  7  1  0  0  0  0
 20 29  1  1  0  0  0
 20  1  1  0  0  0  0
 22 21  1  6  0  0  0
 22 14  1  0  0  0  0
 23 28  1  0  0  0  0
 26  9  1  0  0  0  0
 27  5  1  0  0  0  0
 28  6  2  0  0  0  0
 29 30  1  0  0  0  0
 30 32  1  0  0  0  0
 31 30  2  0  0  0  0
M  END
>  <MODEL>
9

>  <REMARK>
 VINA RESULT:      -7.3      4.288      9.821
  Name = 
  2 active torsions:
  status: ('A' for Active; 'I' for Inactive)
    1  A    between atoms: C_20  and  C_29
    2  A    between atoms: C_29  and  C_30
                            x       y       z     vdW  Elec       q    Type
                         _______ _______ _______ _____ _____    ______ ____

>  <TORSDO>
F 2

$$$$
