=
 OpenBabel11112417423D

 28 32  0  0  1  0  0  0  0  0999 V2000
  190.8310  175.3090  142.2990 N   0  0  2  0  0  0  0  0  0  0  0  0
  188.9590  178.2270  141.8950 O   0  0  0  0  0  0  0  0  0  0  0  0
  189.7230  178.1510  147.9300 O   0  0  0  0  0  0  0  0  0  0  0  0
  189.8170  172.5880  142.1890 C   0  0  0  0  0  2  0  0  0  0  0  0
  187.8300  177.5040  146.6950 N   0  0  0  0  0  0  0  0  0  0  0  0
  191.7000  176.3740  142.8340 C   0  0  0  0  0  2  0  0  0  0  0  0
  187.7680  176.4610  140.6550 O   0  0  0  0  0  0  0  0  0  0  0  0
  187.7670  177.3110  141.8940 S   0  0  0  0  0  0  0  0  0  0  0  0
  185.2190  177.4840  142.8380 C   0  0  2  0  0  3  0  0  0  0  0  0
  187.7340  176.2920  143.3420 C   0  0  2  0  0  3  0  0  0  0  0  0
  192.9500  175.4490  146.3920 C   0  0  0  0  0  1  0  0  0  0  0  0
  188.8110  175.7410  145.4220 C   0  0  2  0  0  3  0  0  0  0  0  0
  185.6210  177.2040  144.2350 N   0  0  0  0  0  2  0  0  0  0  0  0
  186.2570  178.2620  142.0060 C   0  0  0  0  0  2  0  0  0  0  0  0
  191.9210  175.6940  145.3070 C   0  0  1  0  0  3  0  0  0  0  0  0
  189.8740  174.8260  143.3120 C   0  0  2  0  0  3  0  0  0  0  0  0
  189.1900  177.4050  147.0640 C   0  0  0  0  0  0  0  0  0  0  0  0
  183.9020  178.2300  142.8320 C   0  0  0  0  0  1  0  0  0  0  0  0
  191.0760  176.8290  145.6690 N   0  0  0  0  0  2  0  0  0  0  0  0
  188.9690  173.7260  142.7410 C   0  0  0  0  0  2  0  0  0  0  0  0
  191.6710  174.2030  141.8290 C   0  0  0  0  0  2  0  0  0  0  0  0
  190.8130  173.1270  141.1720 C   0  0  0  0  0  2  0  0  0  0  0  0
  192.6360  175.9450  143.9800 C   0  0  0  0  0  2  0  0  0  0  0  0
  187.4870  176.4780  145.7290 C   0  0  2  0  0  3  0  0  0  0  0  0
  189.9010  176.3100  146.3710 C   0  0  2  0  0  3  0  0  0  0  0  0
  187.0750  177.1150  144.4140 C   0  0  1  0  0  3  0  0  0  0  0  0
  186.8610  178.3760  147.3380 C   0  0  0  0  0  1  0  0  0  0  0  0
  189.0860  175.9880  143.9400 C   0  0  1  0  0  3  0  0  0  0  0  0
  1 21  1  1  0  0  0
  1  6  1  0  0  0  0
  1 16  1  0  0  0  0
  4 20  1  0  0  0  0
  5 17  1  0  0  0  0
  5 27  1  0  0  0  0
  6 23  1  0  0  0  0
  7  8  2  0  0  0  0
  8  2  2  0  0  0  0
  8 14  1  0  0  0  0
  9 18  1  1  0  0  0
  9 13  1  0  0  0  0
 10  8  1  6  0  0  0
 10 28  1  0  0  0  0
 10 26  1  0  0  0  0
 12 24  1  0  0  0  0
 12 25  1  0  0  0  0
 13 26  1  0  0  0  0
 14  9  1  0  0  0  0
 15 19  1  0  0  0  0
 15 11  1  0  0  0  0
 16 28  1  0  0  0  0
 17  3  2  0  0  0  0
 19 25  1  0  0  0  0
 20 16  1  0  0  0  0
 22 21  1  0  0  0  0
 22  4  1  0  0  0  0
 23 15  1  0  0  0  0
 24  5  1  0  0  0  0
 25 17  1  0  0  0  0
 26 24  1  0  0  0  0
 28 12  1  0  0  0  0
M  END
>  <MODEL>
1

>  <REMARK>
 VINA RESULT:      -8.5      0.000      0.000
  Name = 
  0 active torsions:
  status: ('A' for Active; 'I' for Inactive)
                            x       y       z     vdW  Elec       q    Type
                         _______ _______ _______ _____ _____    ______ ____

>  <TORSDO>
F 0

$$$$
=
 OpenBabel11112417423D

 28 32  0  0  1  0  0  0  0  0999 V2000
  192.5800  174.2060  145.2920 N   0  0  2  0  0  0  0  0  0  0  0  0
  189.3330  173.9050  146.5390 O   0  0  0  0  0  0  0  0  0  0  0  0
  188.2540  174.4500  140.5770 O   0  0  0  0  0  0  0  0  0  0  0  0
  194.2530  176.5790  145.4120 C   0  0  0  0  0  2  0  0  0  0  0  0
  188.0770  176.0980  142.2430 N   0  0  0  0  0  0  0  0  0  0  0  0
  192.0520  172.9940  144.6380 C   0  0  0  0  0  2  0  0  0  0  0  0
  190.4340  175.6520  147.8840 O   0  0  0  0  0  0  0  0  0  0  0  0
  189.4320  175.3830  146.7980 S   0  0  0  0  0  0  0  0  0  0  0  0
  187.6850  177.4680  146.6780 C   0  0  2  0  0  3  0  0  0  0  0  0
  189.8620  176.2690  145.3270 C   0  0  2  0  0  3  0  0  0  0  0  0
  192.5510  173.1990  140.7920 C   0  0  0  0  0  1  0  0  0  0  0  0
  190.3480  176.1220  142.9750 C   0  0  2  0  0  3  0  0  0  0  0  0
  187.7670  177.5690  145.2030 N   0  0  0  0  0  2  0  0  0  0  0  0
  187.8300  176.0410  147.2410 C   0  0  0  0  0  2  0  0  0  0  0  0
  192.0810  173.6700  142.1540 C   0  0  1  0  0  3  0  0  0  0  0  0
  192.1950  175.4300  144.5650 C   0  0  2  0  0  3  0  0  0  0  0  0
  188.7900  175.1490  141.4780 C   0  0  0  0  0  0  0  0  0  0  0  0
  186.3810  178.0710  147.1540 C   0  0  0  0  0  1  0  0  0  0  0  0
  190.6230  173.7400  142.1810 N   0  0  0  0  0  2  0  0  0  0  0  0
  192.7410  176.6850  145.2600 C   0  0  0  0  0  2  0  0  0  0  0  0
  194.0400  174.1040  145.3720 C   0  0  0  0  0  2  0  0  0  0  0  0
  194.6150  175.2910  146.1380 C   0  0  0  0  0  2  0  0  0  0  0  0
  192.6040  172.7160  143.2260 C   0  0  0  0  0  2  0  0  0  0  0  0
  188.9670  176.7930  143.1540 C   0  0  2  0  0  3  0  0  0  0  0  0
  190.2300  175.1010  141.8100 C   0  0  2  0  0  3  0  0  0  0  0  0
  188.5710  176.5050  144.5920 C   0  0  1  0  0  3  0  0  0  0  0  0
  186.6910  176.4720  142.0130 C   0  0  0  0  0  1  0  0  0  0  0  0
  190.6780  175.4880  144.3250 C   0  0  1  0  0  3  0  0  0  0  0  0
  1  6  1  6  0  0  0
  1 21  1  0  0  0  0
  2  8  2  0  0  0  0
  3 17  2  0  0  0  0
  4 22  1  0  0  0  0
  5 24  1  0  0  0  0
  8 14  1  0  0  0  0
  8  7  2  0  0  0  0
  9 18  1  6  0  0  0
  9 14  1  0  0  0  0
 10  8  1  1  0  0  0
 11 15  1  0  0  0  0
 12 24  1  0  0  0  0
 12 28  1  0  0  0  0
 13  9  1  0  0  0  0
 15 19  1  0  0  0  0
 15 23  1  0  0  0  0
 16 20  1  0  0  0  0
 16  1  1  0  0  0  0
 17 25  1  0  0  0  0
 17  5  1  0  0  0  0
 20  4  1  0  0  0  0
 21 22  1  0  0  0  0
 23  6  1  0  0  0  0
 24 26  1  0  0  0  0
 25 19  1  0  0  0  0
 25 12  1  0  0  0  0
 26 13  1  0  0  0  0
 26 10  1  0  0  0  0
 27  5  1  0  0  0  0
 28 16  1  0  0  0  0
 28 10  1  0  0  0  0
M  END
>  <MODEL>
2

>  <REMARK>
 VINA RESULT:      -7.6      2.192      4.955
  Name = 
  0 active torsions:
  status: ('A' for Active; 'I' for Inactive)
                            x       y       z     vdW  Elec       q    Type
                         _______ _______ _______ _____ _____    ______ ____

>  <TORSDO>
F 0

$$$$
=
 OpenBabel11112417423D

 28 32  0  0  1  0  0  0  0  0999 V2000
  190.9710  174.1910  142.1500 N   0  0  2  0  0  0  0  0  0  0  0  0
  189.4670  177.2340  142.9680 O   0  0  0  0  0  0  0  0  0  0  0  0
  193.8160  176.8980  147.2070 O   0  0  0  0  0  0  0  0  0  0  0  0
  189.9190  171.5450  142.7290 C   0  0  0  0  0  2  0  0  0  0  0  0
  191.5270  176.4160  147.4310 N   0  0  0  0  0  0  0  0  0  0  0  0
  192.0560  175.1800  142.0130 C   0  0  0  0  0  2  0  0  0  0  0  0
  187.6420  175.5900  142.7620 O   0  0  0  0  0  0  0  0  0  0  0  0
  188.4730  176.3950  143.7210 S   0  0  0  0  0  0  0  0  0  0  0  0
  187.0880  176.6940  146.0460 C   0  0  2  0  0  3  0  0  0  0  0  0
  189.2770  175.3300  144.8850 C   0  0  2  0  0  3  0  0  0  0  0  0
  195.1810  174.0550  144.0250 C   0  0  0  0  0  1  0  0  0  0  0  0
  191.3720  174.6390  145.8450 C   0  0  2  0  0  3  0  0  0  0  0  0
  188.2520  176.3410  146.8900 N   0  0  0  0  0  2  0  0  0  0  0  0
  187.4330  177.4330  144.7390 C   0  0  0  0  0  2  0  0  0  0  0  0
  193.7200  174.4020  143.8170 C   0  0  1  0  0  3  0  0  0  0  0  0
  190.8210  173.7340  143.5440 C   0  0  2  0  0  3  0  0  0  0  0  0
  192.8090  176.2190  146.8730 C   0  0  0  0  0  0  0  0  0  0  0  0
  186.1110  177.5210  146.8540 C   0  0  0  0  0  1  0  0  0  0  0  0
  193.3680  175.5740  144.6130 N   0  0  0  0  0  2  0  0  0  0  0  0
  189.6830  172.7140  143.6760 C   0  0  0  0  0  2  0  0  0  0  0  0
  191.2530  173.0510  141.2720 C   0  0  0  0  0  2  0  0  0  0  0  0
  190.1000  172.0560  141.3060 C   0  0  0  0  0  2  0  0  0  0  0  0
  193.4690  174.6530  142.3300 C   0  0  0  0  0  2  0  0  0  0  0  0
  190.5850  175.4470  146.9020 C   0  0  2  0  0  3  0  0  0  0  0  0
  192.8530  175.1060  145.9000 C   0  0  2  0  0  3  0  0  0  0  0  0
  189.4900  176.1550  146.1240 C   0  0  1  0  0  3  0  0  0  0  0  0
  191.2340  177.3230  148.5280 C   0  0  0  0  0  1  0  0  0  0  0  0
  190.6810  174.9200  144.5130 C   0  0  1  0  0  3  0  0  0  0  0  0
  1 21  1  6  0  0  0
  1 16  1  0  0  0  0
  2  8  2  0  0  0  0
  4 20  1  0  0  0  0
  5 27  1  0  0  0  0
  6  1  1  0  0  0  0
  6 23  1  0  0  0  0
  7  8  2  0  0  0  0
  8 14  1  0  0  0  0
  9 18  1  1  0  0  0
  9 13  1  0  0  0  0
 10  8  1  6  0  0  0
 10 26  1  0  0  0  0
 12 25  1  0  0  0  0
 12 24  1  0  0  0  0
 14  9  1  0  0  0  0
 15 11  1  0  0  0  0
 15 19  1  0  0  0  0
 16 20  1  0  0  0  0
 16 28  1  0  0  0  0
 17  3  2  0  0  0  0
 17  5  1  0  0  0  0
 19 25  1  0  0  0  0
 21 22  1  0  0  0  0
 22  4  1  0  0  0  0
 23 15  1  0  0  0  0
 24  5  1  0  0  0  0
 25 17  1  0  0  0  0
 26 13  1  0  0  0  0
 26 24  1  0  0  0  0
 28 10  1  0  0  0  0
 28 12  1  0  0  0  0
M  END
>  <MODEL>
3

>  <REMARK>
 VINA RESULT:      -7.4      2.001      2.917
  Name = 
  0 active torsions:
  status: ('A' for Active; 'I' for Inactive)
                            x       y       z     vdW  Elec       q    Type
                         _______ _______ _______ _____ _____    ______ ____

>  <TORSDO>
F 0

$$$$
=
 OpenBabel11112417423D

 28 32  0  0  1  0  0  0  0  0999 V2000
  186.7900  178.5140  144.7320 N   0  0  2  0  0  0  0  0  0  0  0  0
  190.2490  178.2910  144.3160 O   0  0  0  0  0  0  0  0  0  0  0  0
  188.2840  175.0670  139.5460 O   0  0  0  0  0  0  0  0  0  0  0  0
  185.1910  177.0300  146.6520 C   0  0  0  0  0  2  0  0  0  0  0  0
  189.1040  174.2720  141.6010 N   0  0  0  0  0  0  0  0  0  0  0  0
  187.0370  179.1300  143.4150 C   0  0  0  0  0  2  0  0  0  0  0  0
  189.7890  177.6700  146.6560 O   0  0  0  0  0  0  0  0  0  0  0  0
  190.1660  177.1540  145.2970 S   0  0  0  0  0  0  0  0  0  0  0  0
  191.4620  174.7770  145.5860 C   0  0  2  0  0  3  0  0  0  0  0  0
  189.0110  175.9230  144.7620 C   0  0  2  0  0  3  0  0  0  0  0  0
  184.7380  177.5420  140.7190 C   0  0  0  0  0  1  0  0  0  0  0  0
  187.4690  175.2420  143.0440 C   0  0  2  0  0  3  0  0  0  0  0  0
  190.6740  174.1150  144.5220 N   0  0  0  0  0  2  0  0  0  0  0  0
  191.7230  176.2790  145.3620 C   0  0  0  0  0  2  0  0  0  0  0  0
  185.7630  177.5460  141.8340 C   0  0  1  0  0  3  0  0  0  0  0  0
  186.6760  177.0470  144.6350 C   0  0  2  0  0  3  0  0  0  0  0  0
  188.1910  174.9950  140.8010 C   0  0  0  0  0  0  0  0  0  0  0  0
  192.7800  174.0540  145.7630 C   0  0  0  0  0  1  0  0  0  0  0  0
  187.0440  177.0530  141.3370 N   0  0  0  0  0  2  0  0  0  0  0  0
  186.4300  176.4160  146.0120 C   0  0  0  0  0  2  0  0  0  0  0  0
  185.5620  179.0800  145.2980 C   0  0  0  0  0  2  0  0  0  0  0  0
  185.3300  178.5450  146.7060 C   0  0  0  0  0  2  0  0  0  0  0  0
  185.9000  178.9650  142.3880 C   0  0  0  0  0  2  0  0  0  0  0  0
  188.7070  174.3160  142.9950 C   0  0  2  0  0  3  0  0  0  0  0  0
  187.0970  175.6100  141.5820 C   0  0  2  0  0  3  0  0  0  0  0  0
  189.7660  175.0280  143.8180 C   0  0  1  0  0  3  0  0  0  0  0  0
  190.1720  173.4340  141.0830 C   0  0  0  0  0  1  0  0  0  0  0  0
  187.8820  176.4370  143.9010 C   0  0  1  0  0  3  0  0  0  0  0  0
  1  6  1  6  0  0  0
  1 21  1  0  0  0  0
  2  8  2  0  0  0  0
  3 17  2  0  0  0  0
  4 22  1  0  0  0  0
  5 24  1  0  0  0  0
  8 14  1  0  0  0  0
  8  7  2  0  0  0  0
  9 18  1  6  0  0  0
 10  8  1  6  0  0  0
 11 15  1  0  0  0  0
 12 28  1  0  0  0  0
 13  9  1  0  0  0  0
 14  9  1  0  0  0  0
 15 23  1  0  0  0  0
 16  1  1  0  0  0  0
 16 20  1  0  0  0  0
 17 25  1  0  0  0  0
 17  5  1  0  0  0  0
 19 25  1  0  0  0  0
 19 15  1  0  0  0  0
 20  4  1  0  0  0  0
 21 22  1  0  0  0  0
 23  6  1  0  0  0  0
 24 12  1  0  0  0  0
 24 26  1  0  0  0  0
 25 12  1  0  0  0  0
 26 13  1  0  0  0  0
 26 10  1  0  0  0  0
 27  5  1  0  0  0  0
 28 16  1  0  0  0  0
 28 10  1  0  0  0  0
M  END
>  <MODEL>
4

>  <REMARK>
 VINA RESULT:      -7.3      1.863      6.527
  Name = 
  0 active torsions:
  status: ('A' for Active; 'I' for Inactive)
                            x       y       z     vdW  Elec       q    Type
                         _______ _______ _______ _____ _____    ______ ____

>  <TORSDO>
F 0

$$$$
=
 OpenBabel11112417423D

 28 32  0  0  1  0  0  0  0  0999 V2000
  189.9340  176.7970  145.0620 N   0  0  2  0  0  0  0  0  0  0  0  0
  192.5630  176.7910  142.7650 O   0  0  0  0  0  0  0  0  0  0  0  0
  187.9750  174.7960  139.3030 O   0  0  0  0  0  0  0  0  0  0  0  0
  189.4770  174.8330  147.1550 C   0  0  0  0  0  2  0  0  0  0  0  0
  189.6820  173.5400  140.3200 N   0  0  0  0  0  0  0  0  0  0  0  0
  189.4950  177.7290  144.0070 C   0  0  0  0  0  2  0  0  0  0  0  0
  193.3790  175.5930  144.7580 O   0  0  0  0  0  0  0  0  0  0  0  0
  192.8970  175.4440  143.3430 S   0  0  0  0  0  0  0  0  0  0  0  0
  193.8650  173.1110  142.3260 C   0  0  2  0  0  3  0  0  0  0  0  0
  191.5060  174.3500  143.2770 C   0  0  2  0  0  3  0  0  0  0  0  0
  185.9390  176.7910  142.7600 C   0  0  0  0  0  1  0  0  0  0  0  0
  189.2140  174.0700  142.6000 C   0  0  2  0  0  3  0  0  0  0  0  0
  192.5570  172.7100  141.7600 N   0  0  0  0  0  2  0  0  0  0  0  0
  194.1300  174.6290  142.3380 C   0  0  0  0  0  2  0  0  0  0  0  0
  187.3980  176.5490  143.0890 C   0  0  1  0  0  3  0  0  0  0  0  0
  189.6210  175.3970  144.7190 C   0  0  2  0  0  3  0  0  0  0  0  0
  188.5710  174.4110  140.3450 C   0  0  0  0  0  0  0  0  0  0  0  0
  194.9760  172.4070  141.5770 C   0  0  0  0  0  1  0  0  0  0  0  0
  188.1390  176.2340  141.8700 N   0  0  0  0  0  2  0  0  0  0  0  0
  190.0920  174.4360  145.8190 C   0  0  0  0  0  2  0  0  0  0  0  0
  189.2820  177.1660  146.3220 C   0  0  0  0  0  2  0  0  0  0  0  0
  189.7930  176.2900  147.4610 C   0  0  0  0  0  2  0  0  0  0  0  0
  187.9730  177.7890  143.7740 C   0  0  0  0  0  2  0  0  0  0  0  0
  190.1130  173.2230  141.6690 C   0  0  2  0  0  3  0  0  0  0  0  0
  188.1530  174.7790  141.7150 C   0  0  2  0  0  3  0  0  0  0  0  0
  191.5220  173.7410  141.9020 C   0  0  1  0  0  3  0  0  0  0  0  0
  190.1960  172.8910  139.1260 C   0  0  0  0  0  1  0  0  0  0  0  0
  190.1570  175.0260  143.3260 C   0  0  1  0  0  3  0  0  0  0  0  0
  1  6  1  6  0  0  0
  1 21  1  0  0  0  0
  2  8  2  0  0  0  0
  3 17  2  0  0  0  0
  4 22  1  0  0  0  0
  5 17  1  0  0  0  0
  5 24  1  0  0  0  0
  8  7  2  0  0  0  0
  9 18  1  6  0  0  0
  9 14  1  0  0  0  0
 10 28  1  0  0  0  0
 10  8  1  6  0  0  0
 11 15  1  0  0  0  0
 12 28  1  0  0  0  0
 13 26  1  0  0  0  0
 13  9  1  0  0  0  0
 14  8  1  0  0  0  0
 15 23  1  0  0  0  0
 16  1  1  0  0  0  0
 16 20  1  0  0  0  0
 17 25  1  0  0  0  0
 19 15  1  0  0  0  0
 20  4  1  0  0  0  0
 21 22  1  0  0  0  0
 23  6  1  0  0  0  0
 24 26  1  0  0  0  0
 24 12  1  0  0  0  0
 25 19  1  0  0  0  0
 25 12  1  0  0  0  0
 26 10  1  0  0  0  0
 27  5  1  0  0  0  0
 28 16  1  0  0  0  0
M  END
>  <MODEL>
5

>  <REMARK>
 VINA RESULT:      -7.3      2.468      6.619
  Name = 
  0 active torsions:
  status: ('A' for Active; 'I' for Inactive)
                            x       y       z     vdW  Elec       q    Type
                         _______ _______ _______ _____ _____    ______ ____

>  <TORSDO>
F 0

$$$$
=
 OpenBabel11112417423D

 28 32  0  0  1  0  0  0  0  0999 V2000
  186.4590  176.6380  143.6400 N   0  0  2  0  0  0  0  0  0  0  0  0
  188.5160  173.8350  143.3250 O   0  0  0  0  0  0  0  0  0  0  0  0
  190.9430  176.5280  148.2100 O   0  0  0  0  0  0  0  0  0  0  0  0
  186.5680  179.0410  142.0100 C   0  0  0  0  0  2  0  0  0  0  0  0
  191.7150  176.5740  145.9900 N   0  0  0  0  0  0  0  0  0  0  0  0
  186.2780  175.9110  144.9110 C   0  0  0  0  0  2  0  0  0  0  0  0
  188.4290  174.8870  141.0980 O   0  0  0  0  0  0  0  0  0  0  0  0
  189.2710  174.6600  142.3210 S   0  0  0  0  0  0  0  0  0  0  0  0
  191.8950  174.9160  141.6400 C   0  0  2  0  0  3  0  0  0  0  0  0
  189.7850  176.2070  143.0120 C   0  0  2  0  0  3  0  0  0  0  0  0
  186.8340  178.2910  147.9290 C   0  0  0  0  0  1  0  0  0  0  0  0
  189.8220  177.6080  144.9680 C   0  0  2  0  0  3  0  0  0  0  0  0
  192.2070  175.7760  142.8050 N   0  0  0  0  0  2  0  0  0  0  0  0
  190.8070  173.8540  141.8890 C   0  0  0  0  0  2  0  0  0  0  0  0
  187.1900  177.5990  146.6280 C   0  0  1  0  0  3  0  0  0  0  0  0
  187.6450  177.5140  143.6770 C   0  0  2  0  0  3  0  0  0  0  0  0
  190.7580  176.8230  146.9990 C   0  0  0  0  0  0  0  0  0  0  0  0
  193.1620  174.2420  141.1570 C   0  0  0  0  0  1  0  0  0  0  0  0
  188.3500  176.7350  146.8250 N   0  0  0  0  0  2  0  0  0  0  0  0
  187.8290  178.2560  142.3470 C   0  0  0  0  0  2  0  0  0  0  0  0
  185.2550  177.4300  143.3710 C   0  0  0  0  0  2  0  0  0  0  0  0
  185.3610  178.1130  142.0120 C   0  0  0  0  0  2  0  0  0  0  0  0
  185.9850  176.7960  146.1380 C   0  0  0  0  0  2  0  0  0  0  0  0
  191.2520  177.0780  144.7110 C   0  0  2  0  0  3  0  0  0  0  0  0
  189.5490  177.5070  146.4940 C   0  0  2  0  0  3  0  0  0  0  0  0
  191.0780  175.9330  143.7300 C   0  0  1  0  0  3  0  0  0  0  0  0
  193.0560  176.0690  146.2300 C   0  0  0  0  0  1  0  0  0  0  0  0
  188.9010  176.7410  144.1130 C   0  0  1  0  0  3  0  0  0  0  0  0
  1 21  1  1  0  0  0
  1 16  1  0  0  0  0
  1  6  1  0  0  0  0
  4 22  1  0  0  0  0
  4 20  1  0  0  0  0
  5 27  1  0  0  0  0
  5 17  1  0  0  0  0
  6 23  1  0  0  0  0
  7  8  2  0  0  0  0
  8  2  2  0  0  0  0
  9 18  1  1  0  0  0
  9 14  1  0  0  0  0
  9 13  1  0  0  0  0
 10  8  1  1  0  0  0
 10 26  1  0  0  0  0
 10 28  1  0  0  0  0
 12 25  1  0  0  0  0
 13 26  1  0  0  0  0
 14  8  1  0  0  0  0
 15 19  1  0  0  0  0
 15 11  1  0  0  0  0
 16 28  1  0  0  0  0
 17  3  2  0  0  0  0
 20 16  1  0  0  0  0
 22 21  1  0  0  0  0
 23 15  1  0  0  0  0
 24 12  1  0  0  0  0
 24  5  1  0  0  0  0
 25 19  1  0  0  0  0
 25 17  1  0  0  0  0
 26 24  1  0  0  0  0
 28 12  1  0  0  0  0
M  END
>  <MODEL>
6

>  <REMARK>
 VINA RESULT:      -7.2      1.526      5.272
  Name = 
  0 active torsions:
  status: ('A' for Active; 'I' for Inactive)
                            x       y       z     vdW  Elec       q    Type
                         _______ _______ _______ _____ _____    ______ ____

>  <TORSDO>
F 0

$$$$
=
 OpenBabel11112417423D

 28 32  0  0  1  0  0  0  0  0999 V2000
  190.8150  176.0300  145.0800 N   0  0  2  0  0  0  0  0  0  0  0  0
  192.8760  174.4310  142.7600 O   0  0  0  0  0  0  0  0  0  0  0  0
  187.8400  175.2900  139.4580 O   0  0  0  0  0  0  0  0  0  0  0  0
  189.4010  174.7650  147.2800 C   0  0  0  0  0  2  0  0  0  0  0  0
  188.5610  173.3240  140.5250 N   0  0  0  0  0  0  0  0  0  0  0  0
  190.9460  177.0040  143.9800 C   0  0  0  0  0  2  0  0  0  0  0  0
  192.9390  173.0600  144.8070 O   0  0  0  0  0  0  0  0  0  0  0  0
  192.4030  173.1590  143.4080 S   0  0  0  0  0  0  0  0  0  0  0  0
  191.8230  170.6550  142.5090 C   0  0  2  0  0  3  0  0  0  0  0  0
  190.6350  173.0570  143.4150 C   0  0  2  0  0  3  0  0  0  0  0  0
  187.4470  178.2240  142.8210 C   0  0  0  0  0  1  0  0  0  0  0  0
  188.5700  174.1140  142.7770 C   0  0  2  0  0  3  0  0  0  0  0  0
  190.4990  171.0540  141.9790 N   0  0  0  0  0  2  0  0  0  0  0  0
  192.9080  171.7460  142.4360 C   0  0  0  0  0  2  0  0  0  0  0  0
  188.5180  177.2030  143.1480 C   0  0  1  0  0  3  0  0  0  0  0  0
  189.7450  175.0500  144.8160 C   0  0  2  0  0  3  0  0  0  0  0  0
  188.1490  174.6750  140.5140 C   0  0  0  0  0  0  0  0  0  0  0  0
  192.3020  169.4130  141.7880 C   0  0  0  0  0  1  0  0  0  0  0  0
  188.8970  176.4740  141.9410 N   0  0  0  0  0  2  0  0  0  0  0  0
  189.6250  174.0370  145.9620 C   0  0  0  0  0  2  0  0  0  0  0  0
  190.5410  176.7550  146.3240 C   0  0  0  0  0  2  0  0  0  0  0  0
  190.5050  175.7900  147.5040 C   0  0  0  0  0  2  0  0  0  0  0  0
  189.7240  177.9160  143.7600 C   0  0  0  0  0  2  0  0  0  0  0  0
  188.7870  172.8700  141.8840 C   0  0  2  0  0  3  0  0  0  0  0  0
  188.0700  175.2680  141.8650 C   0  0  2  0  0  3  0  0  0  0  0  0
  190.2460  172.4970  142.0750 C   0  0  1  0  0  3  0  0  0  0  0  0
  188.5640  172.4510  139.3630 C   0  0  0  0  0  1  0  0  0  0  0  0
  189.9180  174.3850  143.4410 C   0  0  1  0  0  3  0  0  0  0  0  0
  1  6  1  6  0  0  0
  1 21  1  0  0  0  0
  2  8  2  0  0  0  0
  3 17  2  0  0  0  0
  4 22  1  0  0  0  0
  5 24  1  0  0  0  0
  8  7  2  0  0  0  0
  9 18  1  6  0  0  0
 10  8  1  6  0  0  0
 10 28  1  0  0  0  0
 11 15  1  0  0  0  0
 12 28  1  0  0  0  0
 13 26  1  0  0  0  0
 13  9  1  0  0  0  0
 14  9  1  0  0  0  0
 14  8  1  0  0  0  0
 15 23  1  0  0  0  0
 16  1  1  0  0  0  0
 16 20  1  0  0  0  0
 17  5  1  0  0  0  0
 17 25  1  0  0  0  0
 19 15  1  0  0  0  0
 20  4  1  0  0  0  0
 21 22  1  0  0  0  0
 23  6  1  0  0  0  0
 24 26  1  0  0  0  0
 24 12  1  0  0  0  0
 25 19  1  0  0  0  0
 25 12  1  0  0  0  0
 26 10  1  0  0  0  0
 27  5  1  0  0  0  0
 28 16  1  0  0  0  0
M  END
>  <MODEL>
7

>  <REMARK>
 VINA RESULT:      -7.2      2.890      6.455
  Name = 
  0 active torsions:
  status: ('A' for Active; 'I' for Inactive)
                            x       y       z     vdW  Elec       q    Type
                         _______ _______ _______ _____ _____    ______ ____

>  <TORSDO>
F 0

$$$$
=
 OpenBabel11112417423D

 28 32  0  0  1  0  0  0  0  0999 V2000
  188.6600  175.5130  145.3960 N   0  0  2  0  0  0  0  0  0  0  0  0
  190.0630  172.7100  143.8600 O   0  0  0  0  0  0  0  0  0  0  0  0
  195.0190  175.4030  146.1380 O   0  0  0  0  0  0  0  0  0  0  0  0
  187.7210  177.9160  144.0580 C   0  0  0  0  0  2  0  0  0  0  0  0
  194.2260  175.4480  143.9250 N   0  0  0  0  0  0  0  0  0  0  0  0
  189.3160  174.7860  146.4990 C   0  0  0  0  0  2  0  0  0  0  0  0
  188.5970  173.7620  142.1800 O   0  0  0  0  0  0  0  0  0  0  0  0
  190.0210  173.5350  142.6040 S   0  0  0  0  0  0  0  0  0  0  0  0
  191.6360  173.7910  140.4270 C   0  0  2  0  0  3  0  0  0  0  0  0
  190.8550  175.0820  142.8190 C   0  0  2  0  0  3  0  0  0  0  0  0
  191.6440  177.1660  148.4980 C   0  0  0  0  0  1  0  0  0  0  0  0
  192.1120  176.4830  144.3180 C   0  0  2  0  0  3  0  0  0  0  0  0
  192.6100  174.6500  141.1370 N   0  0  0  0  0  2  0  0  0  0  0  0
  190.9450  172.7280  141.3030 C   0  0  0  0  0  2  0  0  0  0  0  0
  191.1050  176.4740  147.2630 C   0  0  1  0  0  3  0  0  0  0  0  0
  189.6060  176.3880  144.6800 C   0  0  2  0  0  3  0  0  0  0  0  0
  194.1150  175.6980  145.3110 C   0  0  0  0  0  0  0  0  0  0  0  0
  192.3190  173.1170  139.2560 C   0  0  0  0  0  1  0  0  0  0  0  0
  192.1310  175.6100  146.6870 N   0  0  0  0  0  2  0  0  0  0  0  0
  188.9140  177.1310  143.5290 C   0  0  0  0  0  2  0  0  0  0  0  0
  187.5530  176.3050  145.9420 C   0  0  0  0  0  2  0  0  0  0  0  0
  186.7830  176.9880  144.8180 C   0  0  0  0  0  2  0  0  0  0  0  0
  189.8590  175.6710  147.6380 C   0  0  0  0  0  2  0  0  0  0  0  0
  193.0630  175.9530  143.2200 C   0  0  2  0  0  3  0  0  0  0  0  0
  192.8560  176.3820  145.6780 C   0  0  2  0  0  3  0  0  0  0  0  0
  192.3110  174.8070  142.5660 C   0  0  1  0  0  3  0  0  0  0  0  0
  195.4210  174.9440  143.2700 C   0  0  0  0  0  1  0  0  0  0  0  0
  190.8580  175.6160  144.2310 C   0  0  1  0  0  3  0  0  0  0  0  0
  1 21  1  1  0  0  0
  1  6  1  0  0  0  0
  4 22  1  0  0  0  0
  5 17  1  0  0  0  0
  6 23  1  0  0  0  0
  7  8  2  0  0  0  0
  8  2  2  0  0  0  0
  9 18  1  6  0  0  0
  9 13  1  0  0  0  0
  9 14  1  0  0  0  0
 10  8  1  1  0  0  0
 10 28  1  0  0  0  0
 12 25  1  0  0  0  0
 13 26  1  0  0  0  0
 14  8  1  0  0  0  0
 15 23  1  0  0  0  0
 15 11  1  0  0  0  0
 16  1  1  0  0  0  0
 17 25  1  0  0  0  0
 17  3  2  0  0  0  0
 19 15  1  0  0  0  0
 20  4  1  0  0  0  0
 20 16  1  0  0  0  0
 22 21  1  0  0  0  0
 24  5  1  0  0  0  0
 24 12  1  0  0  0  0
 25 19  1  0  0  0  0
 26 10  1  0  0  0  0
 26 24  1  0  0  0  0
 27  5  1  0  0  0  0
 28 12  1  0  0  0  0
 28 16  1  0  0  0  0
M  END
>  <MODEL>
8

>  <REMARK>
 VINA RESULT:      -7.2      2.521      5.665
  Name = 
  0 active torsions:
  status: ('A' for Active; 'I' for Inactive)
                            x       y       z     vdW  Elec       q    Type
                         _______ _______ _______ _____ _____    ______ ____

>  <TORSDO>
F 0

$$$$
=
 OpenBabel11112417423D

 28 32  0  0  1  0  0  0  0  0999 V2000
  189.5420  175.9460  144.2930 N   0  0  2  0  0  0  0  0  0  0  0  0
  192.8870  176.2260  143.3340 O   0  0  0  0  0  0  0  0  0  0  0  0
  191.4500  170.7940  141.0040 O   0  0  0  0  0  0  0  0  0  0  0  0
  188.5660  175.2910  146.9510 C   0  0  0  0  0  2  0  0  0  0  0  0
  192.6240  171.2610  142.9860 N   0  0  0  0  0  0  0  0  0  0  0  0
  189.5030  175.8870  142.8200 C   0  0  0  0  0  2  0  0  0  0  0  0
  192.8110  176.7320  145.7450 O   0  0  0  0  0  0  0  0  0  0  0  0
  193.1930  175.7100  144.7120 S   0  0  0  0  0  0  0  0  0  0  0  0
  195.0950  174.0690  145.7630 C   0  0  2  0  0  3  0  0  0  0  0  0
  192.3660  174.1760  145.0260 C   0  0  2  0  0  3  0  0  0  0  0  0
  187.4870  172.7860  141.6380 C   0  0  0  0  0  1  0  0  0  0  0  0
  190.9200  172.4680  144.1420 C   0  0  2  0  0  3  0  0  0  0  0  0
  194.4240  172.8370  145.2880 N   0  0  0  0  0  2  0  0  0  0  0  0
  194.9270  175.2950  144.8460 C   0  0  0  0  0  2  0  0  0  0  0  0
  188.5660  173.5250  142.4030 C   0  0  1  0  0  3  0  0  0  0  0  0
  189.8150  174.6230  144.8850 C   0  0  2  0  0  3  0  0  0  0  0  0
  191.4870  171.3180  142.1500 C   0  0  0  0  0  0  0  0  0  0  0  0
  196.5680  173.7910  145.9740 C   0  0  0  0  0  1  0  0  0  0  0  0
  189.8840  173.1120  141.9310 N   0  0  0  0  0  2  0  0  0  0  0  0
  189.8640  174.6990  146.4170 C   0  0  0  0  0  2  0  0  0  0  0  0
  188.2610  176.4640  144.7820 C   0  0  0  0  0  2  0  0  0  0  0  0
  188.3010  176.6390  146.2960 C   0  0  0  0  0  2  0  0  0  0  0  0
  188.3670  175.0310  142.2270 C   0  0  0  0  0  2  0  0  0  0  0  0
  192.3510  171.8930  144.2630 C   0  0  2  0  0  3  0  0  0  0  0  0
  190.3400  172.0070  142.7770 C   0  0  2  0  0  3  0  0  0  0  0  0
  193.2480  173.1030  144.4500 C   0  0  1  0  0  3  0  0  0  0  0  0
  193.8290  170.5030  142.6920 C   0  0  0  0  0  1  0  0  0  0  0  0
  191.0720  173.9820  144.2740 C   0  0  1  0  0  3  0  0  0  0  0  0
  1  6  1  6  0  0  0
  1 21  1  0  0  0  0
  1 16  1  0  0  0  0
  2  8  2  0  0  0  0
  3 17  2  0  0  0  0
  5 24  1  0  0  0  0
  8 14  1  0  0  0  0
  8  7  2  0  0  0  0
  9 18  1  6  0  0  0
 10  8  1  6  0  0  0
 11 15  1  0  0  0  0
 12 24  1  0  0  0  0
 12 28  1  0  0  0  0
 13  9  1  0  0  0  0
 14  9  1  0  0  0  0
 16 20  1  0  0  0  0
 17 25  1  0  0  0  0
 17  5  1  0  0  0  0
 19 15  1  0  0  0  0
 19 25  1  0  0  0  0
 20  4  1  0  0  0  0
 21 22  1  0  0  0  0
 22  4  1  0  0  0  0
 23 15  1  0  0  0  0
 23  6  1  0  0  0  0
 24 26  1  0  0  0  0
 25 12  1  0  0  0  0
 26 10  1  0  0  0  0
 26 13  1  0  0  0  0
 27  5  1  0  0  0  0
 28 16  1  0  0  0  0
 28 10  1  0  0  0  0
M  END
>  <MODEL>
9

>  <REMARK>
 VINA RESULT:      -6.9      3.183      7.177
  Name = 
  0 active torsions:
  status: ('A' for Active; 'I' for Inactive)
                            x       y       z     vdW  Elec       q    Type
                         _______ _______ _______ _____ _____    ______ ____

>  <TORSDO>
F 0

$$$$
