=
 OpenBabel11112416573D

 31 35  0  0  1  0  0  0  0  0999 V2000
  184.9710  178.0640  146.8370 C   0  0  0  0  0  0  0  0  0  0  0  0
  186.7930  177.6250  143.5720 C   0  0  0  0  0  0  0  0  0  0  0  0
  185.8390  177.8050  142.5260 C   0  0  0  0  0  0  0  0  0  0  0  0
  191.4530  176.7230  145.8740 O   0  0  0  0  0  0  0  0  0  0  0  0
  191.5840  176.6490  144.6230 C   0  0  0  0  0  0  0  0  0  0  0  0
  183.5840  178.2620  141.7090 C   0  0  0  0  0  0  0  0  0  0  0  0
  186.5000  177.7100  144.9660 C   0  0  0  0  0  0  0  0  0  0  0  0
  186.0120  177.8620  147.7420 C   0  0  0  0  0  3  0  0  0  0  0  0
  184.4840  178.0930  142.7630 C   0  0  0  0  0  3  0  0  0  0  0  0
  189.1200  177.1490  144.1600 C   0  0  0  0  0  0  0  0  0  0  0  0
  183.7230  178.3320  147.2890 F   0  0  0  0  0  0  0  0  0  0  0  0
  187.5640  177.4170  140.9060 N   0  0  0  0  0  0  0  0  0  0  0  0
  182.2510  178.5460  141.9730 O   0  0  0  0  0  1  0  0  0  0  0  0
  188.8040  177.2390  145.4760 N   0  0  0  0  0  0  0  0  0  0  0  0
  188.1290  177.3390  143.1890 C   0  0  0  0  0  0  0  0  0  0  0  0
  190.4650  176.8600  143.7530 N   0  0  0  0  0  2  0  0  0  0  0  0
  185.2150  177.9890  145.4650 C   0  0  0  0  0  3  0  0  0  0  0  0
  184.0250  178.1480  140.3900 C   0  0  0  0  0  3  0  0  0  0  0  0
  187.5460  177.5090  145.9010 C   0  0  0  0  0  0  0  0  0  0  0  0
  187.2970  177.5850  147.2750 C   0  0  0  0  0  3  0  0  0  0  0  0
  188.4590  177.2470  141.8740 N   0  0  0  0  0  0  0  0  0  0  0  0
  186.2680  177.6920  141.1820 C   0  0  0  0  0  0  0  0  0  0  0  0
  185.3650  177.8620  140.1280 C   0  0  0  0  0  3  0  0  0  0  0  0
  194.0940  173.9010  145.0850 C   0  0  1  0  0  3  0  0  0  0  0  0
  192.9560  175.1100  143.2720 N   0  0  0  0  0  2  0  0  0  0  0  0
  194.0070  177.5320  145.8660 F   0  0  0  0  0  0  0  0  0  0  0  0
  194.0210  172.7780  145.8860 F   0  0  0  0  0  0  0  0  0  0  0  0
  192.8900  173.9380  144.1490 C   0  0  0  0  0  2  0  0  0  0  0  0
  194.0860  176.3960  145.0810 C   0  0  2  0  0  3  0  0  0  0  0  0
  192.9430  176.3550  144.0520 C   0  0  2  0  0  3  0  0  0  0  0  0
  194.0950  175.1480  145.9580 C   0  0  0  0  0  2  0  0  0  0  0  0
  1 11  1  0  0  0  0
  1  8  1  0  0  0  0
  2  7  1  0  0  0  0
  3  9  1  0  0  0  0
  3  2  2  0  0  0  0
  5  4  2  0  0  0  0
  6 13  1  0  0  0  0
  6  9  2  0  0  0  0
  7 17  1  0  0  0  0
  7 19  2  0  0  0  0
 10 14  2  0  0  0  0
 12 22  2  0  0  0  0
 12 21  1  0  0  0  0
 14 19  1  0  0  0  0
 15  2  1  0  0  0  0
 15 10  1  0  0  0  0
 16 10  1  0  0  0  0
 16  5  1  0  0  0  0
 17  1  2  0  0  0  0
 18  6  1  0  0  0  0
 19 20  1  0  0  0  0
 20  8  2  0  0  0  0
 21 15  2  0  0  0  0
 22  3  1  0  0  0  0
 23 18  2  0  0  0  0
 23 22  1  0  0  0  0
 24 27  1  1  0  0  0
 24 31  1  0  0  0  0
 25 30  1  0  0  0  0
 25 28  1  0  0  0  0
 28 24  1  0  0  0  0
 29 26  1  1  0  0  0
 29 31  1  0  0  0  0
 30  5  1  1  0  0  0
 30 29  1  0  0  0  0
M  END
>  <MODEL>
1

>  <REMARK>
 VINA RESULT:     -10.2      0.000      0.000
  Name = 
  1 active torsions:
  status: ('A' for Active; 'I' for Inactive)
    1  A    between atoms: C_5  and  C_30
                            x       y       z     vdW  Elec       q    Type
                         _______ _______ _______ _____ _____    ______ ____

>  <TORSDO>
F 1

$$$$
=
 OpenBabel11112416573D

 31 35  0  0  1  0  0  0  0  0999 V2000
  185.7670  177.6240  141.0920 C   0  0  0  0  0  0  0  0  0  0  0  0
  187.5420  177.1550  144.3790 C   0  0  0  0  0  0  0  0  0  0  0  0
  186.6590  177.6040  145.4060 C   0  0  0  0  0  0  0  0  0  0  0  0
  191.8860  175.1430  142.1630 O   0  0  0  0  0  0  0  0  0  0  0  0
  192.0440  175.2050  143.4120 C   0  0  0  0  0  0  0  0  0  0  0  0
  184.5430  178.5440  146.1830 C   0  0  0  0  0  0  0  0  0  0  0  0
  187.2420  177.1660  142.9840 C   0  0  0  0  0  0  0  0  0  0  0  0
  186.7350  177.1510  140.2070 C   0  0  0  0  0  3  0  0  0  0  0  0
  185.3750  178.1150  145.1470 C   0  0  0  0  0  3  0  0  0  0  0  0
  189.7300  176.2050  143.8310 C   0  0  0  0  0  0  0  0  0  0  0  0
  184.5820  178.0770  140.6200 F   0  0  0  0  0  0  0  0  0  0  0  0
  188.3140  177.0520  147.0510 N   0  0  0  0  0  0  0  0  0  0  0  0
  183.2800  179.0440  145.8970 O   0  0  0  0  0  1  0  0  0  0  0  0
  189.4090  176.2300  142.5140 N   0  0  0  0  0  0  0  0  0  0  0  0
  188.8100  176.6630  144.7830 C   0  0  0  0  0  0  0  0  0  0  0  0
  191.0070  175.7110  144.2610 N   0  0  0  0  0  2  0  0  0  0  0  0
  186.0200  177.6300  142.4650 C   0  0  0  0  0  3  0  0  0  0  0  0
  184.9810  178.4690  147.5050 C   0  0  0  0  0  3  0  0  0  0  0  0
  188.2150  176.6890  142.0690 C   0  0  0  0  0  0  0  0  0  0  0  0
  187.9560  176.6850  140.6950 C   0  0  0  0  0  3  0  0  0  0  0  0
  189.1440  176.6310  146.1010 N   0  0  0  0  0  0  0  0  0  0  0  0
  187.0860  177.5370  146.7540 C   0  0  0  0  0  0  0  0  0  0  0  0
  186.2510  177.9660  147.7890 C   0  0  0  0  0  3  0  0  0  0  0  0
  194.1080  176.1800  146.3870 C   0  0  1  0  0  3  0  0  0  0  0  0
  193.1510  174.1650  145.3530 N   0  0  0  0  0  2  0  0  0  0  0  0
  194.5860  176.3180  142.7060 F   0  0  0  0  0  0  0  0  0  0  0  0
  193.8700  177.1630  147.3290 F   0  0  0  0  0  0  0  0  0  0  0  0
  192.9150  175.2310  146.3310 C   0  0  0  0  0  2  0  0  0  0  0  0
  194.4820  175.7430  143.9600 C   0  0  2  0  0  3  0  0  0  0  0  0
  193.3370  174.7170  144.0040 C   0  0  2  0  0  3  0  0  0  0  0  0
  194.3080  176.8230  145.0230 C   0  0  0  0  0  2  0  0  0  0  0  0
  1 17  1  0  0  0  0
  2 15  2  0  0  0  0
  2  3  1  0  0  0  0
  3 22  1  0  0  0  0
  4  5  2  0  0  0  0
  5 16  1  0  0  0  0
  6 18  2  0  0  0  0
  7  2  1  0  0  0  0
  8 20  1  0  0  0  0
  8  1  2  0  0  0  0
  9  3  2  0  0  0  0
  9  6  1  0  0  0  0
 10 16  1  0  0  0  0
 10 15  1  0  0  0  0
 11  1  1  0  0  0  0
 13  6  1  0  0  0  0
 14 10  2  0  0  0  0
 15 21  1  0  0  0  0
 17  7  2  0  0  0  0
 18 23  1  0  0  0  0
 19 14  1  0  0  0  0
 19  7  1  0  0  0  0
 20 19  2  0  0  0  0
 21 12  2  0  0  0  0
 22 12  1  0  0  0  0
 22 23  2  0  0  0  0
 24 27  1  1  0  0  0
 25 28  1  0  0  0  0
 28 24  1  0  0  0  0
 29 26  1  6  0  0  0
 29 30  1  0  0  0  0
 29 31  1  0  0  0  0
 30  5  1  1  0  0  0
 30 25  1  0  0  0  0
 31 24  1  0  0  0  0
M  END
>  <MODEL>
2

>  <REMARK>
 VINA RESULT:      -9.2      2.191      4.264
  Name = 
  1 active torsions:
  status: ('A' for Active; 'I' for Inactive)
    1  A    between atoms: C_5  and  C_30
                            x       y       z     vdW  Elec       q    Type
                         _______ _______ _______ _____ _____    ______ ____

>  <TORSDO>
F 1

$$$$
=
 OpenBabel11112416573D

 31 35  0  0  1  0  0  0  0  0999 V2000
  188.1660  176.9600  141.6780 C   0  0  0  0  0  0  0  0  0  0  0  0
  185.6470  178.1700  144.2020 C   0  0  0  0  0  0  0  0  0  0  0  0
  186.2980  178.1990  145.4710 C   0  0  0  0  0  0  0  0  0  0  0  0
  181.8000  178.7310  140.6370 O   0  0  0  0  0  0  0  0  0  0  0  0
  181.3610  179.0410  141.7760 C   0  0  0  0  0  0  0  0  0  0  0  0
  188.2400  177.8690  146.9150 C   0  0  0  0  0  0  0  0  0  0  0  0
  186.2620  177.7660  142.9790 C   0  0  0  0  0  0  0  0  0  0  0  0
  187.3970  176.9850  140.5150 C   0  0  0  0  0  3  0  0  0  0  0  0
  187.6420  177.8260  145.6550 C   0  0  0  0  0  3  0  0  0  0  0  0
  183.5830  178.5720  142.9510 C   0  0  0  0  0  0  0  0  0  0  0  0
  189.4580  176.5600  141.6270 F   0  0  0  0  0  0  0  0  0  0  0  0
  184.2720  178.9920  146.4770 N   0  0  0  0  0  0  0  0  0  0  0  0
  189.5680  177.4950  147.0670 O   0  0  0  0  0  1  0  0  0  0  0  0
  184.2010  178.1820  141.8090 N   0  0  0  0  0  0  0  0  0  0  0  0
  184.2880  178.5740  144.1610 C   0  0  0  0  0  0  0  0  0  0  0  0
  182.2080  178.9840  142.9310 N   0  0  0  0  0  2  0  0  0  0  0  0
  187.6020  177.3470  142.8950 C   0  0  0  0  0  3  0  0  0  0  0  0
  187.5030  178.2900  148.0230 C   0  0  0  0  0  3  0  0  0  0  0  0
  185.4960  177.7860  141.7870 C   0  0  0  0  0  0  0  0  0  0  0  0
  186.0650  177.3970  140.5700 C   0  0  0  0  0  3  0  0  0  0  0  0
  183.6560  178.9680  145.2990 N   0  0  0  0  0  0  0  0  0  0  0  0
  185.5670  178.6230  146.6060 C   0  0  0  0  0  0  0  0  0  0  0  0
  186.1680  178.6650  147.8680 C   0  0  0  0  0  3  0  0  0  0  0  0
  178.0450  177.6230  140.7510 C   0  0  1  0  0  3  0  0  0  0  0  0
  179.1370  178.5820  142.7340 N   0  0  0  0  0  2  0  0  0  0  0  0
  180.0450  180.5930  139.7630 F   0  0  0  0  0  0  0  0  0  0  0  0
  177.7660  176.4350  140.1040 F   0  0  0  0  0  0  0  0  0  0  0  0
  178.8480  177.3370  142.0160 C   0  0  0  0  0  2  0  0  0  0  0  0
  179.2430  179.8030  140.5670 C   0  0  2  0  0  3  0  0  0  0  0  0
  179.9350  179.4960  141.9060 C   0  0  2  0  0  3  0  0  0  0  0  0
  178.8540  178.5250  139.8310 C   0  0  0  0  0  2  0  0  0  0  0  0
  1 17  1  0  0  0  0
  2  3  1  0  0  0  0
  3  9  2  0  0  0  0
  3 22  1  0  0  0  0
  4  5  2  0  0  0  0
  5 16  1  0  0  0  0
  6 13  1  0  0  0  0
  6 18  2  0  0  0  0
  7  2  1  0  0  0  0
  8 20  1  0  0  0  0
  8  1  2  0  0  0  0
  9  6  1  0  0  0  0
 10 15  1  0  0  0  0
 11  1  1  0  0  0  0
 12 22  1  0  0  0  0
 14 10  2  0  0  0  0
 15  2  2  0  0  0  0
 15 21  1  0  0  0  0
 16 10  1  0  0  0  0
 17  7  2  0  0  0  0
 19 14  1  0  0  0  0
 19  7  1  0  0  0  0
 20 19  2  0  0  0  0
 21 12  2  0  0  0  0
 22 23  2  0  0  0  0
 23 18  1  0  0  0  0
 24 27  1  6  0  0  0
 24 28  1  0  0  0  0
 28 25  1  0  0  0  0
 29 26  1  6  0  0  0
 29 30  1  0  0  0  0
 30  5  1  6  0  0  0
 30 25  1  0  0  0  0
 31 29  1  0  0  0  0
 31 24  1  0  0  0  0
M  END
>  <MODEL>
3

>  <REMARK>
 VINA RESULT:      -9.0      4.385      9.884
  Name = 
  1 active torsions:
  status: ('A' for Active; 'I' for Inactive)
    1  A    between atoms: C_5  and  C_30
                            x       y       z     vdW  Elec       q    Type
                         _______ _______ _______ _____ _____    ______ ____

>  <TORSDO>
F 1

$$$$
=
 OpenBabel11112416573D

 31 35  0  0  1  0  0  0  0  0999 V2000
  190.7930  176.2470  146.9820 C   0  0  0  0  0  0  0  0  0  0  0  0
  187.9110  176.3430  144.5620 C   0  0  0  0  0  0  0  0  0  0  0  0
  186.9360  177.2360  145.0980 C   0  0  0  0  0  0  0  0  0  0  0  0
  190.1570  172.9670  141.1870 O   0  0  0  0  0  0  0  0  0  0  0  0
  189.0240  173.3020  140.7510 C   0  0  0  0  0  0  0  0  0  0  0  0
  186.1240  178.7810  146.8050 C   0  0  0  0  0  0  0  0  0  0  0  0
  189.1580  176.0300  145.1810 C   0  0  0  0  0  0  0  0  0  0  0  0
  191.6440  175.3530  146.3340 C   0  0  0  0  0  3  0  0  0  0  0  0
  187.1040  177.9160  146.3170 C   0  0  0  0  0  3  0  0  0  0  0  0
  188.5200  174.8360  142.7320 C   0  0  0  0  0  0  0  0  0  0  0  0
  191.1590  176.7920  148.1660 F   0  0  0  0  0  0  0  0  0  0  0  0
  185.5340  176.8240  143.1970 N   0  0  0  0  0  0  0  0  0  0  0  0
  186.3160  179.4390  148.0130 O   0  0  0  0  0  1  0  0  0  0  0  0
  189.6960  174.5630  143.3510 N   0  0  0  0  0  0  0  0  0  0  0  0
  187.6110  175.7250  143.3200 C   0  0  0  0  0  0  0  0  0  0  0  0
  188.1980  174.2210  141.4760 N   0  0  0  0  0  2  0  0  0  0  0  0
  189.5650  176.5800  146.4100 C   0  0  0  0  0  3  0  0  0  0  0  0
  184.9500  178.9860  146.0790 C   0  0  0  0  0  3  0  0  0  0  0  0
  190.0360  175.1230  144.5360 C   0  0  0  0  0  0  0  0  0  0  0  0
  191.2660  174.7920  145.1140 C   0  0  0  0  0  3  0  0  0  0  0  0
  186.4370  175.9910  142.6890 N   0  0  0  0  0  0  0  0  0  0  0  0
  185.7390  177.4570  144.3760 C   0  0  0  0  0  0  0  0  0  0  0  0
  184.7590  178.3240  144.8660 C   0  0  0  0  0  3  0  0  0  0  0  0
  190.5980  172.8140  137.3820 C   0  0  1  0  0  3  0  0  0  0  0  0
  189.3160  171.5410  139.0500 N   0  0  0  0  0  2  0  0  0  0  0  0
  187.8360  174.9160  138.7060 F   0  0  0  0  0  0  0  0  0  0  0  0
  191.8790  173.1200  136.9650 F   0  0  0  0  0  0  0  0  0  0  0  0
  190.6650  171.8990  138.6010 C   0  0  0  0  0  2  0  0  0  0  0  0
  188.4790  173.7620  138.2960 C   0  0  2  0  0  3  0  0  0  0  0  0
  188.5550  172.7360  139.4400 C   0  0  2  0  0  3  0  0  0  0  0  0
  189.8640  174.0950  137.7500 C   0  0  0  0  0  2  0  0  0  0  0  0
  1 11  1  0  0  0  0
  2  3  1  0  0  0  0
  2  7  1  0  0  0  0
  3  9  1  0  0  0  0
  5  4  2  0  0  0  0
  5 16  1  0  0  0  0
  6 13  1  0  0  0  0
  7 17  2  0  0  0  0
  8  1  2  0  0  0  0
  9  6  2  0  0  0  0
 10 15  1  0  0  0  0
 10 14  2  0  0  0  0
 12 22  1  0  0  0  0
 14 19  1  0  0  0  0
 15  2  2  0  0  0  0
 16 10  1  0  0  0  0
 17  1  1  0  0  0  0
 18  6  1  0  0  0  0
 19 20  2  0  0  0  0
 19  7  1  0  0  0  0
 20  8  1  0  0  0  0
 21 12  2  0  0  0  0
 21 15  1  0  0  0  0
 22 23  1  0  0  0  0
 22  3  2  0  0  0  0
 23 18  2  0  0  0  0
 24 27  1  1  0  0  0
 24 31  1  0  0  0  0
 24 28  1  0  0  0  0
 25 30  1  0  0  0  0
 28 25  1  0  0  0  0
 29 26  1  1  0  0  0
 29 30  1  0  0  0  0
 30  5  1  1  0  0  0
 31 29  1  0  0  0  0
M  END
>  <MODEL>
4

>  <REMARK>
 VINA RESULT:      -8.6      4.400      5.911
  Name = 
  1 active torsions:
  status: ('A' for Active; 'I' for Inactive)
    1  A    between atoms: C_5  and  C_30
                            x       y       z     vdW  Elec       q    Type
                         _______ _______ _______ _____ _____    ______ ____

>  <TORSDO>
F 1

$$$$
=
 OpenBabel11112416573D

 31 35  0  0  1  0  0  0  0  0999 V2000
  190.7370  176.7940  147.2540 C   0  0  0  0  0  0  0  0  0  0  0  0
  188.2530  176.5120  144.4380 C   0  0  0  0  0  0  0  0  0  0  0  0
  187.0830  177.2260  144.8320 C   0  0  0  0  0  0  0  0  0  0  0  0
  191.4640  173.6240  141.4080 O   0  0  0  0  0  0  0  0  0  0  0  0
  190.3660  173.7910  140.8130 C   0  0  0  0  0  0  0  0  0  0  0  0
  185.8000  178.5770  146.4110 C   0  0  0  0  0  0  0  0  0  0  0  0
  189.4320  176.3780  145.2320 C   0  0  0  0  0  0  0  0  0  0  0  0
  191.8030  176.0630  146.7310 C   0  0  0  0  0  3  0  0  0  0  0  0
  186.9650  177.8880  146.0670 C   0  0  0  0  0  3  0  0  0  0  0  0
  189.3480  175.1710  142.7080 C   0  0  0  0  0  0  0  0  0  0  0  0
  190.8380  177.3550  148.4820 F   0  0  0  0  0  0  0  0  0  0  0  0
  186.0500  176.6570  142.7440 N   0  0  0  0  0  0  0  0  0  0  0  0
  185.7110  179.2210  147.6380 O   0  0  0  0  0  1  0  0  0  0  0  0
  190.4510  175.0660  143.4910 N   0  0  0  0  0  0  0  0  0  0  0  0
  188.2360  175.8910  143.1630 C   0  0  0  0  0  0  0  0  0  0  0  0
  189.3100  174.5500  141.4160 N   0  0  0  0  0  2  0  0  0  0  0  0
  189.5660  176.9490  146.5100 C   0  0  0  0  0  3  0  0  0  0  0  0
  184.7250  178.6180  145.5230 C   0  0  0  0  0  3  0  0  0  0  0  0
  190.5250  175.6380  144.7170 C   0  0  0  0  0  0  0  0  0  0  0  0
  191.6970  175.4850  145.4660 C   0  0  0  0  0  3  0  0  0  0  0  0
  187.1370  175.9880  142.3690 N   0  0  0  0  0  0  0  0  0  0  0  0
  185.9820  177.2790  143.9440 C   0  0  0  0  0  0  0  0  0  0  0  0
  184.8160  177.9690  144.2910 C   0  0  0  0  0  3  0  0  0  0  0  0
  191.6550  170.7210  139.0860 C   0  0  1  0  0  3  0  0  0  0  0  0
  189.5270  171.8840  139.4950 N   0  0  0  0  0  2  0  0  0  0  0  0
  192.1210  174.3780  138.6290 F   0  0  0  0  0  0  0  0  0  0  0  0
  192.4900  169.7330  139.5710 F   0  0  0  0  0  0  0  0  0  0  0  0
  190.4410  170.8560  140.0010 C   0  0  0  0  0  2  0  0  0  0  0  0
  191.4670  173.1600  138.5950 C   0  0  2  0  0  3  0  0  0  0  0  0
  190.1850  173.1970  139.4440 C   0  0  2  0  0  3  0  0  0  0  0  0
  192.4060  172.0440  139.0440 C   0  0  0  0  0  2  0  0  0  0  0  0
  1 11  1  0  0  0  0
  2  3  1  0  0  0  0
  2  7  1  0  0  0  0
  3  9  1  0  0  0  0
  5  4  2  0  0  0  0
  5 16  1  0  0  0  0
  6 13  1  0  0  0  0
  7 17  1  0  0  0  0
  8  1  1  0  0  0  0
  9  6  2  0  0  0  0
 10 15  1  0  0  0  0
 10 14  2  0  0  0  0
 12 22  1  0  0  0  0
 14 19  1  0  0  0  0
 15  2  2  0  0  0  0
 16 10  1  0  0  0  0
 17  1  2  0  0  0  0
 18  6  1  0  0  0  0
 19  7  2  0  0  0  0
 19 20  1  0  0  0  0
 20  8  2  0  0  0  0
 21 12  2  0  0  0  0
 21 15  1  0  0  0  0
 22 23  1  0  0  0  0
 22  3  2  0  0  0  0
 23 18  2  0  0  0  0
 24 27  1  1  0  0  0
 24 28  1  0  0  0  0
 25 28  1  0  0  0  0
 29 26  1  1  0  0  0
 29 31  1  0  0  0  0
 29 30  1  0  0  0  0
 30 25  1  0  0  0  0
 30  5  1  1  0  0  0
 31 24  1  0  0  0  0
M  END
>  <MODEL>
5

>  <REMARK>
 VINA RESULT:      -8.5      3.915      5.215
  Name = 
  1 active torsions:
  status: ('A' for Active; 'I' for Inactive)
    1  A    between atoms: C_5  and  C_30
                            x       y       z     vdW  Elec       q    Type
                         _______ _______ _______ _____ _____    ______ ____

>  <TORSDO>
F 1

$$$$
=
 OpenBabel11112416573D

 31 35  0  0  1  0  0  0  0  0999 V2000
  191.1660  173.7640  141.0300 C   0  0  0  0  0  0  0  0  0  0  0  0
  190.6390  175.6700  144.2340 C   0  0  0  0  0  0  0  0  0  0  0  0
  191.8890  175.7030  144.9190 C   0  0  0  0  0  0  0  0  0  0  0  0
  185.5310  176.5800  143.2780 O   0  0  0  0  0  0  0  0  0  0  0  0
  185.8430  177.0790  144.3920 C   0  0  0  0  0  0  0  0  0  0  0  0
  194.2620  175.1620  145.1180 C   0  0  0  0  0  0  0  0  0  0  0  0
  190.4150  175.0380  142.9740 C   0  0  0  0  0  0  0  0  0  0  0  0
  189.8840  173.8160  140.4850 C   0  0  0  0  0  3  0  0  0  0  0  0
  193.0580  175.1060  144.4140 C   0  0  0  0  0  3  0  0  0  0  0  0
  188.2800  176.3230  144.2460 C   0  0  0  0  0  0  0  0  0  0  0  0
  192.1590  173.1260  140.3650 F   0  0  0  0  0  0  0  0  0  0  0  0
  190.8700  176.9570  146.6900 N   0  0  0  0  0  0  0  0  0  0  0  0
  195.4010  174.5640  144.5960 O   0  0  0  0  0  1  0  0  0  0  0  0
  188.1070  175.7120  143.0470 N   0  0  0  0  0  0  0  0  0  0  0  0
  189.5400  176.3150  144.8580 C   0  0  0  0  0  0  0  0  0  0  0  0
  187.1810  176.9800  144.8940 N   0  0  0  0  0  2  0  0  0  0  0  0
  191.4270  174.3690  142.2600 C   0  0  0  0  0  3  0  0  0  0  0  0
  194.3220  175.8220  146.3460 C   0  0  0  0  0  3  0  0  0  0  0  0
  189.1180  175.0810  142.4040 C   0  0  0  0  0  0  0  0  0  0  0  0
  188.8620  174.4730  141.1710 C   0  0  0  0  0  3  0  0  0  0  0  0
  189.7000  176.9310  146.0590 N   0  0  0  0  0  0  0  0  0  0  0  0
  191.9700  176.3670  146.1660 C   0  0  0  0  0  0  0  0  0  0  0  0
  193.1770  176.4230  146.8690 C   0  0  0  0  0  3  0  0  0  0  0  0
  185.8760  179.2360  147.4600 C   0  0  1  0  0  3  0  0  0  0  0  0
  184.9900  179.2580  145.1660 N   0  0  0  0  0  2  0  0  0  0  0  0
  184.4930  175.8910  146.6200 F   0  0  0  0  0  0  0  0  0  0  0  0
  186.9460  179.6280  148.2390 F   0  0  0  0  0  0  0  0  0  0  0  0
  186.1240  179.6440  146.0110 C   0  0  0  0  0  2  0  0  0  0  0  0
  184.5920  177.2710  146.6130 C   0  0  2  0  0  3  0  0  0  0  0  0
  184.7900  177.8030  145.1830 C   0  0  2  0  0  3  0  0  0  0  0  0
  185.7160  177.7240  147.5400 C   0  0  0  0  0  2  0  0  0  0  0  0
  1 17  1  0  0  0  0
  2 15  2  0  0  0  0
  2  3  1  0  0  0  0
  3 22  1  0  0  0  0
  4  5  2  0  0  0  0
  5 16  1  0  0  0  0
  6 18  2  0  0  0  0
  7  2  1  0  0  0  0
  8  1  2  0  0  0  0
  8 20  1  0  0  0  0
  9  3  2  0  0  0  0
  9  6  1  0  0  0  0
 10 15  1  0  0  0  0
 10 16  1  0  0  0  0
 11  1  1  0  0  0  0
 13  6  1  0  0  0  0
 14 10  2  0  0  0  0
 15 21  1  0  0  0  0
 17  7  2  0  0  0  0
 18 23  1  0  0  0  0
 19  7  1  0  0  0  0
 19 14  1  0  0  0  0
 20 19  2  0  0  0  0
 21 12  2  0  0  0  0
 22 12  1  0  0  0  0
 22 23  2  0  0  0  0
 24 31  1  0  0  0  0
 24 27  1  1  0  0  0
 25 30  1  0  0  0  0
 25 28  1  0  0  0  0
 28 24  1  0  0  0  0
 29 26  1  6  0  0  0
 29 31  1  0  0  0  0
 30  5  1  1  0  0  0
 30 29  1  0  0  0  0
M  END
>  <MODEL>
6

>  <REMARK>
 VINA RESULT:      -8.5      2.937      8.326
  Name = 
  1 active torsions:
  status: ('A' for Active; 'I' for Inactive)
    1  A    between atoms: C_5  and  C_30
                            x       y       z     vdW  Elec       q    Type
                         _______ _______ _______ _____ _____    ______ ____

>  <TORSDO>
F 1

$$$$
=
 OpenBabel11112416573D

 31 35  0  0  1  0  0  0  0  0999 V2000
  186.3740  177.1150  141.3670 C   0  0  0  0  0  0  0  0  0  0  0  0
  187.7480  177.0930  144.8720 C   0  0  0  0  0  0  0  0  0  0  0  0
  186.7440  177.6400  145.7250 C   0  0  0  0  0  0  0  0  0  0  0  0
  192.3490  174.9400  143.4460 O   0  0  0  0  0  0  0  0  0  0  0  0
  192.3560  175.1570  144.6870 C   0  0  0  0  0  0  0  0  0  0  0  0
  184.5400  178.6110  146.1270 C   0  0  0  0  0  0  0  0  0  0  0  0
  187.6180  176.9280  143.4610 C   0  0  0  0  0  0  0  0  0  0  0  0
  187.4460  176.5640  140.6660 C   0  0  0  0  0  3  0  0  0  0  0  0
  185.4940  178.0820  145.2560 C   0  0  0  0  0  3  0  0  0  0  0  0
  189.9960  176.1400  144.7060 C   0  0  0  0  0  0  0  0  0  0  0  0
  185.2490  177.4770  140.7070 F   0  0  0  0  0  0  0  0  0  0  0  0
  188.1960  177.3330  147.6080 N   0  0  0  0  0  0  0  0  0  0  0  0
  183.3140  179.0400  145.6360 O   0  0  0  0  0  1  0  0  0  0  0  0
  189.8350  175.9980  143.3670 N   0  0  0  0  0  0  0  0  0  0  0  0
  188.9640  176.6860  145.4800 C   0  0  0  0  0  0  0  0  0  0  0  0
  191.2180  175.7340  145.3400 N   0  0  0  0  0  2  0  0  0  0  0  0
  186.4610  177.2940  142.7480 C   0  0  0  0  0  3  0  0  0  0  0  0
  184.8170  178.7080  147.4910 C   0  0  0  0  0  3  0  0  0  0  0  0
  188.6970  176.3690  142.7320 C   0  0  0  0  0  0  0  0  0  0  0  0
  188.6050  176.1920  141.3480 C   0  0  0  0  0  3  0  0  0  0  0  0
  189.1380  176.8220  146.8210 N   0  0  0  0  0  0  0  0  0  0  0  0
  187.0070  177.7460  147.1110 C   0  0  0  0  0  0  0  0  0  0  0  0
  186.0500  178.2770  147.9810 C   0  0  0  0  0  3  0  0  0  0  0  0
  196.0390  175.7450  144.3000 C   0  0  1  0  0  3  0  0  0  0  0  0
  194.2790  175.9550  146.0050 N   0  0  0  0  0  2  0  0  0  0  0  0
  193.8360  172.7550  144.1980 F   0  0  0  0  0  0  0  0  0  0  0  0
  196.7130  176.4340  143.3110 F   0  0  0  0  0  0  0  0  0  0  0  0
  194.9950  176.6570  144.9350 C   0  0  0  0  0  2  0  0  0  0  0  0
  194.5280  173.8130  144.7600 C   0  0  2  0  0  3  0  0  0  0  0  0
  193.5730  174.7770  145.4830 C   0  0  2  0  0  3  0  0  0  0  0  0
  195.3490  174.5320  143.6930 C   0  0  0  0  0  2  0  0  0  0  0  0
  1 17  1  0  0  0  0
  2 15  2  0  0  0  0
  2  3  1  0  0  0  0
  3 22  1  0  0  0  0
  4  5  2  0  0  0  0
  5 16  1  0  0  0  0
  6 18  2  0  0  0  0
  7  2  1  0  0  0  0
  8 20  1  0  0  0  0
  8  1  2  0  0  0  0
  9  3  2  0  0  0  0
  9  6  1  0  0  0  0
 10 16  1  0  0  0  0
 10 15  1  0  0  0  0
 11  1  1  0  0  0  0
 13  6  1  0  0  0  0
 14 10  2  0  0  0  0
 15 21  1  0  0  0  0
 17  7  2  0  0  0  0
 18 23  1  0  0  0  0
 19 14  1  0  0  0  0
 19  7  1  0  0  0  0
 20 19  2  0  0  0  0
 21 12  2  0  0  0  0
 22 12  1  0  0  0  0
 22 23  2  0  0  0  0
 24 27  1  6  0  0  0
 24 28  1  0  0  0  0
 28 25  1  0  0  0  0
 29 26  1  6  0  0  0
 29 30  1  0  0  0  0
 30  5  1  6  0  0  0
 30 25  1  0  0  0  0
 31 24  1  0  0  0  0
 31 29  1  0  0  0  0
M  END
>  <MODEL>
7

>  <REMARK>
 VINA RESULT:      -8.4      2.268      4.432
  Name = 
  1 active torsions:
  status: ('A' for Active; 'I' for Inactive)
    1  A    between atoms: C_5  and  C_30
                            x       y       z     vdW  Elec       q    Type
                         _______ _______ _______ _____ _____    ______ ____

>  <TORSDO>
F 1

$$$$
=
 OpenBabel11112416573D

 31 35  0  0  1  0  0  0  0  0999 V2000
  190.6400  177.1820  147.6380 C   0  0  0  0  0  0  0  0  0  0  0  0
  188.8790  176.0510  144.5080 C   0  0  0  0  0  0  0  0  0  0  0  0
  187.6350  176.7480  144.4450 C   0  0  0  0  0  0  0  0  0  0  0  0
  192.7600  172.7810  143.0680 O   0  0  0  0  0  0  0  0  0  0  0  0
  191.8260  172.7170  142.2250 C   0  0  0  0  0  0  0  0  0  0  0  0
  185.9960  178.3320  145.3200 C   0  0  0  0  0  0  0  0  0  0  0  0
  189.8450  176.2000  145.5470 C   0  0  0  0  0  0  0  0  0  0  0  0
  191.8120  176.4310  147.5600 C   0  0  0  0  0  3  0  0  0  0  0  0
  187.2230  177.6730  145.4210 C   0  0  0  0  0  3  0  0  0  0  0  0
  190.3710  174.4260  143.4480 C   0  0  0  0  0  0  0  0  0  0  0  0
  190.4440  178.0240  148.6800 F   0  0  0  0  0  0  0  0  0  0  0  0
  187.1250  175.6220  142.3910 N   0  0  0  0  0  0  0  0  0  0  0  0
  185.6140  179.2410  146.2980 O   0  0  0  0  0  1  0  0  0  0  0  0
  191.2650  174.5940  144.4540 N   0  0  0  0  0  0  0  0  0  0  0  0
  189.1690  175.1460  143.4550 C   0  0  0  0  0  0  0  0  0  0  0  0
  190.6450  173.5150  142.3740 N   0  0  0  0  0  2  0  0  0  0  0  0
  189.6690  177.0670  146.6410 C   0  0  0  0  0  3  0  0  0  0  0  0
  185.1550  178.0800  144.2360 C   0  0  0  0  0  3  0  0  0  0  0  0
  191.0430  175.4440  145.4850 C   0  0  0  0  0  0  0  0  0  0  0  0
  192.0120  175.5630  146.4860 C   0  0  0  0  0  3  0  0  0  0  0  0
  188.2810  174.9690  142.4410 N   0  0  0  0  0  0  0  0  0  0  0  0
  186.7680  176.5040  143.3540 C   0  0  0  0  0  0  0  0  0  0  0  0
  185.5410  177.1660  143.2550 C   0  0  0  0  0  3  0  0  0  0  0  0
  190.4400  172.6730  138.7410 C   0  0  1  0  0  3  0  0  0  0  0  0
  192.6010  172.4820  139.8970 N   0  0  0  0  0  2  0  0  0  0  0  0
  190.0660  170.5120  141.7390 F   0  0  0  0  0  0  0  0  0  0  0  0
  189.5840  173.5700  138.1310 F   0  0  0  0  0  0  0  0  0  0  0  0
  191.6650  173.4160  139.2650 C   0  0  0  0  0  2  0  0  0  0  0  0
  190.6880  171.0700  140.6360 C   0  0  2  0  0  3  0  0  0  0  0  0
  191.9780  171.8040  141.0410 C   0  0  2  0  0  3  0  0  0  0  0  0
  189.7240  171.9970  139.9010 C   0  0  0  0  0  2  0  0  0  0  0  0
  1 11  1  0  0  0  0
  2  7  1  0  0  0  0
  3  2  1  0  0  0  0
  3  9  1  0  0  0  0
  5 16  1  0  0  0  0
  5  4  2  0  0  0  0
  6  9  2  0  0  0  0
  6 13  1  0  0  0  0
  7 17  1  0  0  0  0
  8  1  1  0  0  0  0
 10 15  1  0  0  0  0
 10 14  2  0  0  0  0
 12 21  2  0  0  0  0
 12 22  1  0  0  0  0
 14 19  1  0  0  0  0
 15  2  2  0  0  0  0
 16 10  1  0  0  0  0
 17  1  2  0  0  0  0
 18  6  1  0  0  0  0
 19  7  2  0  0  0  0
 19 20  1  0  0  0  0
 20  8  2  0  0  0  0
 21 15  1  0  0  0  0
 22  3  2  0  0  0  0
 23 22  1  0  0  0  0
 23 18  2  0  0  0  0
 24 27  1  1  0  0  0
 24 28  1  0  0  0  0
 24 31  1  0  0  0  0
 25 30  1  0  0  0  0
 28 25  1  0  0  0  0
 29 30  1  0  0  0  0
 29 26  1  1  0  0  0
 30  5  1  1  0  0  0
 31 29  1  0  0  0  0
M  END
>  <MODEL>
8

>  <REMARK>
 VINA RESULT:      -8.2      3.737      5.163
  Name = 
  1 active torsions:
  status: ('A' for Active; 'I' for Inactive)
    1  A    between atoms: C_5  and  C_30
                            x       y       z     vdW  Elec       q    Type
                         _______ _______ _______ _____ _____    ______ ____

>  <TORSDO>
F 1

$$$$
=
 OpenBabel11112416573D

 31 35  0  0  1  0  0  0  0  0999 V2000
  188.1450  174.4880  138.9430 C   0  0  0  0  0  0  0  0  0  0  0  0
  188.3980  176.0580  142.3560 C   0  0  0  0  0  0  0  0  0  0  0  0
  187.3220  176.9870  142.4760 C   0  0  0  0  0  0  0  0  0  0  0  0
  192.6710  173.2800  143.7180 O   0  0  0  0  0  0  0  0  0  0  0  0
  192.3590  174.0550  144.6600 C   0  0  0  0  0  0  0  0  0  0  0  0
  185.3450  178.1320  141.6150 C   0  0  0  0  0  0  0  0  0  0  0  0
  188.6550  175.2530  141.2060 C   0  0  0  0  0  0  0  0  0  0  0  0
  189.2380  173.6240  138.9750 C   0  0  0  0  0  3  0  0  0  0  0  0
  186.3830  177.2120  141.4550 C   0  0  0  0  0  3  0  0  0  0  0  0
  190.3510  175.0380  143.4210 C   0  0  0  0  0  0  0  0  0  0  0  0
  187.3610  174.5470  137.8410 F   0  0  0  0  0  0  0  0  0  0  0  0
  188.0650  177.5380  144.6890 N   0  0  0  0  0  0  0  0  0  0  0  0
  184.4320  178.3350  140.5890 O   0  0  0  0  0  1  0  0  0  0  0  0
  190.5630  174.2890  142.3100 N   0  0  0  0  0  0  0  0  0  0  0  0
  189.2720  175.9300  143.4660 C   0  0  0  0  0  0  0  0  0  0  0  0
  191.2240  174.9230  144.5540 N   0  0  0  0  0  2  0  0  0  0  0  0
  187.8580  175.2920  140.0470 C   0  0  0  0  0  3  0  0  0  0  0  0
  185.2250  178.8480  142.8070 C   0  0  0  0  0  3  0  0  0  0  0  0
  189.7620  174.3680  141.2210 C   0  0  0  0  0  0  0  0  0  0  0  0
  190.0450  173.5640  140.1110 C   0  0  0  0  0  3  0  0  0  0  0  0
  189.0700  176.6740  144.5850 N   0  0  0  0  0  0  0  0  0  0  0  0
  187.1840  177.7220  143.6780 C   0  0  0  0  0  0  0  0  0  0  0  0
  186.1440  178.6430  143.8360 C   0  0  0  0  0  3  0  0  0  0  0  0
  194.4880  176.5800  146.4370 C   0  0  1  0  0  3  0  0  0  0  0  0
  192.6790  174.9850  146.9200 N   0  0  0  0  0  2  0  0  0  0  0  0
  195.1400  173.3770  144.6720 F   0  0  0  0  0  0  0  0  0  0  0  0
  194.7470  177.8940  146.1000 F   0  0  0  0  0  0  0  0  0  0  0  0
  192.9810  176.3690  146.5420 C   0  0  0  0  0  2  0  0  0  0  0  0
  194.6960  174.2110  145.6820 C   0  0  2  0  0  3  0  0  0  0  0  0
  193.1860  174.0410  145.9160 C   0  0  2  0  0  3  0  0  0  0  0  0
  195.0550  175.6600  145.3660 C   0  0  0  0  0  2  0  0  0  0  0  0
  1  8  2  0  0  0  0
  1 17  1  0  0  0  0
  2  3  2  0  0  0  0
  2 15  1  0  0  0  0
  3 22  1  0  0  0  0
  4  5  2  0  0  0  0
  6 18  1  0  0  0  0
  7 19  1  0  0  0  0
  7  2  1  0  0  0  0
  8 20  1  0  0  0  0
  9  6  2  0  0  0  0
  9  3  1  0  0  0  0
 10 15  1  0  0  0  0
 10 16  1  0  0  0  0
 11  1  1  0  0  0  0
 13  6  1  0  0  0  0
 14 10  2  0  0  0  0
 15 21  2  0  0  0  0
 16  5  1  0  0  0  0
 17  7  2  0  0  0  0
 18 23  2  0  0  0  0
 19 14  1  0  0  0  0
 20 19  2  0  0  0  0
 21 12  1  0  0  0  0
 22 23  1  0  0  0  0
 22 12  2  0  0  0  0
 24 27  1  6  0  0  0
 24 28  1  0  0  0  0
 28 25  1  0  0  0  0
 29 26  1  6  0  0  0
 29 30  1  0  0  0  0
 30  5  1  6  0  0  0
 30 25  1  0  0  0  0
 31 29  1  0  0  0  0
 31 24  1  0  0  0  0
M  END
>  <MODEL>
9

>  <REMARK>
 VINA RESULT:      -8.1      3.115      4.833
  Name = 
  1 active torsions:
  status: ('A' for Active; 'I' for Inactive)
    1  A    between atoms: C_5  and  C_30
                            x       y       z     vdW  Elec       q    Type
                         _______ _______ _______ _____ _____    ______ ____

>  <TORSDO>
F 1

$$$$
