=
 OpenBabel11112417363D

 28 31  0  0  1  0  0  0  0  0999 V2000
  187.7940  177.6050  144.5330 C   0  0  0  0  0  0  0  0  0  0  0  0
  190.6910  177.8320  147.3390 O   0  0  0  0  0  0  0  0  0  0  0  0
  185.7000  177.0480  146.3050 C   0  0  0  0  0  3  0  0  0  0  0  0
  188.8400  177.8730  143.6510 O   0  0  0  0  0  0  0  0  0  0  0  0
  190.4560  175.4620  147.9600 O   0  0  0  0  0  0  0  0  0  0  0  0
  191.0070  176.4190  146.9400 S   0  0  0  0  0  0  0  0  0  0  0  0
  193.2270  176.0830  145.3300 C   0  0  0  0  0  0  0  0  0  0  0  0
  190.3490  176.0770  145.3320 C   0  0  1  0  0  3  0  0  0  0  0  0
  186.7770  177.1000  141.4100 C   0  0  0  0  0  1  0  0  0  0  0  0
  189.0550  174.6110  143.9770 C   0  0  2  0  0  3  0  0  0  0  0  0
  192.4940  175.5200  144.4220 N   0  0  0  0  0  0  0  0  0  0  0  0
  192.7850  176.1940  146.7830 C   0  0  0  0  0  2  0  0  0  0  0  0
  188.2310  177.2150  141.4310 N   0  0  0  0  0  0  0  0  0  0  0  0
  187.8560  176.4640  145.3570 C   0  0  0  0  0  0  0  0  0  0  0  0
  194.5530  176.6390  144.9470 C   0  0  0  0  0  1  0  0  0  0  0  0
  188.9100  175.9470  141.7670 C   0  0  0  0  0  2  0  0  0  0  0  0
  186.8030  176.1930  146.2360 C   0  0  0  0  0  3  0  0  0  0  0  0
  186.6800  178.4540  144.5980 C   0  0  0  0  0  3  0  0  0  0  0  0
  185.6370  178.1760  145.4850 C   0  0  0  0  0  3  0  0  0  0  0  0
  188.6260  178.3170  142.3150 C   0  0  0  0  0  2  0  0  0  0  0  0
  190.4700  174.4810  143.5920 N   0  0  0  0  0  0  0  0  0  0  0  0
  188.1690  175.0740  142.8010 C   0  0  1  0  0  3  0  0  0  0  0  0
  191.1910  174.9890  144.7500 C   0  0  2  0  0  3  0  0  0  0  0  0
  188.9810  175.4650  145.2670 C   0  0  2  0  0  3  0  0  0  0  0  0
  188.3540  173.8290  140.9780 C   0  0  0  0  0  1  0  0  0  0  0  0
  187.6230  173.9600  142.1600 O   0  0  0  0  0  0  0  0  0  0  0  0
  190.7520  173.0560  143.4990 C   0  0  0  0  0  2  0  0  0  0  0  0
  189.9800  172.3110  144.5700 C   0  0  0  0  0  1  0  0  0  0  0  0
  1 18  2  0  0  0  0
  1 14  1  0  0  0  0
  4  1  1  0  0  0  0
  6  2  2  0  0  0  0
  6  5  2  0  0  0  0
  7 12  1  0  0  0  0
  8  6  1  1  0  0  0
  9 13  1  0  0  0  0
 10 21  1  6  0  0  0
 10 24  1  0  0  0  0
 11  7  2  0  0  0  0
 12  6  1  0  0  0  0
 13 16  1  0  0  0  0
 13 20  1  0  0  0  0
 14 17  2  0  0  0  0
 15  7  1  0  0  0  0
 16 22  1  0  0  0  0
 17  3  1  0  0  0  0
 18 19  1  0  0  0  0
 19  3  2  0  0  0  0
 20  4  1  0  0  0  0
 21 23  1  0  0  0  0
 22 26  1  6  0  0  0
 22 10  1  0  0  0  0
 23 11  1  6  0  0  0
 23  8  1  0  0  0  0
 24  8  1  0  0  0  0
 24 14  1  6  0  0  0
 25 26  1  0  0  0  0
 27 21  1  0  0  0  0
 27 28  1  0  0  0  0
M  END
>  <MODEL>
1

>  <REMARK>
 VINA RESULT:      -7.3      0.000      0.000
  Name = 
  2 active torsions:
  status: ('A' for Active; 'I' for Inactive)
    1  A    between atoms: C_5  and  N_24
    2  A    between atoms: O_17  and  C_25
                            x       y       z     vdW  Elec       q    Type
                         _______ _______ _______ _____ _____    ______ ____

>  <TORSDO>
F 2

$$$$
=
 OpenBabel11112417363D

 28 31  0  0  1  0  0  0  0  0999 V2000
  189.3260  176.2710  144.7100 C   0  0  0  0  0  0  0  0  0  0  0  0
  193.2490  176.8130  145.5070 O   0  0  0  0  0  0  0  0  0  0  0  0
  188.6590  175.1810  147.2010 C   0  0  0  0  0  3  0  0  0  0  0  0
  189.6620  176.8050  143.4660 O   0  0  0  0  0  0  0  0  0  0  0  0
  193.6700  174.3980  145.7330 O   0  0  0  0  0  0  0  0  0  0  0  0
  193.4450  175.5230  144.7620 S   0  0  0  0  0  0  0  0  0  0  0  0
  194.4060  175.7510  142.1810 C   0  0  0  0  0  0  0  0  0  0  0  0
  192.0440  175.1970  143.7300 C   0  0  1  0  0  3  0  0  0  0  0  0
  186.8020  175.8410  142.5920 C   0  0  0  0  0  1  0  0  0  0  0  0
  190.3890  173.6280  143.0510 C   0  0  2  0  0  3  0  0  0  0  0  0
  193.3600  175.1360  141.7290 N   0  0  0  0  0  0  0  0  0  0  0  0
  194.8430  175.6550  143.6370 C   0  0  0  0  0  2  0  0  0  0  0  0
  187.9960  176.2290  141.8470 N   0  0  0  0  0  0  0  0  0  0  0  0
  189.9670  175.0990  145.1570 C   0  0  0  0  0  0  0  0  0  0  0  0
  195.2190  176.5790  141.2490 C   0  0  0  0  0  1  0  0  0  0  0  0
  188.8830  175.0900  141.5380 C   0  0  0  0  0  2  0  0  0  0  0  0
  189.6230  174.5600  146.4010 C   0  0  0  0  0  3  0  0  0  0  0  0
  188.3520  176.8840  145.5100 C   0  0  0  0  0  3  0  0  0  0  0  0
  188.0230  176.3400  146.7540 C   0  0  0  0  0  3  0  0  0  0  0  0
  188.6900  177.3090  142.5570 C   0  0  0  0  0  2  0  0  0  0  0  0
  191.3500  173.8020  141.9500 N   0  0  0  0  0  0  0  0  0  0  0  0
  188.9510  174.0090  142.6380 C   0  0  1  0  0  3  0  0  0  0  0  0
  192.5330  174.3410  142.6060 C   0  0  2  0  0  3  0  0  0  0  0  0
  190.9530  174.3430  144.3040 C   0  0  2  0  0  3  0  0  0  0  0  0
  188.1750  173.0060  140.8230 C   0  0  0  0  0  1  0  0  0  0  0  0
  188.2700  172.8690  142.2080 O   0  0  0  0  0  0  0  0  0  0  0  0
  191.6910  172.4700  141.4740 C   0  0  0  0  0  2  0  0  0  0  0  0
  191.7060  172.4580  139.9580 C   0  0  0  0  0  1  0  0  0  0  0  0
  1 14  2  0  0  0  0
  1 18  1  0  0  0  0
  4  1  1  0  0  0  0
  6  2  2  0  0  0  0
  6  5  2  0  0  0  0
  7 12  1  0  0  0  0
  8 24  1  0  0  0  0
  8  6  1  1  0  0  0
 10 21  1  6  0  0  0
 10 24  1  0  0  0  0
 11  7  2  0  0  0  0
 12  6  1  0  0  0  0
 13 20  1  0  0  0  0
 13  9  1  0  0  0  0
 14 17  1  0  0  0  0
 15  7  1  0  0  0  0
 16 13  1  0  0  0  0
 16 22  1  0  0  0  0
 17  3  2  0  0  0  0
 18 19  2  0  0  0  0
 19  3  1  0  0  0  0
 20  4  1  0  0  0  0
 21 23  1  0  0  0  0
 22 26  1  6  0  0  0
 22 10  1  0  0  0  0
 23 11  1  6  0  0  0
 23  8  1  0  0  0  0
 24 14  1  6  0  0  0
 25 26  1  0  0  0  0
 27 21  1  0  0  0  0
 28 27  1  0  0  0  0
M  END
>  <MODEL>
2

>  <REMARK>
 VINA RESULT:      -7.0      2.126      2.714
  Name = 
  2 active torsions:
  status: ('A' for Active; 'I' for Inactive)
    1  A    between atoms: C_5  and  N_24
    2  A    between atoms: O_17  and  C_25
                            x       y       z     vdW  Elec       q    Type
                         _______ _______ _______ _____ _____    ______ ____

>  <TORSDO>
F 2

$$$$
=
 OpenBabel11112417363D

 28 31  0  0  1  0  0  0  0  0999 V2000
  190.8570  176.7850  145.0340 C   0  0  0  0  0  0  0  0  0  0  0  0
  194.8080  177.5400  145.4030 O   0  0  0  0  0  0  0  0  0  0  0  0
  190.3980  176.2430  147.7410 C   0  0  0  0  0  3  0  0  0  0  0  0
  191.0900  177.0460  143.6840 O   0  0  0  0  0  0  0  0  0  0  0  0
  195.3160  175.2350  146.1040 O   0  0  0  0  0  0  0  0  0  0  0  0
  194.9900  176.1240  144.9360 S   0  0  0  0  0  0  0  0  0  0  0  0
  195.7620  175.8080  142.3010 C   0  0  0  0  0  0  0  0  0  0  0  0
  193.5310  175.5640  144.1040 C   0  0  1  0  0  3  0  0  0  0  0  0
  188.2050  175.8770  143.2490 C   0  0  0  0  0  1  0  0  0  0  0  0
  191.8800  173.8640  143.8990 C   0  0  2  0  0  3  0  0  0  0  0  0
  194.7050  175.0960  142.0690 N   0  0  0  0  0  0  0  0  0  0  0  0
  196.3010  176.0320  143.7080 C   0  0  0  0  0  2  0  0  0  0  0  0
  189.3320  176.1130  142.3520 N   0  0  0  0  0  0  0  0  0  0  0  0
  191.5620  175.7440  145.6700 C   0  0  0  0  0  0  0  0  0  0  0  0
  196.4820  176.4290  141.1580 C   0  0  0  0  0  1  0  0  0  0  0  0
  190.2290  174.9470  142.2270 C   0  0  0  0  0  2  0  0  0  0  0  0
  191.3220  175.4790  147.0230 C   0  0  0  0  0  3  0  0  0  0  0  0
  189.9230  177.5400  145.7560 C   0  0  0  0  0  3  0  0  0  0  0  0
  189.6980  177.2710  147.1080 C   0  0  0  0  0  3  0  0  0  0  0  0
  190.0420  177.3300  142.7630 C   0  0  0  0  0  2  0  0  0  0  0  0
  192.7560  173.8120  142.7170 N   0  0  0  0  0  0  0  0  0  0  0  0
  190.4060  174.1280  143.5220 C   0  0  1  0  0  3  0  0  0  0  0  0
  193.9650  174.4950  143.1540 C   0  0  2  0  0  3  0  0  0  0  0  0
  192.5080  174.8380  144.9250 C   0  0  2  0  0  3  0  0  0  0  0  0
  189.8720  172.2910  144.6380 C   0  0  0  0  0  1  0  0  0  0  0  0
  189.7310  172.9120  143.3960 O   0  0  0  0  0  0  0  0  0  0  0  0
  193.1020  172.4140  142.5100 C   0  0  0  0  0  2  0  0  0  0  0  0
  192.4340  171.9040  141.2480 C   0  0  0  0  0  1  0  0  0  0  0  0
  1 14  2  0  0  0  0
  1 18  1  0  0  0  0
  4  1  1  0  0  0  0
  6  2  2  0  0  0  0
  6  5  2  0  0  0  0
  7 12  1  0  0  0  0
  8 24  1  0  0  0  0
  8  6  1  1  0  0  0
 10 21  1  6  0  0  0
 10 24  1  0  0  0  0
 11  7  2  0  0  0  0
 12  6  1  0  0  0  0
 13 20  1  0  0  0  0
 13  9  1  0  0  0  0
 14 17  1  0  0  0  0
 15  7  1  0  0  0  0
 16 13  1  0  0  0  0
 16 22  1  0  0  0  0
 17  3  2  0  0  0  0
 18 19  2  0  0  0  0
 19  3  1  0  0  0  0
 20  4  1  0  0  0  0
 21 23  1  0  0  0  0
 22 26  1  6  0  0  0
 22 10  1  0  0  0  0
 23 11  1  6  0  0  0
 23  8  1  0  0  0  0
 24 14  1  6  0  0  0
 26 25  1  0  0  0  0
 27 21  1  0  0  0  0
 28 27  1  0  0  0  0
M  END
>  <MODEL>
3

>  <REMARK>
 VINA RESULT:      -6.9      2.599      3.615
  Name = 
  2 active torsions:
  status: ('A' for Active; 'I' for Inactive)
    1  A    between atoms: C_5  and  N_24
    2  A    between atoms: O_17  and  C_25
                            x       y       z     vdW  Elec       q    Type
                         _______ _______ _______ _____ _____    ______ ____

>  <TORSDO>
F 2

$$$$
=
 OpenBabel11112417363D

 28 31  0  0  1  0  0  0  0  0999 V2000
  188.5940  175.8450  145.0240 C   0  0  0  0  0  0  0  0  0  0  0  0
  187.2980  173.4850  142.0130 O   0  0  0  0  0  0  0  0  0  0  0  0
  187.1590  178.1240  144.2620 C   0  0  0  0  0  3  0  0  0  0  0  0
  189.3160  174.7110  145.3970 O   0  0  0  0  0  0  0  0  0  0  0  0
  188.3800  174.8690  140.2880 O   0  0  0  0  0  0  0  0  0  0  0  0
  188.6020  173.8310  141.3530 S   0  0  0  0  0  0  0  0  0  0  0  0
  190.5550  171.8780  141.4330 C   0  0  0  0  0  0  0  0  0  0  0  0
  189.7630  174.4050  142.5620 C   0  0  1  0  0  3  0  0  0  0  0  0
  190.8160  176.6550  147.3600 C   0  0  0  0  0  1  0  0  0  0  0  0
  191.3210  176.0900  143.1880 C   0  0  2  0  0  3  0  0  0  0  0  0
  191.3560  172.6930  142.0430 N   0  0  0  0  0  0  0  0  0  0  0  0
  189.3520  172.3630  140.6350 C   0  0  0  0  0  2  0  0  0  0  0  0
  191.1260  175.3270  146.8380 N   0  0  0  0  0  0  0  0  0  0  0  0
  188.8000  176.4110  143.7500 C   0  0  0  0  0  0  0  0  0  0  0  0
  190.8160  170.4150  141.5060 C   0  0  0  0  0  1  0  0  0  0  0  0
  191.9250  175.3630  145.5970 C   0  0  0  0  0  2  0  0  0  0  0  0
  188.0810  177.5520  143.3810 C   0  0  0  0  0  3  0  0  0  0  0  0
  187.6770  176.4300  145.9080 C   0  0  0  0  0  3  0  0  0  0  0  0
  186.9590  177.5650  145.5250 C   0  0  0  0  0  3  0  0  0  0  0  0
  189.8880  174.5540  146.6900 C   0  0  0  0  0  2  0  0  0  0  0  0
  192.0660  174.8710  142.8300 N   0  0  0  0  0  0  0  0  0  0  0  0
  191.5840  176.5290  144.6450 C   0  0  1  0  0  3  0  0  0  0  0  0
  191.1240  174.1180  142.0150 C   0  0  2  0  0  3  0  0  0  0  0  0
  189.8390  175.8850  142.7920 C   0  0  2  0  0  3  0  0  0  0  0  0
  193.7010  176.7920  145.2410 C   0  0  0  0  0  1  0  0  0  0  0  0
  192.6200  177.4650  144.6710 O   0  0  0  0  0  0  0  0  0  0  0  0
  193.1560  175.2830  141.9600 C   0  0  0  0  0  2  0  0  0  0  0  0
  194.4390  174.5960  142.3860 C   0  0  0  0  0  1  0  0  0  0  0  0
  1  4  1  0  0  0  0
  1 18  1  0  0  0  0
  3 19  1  0  0  0  0
  4 20  1  0  0  0  0
  5  6  2  0  0  0  0
  6  2  2  0  0  0  0
  7 15  1  0  0  0  0
  7 11  2  0  0  0  0
  8  6  1  6  0  0  0
  8 24  1  0  0  0  0
 10 21  1  1  0  0  0
 10 22  1  0  0  0  0
 12  6  1  0  0  0  0
 12  7  1  0  0  0  0
 13  9  1  0  0  0  0
 14  1  2  0  0  0  0
 16 13  1  0  0  0  0
 17 14  1  0  0  0  0
 17  3  2  0  0  0  0
 19 18  2  0  0  0  0
 20 13  1  0  0  0  0
 22 26  1  6  0  0  0
 22 16  1  0  0  0  0
 23 11  1  1  0  0  0
 23  8  1  0  0  0  0
 23 21  1  0  0  0  0
 24 10  1  0  0  0  0
 24 14  1  1  0  0  0
 26 25  1  0  0  0  0
 27 28  1  0  0  0  0
 27 21  1  0  0  0  0
M  END
>  <MODEL>
4

>  <REMARK>
 VINA RESULT:      -6.8      2.385      5.166
  Name = 
  2 active torsions:
  status: ('A' for Active; 'I' for Inactive)
    1  A    between atoms: C_5  and  N_24
    2  A    between atoms: O_17  and  C_25
                            x       y       z     vdW  Elec       q    Type
                         _______ _______ _______ _____ _____    ______ ____

>  <TORSDO>
F 2

$$$$
=
 OpenBabel11112417363D

 28 31  0  0  1  0  0  0  0  0999 V2000
  191.1020  173.6920  144.2450 C   0  0  0  0  0  0  0  0  0  0  0  0
  189.9580  176.6490  146.7490 O   0  0  0  0  0  0  0  0  0  0  0  0
  193.6950  174.6530  143.8070 C   0  0  0  0  0  3  0  0  0  0  0  0
  189.8070  173.2210  144.4560 O   0  0  0  0  0  0  0  0  0  0  0  0
  190.1480  178.3760  145.0050 O   0  0  0  0  0  0  0  0  0  0  0  0
  189.3070  177.2480  145.5350 S   0  0  0  0  0  0  0  0  0  0  0  0
  186.5650  176.9550  145.3620 C   0  0  0  0  0  0  0  0  0  0  0  0
  189.0650  176.0050  144.2970 C   0  0  1  0  0  3  0  0  0  0  0  0
  190.4250  171.2760  142.0650 C   0  0  0  0  0  1  0  0  0  0  0  0
  189.3470  175.3770  142.0200 C   0  0  2  0  0  3  0  0  0  0  0  0
  186.6940  176.3420  144.2280 N   0  0  0  0  0  0  0  0  0  0  0  0
  187.6590  177.8450  145.9370 C   0  0  0  0  0  2  0  0  0  0  0  0
  189.1870  171.7100  142.7050 N   0  0  0  0  0  0  0  0  0  0  0  0
  191.2920  174.9790  143.7040 C   0  0  0  0  0  0  0  0  0  0  0  0
  185.3040  176.7910  146.1340 C   0  0  0  0  0  1  0  0  0  0  0  0
  188.5920  172.9030  142.0710 C   0  0  0  0  0  2  0  0  0  0  0  0
  192.5920  175.4480  143.4850 C   0  0  0  0  0  3  0  0  0  0  0  0
  192.2120  172.8940  144.5550 C   0  0  0  0  0  3  0  0  0  0  0  0
  193.5050  173.3760  144.3390 C   0  0  0  0  0  3  0  0  0  0  0  0
  189.4120  171.8890  144.1440 C   0  0  0  0  0  2  0  0  0  0  0  0
  187.9180  175.6270  142.2640 N   0  0  0  0  0  0  0  0  0  0  0  0
  189.6150  173.9320  141.5460 C   0  0  1  0  0  3  0  0  0  0  0  0
  187.9120  176.4570  143.4600 C   0  0  2  0  0  3  0  0  0  0  0  0
  190.1400  175.8470  143.2630 C   0  0  2  0  0  3  0  0  0  0  0  0
  188.4530  173.2470  139.7900 C   0  0  0  0  0  1  0  0  0  0  0  0
  189.6360  173.8930  140.1510 O   0  0  0  0  0  0  0  0  0  0  0  0
  187.4410  176.4530  141.1640 C   0  0  0  0  0  2  0  0  0  0  0  0
  187.8330  177.8980  141.4030 C   0  0  0  0  0  1  0  0  0  0  0  0
  1  4  1  0  0  0  0
  1 18  1  0  0  0  0
  3 19  1  0  0  0  0
  5  6  2  0  0  0  0
  6 12  1  0  0  0  0
  6  2  2  0  0  0  0
  7 12  1  0  0  0  0
  7 15  1  0  0  0  0
  8  6  1  1  0  0  0
  9 13  1  0  0  0  0
 10 21  1  1  0  0  0
 10 24  1  0  0  0  0
 11  7  2  0  0  0  0
 13 20  1  0  0  0  0
 14  1  2  0  0  0  0
 16 13  1  0  0  0  0
 17 14  1  0  0  0  0
 17  3  2  0  0  0  0
 19 18  2  0  0  0  0
 20  4  1  0  0  0  0
 21 23  1  0  0  0  0
 22 26  1  6  0  0  0
 22 10  1  0  0  0  0
 22 16  1  0  0  0  0
 23 11  1  1  0  0  0
 23  8  1  0  0  0  0
 24 14  1  1  0  0  0
 24  8  1  0  0  0  0
 25 26  1  0  0  0  0
 27 28  1  0  0  0  0
 27 21  1  0  0  0  0
M  END
>  <MODEL>
5

>  <REMARK>
 VINA RESULT:      -6.7      1.980      5.391
  Name = 
  2 active torsions:
  status: ('A' for Active; 'I' for Inactive)
    1  A    between atoms: C_5  and  N_24
    2  A    between atoms: O_17  and  C_25
                            x       y       z     vdW  Elec       q    Type
                         _______ _______ _______ _____ _____    ______ ____

>  <TORSDO>
F 2

$$$$
=
 OpenBabel11112417363D

 28 31  0  0  1  0  0  0  0  0999 V2000
  192.8870  174.0480  143.8360 C   0  0  0  0  0  0  0  0  0  0  0  0
  190.1530  173.7650  140.8750 O   0  0  0  0  0  0  0  0  0  0  0  0
  193.1760  171.2930  144.2450 C   0  0  0  0  0  3  0  0  0  0  0  0
  192.7350  175.4190  143.6370 O   0  0  0  0  0  0  0  0  0  0  0  0
  188.4660  172.7490  142.3540 O   0  0  0  0  0  0  0  0  0  0  0  0
  189.1450  174.0310  141.9570 S   0  0  0  0  0  0  0  0  0  0  0  0
  188.1130  176.5920  142.0460 C   0  0  0  0  0  0  0  0  0  0  0  0
  189.9340  174.7860  143.3520 C   0  0  1  0  0  3  0  0  0  0  0  0
  194.3590  175.7040  146.3130 C   0  0  0  0  0  1  0  0  0  0  0  0
  190.2690  174.7620  145.7070 C   0  0  2  0  0  3  0  0  0  0  0  0
  188.5370  176.7300  143.2620 N   0  0  0  0  0  0  0  0  0  0  0  0
  187.9250  175.2270  141.3970 C   0  0  0  0  0  2  0  0  0  0  0  0
  193.5060  176.6180  145.5600 N   0  0  0  0  0  0  0  0  0  0  0  0
  191.7680  173.2690  144.1890 C   0  0  0  0  0  0  0  0  0  0  0  0
  187.7910  177.8070  141.2500 C   0  0  0  0  0  1  0  0  0  0  0  0
  192.0930  176.5770  145.9850 C   0  0  0  0  0  2  0  0  0  0  0  0
  191.9240  171.8950  144.3960 C   0  0  0  0  0  3  0  0  0  0  0  0
  194.1440  173.4410  143.6970 C   0  0  0  0  0  3  0  0  0  0  0  0
  194.2850  172.0660  143.8980 C   0  0  0  0  0  3  0  0  0  0  0  0
  193.6700  176.3760  144.1230 C   0  0  0  0  0  2  0  0  0  0  0  0
  189.4280  175.9200  145.3640 N   0  0  0  0  0  0  0  0  0  0  0  0
  191.5850  175.1800  146.3990 C   0  0  1  0  0  3  0  0  0  0  0  0
  188.8810  175.5760  144.0600 C   0  0  2  0  0  3  0  0  0  0  0  0
  190.4120  173.8770  144.4450 C   0  0  2  0  0  3  0  0  0  0  0  0
  191.3820  176.4770  148.1830 C   0  0  0  0  0  1  0  0  0  0  0  0
  191.4170  175.1400  147.7850 O   0  0  0  0  0  0  0  0  0  0  0  0
  188.3200  175.9310  146.3080 C   0  0  0  0  0  2  0  0  0  0  0  0
  188.0530  177.3510  146.7670 C   0  0  0  0  0  1  0  0  0  0  0  0
  1 14  1  0  0  0  0
  2  6  2  0  0  0  0
  3 17  1  0  0  0  0
  4  1  1  0  0  0  0
  4 20  1  0  0  0  0
  6  5  2  0  0  0  0
  7 11  2  0  0  0  0
  8  6  1  6  0  0  0
  8 23  1  0  0  0  0
  8 24  1  0  0  0  0
 10 21  1  6  0  0  0
 10 22  1  0  0  0  0
 12  6  1  0  0  0  0
 12  7  1  0  0  0  0
 13 16  1  0  0  0  0
 13  9  1  0  0  0  0
 14 17  2  0  0  0  0
 15  7  1  0  0  0  0
 16 22  1  0  0  0  0
 18  1  2  0  0  0  0
 18 19  1  0  0  0  0
 19  3  2  0  0  0  0
 20 13  1  0  0  0  0
 21 27  1  0  0  0  0
 22 26  1  1  0  0  0
 23 11  1  6  0  0  0
 23 21  1  0  0  0  0
 24 14  1  6  0  0  0
 24 10  1  0  0  0  0
 26 25  1  0  0  0  0
 27 28  1  0  0  0  0
M  END
>  <MODEL>
6

>  <REMARK>
 VINA RESULT:      -6.6      2.310      6.391
  Name = 
  2 active torsions:
  status: ('A' for Active; 'I' for Inactive)
    1  A    between atoms: C_5  and  N_24
    2  A    between atoms: O_17  and  C_25
                            x       y       z     vdW  Elec       q    Type
                         _______ _______ _______ _____ _____    ______ ____

>  <TORSDO>
F 2

$$$$
=
 OpenBabel11112417363D

 28 31  0  0  1  0  0  0  0  0999 V2000
  189.1890  175.6800  144.8690 C   0  0  0  0  0  0  0  0  0  0  0  0
  188.6250  172.8940  141.9980 O   0  0  0  0  0  0  0  0  0  0  0  0
  188.1430  177.8300  143.4130 C   0  0  0  0  0  3  0  0  0  0  0  0
  189.7190  174.6090  145.5880 O   0  0  0  0  0  0  0  0  0  0  0  0
  190.2090  173.9760  140.4540 O   0  0  0  0  0  0  0  0  0  0  0  0
  190.0760  173.1150  141.6800 S   0  0  0  0  0  0  0  0  0  0  0  0
  191.8220  171.1720  142.5820 C   0  0  0  0  0  0  0  0  0  0  0  0
  190.8970  173.8560  143.0640 C   0  0  1  0  0  3  0  0  0  0  0  0
  190.7380  176.8160  147.5810 C   0  0  0  0  0  1  0  0  0  0  0  0
  192.3200  175.5960  143.8410 C   0  0  2  0  0  3  0  0  0  0  0  0
  192.4730  172.0620  143.2630 N   0  0  0  0  0  0  0  0  0  0  0  0
  190.9080  171.5420  141.4210 C   0  0  0  0  0  2  0  0  0  0  0  0
  191.1030  175.4190  147.3660 N   0  0  0  0  0  0  0  0  0  0  0  0
  189.7630  176.0360  143.6320 C   0  0  0  0  0  0  0  0  0  0  0  0
  191.9720  169.7360  142.9390 C   0  0  0  0  0  1  0  0  0  0  0  0
  192.2080  175.2490  146.4020 C   0  0  0  0  0  2  0  0  0  0  0  0
  189.2350  177.1150  142.9150 C   0  0  0  0  0  3  0  0  0  0  0  0
  188.1010  176.4080  145.3690 C   0  0  0  0  0  3  0  0  0  0  0  0
  187.5780  177.4790  144.6400 C   0  0  0  0  0  3  0  0  0  0  0  0
  189.9100  174.6490  146.9980 C   0  0  0  0  0  2  0  0  0  0  0  0
  193.0640  174.3270  143.8850 N   0  0  0  0  0  0  0  0  0  0  0  0
  192.2040  176.2550  145.2320 C   0  0  1  0  0  3  0  0  0  0  0  0
  192.3370  173.4680  142.9620 C   0  0  2  0  0  3  0  0  0  0  0  0
  190.9910  175.3520  143.0860 C   0  0  2  0  0  3  0  0  0  0  0  0
  194.0700  176.5990  146.3750 C   0  0  0  0  0  1  0  0  0  0  0  0
  193.2440  177.1700  145.4050 O   0  0  0  0  0  0  0  0  0  0  0  0
  194.3710  174.5830  143.2990 C   0  0  0  0  0  2  0  0  0  0  0  0
  195.4510  173.9730  144.1710 C   0  0  0  0  0  1  0  0  0  0  0  0
  1 18  1  0  0  0  0
  1  4  1  0  0  0  0
  3 19  1  0  0  0  0
  4 20  1  0  0  0  0
  5  6  2  0  0  0  0
  6  2  2  0  0  0  0
  7 15  1  0  0  0  0
  7 11  2  0  0  0  0
  8  6  1  6  0  0  0
  8 24  1  0  0  0  0
 10 21  1  1  0  0  0
 10 22  1  0  0  0  0
 12  6  1  0  0  0  0
 12  7  1  0  0  0  0
 13  9  1  0  0  0  0
 14  1  2  0  0  0  0
 16 13  1  0  0  0  0
 17  3  2  0  0  0  0
 17 14  1  0  0  0  0
 19 18  2  0  0  0  0
 20 13  1  0  0  0  0
 22 26  1  1  0  0  0
 22 16  1  0  0  0  0
 23  8  1  0  0  0  0
 23 11  1  1  0  0  0
 23 21  1  0  0  0  0
 24 14  1  1  0  0  0
 24 10  1  0  0  0  0
 26 25  1  0  0  0  0
 27 21  1  0  0  0  0
 27 28  1  0  0  0  0
M  END
>  <MODEL>
7

>  <REMARK>
 VINA RESULT:      -6.2      2.536      5.330
  Name = 
  2 active torsions:
  status: ('A' for Active; 'I' for Inactive)
    1  A    between atoms: C_5  and  N_24
    2  A    between atoms: O_17  and  C_25
                            x       y       z     vdW  Elec       q    Type
                         _______ _______ _______ _____ _____    ______ ____

>  <TORSDO>
F 2

$$$$
=
 OpenBabel11112417363D

 28 31  0  0  1  0  0  0  0  0999 V2000
  192.4080  174.2310  141.5570 C   0  0  0  0  0  0  0  0  0  0  0  0
  188.5480  174.7440  140.4810 O   0  0  0  0  0  0  0  0  0  0  0  0
  192.6100  171.5730  140.7020 C   0  0  0  0  0  3  0  0  0  0  0  0
  192.3020  175.5520  141.9910 O   0  0  0  0  0  0  0  0  0  0  0  0
  187.7410  173.0670  142.0930 O   0  0  0  0  0  0  0  0  0  0  0  0
  188.2450  174.4730  141.9280 S   0  0  0  0  0  0  0  0  0  0  0  0
  187.6330  176.6840  143.4690 C   0  0  0  0  0  0  0  0  0  0  0  0
  189.6890  174.7470  142.9150 C   0  0  1  0  0  3  0  0  0  0  0  0
  195.0640  175.0170  143.3930 C   0  0  0  0  0  1  0  0  0  0  0  0
  191.1530  173.8970  144.5860 C   0  0  2  0  0  3  0  0  0  0  0  0
  188.6180  176.4120  144.2640 N   0  0  0  0  0  0  0  0  0  0  0  0
  187.0220  175.6420  142.5410 C   0  0  0  0  0  2  0  0  0  0  0  0
  194.0370  176.0390  143.5680 N   0  0  0  0  0  0  0  0  0  0  0  0
  191.5490  173.2530  142.0960 C   0  0  0  0  0  0  0  0  0  0  0  0
  187.0690  178.0610  143.4600 C   0  0  0  0  0  1  0  0  0  0  0  0
  193.0280  175.6800  144.5840 C   0  0  0  0  0  2  0  0  0  0  0  0
  191.6610  171.9270  141.6650 C   0  0  0  0  0  3  0  0  0  0  0  0
  193.3660  173.8690  140.5990 C   0  0  0  0  0  3  0  0  0  0  0  0
  193.4630  172.5430  140.1710 C   0  0  0  0  0  3  0  0  0  0  0  0
  193.4380  176.3640  142.2690 C   0  0  0  0  0  2  0  0  0  0  0  0
  190.3620  174.9950  145.1680 N   0  0  0  0  0  0  0  0  0  0  0  0
  192.6700  174.1800  144.6360 C   0  0  1  0  0  3  0  0  0  0  0  0
  189.2080  175.0930  144.2870 C   0  0  2  0  0  3  0  0  0  0  0  0
  190.5640  173.5620  143.1940 C   0  0  2  0  0  3  0  0  0  0  0  0
  193.6780  172.3590  145.3920 C   0  0  0  0  0  1  0  0  0  0  0  0
  193.2140  173.6140  145.7900 O   0  0  0  0  0  0  0  0  0  0  0  0
  189.8800  174.5280  146.4590 C   0  0  0  0  0  2  0  0  0  0  0  0
  190.5470  175.3170  147.5690 C   0  0  0  0  0  1  0  0  0  0  0  0
  1  4  1  0  0  0  0
  1 14  1  0  0  0  0
  2  6  2  0  0  0  0
  3 17  1  0  0  0  0
  4 20  1  0  0  0  0
  6  5  2  0  0  0  0
  6 12  1  0  0  0  0
  7 11  2  0  0  0  0
  8  6  1  6  0  0  0
  8 24  1  0  0  0  0
  8 23  1  0  0  0  0
  9 13  1  0  0  0  0
 10 22  1  0  0  0  0
 10 21  1  6  0  0  0
 12  7  1  0  0  0  0
 13 16  1  0  0  0  0
 15  7  1  0  0  0  0
 16 22  1  0  0  0  0
 17 14  2  0  0  0  0
 18  1  2  0  0  0  0
 19 18  1  0  0  0  0
 19  3  2  0  0  0  0
 20 13  1  0  0  0  0
 21 27  1  0  0  0  0
 22 26  1  1  0  0  0
 23 11  1  6  0  0  0
 23 21  1  0  0  0  0
 24 14  1  6  0  0  0
 24 10  1  0  0  0  0
 25 26  1  0  0  0  0
 27 28  1  0  0  0  0
M  END
>  <MODEL>
8

>  <REMARK>
 VINA RESULT:      -6.2      2.692      6.345
  Name = 
  2 active torsions:
  status: ('A' for Active; 'I' for Inactive)
    1  A    between atoms: C_5  and  N_24
    2  A    between atoms: O_17  and  C_25
                            x       y       z     vdW  Elec       q    Type
                         _______ _______ _______ _____ _____    ______ ____

>  <TORSDO>
F 2

$$$$
=
 OpenBabel11112417363D

 28 31  0  0  1  0  0  0  0  0999 V2000
  194.4770  172.9530  143.4210 C   0  0  0  0  0  0  0  0  0  0  0  0
  190.9560  171.1290  142.6500 O   0  0  0  0  0  0  0  0  0  0  0  0
  195.0810  171.4820  145.7250 C   0  0  0  0  0  3  0  0  0  0  0  0
  194.1690  173.6910  142.2780 O   0  0  0  0  0  0  0  0  0  0  0  0
  189.9200  171.9650  144.7210 O   0  0  0  0  0  0  0  0  0  0  0  0
  190.3380  172.3220  143.3220 S   0  0  0  0  0  0  0  0  0  0  0  0
  189.2080  174.2050  141.6450 C   0  0  0  0  0  0  0  0  0  0  0  0
  191.4810  173.6750  143.3300 C   0  0  1  0  0  3  0  0  0  0  0  0
  196.5500  175.5380  143.1710 C   0  0  0  0  0  1  0  0  0  0  0  0
  192.5660  175.3620  144.6100 C   0  0  2  0  0  3  0  0  0  0  0  0
  189.9940  175.1160  142.1250 N   0  0  0  0  0  0  0  0  0  0  0  0
  188.9190  172.9050  142.3840 C   0  0  0  0  0  2  0  0  0  0  0  0
  195.4350  175.7230  142.2480 N   0  0  0  0  0  0  0  0  0  0  0  0
  193.5920  172.9710  144.5180 C   0  0  0  0  0  0  0  0  0  0  0  0
  188.5580  174.4320  140.3260 C   0  0  0  0  0  1  0  0  0  0  0  0
  194.2440  176.3160  142.8870 C   0  0  0  0  0  2  0  0  0  0  0  0
  193.9060  172.2360  145.6660 C   0  0  0  0  0  3  0  0  0  0  0  0
  195.6600  172.2040  143.4900 C   0  0  0  0  0  3  0  0  0  0  0  0
  195.9580  171.4680  144.6390 C   0  0  0  0  0  3  0  0  0  0  0  0
  195.1390  174.4550  141.5710 C   0  0  0  0  0  2  0  0  0  0  0  0
  191.5780  176.0040  143.7290 N   0  0  0  0  0  0  0  0  0  0  0  0
  194.0010  175.8640  144.3420 C   0  0  1  0  0  3  0  0  0  0  0  0
  190.6620  174.9240  143.3910 C   0  0  2  0  0  3  0  0  0  0  0  0
  192.3530  173.8300  144.5400 C   0  0  2  0  0  3  0  0  0  0  0  0
  194.2000  176.3690  146.4900 C   0  0  0  0  0  1  0  0  0  0  0  0
  194.2970  176.9180  145.2100 O   0  0  0  0  0  0  0  0  0  0  0  0
  190.8390  176.9550  144.5460 C   0  0  0  0  0  2  0  0  0  0  0  0
  190.8220  178.3100  143.8640 C   0  0  0  0  0  1  0  0  0  0  0  0
  1 18  2  0  0  0  0
  1 14  1  0  0  0  0
  2  6  2  0  0  0  0
  4  1  1  0  0  0  0
  6  5  2  0  0  0  0
  7 11  2  0  0  0  0
  7 12  1  0  0  0  0
  8  6  1  1  0  0  0
  8 23  1  0  0  0  0
  8 24  1  0  0  0  0
 10 21  1  6  0  0  0
 12  6  1  0  0  0  0
 13 16  1  0  0  0  0
 13  9  1  0  0  0  0
 14 17  2  0  0  0  0
 15  7  1  0  0  0  0
 16 22  1  0  0  0  0
 17  3  1  0  0  0  0
 18 19  1  0  0  0  0
 19  3  2  0  0  0  0
 20 13  1  0  0  0  0
 20  4  1  0  0  0  0
 21 27  1  0  0  0  0
 22 10  1  0  0  0  0
 22 26  1  1  0  0  0
 23 11  1  6  0  0  0
 23 21  1  0  0  0  0
 24 14  1  6  0  0  0
 24 10  1  0  0  0  0
 26 25  1  0  0  0  0
 28 27  1  0  0  0  0
M  END
>  <MODEL>
9

>  <REMARK>
 VINA RESULT:      -6.1      3.347      7.083
  Name = 
  2 active torsions:
  status: ('A' for Active; 'I' for Inactive)
    1  A    between atoms: C_5  and  N_24
    2  A    between atoms: O_17  and  C_25
                            x       y       z     vdW  Elec       q    Type
                         _______ _______ _______ _____ _____    ______ ____

>  <TORSDO>
F 2

$$$$
