=
 OpenBabel11112417413D

 28 32  0  0  1  0  0  0  0  0999 V2000
  187.0950  178.2910  144.4800 C   0  0  2  0  0  3  0  0  0  0  0  0
  189.1170  177.6590  146.5240 O   0  0  0  0  0  0  0  0  0  0  0  0
  188.5910  174.4720  139.4950 O   0  0  0  0  0  0  0  0  0  0  0  0
  184.9150  177.2580  146.1650 C   0  0  0  0  0  2  0  0  0  0  0  0
  189.5700  174.1370  141.6220 N   0  0  0  0  0  0  0  0  0  0  0  0
  187.6490  178.7960  143.1430 C   0  0  0  0  0  2  0  0  0  0  0  0
  188.7160  175.4040  147.4360 O   0  0  0  0  0  0  0  0  0  0  0  0
  189.4110  176.1950  146.3650 S   0  0  0  0  0  0  0  0  0  0  0  0
  191.6690  174.8290  145.5560 C   0  0  0  0  0  0  0  0  0  0  0  0
  188.9390  175.6320  144.8090 N   0  0  0  0  0  0  0  0  0  0  0  0
  185.3480  177.5410  140.3900 N   0  0  0  0  0  1  0  0  0  0  0  0
  187.9480  175.2200  142.8600 C   0  0  0  0  0  0  0  0  0  0  0  0
  191.0470  174.4180  144.4850 N   0  0  0  0  0  0  0  0  0  0  0  0
  191.1710  175.9390  146.4540 C   0  0  0  0  0  2  0  0  0  0  0  0
  186.2850  177.4370  141.4950 C   0  0  1  0  0  3  0  0  0  0  0  0
  186.6900  176.8050  144.4440 C   0  0  2  0  0  3  0  0  0  0  0  0
  188.5470  174.6240  140.7450 C   0  0  0  0  0  0  0  0  0  0  0  0
  193.0240  174.2850  145.8340 C   0  0  0  0  0  1  0  0  0  0  0  0
  187.5000  176.7760  141.0430 N   0  0  0  0  0  2  0  0  0  0  0  0
  186.0740  176.3540  145.7700 C   0  0  0  0  0  2  0  0  0  0  0  0
  185.9410  179.1790  144.9520 C   0  0  0  0  0  2  0  0  0  0  0  0
  185.4010  178.6960  146.2930 C   0  0  0  0  0  2  0  0  0  0  0  0
  186.6150  178.8300  142.0130 C   0  0  0  0  0  2  0  0  0  0  0  0
  189.1140  174.5470  142.8910 C   0  0  0  0  0  0  0  0  0  0  0  0
  187.4410  175.3780  141.4570 C   0  0  2  0  0  3  0  0  0  0  0  0
  189.7430  174.8430  144.0750 C   0  0  0  0  0  0  0  0  0  0  0  0
  190.9540  173.8930  141.2510 C   0  0  0  0  0  1  0  0  0  0  0  0
  187.8280  175.8990  144.0650 C   0  0  0  0  0  0  0  0  0  0  0  0
  1  6  1  6  0  0  0
  1 21  1  0  0  0  0
  3 17  2  0  0  0  0
  4 22  1  0  0  0  0
  5 24  1  0  0  0  0
  8 14  1  0  0  0  0
  8  2  2  0  0  0  0
  8  7  2  0  0  0  0
  9 18  1  0  0  0  0
  9 14  1  0  0  0  0
 10  8  1  0  0  0  0
 12 24  1  0  0  0  0
 12 28  2  0  0  0  0
 13  9  2  0  0  0  0
 15 11  1  6  0  0  0
 15 23  1  0  0  0  0
 16  1  1  0  0  0  0
 16 20  1  1  0  0  0
 17  5  1  0  0  0  0
 19 25  1  0  0  0  0
 19 15  1  0  0  0  0
 20  4  1  0  0  0  0
 21 22  1  0  0  0  0
 23  6  1  0  0  0  0
 24 26  2  0  0  0  0
 25 17  1  6  0  0  0
 25 12  1  0  0  0  0
 26 13  1  0  0  0  0
 26 10  1  0  0  0  0
 27  5  1  0  0  0  0
 28 16  1  0  0  0  0
 28 10  1  0  0  0  0
M  END
>  <MODEL>
1

>  <REMARK>
 VINA RESULT:      -8.2      0.000      0.000
  Name = 
  0 active torsions:
  status: ('A' for Active; 'I' for Inactive)
                            x       y       z     vdW  Elec       q    Type
                         _______ _______ _______ _____ _____    ______ ____

>  <TORSDO>
F 0

$$$$
=
 OpenBabel11112417413D

 28 32  0  0  1  0  0  0  0  0999 V2000
  189.8440  174.1530  144.3940 C   0  0  2  0  0  3  0  0  0  0  0  0
  188.6840  175.1990  146.8890 O   0  0  0  0  0  0  0  0  0  0  0  0
  186.4160  176.9780  139.7100 O   0  0  0  0  0  0  0  0  0  0  0  0
  192.4320  175.4490  144.9290 C   0  0  0  0  0  2  0  0  0  0  0  0
  186.2700  177.7300  141.9480 N   0  0  0  0  0  0  0  0  0  0  0  0
  188.8660  173.4120  143.4750 C   0  0  0  0  0  2  0  0  0  0  0  0
  189.2690  177.5790  147.1560 O   0  0  0  0  0  0  0  0  0  0  0  0
  188.2730  176.6110  146.5840 S   0  0  0  0  0  0  0  0  0  0  0  0
  185.8050  177.8380  146.4350 C   0  0  0  0  0  0  0  0  0  0  0  0
  188.1090  176.8590  144.8890 N   0  0  0  0  0  0  0  0  0  0  0  0
  189.9230  174.0780  139.8860 N   0  0  0  0  0  1  0  0  0  0  0  0
  188.2910  176.8730  142.6720 C   0  0  0  0  0  0  0  0  0  0  0  0
  185.9670  178.0260  145.1530 N   0  0  0  0  0  0  0  0  0  0  0  0
  186.6570  176.9110  147.2720 C   0  0  0  0  0  2  0  0  0  0  0  0
  189.4530  174.4080  141.2200 C   0  0  1  0  0  3  0  0  0  0  0  0
  190.1270  175.5980  143.9390 C   0  0  2  0  0  3  0  0  0  0  0  0
  186.9250  177.0660  140.8590 C   0  0  0  0  0  0  0  0  0  0  0  0
  184.6200  178.4500  147.0910 C   0  0  0  0  0  1  0  0  0  0  0  0
  188.1230  174.9930  141.1380 N   0  0  0  0  0  2  0  0  0  0  0  0
  191.1610  176.2820  144.8340 C   0  0  0  0  0  2  0  0  0  0  0  0
  191.1370  173.3510  144.5590 C   0  0  0  0  0  2  0  0  0  0  0  0
  192.1050  174.0710  145.4900 C   0  0  0  0  0  2  0  0  0  0  0  0
  189.4130  173.1450  142.0690 C   0  0  0  0  0  2  0  0  0  0  0  0
  187.1830  177.5610  143.0100 C   0  0  0  0  0  0  0  0  0  0  0  0
  188.2540  176.4420  141.2360 C   0  0  2  0  0  3  0  0  0  0  0  0
  187.0490  177.5080  144.3750 C   0  0  0  0  0  0  0  0  0  0  0  0
  184.8360  177.9240  142.0790 C   0  0  0  0  0  1  0  0  0  0  0  0
  188.8810  176.4350  143.8490 C   0  0  0  0  0  0  0  0  0  0  0  0
  1  6  1  6  0  0  0
  1 21  1  0  0  0  0
  3 17  2  0  0  0  0
  4 22  1  0  0  0  0
  5 27  1  0  0  0  0
  5 24  1  0  0  0  0
  8  2  2  0  0  0  0
  8  7  2  0  0  0  0
  8 14  1  0  0  0  0
  9 18  1  0  0  0  0
  9 14  1  0  0  0  0
 10  8  1  0  0  0  0
 12 24  1  0  0  0  0
 12 28  2  0  0  0  0
 13  9  2  0  0  0  0
 15 11  1  6  0  0  0
 15 23  1  0  0  0  0
 16  1  1  0  0  0  0
 16 20  1  1  0  0  0
 17  5  1  0  0  0  0
 19 15  1  0  0  0  0
 19 25  1  0  0  0  0
 20  4  1  0  0  0  0
 21 22  1  0  0  0  0
 23  6  1  0  0  0  0
 24 26  2  0  0  0  0
 25 17  1  6  0  0  0
 25 12  1  0  0  0  0
 26 10  1  0  0  0  0
 26 13  1  0  0  0  0
 28 16  1  0  0  0  0
 28 10  1  0  0  0  0
M  END
>  <MODEL>
2

>  <REMARK>
 VINA RESULT:      -8.1      1.606      5.081
  Name = 
  0 active torsions:
  status: ('A' for Active; 'I' for Inactive)
                            x       y       z     vdW  Elec       q    Type
                         _______ _______ _______ _____ _____    ______ ____

>  <TORSDO>
F 0

$$$$
=
 OpenBabel11112417413D

 28 32  0  0  1  0  0  0  0  0999 V2000
  185.8350  177.1650  145.0320 C   0  0  2  0  0  3  0  0  0  0  0  0
  186.3170  175.3540  142.7630 O   0  0  0  0  0  0  0  0  0  0  0  0
  191.3500  177.0510  148.3870 O   0  0  0  0  0  0  0  0  0  0  0  0
  185.5650  179.4940  143.2550 C   0  0  0  0  0  2  0  0  0  0  0  0
  191.2330  176.1440  146.2060 N   0  0  0  0  0  0  0  0  0  0  0  0
  185.9870  176.5320  146.4210 C   0  0  0  0  0  2  0  0  0  0  0  0
  187.9200  176.3780  141.1950 O   0  0  0  0  0  0  0  0  0  0  0  0
  187.7690  175.5160  142.4150 S   0  0  0  0  0  0  0  0  0  0  0  0
  189.9230  173.7980  142.5800 C   0  0  0  0  0  0  0  0  0  0  0  0
  188.6510  176.1890  143.7310 N   0  0  0  0  0  0  0  0  0  0  0  0
  187.3500  179.1970  148.7620 N   0  0  0  0  0  1  0  0  0  0  0  0
  189.3750  177.3250  145.5010 C   0  0  0  0  0  0  0  0  0  0  0  0
  190.4650  174.5520  143.4980 N   0  0  0  0  0  0  0  0  0  0  0  0
  188.4850  173.9100  142.1280 C   0  0  0  0  0  2  0  0  0  0  0  0
  187.3520  178.2960  147.6240 C   0  0  1  0  0  3  0  0  0  0  0  0
  187.0610  177.9960  144.6090 C   0  0  2  0  0  3  0  0  0  0  0  0
  190.7860  177.0050  147.2610 C   0  0  0  0  0  0  0  0  0  0  0  0
  190.7160  172.6590  142.0480 C   0  0  0  0  0  1  0  0  0  0  0  0
  188.4510  177.3500  147.7520 N   0  0  0  0  0  2  0  0  0  0  0  0
  186.8470  178.6720  143.2540 C   0  0  0  0  0  2  0  0  0  0  0  0
  184.5440  177.9840  144.9550 C   0  0  0  0  0  2  0  0  0  0  0  0
  184.3750  178.5970  143.5700 C   0  0  0  0  0  2  0  0  0  0  0  0
  186.0280  177.5470  147.5670 C   0  0  0  0  0  2  0  0  0  0  0  0
  190.3110  176.4130  145.1730 C   0  0  0  0  0  0  0  0  0  0  0  0
  189.5500  177.8090  146.9100 C   0  0  2  0  0  3  0  0  0  0  0  0
  189.8380  175.6820  144.1120 C   0  0  0  0  0  0  0  0  0  0  0  0
  191.9790  174.9100  146.3830 C   0  0  0  0  0  1  0  0  0  0  0  0
  188.3330  177.1940  144.5950 C   0  0  0  0  0  0  0  0  0  0  0  0
  1 21  1  1  0  0  0
  1  6  1  0  0  0  0
  4 22  1  0  0  0  0
  5 27  1  0  0  0  0
  5 17  1  0  0  0  0
  6 23  1  0  0  0  0
  7  8  2  0  0  0  0
  8  2  2  0  0  0  0
  8 10  1  0  0  0  0
  9 13  2  0  0  0  0
 10 26  1  0  0  0  0
 10 28  1  0  0  0  0
 13 26  1  0  0  0  0
 14  8  1  0  0  0  0
 14  9  1  0  0  0  0
 15 19  1  0  0  0  0
 15 11  1  1  0  0  0
 16 20  1  6  0  0  0
 16  1  1  0  0  0  0
 17  3  2  0  0  0  0
 18  9  1  0  0  0  0
 20  4  1  0  0  0  0
 22 21  1  0  0  0  0
 23 15  1  0  0  0  0
 24 12  1  0  0  0  0
 24  5  1  0  0  0  0
 25 12  1  6  0  0  0
 25 17  1  0  0  0  0
 25 19  1  0  0  0  0
 26 24  2  0  0  0  0
 28 16  1  0  0  0  0
 28 12  2  0  0  0  0
M  END
>  <MODEL>
3

>  <REMARK>
 VINA RESULT:      -8.1      2.312      4.931
  Name = 
  0 active torsions:
  status: ('A' for Active; 'I' for Inactive)
                            x       y       z     vdW  Elec       q    Type
                         _______ _______ _______ _____ _____    ______ ____

>  <TORSDO>
F 0

$$$$
=
 OpenBabel11112417413D

 28 32  0  0  1  0  0  0  0  0999 V2000
  191.1460  175.4450  144.0590 C   0  0  2  0  0  3  0  0  0  0  0  0
  189.7760  175.4870  141.4550 O   0  0  0  0  0  0  0  0  0  0  0  0
  187.2000  178.6820  148.0130 O   0  0  0  0  0  0  0  0  0  0  0  0
  190.9030  172.5190  144.2600 C   0  0  0  0  0  2  0  0  0  0  0  0
  186.4740  177.9820  145.8730 N   0  0  0  0  0  0  0  0  0  0  0  0
  191.4630  176.8210  144.6570 C   0  0  0  0  0  2  0  0  0  0  0  0
  187.7830  174.0380  141.5290 O   0  0  0  0  0  0  0  0  0  0  0  0
  188.3080  175.4240  141.7680 S   0  0  0  0  0  0  0  0  0  0  0  0
  186.2560  177.2380  141.4280 C   0  0  0  0  0  0  0  0  0  0  0  0
  187.9980  175.9070  143.3900 N   0  0  0  0  0  0  0  0  0  0  0  0
  191.1920  176.5300  148.4360 N   0  0  0  0  0  1  0  0  0  0  0  0
  188.0250  176.2930  145.5800 C   0  0  0  0  0  0  0  0  0  0  0  0
  186.1250  177.3460  142.7220 N   0  0  0  0  0  0  0  0  0  0  0  0
  187.4420  176.5960  140.7440 C   0  0  0  0  0  2  0  0  0  0  0  0
  190.7280  176.5000  147.0610 C   0  0  1  0  0  3  0  0  0  0  0  0
  189.9030  174.7850  144.6850 C   0  0  2  0  0  3  0  0  0  0  0  0
  187.3200  177.9050  147.0280 C   0  0  0  0  0  0  0  0  0  0  0  0
  185.2580  177.9180  140.5620 C   0  0  0  0  0  1  0  0  0  0  0  0
  189.6930  177.5050  146.8720 N   0  0  0  0  0  2  0  0  0  0  0  0
  189.6590  173.3850  144.1190 C   0  0  0  0  0  2  0  0  0  0  0  0
  192.3710  174.5310  144.1410 C   0  0  0  0  0  2  0  0  0  0  0  0
  192.0700  173.1680  143.5270 C   0  0  0  0  0  2  0  0  0  0  0  0
  191.8970  176.7780  146.1250 C   0  0  0  0  0  2  0  0  0  0  0  0
  186.9810  176.9560  145.0480 C   0  0  0  0  0  0  0  0  0  0  0  0
  188.3950  176.8410  146.9270 C   0  0  2  0  0  3  0  0  0  0  0  0
  186.9970  176.7540  143.6900 C   0  0  0  0  0  0  0  0  0  0  0  0
  185.7670  179.1680  145.4230 C   0  0  0  0  0  1  0  0  0  0  0  0
  188.6640  175.6260  144.5450 C   0  0  0  0  0  0  0  0  0  0  0  0
  1 21  1  1  0  0  0
  1  6  1  0  0  0  0
  1 16  1  0  0  0  0
  2  8  2  0  0  0  0
  5 17  1  0  0  0  0
  6 23  1  0  0  0  0
  7  8  2  0  0  0  0
  8 10  1  0  0  0  0
  9 13  2  0  0  0  0
 10 26  1  0  0  0  0
 10 28  1  0  0  0  0
 13 26  1  0  0  0  0
 14  9  1  0  0  0  0
 14  8  1  0  0  0  0
 15 11  1  1  0  0  0
 16 20  1  6  0  0  0
 17  3  2  0  0  0  0
 18  9  1  0  0  0  0
 19 25  1  0  0  0  0
 19 15  1  0  0  0  0
 20  4  1  0  0  0  0
 22 21  1  0  0  0  0
 22  4  1  0  0  0  0
 23 15  1  0  0  0  0
 24 12  1  0  0  0  0
 24  5  1  0  0  0  0
 25 12  1  6  0  0  0
 25 17  1  0  0  0  0
 26 24  2  0  0  0  0
 27  5  1  0  0  0  0
 28 16  1  0  0  0  0
 28 12  2  0  0  0  0
M  END
>  <MODEL>
4

>  <REMARK>
 VINA RESULT:      -8.0      2.217      6.520
  Name = 
  0 active torsions:
  status: ('A' for Active; 'I' for Inactive)
                            x       y       z     vdW  Elec       q    Type
                         _______ _______ _______ _____ _____    ______ ____

>  <TORSDO>
F 0

$$$$
=
 OpenBabel11112417413D

 28 32  0  0  1  0  0  0  0  0999 V2000
  188.8120  175.5570  145.5410 C   0  0  2  0  0  3  0  0  0  0  0  0
  188.1050  174.3560  142.9490 O   0  0  0  0  0  0  0  0  0  0  0  0
  195.2440  176.0780  145.3810 O   0  0  0  0  0  0  0  0  0  0  0  0
  187.3930  178.0520  144.8930 C   0  0  0  0  0  2  0  0  0  0  0  0
  194.0130  175.5890  143.4210 N   0  0  0  0  0  0  0  0  0  0  0  0
  189.7650  174.7290  146.4100 C   0  0  0  0  0  2  0  0  0  0  0  0
  188.4660  175.9900  141.1380 O   0  0  0  0  0  0  0  0  0  0  0  0
  189.0970  174.9060  141.9640 S   0  0  0  0  0  0  0  0  0  0  0  0
  191.1200  173.7220  140.5050 C   0  0  0  0  0  0  0  0  0  0  0  0
  190.4990  175.5050  142.7620 N   0  0  0  0  0  0  0  0  0  0  0  0
  191.9610  177.1520  148.3480 N   0  0  0  0  0  1  0  0  0  0  0  0
  191.9820  176.4270  144.1390 C   0  0  0  0  0  0  0  0  0  0  0  0
  192.0110  174.3950  141.1800 N   0  0  0  0  0  0  0  0  0  0  0  0
  189.6700  173.5860  140.9130 C   0  0  0  0  0  2  0  0  0  0  0  0
  191.4080  176.5020  147.1730 C   0  0  1  0  0  3  0  0  0  0  0  0
  189.5150  176.7090  144.7990 C   0  0  2  0  0  3  0  0  0  0  0  0
  194.1560  176.1140  144.7470 C   0  0  0  0  0  0  0  0  0  0  0  0
  191.5780  172.9120  139.3470 C   0  0  0  0  0  1  0  0  0  0  0  0
  192.4700  175.8230  146.4450 N   0  0  0  0  0  2  0  0  0  0  0  0
  188.5240  177.5570  144.0010 C   0  0  0  0  0  2  0  0  0  0  0  0
  187.6300  176.0610  146.3740 C   0  0  0  0  0  2  0  0  0  0  0  0
  186.6650  176.8660  145.5110 C   0  0  0  0  0  2  0  0  0  0  0  0
  190.3480  175.4960  147.6010 C   0  0  0  0  0  2  0  0  0  0  0  0
  192.6530  175.8280  143.1360 C   0  0  0  0  0  0  0  0  0  0  0  0
  192.8690  176.6680  145.3250 C   0  0  2  0  0  3  0  0  0  0  0  0
  191.7350  175.2190  142.3160 C   0  0  0  0  0  0  0  0  0  0  0  0
  194.8370  174.5460  142.8340 C   0  0  0  0  0  1  0  0  0  0  0  0
  190.6280  176.2330  143.9060 C   0  0  0  0  0  0  0  0  0  0  0  0
  1 21  1  1  0  0  0
  1  6  1  0  0  0  0
  4 22  1  0  0  0  0
  5 17  1  0  0  0  0
  6 23  1  0  0  0  0
  7  8  2  0  0  0  0
  8 10  1  0  0  0  0
  8  2  2  0  0  0  0
  9 14  1  0  0  0  0
  9 13  2  0  0  0  0
 10 28  1  0  0  0  0
 13 26  1  0  0  0  0
 14  8  1  0  0  0  0
 15 23  1  0  0  0  0
 15 11  1  1  0  0  0
 16 20  1  6  0  0  0
 16  1  1  0  0  0  0
 17 25  1  0  0  0  0
 17  3  2  0  0  0  0
 18  9  1  0  0  0  0
 19 15  1  0  0  0  0
 20  4  1  0  0  0  0
 22 21  1  0  0  0  0
 24  5  1  0  0  0  0
 24 12  1  0  0  0  0
 25 12  1  6  0  0  0
 25 19  1  0  0  0  0
 26 10  1  0  0  0  0
 26 24  2  0  0  0  0
 27  5  1  0  0  0  0
 28 12  2  0  0  0  0
 28 16  1  0  0  0  0
M  END
>  <MODEL>
5

>  <REMARK>
 VINA RESULT:      -7.9      2.781      5.520
  Name = 
  0 active torsions:
  status: ('A' for Active; 'I' for Inactive)
                            x       y       z     vdW  Elec       q    Type
                         _______ _______ _______ _____ _____    ______ ____

>  <TORSDO>
F 0

$$$$
=
 OpenBabel11112417413D

 28 32  0  0  1  0  0  0  0  0999 V2000
  189.6930  176.0220  144.0680 C   0  0  2  0  0  3  0  0  0  0  0  0
  192.1180  176.8100  145.5360 O   0  0  0  0  0  0  0  0  0  0  0  0
  191.0040  170.1080  141.8360 O   0  0  0  0  0  0  0  0  0  0  0  0
  188.0710  176.0410  146.5230 C   0  0  0  0  0  2  0  0  0  0  0  0
  192.3810  171.1270  143.4670 N   0  0  0  0  0  0  0  0  0  0  0  0
  189.9010  175.6860  142.5860 C   0  0  0  0  0  2  0  0  0  0  0  0
  192.3160  175.4860  147.6060 O   0  0  0  0  0  0  0  0  0  0  0  0
  192.6530  175.5450  146.1440 S   0  0  0  0  0  0  0  0  0  0  0  0
  194.9560  174.0920  145.6890 C   0  0  0  0  0  0  0  0  0  0  0  0
  192.0360  174.1570  145.3350 N   0  0  0  0  0  0  0  0  0  0  0  0
  187.4410  172.9400  141.6650 N   0  0  0  0  0  1  0  0  0  0  0  0
  190.8200  172.6360  144.2610 C   0  0  0  0  0  0  0  0  0  0  0  0
  194.2480  173.1010  145.2200 N   0  0  0  0  0  0  0  0  0  0  0  0
  194.4190  175.4870  145.9160 C   0  0  0  0  0  2  0  0  0  0  0  0
  188.5570  173.5490  142.3670 C   0  0  1  0  0  3  0  0  0  0  0  0
  189.5770  174.7720  144.9610 C   0  0  2  0  0  3  0  0  0  0  0  0
  191.1470  170.9560  142.7570 C   0  0  0  0  0  0  0  0  0  0  0  0
  196.4160  173.8880  145.8730 C   0  0  0  0  0  1  0  0  0  0  0  0
  189.7790  172.8180  142.0690 N   0  0  0  0  0  2  0  0  0  0  0  0
  189.2960  175.1420  146.4180 C   0  0  0  0  0  2  0  0  0  0  0  0
  188.4900  176.9530  144.2410 C   0  0  0  0  0  2  0  0  0  0  0  0
  188.2900  177.3100  145.7100 C   0  0  0  0  0  2  0  0  0  0  0  0
  188.7010  175.0000  141.9270 C   0  0  0  0  0  2  0  0  0  0  0  0
  192.0800  172.1720  144.3650 C   0  0  0  0  0  0  0  0  0  0  0  0
  190.0590  171.9200  143.1840 C   0  0  2  0  0  3  0  0  0  0  0  0
  192.8370  173.1350  144.9860 C   0  0  0  0  0  0  0  0  0  0  0  0
  193.7000  170.7900  142.9610 C   0  0  0  0  0  1  0  0  0  0  0  0
  190.7840  173.8800  144.8740 C   0  0  0  0  0  0  0  0  0  0  0  0
  1  6  1  6  0  0  0
  1 21  1  0  0  0  0
  1 16  1  0  0  0  0
  2  8  2  0  0  0  0
  3 17  2  0  0  0  0
  5 24  1  0  0  0  0
  8  7  2  0  0  0  0
  9 18  1  0  0  0  0
  9 14  1  0  0  0  0
 10  8  1  0  0  0  0
 12 24  1  0  0  0  0
 12 28  2  0  0  0  0
 13  9  2  0  0  0  0
 14  8  1  0  0  0  0
 15 11  1  6  0  0  0
 16 20  1  1  0  0  0
 17 25  1  0  0  0  0
 17  5  1  0  0  0  0
 19 15  1  0  0  0  0
 20  4  1  0  0  0  0
 21 22  1  0  0  0  0
 22  4  1  0  0  0  0
 23 15  1  0  0  0  0
 23  6  1  0  0  0  0
 24 26  2  0  0  0  0
 25 19  1  6  0  0  0
 25 12  1  0  0  0  0
 26 13  1  0  0  0  0
 26 10  1  0  0  0  0
 27  5  1  0  0  0  0
 28 16  1  0  0  0  0
 28 10  1  0  0  0  0
M  END
>  <MODEL>
6

>  <REMARK>
 VINA RESULT:      -7.5      2.797      3.991
  Name = 
  0 active torsions:
  status: ('A' for Active; 'I' for Inactive)
                            x       y       z     vdW  Elec       q    Type
                         _______ _______ _______ _____ _____    ______ ____

>  <TORSDO>
F 0

$$$$
=
 OpenBabel11112417413D

 28 32  0  0  1  0  0  0  0  0999 V2000
  189.9200  176.8020  144.5350 C   0  0  2  0  0  3  0  0  0  0  0  0
  192.7130  175.9190  144.8200 O   0  0  0  0  0  0  0  0  0  0  0  0
  188.0040  174.3080  138.8970 O   0  0  0  0  0  0  0  0  0  0  0  0
  189.0750  175.2400  146.8820 C   0  0  0  0  0  2  0  0  0  0  0  0
  190.0180  173.6040  139.9180 N   0  0  0  0  0  0  0  0  0  0  0  0
  189.6180  177.6330  143.2830 C   0  0  0  0  0  2  0  0  0  0  0  0
  192.7890  173.4930  145.2530 O   0  0  0  0  0  0  0  0  0  0  0  0
  192.7730  174.5560  144.1920 S   0  0  0  0  0  0  0  0  0  0  0  0
  194.0520  173.6020  141.9390 C   0  0  0  0  0  0  0  0  0  0  0  0
  191.4510  174.3070  143.1190 N   0  0  0  0  0  0  0  0  0  0  0  0
  186.0760  176.8130  142.1750 N   0  0  0  0  0  1  0  0  0  0  0  0
  189.4880  174.2450  142.0750 C   0  0  0  0  0  0  0  0  0  0  0  0
  192.9000  173.3820  141.3680 N   0  0  0  0  0  0  0  0  0  0  0  0
  194.2370  174.4410  143.1840 C   0  0  0  0  0  2  0  0  0  0  0  0
  187.4730  176.5530  142.4730 C   0  0  1  0  0  3  0  0  0  0  0  0
  189.4840  175.3300  144.4040 C   0  0  2  0  0  3  0  0  0  0  0  0
  188.7050  174.1800  139.9360 C   0  0  0  0  0  0  0  0  0  0  0  0
  195.2810  173.1310  141.2490 C   0  0  0  0  0  1  0  0  0  0  0  0
  188.1570  176.1140  141.2660 N   0  0  0  0  0  2  0  0  0  0  0  0
  189.7320  174.5490  145.6950 C   0  0  0  0  0  2  0  0  0  0  0  0
  189.3110  177.4620  145.7750 C   0  0  0  0  0  2  0  0  0  0  0  0
  189.6260  176.6530  147.0280 C   0  0  0  0  0  2  0  0  0  0  0  0
  188.1230  177.8230  143.0050 C   0  0  0  0  0  2  0  0  0  0  0  0
  190.4120  173.6860  141.2700 C   0  0  0  0  0  0  0  0  0  0  0  0
  188.2690  174.6610  141.3050 C   0  0  2  0  0  3  0  0  0  0  0  0
  191.6290  173.7700  141.8990 C   0  0  0  0  0  0  0  0  0  0  0  0
  190.9090  173.5680  138.7710 C   0  0  0  0  0  1  0  0  0  0  0  0
  190.1330  174.6320  143.2410 C   0  0  0  0  0  0  0  0  0  0  0  0
  1  6  1  6  0  0  0
  1 21  1  0  0  0  0
  3 17  2  0  0  0  0
  4 22  1  0  0  0  0
  5 17  1  0  0  0  0
  5 24  1  0  0  0  0
  8  2  2  0  0  0  0
  8  7  2  0  0  0  0
  9 14  1  0  0  0  0
 10 28  1  0  0  0  0
 10  8  1  0  0  0  0
 12 28  2  0  0  0  0
 13 26  1  0  0  0  0
 13  9  2  0  0  0  0
 14  8  1  0  0  0  0
 15 11  1  6  0  0  0
 15 23  1  0  0  0  0
 16  1  1  0  0  0  0
 16 20  1  1  0  0  0
 18  9  1  0  0  0  0
 19 25  1  0  0  0  0
 19 15  1  0  0  0  0
 20  4  1  0  0  0  0
 21 22  1  0  0  0  0
 23  6  1  0  0  0  0
 24 26  2  0  0  0  0
 24 12  1  0  0  0  0
 25 17  1  6  0  0  0
 25 12  1  0  0  0  0
 26 10  1  0  0  0  0
 27  5  1  0  0  0  0
 28 16  1  0  0  0  0
M  END
>  <MODEL>
7

>  <REMARK>
 VINA RESULT:      -7.4      2.550      3.329
  Name = 
  0 active torsions:
  status: ('A' for Active; 'I' for Inactive)
                            x       y       z     vdW  Elec       q    Type
                         _______ _______ _______ _____ _____    ______ ____

>  <TORSDO>
F 0

$$$$
=
 OpenBabel11112417413D

 28 32  0  0  1  0  0  0  0  0999 V2000
  190.4300  177.0070  144.8970 C   0  0  2  0  0  3  0  0  0  0  0  0
  193.3680  177.0410  145.0790 O   0  0  0  0  0  0  0  0  0  0  0  0
  189.1830  173.6180  139.5460 O   0  0  0  0  0  0  0  0  0  0  0  0
  190.1880  175.4500  147.3820 C   0  0  0  0  0  2  0  0  0  0  0  0
  191.3490  173.6420  140.4940 N   0  0  0  0  0  0  0  0  0  0  0  0
  189.8450  177.6070  143.6140 C   0  0  0  0  0  2  0  0  0  0  0  0
  194.2010  174.7950  145.6590 O   0  0  0  0  0  0  0  0  0  0  0  0
  193.8230  175.7170  144.5360 S   0  0  0  0  0  0  0  0  0  0  0  0
  195.2560  175.0260  142.2800 C   0  0  0  0  0  0  0  0  0  0  0  0
  192.6050  174.9950  143.5580 N   0  0  0  0  0  0  0  0  0  0  0  0
  186.6910  175.6640  142.7630 N   0  0  0  0  0  1  0  0  0  0  0  0
  190.7220  174.2580  142.6320 C   0  0  0  0  0  0  0  0  0  0  0  0
  194.2080  174.4210  141.7900 N   0  0  0  0  0  0  0  0  0  0  0  0
  195.2160  175.9760  143.4560 C   0  0  0  0  0  2  0  0  0  0  0  0
  188.1100  175.8660  142.9970 C   0  0  1  0  0  3  0  0  0  0  0  0
  190.4650  175.4670  144.8840 C   0  0  2  0  0  3  0  0  0  0  0  0
  189.9250  173.7910  140.5490 C   0  0  0  0  0  0  0  0  0  0  0  0
  196.5450  174.8990  141.5520 C   0  0  0  0  0  1  0  0  0  0  0  0
  188.8530  175.5640  141.7830 N   0  0  0  0  0  2  0  0  0  0  0  0
  190.9850  174.9010  146.2060 C   0  0  0  0  0  2  0  0  0  0  0  0
  189.6920  177.5450  146.1250 C   0  0  0  0  0  2  0  0  0  0  0  0
  190.2840  176.9700  147.4070 C   0  0  0  0  0  2  0  0  0  0  0  0
  188.3560  177.3110  143.4090 C   0  0  0  0  0  2  0  0  0  0  0  0
  191.7450  173.9450  141.8140 C   0  0  0  0  0  0  0  0  0  0  0  0
  189.4080  174.2210  141.9080 C   0  0  2  0  0  3  0  0  0  0  0  0
  192.8980  174.4450  142.3660 C   0  0  0  0  0  0  0  0  0  0  0  0
  192.1680  173.7910  139.3030 C   0  0  0  0  0  1  0  0  0  0  0  0
  191.2570  174.9110  143.7330 C   0  0  0  0  0  0  0  0  0  0  0  0
  1  6  1  6  0  0  0
  1 21  1  0  0  0  0
  3 17  2  0  0  0  0
  4 22  1  0  0  0  0
  5 17  1  0  0  0  0
  5 24  1  0  0  0  0
  8  2  2  0  0  0  0
  8  7  2  0  0  0  0
  9 14  1  0  0  0  0
 10 28  1  0  0  0  0
 10  8  1  0  0  0  0
 12 28  2  0  0  0  0
 13  9  2  0  0  0  0
 13 26  1  0  0  0  0
 14  8  1  0  0  0  0
 15 11  1  6  0  0  0
 15 23  1  0  0  0  0
 16  1  1  0  0  0  0
 16 20  1  1  0  0  0
 18  9  1  0  0  0  0
 19 25  1  0  0  0  0
 19 15  1  0  0  0  0
 20  4  1  0  0  0  0
 21 22  1  0  0  0  0
 23  6  1  0  0  0  0
 24 26  2  0  0  0  0
 24 12  1  0  0  0  0
 25 17  1  6  0  0  0
 25 12  1  0  0  0  0
 26 10  1  0  0  0  0
 27  5  1  0  0  0  0
 28 16  1  0  0  0  0
M  END
>  <MODEL>
8

>  <REMARK>
 VINA RESULT:      -7.3      2.794      3.887
  Name = 
  0 active torsions:
  status: ('A' for Active; 'I' for Inactive)
                            x       y       z     vdW  Elec       q    Type
                         _______ _______ _______ _____ _____    ______ ____

>  <TORSDO>
F 0

$$$$
=
 OpenBabel11112417413D

 28 32  0  0  1  0  0  0  0  0999 V2000
  190.3220  175.1490  145.2980 C   0  0  2  0  0  3  0  0  0  0  0  0
  188.9320  173.7240  143.1300 O   0  0  0  0  0  0  0  0  0  0  0  0
  196.3880  175.7870  143.1820 O   0  0  0  0  0  0  0  0  0  0  0  0
  188.6660  177.5520  144.9230 C   0  0  0  0  0  2  0  0  0  0  0  0
  194.6540  175.1120  141.7220 N   0  0  0  0  0  0  0  0  0  0  0  0
  191.5260  174.4160  145.8990 C   0  0  0  0  0  2  0  0  0  0  0  0
  188.6670  175.2090  141.1800 O   0  0  0  0  0  0  0  0  0  0  0  0
  189.5620  174.2100  141.8560 S   0  0  0  0  0  0  0  0  0  0  0  0
  191.1110  172.9510  139.9490 C   0  0  0  0  0  0  0  0  0  0  0  0
  191.1100  174.9010  142.1520 N   0  0  0  0  0  0  0  0  0  0  0  0
  194.0880  177.0350  146.9100 N   0  0  0  0  0  1  0  0  0  0  0  0
  192.8920  175.9650  142.9520 C   0  0  0  0  0  0  0  0  0  0  0  0
  192.1320  173.6960  140.2750 N   0  0  0  0  0  0  0  0  0  0  0  0
  189.8550  172.8200  140.7810 C   0  0  0  0  0  2  0  0  0  0  0  0
  193.2410  176.2790  146.0050 C   0  0  1  0  0  3  0  0  0  0  0  0
  190.7220  176.2490  144.2970 C   0  0  2  0  0  3  0  0  0  0  0  0
  195.1600  175.7480  142.9030 C   0  0  0  0  0  0  0  0  0  0  0  0
  191.2410  172.0570  138.7690 C   0  0  0  0  0  1  0  0  0  0  0  0
  194.0680  175.5640  145.0440 N   0  0  0  0  0  2  0  0  0  0  0  0
  189.5020  177.0090  143.7720 C   0  0  0  0  0  2  0  0  0  0  0  0
  189.4190  175.6950  146.4060 C   0  0  0  0  0  2  0  0  0  0  0  0
  188.2070  176.4060  145.8160 C   0  0  0  0  0  2  0  0  0  0  0  0
  192.4010  175.2900  146.8020 C   0  0  0  0  0  2  0  0  0  0  0  0
  193.2610  175.2990  141.8400 C   0  0  0  0  0  0  0  0  0  0  0  0
  194.0790  176.3210  143.7980 C   0  0  2  0  0  3  0  0  0  0  0  0
  192.1690  174.6060  141.3790 C   0  0  0  0  0  0  0  0  0  0  0  0
  195.3120  174.0410  140.9930 C   0  0  0  0  0  1  0  0  0  0  0  0
  191.5400  175.7250  143.1490 C   0  0  0  0  0  0  0  0  0  0  0  0
  1  6  1  1  0  0  0
  1 21  1  0  0  0  0
  4 22  1  0  0  0  0
  5 24  1  0  0  0  0
  5 17  1  0  0  0  0
  6 23  1  0  0  0  0
  7  8  2  0  0  0  0
  8 10  1  0  0  0  0
  8  2  2  0  0  0  0
  9 13  2  0  0  0  0
  9 14  1  0  0  0  0
 10 28  1  0  0  0  0
 12 28  2  0  0  0  0
 12 25  1  0  0  0  0
 13 26  1  0  0  0  0
 14  8  1  0  0  0  0
 15 23  1  0  0  0  0
 15 11  1  1  0  0  0
 16 20  1  6  0  0  0
 16  1  1  0  0  0  0
 17  3  2  0  0  0  0
 18  9  1  0  0  0  0
 19 15  1  0  0  0  0
 20  4  1  0  0  0  0
 22 21  1  0  0  0  0
 24 12  1  0  0  0  0
 25 17  1  6  0  0  0
 25 19  1  0  0  0  0
 26 24  2  0  0  0  0
 26 10  1  0  0  0  0
 27  5  1  0  0  0  0
 28 16  1  0  0  0  0
M  END
>  <MODEL>
9

>  <REMARK>
 VINA RESULT:      -7.1      3.185      6.044
  Name = 
  0 active torsions:
  status: ('A' for Active; 'I' for Inactive)
                            x       y       z     vdW  Elec       q    Type
                         _______ _______ _______ _____ _____    ______ ____

>  <TORSDO>
F 0

$$$$
