=
 OpenBabel11112417423D

 28 32  0  0  1  0  0  0  0  0999 V2000
  186.8290  178.2450  144.5440 C   0  0  0  0  0  0  0  0  0  0  0  0
  190.2260  178.0030  145.1170 F   0  0  0  0  0  0  0  0  0  0  0  0
  188.3380  173.7300  140.8480 O   0  0  0  0  0  0  0  0  0  0  0  0
  185.4230  177.4250  146.8310 C   0  0  0  0  0  3  0  0  0  0  0  0
  190.0040  174.3420  142.4010 N   0  0  0  0  0  0  0  0  0  0  0  0
  187.4800  178.7300  143.2850 C   0  0  0  0  0  2  0  0  0  0  0  0
  189.3300  177.7030  147.2790 C   0  0  0  0  0  1  0  0  0  0  0  0
  190.1090  177.0770  146.1400 C   0  0  1  0  0  0  0  0  0  0  0  0
  192.2440  175.7490  146.0180 C   0  0  0  0  0  0  0  0  0  0  0  0
  189.4000  175.7870  145.6470 C   0  0  2  0  0  3  0  0  0  0  0  0
  186.2370  177.5550  139.8560 C   0  0  0  0  0  1  0  0  0  0  0  0
  188.8190  176.2120  143.3100 C   0  0  1  0  0  3  0  0  0  0  0  0
  191.7220  174.9110  145.1770 N   0  0  0  0  0  0  0  0  0  0  0  0
  191.4430  176.7580  146.6300 N   0  0  0  0  0  2  0  0  0  0  0  0
  187.0060  177.4470  141.1560 C   0  0  2  0  0  3  0  0  0  0  0  0
  187.1490  177.0060  145.1630 C   0  0  0  0  0  0  0  0  0  0  0  0
  188.7400  174.4690  141.7860 C   0  0  0  0  0  0  0  0  0  0  0  0
  193.6710  175.6100  146.4040 C   0  0  0  0  0  1  0  0  0  0  0  0
  186.7570  176.0730  141.7630 C   0  0  0  0  0  2  0  0  0  0  0  0
  186.4230  176.6120  146.2970 C   0  0  0  0  0  3  0  0  0  0  0  0
  185.8260  179.0530  145.0960 C   0  0  0  0  0  3  0  0  0  0  0  0
  185.1290  178.6490  146.2350 C   0  0  0  0  0  3  0  0  0  0  0  0
  186.5390  178.5520  142.0970 C   0  0  0  0  0  2  0  0  0  0  0  0
  190.1650  175.4500  143.3360 C   0  0  1  0  0  3  0  0  0  0  0  0
  187.9910  175.5370  142.3200 N   0  0  0  0  0  0  0  0  0  0  0  0
  190.3180  174.9320  144.7610 C   0  0  2  0  0  3  0  0  0  0  0  0
  191.0970  173.5310  141.8940 C   0  0  0  0  0  1  0  0  0  0  0  0
  188.2250  176.0450  144.7000 C   0  0  2  0  0  3  0  0  0  0  0  0
  1 21  2  0  0  0  0
  1 16  1  0  0  0  0
  2  8  1  0  0  0  0
  3 17  2  0  0  0  0
  5 24  1  0  0  0  0
  6  1  1  0  0  0  0
  8 14  1  0  0  0  0
  8  7  1  1  0  0  0
  9 18  1  0  0  0  0
  9 14  1  0  0  0  0
 10  8  1  0  0  0  0
 11 15  1  0  0  0  0
 12 24  1  0  0  0  0
 12 28  1  0  0  0  0
 13  9  2  0  0  0  0
 15 19  1  0  0  0  0
 15 23  1  0  0  0  0
 16 20  2  0  0  0  0
 17 25  1  0  0  0  0
 17  5  1  0  0  0  0
 19 25  1  0  0  0  0
 20  4  1  0  0  0  0
 21 22  1  0  0  0  0
 22  4  2  0  0  0  0
 23  6  1  0  0  0  0
 24 26  1  0  0  0  0
 25 12  1  0  0  0  0
 26 13  1  0  0  0  0
 26 10  1  0  0  0  0
 27  5  1  0  0  0  0
 28 16  1  0  0  0  0
 28 10  1  0  0  0  0
M  END
>  <MODEL>
1

>  <REMARK>
 VINA RESULT:      -9.2      0.000      0.000
  Name = 
  0 active torsions:
  status: ('A' for Active; 'I' for Inactive)
                            x       y       z     vdW  Elec       q    Type
                         _______ _______ _______ _____ _____    ______ ____

>  <TORSDO>
F 0

$$$$
=
 OpenBabel11112417423D

 28 32  0  0  1  0  0  0  0  0999 V2000
  190.3520  175.1160  143.8980 C   0  0  0  0  0  0  0  0  0  0  0  0
  187.6880  175.7840  145.9930 F   0  0  0  0  0  0  0  0  0  0  0  0
  186.2490  177.1650  139.9870 O   0  0  0  0  0  0  0  0  0  0  0  0
  192.4370  176.9220  144.4140 C   0  0  0  0  0  3  0  0  0  0  0  0
  185.7210  177.5190  142.2580 N   0  0  0  0  0  0  0  0  0  0  0  0
  189.3150  174.0860  143.5650 C   0  0  0  0  0  2  0  0  0  0  0  0
  189.4050  177.1060  146.9270 C   0  0  0  0  0  1  0  0  0  0  0  0
  188.0550  177.0970  146.2380 C   0  0  1  0  0  0  0  0  0  0  0  0
  185.8750  178.2780  146.6710 C   0  0  0  0  0  0  0  0  0  0  0  0
  188.1180  177.9160  144.9200 C   0  0  2  0  0  3  0  0  0  0  0  0
  188.4600  173.2740  139.9190 C   0  0  0  0  0  1  0  0  0  0  0  0
  187.5990  176.3240  143.1370 C   0  0  1  0  0  3  0  0  0  0  0  0
  185.7200  178.5400  145.4100 N   0  0  0  0  0  0  0  0  0  0  0  0
  187.0830  177.6880  147.1470 N   0  0  0  0  0  2  0  0  0  0  0  0
  188.4020  174.0710  141.2050 C   0  0  2  0  0  3  0  0  0  0  0  0
  190.0820  176.5110  143.9420 C   0  0  0  0  0  0  0  0  0  0  0  0
  186.5300  177.0330  141.2080 C   0  0  0  0  0  0  0  0  0  0  0  0
  184.8160  178.6660  147.6380 C   0  0  0  0  0  1  0  0  0  0  0  0
  188.5770  175.5480  140.8780 C   0  0  0  0  0  2  0  0  0  0  0  0
  191.1440  177.3940  144.1890 C   0  0  0  0  0  3  0  0  0  0  0  0
  191.6550  174.6570  144.1330 C   0  0  0  0  0  3  0  0  0  0  0  0
  192.6910  175.5530  144.3930 C   0  0  0  0  0  3  0  0  0  0  0  0
  189.5060  173.5840  142.1370 C   0  0  0  0  0  2  0  0  0  0  0  0
  186.2910  177.0570  143.5190 C   0  0  1  0  0  3  0  0  0  0  0  0
  187.6700  176.3540  141.6830 N   0  0  0  0  0  0  0  0  0  0  0  0
  186.7160  178.2390  144.3800 C   0  0  2  0  0  3  0  0  0  0  0  0
  184.3620  178.0080  142.1010 C   0  0  0  0  0  1  0  0  0  0  0  0
  188.7230  177.1510  143.7400 C   0  0  2  0  0  3  0  0  0  0  0  0
  1 16  2  0  0  0  0
  1 21  1  0  0  0  0
  2  8  1  0  0  0  0
  3 17  2  0  0  0  0
  5 24  1  0  0  0  0
  6  1  1  0  0  0  0
  8  7  1  1  0  0  0
  8 14  1  0  0  0  0
  9 14  1  0  0  0  0
  9 18  1  0  0  0  0
 10  8  1  0  0  0  0
 11 15  1  0  0  0  0
 12 24  1  0  0  0  0
 12 28  1  0  0  0  0
 13  9  2  0  0  0  0
 15 23  1  0  0  0  0
 16 20  1  0  0  0  0
 17 25  1  0  0  0  0
 17  5  1  0  0  0  0
 19 15  1  0  0  0  0
 19 25  1  0  0  0  0
 20  4  2  0  0  0  0
 21 22  2  0  0  0  0
 22  4  1  0  0  0  0
 23  6  1  0  0  0  0
 24 26  1  0  0  0  0
 25 12  1  0  0  0  0
 26 10  1  0  0  0  0
 26 13  1  0  0  0  0
 27  5  1  0  0  0  0
 28 16  1  0  0  0  0
 28 10  1  0  0  0  0
M  END
>  <MODEL>
2

>  <REMARK>
 VINA RESULT:      -8.8      2.150      5.136
  Name = 
  0 active torsions:
  status: ('A' for Active; 'I' for Inactive)
                            x       y       z     vdW  Elec       q    Type
                         _______ _______ _______ _____ _____    ______ ____

>  <TORSDO>
F 0

$$$$
=
 OpenBabel11112417423D

 28 32  0  0  1  0  0  0  0  0999 V2000
  190.3310  175.5740  143.6770 C   0  0  0  0  0  0  0  0  0  0  0  0
  188.2210  177.7130  141.9710 F   0  0  0  0  0  0  0  0  0  0  0  0
  186.3110  176.9390  147.9550 O   0  0  0  0  0  0  0  0  0  0  0  0
  190.0700  172.9730  142.6540 C   0  0  0  0  0  3  0  0  0  0  0  0
  185.6970  177.5860  145.7720 N   0  0  0  0  0  0  0  0  0  0  0  0
  190.5690  176.9280  144.2740 C   0  0  0  0  0  2  0  0  0  0  0  0
  188.1370  175.7620  140.6460 C   0  0  0  0  0  1  0  0  0  0  0  0
  187.3650  176.7150  141.5370 C   0  0  1  0  0  0  0  0  0  0  0  0
  185.1330  177.8600  141.3350 C   0  0  0  0  0  0  0  0  0  0  0  0
  186.7460  175.9480  142.7380 C   0  0  2  0  0  3  0  0  0  0  0  0
  190.7630  177.3880  148.0730 C   0  0  0  0  0  1  0  0  0  0  0  0
  187.7540  176.9370  144.7350 C   0  0  1  0  0  3  0  0  0  0  0  0
  184.8410  177.5970  142.5710 N   0  0  0  0  0  0  0  0  0  0  0  0
  186.3120  177.3240  140.7370 N   0  0  0  0  0  2  0  0  0  0  0  0
  190.0700  177.2210  146.7370 C   0  0  2  0  0  3  0  0  0  0  0  0
  189.0390  174.9990  143.5320 C   0  0  0  0  0  0  0  0  0  0  0  0
  186.5710  177.0210  146.7250 C   0  0  0  0  0  0  0  0  0  0  0  0
  184.1950  178.6660  140.5130 C   0  0  0  0  0  1  0  0  0  0  0  0
  188.9730  176.1740  146.8790 C   0  0  0  0  0  2  0  0  0  0  0  0
  188.9360  173.6930  143.0310 C   0  0  0  0  0  3  0  0  0  0  0  0
  191.4600  174.8410  143.2880 C   0  0  0  0  0  3  0  0  0  0  0  0
  191.3320  173.5500  142.7760 C   0  0  0  0  0  3  0  0  0  0  0  0
  191.1000  176.7940  145.6980 C   0  0  0  0  0  2  0  0  0  0  0  0
  186.3940  177.6330  144.4910 C   0  0  1  0  0  3  0  0  0  0  0  0
  187.7830  176.5890  146.1480 N   0  0  0  0  0  0  0  0  0  0  0  0
  185.6730  176.7800  143.4560 C   0  0  2  0  0  3  0  0  0  0  0  0
  184.5110  178.3610  146.0900 C   0  0  0  0  0  1  0  0  0  0  0  0
  187.7300  175.6800  143.8790 C   0  0  2  0  0  3  0  0  0  0  0  0
  1  6  1  0  0  0  0
  4 22  2  0  0  0  0
  4 20  1  0  0  0  0
  5 27  1  0  0  0  0
  5 17  1  0  0  0  0
  6 23  1  0  0  0  0
  8  7  1  6  0  0  0
  8  2  1  0  0  0  0
  8 10  1  0  0  0  0
  9 13  2  0  0  0  0
 10 26  1  0  0  0  0
 10 28  1  0  0  0  0
 12 25  1  0  0  0  0
 13 26  1  0  0  0  0
 14  9  1  0  0  0  0
 14  8  1  0  0  0  0
 15 19  1  0  0  0  0
 15 11  1  0  0  0  0
 16  1  1  0  0  0  0
 16 28  1  0  0  0  0
 17  3  2  0  0  0  0
 18  9  1  0  0  0  0
 20 16  2  0  0  0  0
 21  1  2  0  0  0  0
 22 21  1  0  0  0  0
 23 15  1  0  0  0  0
 24 12  1  0  0  0  0
 24  5  1  0  0  0  0
 25 17  1  0  0  0  0
 25 19  1  0  0  0  0
 26 24  1  0  0  0  0
 28 12  1  0  0  0  0
M  END
>  <MODEL>
3

>  <REMARK>
 VINA RESULT:      -8.5      2.565      6.514
  Name = 
  0 active torsions:
  status: ('A' for Active; 'I' for Inactive)
                            x       y       z     vdW  Elec       q    Type
                         _______ _______ _______ _____ _____    ______ ____

>  <TORSDO>
F 0

$$$$
=
 OpenBabel11112417423D

 28 32  0  0  1  0  0  0  0  0999 V2000
  189.0010  176.7950  144.9590 C   0  0  0  0  0  0  0  0  0  0  0  0
  192.4010  177.1610  144.4740 F   0  0  0  0  0  0  0  0  0  0  0  0
  189.8420  173.5550  139.9460 O   0  0  0  0  0  0  0  0  0  0  0  0
  188.5340  175.2460  147.2520 C   0  0  0  0  0  3  0  0  0  0  0  0
  191.8190  174.1720  141.0740 N   0  0  0  0  0  0  0  0  0  0  0  0
  189.1390  177.6540  143.7390 C   0  0  0  0  0  2  0  0  0  0  0  0
  192.2990  176.2420  146.6460 C   0  0  0  0  0  1  0  0  0  0  0  0
  192.7480  176.0410  145.2110 C   0  0  1  0  0  0  0  0  0  0  0  0
  194.8900  175.2450  144.1560 C   0  0  0  0  0  0  0  0  0  0  0  0
  192.1010  174.7590  144.6190 C   0  0  2  0  0  3  0  0  0  0  0  0
  187.0300  176.9730  140.6120 C   0  0  0  0  0  1  0  0  0  0  0  0
  190.7460  175.5230  142.7320 C   0  0  1  0  0  3  0  0  0  0  0  0
  194.2450  174.5070  143.3070 N   0  0  0  0  0  0  0  0  0  0  0  0
  194.1990  175.9160  145.2080 N   0  0  0  0  0  2  0  0  0  0  0  0
  188.1840  176.7650  141.5700 C   0  0  2  0  0  3  0  0  0  0  0  0
  189.6700  175.5510  145.1190 C   0  0  0  0  0  0  0  0  0  0  0  0
  190.4200  174.1530  140.8930 C   0  0  0  0  0  0  0  0  0  0  0  0
  196.3710  175.3340  144.0770 C   0  0  0  0  0  1  0  0  0  0  0  0
  188.3350  175.2740  141.8440 C   0  0  0  0  0  2  0  0  0  0  0  0
  189.4100  174.7890  146.2680 C   0  0  0  0  0  3  0  0  0  0  0  0
  188.1290  177.2430  145.9590 C   0  0  0  0  0  3  0  0  0  0  0  0
  187.8980  176.4770  147.1020 C   0  0  0  0  0  3  0  0  0  0  0  0
  187.8990  177.5290  142.8580 C   0  0  0  0  0  2  0  0  0  0  0  0
  192.1200  175.0730  142.1820 C   0  0  1  0  0  3  0  0  0  0  0  0
  189.7440  174.9080  141.8740 N   0  0  0  0  0  0  0  0  0  0  0  0
  192.7930  174.3170  143.3210 C   0  0  2  0  0  3  0  0  0  0  0  0
  192.7910  173.7300  140.0890 C   0  0  0  0  0  1  0  0  0  0  0  0
  190.6610  174.9530  144.1400 C   0  0  2  0  0  3  0  0  0  0  0  0
  1 16  2  0  0  0  0
  1 21  1  0  0  0  0
  2  8  1  0  0  0  0
  3 17  2  0  0  0  0
  5 24  1  0  0  0  0
  6  1  1  0  0  0  0
  8  7  1  1  0  0  0
  9 14  1  0  0  0  0
 10  8  1  0  0  0  0
 11 15  1  0  0  0  0
 12 28  1  0  0  0  0
 13 26  1  0  0  0  0
 13  9  2  0  0  0  0
 14  8  1  0  0  0  0
 15 19  1  0  0  0  0
 15 23  1  0  0  0  0
 16 20  1  0  0  0  0
 17  5  1  0  0  0  0
 17 25  1  0  0  0  0
 18  9  1  0  0  0  0
 19 25  1  0  0  0  0
 20  4  2  0  0  0  0
 21 22  2  0  0  0  0
 22  4  1  0  0  0  0
 23  6  1  0  0  0  0
 24 12  1  0  0  0  0
 24 26  1  0  0  0  0
 25 12  1  0  0  0  0
 26 10  1  0  0  0  0
 27  5  1  0  0  0  0
 28 10  1  0  0  0  0
 28 16  1  0  0  0  0
M  END
>  <MODEL>
4

>  <REMARK>
 VINA RESULT:      -8.1      1.830      2.713
  Name = 
  0 active torsions:
  status: ('A' for Active; 'I' for Inactive)
                            x       y       z     vdW  Elec       q    Type
                         _______ _______ _______ _____ _____    ______ ____

>  <TORSDO>
F 0

$$$$
=
 OpenBabel11112417423D

 28 32  0  0  1  0  0  0  0  0999 V2000
  191.2770  174.9530  142.3580 C   0  0  0  0  0  0  0  0  0  0  0  0
  189.1740  177.6930  142.4470 F   0  0  0  0  0  0  0  0  0  0  0  0
  191.3680  176.3300  148.2250 O   0  0  0  0  0  0  0  0  0  0  0  0
  189.7980  172.6460  141.7510 C   0  0  0  0  0  3  0  0  0  0  0  0
  189.6950  177.4240  146.9730 N   0  0  0  0  0  0  0  0  0  0  0  0
  192.1620  176.1250  142.6560 C   0  0  0  0  0  2  0  0  0  0  0  0
  187.7940  176.0310  141.4960 C   0  0  0  0  0  1  0  0  0  0  0  0
  188.0250  176.9540  142.6770 C   0  0  1  0  0  0  0  0  0  0  0  0
  186.5410  178.5100  143.9830 C   0  0  0  0  0  0  0  0  0  0  0  0
  188.1420  176.1310  143.9890 C   0  0  2  0  0  3  0  0  0  0  0  0
  194.8220  175.9210  145.4080 C   0  0  0  0  0  1  0  0  0  0  0  0
  190.3890  176.5810  144.8440 C   0  0  1  0  0  3  0  0  0  0  0  0
  187.0430  178.1100  145.1090 N   0  0  0  0  0  0  0  0  0  0  0  0
  186.8950  177.8680  142.7590 N   0  0  0  0  0  2  0  0  0  0  0  0
  193.4270  176.1040  144.8480 C   0  0  2  0  0  3  0  0  0  0  0  0
  190.0950  174.6590  143.0920 C   0  0  0  0  0  0  0  0  0  0  0  0
  190.8010  176.5600  147.1240 C   0  0  0  0  0  0  0  0  0  0  0  0
  185.5290  179.5980  143.9740 C   0  0  0  0  0  1  0  0  0  0  0  0
  192.4530  175.2690  145.6700 C   0  0  0  0  0  2  0  0  0  0  0  0
  189.3810  173.4920  142.7780 C   0  0  0  0  0  3  0  0  0  0  0  0
  191.6800  174.0960  141.3250 C   0  0  0  0  0  3  0  0  0  0  0  0
  190.9440  172.9510  141.0190 C   0  0  0  0  0  3  0  0  0  0  0  0
  193.4200  175.6670  143.3880 C   0  0  0  0  0  2  0  0  0  0  0  0
  189.4080  177.5470  145.5480 C   0  0  1  0  0  3  0  0  0  0  0  0
  191.2190  176.0100  145.8950 N   0  0  0  0  0  0  0  0  0  0  0  0
  188.0130  177.0210  145.2350 C   0  0  2  0  0  3  0  0  0  0  0  0
  189.2160  178.3440  147.9900 C   0  0  0  0  0  1  0  0  0  0  0  0
  189.5210  175.5050  144.2100 C   0  0  2  0  0  3  0  0  0  0  0  0
  1  6  1  0  0  0  0
  1 16  1  0  0  0  0
  2  8  1  0  0  0  0
  4 20  1  0  0  0  0
  5 17  1  0  0  0  0
  5 27  1  0  0  0  0
  6 23  1  0  0  0  0
  8  7  1  6  0  0  0
  8 14  1  0  0  0  0
  8 10  1  0  0  0  0
  9 13  2  0  0  0  0
 10 28  1  0  0  0  0
 10 26  1  0  0  0  0
 12 24  1  0  0  0  0
 12 25  1  0  0  0  0
 13 26  1  0  0  0  0
 14  9  1  0  0  0  0
 15 11  1  0  0  0  0
 15 19  1  0  0  0  0
 16 28  1  0  0  0  0
 17  3  2  0  0  0  0
 18  9  1  0  0  0  0
 19 25  1  0  0  0  0
 20 16  2  0  0  0  0
 21  1  2  0  0  0  0
 22 21  1  0  0  0  0
 22  4  2  0  0  0  0
 23 15  1  0  0  0  0
 24  5  1  0  0  0  0
 25 17  1  0  0  0  0
 26 24  1  0  0  0  0
 28 12  1  0  0  0  0
M  END
>  <MODEL>
5

>  <REMARK>
 VINA RESULT:      -7.8      2.369      6.378
  Name = 
  0 active torsions:
  status: ('A' for Active; 'I' for Inactive)
                            x       y       z     vdW  Elec       q    Type
                         _______ _______ _______ _____ _____    ______ ____

>  <TORSDO>
F 0

$$$$
=
 OpenBabel11112417423D

 28 32  0  0  1  0  0  0  0  0999 V2000
  192.1890  174.0880  144.9770 C   0  0  0  0  0  0  0  0  0  0  0  0
  189.4170  175.1400  146.7500 F   0  0  0  0  0  0  0  0  0  0  0  0
  188.3170  175.3000  140.5200 O   0  0  0  0  0  0  0  0  0  0  0  0
  194.2520  175.9740  145.2400 C   0  0  0  0  0  3  0  0  0  0  0  0
  187.6660  176.0910  142.6440 N   0  0  0  0  0  0  0  0  0  0  0  0
  191.1680  173.0060  144.7970 C   0  0  0  0  0  2  0  0  0  0  0  0
  191.0880  176.6300  147.4980 C   0  0  0  0  0  1  0  0  0  0  0  0
  189.7770  176.4770  146.7510 C   0  0  1  0  0  0  0  0  0  0  0  0
  187.5820  177.7070  146.8230 C   0  0  0  0  0  0  0  0  0  0  0  0
  189.9160  177.0200  145.3030 C   0  0  2  0  0  3  0  0  0  0  0  0
  190.5100  171.4860  141.3410 C   0  0  0  0  0  1  0  0  0  0  0  0
  189.4870  175.1050  143.8430 C   0  0  1  0  0  3  0  0  0  0  0  0
  187.4970  177.7130  145.5290 N   0  0  0  0  0  0  0  0  0  0  0  0
  188.7600  177.2300  147.4720 N   0  0  0  0  0  2  0  0  0  0  0  0
  190.3850  172.5200  142.4400 C   0  0  2  0  0  3  0  0  0  0  0  0
  191.9240  175.4630  144.7300 C   0  0  0  0  0  0  0  0  0  0  0  0
  188.5290  175.4130  141.7570 C   0  0  0  0  0  0  0  0  0  0  0  0
  186.4740  178.2700  147.6350 C   0  0  0  0  0  1  0  0  0  0  0  0
  190.5850  173.9050  141.8380 C   0  0  0  0  0  2  0  0  0  0  0  0
  192.9750  176.3840  144.8560 C   0  0  0  0  0  3  0  0  0  0  0  0
  193.4750  173.6920  145.3680 C   0  0  0  0  0  3  0  0  0  0  0  0
  194.5000  174.6280  145.5030 C   0  0  0  0  0  3  0  0  0  0  0  0
  191.4330  172.2340  143.5080 C   0  0  0  0  0  2  0  0  0  0  0  0
  188.1640  175.8900  144.0010 C   0  0  1  0  0  3  0  0  0  0  0  0
  189.6380  174.8480  142.4180 N   0  0  0  0  0  0  0  0  0  0  0  0
  188.5470  177.2220  144.6350 C   0  0  2  0  0  3  0  0  0  0  0  0
  186.3200  176.5320  142.3200 C   0  0  0  0  0  1  0  0  0  0  0  0
  190.5810  176.0420  144.3320 C   0  0  2  0  0  3  0  0  0  0  0  0
  1 21  1  0  0  0  0
  2  8  1  0  0  0  0
  3 17  2  0  0  0  0
  4 22  1  0  0  0  0
  5 24  1  0  0  0  0
  6  1  1  0  0  0  0
  8 14  1  0  0  0  0
  8  7  1  1  0  0  0
  9 14  1  0  0  0  0
  9 18  1  0  0  0  0
 10  8  1  0  0  0  0
 11 15  1  0  0  0  0
 12 24  1  0  0  0  0
 12 28  1  0  0  0  0
 13  9  2  0  0  0  0
 15 23  1  0  0  0  0
 16 20  1  0  0  0  0
 16  1  2  0  0  0  0
 17 25  1  0  0  0  0
 17  5  1  0  0  0  0
 19 25  1  0  0  0  0
 19 15  1  0  0  0  0
 20  4  2  0  0  0  0
 21 22  2  0  0  0  0
 23  6  1  0  0  0  0
 24 26  1  0  0  0  0
 25 12  1  0  0  0  0
 26 10  1  0  0  0  0
 26 13  1  0  0  0  0
 27  5  1  0  0  0  0
 28 16  1  0  0  0  0
 28 10  1  0  0  0  0
M  END
>  <MODEL>
6

>  <REMARK>
 VINA RESULT:      -7.8      1.807      5.434
  Name = 
  0 active torsions:
  status: ('A' for Active; 'I' for Inactive)
                            x       y       z     vdW  Elec       q    Type
                         _______ _______ _______ _____ _____    ______ ____

>  <TORSDO>
F 0

$$$$
=
 OpenBabel11112417423D

 28 32  0  0  1  0  0  0  0  0999 V2000
  186.4550  176.7390  143.2830 C   0  0  0  0  0  0  0  0  0  0  0  0
  188.3290  173.8410  143.1380 F   0  0  0  0  0  0  0  0  0  0  0  0
  190.4120  177.6580  147.7350 O   0  0  0  0  0  0  0  0  0  0  0  0
  186.9340  178.2910  140.9930 C   0  0  0  0  0  3  0  0  0  0  0  0
  190.9240  175.8510  146.3080 N   0  0  0  0  0  0  0  0  0  0  0  0
  186.1060  175.9770  144.5250 C   0  0  0  0  0  2  0  0  0  0  0  0
  188.5660  174.7030  140.9530 C   0  0  0  0  0  1  0  0  0  0  0  0
  189.2650  174.3480  142.2520 C   0  0  1  0  0  0  0  0  0  0  0  0
  191.3780  173.0980  142.8030 C   0  0  0  0  0  0  0  0  0  0  0  0
  189.9730  175.5980  142.8410 C   0  0  2  0  0  3  0  0  0  0  0  0
  185.9410  177.7370  147.9250 C   0  0  0  0  0  1  0  0  0  0  0  0
  188.9160  175.9850  145.0130 C   0  0  1  0  0  3  0  0  0  0  0  0
  191.7160  173.9800  143.6910 N   0  0  0  0  0  0  0  0  0  0  0  0
  190.2430  173.3080  141.9660 N   0  0  0  0  0  2  0  0  0  0  0  0
  186.6220  177.0680  146.7490 C   0  0  2  0  0  3  0  0  0  0  0  0
  187.7910  177.0220  142.8890 C   0  0  0  0  0  0  0  0  0  0  0  0
  190.1230  176.9260  146.7520 C   0  0  0  0  0  0  0  0  0  0  0  0
  192.2240  171.8930  142.6040 C   0  0  0  0  0  1  0  0  0  0  0  0
  187.8120  177.9170  146.3210 C   0  0  0  0  0  2  0  0  0  0  0  0
  188.0040  177.8100  141.7480 C   0  0  0  0  0  3  0  0  0  0  0  0
  185.3900  177.2240  142.5110 C   0  0  0  0  0  3  0  0  0  0  0  0
  185.6270  177.9910  141.3710 C   0  0  0  0  0  3  0  0  0  0  0  0
  185.6160  176.9290  145.6120 C   0  0  0  0  0  2  0  0  0  0  0  0
  190.2020  175.1570  145.2480 C   0  0  1  0  0  3  0  0  0  0  0  0
  188.9450  177.0640  145.9890 N   0  0  0  0  0  0  0  0  0  0  0  0
  190.9790  175.2210  143.9390 C   0  0  2  0  0  3  0  0  0  0  0  0
  192.0400  175.2880  147.0470 C   0  0  0  0  0  1  0  0  0  0  0  0
  189.0390  176.5410  143.6030 C   0  0  2  0  0  3  0  0  0  0  0  0
  1  6  1  0  0  0  0
  4 22  2  0  0  0  0
  4 20  1  0  0  0  0
  5 17  1  0  0  0  0
  5 27  1  0  0  0  0
  6 23  1  0  0  0  0
  8  7  1  6  0  0  0
  8 10  1  0  0  0  0
  8  2  1  0  0  0  0
  9 13  2  0  0  0  0
 10 28  1  0  0  0  0
 10 26  1  0  0  0  0
 12 24  1  0  0  0  0
 12 25  1  0  0  0  0
 13 26  1  0  0  0  0
 14  8  1  0  0  0  0
 14  9  1  0  0  0  0
 15 11  1  0  0  0  0
 16  1  1  0  0  0  0
 16 28  1  0  0  0  0
 17  3  2  0  0  0  0
 18  9  1  0  0  0  0
 19 15  1  0  0  0  0
 20 16  2  0  0  0  0
 21  1  2  0  0  0  0
 22 21  1  0  0  0  0
 23 15  1  0  0  0  0
 24  5  1  0  0  0  0
 25 19  1  0  0  0  0
 25 17  1  0  0  0  0
 26 24  1  0  0  0  0
 28 12  1  0  0  0  0
M  END
>  <MODEL>
7

>  <REMARK>
 VINA RESULT:      -7.7      2.276      4.716
  Name = 
  0 active torsions:
  status: ('A' for Active; 'I' for Inactive)
                            x       y       z     vdW  Elec       q    Type
                         _______ _______ _______ _____ _____    ______ ____

>  <TORSDO>
F 0

$$$$
=
 OpenBabel11112417423D

 28 32  0  0  1  0  0  0  0  0999 V2000
  189.3300  176.2060  144.3060 C   0  0  0  0  0  0  0  0  0  0  0  0
  192.7780  176.1190  144.5040 F   0  0  0  0  0  0  0  0  0  0  0  0
  190.5420  170.9360  141.6440 O   0  0  0  0  0  0  0  0  0  0  0  0
  188.2290  175.9580  146.8760 C   0  0  0  0  0  3  0  0  0  0  0  0
  192.3570  171.9100  142.7910 N   0  0  0  0  0  0  0  0  0  0  0  0
  189.8140  176.3740  142.8980 C   0  0  0  0  0  2  0  0  0  0  0  0
  192.1510  176.3480  146.7680 C   0  0  0  0  0  1  0  0  0  0  0  0
  192.8110  175.4670  145.7250 C   0  0  1  0  0  0  0  0  0  0  0  0
  194.9580  174.1550  145.6670 C   0  0  0  0  0  0  0  0  0  0  0  0
  192.0910  174.0940  145.6460 C   0  0  2  0  0  3  0  0  0  0  0  0
  188.2170  174.4020  140.0270 C   0  0  0  0  0  1  0  0  0  0  0  0
  191.2270  173.9400  143.3630 C   0  0  1  0  0  3  0  0  0  0  0  0
  194.3690  173.1380  145.1210 N   0  0  0  0  0  0  0  0  0  0  0  0
  194.2020  175.2800  146.1120 N   0  0  0  0  0  2  0  0  0  0  0  0
  189.1360  174.6140  141.2120 C   0  0  2  0  0  3  0  0  0  0  0  0
  189.7610  175.1530  145.1600 C   0  0  0  0  0  0  0  0  0  0  0  0
  191.0260  171.8800  142.3220 C   0  0  0  0  0  0  0  0  0  0  0  0
  196.4250  174.1180  145.8990 C   0  0  0  0  0  1  0  0  0  0  0  0
  189.0040  173.4260  142.1560 C   0  0  0  0  0  2  0  0  0  0  0  0
  189.1850  175.0440  146.4350 C   0  0  0  0  0  3  0  0  0  0  0  0
  188.3740  177.1200  144.7660 C   0  0  0  0  0  3  0  0  0  0  0  0
  187.8280  177.0010  146.0440 C   0  0  0  0  0  3  0  0  0  0  0  0
  188.7470  175.9110  141.9110 C   0  0  0  0  0  2  0  0  0  0  0  0
  192.5910  173.2110  143.4070 C   0  0  1  0  0  3  0  0  0  0  0  0
  190.3110  173.0440  142.6710 N   0  0  0  0  0  0  0  0  0  0  0  0
  192.9260  173.0530  144.8850 C   0  0  2  0  0  3  0  0  0  0  0  0
  193.4090  171.0030  142.3640 C   0  0  0  0  0  1  0  0  0  0  0  0
  190.8060  174.1120  144.8140 C   0  0  2  0  0  3  0  0  0  0  0  0
  1 21  2  0  0  0  0
  1 16  1  0  0  0  0
  2  8  1  0  0  0  0
  3 17  2  0  0  0  0
  5 24  1  0  0  0  0
  6  1  1  0  0  0  0
  8 14  1  0  0  0  0
  8  7  1  1  0  0  0
  9 18  1  0  0  0  0
  9 14  1  0  0  0  0
 10  8  1  0  0  0  0
 11 15  1  0  0  0  0
 12 24  1  0  0  0  0
 12 28  1  0  0  0  0
 13  9  2  0  0  0  0
 15 23  1  0  0  0  0
 15 19  1  0  0  0  0
 16 20  2  0  0  0  0
 17 25  1  0  0  0  0
 17  5  1  0  0  0  0
 19 25  1  0  0  0  0
 20  4  1  0  0  0  0
 21 22  1  0  0  0  0
 22  4  2  0  0  0  0
 23  6  1  0  0  0  0
 24 26  1  0  0  0  0
 25 12  1  0  0  0  0
 26 13  1  0  0  0  0
 26 10  1  0  0  0  0
 27  5  1  0  0  0  0
 28 16  1  0  0  0  0
 28 10  1  0  0  0  0
M  END
>  <MODEL>
8

>  <REMARK>
 VINA RESULT:      -7.5      2.287      3.313
  Name = 
  0 active torsions:
  status: ('A' for Active; 'I' for Inactive)
                            x       y       z     vdW  Elec       q    Type
                         _______ _______ _______ _____ _____    ______ ____

>  <TORSDO>
F 0

$$$$
=
 OpenBabel11112417423D

 28 32  0  0  1  0  0  0  0  0999 V2000
  188.4620  176.2920  144.7910 C   0  0  0  0  0  0  0  0  0  0  0  0
  188.9770  173.1190  143.5260 F   0  0  0  0  0  0  0  0  0  0  0  0
  194.4640  175.8470  145.1070 O   0  0  0  0  0  0  0  0  0  0  0  0
  187.5500  177.9880  142.7490 C   0  0  0  0  0  3  0  0  0  0  0  0
  193.4080  174.1650  143.8350 N   0  0  0  0  0  0  0  0  0  0  0  0
  188.9130  175.4670  145.9580 C   0  0  0  0  0  2  0  0  0  0  0  0
  187.8170  174.1800  141.7650 C   0  0  0  0  0  1  0  0  0  0  0  0
  189.1140  173.5350  142.2120 C   0  0  1  0  0  0  0  0  0  0  0  0
  190.6530  171.8310  141.1820 C   0  0  0  0  0  0  0  0  0  0  0  0
  190.2920  174.5360  142.0630 C   0  0  2  0  0  3  0  0  0  0  0  0
  191.5660  176.7910  148.3850 C   0  0  0  0  0  1  0  0  0  0  0  0
  191.1700  174.8550  144.3240 C   0  0  1  0  0  3  0  0  0  0  0  0
  191.7020  172.5110  141.5250 N   0  0  0  0  0  0  0  0  0  0  0  0
  189.3450  172.3650  141.3770 N   0  0  0  0  0  2  0  0  0  0  0  0
  191.0600  176.1500  147.1100 C   0  0  2  0  0  3  0  0  0  0  0  0
  189.1630  176.3490  143.5550 C   0  0  0  0  0  0  0  0  0  0  0  0
  193.4160  175.3140  144.6550 C   0  0  0  0  0  0  0  0  0  0  0  0
  190.8160  170.5160  140.5110 C   0  0  0  0  0  1  0  0  0  0  0  0
  191.7680  176.7910  145.9230 C   0  0  0  0  0  2  0  0  0  0  0  0
  188.6940  177.2140  142.5550 C   0  0  0  0  0  3  0  0  0  0  0  0
  187.3100  177.0700  144.9680 C   0  0  0  0  0  3  0  0  0  0  0  0
  186.8530  177.9110  143.9530 C   0  0  0  0  0  3  0  0  0  0  0  0
  189.5520  176.3550  147.0210 C   0  0  0  0  0  2  0  0  0  0  0  0
  192.0210  173.7650  143.6300 C   0  0  1  0  0  3  0  0  0  0  0  0
  192.1150  175.7770  144.9360 N   0  0  0  0  0  0  0  0  0  0  0  0
  191.6550  173.8330  142.1520 C   0  0  2  0  0  3  0  0  0  0  0  0
  194.5550  173.3030  143.6020 C   0  0  0  0  0  1  0  0  0  0  0  0
  190.4000  175.5450  143.2090 C   0  0  2  0  0  3  0  0  0  0  0  0
  1 21  1  0  0  0  0
  1  6  1  0  0  0  0
  4 22  1  0  0  0  0
  5 17  1  0  0  0  0
  6 23  1  0  0  0  0
  8  7  1  6  0  0  0
  8  2  1  0  0  0  0
  9 14  1  0  0  0  0
  9 13  2  0  0  0  0
 10 26  1  0  0  0  0
 10  8  1  0  0  0  0
 10 28  1  0  0  0  0
 12 25  1  0  0  0  0
 13 26  1  0  0  0  0
 14  8  1  0  0  0  0
 15 11  1  0  0  0  0
 16  1  2  0  0  0  0
 17 25  1  0  0  0  0
 17  3  2  0  0  0  0
 18  9  1  0  0  0  0
 19 15  1  0  0  0  0
 20  4  2  0  0  0  0
 20 16  1  0  0  0  0
 22 21  2  0  0  0  0
 23 15  1  0  0  0  0
 24  5  1  0  0  0  0
 24 12  1  0  0  0  0
 25 19  1  0  0  0  0
 26 24  1  0  0  0  0
 27  5  1  0  0  0  0
 28 16  1  0  0  0  0
 28 12  1  0  0  0  0
M  END
>  <MODEL>
9

>  <REMARK>
 VINA RESULT:      -7.4      2.437      5.341
  Name = 
  0 active torsions:
  status: ('A' for Active; 'I' for Inactive)
                            x       y       z     vdW  Elec       q    Type
                         _______ _______ _______ _____ _____    ______ ____

>  <TORSDO>
F 0

$$$$
