=
 OpenBabel11112416503D

 31 35  0  0  1  0  0  0  0  0999 V2000
  191.1880  171.2100  143.0670 C   0  0  0  0  0  0  0  0  0  0  0  0
  190.9720  174.0560  145.5140 N   0  0  0  0  0  0  0  0  0  0  0  0
  192.2990  174.5770  145.7670 C   0  0  0  0  0  0  0  0  0  0  0  0
  194.7110  174.5300  145.4370 C   0  0  0  0  0  0  0  0  0  0  0  0
  190.7070  173.1800  144.4000 C   0  0  0  0  0  0  0  0  0  0  0  0
  190.1120  171.5140  142.2260 C   0  0  0  0  0  3  0  0  0  0  0  0
  193.4480  173.9650  145.2390 C   0  0  0  0  0  3  0  0  0  0  0  0
  189.1290  175.5200  144.8660 C   0  0  2  0  0  3  0  0  0  0  0  0
  192.1650  169.7920  142.7600 Cl  0  0  0  0  0  0  0  0  0  0  0  0
  191.3170  176.3910  147.0330 O   0  0  0  0  0  0  0  0  0  0  0  0
  196.1290  173.7500  144.7730 Cl  0  0  0  0  0  0  0  0  0  0  0  0
  188.8180  174.5960  143.8170 O   0  0  0  0  0  0  0  0  0  0  0  0
  189.7900  174.7710  146.0260 C   0  0  2  0  0  3  0  0  0  0  0  0
  191.4820  172.0380  144.1540 C   0  0  0  0  0  3  0  0  0  0  0  0
  194.8380  175.7230  146.1510 C   0  0  0  0  0  3  0  0  0  0  0  0
  189.6190  173.4760  143.5540 C   0  0  0  0  0  0  0  0  0  0  0  0
  189.3270  172.6440  142.4710 C   0  0  0  0  0  3  0  0  0  0  0  0
  190.1110  175.6640  147.2310 C   0  0  0  0  0  2  0  0  0  0  0  0
  192.4430  175.7690  146.4990 C   0  0  0  0  0  0  0  0  0  0  0  0
  193.7040  176.3440  146.6790 C   0  0  0  0  0  3  0  0  0  0  0  0
  187.9140  176.1880  145.3070 N   0  0  0  0  0  2  0  0  0  0  0  0
  189.3360  177.8780  144.2770 C   0  0  0  0  0  1  0  0  0  0  0  0
  187.9380  177.5380  144.7600 C   0  0  1  0  0  3  0  0  0  0  0  0
  185.1120  178.0500  141.5870 C   0  0  0  0  0  0  0  0  0  0  0  0
  187.3890  177.9350  142.3590 C   0  0  0  0  0  3  0  0  0  0  0  0
  185.0590  177.4060  145.1320 F   0  0  0  0  0  0  0  0  0  0  0  0
  184.1700  178.2350  140.5380 N   0  0  0  0  0  1  0  0  0  0  0  0
  186.4790  178.1170  141.3170 C   0  0  0  0  0  3  0  0  0  0  0  0
  185.5450  177.6290  143.8870 C   0  0  0  0  0  0  0  0  0  0  0  0
  186.9320  177.6870  143.6560 C   0  0  0  0  0  0  0  0  0  0  0  0
  184.6770  177.8110  142.8540 N   0  0  0  0  0  0  0  0  0  0  0  0
  1 14  1  0  0  0  0
  2  3  1  0  0  0  0
  2 13  1  0  0  0  0
  3 19  1  0  0  0  0
  4 15  2  0  0  0  0
  5  2  1  0  0  0  0
  6 17  1  0  0  0  0
  6  1  2  0  0  0  0
  7  4  1  0  0  0  0
  7  3  2  0  0  0  0
  8 21  1  1  0  0  0
  8 13  1  0  0  0  0
  9  1  1  0  0  0  0
 10 18  1  0  0  0  0
 11  4  1  0  0  0  0
 12  8  1  0  0  0  0
 13 18  1  1  0  0  0
 14  5  2  0  0  0  0
 15 20  1  0  0  0  0
 16 12  1  0  0  0  0
 16  5  1  0  0  0  0
 17 16  2  0  0  0  0
 19 20  2  0  0  0  0
 19 10  1  0  0  0  0
 23 22  1  6  0  0  0
 23 21  1  0  0  0  0
 24 31  1  0  0  0  0
 25 30  2  0  0  0  0
 27 24  1  0  0  0  0
 28 24  2  0  0  0  0
 28 25  1  0  0  0  0
 29 26  1  0  0  0  0
 30 29  1  0  0  0  0
 30 23  1  0  0  0  0
 31 29  2  0  0  0  0
M  END
>  <MODEL>
1

>  <REMARK>
 VINA RESULT:      -8.2      0.000      0.000
  Name = 
  3 active torsions:
  status: ('A' for Active; 'I' for Inactive)
    1  A    between atoms: C_5  and  N_16
    2  A    between atoms: C_5  and  C_30
    3  A    between atoms: C_10  and  N_16
                            x       y       z     vdW  Elec       q    Type
                         _______ _______ _______ _____ _____    ______ ____

>  <TORSDO>
F 3

$$$$
=
 OpenBabel11112416503D

 31 35  0  0  1  0  0  0  0  0999 V2000
  185.7240  177.7160  146.4050 C   0  0  0  0  0  0  0  0  0  0  0  0
  187.6660  175.9020  143.7450 N   0  0  0  0  0  0  0  0  0  0  0  0
  187.2040  176.3230  142.4380 C   0  0  0  0  0  0  0  0  0  0  0  0
  185.7230  177.6310  141.0160 C   0  0  0  0  0  0  0  0  0  0  0  0
  187.3300  176.6420  144.9360 C   0  0  0  0  0  0  0  0  0  0  0  0
  186.7550  178.0590  147.2850 C   0  0  0  0  0  3  0  0  0  0  0  0
  186.1030  177.1820  142.2830 C   0  0  0  0  0  3  0  0  0  0  0  0
  190.0340  175.9360  144.3320 C   0  0  2  0  0  3  0  0  0  0  0  0
  184.0750  178.1740  146.7670 Cl  0  0  0  0  0  0  0  0  0  0  0  0
  189.0110  175.0720  141.4250 O   0  0  0  0  0  0  0  0  0  0  0  0
  184.3470  178.6990  140.8440 Cl  0  0  0  0  0  0  0  0  0  0  0  0
  189.6810  176.5900  145.5560 O   0  0  0  0  0  0  0  0  0  0  0  0
  188.8680  175.0610  143.8650 C   0  0  2  0  0  3  0  0  0  0  0  0
  186.0090  177.0050  145.2350 C   0  0  0  0  0  3  0  0  0  0  0  0
  186.4510  177.2420  139.8890 C   0  0  0  0  0  3  0  0  0  0  0  0
  188.3630  176.9830  145.8310 C   0  0  0  0  0  0  0  0  0  0  0  0
  188.0730  177.6910  147.0000 C   0  0  0  0  0  3  0  0  0  0  0  0
  189.1690  174.2670  142.5870 C   0  0  0  0  0  2  0  0  0  0  0  0
  187.9170  175.9250  141.2940 C   0  0  0  0  0  0  0  0  0  0  0  0
  187.5490  176.3910  140.0300 C   0  0  0  0  0  3  0  0  0  0  0  0
  191.2340  175.1360  144.5320 N   0  0  0  0  0  2  0  0  0  0  0  0
  192.2420  175.0710  146.7500 C   0  0  0  0  0  1  0  0  0  0  0  0
  192.0890  175.8610  145.4620 C   0  0  1  0  0  3  0  0  0  0  0  0
  195.9130  176.5990  143.6880 C   0  0  0  0  0  0  0  0  0  0  0  0
  193.7040  175.6470  143.5730 C   0  0  0  0  0  3  0  0  0  0  0  0
  194.2000  177.3790  146.7600 F   0  0  0  0  0  0  0  0  0  0  0  0
  197.1890  176.8330  143.1070 N   0  0  0  0  0  1  0  0  0  0  0  0
  194.9510  175.8690  142.9880 C   0  0  0  0  0  3  0  0  0  0  0  0
  194.4230  176.8830  145.5180 C   0  0  0  0  0  0  0  0  0  0  0  0
  193.4260  176.1540  144.8450 C   0  0  0  0  0  0  0  0  0  0  0  0
  195.6320  177.0850  144.9270 N   0  0  0  0  0  0  0  0  0  0  0  0
  1  9  1  0  0  0  0
  1  6  1  0  0  0  0
  2 13  1  0  0  0  0
  2  5  1  0  0  0  0
  3  2  1  0  0  0  0
  4  7  2  0  0  0  0
  5 14  1  0  0  0  0
  5 16  2  0  0  0  0
  7  3  1  0  0  0  0
  8 21  1  1  0  0  0
  8 12  1  0  0  0  0
 10 18  1  0  0  0  0
 11  4  1  0  0  0  0
 12 16  1  0  0  0  0
 13 18  1  6  0  0  0
 13  8  1  0  0  0  0
 14  1  2  0  0  0  0
 15 20  2  0  0  0  0
 15  4  1  0  0  0  0
 16 17  1  0  0  0  0
 17  6  2  0  0  0  0
 19 10  1  0  0  0  0
 19  3  2  0  0  0  0
 20 19  1  0  0  0  0
 21 23  1  0  0  0  0
 23 22  1  1  0  0  0
 24 31  1  0  0  0  0
 25 30  2  0  0  0  0
 27 24  1  0  0  0  0
 28 25  1  0  0  0  0
 28 24  2  0  0  0  0
 29 26  1  0  0  0  0
 30 23  1  0  0  0  0
 30 29  1  0  0  0  0
 31 29  2  0  0  0  0
M  END
>  <MODEL>
2

>  <REMARK>
 VINA RESULT:      -8.1      4.244      8.075
  Name = 
  3 active torsions:
  status: ('A' for Active; 'I' for Inactive)
    1  A    between atoms: C_5  and  N_16
    2  A    between atoms: C_5  and  C_30
    3  A    between atoms: C_10  and  N_16
                            x       y       z     vdW  Elec       q    Type
                         _______ _______ _______ _____ _____    ______ ____

>  <TORSDO>
F 3

$$$$
=
 OpenBabel11112416503D

 31 35  0  0  1  0  0  0  0  0999 V2000
  194.8900  175.4730  144.9740 C   0  0  0  0  0  0  0  0  0  0  0  0
  191.6080  176.0930  143.2470 N   0  0  0  0  0  0  0  0  0  0  0  0
  191.3130  174.9860  142.3610 C   0  0  0  0  0  0  0  0  0  0  0  0
  191.8940  172.8540  141.3390 C   0  0  0  0  0  0  0  0  0  0  0  0
  192.6300  175.9930  144.2600 C   0  0  0  0  0  0  0  0  0  0  0  0
  194.5670  175.8510  146.2820 C   0  0  0  0  0  3  0  0  0  0  0  0
  192.2330  173.9470  142.1420 C   0  0  0  0  0  3  0  0  0  0  0  0
  189.9850  176.8780  144.8910 C   0  0  2  0  0  3  0  0  0  0  0  0
  196.5030  174.9060  144.6010 Cl  0  0  0  0  0  0  0  0  0  0  0  0
  189.1200  175.9270  141.9600 O   0  0  0  0  0  0  0  0  0  0  0  0
  193.0550  171.5710  141.0770 Cl  0  0  0  0  0  0  0  0  0  0  0  0
  191.0290  176.8630  145.8710 O   0  0  0  0  0  0  0  0  0  0  0  0
  190.5880  177.1230  143.5050 C   0  0  2  0  0  3  0  0  0  0  0  0
  193.9260  175.5470  143.9650 C   0  0  0  0  0  3  0  0  0  0  0  0
  190.6250  172.7790  140.7600 C   0  0  0  0  0  3  0  0  0  0  0  0
  192.3130  176.3820  145.5770 C   0  0  0  0  0  0  0  0  0  0  0  0
  193.2800  176.3080  146.5820 C   0  0  0  0  0  3  0  0  0  0  0  0
  189.5420  177.2160  142.3880 C   0  0  0  0  0  2  0  0  0  0  0  0
  190.0450  174.9060  141.7580 C   0  0  0  0  0  0  0  0  0  0  0  0
  189.7010  173.8030  140.9720 C   0  0  0  0  0  3  0  0  0  0  0  0
  189.0160  177.9130  145.2230 N   0  0  0  0  0  2  0  0  0  0  0  0
  187.5260  177.5770  147.1220 C   0  0  0  0  0  1  0  0  0  0  0  0
  187.8010  177.2440  145.6660 C   0  0  1  0  0  3  0  0  0  0  0  0
  184.4230  178.3210  143.2690 C   0  0  0  0  0  0  0  0  0  0  0  0
  185.9480  178.8050  145.0670 C   0  0  0  0  0  3  0  0  0  0  0  0
  186.8120  175.6300  143.4610 F   0  0  0  0  0  0  0  0  0  0  0  0
  183.2910  178.6680  142.4800 N   0  0  0  0  0  1  0  0  0  0  0  0
  184.8380  179.1620  144.3010 C   0  0  0  0  0  3  0  0  0  0  0  0
  186.1840  176.7970  143.7470 C   0  0  0  0  0  0  0  0  0  0  0  0
  186.6350  177.6190  144.7960 C   0  0  0  0  0  0  0  0  0  0  0  0
  185.0970  177.1660  143.0150 N   0  0  0  0  0  0  0  0  0  0  0  0
  1  6  1  0  0  0  0
  2 13  1  0  0  0  0
  2  5  1  0  0  0  0
  3  2  1  0  0  0  0
  4  7  2  0  0  0  0
  5 16  2  0  0  0  0
  6 17  2  0  0  0  0
  7  3  1  0  0  0  0
  8 21  1  1  0  0  0
  8 12  1  0  0  0  0
  9  1  1  0  0  0  0
 10 18  1  0  0  0  0
 11  4  1  0  0  0  0
 13 18  1  6  0  0  0
 13  8  1  0  0  0  0
 14  5  1  0  0  0  0
 14  1  2  0  0  0  0
 15 20  2  0  0  0  0
 15  4  1  0  0  0  0
 16 12  1  0  0  0  0
 16 17  1  0  0  0  0
 19 10  1  0  0  0  0
 19  3  2  0  0  0  0
 20 19  1  0  0  0  0
 21 23  1  0  0  0  0
 23 22  1  1  0  0  0
 24 28  1  0  0  0  0
 26 29  1  0  0  0  0
 27 24  1  0  0  0  0
 28 25  2  0  0  0  0
 29 30  2  0  0  0  0
 30 25  1  0  0  0  0
 30 23  1  0  0  0  0
 31 24  2  0  0  0  0
 31 29  1  0  0  0  0
M  END
>  <MODEL>
3

>  <REMARK>
 VINA RESULT:      -7.9      2.011      4.433
  Name = 
  3 active torsions:
  status: ('A' for Active; 'I' for Inactive)
    1  A    between atoms: C_5  and  N_16
    2  A    between atoms: C_5  and  C_30
    3  A    between atoms: C_10  and  N_16
                            x       y       z     vdW  Elec       q    Type
                         _______ _______ _______ _____ _____    ______ ____

>  <TORSDO>
F 3

$$$$
=
 OpenBabel11112416503D

 31 35  0  0  1  0  0  0  0  0999 V2000
  187.6620  176.7490  141.2400 C   0  0  0  0  0  0  0  0  0  0  0  0
  187.7950  177.5140  144.9190 N   0  0  0  0  0  0  0  0  0  0  0  0
  186.5110  178.0240  145.3520 C   0  0  0  0  0  0  0  0  0  0  0  0
  184.2190  178.7070  144.8960 C   0  0  0  0  0  0  0  0  0  0  0  0
  187.9510  176.8520  143.6470 C   0  0  0  0  0  0  0  0  0  0  0  0
  188.3150  175.5130  141.2120 C   0  0  0  0  0  3  0  0  0  0  0  0
  185.4720  178.2860  144.4430 C   0  0  0  0  0  3  0  0  0  0  0  0
  188.8890  175.6630  146.0730 C   0  0  2  0  0  3  0  0  0  0  0  0
  187.0660  177.4580  139.7550 Cl  0  0  0  0  0  0  0  0  0  0  0  0
  187.2830  177.9420  147.6450 O   0  0  0  0  0  0  0  0  0  0  0  0
  182.9400  179.0300  143.7470 Cl  0  0  0  0  0  0  0  0  0  0  0  0
  189.1200  175.0570  144.7970 O   0  0  0  0  0  0  0  0  0  0  0  0
  188.8310  177.1850  145.9120 C   0  0  2  0  0  3  0  0  0  0  0  0
  187.4830  177.4200  142.4540 C   0  0  0  0  0  3  0  0  0  0  0  0
  183.9840  178.8550  146.2650 C   0  0  0  0  0  3  0  0  0  0  0  0
  188.6170  175.6110  143.6120 C   0  0  0  0  0  0  0  0  0  0  0  0
  188.7950  174.9460  142.3960 C   0  0  0  0  0  3  0  0  0  0  0  0
  188.6450  177.9360  147.2360 C   0  0  0  0  0  2  0  0  0  0  0  0
  186.2660  178.1940  146.7270 C   0  0  0  0  0  0  0  0  0  0  0  0
  185.0070  178.5960  147.1790 C   0  0  0  0  0  3  0  0  0  0  0  0
  189.9470  175.2810  146.9970 N   0  0  0  0  0  2  0  0  0  0  0  0
  191.6470  176.5740  148.1720 C   0  0  0  0  0  1  0  0  0  0  0  0
  191.0390  176.2300  146.8240 C   0  0  1  0  0  3  0  0  0  0  0  0
  194.0650  174.6890  144.2200 C   0  0  0  0  0  0  0  0  0  0  0  0
  192.7900  174.5460  146.2570 C   0  0  0  0  0  3  0  0  0  0  0  0
  191.7310  177.4330  144.2710 F   0  0  0  0  0  0  0  0  0  0  0  0
  195.0810  174.1870  143.3600 N   0  0  0  0  0  1  0  0  0  0  0  0
  193.7880  174.0400  145.4230 C   0  0  0  0  0  3  0  0  0  0  0  0
  192.3880  176.3140  144.6630 C   0  0  0  0  0  0  0  0  0  0  0  0
  192.0770  175.6880  145.8850 C   0  0  0  0  0  0  0  0  0  0  0  0
  193.3670  175.8020  143.8680 N   0  0  0  0  0  0  0  0  0  0  0  0
  1 14  1  0  0  0  0
  2  3  1  0  0  0  0
  2 13  1  0  0  0  0
  3 19  1  0  0  0  0
  4 15  2  0  0  0  0
  5  2  1  0  0  0  0
  6  1  2  0  0  0  0
  6 17  1  0  0  0  0
  7  4  1  0  0  0  0
  7  3  2  0  0  0  0
  8 21  1  1  0  0  0
  9  1  1  0  0  0  0
 11  4  1  0  0  0  0
 12  8  1  0  0  0  0
 13  8  1  0  0  0  0
 13 18  1  1  0  0  0
 14  5  2  0  0  0  0
 15 20  1  0  0  0  0
 16  5  1  0  0  0  0
 16 12  1  0  0  0  0
 17 16  2  0  0  0  0
 18 10  1  0  0  0  0
 19 20  2  0  0  0  0
 19 10  1  0  0  0  0
 23 21  1  0  0  0  0
 23 22  1  1  0  0  0
 24 28  1  0  0  0  0
 26 29  1  0  0  0  0
 27 24  1  0  0  0  0
 28 25  2  0  0  0  0
 29 30  2  0  0  0  0
 30 25  1  0  0  0  0
 30 23  1  0  0  0  0
 31 24  2  0  0  0  0
 31 29  1  0  0  0  0
M  END
>  <MODEL>
4

>  <REMARK>
 VINA RESULT:      -7.8      3.802      7.300
  Name = 
  3 active torsions:
  status: ('A' for Active; 'I' for Inactive)
    1  A    between atoms: C_5  and  N_16
    2  A    between atoms: C_5  and  C_30
    3  A    between atoms: C_10  and  N_16
                            x       y       z     vdW  Elec       q    Type
                         _______ _______ _______ _____ _____    ______ ____

>  <TORSDO>
F 3

$$$$
=
 OpenBabel11112416503D

 31 35  0  0  1  0  0  0  0  0999 V2000
  187.2940  176.7690  141.0590 C   0  0  0  0  0  0  0  0  0  0  0  0
  188.5500  177.1820  144.5790 N   0  0  0  0  0  0  0  0  0  0  0  0
  187.4890  177.7130  145.4100 C   0  0  0  0  0  0  0  0  0  0  0  0
  185.2220  178.5490  145.7050 C   0  0  0  0  0  0  0  0  0  0  0  0
  188.2790  176.6340  143.2730 C   0  0  0  0  0  0  0  0  0  0  0  0
  187.8170  175.5100  140.7470 C   0  0  0  0  0  3  0  0  0  0  0  0
  186.2540  178.1090  144.8720 C   0  0  0  0  0  3  0  0  0  0  0  0
  189.7900  175.1790  145.2170 C   0  0  2  0  0  3  0  0  0  0  0  0
  186.3480  177.6420  139.8740 Cl  0  0  0  0  0  0  0  0  0  0  0  0
  188.8860  177.3800  147.3580 O   0  0  0  0  0  0  0  0  0  0  0  0
  183.6920  179.0410  145.0140 Cl  0  0  0  0  0  0  0  0  0  0  0  0
  189.5940  174.6830  143.8890 O   0  0  0  0  0  0  0  0  0  0  0  0
  189.8020  176.7100  145.1940 C   0  0  2  0  0  3  0  0  0  0  0  0
  187.5280  177.3320  142.3170 C   0  0  0  0  0  3  0  0  0  0  0  0
  185.4070  178.5810  147.0890 C   0  0  0  0  0  3  0  0  0  0  0  0
  188.8100  175.3690  142.9500 C   0  0  0  0  0  0  0  0  0  0  0  0
  188.5770  174.8120  141.6900 C   0  0  0  0  0  3  0  0  0  0  0  0
  190.0660  177.3430  146.5650 C   0  0  0  0  0  2  0  0  0  0  0  0
  187.6680  177.7660  146.8040 C   0  0  0  0  0  0  0  0  0  0  0  0
  186.6290  178.1870  147.6380 C   0  0  0  0  0  3  0  0  0  0  0  0
  191.0390  174.6610  145.7550 N   0  0  0  0  0  2  0  0  0  0  0  0
  192.9700  175.5240  144.5440 C   0  0  0  0  0  1  0  0  0  0  0  0
  191.9300  174.4210  144.6280 C   0  0  1  0  0  3  0  0  0  0  0  0
  193.8680  170.6140  144.8970 C   0  0  0  0  0  0  0  0  0  0  0  0
  193.8130  172.9700  145.3880 C   0  0  0  0  0  3  0  0  0  0  0  0
  190.8300  171.9720  143.5150 F   0  0  0  0  0  0  0  0  0  0  0  0
  194.5160  169.3500  144.9720 N   0  0  0  0  0  1  0  0  0  0  0  0
  194.4620  171.7370  145.4720 C   0  0  0  0  0  3  0  0  0  0  0  0
  192.0160  171.9150  144.1690 C   0  0  0  0  0  0  0  0  0  0  0  0
  192.5810  173.0720  144.7370 C   0  0  0  0  0  0  0  0  0  0  0  0
  192.6690  170.7240  144.2630 N   0  0  0  0  0  0  0  0  0  0  0  0
  1 14  1  0  0  0  0
  2 13  1  0  0  0  0
  2  3  1  0  0  0  0
  3 19  1  0  0  0  0
  4 15  2  0  0  0  0
  5  2  1  0  0  0  0
  6  1  2  0  0  0  0
  6 17  1  0  0  0  0
  7  3  2  0  0  0  0
  7  4  1  0  0  0  0
  8 21  1  6  0  0  0
  9  1  1  0  0  0  0
 11  4  1  0  0  0  0
 12  8  1  0  0  0  0
 13  8  1  0  0  0  0
 13 18  1  1  0  0  0
 14  5  2  0  0  0  0
 15 20  1  0  0  0  0
 16  5  1  0  0  0  0
 16 12  1  0  0  0  0
 17 16  2  0  0  0  0
 18 10  1  0  0  0  0
 19 10  1  0  0  0  0
 19 20  2  0  0  0  0
 23 22  1  1  0  0  0
 23 30  1  0  0  0  0
 23 21  1  0  0  0  0
 24 27  1  0  0  0  0
 24 28  1  0  0  0  0
 25 28  2  0  0  0  0
 26 29  1  0  0  0  0
 29 31  1  0  0  0  0
 29 30  2  0  0  0  0
 30 25  1  0  0  0  0
 31 24  2  0  0  0  0
M  END
>  <MODEL>
5

>  <REMARK>
 VINA RESULT:      -7.8      3.922      7.555
  Name = 
  3 active torsions:
  status: ('A' for Active; 'I' for Inactive)
    1  A    between atoms: C_5  and  N_16
    2  A    between atoms: C_5  and  C_30
    3  A    between atoms: C_10  and  N_16
                            x       y       z     vdW  Elec       q    Type
                         _______ _______ _______ _____ _____    ______ ____

>  <TORSDO>
F 3

$$$$
=
 OpenBabel11112416503D

 31 35  0  0  1  0  0  0  0  0999 V2000
  191.3800  172.9690  141.0670 C   0  0  0  0  0  0  0  0  0  0  0  0
  192.4900  174.9340  144.0750 N   0  0  0  0  0  0  0  0  0  0  0  0
  193.8340  175.4300  143.8570 C   0  0  0  0  0  0  0  0  0  0  0  0
  195.8470  175.6220  142.5020 C   0  0  0  0  0  0  0  0  0  0  0  0
  191.6940  174.4180  142.9880 C   0  0  0  0  0  0  0  0  0  0  0  0
  190.0740  173.4490  140.9160 C   0  0  0  0  0  3  0  0  0  0  0  0
  194.5820  175.0710  142.7240 C   0  0  0  0  0  3  0  0  0  0  0  0
  190.6790  176.4160  144.7650 C   0  0  2  0  0  3  0  0  0  0  0  0
  192.0040  171.7670  139.9600 Cl  0  0  0  0  0  0  0  0  0  0  0  0
  193.6570  176.7210  145.8970 O   0  0  0  0  0  0  0  0  0  0  0  0
  196.7630  175.1600  141.0850 Cl  0  0  0  0  0  0  0  0  0  0  0  0
  189.8650  175.8330  143.7420 O   0  0  0  0  0  0  0  0  0  0  0  0
  191.7140  175.3930  145.2390 C   0  0  2  0  0  3  0  0  0  0  0  0
  192.1870  173.4490  142.1030 C   0  0  0  0  0  3  0  0  0  0  0  0
  196.3710  176.5520  143.4020 C   0  0  0  0  0  3  0  0  0  0  0  0
  190.3760  174.8910  142.8370 C   0  0  0  0  0  0  0  0  0  0  0  0
  189.5720  174.4070  141.8020 C   0  0  0  0  0  3  0  0  0  0  0  0
  192.6020  175.9010  146.3820 C   0  0  0  0  0  2  0  0  0  0  0  0
  194.3810  176.3540  144.7650 C   0  0  0  0  0  0  0  0  0  0  0  0
  195.6370  176.9190  144.5310 C   0  0  0  0  0  3  0  0  0  0  0  0
  189.8390  176.8510  145.8710 N   0  0  0  0  0  2  0  0  0  0  0  0
  188.7970  175.0680  147.1660 C   0  0  0  0  0  1  0  0  0  0  0  0
  188.6980  175.9470  145.9320 C   0  0  1  0  0  3  0  0  0  0  0  0
  184.9830  178.0710  145.9580 C   0  0  0  0  0  0  0  0  0  0  0  0
  186.9710  177.3240  147.0910 C   0  0  0  0  0  3  0  0  0  0  0  0
  186.9730  176.2010  143.6070 F   0  0  0  0  0  0  0  0  0  0  0  0
  183.7410  178.7630  145.9680 N   0  0  0  0  0  1  0  0  0  0  0  0
  185.7560  178.0090  147.1180 C   0  0  0  0  0  3  0  0  0  0  0  0
  186.5960  176.7950  144.7660 C   0  0  0  0  0  0  0  0  0  0  0  0
  187.4060  176.7110  145.9140 C   0  0  0  0  0  0  0  0  0  0  0  0
  185.4140  177.4680  144.8170 N   0  0  0  0  0  0  0  0  0  0  0  0
  1 14  1  0  0  0  0
  2 13  1  0  0  0  0
  3  2  1  0  0  0  0
  3 19  1  0  0  0  0
  4  7  1  0  0  0  0
  4 15  2  0  0  0  0
  5  2  1  0  0  0  0
  6  1  2  0  0  0  0
  6 17  1  0  0  0  0
  7  3  2  0  0  0  0
  8 13  1  0  0  0  0
  8 21  1  1  0  0  0
  9  1  1  0  0  0  0
 10 18  1  0  0  0  0
 11  4  1  0  0  0  0
 12  8  1  0  0  0  0
 13 18  1  1  0  0  0
 14  5  2  0  0  0  0
 15 20  1  0  0  0  0
 16  5  1  0  0  0  0
 16 12  1  0  0  0  0
 17 16  2  0  0  0  0
 19 10  1  0  0  0  0
 20 19  2  0  0  0  0
 21 23  1  0  0  0  0
 23 22  1  1  0  0  0
 24 27  1  0  0  0  0
 24 28  1  0  0  0  0
 25 28  2  0  0  0  0
 26 29  1  0  0  0  0
 29 31  1  0  0  0  0
 29 30  2  0  0  0  0
 30 23  1  0  0  0  0
 30 25  1  0  0  0  0
 31 24  2  0  0  0  0
M  END
>  <MODEL>
6

>  <REMARK>
 VINA RESULT:      -7.7      2.377      3.076
  Name = 
  3 active torsions:
  status: ('A' for Active; 'I' for Inactive)
    1  A    between atoms: C_5  and  N_16
    2  A    between atoms: C_5  and  C_30
    3  A    between atoms: C_10  and  N_16
                            x       y       z     vdW  Elec       q    Type
                         _______ _______ _______ _____ _____    ______ ____

>  <TORSDO>
F 3

$$$$
=
 OpenBabel11112416503D

 31 35  0  0  1  0  0  0  0  0999 V2000
  185.7790  178.0870  147.1160 C   0  0  0  0  0  0  0  0  0  0  0  0
  188.1150  176.0820  144.9580 N   0  0  0  0  0  0  0  0  0  0  0  0
  187.7460  176.2460  143.5670 C   0  0  0  0  0  0  0  0  0  0  0  0
  186.3040  177.1620  141.8330 C   0  0  0  0  0  0  0  0  0  0  0  0
  187.6040  176.9620  145.9800 C   0  0  0  0  0  0  0  0  0  0  0  0
  186.6870  178.6650  148.0090 C   0  0  0  0  0  3  0  0  0  0  0  0
  186.5970  176.9570  143.1830 C   0  0  0  0  0  3  0  0  0  0  0  0
  190.4040  176.4420  145.7220 C   0  0  2  0  0  3  0  0  0  0  0  0
  184.0690  178.4310  147.2630 Cl  0  0  0  0  0  0  0  0  0  0  0  0
  189.7420  175.0370  142.9240 O   0  0  0  0  0  0  0  0  0  0  0  0
  184.8650  178.0480  141.3760 Cl  0  0  0  0  0  0  0  0  0  0  0  0
  189.8800  177.2410  146.7890 O   0  0  0  0  0  0  0  0  0  0  0  0
  189.3670  175.3940  145.3120 C   0  0  2  0  0  3  0  0  0  0  0  0
  186.2340  177.2350  146.1060 C   0  0  0  0  0  3  0  0  0  0  0  0
  187.1680  176.6750  140.8490 C   0  0  0  0  0  3  0  0  0  0  0  0
  188.5130  177.5390  146.8880 C   0  0  0  0  0  0  0  0  0  0  0  0
  188.0530  178.3890  147.8970 C   0  0  0  0  0  3  0  0  0  0  0  0
  189.8560  174.4440  144.2110 C   0  0  0  0  0  2  0  0  0  0  0  0
  188.5980  175.7470  142.5650 C   0  0  0  0  0  0  0  0  0  0  0  0
  188.3150  175.9710  141.2160 C   0  0  0  0  0  3  0  0  0  0  0  0
  191.6420  175.8070  146.1490 N   0  0  0  0  0  2  0  0  0  0  0  0
  193.7930  176.7910  146.7330 C   0  0  0  0  0  1  0  0  0  0  0  0
  192.7420  176.6200  145.6510 C   0  0  1  0  0  3  0  0  0  0  0  0
  194.5260  174.9280  142.1480 C   0  0  0  0  0  0  0  0  0  0  0  0
  194.3440  175.0600  144.5440 C   0  0  0  0  0  3  0  0  0  0  0  0
  191.9820  177.3520  142.9430 F   0  0  0  0  0  0  0  0  0  0  0  0
  195.1280  174.3780  140.9820 N   0  0  0  0  0  1  0  0  0  0  0  0
  194.9440  174.5090  143.4110 C   0  0  0  0  0  3  0  0  0  0  0  0
  192.9460  176.4150  143.1180 C   0  0  0  0  0  0  0  0  0  0  0  0
  193.3360  176.0180  144.4100 C   0  0  0  0  0  0  0  0  0  0  0  0
  193.5460  175.8630  142.0280 N   0  0  0  0  0  0  0  0  0  0  0  0
  1  9  1  0  0  0  0
  1  6  1  0  0  0  0
  2 13  1  0  0  0  0
  2  5  1  0  0  0  0
  3  2  1  0  0  0  0
  4  7  2  0  0  0  0
  5 14  1  0  0  0  0
  5 16  2  0  0  0  0
  7  3  1  0  0  0  0
  8 21  1  1  0  0  0
  8 12  1  0  0  0  0
 10 18  1  0  0  0  0
 11  4  1  0  0  0  0
 12 16  1  0  0  0  0
 13 18  1  6  0  0  0
 13  8  1  0  0  0  0
 14  1  2  0  0  0  0
 15 20  2  0  0  0  0
 15  4  1  0  0  0  0
 16 17  1  0  0  0  0
 17  6  2  0  0  0  0
 19 10  1  0  0  0  0
 19  3  2  0  0  0  0
 20 19  1  0  0  0  0
 23 21  1  0  0  0  0
 23 22  1  1  0  0  0
 24 28  1  0  0  0  0
 26 29  1  0  0  0  0
 27 24  1  0  0  0  0
 28 25  2  0  0  0  0
 29 30  2  0  0  0  0
 30 25  1  0  0  0  0
 30 23  1  0  0  0  0
 31 24  2  0  0  0  0
 31 29  1  0  0  0  0
M  END
>  <MODEL>
7

>  <REMARK>
 VINA RESULT:      -7.6      4.052      7.607
  Name = 
  3 active torsions:
  status: ('A' for Active; 'I' for Inactive)
    1  A    between atoms: C_5  and  N_16
    2  A    between atoms: C_5  and  C_30
    3  A    between atoms: C_10  and  N_16
                            x       y       z     vdW  Elec       q    Type
                         _______ _______ _______ _____ _____    ______ ____

>  <TORSDO>
F 3

$$$$
=
 OpenBabel11112416503D

 31 35  0  0  1  0  0  0  0  0999 V2000
  186.2580  177.3990  142.6680 C   0  0  0  0  0  0  0  0  0  0  0  0
  188.5670  174.4340  142.7890 N   0  0  0  0  0  0  0  0  0  0  0  0
  188.8550  173.9920  141.4400 C   0  0  0  0  0  0  0  0  0  0  0  0
  188.5690  174.1650  139.0290 C   0  0  0  0  0  0  0  0  0  0  0  0
  187.9700  175.7210  143.0470 C   0  0  0  0  0  0  0  0  0  0  0  0
  186.8560  178.2280  143.6230 C   0  0  0  0  0  3  0  0  0  0  0  0
  188.2190  174.5590  140.3230 C   0  0  0  0  0  3  0  0  0  0  0  0
  190.3510  174.8840  144.3920 C   0  0  2  0  0  3  0  0  0  0  0  0
  184.8170  177.9290  141.8300 Cl  0  0  0  0  0  0  0  0  0  0  0  0
  190.4910  172.4440  142.3260 O   0  0  0  0  0  0  0  0  0  0  0  0
  187.7630  174.8820  137.6500 Cl  0  0  0  0  0  0  0  0  0  0  0  0
  189.7010  176.1200  144.7080 O   0  0  0  0  0  0  0  0  0  0  0  0
  189.3090  173.8640  143.9260 C   0  0  2  0  0  3  0  0  0  0  0  0
  186.8100  176.1470  142.3830 C   0  0  0  0  0  3  0  0  0  0  0  0
  189.5710  173.2120  138.8350 C   0  0  0  0  0  3  0  0  0  0  0  0
  188.5630  176.5560  144.0140 C   0  0  0  0  0  0  0  0  0  0  0  0
  188.0060  177.8060  144.2980 C   0  0  0  0  0  3  0  0  0  0  0  0
  189.8980  172.4810  143.6180 C   0  0  0  0  0  2  0  0  0  0  0  0
  189.8500  173.0210  141.2320 C   0  0  0  0  0  0  0  0  0  0  0  0
  190.2130  172.6420  139.9370 C   0  0  0  0  0  3  0  0  0  0  0  0
  191.0670  174.3940  145.5600 N   0  0  0  0  0  2  0  0  0  0  0  0
  191.8110  175.6170  147.5330 C   0  0  0  0  0  1  0  0  0  0  0  0
  191.9270  175.4730  146.0260 C   0  0  1  0  0  3  0  0  0  0  0  0
  196.0060  174.7680  144.9400 C   0  0  0  0  0  0  0  0  0  0  0  0
  193.8880  173.9560  145.7450 C   0  0  0  0  0  3  0  0  0  0  0  0
  193.7030  177.5380  145.0130 F   0  0  0  0  0  0  0  0  0  0  0  0
  197.3660  174.5400  144.5920 N   0  0  0  0  0  1  0  0  0  0  0  0
  195.2200  173.7150  145.4060 C   0  0  0  0  0  3  0  0  0  0  0  0
  194.1790  176.2750  145.1410 C   0  0  0  0  0  0  0  0  0  0  0  0
  193.3520  175.2400  145.6140 C   0  0  0  0  0  0  0  0  0  0  0  0
  195.4750  176.0150  144.8190 N   0  0  0  0  0  0  0  0  0  0  0  0
  1  6  1  0  0  0  0
  2  5  1  0  0  0  0
  2 13  1  0  0  0  0
  3  2  1  0  0  0  0
  4  7  1  0  0  0  0
  5 16  2  0  0  0  0
  6 17  2  0  0  0  0
  7  3  2  0  0  0  0
  8 12  1  0  0  0  0
  8 21  1  1  0  0  0
  9  1  1  0  0  0  0
 10 18  1  0  0  0  0
 11  4  1  0  0  0  0
 13 18  1  6  0  0  0
 13  8  1  0  0  0  0
 14  1  2  0  0  0  0
 14  5  1  0  0  0  0
 15  4  2  0  0  0  0
 15 20  1  0  0  0  0
 16 17  1  0  0  0  0
 16 12  1  0  0  0  0
 19  3  1  0  0  0  0
 19 10  1  0  0  0  0
 20 19  2  0  0  0  0
 21 23  1  0  0  0  0
 23 22  1  1  0  0  0
 24 28  1  0  0  0  0
 26 29  1  0  0  0  0
 27 24  1  0  0  0  0
 28 25  2  0  0  0  0
 29 30  2  0  0  0  0
 30 25  1  0  0  0  0
 30 23  1  0  0  0  0
 31 24  2  0  0  0  0
 31 29  1  0  0  0  0
M  END
>  <MODEL>
8

>  <REMARK>
 VINA RESULT:      -7.5      3.730      7.671
  Name = 
  3 active torsions:
  status: ('A' for Active; 'I' for Inactive)
    1  A    between atoms: C_5  and  N_16
    2  A    between atoms: C_5  and  C_30
    3  A    between atoms: C_10  and  N_16
                            x       y       z     vdW  Elec       q    Type
                         _______ _______ _______ _____ _____    ______ ____

>  <TORSDO>
F 3

$$$$
=
 OpenBabel11112416503D

 31 35  0  0  1  0  0  0  0  0999 V2000
  187.2360  177.2390  146.9130 C   0  0  0  0  0  0  0  0  0  0  0  0
  187.7070  176.2500  143.3160 N   0  0  0  0  0  0  0  0  0  0  0  0
  186.6800  176.8720  142.5060 C   0  0  0  0  0  0  0  0  0  0  0  0
  184.6950  178.2610  142.2710 C   0  0  0  0  0  0  0  0  0  0  0  0
  187.9670  176.6850  144.6660 C   0  0  0  0  0  0  0  0  0  0  0  0
  188.5580  177.5140  147.2780 C   0  0  0  0  0  3  0  0  0  0  0  0
  185.6300  177.6100  143.0790 C   0  0  0  0  0  3  0  0  0  0  0  0
  190.0720  176.4400  142.7460 C   0  0  2  0  0  3  0  0  0  0  0  0
  185.9490  177.4180  148.0850 Cl  0  0  0  0  0  0  0  0  0  0  0  0
  187.8040  176.0750  140.5170 O   0  0  0  0  0  0  0  0  0  0  0  0
  183.3930  179.1720  143.0040 Cl  0  0  0  0  0  0  0  0  0  0  0  0
  190.3320  176.7830  144.1110 O   0  0  0  0  0  0  0  0  0  0  0  0
  188.8300  175.5480  142.6720 C   0  0  2  0  0  3  0  0  0  0  0  0
  186.9410  176.8220  145.6120 C   0  0  0  0  0  3  0  0  0  0  0  0
  184.8080  178.1990  140.8800 C   0  0  0  0  0  3  0  0  0  0  0  0
  189.2980  176.9540  145.0420 C   0  0  0  0  0  0  0  0  0  0  0  0
  189.5880  177.3680  146.3450 C   0  0  0  0  0  3  0  0  0  0  0  0
  188.4980  175.0740  141.2510 C   0  0  0  0  0  2  0  0  0  0  0  0
  186.7720  176.8030  141.1050 C   0  0  0  0  0  0  0  0  0  0  0  0
  185.8480  177.4720  140.2990 C   0  0  0  0  0  3  0  0  0  0  0  0
  191.2290  175.7620  142.1820 N   0  0  0  0  0  2  0  0  0  0  0  0
  191.8240  173.6620  143.2670 C   0  0  0  0  0  1  0  0  0  0  0  0
  191.9710  175.1730  143.2890 C   0  0  1  0  0  3  0  0  0  0  0  0
  196.0650  176.4150  143.1830 C   0  0  0  0  0  0  0  0  0  0  0  0
  193.9920  176.1510  144.3770 C   0  0  0  0  0  3  0  0  0  0  0  0
  193.6760  174.9000  140.9510 F   0  0  0  0  0  0  0  0  0  0  0  0
  197.4210  176.8400  143.1400 N   0  0  0  0  0  1  0  0  0  0  0  0
  195.3220  176.5720  144.3520 C   0  0  0  0  0  3  0  0  0  0  0  0
  194.1990  175.4380  142.0800 C   0  0  0  0  0  0  0  0  0  0  0  0
  193.4160  175.5770  143.2410 C   0  0  0  0  0  0  0  0  0  0  0  0
  195.4940  175.8570  142.0810 N   0  0  0  0  0  0  0  0  0  0  0  0
  1  6  1  0  0  0  0
  1  9  1  0  0  0  0
  2  5  1  0  0  0  0
  3  7  1  0  0  0  0
  3  2  1  0  0  0  0
  4 11  1  0  0  0  0
  4  7  2  0  0  0  0
  5 16  2  0  0  0  0
  5 14  1  0  0  0  0
  8 21  1  1  0  0  0
  8 12  1  0  0  0  0
 10 19  1  0  0  0  0
 10 18  1  0  0  0  0
 12 16  1  0  0  0  0
 13 18  1  6  0  0  0
 13  8  1  0  0  0  0
 13  2  1  0  0  0  0
 14  1  2  0  0  0  0
 15  4  1  0  0  0  0
 16 17  1  0  0  0  0
 17  6  2  0  0  0  0
 19  3  2  0  0  0  0
 20 15  2  0  0  0  0
 20 19  1  0  0  0  0
 21 23  1  0  0  0  0
 23 22  1  6  0  0  0
 24 28  1  0  0  0  0
 26 29  1  0  0  0  0
 27 24  1  0  0  0  0
 28 25  2  0  0  0  0
 29 31  1  0  0  0  0
 29 30  2  0  0  0  0
 30 23  1  0  0  0  0
 30 25  1  0  0  0  0
 31 24  2  0  0  0  0
M  END
>  <MODEL>
9

>  <REMARK>
 VINA RESULT:      -7.3      4.435      8.286
  Name = 
  3 active torsions:
  status: ('A' for Active; 'I' for Inactive)
    1  A    between atoms: C_5  and  N_16
    2  A    between atoms: C_5  and  C_30
    3  A    between atoms: C_10  and  N_16
                            x       y       z     vdW  Elec       q    Type
                         _______ _______ _______ _____ _____    ______ ____

>  <TORSDO>
F 3

$$$$
