=
 OpenBabel11112417433D

 34 41  0  0  1  0  0  0  0  0999 V2000
  188.9380  175.8820  142.5690 C   0  0  0  0  0  0  0  0  0  0  0  0
  191.0950  174.5050  142.2860 C   0  0  0  0  0  2  0  0  0  0  0  0
  184.6050  178.7840  146.3320 C   0  0  0  0  0  0  0  0  0  0  0  0
  186.9850  177.2820  143.0230 C   0  0  0  0  0  0  0  0  0  0  0  0
  186.7030  178.1990  145.2580 C   0  0  0  0  0  0  0  0  0  0  0  0
  186.1630  178.7300  147.6030 C   0  0  0  0  0  2  0  0  0  0  0  0
  184.7740  178.4910  147.7350 O   0  0  0  0  0  0  0  0  0  0  0  0
  183.8450  178.9970  144.0920 C   0  0  0  0  0  3  0  0  0  0  0  0
  190.5680  175.4320  144.3930 C   0  0  0  0  0  0  0  0  0  0  0  0
  192.6090  175.4350  146.9210 C   0  0  0  0  0  2  0  0  0  0  0  0
  187.8690  177.5990  145.6280 N   0  0  0  0  0  0  0  0  0  0  0  0
  184.9740  178.7040  143.4230 C   0  0  0  0  0  3  0  0  0  0  0  0
  189.8580  176.1810  145.2690 C   0  0  0  0  0  0  0  0  0  0  0  0
  192.2860  174.2860  143.2280 C   0  0  0  0  0  2  0  0  0  0  0  0
  186.2220  178.0540  143.9270 C   0  0  0  0  0  0  0  0  0  0  0  0
  183.6330  178.7470  145.4860 N   0  0  0  0  0  0  0  0  0  0  0  0
  192.8510  175.5130  145.4080 C   0  0  2  0  0  3  0  0  0  0  0  0
  188.1730  176.6590  143.4590 C   0  0  0  0  0  0  0  0  0  0  0  0
  186.0390  179.1300  146.2310 C   0  0  2  0  0  3  0  0  0  0  0  0
  188.6040  176.8260  144.7880 C   0  0  0  0  0  0  0  0  0  0  0  0
  187.3450  176.3350  140.8050 C   0  0  0  0  0  3  0  0  0  0  0  0
  191.1330  175.3990  147.3210 C   0  0  0  0  0  2  0  0  0  0  0  0
  186.5830  177.1070  141.6860 C   0  0  0  0  0  3  0  0  0  0  0  0
  190.3500  176.5220  146.6550 C   0  0  0  0  0  2  0  0  0  0  0  0
  191.8250  174.6700  144.6430 C   0  0  1  0  0  3  0  0  0  0  0  0
  188.5210  175.7230  141.2430 C   0  0  0  0  0  3  0  0  0  0  0  0
  190.1390  175.2750  143.0550 N   0  0  0  0  0  0  0  0  0  0  0  0
  194.1550  175.0850  145.1400 O   0  0  0  0  0  0  0  0  0  0  0  0
  194.8340  176.2380  144.7380 C   0  0  0  0  0  2  0  0  0  0  0  0
  197.8650  176.0670  142.8760 O   0  0  0  0  0  0  0  0  0  0  0  0
  196.1100  174.5750  143.4090 C   0  0  0  0  0  2  0  0  0  0  0  0
  195.5720  175.9760  143.4370 C   0  0  2  0  0  3  0  0  0  0  0  0
  197.6070  174.7630  143.3230 C   0  0  0  0  0  2  0  0  0  0  0  0
  196.8080  176.8410  143.3750 C   0  0  0  0  0  2  0  0  0  0  0  0
  1 27  1  0  0  0  0
  1 18  1  0  0  0  0
  2 27  1  0  0  0  0
  2 14  1  0  0  0  0
  3  7  1  0  0  0  0
  4 18  2  0  0  0  0
  4 15  1  0  0  0  0
  5 11  1  0  0  0  0
  5 19  1  0  0  0  0
  6  7  1  0  0  0  0
  8 16  1  0  0  0  0
  9 25  1  0  0  0  0
  9 13  2  0  0  0  0
 10 22  1  0  0  0  0
 12 15  1  0  0  0  0
 12  8  2  0  0  0  0
 13 24  1  0  0  0  0
 15  5  2  0  0  0  0
 16  3  2  0  0  0  0
 17 28  1  1  0  0  0
 17 10  1  0  0  0  0
 18 20  1  0  0  0  0
 19  3  1  0  0  0  0
 19  6  1  1  0  0  0
 20 13  1  0  0  0  0
 20 11  2  0  0  0  0
 21 26  1  0  0  0  0
 21 23  2  0  0  0  0
 23  4  1  0  0  0  0
 24 22  1  0  0  0  0
 25 14  1  6  0  0  0
 25 17  1  0  0  0  0
 26  1  2  0  0  0  0
 27  9  1  0  0  0  0
 29 28  1  0  0  0  0
 30 33  1  0  0  0  0
 30 34  1  0  0  0  0
 31 32  1  0  0  0  0
 32 29  1  1  0  0  0
 33 31  1  0  0  0  0
 34 32  1  0  0  0  0
M  END
>  <MODEL>
1

>  <REMARK>
 VINA RESULT:      -9.3      0.000      0.000
  Name = 
  3 active torsions:
  status: ('A' for Active; 'I' for Inactive)
    1  A    between atoms: C_17  and  O_28
    2  A    between atoms: O_28  and  C_29
    3  A    between atoms: C_29  and  C_32
                            x       y       z     vdW  Elec       q    Type
                         _______ _______ _______ _____ _____    ______ ____

>  <TORSDO>
F 3

$$$$
=
 OpenBabel11112417433D

 34 41  0  0  1  0  0  0  0  0999 V2000
  189.2850  174.8250  142.3460 C   0  0  0  0  0  0  0  0  0  0  0  0
  191.3010  173.3860  143.0500 C   0  0  0  0  0  2  0  0  0  0  0  0
  184.3240  178.6260  143.8600 C   0  0  0  0  0  0  0  0  0  0  0  0
  187.4170  176.3240  141.8570 C   0  0  0  0  0  0  0  0  0  0  0  0
  186.5820  177.7630  143.6330 C   0  0  0  0  0  0  0  0  0  0  0  0
  185.4360  178.8580  145.5190 C   0  0  0  0  0  2  0  0  0  0  0  0
  184.0520  178.6810  145.2760 O   0  0  0  0  0  0  0  0  0  0  0  0
  184.2670  178.2980  141.5080 C   0  0  0  0  0  3  0  0  0  0  0  0
  190.2710  174.8070  144.6300 C   0  0  0  0  0  0  0  0  0  0  0  0
  191.4850  175.3930  147.5860 C   0  0  0  0  0  2  0  0  0  0  0  0
  187.5330  177.2520  144.4640 N   0  0  0  0  0  0  0  0  0  0  0  0
  185.5100  177.8330  141.2960 C   0  0  0  0  0  3  0  0  0  0  0  0
  189.4070  175.7580  145.0550 C   0  0  0  0  0  0  0  0  0  0  0  0
  192.1450  173.3840  144.3310 C   0  0  0  0  0  2  0  0  0  0  0  0
  186.4960  177.3060  142.2880 C   0  0  0  0  0  0  0  0  0  0  0  0
  183.6390  178.4000  142.7910 N   0  0  0  0  0  0  0  0  0  0  0  0
  192.1600  175.0960  146.2410 C   0  0  2  0  0  3  0  0  0  0  0  0
  188.3680  175.8070  142.7620 C   0  0  0  0  0  0  0  0  0  0  0  0
  185.7500  178.9140  144.1200 C   0  0  2  0  0  3  0  0  0  0  0  0
  188.4080  176.2860  144.0840 C   0  0  0  0  0  0  0  0  0  0  0  0
  188.3180  174.8590  140.1290 C   0  0  0  0  0  3  0  0  0  0  0  0
  189.9590  175.4800  147.5180 C   0  0  0  0  0  2  0  0  0  0  0  0
  187.4040  175.8350  140.5390 C   0  0  0  0  0  3  0  0  0  0  0  0
  189.5050  176.4190  146.4100 C   0  0  0  0  0  2  0  0  0  0  0  0
  191.3290  174.1090  145.4150 C   0  0  1  0  0  3  0  0  0  0  0  0
  189.2580  174.3540  141.0290 C   0  0  0  0  0  3  0  0  0  0  0  0
  190.2360  174.3350  143.2980 N   0  0  0  0  0  0  0  0  0  0  0  0
  193.4430  174.5940  146.4840 O   0  0  0  0  0  0  0  0  0  0  0  0
  194.2880  175.7010  146.3690 C   0  0  0  0  0  2  0  0  0  0  0  0
  196.0040  173.4850  144.1720 O   0  0  0  0  0  0  0  0  0  0  0  0
  195.3890  175.7670  144.1460 C   0  0  0  0  0  2  0  0  0  0  0  0
  195.5260  175.3260  145.5740 C   0  0  2  0  0  3  0  0  0  0  0  0
  195.4360  174.4770  143.3610 C   0  0  0  0  0  2  0  0  0  0  0  0
  195.6290  173.8220  145.4810 C   0  0  0  0  0  2  0  0  0  0  0  0
  1 18  1  0  0  0  0
  1 27  1  0  0  0  0
  2 27  1  0  0  0  0
  2 14  1  0  0  0  0
  3 19  1  0  0  0  0
  3  7  1  0  0  0  0
  4 15  2  0  0  0  0
  4 18  1  0  0  0  0
  5 19  1  0  0  0  0
  5 11  2  0  0  0  0
  7  6  1  0  0  0  0
  8 16  1  0  0  0  0
  9 13  2  0  0  0  0
  9 25  1  0  0  0  0
 12  8  2  0  0  0  0
 12 15  1  0  0  0  0
 13 24  1  0  0  0  0
 15  5  1  0  0  0  0
 16  3  2  0  0  0  0
 17 28  1  1  0  0  0
 17 10  1  0  0  0  0
 18 20  2  0  0  0  0
 19  6  1  1  0  0  0
 20 11  1  0  0  0  0
 20 13  1  0  0  0  0
 21 23  2  0  0  0  0
 21 26  1  0  0  0  0
 22 10  1  0  0  0  0
 23  4  1  0  0  0  0
 24 22  1  0  0  0  0
 25 14  1  6  0  0  0
 25 17  1  0  0  0  0
 26  1  2  0  0  0  0
 27  9  1  0  0  0  0
 29 28  1  0  0  0  0
 30 34  1  0  0  0  0
 31 32  1  0  0  0  0
 32 29  1  1  0  0  0
 33 31  1  0  0  0  0
 33 30  1  0  0  0  0
 34 32  1  0  0  0  0
M  END
>  <MODEL>
2

>  <REMARK>
 VINA RESULT:      -8.9      1.393      1.901
  Name = 
  3 active torsions:
  status: ('A' for Active; 'I' for Inactive)
    1  A    between atoms: C_17  and  O_28
    2  A    between atoms: O_28  and  C_29
    3  A    between atoms: C_29  and  C_32
                            x       y       z     vdW  Elec       q    Type
                         _______ _______ _______ _____ _____    ______ ____

>  <TORSDO>
F 3

$$$$
=
 OpenBabel11112417433D

 34 41  0  0  1  0  0  0  0  0999 V2000
  192.0680  176.3580  145.7100 C   0  0  0  0  0  0  0  0  0  0  0  0
  189.7800  176.5670  146.8740 C   0  0  0  0  0  2  0  0  0  0  0  0
  195.6400  174.5470  140.6790 C   0  0  0  0  0  0  0  0  0  0  0  0
  194.1290  176.1870  144.4070 C   0  0  0  0  0  0  0  0  0  0  0  0
  193.9690  175.6730  142.0350 C   0  0  0  0  0  0  0  0  0  0  0  0
  193.8490  174.6960  139.7760 C   0  0  0  0  0  2  0  0  0  0  0  0
  194.9120  173.7640  139.7090 O   0  0  0  0  0  0  0  0  0  0  0  0
  197.1270  175.3650  142.3390 C   0  0  0  0  0  3  0  0  0  0  0  0
  189.8790  175.9970  144.5850 C   0  0  0  0  0  0  0  0  0  0  0  0
  187.2700  175.8440  142.6530 C   0  0  0  0  0  2  0  0  0  0  0  0
  192.6120  175.6470  142.1540 N   0  0  0  0  0  0  0  0  0  0  0  0
  196.2680  176.0290  143.1310 C   0  0  0  0  0  3  0  0  0  0  0  0
  190.4810  175.7790  143.3920 C   0  0  0  0  0  0  0  0  0  0  0  0
  188.3540  176.5670  146.3100 C   0  0  0  0  0  2  0  0  0  0  0  0
  194.7760  175.9460  143.1740 C   0  0  0  0  0  0  0  0  0  0  0  0
  196.7480  174.4270  141.3260 N   0  0  0  0  0  0  0  0  0  0  0  0
  187.5990  176.7280  143.8630 C   0  0  2  0  0  3  0  0  0  0  0  0
  192.7220  176.1260  144.4870 C   0  0  0  0  0  0  0  0  0  0  0  0
  194.5680  175.5650  140.6630 C   0  0  2  0  0  3  0  0  0  0  0  0
  191.9680  175.8440  143.3330 C   0  0  0  0  0  0  0  0  0  0  0  0
  194.2050  176.7120  146.7870 C   0  0  0  0  0  3  0  0  0  0  0  0
  188.3960  174.8910  142.2450 C   0  0  0  0  0  2  0  0  0  0  0  0
  194.8580  176.4810  145.5730 C   0  0  0  0  0  3  0  0  0  0  0  0
  189.7200  175.6280  142.0960 C   0  0  0  0  0  2  0  0  0  0  0  0
  188.4220  175.9550  144.9000 C   0  0  1  0  0  3  0  0  0  0  0  0
  192.8110  176.6510  146.8580 C   0  0  0  0  0  3  0  0  0  0  0  0
  190.6380  176.2910  145.7400 N   0  0  0  0  0  0  0  0  0  0  0  0
  186.4020  177.1940  144.4170 O   0  0  0  0  0  0  0  0  0  0  0  0
  186.2630  178.4940  143.9230 C   0  0  0  0  0  2  0  0  0  0  0  0
  183.5190  178.7730  146.1750 O   0  0  0  0  0  0  0  0  0  0  0  0
  185.8550  179.1130  146.2910 C   0  0  0  0  0  2  0  0  0  0  0  0
  185.4120  179.3190  144.8720 C   0  0  2  0  0  3  0  0  0  0  0  0
  184.6470  178.5060  146.9640 C   0  0  0  0  0  2  0  0  0  0  0  0
  183.9940  178.8020  144.8560 C   0  0  0  0  0  2  0  0  0  0  0  0
  1 27  1  0  0  0  0
  1 26  1  0  0  0  0
  3 16  2  0  0  0  0
  4 18  1  0  0  0  0
  4 23  2  0  0  0  0
  5 11  1  0  0  0  0
  5 15  2  0  0  0  0
  7  6  1  0  0  0  0
  7  3  1  0  0  0  0
  8 12  2  0  0  0  0
  9 25  1  0  0  0  0
  9 27  1  0  0  0  0
 10 17  1  0  0  0  0
 11 20  2  0  0  0  0
 12 15  1  0  0  0  0
 13  9  2  0  0  0  0
 14  2  1  0  0  0  0
 15  4  1  0  0  0  0
 16  8  1  0  0  0  0
 17 28  1  1  0  0  0
 17 25  1  0  0  0  0
 18  1  2  0  0  0  0
 19  6  1  6  0  0  0
 19  3  1  0  0  0  0
 19  5  1  0  0  0  0
 20 13  1  0  0  0  0
 20 18  1  0  0  0  0
 21 26  2  0  0  0  0
 22 10  1  0  0  0  0
 23 21  1  0  0  0  0
 24 22  1  0  0  0  0
 24 13  1  0  0  0  0
 25 14  1  1  0  0  0
 27  2  1  0  0  0  0
 29 28  1  0  0  0  0
 30 33  1  0  0  0  0
 31 33  1  0  0  0  0
 32 29  1  6  0  0  0
 32 31  1  0  0  0  0
 34 32  1  0  0  0  0
 34 30  1  0  0  0  0
M  END
>  <MODEL>
3

>  <REMARK>
 VINA RESULT:      -8.7      2.258      9.181
  Name = 
  3 active torsions:
  status: ('A' for Active; 'I' for Inactive)
    1  A    between atoms: C_17  and  O_28
    2  A    between atoms: O_28  and  C_29
    3  A    between atoms: C_29  and  C_32
                            x       y       z     vdW  Elec       q    Type
                         _______ _______ _______ _____ _____    ______ ____

>  <TORSDO>
F 3

$$$$
=
 OpenBabel11112417433D

 34 41  0  0  1  0  0  0  0  0999 V2000
  188.9710  177.3060  146.4980 C   0  0  0  0  0  0  0  0  0  0  0  0
  191.2050  176.9270  147.7220 C   0  0  0  0  0  2  0  0  0  0  0  0
  185.6110  177.9150  141.0480 C   0  0  0  0  0  0  0  0  0  0  0  0
  186.9310  177.5310  145.1700 C   0  0  0  0  0  0  0  0  0  0  0  0
  187.0180  176.9920  142.8000 C   0  0  0  0  0  0  0  0  0  0  0  0
  187.2050  176.9110  140.3440 C   0  0  0  0  0  2  0  0  0  0  0  0
  186.4380  178.0030  139.8700 O   0  0  0  0  0  0  0  0  0  0  0  0
  184.1070  178.2910  142.8480 C   0  0  0  0  0  3  0  0  0  0  0  0
  191.0670  176.5440  145.3960 C   0  0  0  0  0  0  0  0  0  0  0  0
  193.4360  175.1580  143.6560 C   0  0  0  0  0  2  0  0  0  0  0  0
  188.3340  176.6700  142.9430 N   0  0  0  0  0  0  0  0  0  0  0  0
  184.8160  177.7790  143.8690 C   0  0  0  0  0  3  0  0  0  0  0  0
  190.4460  176.4330  144.1980 C   0  0  0  0  0  0  0  0  0  0  0  0
  192.5200  176.2930  147.2530 C   0  0  0  0  0  2  0  0  0  0  0  0
  186.2700  177.4380  143.9240 C   0  0  0  0  0  0  0  0  0  0  0  0
  184.6400  178.5960  141.5550 N   0  0  0  0  0  0  0  0  0  0  0  0
  192.9830  174.9640  145.1090 C   0  0  2  0  0  3  0  0  0  0  0  0
  188.3010  177.2110  145.2640 C   0  0  0  0  0  0  0  0  0  0  0  0
  186.3540  176.7130  141.4820 C   0  0  2  0  0  3  0  0  0  0  0  0
  189.0000  176.7810  144.1210 C   0  0  0  0  0  0  0  0  0  0  0  0
  186.9230  178.0410  147.5540 C   0  0  0  0  0  3  0  0  0  0  0  0
  192.5860  176.1510  142.8600 C   0  0  0  0  0  2  0  0  0  0  0  0
  186.2540  177.9490  146.3300 C   0  0  0  0  0  3  0  0  0  0  0  0
  191.1020  175.8310  142.9780 C   0  0  0  0  0  2  0  0  0  0  0  0
  192.5000  176.2860  145.7160 C   0  0  1  0  0  3  0  0  0  0  0  0
  188.2790  177.7210  147.6400 C   0  0  0  0  0  3  0  0  0  0  0  0
  190.3600  176.9650  146.5460 N   0  0  0  0  0  0  0  0  0  0  0  0
  194.0480  174.4320  145.8430 O   0  0  0  0  0  0  0  0  0  0  0  0
  194.1980  173.1290  145.3630 C   0  0  0  0  0  2  0  0  0  0  0  0
  197.5210  173.1170  144.0820 O   0  0  0  0  0  0  0  0  0  0  0  0
  196.4750  173.7920  146.0920 C   0  0  0  0  0  2  0  0  0  0  0  0
  195.6520  172.7040  145.4670 C   0  0  2  0  0  3  0  0  0  0  0  0
  197.4640  174.1650  145.0120 C   0  0  0  0  0  2  0  0  0  0  0  0
  196.2360  172.5570  144.0820 C   0  0  0  0  0  2  0  0  0  0  0  0
  1 27  1  0  0  0  0
  1 26  1  0  0  0  0
  3 19  1  0  0  0  0
  3 16  2  0  0  0  0
  4 18  1  0  0  0  0
  4 23  2  0  0  0  0
  5 11  1  0  0  0  0
  5 15  2  0  0  0  0
  7  6  1  0  0  0  0
  7  3  1  0  0  0  0
  8 12  2  0  0  0  0
  9 25  1  0  0  0  0
  9 27  1  0  0  0  0
 10 17  1  0  0  0  0
 11 20  2  0  0  0  0
 12 15  1  0  0  0  0
 13  9  2  0  0  0  0
 14  2  1  0  0  0  0
 15  4  1  0  0  0  0
 16  8  1  0  0  0  0
 17 25  1  0  0  0  0
 17 28  1  1  0  0  0
 18  1  2  0  0  0  0
 19  6  1  6  0  0  0
 19  5  1  0  0  0  0
 20 13  1  0  0  0  0
 20 18  1  0  0  0  0
 21 26  2  0  0  0  0
 22 24  1  0  0  0  0
 22 10  1  0  0  0  0
 23 21  1  0  0  0  0
 24 13  1  0  0  0  0
 25 14  1  1  0  0  0
 27  2  1  0  0  0  0
 29 28  1  0  0  0  0
 30 34  1  0  0  0  0
 30 33  1  0  0  0  0
 32 29  1  6  0  0  0
 32 31  1  0  0  0  0
 33 31  1  0  0  0  0
 34 32  1  0  0  0  0
M  END
>  <MODEL>
4

>  <REMARK>
 VINA RESULT:      -8.7      2.230      4.034
  Name = 
  3 active torsions:
  status: ('A' for Active; 'I' for Inactive)
    1  A    between atoms: C_17  and  O_28
    2  A    between atoms: O_28  and  C_29
    3  A    between atoms: C_29  and  C_32
                            x       y       z     vdW  Elec       q    Type
                         _______ _______ _______ _____ _____    ______ ____

>  <TORSDO>
F 3

$$$$
=
 OpenBabel11112417433D

 34 41  0  0  1  0  0  0  0  0999 V2000
  187.7600  175.8490  140.9760 C   0  0  0  0  0  0  0  0  0  0  0  0
  189.1550  174.0620  139.7550 C   0  0  0  0  0  2  0  0  0  0  0  0
  185.3050  178.2920  146.3950 C   0  0  0  0  0  0  0  0  0  0  0  0
  186.5770  177.5190  142.3130 C   0  0  0  0  0  0  0  0  0  0  0  0
  186.8890  177.5150  144.7250 C   0  0  0  0  0  0  0  0  0  0  0  0
  186.8210  177.2230  147.1710 C   0  0  0  0  0  2  0  0  0  0  0  0
  185.4690  177.4300  147.5400 O   0  0  0  0  0  0  0  0  0  0  0  0
  184.4920  179.6130  144.5960 C   0  0  0  0  0  3  0  0  0  0  0  0
  189.2350  174.1990  142.1110 C   0  0  0  0  0  0  0  0  0  0  0  0
  191.3300  172.5200  143.9420 C   0  0  0  0  0  2  0  0  0  0  0  0
  187.7480  176.4650  144.5910 N   0  0  0  0  0  0  0  0  0  0  0  0
  185.3440  179.2500  143.6220 C   0  0  0  0  0  3  0  0  0  0  0  0
  188.9650  174.7310  143.3260 C   0  0  0  0  0  0  0  0  0  0  0  0
  190.2410  173.1050  140.2630 C   0  0  0  0  0  2  0  0  0  0  0  0
  186.2700  178.0780  143.5750 C   0  0  0  0  0  0  0  0  0  0  0  0
  184.3260  178.9190  145.8380 N   0  0  0  0  0  0  0  0  0  0  0  0
  191.4440  173.1040  142.5280 C   0  0  2  0  0  3  0  0  0  0  0  0
  187.4530  176.4170  142.2260 C   0  0  0  0  0  0  0  0  0  0  0  0
  186.7420  178.1490  146.0790 C   0  0  2  0  0  3  0  0  0  0  0  0
  188.0330  175.8910  143.3950 C   0  0  0  0  0  0  0  0  0  0  0  0
  186.3260  177.4660  139.8880 C   0  0  0  0  0  3  0  0  0  0  0  0
  190.0050  172.8240  144.6440 C   0  0  0  0  0  2  0  0  0  0  0  0
  186.0180  178.0320  141.1290 C   0  0  0  0  0  3  0  0  0  0  0  0
  189.6770  174.3100  144.5900 C   0  0  0  0  0  2  0  0  0  0  0  0
  190.1020  173.0280  141.7920 C   0  0  1  0  0  3  0  0  0  0  0  0
  187.1960  176.3760  139.8100 C   0  0  0  0  0  3  0  0  0  0  0  0
  188.6600  174.7360  140.9370 N   0  0  0  0  0  0  0  0  0  0  0  0
  192.4390  172.4090  141.8340 O   0  0  0  0  0  0  0  0  0  0  0  0
  193.6060  173.1460  142.0470 C   0  0  0  0  0  2  0  0  0  0  0  0
  194.7950  176.4790  141.6440 O   0  0  0  0  0  0  0  0  0  0  0  0
  194.1870  174.7050  140.2050 C   0  0  0  0  0  2  0  0  0  0  0  0
  193.4370  174.5510  141.4960 C   0  0  2  0  0  3  0  0  0  0  0  0
  195.2100  175.7750  140.5040 C   0  0  0  0  0  2  0  0  0  0  0  0
  194.1040  175.5400  142.4230 C   0  0  0  0  0  2  0  0  0  0  0  0
  1 18  1  0  0  0  0
  2 14  1  0  0  0  0
  2 27  1  0  0  0  0
  3  7  1  0  0  0  0
  4 15  1  0  0  0  0
  5 19  1  0  0  0  0
  6  7  1  0  0  0  0
  8 16  1  0  0  0  0
  9 13  2  0  0  0  0
 10 22  1  0  0  0  0
 11  5  1  0  0  0  0
 12  8  2  0  0  0  0
 13 20  1  0  0  0  0
 13 24  1  0  0  0  0
 15 12  1  0  0  0  0
 15  5  2  0  0  0  0
 16  3  2  0  0  0  0
 17 28  1  6  0  0  0
 17 10  1  0  0  0  0
 18  4  2  0  0  0  0
 18 20  1  0  0  0  0
 19  3  1  0  0  0  0
 19  6  1  1  0  0  0
 20 11  2  0  0  0  0
 21 23  2  0  0  0  0
 23  4  1  0  0  0  0
 24 22  1  0  0  0  0
 25 14  1  6  0  0  0
 25  9  1  0  0  0  0
 25 17  1  0  0  0  0
 26 21  1  0  0  0  0
 26  1  2  0  0  0  0
 27  1  1  0  0  0  0
 27  9  1  0  0  0  0
 28 29  1  0  0  0  0
 30 34  1  0  0  0  0
 31 33  1  0  0  0  0
 31 32  1  0  0  0  0
 32 29  1  1  0  0  0
 32 34  1  0  0  0  0
 33 30  1  0  0  0  0
M  END
>  <MODEL>
5

>  <REMARK>
 VINA RESULT:      -8.3      2.119      2.716
  Name = 
  3 active torsions:
  status: ('A' for Active; 'I' for Inactive)
    1  A    between atoms: C_17  and  O_28
    2  A    between atoms: O_28  and  C_29
    3  A    between atoms: C_29  and  C_32
                            x       y       z     vdW  Elec       q    Type
                         _______ _______ _______ _____ _____    ______ ____

>  <TORSDO>
F 3

$$$$
=
 OpenBabel11112417433D

 34 41  0  0  1  0  0  0  0  0999 V2000
  192.1900  176.1130  145.5630 C   0  0  0  0  0  0  0  0  0  0  0  0
  190.1400  177.1940  146.6860 C   0  0  0  0  0  2  0  0  0  0  0  0
  194.7470  172.3940  140.9810 C   0  0  0  0  0  0  0  0  0  0  0  0
  194.0240  175.1050  144.2980 C   0  0  0  0  0  0  0  0  0  0  0  0
  193.5560  174.1970  142.0910 C   0  0  0  0  0  0  0  0  0  0  0  0
  193.0070  172.8670  140.0910 C   0  0  0  0  0  2  0  0  0  0  0  0
  193.7640  171.6750  140.2090 O   0  0  0  0  0  0  0  0  0  0  0  0
  196.5200  173.0660  142.4120 C   0  0  0  0  0  3  0  0  0  0  0  0
  189.9110  176.1750  144.5680 C   0  0  0  0  0  0  0  0  0  0  0  0
  187.2290  176.3930  142.7460 C   0  0  0  0  0  2  0  0  0  0  0  0
  192.2570  174.5840  142.2300 N   0  0  0  0  0  0  0  0  0  0  0  0
  195.9370  174.0920  143.0570 C   0  0  0  0  0  3  0  0  0  0  0  0
  190.3410  175.5620  143.4400 C   0  0  0  0  0  0  0  0  0  0  0  0
  188.7320  177.4880  146.1530 C   0  0  0  0  0  2  0  0  0  0  0  0
  194.4880  174.4490  143.1360 C   0  0  0  0  0  0  0  0  0  0  0  0
  195.8230  172.0940  141.6250 N   0  0  0  0  0  0  0  0  0  0  0  0
  187.8760  177.3680  143.7380 C   0  0  2  0  0  3  0  0  0  0  0  0
  192.6640  175.4650  144.4070 C   0  0  0  0  0  0  0  0  0  0  0  0
  194.0010  173.6520  140.7640 C   0  0  2  0  0  3  0  0  0  0  0  0
  191.7800  175.1870  143.3490 C   0  0  0  0  0  0  0  0  0  0  0  0
  194.4140  176.0480  146.5130 C   0  0  0  0  0  3  0  0  0  0  0  0
  188.0150  175.0980  142.5340 C   0  0  0  0  0  2  0  0  0  0  0  0
  194.8880  175.4040  145.3670 C   0  0  0  0  0  3  0  0  0  0  0  0
  189.4760  175.3800  142.2150 C   0  0  0  0  0  2  0  0  0  0  0  0
  188.5270  176.6150  144.9040 C   0  0  1  0  0  3  0  0  0  0  0  0
  193.0670  176.4030  146.6130 C   0  0  0  0  0  3  0  0  0  0  0  0
  190.8040  176.4640  145.6250 N   0  0  0  0  0  0  0  0  0  0  0  0
  186.8990  178.2580  144.1960 O   0  0  0  0  0  0  0  0  0  0  0  0
  185.7020  177.5410  144.1260 C   0  0  0  0  0  2  0  0  0  0  0  0
  185.1710  177.7770  147.6390 O   0  0  0  0  0  0  0  0  0  0  0  0
  185.1390  179.2730  145.8100 C   0  0  0  0  0  2  0  0  0  0  0  0
  184.8160  177.8970  145.3060 C   0  0  2  0  0  3  0  0  0  0  0  0
  185.6140  179.0410  147.2250 C   0  0  0  0  0  2  0  0  0  0  0  0
  185.1450  176.9970  146.4740 C   0  0  0  0  0  2  0  0  0  0  0  0
  1 27  1  0  0  0  0
  1 26  1  0  0  0  0
  3 16  2  0  0  0  0
  4 18  1  0  0  0  0
  4 23  2  0  0  0  0
  5 11  1  0  0  0  0
  5 15  2  0  0  0  0
  6  7  1  0  0  0  0
  7  3  1  0  0  0  0
  8 12  2  0  0  0  0
  9 25  1  0  0  0  0
  9 27  1  0  0  0  0
 10 17  1  0  0  0  0
 11 20  2  0  0  0  0
 12 15  1  0  0  0  0
 13  9  2  0  0  0  0
 14  2  1  0  0  0  0
 15  4  1  0  0  0  0
 16  8  1  0  0  0  0
 17 28  1  1  0  0  0
 17 25  1  0  0  0  0
 18  1  2  0  0  0  0
 19  6  1  6  0  0  0
 19  3  1  0  0  0  0
 19  5  1  0  0  0  0
 20 13  1  0  0  0  0
 20 18  1  0  0  0  0
 21 26  2  0  0  0  0
 22 10  1  0  0  0  0
 23 21  1  0  0  0  0
 24 22  1  0  0  0  0
 24 13  1  0  0  0  0
 25 14  1  1  0  0  0
 27  2  1  0  0  0  0
 29 28  1  0  0  0  0
 31 33  1  0  0  0  0
 32 29  1  6  0  0  0
 32 31  1  0  0  0  0
 32 34  1  0  0  0  0
 33 30  1  0  0  0  0
 34 30  1  0  0  0  0
M  END
>  <MODEL>
6

>  <REMARK>
 VINA RESULT:      -8.3      2.449      9.141
  Name = 
  3 active torsions:
  status: ('A' for Active; 'I' for Inactive)
    1  A    between atoms: C_17  and  O_28
    2  A    between atoms: O_28  and  C_29
    3  A    between atoms: C_29  and  C_32
                            x       y       z     vdW  Elec       q    Type
                         _______ _______ _______ _____ _____    ______ ____

>  <TORSDO>
F 3

$$$$
=
 OpenBabel11112417433D

 34 41  0  0  1  0  0  0  0  0999 V2000
  189.1120  173.9540  142.1280 C   0  0  0  0  0  0  0  0  0  0  0  0
  187.0410  175.4660  142.3690 C   0  0  0  0  0  2  0  0  0  0  0  0
  195.0600  172.2870  143.9160 C   0  0  0  0  0  0  0  0  0  0  0  0
  191.1110  172.5470  142.1230 C   0  0  0  0  0  0  0  0  0  0  0  0
  192.6740  172.7370  143.9770 C   0  0  0  0  0  0  0  0  0  0  0  0
  194.4740  173.2550  145.5790 C   0  0  0  0  0  2  0  0  0  0  0  0
  195.6720  173.2270  144.8240 O   0  0  0  0  0  0  0  0  0  0  0  0
  194.4630  170.9030  142.0810 C   0  0  0  0  0  3  0  0  0  0  0  0
  188.7360  175.5350  144.0110 C   0  0  0  0  0  0  0  0  0  0  0  0
  188.4550  177.1410  146.8220 C   0  0  0  0  0  2  0  0  0  0  0  0
  191.8590  173.6730  144.5400 N   0  0  0  0  0  0  0  0  0  0  0  0
  193.1310  171.0830  142.0620 C   0  0  0  0  0  3  0  0  0  0  0  0
  189.8810  175.1470  144.6200 C   0  0  0  0  0  0  0  0  0  0  0  0
  186.5590  176.3440  143.5300 C   0  0  0  0  0  2  0  0  0  0  0  0
  192.3180  172.1410  142.7360 C   0  0  0  0  0  0  0  0  0  0  0  0
  195.3890  171.7190  142.8060 N   0  0  0  0  0  0  0  0  0  0  0  0
  187.4220  176.4220  145.9440 C   0  0  2  0  0  3  0  0  0  0  0  0
  190.3120  173.5380  142.7320 C   0  0  0  0  0  0  0  0  0  0  0  0
  193.8520  172.2480  144.7680 C   0  0  2  0  0  3  0  0  0  0  0  0
  190.7110  174.1030  143.9560 C   0  0  0  0  0  0  0  0  0  0  0  0
  189.4910  172.4070  140.3070 C   0  0  0  0  0  3  0  0  0  0  0  0
  189.8930  177.0440  146.3090 C   0  0  0  0  0  2  0  0  0  0  0  0
  190.6840  171.9910  140.9040 C   0  0  0  0  0  3  0  0  0  0  0  0
  190.2780  175.6020  146.0040 C   0  0  0  0  0  2  0  0  0  0  0  0
  187.7640  176.5730  144.4580 C   0  0  1  0  0  3  0  0  0  0  0  0
  188.7040  173.3870  140.9160 C   0  0  0  0  0  3  0  0  0  0  0  0
  188.3320  174.9580  142.7860 N   0  0  0  0  0  0  0  0  0  0  0  0
  186.1550  176.9430  146.2250 O   0  0  0  0  0  0  0  0  0  0  0  0
  186.4010  178.1830  146.8200 C   0  0  0  0  0  2  0  0  0  0  0  0
  184.7490  179.7910  144.1060 O   0  0  0  0  0  0  0  0  0  0  0  0
  184.0850  178.5730  146.0200 C   0  0  0  0  0  2  0  0  0  0  0  0
  185.4140  179.2120  146.2980 C   0  0  2  0  0  3  0  0  0  0  0  0
  183.8920  178.7670  144.5340 C   0  0  0  0  0  2  0  0  0  0  0  0
  185.8690  179.7060  144.9450 C   0  0  0  0  0  2  0  0  0  0  0  0
  1 18  1  0  0  0  0
  1 27  1  0  0  0  0
  2 27  1  0  0  0  0
  2 14  1  0  0  0  0
  3 19  1  0  0  0  0
  3  7  1  0  0  0  0
  4 18  2  0  0  0  0
  4 15  1  0  0  0  0
  5 11  1  0  0  0  0
  5 19  1  0  0  0  0
  7  6  1  0  0  0  0
  8 16  1  0  0  0  0
  9 25  1  0  0  0  0
  9 13  2  0  0  0  0
 12  8  2  0  0  0  0
 12 15  1  0  0  0  0
 13 24  1  0  0  0  0
 15  5  2  0  0  0  0
 16  3  2  0  0  0  0
 17 28  1  6  0  0  0
 17 10  1  0  0  0  0
 18 20  1  0  0  0  0
 19  6  1  1  0  0  0
 20 11  2  0  0  0  0
 20 13  1  0  0  0  0
 21 23  2  0  0  0  0
 21 26  1  0  0  0  0
 22 10  1  0  0  0  0
 23  4  1  0  0  0  0
 24 22  1  0  0  0  0
 25 14  1  6  0  0  0
 25 17  1  0  0  0  0
 26  1  2  0  0  0  0
 27  9  1  0  0  0  0
 28 29  1  0  0  0  0
 30 33  1  0  0  0  0
 30 34  1  0  0  0  0
 31 32  1  0  0  0  0
 32 29  1  6  0  0  0
 33 31  1  0  0  0  0
 34 32  1  0  0  0  0
M  END
>  <MODEL>
7

>  <REMARK>
 VINA RESULT:      -8.2      2.474      8.479
  Name = 
  3 active torsions:
  status: ('A' for Active; 'I' for Inactive)
    1  A    between atoms: C_17  and  O_28
    2  A    between atoms: O_28  and  C_29
    3  A    between atoms: C_29  and  C_32
                            x       y       z     vdW  Elec       q    Type
                         _______ _______ _______ _____ _____    ______ ____

>  <TORSDO>
F 3

$$$$
=
 OpenBabel11112417433D

 34 41  0  0  1  0  0  0  0  0999 V2000
  191.6230  176.4160  146.1150 C   0  0  0  0  0  0  0  0  0  0  0  0
  194.1460  176.0620  146.4920 C   0  0  0  0  0  2  0  0  0  0  0  0
  186.5650  176.8690  142.1690 C   0  0  0  0  0  0  0  0  0  0  0  0
  189.2460  176.6110  145.5790 C   0  0  0  0  0  0  0  0  0  0  0  0
  188.5010  175.9940  143.3470 C   0  0  0  0  0  0  0  0  0  0  0  0
  187.8160  175.8310  140.9850 C   0  0  0  0  0  2  0  0  0  0  0  0
  186.9270  176.9130  140.7730 O   0  0  0  0  0  0  0  0  0  0  0  0
  185.7840  177.3130  144.3680 C   0  0  0  0  0  3  0  0  0  0  0  0
  193.2050  175.6030  144.3750 C   0  0  0  0  0  0  0  0  0  0  0  0
  194.8220  174.1460  141.9630 C   0  0  0  0  0  2  0  0  0  0  0  0
  189.7860  175.6680  143.0310 N   0  0  0  0  0  0  0  0  0  0  0  0
  186.8080  176.8300  145.0930 C   0  0  0  0  0  3  0  0  0  0  0  0
  192.2050  175.4580  143.4750 C   0  0  0  0  0  0  0  0  0  0  0  0
  195.2170  175.4030  145.6140 C   0  0  0  0  0  2  0  0  0  0  0  0
  188.1910  176.4820  144.6470 C   0  0  0  0  0  0  0  0  0  0  0  0
  185.8300  177.5730  142.9610 N   0  0  0  0  0  0  0  0  0  0  0  0
  194.9070  174.0020  143.4880 C   0  0  2  0  0  3  0  0  0  0  0  0
  190.5650  176.2850  145.1980 C   0  0  0  0  0  0  0  0  0  0  0  0
  187.4190  175.6770  142.3550 C   0  0  2  0  0  3  0  0  0  0  0  0
  190.8210  175.8130  143.8970 C   0  0  0  0  0  0  0  0  0  0  0  0
  190.0700  177.1990  147.7970 C   0  0  0  0  0  3  0  0  0  0  0  0
  193.7420  175.1170  141.4820 C   0  0  0  0  0  2  0  0  0  0  0  0
  189.0160  177.0710  146.8880 C   0  0  0  0  0  3  0  0  0  0  0  0
  192.3950  174.8120  142.1230 C   0  0  0  0  0  2  0  0  0  0  0  0
  194.6600  175.3460  144.1820 C   0  0  1  0  0  3  0  0  0  0  0  0
  191.3730  176.8730  147.4130 C   0  0  0  0  0  3  0  0  0  0  0  0
  192.9430  176.0670  145.6850 N   0  0  0  0  0  0  0  0  0  0  0  0
  196.1640  173.4870  143.8210 O   0  0  0  0  0  0  0  0  0  0  0  0
  195.9620  172.1110  143.9590 C   0  0  0  0  0  2  0  0  0  0  0  0
  195.0090  169.7580  146.4560 O   0  0  0  0  0  0  0  0  0  0  0  0
  196.8160  171.2440  146.1210 C   0  0  0  0  0  2  0  0  0  0  0  0
  195.6160  171.7830  145.4000 C   0  0  2  0  0  3  0  0  0  0  0  0
  196.4070  169.8440  146.5130 C   0  0  0  0  0  2  0  0  0  0  0  0
  194.6290  170.6400  145.4340 C   0  0  0  0  0  2  0  0  0  0  0  0
  1 26  1  0  0  0  0
  3 19  1  0  0  0  0
  3 16  2  0  0  0  0
  4 23  2  0  0  0  0
  5 15  2  0  0  0  0
  7  6  1  0  0  0  0
  7  3  1  0  0  0  0
  8 12  2  0  0  0  0
  9 27  1  0  0  0  0
 10 17  1  0  0  0  0
 11  5  1  0  0  0  0
 11 20  2  0  0  0  0
 13 20  1  0  0  0  0
 13  9  2  0  0  0  0
 14  2  1  0  0  0  0
 15 12  1  0  0  0  0
 15  4  1  0  0  0  0
 16  8  1  0  0  0  0
 17 28  1  6  0  0  0
 17 25  1  0  0  0  0
 18  4  1  0  0  0  0
 18  1  2  0  0  0  0
 19  6  1  6  0  0  0
 19  5  1  0  0  0  0
 20 18  1  0  0  0  0
 22 10  1  0  0  0  0
 22 24  1  0  0  0  0
 23 21  1  0  0  0  0
 24 13  1  0  0  0  0
 25  9  1  0  0  0  0
 25 14  1  1  0  0  0
 26 21  2  0  0  0  0
 27  1  1  0  0  0  0
 27  2  1  0  0  0  0
 28 29  1  0  0  0  0
 30 33  1  0  0  0  0
 31 33  1  0  0  0  0
 32 29  1  6  0  0  0
 32 34  1  0  0  0  0
 32 31  1  0  0  0  0
 34 30  1  0  0  0  0
M  END
>  <MODEL>
8

>  <REMARK>
 VINA RESULT:      -8.1      2.715      4.905
  Name = 
  3 active torsions:
  status: ('A' for Active; 'I' for Inactive)
    1  A    between atoms: C_17  and  O_28
    2  A    between atoms: O_28  and  C_29
    3  A    between atoms: C_29  and  C_32
                            x       y       z     vdW  Elec       q    Type
                         _______ _______ _______ _____ _____    ______ ____

>  <TORSDO>
F 3

$$$$
=
 OpenBabel11112417433D

 34 41  0  0  1  0  0  0  0  0999 V2000
  192.5360  175.8060  145.1680 C   0  0  0  0  0  0  0  0  0  0  0  0
  190.8180  177.6680  144.7110 C   0  0  0  0  0  2  0  0  0  0  0  0
  194.1790  169.5890  145.1770 C   0  0  0  0  0  0  0  0  0  0  0  0
  194.0760  173.9250  145.4270 C   0  0  0  0  0  0  0  0  0  0  0  0
  193.4870  171.7900  144.4200 C   0  0  0  0  0  0  0  0  0  0  0  0
  192.6900  169.5350  143.8270 C   0  0  0  0  0  2  0  0  0  0  0  0
  193.0750  168.7020  144.9050 O   0  0  0  0  0  0  0  0  0  0  0  0
  195.9930  170.7970  146.1230 C   0  0  0  0  0  3  0  0  0  0  0  0
  190.4210  175.4870  143.8980 C   0  0  0  0  0  0  0  0  0  0  0  0
  188.0070  174.7370  141.8570 C   0  0  0  0  0  2  0  0  0  0  0  0
  192.3440  172.3560  143.9410 N   0  0  0  0  0  0  0  0  0  0  0  0
  195.6890  172.0440  145.7240 C   0  0  0  0  0  3  0  0  0  0  0  0
  190.7200  174.1910  143.6460 C   0  0  0  0  0  0  0  0  0  0  0  0
  189.5790  177.7020  143.8070 C   0  0  0  0  0  2  0  0  0  0  0  0
  194.3970  172.5690  145.1880 C   0  0  0  0  0  0  0  0  0  0  0  0
  195.0930  169.6840  146.0820 N   0  0  0  0  0  0  0  0  0  0  0  0
  188.8500  176.0080  142.0240 C   0  0  2  0  0  3  0  0  0  0  0  0
  192.8690  174.4600  144.9310 C   0  0  0  0  0  0  0  0  0  0  0  0
  193.8290  170.3940  143.9880 C   0  0  2  0  0  3  0  0  0  0  0  0
  191.9980  173.6460  144.1830 C   0  0  0  0  0  0  0  0  0  0  0  0
  194.6000  176.1000  146.3960 C   0  0  0  0  0  3  0  0  0  0  0  0
  188.4070  173.5890  142.7870 C   0  0  0  0  0  2  0  0  0  0  0  0
  194.9330  174.7630  146.1620 C   0  0  0  0  0  3  0  0  0  0  0  0
  189.9040  173.3180  142.7220 C   0  0  0  0  0  2  0  0  0  0  0  0
  189.2010  176.2440  143.4980 C   0  0  1  0  0  3  0  0  0  0  0  0
  193.4040  176.6230  145.9000 C   0  0  0  0  0  3  0  0  0  0  0  0
  191.3040  176.3060  144.6390 N   0  0  0  0  0  0  0  0  0  0  0  0
  188.1390  177.0900  141.4960 O   0  0  0  0  0  0  0  0  0  0  0  0
  186.8010  176.8140  141.7840 C   0  0  0  0  0  2  0  0  0  0  0  0
  183.8360  178.5300  142.7590 O   0  0  0  0  0  0  0  0  0  0  0  0
  186.0620  178.4000  143.5440 C   0  0  0  0  0  2  0  0  0  0  0  0
  186.0570  178.1060  142.0720 C   0  0  2  0  0  3  0  0  0  0  0  0
  184.6010  178.3760  143.9250 C   0  0  0  0  0  2  0  0  0  0  0  0
  184.5940  177.9300  141.7430 C   0  0  0  0  0  2  0  0  0  0  0  0
  1 26  1  0  0  0  0
  3 16  2  0  0  0  0
  4 23  2  0  0  0  0
  5 15  2  0  0  0  0
  6  7  1  0  0  0  0
  7  3  1  0  0  0  0
  9 27  1  0  0  0  0
 10 17  1  0  0  0  0
 10 22  1  0  0  0  0
 11 20  2  0  0  0  0
 11  5  1  0  0  0  0
 12  8  2  0  0  0  0
 13  9  2  0  0  0  0
 13 20  1  0  0  0  0
 14  2  1  0  0  0  0
 15  4  1  0  0  0  0
 15 12  1  0  0  0  0
 16  8  1  0  0  0  0
 17 28  1  1  0  0  0
 17 25  1  0  0  0  0
 18  1  2  0  0  0  0
 18  4  1  0  0  0  0
 19  6  1  1  0  0  0
 19  5  1  0  0  0  0
 19  3  1  0  0  0  0
 20 18  1  0  0  0  0
 23 21  1  0  0  0  0
 24 22  1  0  0  0  0
 24 13  1  0  0  0  0
 25 14  1  6  0  0  0
 25  9  1  0  0  0  0
 26 21  2  0  0  0  0
 27  2  1  0  0  0  0
 27  1  1  0  0  0  0
 28 29  1  0  0  0  0
 30 33  1  0  0  0  0
 31 33  1  0  0  0  0
 32 29  1  1  0  0  0
 32 31  1  0  0  0  0
 34 32  1  0  0  0  0
 34 30  1  0  0  0  0
M  END
>  <MODEL>
9

>  <REMARK>
 VINA RESULT:      -8.1      3.294      9.236
  Name = 
  3 active torsions:
  status: ('A' for Active; 'I' for Inactive)
    1  A    between atoms: C_17  and  O_28
    2  A    between atoms: O_28  and  C_29
    3  A    between atoms: C_29  and  C_32
                            x       y       z     vdW  Elec       q    Type
                         _______ _______ _______ _____ _____    ______ ____

>  <TORSDO>
F 3

$$$$
