=
 OpenBabel11112417403D

 28 32  0  0  1  0  0  0  0  0999 V2000
  190.2660  175.8000  143.5870 C   0  0  0  0  0  0  0  0  0  0  0  0
  188.4720  177.8500  141.6610 O   0  0  0  0  0  0  0  0  0  0  0  0
  186.2880  176.7630  147.7730 O   0  0  0  0  0  0  0  0  0  0  0  0
  190.0870  173.1580  142.6580 C   0  0  0  0  0  3  0  0  0  0  0  0
  185.4780  177.6230  145.6550 C   0  0  2  0  0  3  0  0  0  0  0  0
  190.4430  177.2060  144.0660 C   0  0  0  0  0  2  0  0  0  0  0  0
  187.8440  175.9980  140.1700 O   0  0  0  0  0  0  0  0  0  0  0  0
  187.3500  176.9560  141.2190 S   0  0  0  0  0  0  0  0  0  0  0  0
  184.8330  178.0540  141.2460 C   0  0  0  0  0  0  0  0  0  0  0  0
  186.6640  176.0250  142.5880 C   0  0  2  0  0  3  0  0  0  0  0  0
  190.4330  177.4450  147.7240 O   0  0  0  0  0  0  0  0  0  0  0  0
  187.6340  177.1630  144.5230 C   0  0  1  0  0  3  0  0  0  0  0  0
  184.6130  177.5260  142.4160 N   0  0  0  0  0  0  0  0  0  0  0  0
  186.0810  177.9230  140.5730 N   0  0  0  0  0  2  0  0  0  0  0  0
  190.1000  176.9630  146.6030 C   0  0  0  0  0  0  0  0  0  0  0  0
  188.9890  175.2000  143.4060 C   0  0  0  0  0  0  0  0  0  0  0  0
  186.5090  177.0790  146.5720 C   0  0  0  0  0  0  0  0  0  0  0  0
  183.7250  178.7720  140.5590 C   0  0  0  0  0  1  0  0  0  0  0  0
  188.8630  176.1210  146.5190 C   0  0  0  0  0  2  0  0  0  0  0  0
  188.9250  173.8750  142.9520 C   0  0  0  0  0  3  0  0  0  0  0  0
  191.4240  175.0700  143.2840 C   0  0  0  0  0  3  0  0  0  0  0  0
  191.3350  173.7550  142.8220 C   0  0  0  0  0  3  0  0  0  0  0  0
  190.9050  177.2590  145.4510 N   0  0  0  0  0  2  0  0  0  0  0  0
  186.2220  177.7370  144.3110 C   0  0  1  0  0  3  0  0  0  0  0  0
  187.7610  176.8840  145.9420 N   0  0  0  0  0  0  0  0  0  0  0  0
  185.5620  176.8200  143.2830 C   0  0  2  0  0  3  0  0  0  0  0  0
  185.0430  179.0060  146.1210 C   0  0  0  0  0  1  0  0  0  0  0  0
  187.6620  175.8630  143.7240 C   0  0  2  0  0  3  0  0  0  0  0  0
  1  6  1  0  0  0  0
  4 22  2  0  0  0  0
  4 20  1  0  0  0  0
  5 27  1  1  0  0  0
  5 17  1  0  0  0  0
  6 23  1  0  0  0  0
  7  8  2  0  0  0  0
  8  2  2  0  0  0  0
  9 13  2  0  0  0  0
 10  8  1  6  0  0  0
 10 26  1  0  0  0  0
 10 28  1  0  0  0  0
 12 25  1  1  0  0  0
 13 26  1  0  0  0  0
 14  8  1  0  0  0  0
 14  9  1  0  0  0  0
 15 11  2  0  0  0  0
 16  1  1  0  0  0  0
 16 28  1  0  0  0  0
 17  3  2  0  0  0  0
 18  9  1  0  0  0  0
 19 15  1  0  0  0  0
 20 16  2  0  0  0  0
 21  1  2  0  0  0  0
 22 21  1  0  0  0  0
 23 15  1  0  0  0  0
 24 12  1  0  0  0  0
 24  5  1  0  0  0  0
 25 19  1  0  0  0  0
 25 17  1  0  0  0  0
 26 24  1  0  0  0  0
 28 12  1  0  0  0  0
M  END
>  <MODEL>
1

>  <REMARK>
 VINA RESULT:      -9.0      0.000      0.000
  Name = 
  0 active torsions:
  status: ('A' for Active; 'I' for Inactive)
                            x       y       z     vdW  Elec       q    Type
                         _______ _______ _______ _____ _____    ______ ____

>  <TORSDO>
F 0

$$$$
=
 OpenBabel11112417403D

 28 32  0  0  1  0  0  0  0  0999 V2000
  186.9740  178.1720  144.5930 C   0  0  0  0  0  0  0  0  0  0  0  0
  190.2640  178.0960  145.1410 O   0  0  0  0  0  0  0  0  0  0  0  0
  187.7140  173.3220  141.3970 O   0  0  0  0  0  0  0  0  0  0  0  0
  185.5640  177.5850  146.9470 C   0  0  0  0  0  3  0  0  0  0  0  0
  189.7330  173.7940  142.6560 C   0  0  2  0  0  3  0  0  0  0  0  0
  187.6920  178.5600  143.3390 C   0  0  0  0  0  2  0  0  0  0  0  0
  189.9170  177.6100  147.5270 O   0  0  0  0  0  0  0  0  0  0  0  0
  190.3760  177.0470  146.2100 S   0  0  0  0  0  0  0  0  0  0  0  0
  192.4210  175.2360  145.9330 C   0  0  0  0  0  0  0  0  0  0  0  0
  189.4010  175.5960  145.8200 C   0  0  2  0  0  3  0  0  0  0  0  0
  186.1690  177.0850  140.3480 O   0  0  0  0  0  0  0  0  0  0  0  0
  188.8480  175.9620  143.4660 C   0  0  1  0  0  3  0  0  0  0  0  0
  191.6000  174.3910  145.3770 N   0  0  0  0  0  0  0  0  0  0  0  0
  192.0160  176.5420  146.3330 N   0  0  0  0  0  2  0  0  0  0  0  0
  186.5040  177.1230  141.5660 C   0  0  0  0  0  0  0  0  0  0  0  0
  187.2560  176.9730  145.3050 C   0  0  0  0  0  0  0  0  0  0  0  0
  188.3940  174.1150  142.1050 C   0  0  0  0  0  0  0  0  0  0  0  0
  193.8190  174.8070  146.2120 C   0  0  0  0  0  1  0  0  0  0  0  0
  186.5450  175.8420  142.3430 C   0  0  0  0  0  2  0  0  0  0  0  0
  186.5310  176.6960  146.4720 C   0  0  0  0  0  3  0  0  0  0  0  0
  186.0050  179.0570  145.0830 C   0  0  0  0  0  3  0  0  0  0  0  0
  185.3020  178.7650  146.2540 C   0  0  0  0  0  3  0  0  0  0  0  0
  186.8560  178.3870  142.1530 N   0  0  0  0  0  2  0  0  0  0  0  0
  190.0700  175.0280  143.5120 C   0  0  1  0  0  3  0  0  0  0  0  0
  187.9200  175.3850  142.5100 N   0  0  0  0  0  0  0  0  0  0  0  0
  190.2070  174.6130  144.9760 C   0  0  2  0  0  3  0  0  0  0  0  0
  190.7440  173.6590  141.5260 C   0  0  0  0  0  1  0  0  0  0  0  0
  188.2550  175.9170  144.8710 C   0  0  2  0  0  3  0  0  0  0  0  0
  1 21  2  0  0  0  0
  1 16  1  0  0  0  0
  2  8  2  0  0  0  0
  3 17  2  0  0  0  0
  5 27  1  6  0  0  0
  5 24  1  0  0  0  0
  6  1  1  0  0  0  0
  8 14  1  0  0  0  0
  8  7  2  0  0  0  0
  9 18  1  0  0  0  0
  9 14  1  0  0  0  0
 10  8  1  6  0  0  0
 11 15  2  0  0  0  0
 12 25  1  6  0  0  0
 12 24  1  0  0  0  0
 12 28  1  0  0  0  0
 13  9  2  0  0  0  0
 15 23  1  0  0  0  0
 15 19  1  0  0  0  0
 16 20  2  0  0  0  0
 17 25  1  0  0  0  0
 17  5  1  0  0  0  0
 19 25  1  0  0  0  0
 20  4  1  0  0  0  0
 21 22  1  0  0  0  0
 22  4  2  0  0  0  0
 23  6  1  0  0  0  0
 24 26  1  0  0  0  0
 26 13  1  0  0  0  0
 26 10  1  0  0  0  0
 28 16  1  0  0  0  0
 28 10  1  0  0  0  0
M  END
>  <MODEL>
2

>  <REMARK>
 VINA RESULT:      -8.7      2.126      6.525
  Name = 
  0 active torsions:
  status: ('A' for Active; 'I' for Inactive)
                            x       y       z     vdW  Elec       q    Type
                         _______ _______ _______ _____ _____    ______ ____

>  <TORSDO>
F 0

$$$$
=
 OpenBabel11112417403D

 28 32  0  0  1  0  0  0  0  0999 V2000
  188.4680  177.1970  144.5220 C   0  0  0  0  0  0  0  0  0  0  0  0
  191.7820  177.2890  144.8950 O   0  0  0  0  0  0  0  0  0  0  0  0
  189.2820  172.3850  141.2870 O   0  0  0  0  0  0  0  0  0  0  0  0
  187.2160  176.5430  146.9480 C   0  0  0  0  0  3  0  0  0  0  0  0
  191.3380  172.9610  142.4380 C   0  0  2  0  0  3  0  0  0  0  0  0
  189.0970  177.6190  143.2320 C   0  0  0  0  0  2  0  0  0  0  0  0
  191.5870  176.7910  147.2950 O   0  0  0  0  0  0  0  0  0  0  0  0
  192.0030  176.2500  145.9550 S   0  0  0  0  0  0  0  0  0  0  0  0
  194.1210  174.5440  145.5680 C   0  0  0  0  0  0  0  0  0  0  0  0
  191.0840  174.7500  145.6160 C   0  0  2  0  0  3  0  0  0  0  0  0
  187.4950  176.0630  140.3260 O   0  0  0  0  0  0  0  0  0  0  0  0
  190.3890  175.0830  143.2950 C   0  0  1  0  0  3  0  0  0  0  0  0
  193.3150  173.6580  145.0560 N   0  0  0  0  0  0  0  0  0  0  0  0
  193.6720  175.8280  145.9900 N   0  0  0  0  0  2  0  0  0  0  0  0
  187.8920  176.1200  141.5240 C   0  0  0  0  0  0  0  0  0  0  0  0
  188.8480  176.0150  145.2170 C   0  0  0  0  0  0  0  0  0  0  0  0
  189.9580  173.2130  141.9590 C   0  0  0  0  0  0  0  0  0  0  0  0
  195.5510  174.1870  145.7720 C   0  0  0  0  0  1  0  0  0  0  0  0
  188.0380  174.8440  142.2970 C   0  0  0  0  0  2  0  0  0  0  0  0
  188.2000  175.7040  146.4210 C   0  0  0  0  0  3  0  0  0  0  0  0
  187.4820  178.0330  145.0640 C   0  0  0  0  0  3  0  0  0  0  0  0
  186.8580  177.7070  146.2700 C   0  0  0  0  0  3  0  0  0  0  0  0
  188.2090  177.4010  142.0930 N   0  0  0  0  0  2  0  0  0  0  0  0
  191.6580  174.2130  143.2760 C   0  0  1  0  0  3  0  0  0  0  0  0
  189.4420  174.4580  142.3890 N   0  0  0  0  0  0  0  0  0  0  0  0
  191.8930  173.8080  144.7300 C   0  0  2  0  0  3  0  0  0  0  0  0
  192.2940  172.8760  141.2550 C   0  0  0  0  0  1  0  0  0  0  0  0
  189.8750  175.0100  144.7300 C   0  0  2  0  0  3  0  0  0  0  0  0
  1 21  2  0  0  0  0
  1 16  1  0  0  0  0
  2  8  2  0  0  0  0
  3 17  2  0  0  0  0
  5 27  1  6  0  0  0
  5 24  1  0  0  0  0
  6  1  1  0  0  0  0
  8 14  1  0  0  0  0
  8  7  2  0  0  0  0
  9 18  1  0  0  0  0
  9 14  1  0  0  0  0
 10  8  1  6  0  0  0
 11 15  2  0  0  0  0
 12 25  1  6  0  0  0
 12 28  1  0  0  0  0
 13  9  2  0  0  0  0
 15 23  1  0  0  0  0
 15 19  1  0  0  0  0
 16 20  2  0  0  0  0
 17 25  1  0  0  0  0
 17  5  1  0  0  0  0
 19 25  1  0  0  0  0
 20  4  1  0  0  0  0
 21 22  1  0  0  0  0
 22  4  2  0  0  0  0
 23  6  1  0  0  0  0
 24 12  1  0  0  0  0
 24 26  1  0  0  0  0
 26 13  1  0  0  0  0
 26 10  1  0  0  0  0
 28 16  1  0  0  0  0
 28 10  1  0  0  0  0
M  END
>  <MODEL>
3

>  <REMARK>
 VINA RESULT:      -8.1      2.699      6.989
  Name = 
  0 active torsions:
  status: ('A' for Active; 'I' for Inactive)
                            x       y       z     vdW  Elec       q    Type
                         _______ _______ _______ _____ _____    ______ ____

>  <TORSDO>
F 0

$$$$
=
 OpenBabel11112417403D

 28 32  0  0  1  0  0  0  0  0999 V2000
  191.0620  174.8100  142.1590 C   0  0  0  0  0  0  0  0  0  0  0  0
  189.3160  177.6500  142.0210 O   0  0  0  0  0  0  0  0  0  0  0  0
  190.7880  175.2940  147.9870 O   0  0  0  0  0  0  0  0  0  0  0  0
  189.5030  172.6460  141.2840 C   0  0  0  0  0  3  0  0  0  0  0  0
  189.2680  176.8780  146.9580 C   0  0  2  0  0  3  0  0  0  0  0  0
  191.9430  175.9500  142.5610 C   0  0  0  0  0  2  0  0  0  0  0  0
  187.3690  176.4790  141.0790 O   0  0  0  0  0  0  0  0  0  0  0  0
  187.9210  177.1690  142.2970 S   0  0  0  0  0  0  0  0  0  0  0  0
  186.4210  178.6950  144.0180 C   0  0  0  0  0  0  0  0  0  0  0  0
  187.8700  176.0390  143.6860 C   0  0  2  0  0  3  0  0  0  0  0  0
  194.0970  175.1100  145.4060 O   0  0  0  0  0  0  0  0  0  0  0  0
  190.0830  176.3430  144.6800 C   0  0  1  0  0  3  0  0  0  0  0  0
  186.7440  177.9050  145.0020 N   0  0  0  0  0  0  0  0  0  0  0  0
  186.9300  178.5170  142.7000 N   0  0  0  0  0  2  0  0  0  0  0  0
  193.0470  175.0530  144.7040 C   0  0  0  0  0  0  0  0  0  0  0  0
  189.7980  174.5590  142.7630 C   0  0  0  0  0  0  0  0  0  0  0  0
  190.3770  175.8940  146.9560 C   0  0  0  0  0  0  0  0  0  0  0  0
  185.4440  179.7910  144.2630 C   0  0  0  0  0  1  0  0  0  0  0  0
  191.7870  174.5390  145.3330 C   0  0  0  0  0  2  0  0  0  0  0  0
  189.0430  173.4650  142.3170 C   0  0  0  0  0  3  0  0  0  0  0  0
  191.5090  173.9820  141.1200 C   0  0  0  0  0  3  0  0  0  0  0  0
  190.7340  172.9050  140.6850 C   0  0  0  0  0  3  0  0  0  0  0  0
  193.0950  175.5030  143.3410 N   0  0  0  0  0  2  0  0  0  0  0  0
  189.0990  177.2260  145.4670 C   0  0  1  0  0  3  0  0  0  0  0  0
  190.8910  175.6430  145.6630 N   0  0  0  0  0  0  0  0  0  0  0  0
  187.7090  176.8010  144.9980 C   0  0  2  0  0  3  0  0  0  0  0  0
  189.6750  178.1230  147.7340 C   0  0  0  0  0  1  0  0  0  0  0  0
  189.2090  175.3550  143.9130 C   0  0  2  0  0  3  0  0  0  0  0  0
  1  6  1  0  0  0  0
  1 16  1  0  0  0  0
  2  8  2  0  0  0  0
  4 20  1  0  0  0  0
  5 27  1  1  0  0  0
  6 23  1  0  0  0  0
  7  8  2  0  0  0  0
  8 14  1  0  0  0  0
  9 18  1  0  0  0  0
  9 13  2  0  0  0  0
 10  8  1  6  0  0  0
 10 28  1  0  0  0  0
 10 26  1  0  0  0  0
 12 24  1  0  0  0  0
 12 25  1  1  0  0  0
 14  9  1  0  0  0  0
 15 19  1  0  0  0  0
 15 11  2  0  0  0  0
 16 28  1  0  0  0  0
 17  5  1  0  0  0  0
 17  3  2  0  0  0  0
 19 25  1  0  0  0  0
 20 16  2  0  0  0  0
 21  1  2  0  0  0  0
 22 21  1  0  0  0  0
 22  4  2  0  0  0  0
 23 15  1  0  0  0  0
 24  5  1  0  0  0  0
 25 17  1  0  0  0  0
 26 13  1  0  0  0  0
 26 24  1  0  0  0  0
 28 12  1  0  0  0  0
M  END
>  <MODEL>
4

>  <REMARK>
 VINA RESULT:      -8.1      1.969      3.054
  Name = 
  0 active torsions:
  status: ('A' for Active; 'I' for Inactive)
                            x       y       z     vdW  Elec       q    Type
                         _______ _______ _______ _____ _____    ______ ____

>  <TORSDO>
F 0

$$$$
=
 OpenBabel11112417403D

 28 32  0  0  1  0  0  0  0  0999 V2000
  193.0960  174.6190  145.3600 C   0  0  0  0  0  0  0  0  0  0  0  0
  190.0930  174.7680  146.8070 O   0  0  0  0  0  0  0  0  0  0  0  0
  190.2650  173.9430  140.2800 O   0  0  0  0  0  0  0  0  0  0  0  0
  194.3620  177.1230  145.4470 C   0  0  0  0  0  3  0  0  0  0  0  0
  188.7020  174.6100  142.0100 C   0  0  2  0  0  3  0  0  0  0  0  0
  192.4810  173.2550  145.3610 C   0  0  0  0  0  2  0  0  0  0  0  0
  190.4260  177.1330  147.3940 O   0  0  0  0  0  0  0  0  0  0  0  0
  189.6740  176.1780  146.5070 S   0  0  0  0  0  0  0  0  0  0  0  0
  187.0710  176.5350  145.7090 C   0  0  0  0  0  0  0  0  0  0  0  0
  189.9740  176.6100  144.7940 C   0  0  2  0  0  3  0  0  0  0  0  0
  193.0530  171.4670  142.2130 O   0  0  0  0  0  0  0  0  0  0  0  0
  190.4230  174.4290  143.7830 C   0  0  1  0  0  3  0  0  0  0  0  0
  187.4500  176.5250  144.4630 N   0  0  0  0  0  0  0  0  0  0  0  0
  187.9830  176.3350  146.7840 N   0  0  0  0  0  2  0  0  0  0  0  0
  192.8630  172.4850  142.9370 C   0  0  0  0  0  0  0  0  0  0  0  0
  192.4320  175.7650  144.8400 C   0  0  0  0  0  0  0  0  0  0  0  0
  190.0080  174.1280  141.5020 C   0  0  0  0  0  0  0  0  0  0  0  0
  185.6460  176.8220  146.0270 C   0  0  0  0  0  1  0  0  0  0  0  0
  192.3960  173.7530  142.2890 C   0  0  0  0  0  2  0  0  0  0  0  0
  193.0900  177.0030  144.8840 C   0  0  0  0  0  3  0  0  0  0  0  0
  194.3700  174.7550  145.9260 C   0  0  0  0  0  3  0  0  0  0  0  0
  195.0010  176.0000  145.9690 C   0  0  0  0  0  3  0  0  0  0  0  0
  193.0810  172.3840  144.3530 N   0  0  0  0  0  2  0  0  0  0  0  0
  188.9430  174.7610  143.5230 C   0  0  1  0  0  3  0  0  0  0  0  0
  190.9700  173.9550  142.5240 N   0  0  0  0  0  0  0  0  0  0  0  0
  188.7810  176.2260  143.9230 C   0  0  2  0  0  3  0  0  0  0  0  0
  187.6250  173.5620  141.7620 C   0  0  0  0  0  1  0  0  0  0  0  0
  191.0690  175.7550  144.1740 C   0  0  2  0  0  3  0  0  0  0  0  0
  1  6  1  0  0  0  0
  1 21  1  0  0  0  0
  3 17  2  0  0  0  0
  4 22  1  0  0  0  0
  5 27  1  1  0  0  0
  5 24  1  0  0  0  0
  8 14  1  0  0  0  0
  8  2  2  0  0  0  0
  8  7  2  0  0  0  0
  9 18  1  0  0  0  0
  9 14  1  0  0  0  0
 10  8  1  1  0  0  0
 11 15  2  0  0  0  0
 12 25  1  6  0  0  0
 12 28  1  0  0  0  0
 13  9  2  0  0  0  0
 15 23  1  0  0  0  0
 16 20  1  0  0  0  0
 16  1  2  0  0  0  0
 17  5  1  0  0  0  0
 17 25  1  0  0  0  0
 19 25  1  0  0  0  0
 19 15  1  0  0  0  0
 20  4  2  0  0  0  0
 21 22  2  0  0  0  0
 23  6  1  0  0  0  0
 24 12  1  0  0  0  0
 24 26  1  0  0  0  0
 26 13  1  0  0  0  0
 26 10  1  0  0  0  0
 28 10  1  0  0  0  0
 28 16  1  0  0  0  0
M  END
>  <MODEL>
5

>  <REMARK>
 VINA RESULT:      -7.5      3.033      5.723
  Name = 
  0 active torsions:
  status: ('A' for Active; 'I' for Inactive)
                            x       y       z     vdW  Elec       q    Type
                         _______ _______ _______ _____ _____    ______ ____

>  <TORSDO>
F 0

$$$$
=
 OpenBabel11112417403D

 28 32  0  0  1  0  0  0  0  0999 V2000
  189.3660  175.8530  144.3790 C   0  0  0  0  0  0  0  0  0  0  0  0
  192.6550  176.3940  144.5200 O   0  0  0  0  0  0  0  0  0  0  0  0
  190.6480  170.5570  142.2390 O   0  0  0  0  0  0  0  0  0  0  0  0
  188.2880  175.6290  146.9610 C   0  0  0  0  0  3  0  0  0  0  0  0
  192.6570  171.6010  143.1070 C   0  0  2  0  0  3  0  0  0  0  0  0
  189.8940  176.0410  142.9930 C   0  0  0  0  0  2  0  0  0  0  0  0
  192.6050  176.4320  146.9790 O   0  0  0  0  0  0  0  0  0  0  0  0
  193.0380  175.6510  145.7670 S   0  0  0  0  0  0  0  0  0  0  0  0
  195.3320  174.1480  145.6370 C   0  0  0  0  0  0  0  0  0  0  0  0
  192.2960  174.0220  145.8240 C   0  0  2  0  0  3  0  0  0  0  0  0
  188.3940  173.7010  140.6020 O   0  0  0  0  0  0  0  0  0  0  0  0
  191.4860  173.7440  143.5330 C   0  0  1  0  0  3  0  0  0  0  0  0
  194.6230  173.0850  145.3830 N   0  0  0  0  0  0  0  0  0  0  0  0
  194.7450  175.4360  145.7930 N   0  0  0  0  0  2  0  0  0  0  0  0
  188.8220  174.0710  141.7320 C   0  0  0  0  0  0  0  0  0  0  0  0
  189.9100  174.9090  145.2930 C   0  0  0  0  0  0  0  0  0  0  0  0
  191.2400  171.5840  142.6700 C   0  0  0  0  0  0  0  0  0  0  0  0
  196.8010  174.0070  145.8280 C   0  0  0  0  0  1  0  0  0  0  0  0
  189.1490  173.0270  142.7560 C   0  0  0  0  0  2  0  0  0  0  0  0
  189.3480  174.8070  146.5730 C   0  0  0  0  0  3  0  0  0  0  0  0
  188.3050  176.6750  144.7830 C   0  0  0  0  0  3  0  0  0  0  0  0
  187.7670  176.5630  146.0670 C   0  0  0  0  0  3  0  0  0  0  0  0
  189.0010  175.4740  141.9850 N   0  0  0  0  0  2  0  0  0  0  0  0
  192.8510  173.0370  143.6280 C   0  0  1  0  0  3  0  0  0  0  0  0
  190.5920  172.8290  142.8460 N   0  0  0  0  0  0  0  0  0  0  0  0
  193.1830  172.9990  145.1180 C   0  0  2  0  0  3  0  0  0  0  0  0
  193.5740  171.3580  141.9160 C   0  0  0  0  0  1  0  0  0  0  0  0
  191.0350  173.9400  144.9770 C   0  0  2  0  0  3  0  0  0  0  0  0
  1 21  2  0  0  0  0
  1 16  1  0  0  0  0
  2  8  2  0  0  0  0
  3 17  2  0  0  0  0
  5 27  1  6  0  0  0
  5 24  1  0  0  0  0
  6  1  1  0  0  0  0
  8 14  1  0  0  0  0
  8  7  2  0  0  0  0
  9 14  1  0  0  0  0
  9 18  1  0  0  0  0
 10  8  1  6  0  0  0
 11 15  2  0  0  0  0
 12 25  1  6  0  0  0
 12 24  1  0  0  0  0
 12 28  1  0  0  0  0
 13  9  2  0  0  0  0
 15 23  1  0  0  0  0
 15 19  1  0  0  0  0
 16 20  2  0  0  0  0
 17 25  1  0  0  0  0
 17  5  1  0  0  0  0
 19 25  1  0  0  0  0
 20  4  1  0  0  0  0
 21 22  1  0  0  0  0
 22  4  2  0  0  0  0
 23  6  1  0  0  0  0
 24 26  1  0  0  0  0
 26 13  1  0  0  0  0
 26 10  1  0  0  0  0
 28 16  1  0  0  0  0
 28 10  1  0  0  0  0
M  END
>  <MODEL>
6

>  <REMARK>
 VINA RESULT:      -7.4      3.467      7.707
  Name = 
  0 active torsions:
  status: ('A' for Active; 'I' for Inactive)
                            x       y       z     vdW  Elec       q    Type
                         _______ _______ _______ _____ _____    ______ ____

>  <TORSDO>
F 0

$$$$
=
 OpenBabel11112417403D

 28 32  0  0  1  0  0  0  0  0999 V2000
  188.5120  175.9730  145.5630 C   0  0  0  0  0  0  0  0  0  0  0  0
  189.2700  173.4520  143.5130 O   0  0  0  0  0  0  0  0  0  0  0  0
  194.2420  177.1660  145.7030 O   0  0  0  0  0  0  0  0  0  0  0  0
  187.1270  177.9880  144.1850 C   0  0  0  0  0  3  0  0  0  0  0  0
  193.7780  175.5640  143.9420 C   0  0  2  0  0  3  0  0  0  0  0  0
  189.1810  174.8870  146.3440 C   0  0  0  0  0  2  0  0  0  0  0  0
  188.1220  174.5530  141.6370 O   0  0  0  0  0  0  0  0  0  0  0  0
  189.4600  174.1640  142.2050 S   0  0  0  0  0  0  0  0  0  0  0  0
  191.6120  173.3780  140.6900 C   0  0  0  0  0  0  0  0  0  0  0  0
  190.4690  175.6320  142.3880 C   0  0  2  0  0  3  0  0  0  0  0  0
  191.5670  176.2040  148.7960 O   0  0  0  0  0  0  0  0  0  0  0  0
  191.4070  175.3380  144.6280 C   0  0  1  0  0  3  0  0  0  0  0  0
  192.3140  174.3630  141.1740 N   0  0  0  0  0  0  0  0  0  0  0  0
  190.2750  173.1170  141.1080 N   0  0  0  0  0  2  0  0  0  0  0  0
  190.9270  176.1960  147.7060 C   0  0  0  0  0  0  0  0  0  0  0  0
  189.0760  176.5400  144.3870 C   0  0  0  0  0  0  0  0  0  0  0  0
  193.4450  176.3600  145.1480 C   0  0  0  0  0  0  0  0  0  0  0  0
  192.2030  172.5280  139.6220 C   0  0  0  0  0  1  0  0  0  0  0  0
  191.4400  177.0200  146.5640 C   0  0  0  0  0  2  0  0  0  0  0  0
  188.3710  177.5540  143.7220 C   0  0  0  0  0  3  0  0  0  0  0  0
  187.2600  176.4160  146.0140 C   0  0  0  0  0  3  0  0  0  0  0  0
  186.5720  177.4190  145.3290 C   0  0  0  0  0  3  0  0  0  0  0  0
  189.7480  175.3830  147.5960 N   0  0  0  0  0  2  0  0  0  0  0  0
  192.4580  174.8400  143.6180 C   0  0  1  0  0  3  0  0  0  0  0  0
  192.1120  176.1740  145.5820 N   0  0  0  0  0  0  0  0  0  0  0  0
  191.9500  175.2910  142.2500 C   0  0  2  0  0  3  0  0  0  0  0  0
  194.8580  174.5420  144.2720 C   0  0  0  0  0  1  0  0  0  0  0  0
  190.4310  176.1760  143.8080 C   0  0  2  0  0  3  0  0  0  0  0  0
  1 21  1  0  0  0  0
  1  6  1  0  0  0  0
  4 22  1  0  0  0  0
  5 27  1  1  0  0  0
  5 17  1  0  0  0  0
  6 23  1  0  0  0  0
  7  8  2  0  0  0  0
  8  2  2  0  0  0  0
  9 14  1  0  0  0  0
  9 13  2  0  0  0  0
 10  8  1  1  0  0  0
 10 28  1  0  0  0  0
 12 25  1  1  0  0  0
 13 26  1  0  0  0  0
 14  8  1  0  0  0  0
 15 11  2  0  0  0  0
 16  1  2  0  0  0  0
 17 25  1  0  0  0  0
 17  3  2  0  0  0  0
 18  9  1  0  0  0  0
 19 15  1  0  0  0  0
 20  4  2  0  0  0  0
 20 16  1  0  0  0  0
 22 21  2  0  0  0  0
 23 15  1  0  0  0  0
 24  5  1  0  0  0  0
 24 12  1  0  0  0  0
 25 19  1  0  0  0  0
 26 10  1  0  0  0  0
 26 24  1  0  0  0  0
 28 16  1  0  0  0  0
 28 12  1  0  0  0  0
M  END
>  <MODEL>
7

>  <REMARK>
 VINA RESULT:      -7.3      3.013      5.860
  Name = 
  0 active torsions:
  status: ('A' for Active; 'I' for Inactive)
                            x       y       z     vdW  Elec       q    Type
                         _______ _______ _______ _____ _____    ______ ____

>  <TORSDO>
F 0

$$$$
=
 OpenBabel11112417403D

 28 32  0  0  1  0  0  0  0  0999 V2000
  190.3860  174.6770  143.5900 C   0  0  0  0  0  0  0  0  0  0  0  0
  188.2080  175.3590  146.0240 O   0  0  0  0  0  0  0  0  0  0  0  0
  186.6850  177.3870  139.9510 O   0  0  0  0  0  0  0  0  0  0  0  0
  192.7290  176.1890  143.9060 C   0  0  0  0  0  3  0  0  0  0  0  0
  186.0360  177.8090  142.2500 C   0  0  2  0  0  3  0  0  0  0  0  0
  189.1820  173.8030  143.4340 C   0  0  0  0  0  2  0  0  0  0  0  0
  189.7910  176.9110  147.0890 O   0  0  0  0  0  0  0  0  0  0  0  0
  188.5070  176.8020  146.3120 S   0  0  0  0  0  0  0  0  0  0  0  0
  186.3400  178.4500  146.6700 C   0  0  0  0  0  0  0  0  0  0  0  0
  188.6480  177.7640  144.8070 C   0  0  2  0  0  3  0  0  0  0  0  0
  188.1600  173.4530  139.9310 O   0  0  0  0  0  0  0  0  0  0  0  0
  187.7360  176.2350  143.1300 C   0  0  1  0  0  3  0  0  0  0  0  0
  186.4150  178.8220  145.4240 N   0  0  0  0  0  0  0  0  0  0  0  0
  187.2140  177.4730  147.2280 N   0  0  0  0  0  2  0  0  0  0  0  0
  188.6520  174.0520  140.9300 C   0  0  0  0  0  0  0  0  0  0  0  0
  190.3040  176.0930  143.6990 C   0  0  0  0  0  0  0  0  0  0  0  0
  186.7970  177.1190  141.1800 C   0  0  0  0  0  0  0  0  0  0  0  0
  185.3440  179.1060  147.5600 C   0  0  0  0  0  1  0  0  0  0  0  0
  188.7710  175.5460  140.8870 C   0  0  0  0  0  2  0  0  0  0  0  0
  191.4890  176.8280  143.8440 C   0  0  0  0  0  3  0  0  0  0  0  0
  191.6370  174.0490  143.6580 C   0  0  0  0  0  3  0  0  0  0  0  0
  192.8030  174.8010  143.8140 C   0  0  0  0  0  3  0  0  0  0  0  0
  189.0550  173.2840  142.0740 N   0  0  0  0  0  2  0  0  0  0  0  0
  186.6050  177.1960  143.5420 C   0  0  1  0  0  3  0  0  0  0  0  0
  187.7160  176.1680  141.6800 N   0  0  0  0  0  0  0  0  0  0  0  0
  187.2820  178.2860  144.3700 C   0  0  2  0  0  3  0  0  0  0  0  0
  184.5540  177.4790  142.1330 C   0  0  0  0  0  1  0  0  0  0  0  0
  189.0220  176.9000  143.6120 C   0  0  2  0  0  3  0  0  0  0  0  0
  1 21  2  0  0  0  0
  1 16  1  0  0  0  0
  2  8  2  0  0  0  0
  3 17  2  0  0  0  0
  5 27  1  6  0  0  0
  5 24  1  0  0  0  0
  6  1  1  0  0  0  0
  8  7  2  0  0  0  0
  8 14  1  0  0  0  0
  9 14  1  0  0  0  0
  9 18  1  0  0  0  0
 10  8  1  1  0  0  0
 11 15  2  0  0  0  0
 12 25  1  6  0  0  0
 12 24  1  0  0  0  0
 12 28  1  0  0  0  0
 13  9  2  0  0  0  0
 15 23  1  0  0  0  0
 16 20  2  0  0  0  0
 17 25  1  0  0  0  0
 17  5  1  0  0  0  0
 19 15  1  0  0  0  0
 19 25  1  0  0  0  0
 20  4  1  0  0  0  0
 21 22  1  0  0  0  0
 22  4  2  0  0  0  0
 23  6  1  0  0  0  0
 24 26  1  0  0  0  0
 26 10  1  0  0  0  0
 26 13  1  0  0  0  0
 28 16  1  0  0  0  0
 28 10  1  0  0  0  0
M  END
>  <MODEL>
8

>  <REMARK>
 VINA RESULT:      -7.1      2.150      4.846
  Name = 
  0 active torsions:
  status: ('A' for Active; 'I' for Inactive)
                            x       y       z     vdW  Elec       q    Type
                         _______ _______ _______ _____ _____    ______ ____

>  <TORSDO>
F 0

$$$$
=
 OpenBabel11112417403D

 28 32  0  0  1  0  0  0  0  0999 V2000
  189.8280  176.5080  144.6530 C   0  0  0  0  0  0  0  0  0  0  0  0
  192.9940  175.8210  143.8530 O   0  0  0  0  0  0  0  0  0  0  0  0
  188.3000  173.5250  139.8530 O   0  0  0  0  0  0  0  0  0  0  0  0
  189.0630  175.1060  146.9600 C   0  0  0  0  0  3  0  0  0  0  0  0
  190.6470  173.1550  140.3390 C   0  0  2  0  0  3  0  0  0  0  0  0
  190.2260  177.3260  143.4650 C   0  0  0  0  0  2  0  0  0  0  0  0
  193.2420  174.3730  145.8260 O   0  0  0  0  0  0  0  0  0  0  0  0
  193.1310  174.4020  144.3260 S   0  0  0  0  0  0  0  0  0  0  0  0
  194.4540  172.6790  142.6460 C   0  0  0  0  0  0  0  0  0  0  0  0
  191.7390  173.3960  143.8200 C   0  0  2  0  0  3  0  0  0  0  0  0
  187.5660  177.5130  140.9500 O   0  0  0  0  0  0  0  0  0  0  0  0
  190.6410  174.8270  142.1670 C   0  0  1  0  0  3  0  0  0  0  0  0
  193.3150  172.2680  142.1680 N   0  0  0  0  0  0  0  0  0  0  0  0
  194.5430  173.7100  143.6250 N   0  0  0  0  0  2  0  0  0  0  0  0
  188.2390  176.9690  141.8710 C   0  0  0  0  0  0  0  0  0  0  0  0
  189.9790  175.0950  144.7030 C   0  0  0  0  0  0  0  0  0  0  0  0
  189.3400  173.8380  140.4940 C   0  0  0  0  0  0  0  0  0  0  0  0
  195.7070  172.0140  142.1970 C   0  0  0  0  0  1  0  0  0  0  0  0
  188.1640  175.4810  142.0360 C   0  0  0  0  0  2  0  0  0  0  0  0
  189.5790  174.4150  145.8620 C   0  0  0  0  0  3  0  0  0  0  0  0
  189.3130  177.1900  145.7640 C   0  0  0  0  0  3  0  0  0  0  0  0
  188.9310  176.4930  146.9120 C   0  0  0  0  0  3  0  0  0  0  0  0
  189.0660  177.7930  142.7090 N   0  0  0  0  0  2  0  0  0  0  0  0
  191.5330  173.8350  141.3990 C   0  0  1  0  0  3  0  0  0  0  0  0
  189.3570  174.8430  141.4900 N   0  0  0  0  0  0  0  0  0  0  0  0
  191.9750  172.8030  142.4340 C   0  0  2  0  0  3  0  0  0  0  0  0
  191.2120  173.4190  138.9500 C   0  0  0  0  0  1  0  0  0  0  0  0
  190.4940  174.2330  143.5650 C   0  0  2  0  0  3  0  0  0  0  0  0
  1 16  2  0  0  0  0
  1 21  1  0  0  0  0
  2  8  2  0  0  0  0
  3 17  2  0  0  0  0
  5 27  1  6  0  0  0
  5 17  1  0  0  0  0
  5 24  1  0  0  0  0
  6  1  1  0  0  0  0
  8  7  2  0  0  0  0
  9 14  1  0  0  0  0
 10  8  1  6  0  0  0
 11 15  2  0  0  0  0
 12 25  1  6  0  0  0
 12 28  1  0  0  0  0
 13 26  1  0  0  0  0
 13  9  2  0  0  0  0
 14  8  1  0  0  0  0
 15 19  1  0  0  0  0
 15 23  1  0  0  0  0
 16 20  1  0  0  0  0
 17 25  1  0  0  0  0
 18  9  1  0  0  0  0
 20  4  2  0  0  0  0
 21 22  2  0  0  0  0
 22  4  1  0  0  0  0
 23  6  1  0  0  0  0
 24 12  1  0  0  0  0
 24 26  1  0  0  0  0
 25 19  1  0  0  0  0
 26 10  1  0  0  0  0
 28 10  1  0  0  0  0
 28 16  1  0  0  0  0
M  END
>  <MODEL>
9

>  <REMARK>
 VINA RESULT:      -7.1      3.314      7.032
  Name = 
  0 active torsions:
  status: ('A' for Active; 'I' for Inactive)
                            x       y       z     vdW  Elec       q    Type
                         _______ _______ _______ _____ _____    ______ ____

>  <TORSDO>
F 0

$$$$
