=
 OpenBabel11112417343D

 28 32  0  0  1  0  0  0  0  0999 V2000
  186.2430  176.8720  143.4080 C   0  0  0  0  0  0  0  0  0  0  0  0
  187.5190  172.9800  141.9180 O   0  0  0  0  0  0  0  0  0  0  0  0
  190.6390  177.7140  147.1740 C   0  0  0  0  0  1  0  0  0  0  0  0
  187.4560  177.9550  141.1260 C   0  0  0  0  0  3  0  0  0  0  0  0
  190.4080  175.1570  146.8010 C   0  0  1  0  0  3  0  0  0  0  0  0
  185.5840  176.4200  144.6600 C   0  0  0  0  0  2  0  0  0  0  0  0
  188.9710  174.6070  140.7660 O   0  0  0  0  0  0  0  0  0  0  0  0
  188.8440  173.6890  141.9480 S   0  0  0  0  0  0  0  0  0  0  0  0
  190.4200  171.8990  143.3010 C   0  0  1  0  0  3  0  0  0  0  0  0
  189.0430  174.5450  143.4640 C   0  0  0  0  0  0  0  0  0  0  0  0
  186.3550  178.1070  147.8950 O   0  0  0  0  0  1  0  0  0  0  0  0
  188.8930  175.8630  145.1410 C   0  0  0  0  0  0  0  0  0  0  0  0
  190.7390  172.9220  144.2990 N   0  0  0  0  0  2  0  0  0  0  0  0
  190.1830  172.5040  141.9110 C   0  0  0  0  0  2  0  0  0  0  0  0
  186.0960  177.0310  147.0460 C   0  0  2  0  0  3  0  0  0  0  0  0
  187.5850  176.5470  143.1080 C   0  0  0  0  0  0  0  0  0  0  0  0
  189.7230  176.4960  147.2390 C   0  0  2  0  0  3  0  0  0  0  0  0
  191.5430  170.8880  143.2340 C   0  0  0  0  0  1  0  0  0  0  0  0
  187.3100  176.1080  146.9850 C   0  0  0  0  0  2  0  0  0  0  0  0
  188.1780  177.1080  141.9660 C   0  0  0  0  0  3  0  0  0  0  0  0
  185.5260  177.7230  142.5560 C   0  0  0  0  0  3  0  0  0  0  0  0
  186.1270  178.2580  141.4160 C   0  0  0  0  0  3  0  0  0  0  0  0
  185.6850  177.5460  145.6770 C   0  0  0  0  0  2  0  0  0  0  0  0
  189.8630  174.9880  145.4460 C   0  0  0  0  0  0  0  0  0  0  0  0
  188.5200  176.7290  146.2890 C   0  0  2  0  0  3  0  0  0  0  0  0
  189.9460  174.1040  144.4060 C   0  0  0  0  0  0  0  0  0  0  0  0
  191.9320  175.1910  146.7820 C   0  0  0  0  0  1  0  0  0  0  0  0
  188.3610  175.6360  143.9120 N   0  0  0  0  0  0  0  0  0  0  0  0
  1  6  1  0  0  0  0
  2  8  2  0  0  0  0
  4 22  2  0  0  0  0
  4 20  1  0  0  0  0
  5 27  1  6  0  0  0
  5 17  1  0  0  0  0
  6 23  1  0  0  0  0
  7  8  2  0  0  0  0
  8 10  1  0  0  0  0
  9 18  1  6  0  0  0
  9 13  1  0  0  0  0
 10 28  1  0  0  0  0
 10 26  2  0  0  0  0
 12 24  2  0  0  0  0
 12 25  1  0  0  0  0
 13 26  1  0  0  0  0
 14  8  1  0  0  0  0
 14  9  1  0  0  0  0
 15 11  1  1  0  0  0
 16  1  1  0  0  0  0
 16 28  1  0  0  0  0
 17  3  1  6  0  0  0
 19 15  1  0  0  0  0
 20 16  2  0  0  0  0
 21  1  2  0  0  0  0
 22 21  1  0  0  0  0
 23 15  1  0  0  0  0
 24  5  1  0  0  0  0
 25 19  1  1  0  0  0
 25 17  1  0  0  0  0
 26 24  1  0  0  0  0
 28 12  1  0  0  0  0
M  END
>  <MODEL>
1

>  <REMARK>
 VINA RESULT:      -8.2      0.000      0.000
  Name = 
  0 active torsions:
  status: ('A' for Active; 'I' for Inactive)
                            x       y       z     vdW  Elec       q    Type
                         _______ _______ _______ _____ _____    ______ ____

>  <TORSDO>
F 0

$$$$
=
 OpenBabel11112417343D

 28 32  0  0  1  0  0  0  0  0999 V2000
  191.2570  175.3480  142.3690 C   0  0  0  0  0  0  0  0  0  0  0  0
  188.4950  178.4920  141.1520 O   0  0  0  0  0  0  0  0  0  0  0  0
  188.9640  174.3390  147.6560 C   0  0  0  0  0  1  0  0  0  0  0  0
  189.6470  173.5940  140.8920 C   0  0  0  0  0  3  0  0  0  0  0  0
  188.3210  176.7580  146.9730 C   0  0  1  0  0  3  0  0  0  0  0  0
  192.1740  176.1730  143.1970 C   0  0  0  0  0  2  0  0  0  0  0  0
  187.2370  176.3930  140.8510 O   0  0  0  0  0  0  0  0  0  0  0  0
  187.5280  177.5320  141.7850 S   0  0  0  0  0  0  0  0  0  0  0  0
  186.1240  179.1700  143.4780 C   0  0  1  0  0  3  0  0  0  0  0  0
  188.1430  176.9730  143.3280 C   0  0  0  0  0  0  0  0  0  0  0  0
  193.1420  175.0380  146.6150 O   0  0  0  0  0  1  0  0  0  0  0  0
  189.2560  176.0810  144.9200 C   0  0  0  0  0  0  0  0  0  0  0  0
  186.4900  178.3230  144.6150 N   0  0  0  0  0  2  0  0  0  0  0  0
  185.9940  178.3670  142.1780 C   0  0  0  0  0  2  0  0  0  0  0  0
  192.7620  175.9530  145.6330 C   0  0  2  0  0  3  0  0  0  0  0  0
  189.8650  175.3070  142.6090 C   0  0  0  0  0  0  0  0  0  0  0  0
  189.4630  175.7140  147.2250 C   0  0  2  0  0  3  0  0  0  0  0  0
  184.8200  179.8780  143.7730 C   0  0  0  0  0  1  0  0  0  0  0  0
  191.4050  176.5600  145.9790 C   0  0  0  0  0  2  0  0  0  0  0  0
  189.0780  174.4140  141.8650 C   0  0  0  0  0  3  0  0  0  0  0  0
  191.8190  174.5210  141.3880 C   0  0  0  0  0  3  0  0  0  0  0  0
  191.0180  173.6520  140.6470 C   0  0  0  0  0  3  0  0  0  0  0  0
  192.7710  175.2770  144.2720 C   0  0  0  0  0  2  0  0  0  0  0  0
  188.2630  176.7680  145.5040 C   0  0  0  0  0  0  0  0  0  0  0  0
  190.2490  175.5640  145.8970 C   0  0  2  0  0  3  0  0  0  0  0  0
  187.5630  177.3870  144.5060 C   0  0  0  0  0  0  0  0  0  0  0  0
  186.9710  176.3900  147.5760 C   0  0  0  0  0  1  0  0  0  0  0  0
  189.2170  176.1690  143.5650 N   0  0  0  0  0  0  0  0  0  0  0  0
  1 16  1  0  0  0  0
  1  6  1  0  0  0  0
  2  8  2  0  0  0  0
  4 20  1  0  0  0  0
  5 17  1  0  0  0  0
  5 27  1  1  0  0  0
  6 23  1  0  0  0  0
  7  8  2  0  0  0  0
  8 14  1  0  0  0  0
  8 10  1  0  0  0  0
  9 18  1  1  0  0  0
  9 13  1  0  0  0  0
 10 28  1  0  0  0  0
 10 26  2  0  0  0  0
 12 24  2  0  0  0  0
 12 25  1  0  0  0  0
 14  9  1  0  0  0  0
 15 19  1  0  0  0  0
 15 11  1  1  0  0  0
 16 28  1  0  0  0  0
 17  3  1  6  0  0  0
 20 16  2  0  0  0  0
 21  1  2  0  0  0  0
 22  4  2  0  0  0  0
 22 21  1  0  0  0  0
 23 15  1  0  0  0  0
 24  5  1  0  0  0  0
 25 19  1  1  0  0  0
 25 17  1  0  0  0  0
 26 13  1  0  0  0  0
 26 24  1  0  0  0  0
 28 12  1  0  0  0  0
M  END
>  <MODEL>
2

>  <REMARK>
 VINA RESULT:      -7.9      2.467      5.429
  Name = 
  0 active torsions:
  status: ('A' for Active; 'I' for Inactive)
                            x       y       z     vdW  Elec       q    Type
                         _______ _______ _______ _____ _____    ______ ____

>  <TORSDO>
F 0

$$$$
=
 OpenBabel11112417343D

 28 32  0  0  1  0  0  0  0  0999 V2000
  189.0270  176.4470  145.0100 C   0  0  0  0  0  0  0  0  0  0  0  0
  189.2810  172.6560  142.8740 O   0  0  0  0  0  0  0  0  0  0  0  0
  194.7720  177.3000  145.7140 C   0  0  0  0  0  1  0  0  0  0  0  0
  188.7470  177.6520  142.4960 C   0  0  0  0  0  3  0  0  0  0  0  0
  194.3910  174.7520  145.4090 C   0  0  1  0  0  3  0  0  0  0  0  0
  189.1860  175.9280  146.3930 C   0  0  0  0  0  2  0  0  0  0  0  0
  189.8270  174.3710  141.1890 O   0  0  0  0  0  0  0  0  0  0  0  0
  190.3900  173.4080  142.1940 S   0  0  0  0  0  0  0  0  0  0  0  0
  192.4670  171.6250  142.3460 C   0  0  1  0  0  3  0  0  0  0  0  0
  191.3980  174.2150  143.3790 C   0  0  0  0  0  0  0  0  0  0  0  0
  191.6220  177.5230  148.7230 O   0  0  0  0  0  1  0  0  0  0  0  0
  192.2020  175.4660  144.9160 C   0  0  0  0  0  0  0  0  0  0  0  0
  193.2830  172.6200  143.0440 N   0  0  0  0  0  2  0  0  0  0  0  0
  191.4880  172.2710  141.3570 C   0  0  0  0  0  2  0  0  0  0  0  0
  190.9410  176.4700  148.1120 C   0  0  2  0  0  3  0  0  0  0  0  0
  189.9740  176.1780  143.9970 C   0  0  0  0  0  0  0  0  0  0  0  0
  194.0590  176.0500  146.2200 C   0  0  2  0  0  3  0  0  0  0  0  0
  193.3680  170.6550  141.6140 C   0  0  0  0  0  1  0  0  0  0  0  0
  191.9190  175.5900  147.3390 C   0  0  0  0  0  2  0  0  0  0  0  0
  189.8220  176.8000  142.7480 C   0  0  0  0  0  3  0  0  0  0  0  0
  187.9500  177.3030  144.7470 C   0  0  0  0  0  3  0  0  0  0  0  0
  187.8060  177.8990  143.4940 C   0  0  0  0  0  3  0  0  0  0  0  0
  189.8300  177.0200  147.2340 C   0  0  0  0  0  2  0  0  0  0  0  0
  193.1820  174.6130  144.5840 C   0  0  0  0  0  0  0  0  0  0  0  0
  192.5280  176.2760  146.1170 C   0  0  2  0  0  3  0  0  0  0  0  0
  192.6760  173.7710  143.6330 C   0  0  0  0  0  0  0  0  0  0  0  0
  195.6430  174.8370  144.5440 C   0  0  0  0  0  1  0  0  0  0  0  0
  191.0740  175.2660  144.1850 N   0  0  0  0  0  0  0  0  0  0  0  0
  1  6  1  0  0  0  0
  4 20  2  0  0  0  0
  4 22  1  0  0  0  0
  5 27  1  6  0  0  0
  5 17  1  0  0  0  0
  6 23  1  0  0  0  0
  7  8  2  0  0  0  0
  8  2  2  0  0  0  0
  8 10  1  0  0  0  0
  9 18  1  6  0  0  0
  9 13  1  0  0  0  0
 10 26  2  0  0  0  0
 10 28  1  0  0  0  0
 12 25  1  0  0  0  0
 13 26  1  0  0  0  0
 14  8  1  0  0  0  0
 14  9  1  0  0  0  0
 15 11  1  6  0  0  0
 16 28  1  0  0  0  0
 16  1  2  0  0  0  0
 17  3  1  6  0  0  0
 19 15  1  0  0  0  0
 20 16  1  0  0  0  0
 21  1  1  0  0  0  0
 22 21  2  0  0  0  0
 23 15  1  0  0  0  0
 24 12  2  0  0  0  0
 24  5  1  0  0  0  0
 25 17  1  0  0  0  0
 25 19  1  1  0  0  0
 26 24  1  0  0  0  0
 28 12  1  0  0  0  0
M  END
>  <MODEL>
3

>  <REMARK>
 VINA RESULT:      -7.8      2.289      3.380
  Name = 
  0 active torsions:
  status: ('A' for Active; 'I' for Inactive)
                            x       y       z     vdW  Elec       q    Type
                         _______ _______ _______ _____ _____    ______ ____

>  <TORSDO>
F 0

$$$$
=
 OpenBabel11112417343D

 28 32  0  0  1  0  0  0  0  0999 V2000
  188.0930  176.4160  145.2510 C   0  0  0  0  0  0  0  0  0  0  0  0
  187.6180  173.5370  142.0130 O   0  0  0  0  0  0  0  0  0  0  0  0
  193.8730  177.1660  144.7490 C   0  0  0  0  0  1  0  0  0  0  0  0
  187.2730  178.3650  143.4120 C   0  0  0  0  0  3  0  0  0  0  0  0
  193.2950  174.8460  143.7420 C   0  0  1  0  0  3  0  0  0  0  0  0
  188.5550  175.4790  146.3080 C   0  0  0  0  0  2  0  0  0  0  0  0
  187.8270  175.7230  140.8920 O   0  0  0  0  0  0  0  0  0  0  0  0
  188.5660  174.5030  141.3600 S   0  0  0  0  0  0  0  0  0  0  0  0
  190.5210  172.8310  140.4100 C   0  0  1  0  0  3  0  0  0  0  0  0
  189.8730  174.9100  142.4540 C   0  0  0  0  0  0  0  0  0  0  0  0
  191.5660  176.3010  148.3490 O   0  0  0  0  0  1  0  0  0  0  0  0
  191.0920  175.6150  144.0630 C   0  0  0  0  0  0  0  0  0  0  0  0
  191.5330  173.5690  141.1670 N   0  0  0  0  0  2  0  0  0  0  0  0
  189.3660  173.7340  139.9570 C   0  0  0  0  0  2  0  0  0  0  0  0
  190.7020  175.4840  147.6190 C   0  0  2  0  0  3  0  0  0  0  0  0
  188.7490  176.5210  144.0040 C   0  0  0  0  0  0  0  0  0  0  0  0
  193.2390  175.7990  144.9850 C   0  0  2  0  0  3  0  0  0  0  0  0
  191.1640  172.1800  139.2050 C   0  0  0  0  0  1  0  0  0  0  0  0
  191.4150  174.9350  146.3870 C   0  0  0  0  0  2  0  0  0  0  0  0
  188.3310  177.5100  143.1010 C   0  0  0  0  0  3  0  0  0  0  0  0
  187.0310  177.2780  145.5540 C   0  0  0  0  0  3  0  0  0  0  0  0
  186.6170  178.2450  144.6360 C   0  0  0  0  0  3  0  0  0  0  0  0
  189.4410  176.2570  147.2690 C   0  0  0  0  0  2  0  0  0  0  0  0
  191.9160  174.9470  143.2420 C   0  0  0  0  0  0  0  0  0  0  0  0
  191.7440  176.0000  145.3420 C   0  0  2  0  0  3  0  0  0  0  0  0
  191.1500  174.4460  142.2270 C   0  0  0  0  0  0  0  0  0  0  0  0
  194.3020  175.2470  142.6700 C   0  0  0  0  0  1  0  0  0  0  0  0
  189.8120  175.6300  143.6090 N   0  0  0  0  0  0  0  0  0  0  0  0
  1 21  1  0  0  0  0
  1  6  1  0  0  0  0
  4 22  1  0  0  0  0
  5 27  1  6  0  0  0
  5 17  1  0  0  0  0
  6 23  1  0  0  0  0
  7  8  2  0  0  0  0
  8  2  2  0  0  0  0
  8 10  1  0  0  0  0
  9 18  1  6  0  0  0
  9 13  1  0  0  0  0
 10 28  1  0  0  0  0
 12 25  1  0  0  0  0
 13 26  1  0  0  0  0
 14  9  1  0  0  0  0
 14  8  1  0  0  0  0
 15 11  1  6  0  0  0
 16  1  2  0  0  0  0
 17  3  1  6  0  0  0
 17 25  1  0  0  0  0
 19 15  1  0  0  0  0
 20  4  2  0  0  0  0
 20 16  1  0  0  0  0
 22 21  2  0  0  0  0
 23 15  1  0  0  0  0
 24  5  1  0  0  0  0
 24 12  2  0  0  0  0
 25 19  1  1  0  0  0
 26 10  2  0  0  0  0
 26 24  1  0  0  0  0
 28 16  1  0  0  0  0
 28 12  1  0  0  0  0
M  END
>  <MODEL>
4

>  <REMARK>
 VINA RESULT:      -7.8      2.309      3.286
  Name = 
  0 active torsions:
  status: ('A' for Active; 'I' for Inactive)
                            x       y       z     vdW  Elec       q    Type
                         _______ _______ _______ _____ _____    ______ ____

>  <TORSDO>
F 0

$$$$
=
 OpenBabel11112417343D

 28 32  0  0  1  0  0  0  0  0999 V2000
  190.8060  174.7430  144.0080 C   0  0  0  0  0  0  0  0  0  0  0  0
  188.4000  175.5850  147.5440 O   0  0  0  0  0  0  0  0  0  0  0  0
  187.4410  177.5410  140.1250 C   0  0  0  0  0  1  0  0  0  0  0  0
  192.4050  176.9080  144.7880 C   0  0  0  0  0  3  0  0  0  0  0  0
  185.9420  176.9050  142.1450 C   0  0  1  0  0  3  0  0  0  0  0  0
  190.0260  173.5930  143.4840 C   0  0  0  0  0  2  0  0  0  0  0  0
  189.6320  177.6750  147.1030 O   0  0  0  0  0  0  0  0  0  0  0  0
  188.3490  176.9290  146.8730 S   0  0  0  0  0  0  0  0  0  0  0  0
  185.6610  177.4710  146.8840 C   0  0  1  0  0  3  0  0  0  0  0  0
  187.9950  176.7470  145.1660 C   0  0  0  0  0  0  0  0  0  0  0  0
  189.0340  173.4860  139.8910 O   0  0  0  0  0  1  0  0  0  0  0  0
  188.0160  176.2920  143.0770 C   0  0  0  0  0  0  0  0  0  0  0  0
  185.6770  177.6220  145.4280 N   0  0  0  0  0  2  0  0  0  0  0  0
  186.9900  177.8950  147.5230 C   0  0  0  0  0  2  0  0  0  0  0  0
  188.8690  173.3240  141.2660 C   0  0  2  0  0  3  0  0  0  0  0  0
  190.2080  175.9960  144.2710 C   0  0  0  0  0  0  0  0  0  0  0  0
  186.9130  176.4200  141.0140 C   0  0  2  0  0  3  0  0  0  0  0  0
  184.5310  178.2910  147.4670 C   0  0  0  0  0  1  0  0  0  0  0  0
  187.7600  174.2420  141.7730 C   0  0  0  0  0  2  0  0  0  0  0  0
  191.0270  177.0700  144.6500 C   0  0  0  0  0  3  0  0  0  0  0  0
  192.1920  174.5900  144.1510 C   0  0  0  0  0  3  0  0  0  0  0  0
  192.9880  175.6660  144.5450 C   0  0  0  0  0  3  0  0  0  0  0  0
  190.1940  173.5620  141.9720 C   0  0  0  0  0  2  0  0  0  0  0  0
  186.8280  176.8660  143.3170 C   0  0  0  0  0  0  0  0  0  0  0  0
  188.1140  175.7270  141.7070 C   0  0  2  0  0  3  0  0  0  0  0  0
  186.7720  177.1250  144.6590 C   0  0  0  0  0  0  0  0  0  0  0  0
  185.3610  178.2990  141.9380 C   0  0  0  0  0  1  0  0  0  0  0  0
  188.7830  176.2060  144.1950 N   0  0  0  0  0  0  0  0  0  0  0  0
  1 21  2  0  0  0  0
  1 16  1  0  0  0  0
  5 27  1  6  0  0  0
  5 24  1  0  0  0  0
  6  1  1  0  0  0  0
  8  7  2  0  0  0  0
  8 14  1  0  0  0  0
  8  2  2  0  0  0  0
  9 18  1  1  0  0  0
  9 14  1  0  0  0  0
 10  8  1  0  0  0  0
 12 24  2  0  0  0  0
 12 28  1  0  0  0  0
 13  9  1  0  0  0  0
 15 11  1  6  0  0  0
 15 19  1  0  0  0  0
 15 23  1  0  0  0  0
 16 20  2  0  0  0  0
 17  3  1  1  0  0  0
 17 25  1  0  0  0  0
 17  5  1  0  0  0  0
 20  4  1  0  0  0  0
 21 22  1  0  0  0  0
 22  4  2  0  0  0  0
 23  6  1  0  0  0  0
 24 26  1  0  0  0  0
 25 19  1  1  0  0  0
 25 12  1  0  0  0  0
 26 10  2  0  0  0  0
 26 13  1  0  0  0  0
 28 16  1  0  0  0  0
 28 10  1  0  0  0  0
M  END
>  <MODEL>
5

>  <REMARK>
 VINA RESULT:      -7.8      2.175      6.545
  Name = 
  0 active torsions:
  status: ('A' for Active; 'I' for Inactive)
                            x       y       z     vdW  Elec       q    Type
                         _______ _______ _______ _____ _____    ______ ____

>  <TORSDO>
F 0

$$$$
=
 OpenBabel11112417343D

 28 32  0  0  1  0  0  0  0  0999 V2000
  186.1730  178.1550  144.2970 C   0  0  0  0  0  0  0  0  0  0  0  0
  189.8150  178.2910  146.6880 O   0  0  0  0  0  0  0  0  0  0  0  0
  187.4410  173.3120  141.2700 C   0  0  0  0  0  1  0  0  0  0  0  0
  184.9640  176.9390  146.5130 C   0  0  0  0  0  3  0  0  0  0  0  0
  189.6830  174.3450  142.0680 C   0  0  1  0  0  3  0  0  0  0  0  0
  186.7060  178.7730  143.0550 C   0  0  0  0  0  2  0  0  0  0  0  0
  188.4220  176.5560  147.7520 O   0  0  0  0  0  0  0  0  0  0  0  0
  189.5170  176.8200  146.7580 S   0  0  0  0  0  0  0  0  0  0  0  0
  191.9270  175.7150  146.0620 C   0  0  1  0  0  3  0  0  0  0  0  0
  189.1190  176.2000  145.1680 C   0  0  0  0  0  0  0  0  0  0  0  0
  186.0800  177.1660  139.7480 O   0  0  0  0  0  1  0  0  0  0  0  0
  188.2320  175.7540  143.2750 C   0  0  0  0  0  0  0  0  0  0  0  0
  191.2880  174.9900  144.9620 N   0  0  0  0  0  2  0  0  0  0  0  0
  190.9790  175.9140  147.2510 C   0  0  0  0  0  2  0  0  0  0  0  0
  186.8210  177.8320  140.7250 C   0  0  2  0  0  3  0  0  0  0  0  0
  186.7710  177.0170  144.8830 C   0  0  0  0  0  0  0  0  0  0  0  0
  188.3460  174.5390  141.2740 C   0  0  2  0  0  3  0  0  0  0  0  0
  193.1610  174.9640  146.5130 C   0  0  0  0  0  1  0  0  0  0  0  0
  187.9980  176.9700  141.1690 C   0  0  0  0  0  2  0  0  0  0  0  0
  186.1450  176.4160  145.9850 C   0  0  0  0  0  3  0  0  0  0  0  0
  184.9880  178.6730  144.8350 C   0  0  0  0  0  3  0  0  0  0  0  0
  184.3880  178.0730  145.9430 C   0  0  0  0  0  3  0  0  0  0  0  0
  185.9130  178.2220  141.8790 C   0  0  0  0  0  2  0  0  0  0  0  0
  189.3820  175.0660  143.3140 C   0  0  0  0  0  0  0  0  0  0  0  0
  187.5850  175.7160  141.9380 C   0  0  2  0  0  3  0  0  0  0  0  0
  189.9920  175.3720  144.4990 C   0  0  0  0  0  0  0  0  0  0  0  0
  190.0590  172.8940  142.3470 C   0  0  0  0  0  1  0  0  0  0  0  0
  188.0170  176.4660  144.4120 N   0  0  0  0  0  0  0  0  0  0  0  0
  1 21  2  0  0  0  0
  1 16  1  0  0  0  0
  2  8  2  0  0  0  0
  5 27  1  1  0  0  0
  5 24  1  0  0  0  0
  6  1  1  0  0  0  0
  8 14  1  0  0  0  0
  8  7  2  0  0  0  0
  9 18  1  1  0  0  0
  9 14  1  0  0  0  0
 10  8  1  0  0  0  0
 12 24  2  0  0  0  0
 12 28  1  0  0  0  0
 13  9  1  0  0  0  0
 15 11  1  6  0  0  0
 15 19  1  0  0  0  0
 15 23  1  0  0  0  0
 16 20  2  0  0  0  0
 17  3  1  1  0  0  0
 17 25  1  0  0  0  0
 17  5  1  0  0  0  0
 20  4  1  0  0  0  0
 21 22  1  0  0  0  0
 22  4  2  0  0  0  0
 23  6  1  0  0  0  0
 24 26  1  0  0  0  0
 25 19  1  6  0  0  0
 25 12  1  0  0  0  0
 26 13  1  0  0  0  0
 26 10  2  0  0  0  0
 28 16  1  0  0  0  0
 28 10  1  0  0  0  0
M  END
>  <MODEL>
6

>  <REMARK>
 VINA RESULT:      -7.8      2.082      4.999
  Name = 
  0 active torsions:
  status: ('A' for Active; 'I' for Inactive)
                            x       y       z     vdW  Elec       q    Type
                         _______ _______ _______ _____ _____    ______ ____

>  <TORSDO>
F 0

$$$$
=
 OpenBabel11112417343D

 28 32  0  0  1  0  0  0  0  0999 V2000
  191.3890  173.7770  142.2280 C   0  0  0  0  0  0  0  0  0  0  0  0
  188.0030  176.1510  140.8520 O   0  0  0  0  0  0  0  0  0  0  0  0
  191.4520  175.6890  147.7560 C   0  0  0  0  0  1  0  0  0  0  0  0
  189.5660  171.6730  142.5510 C   0  0  0  0  0  3  0  0  0  0  0  0
  190.3000  177.5090  146.3120 C   0  0  1  0  0  3  0  0  0  0  0  0
  192.4430  174.8170  142.1160 C   0  0  0  0  0  2  0  0  0  0  0  0
  186.9980  174.2920  142.1240 O   0  0  0  0  0  0  0  0  0  0  0  0
  187.4810  175.7130  142.1910 S   0  0  0  0  0  0  0  0  0  0  0  0
  186.6450  178.0850  143.2830 C   0  0  1  0  0  3  0  0  0  0  0  0
  188.7070  175.9290  143.4250 C   0  0  0  0  0  0  0  0  0  0  0  0
  194.7850  175.4200  144.9550 O   0  0  0  0  0  1  0  0  0  0  0  0
  190.4490  175.8360  144.6610 C   0  0  0  0  0  0  0  0  0  0  0  0
  187.5230  177.8740  144.4360 N   0  0  0  0  0  2  0  0  0  0  0  0
  186.1260  176.7630  142.7030 C   0  0  0  0  0  2  0  0  0  0  0  0
  193.9450  175.7670  143.8970 C   0  0  2  0  0  3  0  0  0  0  0  0
  190.2130  173.9800  142.9840 C   0  0  0  0  0  0  0  0  0  0  0  0
  191.5710  176.6280  146.5600 C   0  0  2  0  0  3  0  0  0  0  0  0
  185.4780  178.9580  143.6880 C   0  0  0  0  0  1  0  0  0  0  0  0
  192.7620  176.5810  144.4120 C   0  0  0  0  0  2  0  0  0  0  0  0
  189.3180  172.9110  143.1430 C   0  0  0  0  0  3  0  0  0  0  0  0
  191.6290  172.5300  141.6350 C   0  0  0  0  0  3  0  0  0  0  0  0
  190.7190  171.4830  141.7900 C   0  0  0  0  0  3  0  0  0  0  0  0
  193.5140  174.5140  143.1530 C   0  0  0  0  0  2  0  0  0  0  0  0
  189.6800  176.8050  145.1800 C   0  0  0  0  0  0  0  0  0  0  0  0
  191.7970  175.7790  145.2830 C   0  0  2  0  0  3  0  0  0  0  0  0
  188.5780  176.9150  144.3780 C   0  0  0  0  0  0  0  0  0  0  0  0
  189.3420  177.6040  147.4940 C   0  0  0  0  0  1  0  0  0  0  0  0
  189.8810  175.2530  143.5740 N   0  0  0  0  0  0  0  0  0  0  0  0
  1 16  1  0  0  0  0
  2  8  2  0  0  0  0
  4 20  1  0  0  0  0
  5 17  1  0  0  0  0
  5 27  1  1  0  0  0
  6  1  1  0  0  0  0
  6 23  1  0  0  0  0
  7  8  2  0  0  0  0
  8 14  1  0  0  0  0
  8 10  1  0  0  0  0
  9 18  1  1  0  0  0
  9 13  1  0  0  0  0
 10 28  1  0  0  0  0
 10 26  2  0  0  0  0
 12 24  2  0  0  0  0
 12 25  1  0  0  0  0
 14  9  1  0  0  0  0
 15 19  1  0  0  0  0
 15 11  1  1  0  0  0
 16 20  2  0  0  0  0
 16 28  1  0  0  0  0
 17  3  1  1  0  0  0
 21 22  1  0  0  0  0
 21  1  2  0  0  0  0
 22  4  2  0  0  0  0
 23 15  1  0  0  0  0
 24  5  1  0  0  0  0
 25 19  1  6  0  0  0
 25 17  1  0  0  0  0
 26 13  1  0  0  0  0
 26 24  1  0  0  0  0
 28 12  1  0  0  0  0
M  END
>  <MODEL>
7

>  <REMARK>
 VINA RESULT:      -7.6      2.318      5.631
  Name = 
  0 active torsions:
  status: ('A' for Active; 'I' for Inactive)
                            x       y       z     vdW  Elec       q    Type
                         _______ _______ _______ _____ _____    ______ ____

>  <TORSDO>
F 0

$$$$
=
 OpenBabel11112417343D

 28 32  0  0  1  0  0  0  0  0999 V2000
  188.7360  176.5510  145.4350 C   0  0  0  0  0  0  0  0  0  0  0  0
  193.0920  176.7170  145.5030 O   0  0  0  0  0  0  0  0  0  0  0  0
  188.1910  172.9870  140.8280 C   0  0  0  0  0  1  0  0  0  0  0  0
  188.9480  174.5970  147.4320 C   0  0  0  0  0  3  0  0  0  0  0  0
  190.4940  174.1660  140.6370 C   0  0  1  0  0  3  0  0  0  0  0  0
  188.4970  177.5600  144.3710 C   0  0  0  0  0  2  0  0  0  0  0  0
  192.5250  174.5410  146.5130 O   0  0  0  0  0  0  0  0  0  0  0  0
  192.8950  175.2510  145.2430 S   0  0  0  0  0  0  0  0  0  0  0  0
  194.5430  174.8260  143.0930 C   0  0  1  0  0  3  0  0  0  0  0  0
  191.6990  175.0080  143.9850 C   0  0  0  0  0  0  0  0  0  0  0  0
  186.1810  176.7910  141.5510 O   0  0  0  0  0  1  0  0  0  0  0  0
  189.9250  174.9200  142.7940 C   0  0  0  0  0  0  0  0  0  0  0  0
  193.4140  174.3110  142.3170 N   0  0  0  0  0  2  0  0  0  0  0  0
  194.3980  174.5300  144.5910 C   0  0  0  0  0  2  0  0  0  0  0  0
  187.3290  177.3010  142.1580 C   0  0  2  0  0  3  0  0  0  0  0  0
  189.5690  175.4280  145.2290 C   0  0  0  0  0  0  0  0  0  0  0  0
  188.9390  174.3150  140.7560 C   0  0  2  0  0  3  0  0  0  0  0  0
  195.8310  174.2220  142.5760 C   0  0  0  0  0  1  0  0  0  0  0  0
  188.5660  176.5820  141.6280 C   0  0  0  0  0  2  0  0  0  0  0  0
  189.6530  174.4550  146.2370 C   0  0  0  0  0  3  0  0  0  0  0  0
  188.0340  176.6850  146.6400 C   0  0  0  0  0  3  0  0  0  0  0  0
  188.1430  175.7160  147.6380 C   0  0  0  0  0  3  0  0  0  0  0  0
  187.1960  177.2020  143.6680 C   0  0  0  0  0  2  0  0  0  0  0  0
  190.9160  174.4680  142.0130 C   0  0  0  0  0  0  0  0  0  0  0  0
  188.6530  175.1160  142.0520 C   0  0  2  0  0  3  0  0  0  0  0  0
  192.0720  174.5580  142.7380 C   0  0  0  0  0  0  0  0  0  0  0  0
  190.9770  172.7870  140.2020 C   0  0  0  0  0  1  0  0  0  0  0  0
  190.3600  175.2570  144.0360 N   0  0  0  0  0  0  0  0  0  0  0  0
  1 21  1  0  0  0  0
  4 22  1  0  0  0  0
  5 27  1  1  0  0  0
  5 17  1  0  0  0  0
  5 24  1  0  0  0  0
  6  1  1  0  0  0  0
  8  2  2  0  0  0  0
  8  7  2  0  0  0  0
  9 18  1  6  0  0  0
  9 14  1  0  0  0  0
 10 28  1  0  0  0  0
 10  8  1  0  0  0  0
 12 28  1  0  0  0  0
 13 26  1  0  0  0  0
 13  9  1  0  0  0  0
 14  8  1  0  0  0  0
 15 11  1  6  0  0  0
 15 23  1  0  0  0  0
 16  1  2  0  0  0  0
 16 20  1  0  0  0  0
 17  3  1  1  0  0  0
 17 25  1  0  0  0  0
 19 15  1  0  0  0  0
 20  4  2  0  0  0  0
 21 22  2  0  0  0  0
 23  6  1  0  0  0  0
 24 26  1  0  0  0  0
 24 12  2  0  0  0  0
 25 19  1  6  0  0  0
 25 12  1  0  0  0  0
 26 10  2  0  0  0  0
 28 16  1  0  0  0  0
M  END
>  <MODEL>
8

>  <REMARK>
 VINA RESULT:      -7.4      3.064      5.294
  Name = 
  0 active torsions:
  status: ('A' for Active; 'I' for Inactive)
                            x       y       z     vdW  Elec       q    Type
                         _______ _______ _______ _____ _____    ______ ____

>  <TORSDO>
F 0

$$$$
=
 OpenBabel11112417343D

 28 32  0  0  1  0  0  0  0  0999 V2000
  190.2580  176.9710  145.4340 C   0  0  0  0  0  0  0  0  0  0  0  0
  194.3090  176.6760  143.8510 O   0  0  0  0  0  0  0  0  0  0  0  0
  187.8160  172.9020  142.0130 C   0  0  0  0  0  1  0  0  0  0  0  0
  191.1250  175.2910  147.5020 C   0  0  0  0  0  3  0  0  0  0  0  0
  189.9240  173.7900  140.7890 C   0  0  1  0  0  3  0  0  0  0  0  0
  189.6790  177.8480  144.3840 C   0  0  0  0  0  2  0  0  0  0  0  0
  194.0680  174.7280  145.3430 O   0  0  0  0  0  0  0  0  0  0  0  0
  193.9570  175.2180  143.9280 S   0  0  0  0  0  0  0  0  0  0  0  0
  194.6320  174.3340  141.4220 C   0  0  1  0  0  3  0  0  0  0  0  0
  192.3600  174.9390  143.2630 C   0  0  0  0  0  0  0  0  0  0  0  0
  186.4240  176.9620  142.7930 O   0  0  0  0  0  1  0  0  0  0  0  0
  190.2630  174.8830  142.8480 C   0  0  0  0  0  0  0  0  0  0  0  0
  193.2680  173.8450  141.2160 N   0  0  0  0  0  2  0  0  0  0  0  0
  195.0580  174.2590  142.8930 C   0  0  0  0  0  2  0  0  0  0  0  0
  187.7400  177.4230  142.8380 C   0  0  2  0  0  3  0  0  0  0  0  0
  190.8920  175.7480  145.1210 C   0  0  0  0  0  0  0  0  0  0  0  0
  188.5430  174.1200  141.4510 C   0  0  2  0  0  3  0  0  0  0  0  0
  195.5920  173.5310  140.5710 C   0  0  0  0  0  1  0  0  0  0  0  0
  188.6430  176.5100  142.0130 C   0  0  0  0  0  2  0  0  0  0  0  0
  191.3100  174.9160  146.1710 C   0  0  0  0  0  3  0  0  0  0  0  0
  190.0780  177.3400  146.7730 C   0  0  0  0  0  3  0  0  0  0  0  0
  190.5150  176.5070  147.8040 C   0  0  0  0  0  3  0  0  0  0  0  0
  188.1920  177.5410  144.2840 C   0  0  0  0  0  2  0  0  0  0  0  0
  190.8560  174.2260  141.8400 C   0  0  0  0  0  0  0  0  0  0  0  0
  188.8150  175.1140  142.6100 C   0  0  2  0  0  3  0  0  0  0  0  0
  192.2040  174.2890  142.0590 C   0  0  0  0  0  0  0  0  0  0  0  0
  190.1350  172.3220  140.4400 C   0  0  0  0  0  1  0  0  0  0  0  0
  191.1570  175.3350  143.7660 N   0  0  0  0  0  0  0  0  0  0  0  0
  1 21  1  0  0  0  0
  2  8  2  0  0  0  0
  4 22  1  0  0  0  0
  5 27  1  1  0  0  0
  5 17  1  0  0  0  0
  5 24  1  0  0  0  0
  6  1  1  0  0  0  0
  8  7  2  0  0  0  0
  9 18  1  6  0  0  0
  9 14  1  0  0  0  0
 10 28  1  0  0  0  0
 10  8  1  0  0  0  0
 12 28  1  0  0  0  0
 13  9  1  0  0  0  0
 13 26  1  0  0  0  0
 14  8  1  0  0  0  0
 15 11  1  1  0  0  0
 15 23  1  0  0  0  0
 16  1  2  0  0  0  0
 16 20  1  0  0  0  0
 17  3  1  1  0  0  0
 17 25  1  0  0  0  0
 19 15  1  0  0  0  0
 20  4  2  0  0  0  0
 21 22  2  0  0  0  0
 23  6  1  0  0  0  0
 24 26  1  0  0  0  0
 24 12  2  0  0  0  0
 25 19  1  6  0  0  0
 25 12  1  0  0  0  0
 26 10  2  0  0  0  0
 28 16  1  0  0  0  0
M  END
>  <MODEL>
9

>  <REMARK>
 VINA RESULT:      -7.2      3.236      5.460
  Name = 
  0 active torsions:
  status: ('A' for Active; 'I' for Inactive)
                            x       y       z     vdW  Elec       q    Type
                         _______ _______ _______ _____ _____    ______ ____

>  <TORSDO>
F 0

$$$$
