=
 OpenBabel11112417063D

 31 35  0  0  1  0  0  0  0  0999 V2000
  194.5960  176.0210  144.7980 C   0  0  0  0  0  0  0  0  0  0  0  0
  191.2560  176.8400  143.1670 C   0  0  2  0  0  3  0  0  0  0  0  0
  190.7410  175.5970  142.4630 C   0  0  0  0  0  0  0  0  0  0  0  0
  188.4590  176.0860  147.6150 O   0  0  0  0  0  0  0  0  0  0  0  0
  187.7670  176.7840  146.8230 C   0  0  0  0  0  0  0  0  0  0  0  0
  191.0710  173.3690  141.5500 C   0  0  0  0  0  0  0  0  0  0  0  0
  192.3040  176.5310  144.2030 C   0  0  0  0  0  0  0  0  0  0  0  0
  194.2050  175.8030  146.1230 C   0  0  0  0  0  3  0  0  0  0  0  0
  191.5490  174.4630  142.2740 C   0  0  0  0  0  3  0  0  0  0  0  0
  189.6660  177.0680  145.1380 C   0  0  0  0  0  0  0  0  0  0  0  0
  195.9280  175.8740  144.4340 O   0  0  0  0  0  1  0  0  0  0  0  0
  188.6410  176.8020  142.0110 N   0  0  0  0  0  0  0  0  0  0  0  0
  191.8510  172.2740  141.3850 F   0  0  0  0  0  0  0  0  0  0  0  0
  190.5480  176.5150  145.9220 N   0  0  0  0  0  0  0  0  0  0  0  0
  190.0930  177.6440  143.7990 C   0  0  2  0  0  3  0  0  0  0  0  0
  188.3210  177.2710  145.5950 N   0  0  0  0  0  2  0  0  0  0  0  0
  193.6460  176.3790  143.8370 C   0  0  0  0  0  3  0  0  0  0  0  0
  189.7940  173.4070  140.9840 C   0  0  0  0  0  3  0  0  0  0  0  0
  191.9140  176.3240  145.5370 C   0  0  0  0  0  0  0  0  0  0  0  0
  192.8650  175.9540  146.4920 C   0  0  0  0  0  3  0  0  0  0  0  0
  188.9290  177.7560  142.8460 C   0  0  0  0  0  3  0  0  0  0  0  0
  189.4600  175.6330  141.8800 C   0  0  0  0  0  0  0  0  0  0  0  0
  188.9910  174.5400  141.1440 C   0  0  0  0  0  3  0  0  0  0  0  0
  184.5860  178.7320  145.4220 N   0  0  0  0  0  0  0  0  0  0  0  0
  185.3950  176.5360  146.0940 C   0  0  0  0  0  2  0  0  0  0  0  0
  186.6810  179.1750  148.3170 O   0  0  0  0  0  0  0  0  0  0  0  0
  184.4680  179.6340  144.2910 C   0  0  0  0  0  1  0  0  0  0  0  0
  185.2130  177.5090  144.9300 C   0  0  0  0  0  2  0  0  0  0  0  0
  186.1590  178.5900  147.3330 C   0  0  0  0  0  0  0  0  0  0  0  0
  186.3440  177.1080  147.1520 C   0  0  2  0  0  3  0  0  0  0  0  0
  185.4520  179.3480  146.3450 N   0  0  0  0  0  2  0  0  0  0  0  0
  1  8  1  0  0  0  0
  2  3  1  1  0  0  0
  2 15  1  0  0  0  0
  2  7  1  0  0  0  0
  5  4  2  0  0  0  0
  6  9  2  0  0  0  0
  7 19  2  0  0  0  0
  8 20  2  0  0  0  0
  9  3  1  0  0  0  0
 10 16  1  0  0  0  0
 10 14  2  0  0  0  0
 11  1  1  0  0  0  0
 12 21  2  0  0  0  0
 13  6  1  0  0  0  0
 15 21  1  6  0  0  0
 15 10  1  0  0  0  0
 16  5  1  0  0  0  0
 17  7  1  0  0  0  0
 17  1  2  0  0  0  0
 18 23  2  0  0  0  0
 18  6  1  0  0  0  0
 19 14  1  0  0  0  0
 19 20  1  0  0  0  0
 22 12  1  0  0  0  0
 22  3  2  0  0  0  0
 23 22  1  0  0  0  0
 24 31  1  0  0  0  0
 25 30  1  0  0  0  0
 27 24  1  0  0  0  0
 28 24  1  0  0  0  0
 28 25  1  0  0  0  0
 29 26  2  0  0  0  0
 30  5  1  6  0  0  0
 30 29  1  0  0  0  0
 31 29  1  0  0  0  0
M  END
>  <MODEL>
1

>  <REMARK>
 VINA RESULT:      -9.0      0.000      0.000
  Name = 
  1 active torsions:
  status: ('A' for Active; 'I' for Inactive)
    1  A    between atoms: C_5  and  C_30
                            x       y       z     vdW  Elec       q    Type
                         _______ _______ _______ _____ _____    ______ ____

>  <TORSDO>
F 1

$$$$
=
 OpenBabel11112417063D

 31 35  0  0  1  0  0  0  0  0999 V2000
  185.8750  178.2720  140.8920 C   0  0  0  0  0  0  0  0  0  0  0  0
  188.4560  178.1460  143.6870 C   0  0  2  0  0  3  0  0  0  0  0  0
  187.8160  177.5180  144.9110 C   0  0  0  0  0  0  0  0  0  0  0  0
  190.6970  173.6620  141.9410 O   0  0  0  0  0  0  0  0  0  0  0  0
  191.5150  174.2450  142.7050 C   0  0  0  0  0  0  0  0  0  0  0  0
  185.8650  176.7910  146.1650 C   0  0  0  0  0  0  0  0  0  0  0  0
  187.7080  177.8410  142.4160 C   0  0  0  0  0  0  0  0  0  0  0  0
  186.2410  177.1560  140.1340 C   0  0  0  0  0  3  0  0  0  0  0  0
  186.4310  177.2950  144.9920 C   0  0  0  0  0  3  0  0  0  0  0  0
  190.0830  176.3500  142.9190 C   0  0  0  0  0  0  0  0  0  0  0  0
  184.7830  179.0410  140.5130 O   0  0  0  0  0  1  0  0  0  0  0  0
  190.0260  177.5410  145.9980 N   0  0  0  0  0  0  0  0  0  0  0  0
  184.5310  176.5650  146.2300 F   0  0  0  0  0  0  0  0  0  0  0  0
  189.2330  175.9570  142.0130 N   0  0  0  0  0  0  0  0  0  0  0  0
  189.9390  177.7230  143.5540 C   0  0  2  0  0  3  0  0  0  0  0  0
  191.2410  175.5560  143.2140 N   0  0  0  0  0  2  0  0  0  0  0  0
  186.6040  178.6130  142.0350 C   0  0  0  0  0  3  0  0  0  0  0  0
  186.6710  176.5320  147.2770 C   0  0  0  0  0  3  0  0  0  0  0  0
  188.0820  176.7270  141.6470 C   0  0  0  0  0  0  0  0  0  0  0  0
  187.3430  176.3830  140.5110 C   0  0  0  0  0  3  0  0  0  0  0  0
  190.6460  177.7950  144.8840 C   0  0  0  0  0  3  0  0  0  0  0  0
  188.6200  177.2650  146.0400 C   0  0  0  0  0  0  0  0  0  0  0  0
  188.0460  176.7740  147.2170 C   0  0  0  0  0  3  0  0  0  0  0  0
  194.5730  174.5460  145.2410 N   0  0  0  0  0  0  0  0  0  0  0  0
  192.7290  173.1080  144.5640 C   0  0  0  0  0  2  0  0  0  0  0  0
  194.3070  174.7230  141.6540 O   0  0  0  0  0  0  0  0  0  0  0  0
  194.9390  175.6270  146.1380 C   0  0  0  0  0  1  0  0  0  0  0  0
  193.1760  174.2200  145.5100 C   0  0  0  0  0  2  0  0  0  0  0  0
  193.9740  174.4520  142.8370 C   0  0  0  0  0  0  0  0  0  0  0  0
  192.7880  173.5670  143.1020 C   0  0  2  0  0  3  0  0  0  0  0  0
  194.6790  175.0510  143.9310 N   0  0  0  0  0  2  0  0  0  0  0  0
  1 17  1  0  0  0  0
  2  7  1  6  0  0  0
  2  3  1  0  0  0  0
  3  9  2  0  0  0  0
  3 22  1  0  0  0  0
  4  5  2  0  0  0  0
  5 16  1  0  0  0  0
  6 13  1  0  0  0  0
  6 18  2  0  0  0  0
  8 20  1  0  0  0  0
  8  1  2  0  0  0  0
  9  6  1  0  0  0  0
 10 16  1  0  0  0  0
 10 15  1  0  0  0  0
 11  1  1  0  0  0  0
 12 22  1  0  0  0  0
 14 10  2  0  0  0  0
 15  2  1  0  0  0  0
 15 21  1  1  0  0  0
 17  7  2  0  0  0  0
 19 14  1  0  0  0  0
 19  7  1  0  0  0  0
 20 19  2  0  0  0  0
 21 12  2  0  0  0  0
 22 23  2  0  0  0  0
 23 18  1  0  0  0  0
 24 28  1  0  0  0  0
 24 27  1  0  0  0  0
 25 28  1  0  0  0  0
 26 29  2  0  0  0  0
 29 30  1  0  0  0  0
 29 31  1  0  0  0  0
 30  5  1  1  0  0  0
 30 25  1  0  0  0  0
 31 24  1  0  0  0  0
M  END
>  <MODEL>
2

>  <REMARK>
 VINA RESULT:      -8.4      3.332      7.643
  Name = 
  1 active torsions:
  status: ('A' for Active; 'I' for Inactive)
    1  A    between atoms: C_5  and  C_30
                            x       y       z     vdW  Elec       q    Type
                         _______ _______ _______ _____ _____    ______ ____

>  <TORSDO>
F 1

$$$$
=
 OpenBabel11112417063D

 31 35  0  0  1  0  0  0  0  0999 V2000
  194.0240  170.3120  144.4380 C   0  0  0  0  0  0  0  0  0  0  0  0
  194.4980  173.9230  145.5420 C   0  0  2  0  0  3  0  0  0  0  0  0
  195.2020  174.6820  144.4330 C   0  0  0  0  0  0  0  0  0  0  0  0
  189.6010  175.4050  144.1300 O   0  0  0  0  0  0  0  0  0  0  0  0
  190.0510  176.2500  144.9520 C   0  0  0  0  0  0  0  0  0  0  0  0
  196.4900  174.7450  142.3720 C   0  0  0  0  0  0  0  0  0  0  0  0
  193.8600  172.6460  145.0630 C   0  0  0  0  0  0  0  0  0  0  0  0
  192.6900  170.3280  144.0190 C   0  0  0  0  0  3  0  0  0  0  0  0
  195.7780  174.0240  143.3330 C   0  0  0  0  0  3  0  0  0  0  0  0
  192.1450  174.8840  145.4760 C   0  0  0  0  0  0  0  0  0  0  0  0
  194.7680  169.1440  144.3350 O   0  0  0  0  0  1  0  0  0  0  0  0
  194.8560  176.7540  145.7180 N   0  0  0  0  0  0  0  0  0  0  0  0
  197.0300  174.1040  141.3080 F   0  0  0  0  0  0  0  0  0  0  0  0
  191.7350  173.8510  144.7960 N   0  0  0  0  0  0  0  0  0  0  0  0
  193.4500  174.8160  146.2510 C   0  0  2  0  0  3  0  0  0  0  0  0
  191.3000  176.0350  145.6200 N   0  0  0  0  0  2  0  0  0  0  0  0
  194.6110  171.4710  144.9550 C   0  0  0  0  0  3  0  0  0  0  0  0
  196.6570  176.1250  142.5140 C   0  0  0  0  0  3  0  0  0  0  0  0
  192.5160  172.6590  144.6520 C   0  0  0  0  0  0  0  0  0  0  0  0
  191.9370  171.5020  144.1250 C   0  0  0  0  0  3  0  0  0  0  0  0
  194.0050  176.1920  146.5240 C   0  0  0  0  0  3  0  0  0  0  0  0
  195.3850  176.0710  144.5740 C   0  0  0  0  0  0  0  0  0  0  0  0
  196.1100  176.7870  143.6160 C   0  0  0  0  0  3  0  0  0  0  0  0
  186.4530  177.5490  146.0670 N   0  0  0  0  0  0  0  0  0  0  0  0
  188.8060  177.5320  146.6920 C   0  0  0  0  0  2  0  0  0  0  0  0
  188.3900  177.9110  143.0520 O   0  0  0  0  0  0  0  0  0  0  0  0
  185.2030  176.8250  146.2120 C   0  0  0  0  0  1  0  0  0  0  0  0
  187.4590  176.8290  146.8420 C   0  0  0  0  0  2  0  0  0  0  0  0
  188.1520  177.6740  144.2650 C   0  0  0  0  0  0  0  0  0  0  0  0
  189.2870  177.5050  145.2370 C   0  0  2  0  0  3  0  0  0  0  0  0
  186.8010  177.4900  144.7030 N   0  0  0  0  0  2  0  0  0  0  0  0
  1 17  1  0  0  0  0
  2  3  1  6  0  0  0
  2 15  1  0  0  0  0
  3 22  1  0  0  0  0
  4  5  2  0  0  0  0
  5 16  1  0  0  0  0
  6 18  2  0  0  0  0
  6  9  1  0  0  0  0
  7  2  1  0  0  0  0
  8 20  1  0  0  0  0
  8  1  2  0  0  0  0
  9  3  2  0  0  0  0
 10 16  1  0  0  0  0
 10 15  1  0  0  0  0
 11  1  1  0  0  0  0
 12 21  2  0  0  0  0
 13  6  1  0  0  0  0
 14 10  2  0  0  0  0
 15 21  1  6  0  0  0
 17  7  2  0  0  0  0
 18 23  1  0  0  0  0
 19 14  1  0  0  0  0
 19  7  1  0  0  0  0
 20 19  2  0  0  0  0
 22 12  1  0  0  0  0
 23 22  2  0  0  0  0
 24 27  1  0  0  0  0
 24 28  1  0  0  0  0
 25 28  1  0  0  0  0
 26 29  2  0  0  0  0
 29 31  1  0  0  0  0
 29 30  1  0  0  0  0
 30  5  1  6  0  0  0
 30 25  1  0  0  0  0
 31 24  1  0  0  0  0
M  END
>  <MODEL>
3

>  <REMARK>
 VINA RESULT:      -8.1      3.094      4.995
  Name = 
  1 active torsions:
  status: ('A' for Active; 'I' for Inactive)
    1  A    between atoms: C_5  and  C_30
                            x       y       z     vdW  Elec       q    Type
                         _______ _______ _______ _____ _____    ______ ____

>  <TORSDO>
F 1

$$$$
=
 OpenBabel11112417063D

 31 35  0  0  1  0  0  0  0  0999 V2000
  185.5530  178.8990  143.6150 C   0  0  0  0  0  0  0  0  0  0  0  0
  189.0020  177.3110  143.8570 C   0  0  2  0  0  3  0  0  0  0  0  0
  189.0360  176.4070  145.0750 C   0  0  0  0  0  0  0  0  0  0  0  0
  187.8910  173.4430  140.3970 O   0  0  0  0  0  0  0  0  0  0  0  0
  189.1450  173.5530  140.4820 C   0  0  0  0  0  0  0  0  0  0  0  0
  188.1160  175.6350  147.1890 C   0  0  0  0  0  0  0  0  0  0  0  0
  187.6020  177.6260  143.4030 C   0  0  0  0  0  0  0  0  0  0  0  0
  184.9460  178.0880  142.6510 C   0  0  0  0  0  3  0  0  0  0  0  0
  188.0130  176.4200  146.0380 C   0  0  0  0  0  3  0  0  0  0  0  0
  189.0380  175.6560  141.9270 C   0  0  0  0  0  0  0  0  0  0  0  0
  184.8350  179.9350  144.2000 O   0  0  0  0  0  1  0  0  0  0  0  0
  191.2660  175.6400  144.3640 N   0  0  0  0  0  0  0  0  0  0  0  0
  187.1180  175.6430  148.1050 F   0  0  0  0  0  0  0  0  0  0  0  0
  187.7470  175.7770  141.7920 N   0  0  0  0  0  0  0  0  0  0  0  0
  189.8240  176.7080  142.6920 C   0  0  2  0  0  3  0  0  0  0  0  0
  189.7420  174.6160  141.2340 N   0  0  0  0  0  2  0  0  0  0  0  0
  186.8770  178.6660  143.9950 C   0  0  0  0  0  3  0  0  0  0  0  0
  189.2530  174.8520  147.4030 C   0  0  0  0  0  3  0  0  0  0  0  0
  186.9960  176.8190  142.4260 C   0  0  0  0  0  0  0  0  0  0  0  0
  185.6680  177.0470  142.0570 C   0  0  0  0  0  3  0  0  0  0  0  0
  191.1440  176.1660  143.1810 C   0  0  0  0  0  3  0  0  0  0  0  0
  190.1850  175.6240  145.3040 C   0  0  0  0  0  0  0  0  0  0  0  0
  190.2890  174.8500  146.4650 C   0  0  0  0  0  3  0  0  0  0  0  0
  192.9330  172.3240  140.3240 N   0  0  0  0  0  0  0  0  0  0  0  0
  190.6610  171.6010  140.8190 C   0  0  0  0  0  2  0  0  0  0  0  0
  190.7400  173.8940  137.9380 O   0  0  0  0  0  0  0  0  0  0  0  0
  194.1260  172.9010  140.9150 C   0  0  0  0  0  1  0  0  0  0  0  0
  191.9540  172.1730  141.3970 C   0  0  0  0  0  2  0  0  0  0  0  0
  191.0780  173.2570  138.9690 C   0  0  0  0  0  0  0  0  0  0  0  0
  190.0360  172.5610  139.8010 C   0  0  2  0  0  3  0  0  0  0  0  0
  192.4460  173.2610  139.3930 N   0  0  0  0  0  2  0  0  0  0  0  0
  1 17  1  0  0  0  0
  1 11  1  0  0  0  0
  2  7  1  6  0  0  0
  2  3  1  0  0  0  0
  3 22  2  0  0  0  0
  3  9  1  0  0  0  0
  4  5  2  0  0  0  0
  5 16  1  0  0  0  0
  6 18  1  0  0  0  0
  6 13  1  0  0  0  0
  7 17  2  0  0  0  0
  8  1  2  0  0  0  0
  9  6  2  0  0  0  0
 10 15  1  0  0  0  0
 12 22  1  0  0  0  0
 14 10  2  0  0  0  0
 14 19  1  0  0  0  0
 15 21  1  1  0  0  0
 15  2  1  0  0  0  0
 16 10  1  0  0  0  0
 19  7  1  0  0  0  0
 20 19  2  0  0  0  0
 20  8  1  0  0  0  0
 21 12  2  0  0  0  0
 22 23  1  0  0  0  0
 23 18  2  0  0  0  0
 24 27  1  0  0  0  0
 24 28  1  0  0  0  0
 25 28  1  0  0  0  0
 26 29  2  0  0  0  0
 29 31  1  0  0  0  0
 29 30  1  0  0  0  0
 30  5  1  1  0  0  0
 30 25  1  0  0  0  0
 31 24  1  0  0  0  0
M  END
>  <MODEL>
4

>  <REMARK>
 VINA RESULT:      -8.0      3.567      7.880
  Name = 
  1 active torsions:
  status: ('A' for Active; 'I' for Inactive)
    1  A    between atoms: C_5  and  C_30
                            x       y       z     vdW  Elec       q    Type
                         _______ _______ _______ _____ _____    ______ ____

>  <TORSDO>
F 1

$$$$
=
 OpenBabel11112417063D

 31 35  0  0  1  0  0  0  0  0999 V2000
  185.5290  178.8190  143.4630 C   0  0  0  0  0  0  0  0  0  0  0  0
  189.0350  177.4920  144.1200 C   0  0  2  0  0  3  0  0  0  0  0  0
  188.9870  176.5670  145.3210 C   0  0  0  0  0  0  0  0  0  0  0  0
  188.6710  173.6270  140.5000 O   0  0  0  0  0  0  0  0  0  0  0  0
  189.8920  173.8310  140.7440 C   0  0  0  0  0  0  0  0  0  0  0  0
  187.8730  175.6810  147.2920 C   0  0  0  0  0  0  0  0  0  0  0  0
  187.6820  177.7100  143.4960 C   0  0  0  0  0  0  0  0  0  0  0  0
  185.1140  177.9850  142.4200 C   0  0  0  0  0  3  0  0  0  0  0  0
  187.8540  176.4810  146.1470 C   0  0  0  0  0  3  0  0  0  0  0  0
  189.4400  175.8870  142.1900 C   0  0  0  0  0  0  0  0  0  0  0  0
  184.6660  179.7840  143.9650 O   0  0  0  0  0  1  0  0  0  0  0  0
  191.3410  175.9870  144.8880 N   0  0  0  0  0  0  0  0  0  0  0  0
  186.7710  175.5930  148.0740 F   0  0  0  0  0  0  0  0  0  0  0  0
  188.1710  175.9130  141.8940 N   0  0  0  0  0  0  0  0  0  0  0  0
  190.0410  176.9790  143.0600 C   0  0  2  0  0  3  0  0  0  0  0  0
  190.3050  174.9190  141.5780 N   0  0  0  0  0  2  0  0  0  0  0  0
  186.8100  178.6790  144.0050 C   0  0  0  0  0  3  0  0  0  0  0  0
  189.0320  174.9820  147.6390 C   0  0  0  0  0  3  0  0  0  0  0  0
  187.2680  176.8800  142.4410 C   0  0  0  0  0  0  0  0  0  0  0  0
  185.9820  177.0160  141.9100 C   0  0  0  0  0  3  0  0  0  0  0  0
  191.3270  176.5280  143.7060 C   0  0  0  0  0  3  0  0  0  0  0  0
  190.1550  175.8680  145.6840 C   0  0  0  0  0  0  0  0  0  0  0  0
  190.1740  175.0790  146.8390 C   0  0  0  0  0  3  0  0  0  0  0  0
  190.5880  171.4010  137.6630 N   0  0  0  0  0  0  0  0  0  0  0  0
  191.3790  173.4120  138.7850 C   0  0  0  0  0  2  0  0  0  0  0  0
  190.2750  170.8700  141.2120 O   0  0  0  0  0  0  0  0  0  0  0  0
  189.6870  170.9190  136.6320 C   0  0  0  0  0  1  0  0  0  0  0  0
  190.4740  172.8560  137.6880 C   0  0  0  0  0  2  0  0  0  0  0  0
  190.4520  171.5010  140.1370 C   0  0  0  0  0  0  0  0  0  0  0  0
  190.9350  172.9250  140.1690 C   0  0  2  0  0  3  0  0  0  0  0  0
  190.1170  170.8870  138.8870 N   0  0  0  0  0  2  0  0  0  0  0  0
  1 11  1  0  0  0  0
  1 17  1  0  0  0  0
  2  7  1  6  0  0  0
  2  3  1  0  0  0  0
  3 22  2  0  0  0  0
  3  9  1  0  0  0  0
  4  5  2  0  0  0  0
  5 16  1  0  0  0  0
  6 18  1  0  0  0  0
  6 13  1  0  0  0  0
  7 17  2  0  0  0  0
  8  1  2  0  0  0  0
  9  6  2  0  0  0  0
 10 15  1  0  0  0  0
 12 22  1  0  0  0  0
 14 10  2  0  0  0  0
 14 19  1  0  0  0  0
 15 21  1  1  0  0  0
 15  2  1  0  0  0  0
 16 10  1  0  0  0  0
 19  7  1  0  0  0  0
 20  8  1  0  0  0  0
 20 19  2  0  0  0  0
 21 12  2  0  0  0  0
 22 23  1  0  0  0  0
 23 18  2  0  0  0  0
 24 28  1  0  0  0  0
 24 31  1  0  0  0  0
 25 30  1  0  0  0  0
 27 24  1  0  0  0  0
 28 25  1  0  0  0  0
 29 30  1  0  0  0  0
 29 26  2  0  0  0  0
 30  5  1  6  0  0  0
 31 29  1  0  0  0  0
M  END
>  <MODEL>
5

>  <REMARK>
 VINA RESULT:      -7.9      3.756      7.994
  Name = 
  1 active torsions:
  status: ('A' for Active; 'I' for Inactive)
    1  A    between atoms: C_5  and  C_30
                            x       y       z     vdW  Elec       q    Type
                         _______ _______ _______ _____ _____    ______ ____

>  <TORSDO>
F 1

$$$$
=
 OpenBabel11112417063D

 31 35  0  0  1  0  0  0  0  0999 V2000
  190.0770  171.5170  139.6370 C   0  0  0  0  0  0  0  0  0  0  0  0
  189.9080  173.8960  142.6020 C   0  0  2  0  0  3  0  0  0  0  0  0
  191.1240  174.8030  142.5670 C   0  0  0  0  0  0  0  0  0  0  0  0
  186.6630  177.3190  140.1670 O   0  0  0  0  0  0  0  0  0  0  0  0
  186.5900  177.5170  141.4110 C   0  0  0  0  0  0  0  0  0  0  0  0
  193.3450  175.3670  141.7560 C   0  0  0  0  0  0  0  0  0  0  0  0
  189.6280  173.2440  141.2740 C   0  0  0  0  0  0  0  0  0  0  0  0
  189.2070  172.1400  138.7370 C   0  0  0  0  0  3  0  0  0  0  0  0
  192.2070  174.5600  141.7050 C   0  0  0  0  0  3  0  0  0  0  0  0
  188.0110  175.4760  141.9960 C   0  0  0  0  0  0  0  0  0  0  0  0
  190.7330  170.3490  139.2690 O   0  0  0  0  0  1  0  0  0  0  0  0
  190.1500  176.0740  144.4380 N   0  0  0  0  0  0  0  0  0  0  0  0
  194.3780  175.1350  140.9110 F   0  0  0  0  0  0  0  0  0  0  0  0
  188.0350  175.0440  140.7660 N   0  0  0  0  0  0  0  0  0  0  0  0
  188.6580  174.6600  143.1020 C   0  0  2  0  0  3  0  0  0  0  0  0
  187.2480  176.6430  142.3360 N   0  0  0  0  0  2  0  0  0  0  0  0
  190.2920  172.0700  140.9020 C   0  0  0  0  0  3  0  0  0  0  0  0
  193.4270  176.4060  142.6870 C   0  0  0  0  0  3  0  0  0  0  0  0
  188.7450  173.8630  140.3750 C   0  0  0  0  0  0  0  0  0  0  0  0
  188.5410  173.3140  139.1060 C   0  0  0  0  0  3  0  0  0  0  0  0
  188.9860  175.5130  144.3020 C   0  0  0  0  0  3  0  0  0  0  0  0
  191.2180  175.8450  143.5100 C   0  0  0  0  0  0  0  0  0  0  0  0
  192.3670  176.6410  143.5670 C   0  0  0  0  0  3  0  0  0  0  0  0
  184.7570  178.8310  144.6960 N   0  0  0  0  0  0  0  0  0  0  0  0
  186.5480  179.3290  143.1250 C   0  0  0  0  0  2  0  0  0  0  0  0
  183.6000  177.9510  141.4010 O   0  0  0  0  0  0  0  0  0  0  0  0
  184.4520  178.1390  145.9350 C   0  0  0  0  0  1  0  0  0  0  0  0
  186.1820  178.6480  144.4420 C   0  0  0  0  0  2  0  0  0  0  0  0
  184.4140  178.2760  142.3040 C   0  0  0  0  0  0  0  0  0  0  0  0
  185.8170  178.6820  141.9440 C   0  0  2  0  0  3  0  0  0  0  0  0
  184.0260  178.1850  143.6790 N   0  0  0  0  0  2  0  0  0  0  0  0
  1 17  1  0  0  0  0
  2  7  1  6  0  0  0
  2 15  1  0  0  0  0
  3  2  1  0  0  0  0
  3 22  1  0  0  0  0
  4  5  2  0  0  0  0
  5 16  1  0  0  0  0
  6 18  2  0  0  0  0
  8 20  1  0  0  0  0
  8  1  2  0  0  0  0
  9  6  1  0  0  0  0
  9  3  2  0  0  0  0
 10 16  1  0  0  0  0
 10 15  1  0  0  0  0
 11  1  1  0  0  0  0
 13  6  1  0  0  0  0
 14 10  2  0  0  0  0
 15 21  1  1  0  0  0
 17  7  2  0  0  0  0
 18 23  1  0  0  0  0
 19 14  1  0  0  0  0
 19  7  1  0  0  0  0
 20 19  2  0  0  0  0
 21 12  2  0  0  0  0
 22 23  2  0  0  0  0
 22 12  1  0  0  0  0
 24 27  1  0  0  0  0
 25 28  1  0  0  0  0
 26 29  2  0  0  0  0
 28 24  1  0  0  0  0
 29 31  1  0  0  0  0
 30  5  1  1  0  0  0
 30 29  1  0  0  0  0
 30 25  1  0  0  0  0
 31 24  1  0  0  0  0
M  END
>  <MODEL>
6

>  <REMARK>
 VINA RESULT:      -7.8      3.200      5.255
  Name = 
  1 active torsions:
  status: ('A' for Active; 'I' for Inactive)
    1  A    between atoms: C_5  and  C_30
                            x       y       z     vdW  Elec       q    Type
                         _______ _______ _______ _____ _____    ______ ____

>  <TORSDO>
F 1

$$$$
=
 OpenBabel11112417063D

 31 35  0  0  1  0  0  0  0  0999 V2000
  186.6130  177.3680  143.1290 C   0  0  0  0  0  0  0  0  0  0  0  0
  190.2140  177.3650  144.3590 C   0  0  2  0  0  3  0  0  0  0  0  0
  190.3140  176.4530  145.5670 C   0  0  0  0  0  0  0  0  0  0  0  0
  191.8180  173.7180  140.8510 O   0  0  0  0  0  0  0  0  0  0  0  0
  192.8320  174.3380  141.2730 C   0  0  0  0  0  0  0  0  0  0  0  0
  189.2980  175.1770  147.3700 C   0  0  0  0  0  0  0  0  0  0  0  0
  188.9860  177.1000  143.5280 C   0  0  0  0  0  0  0  0  0  0  0  0
  186.6880  176.4670  142.0620 C   0  0  0  0  0  3  0  0  0  0  0  0
  189.1730  175.9470  146.2120 C   0  0  0  0  0  3  0  0  0  0  0  0
  191.4590  176.0600  142.5660 C   0  0  0  0  0  0  0  0  0  0  0  0
  185.3950  177.9470  143.4610 O   0  0  0  0  0  1  0  0  0  0  0  0
  192.7570  176.7630  145.5190 N   0  0  0  0  0  0  0  0  0  0  0  0
  188.1930  174.6820  147.9770 F   0  0  0  0  0  0  0  0  0  0  0  0
  190.3260  175.6380  142.0780 N   0  0  0  0  0  0  0  0  0  0  0  0
  191.4880  177.2720  143.4830 C   0  0  2  0  0  3  0  0  0  0  0  0
  192.6950  175.4810  142.1260 N   0  0  0  0  0  2  0  0  0  0  0  0
  187.7590  177.6810  143.8650 C   0  0  0  0  0  3  0  0  0  0  0  0
  190.5620  174.9300  147.9130 C   0  0  0  0  0  3  0  0  0  0  0  0
  189.0640  176.2050  142.4480 C   0  0  0  0  0  0  0  0  0  0  0  0
  187.9140  175.8850  141.7220 C   0  0  0  0  0  3  0  0  0  0  0  0
  192.7340  177.2940  144.3330 C   0  0  0  0  0  3  0  0  0  0  0  0
  191.5830  176.2080  146.1270 C   0  0  0  0  0  0  0  0  0  0  0  0
  191.7030  175.4490  147.2960 C   0  0  0  0  0  3  0  0  0  0  0  0
  196.6570  174.6680  142.3400 N   0  0  0  0  0  0  0  0  0  0  0  0
  194.8440  173.0730  142.0310 C   0  0  0  0  0  2  0  0  0  0  0  0
  194.8110  175.6630  139.4120 O   0  0  0  0  0  0  0  0  0  0  0  0
  197.2830  175.5470  143.3100 C   0  0  0  0  0  1  0  0  0  0  0  0
  195.5610  173.9870  143.0220 C   0  0  0  0  0  2  0  0  0  0  0  0
  195.0640  175.0420  140.4770 C   0  0  0  0  0  0  0  0  0  0  0  0
  194.2060  173.8800  140.8940 C   0  0  2  0  0  3  0  0  0  0  0  0
  196.1230  175.4910  141.3290 N   0  0  0  0  0  2  0  0  0  0  0  0
  1 11  1  0  0  0  0
  1 17  1  0  0  0  0
  2  7  1  6  0  0  0
  2  3  1  0  0  0  0
  3 22  2  0  0  0  0
  3  9  1  0  0  0  0
  4  5  2  0  0  0  0
  5 16  1  0  0  0  0
  6 18  1  0  0  0  0
  6 13  1  0  0  0  0
  7 17  2  0  0  0  0
  8  1  2  0  0  0  0
  9  6  2  0  0  0  0
 10 15  1  0  0  0  0
 12 22  1  0  0  0  0
 14 19  1  0  0  0  0
 14 10  2  0  0  0  0
 15 21  1  1  0  0  0
 15  2  1  0  0  0  0
 16 10  1  0  0  0  0
 19  7  1  0  0  0  0
 20  8  1  0  0  0  0
 20 19  2  0  0  0  0
 21 12  2  0  0  0  0
 22 23  1  0  0  0  0
 23 18  2  0  0  0  0
 24 28  1  0  0  0  0
 24 27  1  0  0  0  0
 25 28  1  0  0  0  0
 26 29  2  0  0  0  0
 29 30  1  0  0  0  0
 29 31  1  0  0  0  0
 30  5  1  1  0  0  0
 30 25  1  0  0  0  0
 31 24  1  0  0  0  0
M  END
>  <MODEL>
7

>  <REMARK>
 VINA RESULT:      -7.7      3.518      8.075
  Name = 
  1 active torsions:
  status: ('A' for Active; 'I' for Inactive)
    1  A    between atoms: C_5  and  C_30
                            x       y       z     vdW  Elec       q    Type
                         _______ _______ _______ _____ _____    ______ ____

>  <TORSDO>
F 1

$$$$
=
 OpenBabel11112417063D

 31 35  0  0  1  0  0  0  0  0999 V2000
  187.0730  177.7610  147.4940 C   0  0  0  0  0  0  0  0  0  0  0  0
  188.0810  175.4620  144.6340 C   0  0  2  0  0  3  0  0  0  0  0  0
  187.7730  176.1570  143.3210 C   0  0  0  0  0  0  0  0  0  0  0  0
  193.1900  176.8970  144.7670 O   0  0  0  0  0  0  0  0  0  0  0  0
  193.1020  175.7900  144.1670 C   0  0  0  0  0  0  0  0  0  0  0  0
  186.6700  177.8990  142.0340 C   0  0  0  0  0  0  0  0  0  0  0  0
  188.1560  176.4170  145.7960 C   0  0  0  0  0  0  0  0  0  0  0  0
  188.3070  178.3140  147.8480 C   0  0  0  0  0  3  0  0  0  0  0  0
  187.0050  177.3320  143.2650 C   0  0  0  0  0  3  0  0  0  0  0  0
  190.6220  175.4960  144.7050 C   0  0  0  0  0  0  0  0  0  0  0  0
  185.9210  178.1540  148.1620 O   0  0  0  0  0  1  0  0  0  0  0  0
  188.9010  174.3060  142.1510 N   0  0  0  0  0  0  0  0  0  0  0  0
  185.9410  179.0410  141.9900 F   0  0  0  0  0  0  0  0  0  0  0  0
  190.5930  176.5290  145.5000 N   0  0  0  0  0  0  0  0  0  0  0  0
  189.3840  174.6320  144.5330 C   0  0  2  0  0  3  0  0  0  0  0  0
  191.8580  175.0830  144.1040 N   0  0  0  0  0  2  0  0  0  0  0  0
  186.9950  176.8170  146.4660 C   0  0  0  0  0  3  0  0  0  0  0  0
  187.0740  177.2840  140.8460 C   0  0  0  0  0  3  0  0  0  0  0  0
  189.3980  176.9640  146.1590 C   0  0  0  0  0  0  0  0  0  0  0  0
  189.4700  177.9160  147.1800 C   0  0  0  0  0  3  0  0  0  0  0  0
  189.4300  173.8470  143.2460 C   0  0  0  0  0  3  0  0  0  0  0  0
  188.1660  175.5370  142.1190 C   0  0  0  0  0  0  0  0  0  0  0  0
  187.8170  176.1010  140.8880 C   0  0  0  0  0  3  0  0  0  0  0  0
  196.2860  173.5030  144.8800 N   0  0  0  0  0  0  0  0  0  0  0  0
  194.2570  173.6690  143.5450 C   0  0  0  0  0  2  0  0  0  0  0  0
  195.8810  176.9520  143.9280 O   0  0  0  0  0  0  0  0  0  0  0  0
  196.8160  173.0070  146.1370 C   0  0  0  0  0  1  0  0  0  0  0  0
  194.8740  173.1360  144.8370 C   0  0  0  0  0  2  0  0  0  0  0  0
  195.5720  175.7440  144.0950 C   0  0  0  0  0  0  0  0  0  0  0  0
  194.3040  175.2000  143.4980 C   0  0  2  0  0  3  0  0  0  0  0  0
  196.3910  174.9070  144.9200 N   0  0  0  0  0  2  0  0  0  0  0  0
  1  8  1  0  0  0  0
  1 11  1  0  0  0  0
  2  3  1  6  0  0  0
  2  7  1  0  0  0  0
  5  4  2  0  0  0  0
  6  9  2  0  0  0  0
  7 19  2  0  0  0  0
  7 17  1  0  0  0  0
  9  3  1  0  0  0  0
 10 14  2  0  0  0  0
 12 21  2  0  0  0  0
 13  6  1  0  0  0  0
 14 19  1  0  0  0  0
 15 21  1  6  0  0  0
 15  2  1  0  0  0  0
 15 10  1  0  0  0  0
 16  5  1  0  0  0  0
 16 10  1  0  0  0  0
 17  1  2  0  0  0  0
 18 23  2  0  0  0  0
 18  6  1  0  0  0  0
 19 20  1  0  0  0  0
 20  8  2  0  0  0  0
 22 12  1  0  0  0  0
 22  3  2  0  0  0  0
 23 22  1  0  0  0  0
 24 31  1  0  0  0  0
 24 27  1  0  0  0  0
 25 28  1  0  0  0  0
 26 29  2  0  0  0  0
 28 24  1  0  0  0  0
 29 31  1  0  0  0  0
 30 25  1  0  0  0  0
 30 29  1  0  0  0  0
 30  5  1  1  0  0  0
M  END
>  <MODEL>
8

>  <REMARK>
 VINA RESULT:      -7.6      3.011      7.314
  Name = 
  1 active torsions:
  status: ('A' for Active; 'I' for Inactive)
    1  A    between atoms: C_5  and  C_30
                            x       y       z     vdW  Elec       q    Type
                         _______ _______ _______ _____ _____    ______ ____

>  <TORSDO>
F 1

$$$$
=
 OpenBabel11112417063D

 31 35  0  0  1  0  0  0  0  0999 V2000
  185.8580  178.2700  140.8910 C   0  0  0  0  0  0  0  0  0  0  0  0
  188.4220  178.1330  143.7000 C   0  0  2  0  0  3  0  0  0  0  0  0
  187.7730  177.5090  144.9210 C   0  0  0  0  0  0  0  0  0  0  0  0
  190.6520  173.6370  141.9700 O   0  0  0  0  0  0  0  0  0  0  0  0
  191.4680  174.2170  142.7380 C   0  0  0  0  0  0  0  0  0  0  0  0
  185.8120  176.7920  146.1650 C   0  0  0  0  0  0  0  0  0  0  0  0
  187.6800  177.8310  142.4250 C   0  0  0  0  0  0  0  0  0  0  0  0
  186.2220  177.1510  140.1360 C   0  0  0  0  0  3  0  0  0  0  0  0
  186.3870  177.2920  144.9950 C   0  0  0  0  0  3  0  0  0  0  0  0
  190.0450  176.3290  142.9420 C   0  0  0  0  0  0  0  0  0  0  0  0
  184.7710  179.0430  140.5050 O   0  0  0  0  0  1  0  0  0  0  0  0
  189.9770  177.5220  146.0200 N   0  0  0  0  0  0  0  0  0  0  0  0
  184.4760  176.5730  146.2230 F   0  0  0  0  0  0  0  0  0  0  0  0
  189.1980  175.9390  142.0320 N   0  0  0  0  0  0  0  0  0  0  0  0
  189.9050  177.7030  143.5760 C   0  0  2  0  0  3  0  0  0  0  0  0
  191.1980  175.5290  143.2450 N   0  0  0  0  0  2  0  0  0  0  0  0
  186.5820  178.6070  142.0380 C   0  0  0  0  0  3  0  0  0  0  0  0
  186.6100  176.5310  147.2820 C   0  0  0  0  0  3  0  0  0  0  0  0
  188.0530  176.7140  141.6590 C   0  0  0  0  0  0  0  0  0  0  0  0
  187.3190  176.3730  140.5200 C   0  0  0  0  0  3  0  0  0  0  0  0
  190.6040  177.7730  144.9100 C   0  0  0  0  0  3  0  0  0  0  0  0
  188.5690  177.2540  146.0540 C   0  0  0  0  0  0  0  0  0  0  0  0
  187.9870  176.7660  147.2290 C   0  0  0  0  0  3  0  0  0  0  0  0
  194.1160  171.5160  141.4850 N   0  0  0  0  0  0  0  0  0  0  0  0
  193.8640  173.8430  142.1530 C   0  0  0  0  0  2  0  0  0  0  0  0
  191.8040  171.6190  144.2440 O   0  0  0  0  0  0  0  0  0  0  0  0
  194.0660  170.6190  140.3450 C   0  0  0  0  0  1  0  0  0  0  0  0
  193.8580  172.8620  140.9830 C   0  0  0  0  0  2  0  0  0  0  0  0
  192.5200  172.0530  143.3050 C   0  0  0  0  0  0  0  0  0  0  0  0
  192.7360  173.5330  143.1430 C   0  0  2  0  0  3  0  0  0  0  0  0
  193.0650  171.1420  142.3440 N   0  0  0  0  0  2  0  0  0  0  0  0
  1 17  1  0  0  0  0
  2  7  1  6  0  0  0
  2  3  1  0  0  0  0
  3  9  2  0  0  0  0
  3 22  1  0  0  0  0
  4  5  2  0  0  0  0
  5 16  1  0  0  0  0
  6 13  1  0  0  0  0
  6 18  2  0  0  0  0
  8 20  1  0  0  0  0
  8  1  2  0  0  0  0
  9  6  1  0  0  0  0
 10 16  1  0  0  0  0
 10 15  1  0  0  0  0
 11  1  1  0  0  0  0
 12 22  1  0  0  0  0
 14 10  2  0  0  0  0
 15  2  1  0  0  0  0
 15 21  1  1  0  0  0
 17  7  2  0  0  0  0
 19 14  1  0  0  0  0
 19  7  1  0  0  0  0
 20 19  2  0  0  0  0
 21 12  2  0  0  0  0
 22 23  2  0  0  0  0
 23 18  1  0  0  0  0
 24 31  1  0  0  0  0
 25 30  1  0  0  0  0
 27 24  1  0  0  0  0
 28 24  1  0  0  0  0
 28 25  1  0  0  0  0
 29 26  2  0  0  0  0
 30  5  1  6  0  0  0
 30 29  1  0  0  0  0
 31 29  1  0  0  0  0
M  END
>  <MODEL>
9

>  <REMARK>
 VINA RESULT:      -7.6      3.819      8.010
  Name = 
  1 active torsions:
  status: ('A' for Active; 'I' for Inactive)
    1  A    between atoms: C_5  and  C_30
                            x       y       z     vdW  Elec       q    Type
                         _______ _______ _______ _____ _____    ______ ____

>  <TORSDO>
F 1

$$$$
