=
 OpenBabel11112417053D

 31 35  0  0  1  0  0  0  0  0999 V2000
  184.8910  178.2110  146.8780 C   0  0  0  0  0  0  0  0  0  0  0  0
  187.4620  175.8800  145.3140 C   0  0  2  0  0  3  0  0  0  0  0  0
  187.5230  176.2420  143.8340 C   0  0  0  0  0  0  0  0  0  0  0  0
  186.4550  177.2030  141.8660 C   0  0  0  0  0  0  0  0  0  0  0  0
  186.8570  176.9690  146.1730 C   0  0  0  0  0  0  0  0  0  0  0  0
  185.6880  179.0300  147.6780 C   0  0  0  0  0  3  0  0  0  0  0  0
  186.4570  176.9340  143.2360 C   0  0  0  0  0  3  0  0  0  0  0  0
  189.7330  176.6130  146.1430 C   0  0  2  0  0  3  0  0  0  0  0  0
  183.5530  178.4130  146.8220 F   0  0  0  0  0  0  0  0  0  0  0  0
  189.7540  175.0340  143.5700 C   0  0  0  0  0  2  0  0  0  0  0  0
  185.3250  177.9510  141.2580 C   0  0  0  0  0  1  0  0  0  0  0  0
  189.1200  177.5180  147.2110 C   0  0  0  0  0  2  0  0  0  0  0  0
  188.8160  175.4100  145.8750 C   0  0  2  0  0  3  0  0  0  0  0  0
  185.4730  177.1840  146.1310 C   0  0  0  0  0  3  0  0  0  0  0  0
  187.5130  176.7650  141.0680 C   0  0  0  0  0  3  0  0  0  0  0  0
  187.6610  177.7950  146.9930 C   0  0  0  0  0  0  0  0  0  0  0  0
  187.0670  178.8160  147.7430 C   0  0  0  0  0  3  0  0  0  0  0  0
  189.4480  174.3950  144.9210 C   0  0  0  0  0  2  0  0  0  0  0  0
  188.5720  175.7680  143.0090 C   0  0  0  0  0  0  0  0  0  0  0  0
  188.5670  176.0510  141.6390 C   0  0  0  0  0  3  0  0  0  0  0  0
  192.1950  177.1340  144.8030 O   0  0  0  0  0  0  0  0  0  0  0  0
  192.2430  176.4640  145.8710 C   0  0  0  0  0  0  0  0  0  0  0  0
  191.0450  176.1640  146.5880 N   0  0  0  0  0  2  0  0  0  0  0  0
  195.7360  176.0810  144.6360 N   0  0  0  0  0  0  0  0  0  0  0  0
  194.5390  177.0030  146.4500 O   0  0  0  0  0  0  0  0  0  0  0  0
  193.0730  173.7530  145.5860 O   0  0  0  0  0  1  0  0  0  0  0  0
  196.2310  176.4360  143.3180 C   0  0  0  0  0  1  0  0  0  0  0  0
  195.0100  177.2450  145.1400 C   0  0  0  0  0  2  0  0  0  0  0  0
  194.0940  174.6860  145.7720 C   0  0  2  0  0  3  0  0  0  0  0  0
  193.5610  175.9800  146.4120 C   0  0  2  0  0  3  0  0  0  0  0  0
  194.7680  175.0070  144.4450 C   0  0  0  0  0  2  0  0  0  0  0  0
  1  6  1  0  0  0  0
  2  3  1  6  0  0  0
  2 13  1  0  0  0  0
  2  5  1  0  0  0  0
  4  7  2  0  0  0  0
  5 16  2  0  0  0  0
  6 17  2  0  0  0  0
  7  3  1  0  0  0  0
  8 23  1  1  0  0  0
  8 12  1  0  0  0  0
  9  1  1  0  0  0  0
 10 18  1  0  0  0  0
 11  4  1  0  0  0  0
 13 18  1  6  0  0  0
 13  8  1  0  0  0  0
 14  5  1  0  0  0  0
 14  1  2  0  0  0  0
 15 20  2  0  0  0  0
 15  4  1  0  0  0  0
 16 12  1  0  0  0  0
 16 17  1  0  0  0  0
 19 10  1  0  0  0  0
 19  3  2  0  0  0  0
 20 19  1  0  0  0  0
 21 22  2  0  0  0  0
 22 23  1  0  0  0  0
 24 28  1  0  0  0  0
 27 24  1  0  0  0  0
 28 25  1  0  0  0  0
 29 26  1  6  0  0  0
 29 30  1  0  0  0  0
 30 22  1  6  0  0  0
 30 25  1  0  0  0  0
 31 24  1  0  0  0  0
 31 29  1  0  0  0  0
M  END
>  <MODEL>
1

>  <REMARK>
 VINA RESULT:      -9.1      0.000      0.000
  Name = 
  2 active torsions:
  status: ('A' for Active; 'I' for Inactive)
    1  A    between atoms: C_5  and  C_30
    2  A    between atoms: C_10  and  N_16
                            x       y       z     vdW  Elec       q    Type
                         _______ _______ _______ _____ _____    ______ ____

>  <TORSDO>
F 2

$$$$
=
 OpenBabel11112417053D

 31 35  0  0  1  0  0  0  0  0999 V2000
  184.7370  177.8310  146.7270 C   0  0  0  0  0  0  0  0  0  0  0  0
  187.1400  175.9970  144.4140 C   0  0  2  0  0  3  0  0  0  0  0  0
  186.9190  176.5760  143.0210 C   0  0  0  0  0  0  0  0  0  0  0  0
  185.4640  177.7140  141.4320 C   0  0  0  0  0  0  0  0  0  0  0  0
  186.6270  176.8900  145.5230 C   0  0  0  0  0  0  0  0  0  0  0  0
  185.6080  178.5930  147.5070 C   0  0  0  0  0  3  0  0  0  0  0  0
  185.7230  177.2490  142.7220 C   0  0  0  0  0  3  0  0  0  0  0  0
  189.4690  176.8040  144.9690 C   0  0  2  0  0  3  0  0  0  0  0  0
  183.4000  177.9180  146.9220 F   0  0  0  0  0  0  0  0  0  0  0  0
  189.1430  175.6270  142.2080 C   0  0  0  0  0  2  0  0  0  0  0  0
  184.1990  178.4380  141.1430 C   0  0  0  0  0  1  0  0  0  0  0  0
  188.9960  177.4830  146.2530 C   0  0  0  0  0  2  0  0  0  0  0  0
  188.5990  175.5740  144.6650 C   0  0  2  0  0  3  0  0  0  0  0  0
  185.2450  176.9810  145.7410 C   0  0  0  0  0  3  0  0  0  0  0  0
  186.3920  177.4960  140.4130 C   0  0  0  0  0  3  0  0  0  0  0  0
  187.5060  177.6560  146.3220 C   0  0  0  0  0  0  0  0  0  0  0  0
  186.9880  178.4970  147.3120 C   0  0  0  0  0  3  0  0  0  0  0  0
  189.1200  174.7720  143.4720 C   0  0  0  0  0  2  0  0  0  0  0  0
  187.8360  176.3250  141.9710 C   0  0  0  0  0  0  0  0  0  0  0  0
  187.5740  176.8040  140.6840 C   0  0  0  0  0  3  0  0  0  0  0  0
  191.6780  178.0700  143.6860 O   0  0  0  0  0  0  0  0  0  0  0  0
  191.9270  177.0970  144.4490 C   0  0  0  0  0  0  0  0  0  0  0  0
  190.8650  176.4150  145.1180 N   0  0  0  0  0  2  0  0  0  0  0  0
  193.7500  173.8650  144.7850 N   0  0  0  0  0  0  0  0  0  0  0  0
  193.8530  175.8960  143.5860 O   0  0  0  0  0  0  0  0  0  0  0  0
  192.9460  176.6160  147.0670 O   0  0  0  0  0  1  0  0  0  0  0  0
  193.1760  172.5360  144.6990 C   0  0  0  0  0  1  0  0  0  0  0  0
  193.2910  174.6000  143.6080 C   0  0  0  0  0  2  0  0  0  0  0  0
  193.6030  175.9560  146.0270 C   0  0  2  0  0  3  0  0  0  0  0  0
  193.3440  176.6440  144.6740 C   0  0  2  0  0  3  0  0  0  0  0  0
  193.1600  174.5010  145.9580 C   0  0  0  0  0  2  0  0  0  0  0  0
  1  9  1  0  0  0  0
  1  6  1  0  0  0  0
  2  3  1  6  0  0  0
  2 13  1  0  0  0  0
  2  5  1  0  0  0  0
  4  7  2  0  0  0  0
  5 14  1  0  0  0  0
  5 16  2  0  0  0  0
  7  3  1  0  0  0  0
  8 23  1  1  0  0  0
  8 12  1  0  0  0  0
 10 18  1  0  0  0  0
 11  4  1  0  0  0  0
 12 16  1  0  0  0  0
 13 18  1  6  0  0  0
 13  8  1  0  0  0  0
 14  1  2  0  0  0  0
 15 20  2  0  0  0  0
 15  4  1  0  0  0  0
 16 17  1  0  0  0  0
 17  6  2  0  0  0  0
 19 10  1  0  0  0  0
 19  3  2  0  0  0  0
 20 19  1  0  0  0  0
 21 22  2  0  0  0  0
 22 23  1  0  0  0  0
 24 31  1  0  0  0  0
 25 28  1  0  0  0  0
 25 30  1  0  0  0  0
 27 24  1  0  0  0  0
 28 24  1  0  0  0  0
 29 26  1  1  0  0  0
 30 22  1  6  0  0  0
 30 29  1  0  0  0  0
 31 29  1  0  0  0  0
M  END
>  <MODEL>
2

>  <REMARK>
 VINA RESULT:      -8.9      1.384      1.878
  Name = 
  2 active torsions:
  status: ('A' for Active; 'I' for Inactive)
    1  A    between atoms: C_5  and  C_30
    2  A    between atoms: C_10  and  N_16
                            x       y       z     vdW  Elec       q    Type
                         _______ _______ _______ _____ _____    ______ ____

>  <TORSDO>
F 2

$$$$
=
 OpenBabel11112417053D

 31 35  0  0  1  0  0  0  0  0999 V2000
  186.2440  178.1460  140.8630 C   0  0  0  0  0  0  0  0  0  0  0  0
  188.5860  177.8830  143.8520 C   0  0  2  0  0  3  0  0  0  0  0  0
  187.6990  177.6520  145.0710 C   0  0  0  0  0  0  0  0  0  0  0  0
  185.5270  177.8690  146.1540 C   0  0  0  0  0  0  0  0  0  0  0  0
  187.9000  177.5610  142.5420 C   0  0  0  0  0  0  0  0  0  0  0  0
  186.5330  176.9740  140.1630 C   0  0  0  0  0  3  0  0  0  0  0  0
  186.3380  177.9950  145.0240 C   0  0  0  0  0  3  0  0  0  0  0  0
  189.8080  175.6810  143.6500 C   0  0  2  0  0  3  0  0  0  0  0  0
  185.3000  178.9980  140.3990 F   0  0  0  0  0  0  0  0  0  0  0  0
  189.6900  176.8320  146.4380 C   0  0  0  0  0  2  0  0  0  0  0  0
  184.0860  178.2220  146.0760 C   0  0  0  0  0  1  0  0  0  0  0  0
  189.3370  175.4810  142.2100 C   0  0  0  0  0  2  0  0  0  0  0  0
  189.9500  177.1790  143.9590 C   0  0  2  0  0  3  0  0  0  0  0  0
  186.9270  178.4390  142.0460 C   0  0  0  0  0  3  0  0  0  0  0  0
  186.0710  177.4160  147.3560 C   0  0  0  0  0  3  0  0  0  0  0  0
  188.1970  176.3790  141.8250 C   0  0  0  0  0  0  0  0  0  0  0  0
  187.5130  176.0990  140.6370 C   0  0  0  0  0  3  0  0  0  0  0  0
  190.5590  177.4340  145.3390 C   0  0  0  0  0  2  0  0  0  0  0  0
  188.2500  177.2300  146.3060 C   0  0  0  0  0  0  0  0  0  0  0  0
  187.4280  177.0970  147.4300 C   0  0  0  0  0  3  0  0  0  0  0  0
  190.2100  173.3550  145.2490 O   0  0  0  0  0  0  0  0  0  0  0  0
  191.2130  173.8320  144.6500 C   0  0  0  0  0  0  0  0  0  0  0  0
  191.0810  174.9990  143.8380 N   0  0  0  0  0  2  0  0  0  0  0  0
  194.7890  174.8590  144.4570 N   0  0  0  0  0  0  0  0  0  0  0  0
  193.3090  173.6770  145.8670 O   0  0  0  0  0  0  0  0  0  0  0  0
  192.5880  172.7960  142.3790 O   0  0  0  0  0  1  0  0  0  0  0  0
  195.2910  176.2010  144.2260 C   0  0  0  0  0  1  0  0  0  0  0  0
  193.8110  174.9560  145.5380 C   0  0  0  0  0  2  0  0  0  0  0  0
  193.3860  173.1260  143.4760 C   0  0  2  0  0  3  0  0  0  0  0  0
  192.5610  173.1750  144.7750 C   0  0  2  0  0  3  0  0  0  0  0  0
  194.0710  174.4670  143.2490 C   0  0  0  0  0  2  0  0  0  0  0  0
  1 14  1  0  0  0  0
  2  5  1  6  0  0  0
  2 13  1  0  0  0  0
  2  3  1  0  0  0  0
  3 19  1  0  0  0  0
  4 15  2  0  0  0  0
  6 17  1  0  0  0  0
  6  1  2  0  0  0  0
  7  3  2  0  0  0  0
  7  4  1  0  0  0  0
  8 23  1  6  0  0  0
  8 13  1  0  0  0  0
  9  1  1  0  0  0  0
 11  4  1  0  0  0  0
 12  8  1  0  0  0  0
 13 18  1  1  0  0  0
 14  5  2  0  0  0  0
 15 20  1  0  0  0  0
 16 12  1  0  0  0  0
 16  5  1  0  0  0  0
 17 16  2  0  0  0  0
 18 10  1  0  0  0  0
 19 10  1  0  0  0  0
 19 20  2  0  0  0  0
 22 21  2  0  0  0  0
 23 22  1  0  0  0  0
 24 28  1  0  0  0  0
 27 24  1  0  0  0  0
 28 25  1  0  0  0  0
 29 26  1  6  0  0  0
 29 30  1  0  0  0  0
 30 22  1  6  0  0  0
 30 25  1  0  0  0  0
 31 29  1  0  0  0  0
 31 24  1  0  0  0  0
M  END
>  <MODEL>
3

>  <REMARK>
 VINA RESULT:      -8.7      2.035      4.317
  Name = 
  2 active torsions:
  status: ('A' for Active; 'I' for Inactive)
    1  A    between atoms: C_5  and  C_30
    2  A    between atoms: C_10  and  N_16
                            x       y       z     vdW  Elec       q    Type
                         _______ _______ _______ _____ _____    ______ ____

>  <TORSDO>
F 2

$$$$
=
 OpenBabel11112417053D

 31 35  0  0  1  0  0  0  0  0999 V2000
  194.3870  176.5030  145.1660 C   0  0  0  0  0  0  0  0  0  0  0  0
  190.9880  176.9140  143.5020 C   0  0  2  0  0  3  0  0  0  0  0  0
  190.7590  175.6520  142.6780 C   0  0  0  0  0  0  0  0  0  0  0  0
  191.6740  173.7360  141.4820 C   0  0  0  0  0  0  0  0  0  0  0  0
  192.0420  176.7480  144.5750 C   0  0  0  0  0  0  0  0  0  0  0  0
  194.0380  176.3540  146.5090 C   0  0  0  0  0  3  0  0  0  0  0  0
  191.8510  174.8500  142.3050 C   0  0  0  0  0  3  0  0  0  0  0  0
  189.2410  176.6990  145.3140 C   0  0  2  0  0  3  0  0  0  0  0  0
  195.6870  176.4520  144.7940 F   0  0  0  0  0  0  0  0  0  0  0  0
  188.2610  176.1400  142.5140 C   0  0  0  0  0  2  0  0  0  0  0  0
  192.8410  172.8920  141.1150 C   0  0  0  0  0  1  0  0  0  0  0  0
  190.2870  176.8090  146.4230 C   0  0  0  0  0  2  0  0  0  0  0  0
  189.6870  177.4990  144.0800 C   0  0  2  0  0  3  0  0  0  0  0  0
  193.3930  176.7020  144.2040 C   0  0  0  0  0  3  0  0  0  0  0  0
  190.4030  173.4180  141.0020 C   0  0  0  0  0  3  0  0  0  0  0  0
  191.6930  176.6060  145.9380 C   0  0  0  0  0  0  0  0  0  0  0  0
  192.6970  176.4160  146.8940 C   0  0  0  0  0  3  0  0  0  0  0  0
  188.6110  177.5440  142.9950 C   0  0  0  0  0  2  0  0  0  0  0  0
  189.4800  175.3430  142.1540 C   0  0  0  0  0  0  0  0  0  0  0  0
  189.3110  174.2190  141.3390 C   0  0  0  0  0  3  0  0  0  0  0  0
  187.7340  175.5400  147.4390 O   0  0  0  0  0  0  0  0  0  0  0  0
  187.2610  176.5690  146.8830 C   0  0  0  0  0  0  0  0  0  0  0  0
  187.9630  177.1950  145.8080 N   0  0  0  0  0  2  0  0  0  0  0  0
  184.7190  178.9600  145.5800 N   0  0  0  0  0  0  0  0  0  0  0  0
  184.8720  176.7970  146.5130 O   0  0  0  0  0  0  0  0  0  0  0  0
  187.1580  179.0320  148.3120 O   0  0  0  0  0  1  0  0  0  0  0  0
  184.7460  179.6360  144.2960 C   0  0  0  0  0  1  0  0  0  0  0  0
  184.9390  177.5400  145.3130 C   0  0  0  0  0  2  0  0  0  0  0  0
  185.9910  178.6700  147.6380 C   0  0  2  0  0  3  0  0  0  0  0  0
  185.9570  177.1590  147.3470 C   0  0  2  0  0  3  0  0  0  0  0  0
  185.8680  179.4480  146.3350 C   0  0  0  0  0  2  0  0  0  0  0  0
  1  6  1  0  0  0  0
  2  3  1  1  0  0  0
  2 13  1  0  0  0  0
  2  5  1  0  0  0  0
  4  7  2  0  0  0  0
  5 16  2  0  0  0  0
  6 17  2  0  0  0  0
  7  3  1  0  0  0  0
  8 23  1  1  0  0  0
  8 12  1  0  0  0  0
  9  1  1  0  0  0  0
 10 18  1  0  0  0  0
 11  4  1  0  0  0  0
 13 18  1  6  0  0  0
 13  8  1  0  0  0  0
 14  5  1  0  0  0  0
 14  1  2  0  0  0  0
 15 20  2  0  0  0  0
 15  4  1  0  0  0  0
 16 12  1  0  0  0  0
 16 17  1  0  0  0  0
 19 10  1  0  0  0  0
 19  3  2  0  0  0  0
 20 19  1  0  0  0  0
 22 21  2  0  0  0  0
 23 22  1  0  0  0  0
 24 31  1  0  0  0  0
 25 30  1  0  0  0  0
 27 24  1  0  0  0  0
 28 24  1  0  0  0  0
 28 25  1  0  0  0  0
 29 26  1  6  0  0  0
 30 22  1  6  0  0  0
 30 29  1  0  0  0  0
 31 29  1  0  0  0  0
M  END
>  <MODEL>
4

>  <REMARK>
 VINA RESULT:      -8.4      3.738      7.131
  Name = 
  2 active torsions:
  status: ('A' for Active; 'I' for Inactive)
    1  A    between atoms: C_5  and  C_30
    2  A    between atoms: C_10  and  N_16
                            x       y       z     vdW  Elec       q    Type
                         _______ _______ _______ _____ _____    ______ ____

>  <TORSDO>
F 2

$$$$
=
 OpenBabel11112417053D

 31 35  0  0  1  0  0  0  0  0999 V2000
  186.2870  177.7240  147.5030 C   0  0  0  0  0  0  0  0  0  0  0  0
  187.9470  175.7500  144.7040 C   0  0  2  0  0  3  0  0  0  0  0  0
  187.4300  176.3420  143.3970 C   0  0  0  0  0  0  0  0  0  0  0  0
  185.7030  177.5670  142.1910 C   0  0  0  0  0  0  0  0  0  0  0  0
  187.7700  176.6710  145.8910 C   0  0  0  0  0  0  0  0  0  0  0  0
  187.3630  178.4320  148.0390 C   0  0  0  0  0  3  0  0  0  0  0  0
  186.2380  177.0860  143.3880 C   0  0  0  0  0  3  0  0  0  0  0  0
  190.3840  176.4140  144.6680 C   0  0  2  0  0  3  0  0  0  0  0  0
  185.0440  177.8910  148.0140 F   0  0  0  0  0  0  0  0  0  0  0  0
  189.3310  175.2610  142.0850 C   0  0  0  0  0  2  0  0  0  0  0  0
  184.4500  178.3660  142.2060 C   0  0  0  0  0  1  0  0  0  0  0  0
  190.2760  177.1200  146.0200 C   0  0  0  0  0  2  0  0  0  0  0  0
  189.3960  175.2400  144.6010 C   0  0  2  0  0  3  0  0  0  0  0  0
  186.4900  176.8460  146.4360 C   0  0  0  0  0  3  0  0  0  0  0  0
  186.3420  177.2930  140.9810 C   0  0  0  0  0  3  0  0  0  0  0  0
  188.8600  177.3830  146.4440 C   0  0  0  0  0  0  0  0  0  0  0  0
  188.6470  178.2530  147.5180 C   0  0  0  0  0  3  0  0  0  0  0  0
  189.5640  174.4090  143.3280 C   0  0  0  0  0  2  0  0  0  0  0  0
  188.0490  176.0370  142.1610 C   0  0  0  0  0  0  0  0  0  0  0  0
  187.5120  176.5320  140.9680 C   0  0  0  0  0  3  0  0  0  0  0  0
  192.2570  177.4850  142.8030 O   0  0  0  0  0  0  0  0  0  0  0  0
  192.6400  176.5270  143.5300 C   0  0  0  0  0  0  0  0  0  0  0  0
  191.7490  175.9420  144.4810 N   0  0  0  0  0  2  0  0  0  0  0  0
  194.5490  173.5630  144.7330 N   0  0  0  0  0  0  0  0  0  0  0  0
  194.0930  174.7480  142.7430 O   0  0  0  0  0  0  0  0  0  0  0  0
  194.6420  177.1520  145.4590 O   0  0  0  0  0  1  0  0  0  0  0  0
  194.0320  172.4690  145.5340 C   0  0  0  0  0  1  0  0  0  0  0  0
  193.6310  173.7320  143.6090 C   0  0  0  0  0  2  0  0  0  0  0  0
  194.8460  175.9810  144.7280 C   0  0  2  0  0  3  0  0  0  0  0  0
  194.0420  175.9930  143.4150 C   0  0  2  0  0  3  0  0  0  0  0  0
  194.4610  174.7630  145.5570 C   0  0  0  0  0  2  0  0  0  0  0  0
  1  9  1  0  0  0  0
  1  6  1  0  0  0  0
  2  3  1  6  0  0  0
  2  5  1  0  0  0  0
  4 11  1  0  0  0  0
  4  7  2  0  0  0  0
  5 14  1  0  0  0  0
  5 16  2  0  0  0  0
  7  3  1  0  0  0  0
  8 23  1  1  0  0  0
  8 12  1  0  0  0  0
 10 19  1  0  0  0  0
 10 18  1  0  0  0  0
 12 16  1  0  0  0  0
 13 18  1  6  0  0  0
 13  8  1  0  0  0  0
 13  2  1  0  0  0  0
 14  1  2  0  0  0  0
 15  4  1  0  0  0  0
 16 17  1  0  0  0  0
 17  6  2  0  0  0  0
 19  3  2  0  0  0  0
 20 15  2  0  0  0  0
 20 19  1  0  0  0  0
 21 22  2  0  0  0  0
 22 23  1  0  0  0  0
 24 27  1  0  0  0  0
 24 31  1  0  0  0  0
 25 30  1  0  0  0  0
 25 28  1  0  0  0  0
 28 24  1  0  0  0  0
 29 26  1  1  0  0  0
 29 31  1  0  0  0  0
 30 22  1  1  0  0  0
 30 29  1  0  0  0  0
M  END
>  <MODEL>
5

>  <REMARK>
 VINA RESULT:      -8.0      1.456      2.192
  Name = 
  2 active torsions:
  status: ('A' for Active; 'I' for Inactive)
    1  A    between atoms: C_5  and  C_30
    2  A    between atoms: C_10  and  N_16
                            x       y       z     vdW  Elec       q    Type
                         _______ _______ _______ _____ _____    ______ ____

>  <TORSDO>
F 2

$$$$
=
 OpenBabel11112417053D

 31 35  0  0  1  0  0  0  0  0999 V2000
  190.5950  171.5270  142.8140 C   0  0  0  0  0  0  0  0  0  0  0  0
  189.6530  174.3470  145.1900 C   0  0  2  0  0  3  0  0  0  0  0  0
  190.9590  175.0240  145.5900 C   0  0  0  0  0  0  0  0  0  0  0  0
  193.3750  174.9080  145.8840 C   0  0  0  0  0  0  0  0  0  0  0  0
  189.7670  173.5230  143.9270 C   0  0  0  0  0  0  0  0  0  0  0  0
  190.0860  171.9870  141.5990 C   0  0  0  0  0  3  0  0  0  0  0  0
  192.1770  174.3390  145.4480 C   0  0  0  0  0  3  0  0  0  0  0  0
  188.5190  176.1350  143.8110 C   0  0  2  0  0  3  0  0  0  0  0  0
  191.2480  170.3420  142.8710 F   0  0  0  0  0  0  0  0  0  0  0  0
  189.7070  177.0860  146.4190 C   0  0  0  0  0  2  0  0  0  0  0  0
  194.6540  174.1720  145.7070 C   0  0  0  0  0  1  0  0  0  0  0  0
  188.3810  175.2060  142.6060 C   0  0  0  0  0  2  0  0  0  0  0  0
  188.4670  175.3250  145.1160 C   0  0  2  0  0  3  0  0  0  0  0  0
  190.4330  172.2900  143.9730 C   0  0  0  0  0  3  0  0  0  0  0  0
  193.3710  176.1650  146.4880 C   0  0  0  0  0  3  0  0  0  0  0  0
  189.2440  173.9810  142.6950 C   0  0  0  0  0  0  0  0  0  0  0  0
  189.4040  173.2050  141.5430 C   0  0  0  0  0  3  0  0  0  0  0  0
  188.4530  176.2190  146.3570 C   0  0  0  0  0  2  0  0  0  0  0  0
  190.9610  176.2830  146.2400 C   0  0  0  0  0  0  0  0  0  0  0  0
  192.1670  176.8490  146.6640 C   0  0  0  0  0  3  0  0  0  0  0  0
  188.3120  178.2850  141.9490 O   0  0  0  0  0  0  0  0  0  0  0  0
  187.4020  178.1740  142.8160 C   0  0  0  0  0  0  0  0  0  0  0  0
  187.4490  177.1230  143.7820 N   0  0  0  0  0  2  0  0  0  0  0  0
  184.4810  178.8960  145.0140 N   0  0  0  0  0  0  0  0  0  0  0  0
  186.2870  179.9990  143.9660 O   0  0  0  0  0  0  0  0  0  0  0  0
  184.8870  177.5340  141.6380 O   0  0  0  0  0  1  0  0  0  0  0  0
  184.1420  178.2180  146.2510 C   0  0  0  0  0  1  0  0  0  0  0  0
  185.8870  179.2800  145.1150 C   0  0  0  0  0  2  0  0  0  0  0  0
  184.8610  178.5060  142.6390 C   0  0  2  0  0  3  0  0  0  0  0  0
  186.2480  179.1400  142.8420 C   0  0  2  0  0  3  0  0  0  0  0  0
  184.3720  177.9040  143.9490 C   0  0  0  0  0  2  0  0  0  0  0  0
  1  9  1  0  0  0  0
  1 14  1  0  0  0  0
  2  5  1  6  0  0  0
  2  3  1  0  0  0  0
  3 19  1  0  0  0  0
  4 15  2  0  0  0  0
  5 14  2  0  0  0  0
  6  1  2  0  0  0  0
  7  3  2  0  0  0  0
  7  4  1  0  0  0  0
  8 23  1  1  0  0  0
  8 13  1  0  0  0  0
 11  4  1  0  0  0  0
 12 16  1  0  0  0  0
 12  8  1  0  0  0  0
 13  2  1  0  0  0  0
 13 18  1  1  0  0  0
 15 20  1  0  0  0  0
 16  5  1  0  0  0  0
 17  6  1  0  0  0  0
 17 16  2  0  0  0  0
 18 10  1  0  0  0  0
 19 10  1  0  0  0  0
 19 20  2  0  0  0  0
 21 22  2  0  0  0  0
 22 23  1  0  0  0  0
 24 28  1  0  0  0  0
 24 27  1  0  0  0  0
 25 28  1  0  0  0  0
 29 26  1  6  0  0  0
 29 30  1  0  0  0  0
 29 31  1  0  0  0  0
 30 22  1  1  0  0  0
 30 25  1  0  0  0  0
 31 24  1  0  0  0  0
M  END
>  <MODEL>
6

>  <REMARK>
 VINA RESULT:      -8.0      3.778      7.839
  Name = 
  2 active torsions:
  status: ('A' for Active; 'I' for Inactive)
    1  A    between atoms: C_5  and  C_30
    2  A    between atoms: C_10  and  N_16
                            x       y       z     vdW  Elec       q    Type
                         _______ _______ _______ _____ _____    ______ ____

>  <TORSDO>
F 2

$$$$
=
 OpenBabel11112417053D

 31 35  0  0  1  0  0  0  0  0999 V2000
  186.6020  178.6240  147.7550 C   0  0  0  0  0  0  0  0  0  0  0  0
  188.1930  175.8720  145.6600 C   0  0  2  0  0  3  0  0  0  0  0  0
  188.0520  176.3070  144.2050 C   0  0  0  0  0  0  0  0  0  0  0  0
  186.8850  177.6140  142.5120 C   0  0  0  0  0  0  0  0  0  0  0  0
  188.0430  177.0120  146.6440 C   0  0  0  0  0  0  0  0  0  0  0  0
  187.7110  179.1840  148.3910 C   0  0  0  0  0  3  0  0  0  0  0  0
  187.0860  177.2630  143.8480 C   0  0  0  0  0  3  0  0  0  0  0  0
  190.6890  176.0080  146.0240 C   0  0  2  0  0  3  0  0  0  0  0  0
  185.3660  179.1310  147.9750 F   0  0  0  0  0  0  0  0  0  0  0  0
  189.8360  174.6390  143.4720 C   0  0  0  0  0  2  0  0  0  0  0  0
  185.8700  178.6410  142.1600 C   0  0  0  0  0  1  0  0  0  0  0  0
  190.5270  176.9570  147.2100 C   0  0  0  0  0  2  0  0  0  0  0  0
  189.4780  175.0680  145.9250 C   0  0  2  0  0  3  0  0  0  0  0  0
  186.7680  177.5410  146.8870 C   0  0  0  0  0  3  0  0  0  0  0  0
  187.6330  176.9990  141.5090 C   0  0  0  0  0  3  0  0  0  0  0  0
  189.1620  177.5760  147.2980 C   0  0  0  0  0  0  0  0  0  0  0  0
  188.9840  178.6540  148.1710 C   0  0  0  0  0  3  0  0  0  0  0  0
  189.6540  174.0000  144.8450 C   0  0  0  0  0  2  0  0  0  0  0  0
  188.7780  175.6600  143.1760 C   0  0  0  0  0  0  0  0  0  0  0  0
  188.5770  176.0260  141.8410 C   0  0  0  0  0  3  0  0  0  0  0  0
  193.0450  176.3200  144.4490 O   0  0  0  0  0  0  0  0  0  0  0  0
  193.0660  175.4510  145.3640 C   0  0  0  0  0  0  0  0  0  0  0  0
  191.9170  175.2410  146.1860 N   0  0  0  0  0  2  0  0  0  0  0  0
  196.1770  174.5590  143.5190 N   0  0  0  0  0  0  0  0  0  0  0  0
  195.4820  175.4140  145.6070 O   0  0  0  0  0  0  0  0  0  0  0  0
  193.2140  172.7050  144.6170 O   0  0  0  0  0  1  0  0  0  0  0  0
  196.5500  175.0040  142.1890 C   0  0  0  0  0  1  0  0  0  0  0  0
  195.8090  175.7540  144.2750 C   0  0  0  0  0  2  0  0  0  0  0  0
  194.4360  173.3700  144.7390 C   0  0  2  0  0  3  0  0  0  0  0  0
  194.3030  174.6310  145.6120 C   0  0  2  0  0  3  0  0  0  0  0  0
  194.9740  173.7480  143.3660 C   0  0  0  0  0  2  0  0  0  0  0  0
  1  9  1  0  0  0  0
  1  6  1  0  0  0  0
  2  3  1  6  0  0  0
  2 13  1  0  0  0  0
  2  5  1  0  0  0  0
  4  7  2  0  0  0  0
  5 14  1  0  0  0  0
  5 16  2  0  0  0  0
  7  3  1  0  0  0  0
  8 23  1  1  0  0  0
  8 12  1  0  0  0  0
 10 18  1  0  0  0  0
 11  4  1  0  0  0  0
 12 16  1  0  0  0  0
 13 18  1  6  0  0  0
 13  8  1  0  0  0  0
 14  1  2  0  0  0  0
 15 20  2  0  0  0  0
 15  4  1  0  0  0  0
 16 17  1  0  0  0  0
 17  6  2  0  0  0  0
 19 10  1  0  0  0  0
 19  3  2  0  0  0  0
 20 19  1  0  0  0  0
 21 22  2  0  0  0  0
 22 23  1  0  0  0  0
 24 28  1  0  0  0  0
 25 30  1  0  0  0  0
 27 24  1  0  0  0  0
 28 25  1  0  0  0  0
 29 26  1  6  0  0  0
 29 30  1  0  0  0  0
 30 22  1  6  0  0  0
 31 24  1  0  0  0  0
 31 29  1  0  0  0  0
M  END
>  <MODEL>
7

>  <REMARK>
 VINA RESULT:      -7.8      1.205      1.438
  Name = 
  2 active torsions:
  status: ('A' for Active; 'I' for Inactive)
    1  A    between atoms: C_5  and  C_30
    2  A    between atoms: C_10  and  N_16
                            x       y       z     vdW  Elec       q    Type
                         _______ _______ _______ _____ _____    ______ ____

>  <TORSDO>
F 2

$$$$
=
 OpenBabel11112417053D

 31 35  0  0  1  0  0  0  0  0999 V2000
  186.4890  177.8970  140.8610 C   0  0  0  0  0  0  0  0  0  0  0  0
  188.6810  177.9160  143.9730 C   0  0  2  0  0  3  0  0  0  0  0  0
  187.7390  177.7490  145.1610 C   0  0  0  0  0  0  0  0  0  0  0  0
  185.5100  177.9840  146.1170 C   0  0  0  0  0  0  0  0  0  0  0  0
  188.0710  177.4810  142.6580 C   0  0  0  0  0  0  0  0  0  0  0  0
  186.8410  176.6860  140.2640 C   0  0  0  0  0  3  0  0  0  0  0  0
  186.3740  178.0500  145.0220 C   0  0  0  0  0  3  0  0  0  0  0  0
  189.9640  175.7390  143.9940 C   0  0  2  0  0  3  0  0  0  0  0  0
  185.5500  178.6880  140.2900 F   0  0  0  0  0  0  0  0  0  0  0  0
  189.6770  177.0850  146.6810 C   0  0  0  0  0  2  0  0  0  0  0  0
  184.0660  178.2910  145.9420 C   0  0  0  0  0  1  0  0  0  0  0  0
  189.5720  175.4230  142.5510 C   0  0  0  0  0  2  0  0  0  0  0  0
  190.0550  177.2590  144.1990 C   0  0  2  0  0  3  0  0  0  0  0  0
  187.1040  178.2930  142.0520 C   0  0  0  0  0  3  0  0  0  0  0  0
  186.0030  177.6340  147.3740 C   0  0  0  0  0  3  0  0  0  0  0  0
  188.4320  176.2590  142.0450 C   0  0  0  0  0  0  0  0  0  0  0  0
  187.8160  175.8750  140.8490 C   0  0  0  0  0  3  0  0  0  0  0  0
  190.5860  177.6300  145.5840 C   0  0  0  0  0  2  0  0  0  0  0  0
  188.2360  177.4330  146.4490 C   0  0  0  0  0  0  0  0  0  0  0  0
  187.3610  177.3590  147.5380 C   0  0  0  0  0  3  0  0  0  0  0  0
  192.4520  176.3910  142.7640 O   0  0  0  0  0  0  0  0  0  0  0  0
  192.4550  175.4860  143.6430 C   0  0  0  0  0  0  0  0  0  0  0  0
  191.2420  175.1080  144.2940 N   0  0  0  0  0  2  0  0  0  0  0  0
  193.7250  171.9920  143.8780 N   0  0  0  0  0  0  0  0  0  0  0  0
  194.3110  174.0830  142.9500 O   0  0  0  0  0  0  0  0  0  0  0  0
  192.9440  174.6150  146.3120 O   0  0  0  0  0  1  0  0  0  0  0  0
  192.9930  170.7830  143.5530 C   0  0  0  0  0  1  0  0  0  0  0  0
  193.5770  172.8940  142.7380 C   0  0  0  0  0  2  0  0  0  0  0  0
  193.6670  173.9580  145.3150 C   0  0  2  0  0  3  0  0  0  0  0  0
  193.7370  174.7990  144.0280 C   0  0  2  0  0  3  0  0  0  0  0  0
  193.0420  172.6030  145.0130 C   0  0  0  0  0  2  0  0  0  0  0  0
  1 14  1  0  0  0  0
  2  5  1  6  0  0  0
  2 13  1  0  0  0  0
  2  3  1  0  0  0  0
  3 19  1  0  0  0  0
  4 15  2  0  0  0  0
  6 17  1  0  0  0  0
  6  1  2  0  0  0  0
  7  3  2  0  0  0  0
  7  4  1  0  0  0  0
  8 13  1  0  0  0  0
  8 23  1  6  0  0  0
  9  1  1  0  0  0  0
 11  4  1  0  0  0  0
 12  8  1  0  0  0  0
 13 18  1  1  0  0  0
 14  5  2  0  0  0  0
 15 20  1  0  0  0  0
 16 12  1  0  0  0  0
 16  5  1  0  0  0  0
 17 16  2  0  0  0  0
 18 10  1  0  0  0  0
 19 10  1  0  0  0  0
 19 20  2  0  0  0  0
 21 22  2  0  0  0  0
 22 23  1  0  0  0  0
 24 31  1  0  0  0  0
 25 30  1  0  0  0  0
 27 24  1  0  0  0  0
 28 25  1  0  0  0  0
 28 24  1  0  0  0  0
 29 26  1  1  0  0  0
 30 22  1  6  0  0  0
 30 29  1  0  0  0  0
 31 29  1  0  0  0  0
M  END
>  <MODEL>
8

>  <REMARK>
 VINA RESULT:      -7.6      2.311      4.520
  Name = 
  2 active torsions:
  status: ('A' for Active; 'I' for Inactive)
    1  A    between atoms: C_5  and  C_30
    2  A    between atoms: C_10  and  N_16
                            x       y       z     vdW  Elec       q    Type
                         _______ _______ _______ _____ _____    ______ ____

>  <TORSDO>
F 2

$$$$
=
 OpenBabel11112417053D

 31 35  0  0  1  0  0  0  0  0999 V2000
  192.6820  173.1030  141.2640 C   0  0  0  0  0  0  0  0  0  0  0  0
  192.0970  174.1720  144.8710 C   0  0  2  0  0  3  0  0  0  0  0  0
  193.0520  175.3310  145.1340 C   0  0  0  0  0  0  0  0  0  0  0  0
  195.1110  176.5140  144.5880 C   0  0  0  0  0  0  0  0  0  0  0  0
  191.8530  173.9180  143.3990 C   0  0  0  0  0  0  0  0  0  0  0  0
  191.4950  173.4990  140.6470 C   0  0  0  0  0  3  0  0  0  0  0  0
  194.1800  175.5100  144.3160 C   0  0  0  0  0  3  0  0  0  0  0  0
  189.8400  175.3050  144.9550 C   0  0  2  0  0  3  0  0  0  0  0  0
  193.6640  172.5230  140.5360 F   0  0  0  0  0  0  0  0  0  0  0  0
  191.7260  176.0340  147.1970 C   0  0  0  0  0  2  0  0  0  0  0  0
  196.2870  176.6970  143.6990 C   0  0  0  0  0  1  0  0  0  0  0  0
  189.4710  174.8120  143.5560 C   0  0  0  0  0  2  0  0  0  0  0  0
  190.7720  174.2970  145.6450 C   0  0  2  0  0  3  0  0  0  0  0  0
  192.8580  173.3100  142.6350 C   0  0  0  0  0  3  0  0  0  0  0  0
  194.9390  177.3420  145.6980 C   0  0  0  0  0  3  0  0  0  0  0  0
  190.6470  174.3080  142.7710 C   0  0  0  0  0  0  0  0  0  0  0  0
  190.4770  174.0900  141.4000 C   0  0  0  0  0  3  0  0  0  0  0  0
  191.0550  174.6670  147.1010 C   0  0  0  0  0  2  0  0  0  0  0  0
  192.9080  176.1510  146.2800 C   0  0  0  0  0  0  0  0  0  0  0  0
  193.8400  177.1600  146.5390 C   0  0  0  0  0  3  0  0  0  0  0  0
  188.3920  177.7490  145.1940 O   0  0  0  0  0  0  0  0  0  0  0  0
  187.9430  176.7430  145.8090 C   0  0  0  0  0  0  0  0  0  0  0  0
  188.6240  175.4900  145.7350 N   0  0  0  0  0  2  0  0  0  0  0  0
  184.7380  178.6350  145.6630 N   0  0  0  0  0  0  0  0  0  0  0  0
  185.5380  176.4260  145.8960 O   0  0  0  0  0  0  0  0  0  0  0  0
  187.6490  178.6720  147.8860 O   0  0  0  0  0  1  0  0  0  0  0  0
  184.3410  179.5860  144.6410 C   0  0  0  0  0  1  0  0  0  0  0  0
  185.1830  177.4300  144.9670 C   0  0  0  0  0  2  0  0  0  0  0  0
  186.4630  178.1940  147.3260 C   0  0  2  0  0  3  0  0  0  0  0  0
  186.6800  176.8440  146.6200 C   0  0  2  0  0  3  0  0  0  0  0  0
  185.8980  179.2070  146.3390 C   0  0  0  0  0  2  0  0  0  0  0  0
  1 14  1  0  0  0  0
  2  5  1  6  0  0  0
  2  3  1  0  0  0  0
  2 13  1  0  0  0  0
  3 19  1  0  0  0  0
  4 15  2  0  0  0  0
  6  1  2  0  0  0  0
  6 17  1  0  0  0  0
  7  4  1  0  0  0  0
  7  3  2  0  0  0  0
  8 13  1  0  0  0  0
  8 23  1  1  0  0  0
  9  1  1  0  0  0  0
 11  4  1  0  0  0  0
 12  8  1  0  0  0  0
 13 18  1  1  0  0  0
 14  5  2  0  0  0  0
 15 20  1  0  0  0  0
 16  5  1  0  0  0  0
 16 12  1  0  0  0  0
 17 16  2  0  0  0  0
 18 10  1  0  0  0  0
 19 20  2  0  0  0  0
 19 10  1  0  0  0  0
 21 22  2  0  0  0  0
 23 22  1  0  0  0  0
 24 31  1  0  0  0  0
 25 30  1  0  0  0  0
 27 24  1  0  0  0  0
 28 24  1  0  0  0  0
 28 25  1  0  0  0  0
 29 26  1  6  0  0  0
 30 22  1  6  0  0  0
 30 29  1  0  0  0  0
 31 29  1  0  0  0  0
M  END
>  <MODEL>
9

>  <REMARK>
 VINA RESULT:      -7.6      3.657      7.973
  Name = 
  2 active torsions:
  status: ('A' for Active; 'I' for Inactive)
    1  A    between atoms: C_5  and  C_30
    2  A    between atoms: C_10  and  N_16
                            x       y       z     vdW  Elec       q    Type
                         _______ _______ _______ _____ _____    ______ ____

>  <TORSDO>
F 2

$$$$
