=
 OpenBabel11112417403D

 28 32  0  0  1  0  0  0  0  0999 V2000
  190.8840  174.3420  143.1490 C   0  0  0  0  0  0  0  0  0  0  0  0
  187.5240  178.1650  143.8760 O   0  0  0  0  0  1  0  0  0  0  0  0
  192.7610  176.0700  146.9250 O   0  0  0  0  0  0  0  0  0  0  0  0
  190.0330  172.2760  144.8350 C   0  0  0  0  0  3  0  0  0  0  0  0
  190.4320  176.5900  147.2700 C   0  0  2  0  0  3  0  0  0  0  0  0
  191.3350  175.3960  142.3540 O   0  0  0  0  0  0  0  0  0  0  0  0
  186.2660  176.3620  142.9950 C   0  0  0  0  0  1  0  0  0  0  0  0
  186.8800  176.9760  144.2380 C   0  0  1  0  0  0  0  0  0  0  0  0
  186.3450  177.8220  146.5000 C   0  0  1  0  0  3  0  0  0  0  0  0
  187.8750  175.9560  144.8620 C   0  0  2  0  0  3  0  0  0  0  0  0
  193.6480  175.0940  144.3390 O   0  0  0  0  0  1  0  0  0  0  0  0
  190.0410  176.9990  144.8710 C   0  0  1  0  0  3  0  0  0  0  0  0
  187.1600  176.7100  147.1370 C   0  0  0  0  0  2  0  0  0  0  0  0
  185.7560  177.3030  145.2060 C   0  0  0  0  0  2  0  0  0  0  0  0
  193.3380  176.1730  143.5090 C   0  0  2  0  0  3  0  0  0  0  0  0
  189.8230  174.5670  144.0410 C   0  0  0  0  0  0  0  0  0  0  0  0
  191.6410  176.3920  146.4440 C   0  0  0  0  0  0  0  0  0  0  0  0
  185.3150  178.1940  147.3630 O   0  0  0  0  0  1  0  0  0  0  0  0
  192.4920  177.2260  144.2380 C   0  0  0  0  0  2  0  0  0  0  0  0
  189.4130  173.5260  144.8920 C   0  0  0  0  0  3  0  0  0  0  0  0
  191.5070  173.0870  143.0990 C   0  0  0  0  0  3  0  0  0  0  0  0
  191.0790  172.0550  143.9370 C   0  0  0  0  0  3  0  0  0  0  0  0
  192.7160  175.6910  142.1960 C   0  0  0  0  0  2  0  0  0  0  0  0
  189.3970  177.0990  146.2640 C   0  0  1  0  0  3  0  0  0  0  0  0
  191.4390  176.6350  145.0640 N   0  0  0  0  0  0  0  0  0  0  0  0
  188.2360  176.2140  146.2670 N   0  0  2  0  0  0  0  0  0  0  0  0
  190.6680  177.5760  148.2280 O   0  0  0  0  0  1  0  0  0  0  0  0
  189.2030  175.9510  144.1110 C   0  0  1  0  0  3  0  0  0  0  0  0
  1 16  1  0  0  0  0
  2  8  1  0  0  0  0
  4 20  1  0  0  0  0
  5 27  1  1  0  0  0
  6  1  1  0  0  0  0
  8  7  1  6  0  0  0
  8 10  1  0  0  0  0
  8 14  1  0  0  0  0
  9 13  1  0  0  0  0
  9 18  1  1  0  0  0
 10 26  1  0  0  0  0
 12 25  1  0  0  0  0
 12 24  1  0  0  0  0
 14  9  1  0  0  0  0
 15 19  1  0  0  0  0
 15 11  1  0  0  0  0
 16 28  1  0  0  0  0
 16 20  2  0  0  0  0
 17  3  2  0  0  0  0
 17  5  1  0  0  0  0
 19 25  1  0  0  0  0
 21  1  2  0  0  0  0
 21 22  1  0  0  0  0
 22  4  2  0  0  0  0
 23  6  1  0  0  0  0
 23 15  1  0  0  0  0
 24 26  1  0  0  0  0
 24  5  1  0  0  0  0
 25 17  1  0  0  0  0
 26 13  1  0  0  0  0
 28 10  1  0  0  0  0
 28 12  1  0  0  0  0
M  END
>  <MODEL>
1

>  <REMARK>
 VINA RESULT:      -8.0      0.000      0.000
  Name = 
  0 active torsions:
  status: ('A' for Active; 'I' for Inactive)
                            x       y       z     vdW  Elec       q    Type
                         _______ _______ _______ _____ _____    ______ ____

>  <TORSDO>
F 0

$$$$
=
 OpenBabel11112417403D

 28 32  0  0  1  0  0  0  0  0999 V2000
  190.2880  175.1380  143.8570 C   0  0  0  0  0  0  0  0  0  0  0  0
  185.6470  176.5590  145.5500 O   0  0  0  0  0  1  0  0  0  0  0  0
  188.2300  175.3890  139.8000 O   0  0  0  0  0  0  0  0  0  0  0  0
  191.5490  177.5100  143.0690 C   0  0  0  0  0  3  0  0  0  0  0  0
  187.0310  177.0690  141.0470 C   0  0  2  0  0  3  0  0  0  0  0  0
  189.6340  173.9550  144.1990 O   0  0  0  0  0  0  0  0  0  0  0  0
  187.2060  177.6060  146.9930 C   0  0  0  0  0  1  0  0  0  0  0  0
  186.4850  177.6750  145.6610 C   0  0  1  0  0  0  0  0  0  0  0  0
  184.9800  179.0840  144.2950 C   0  0  1  0  0  3  0  0  0  0  0  0
  187.5420  177.7090  144.5200 C   0  0  2  0  0  3  0  0  0  0  0  0
  190.0340  173.5850  141.1840 O   0  0  0  0  0  1  0  0  0  0  0  0
  187.1560  175.7770  143.1430 C   0  0  1  0  0  3  0  0  0  0  0  0
  186.0710  179.2890  143.2580 C   0  0  0  0  0  2  0  0  0  0  0  0
  185.6320  178.9310  145.6520 C   0  0  0  0  0  2  0  0  0  0  0  0
  189.1600  172.9160  142.0430 C   0  0  2  0  0  3  0  0  0  0  0  0
  189.5670  176.3430  143.8640 C   0  0  0  0  0  0  0  0  0  0  0  0
  187.7510  175.7870  140.8950 C   0  0  0  0  0  0  0  0  0  0  0  0
  184.1370  180.1940  144.3060 O   0  0  0  0  0  1  0  0  0  0  0  0
  187.7680  173.5640  142.0550 C   0  0  0  0  0  2  0  0  0  0  0  0
  190.2060  177.5250  143.4530 C   0  0  0  0  0  3  0  0  0  0  0  0
  191.6350  175.1270  143.4660 C   0  0  0  0  0  3  0  0  0  0  0  0
  192.2650  176.3110  143.0780 C   0  0  0  0  0  3  0  0  0  0  0  0
  189.7730  172.7630  143.4370 C   0  0  0  0  0  2  0  0  0  0  0  0
  186.5350  177.0260  142.4940 C   0  0  1  0  0  3  0  0  0  0  0  0
  187.8220  175.0250  142.0870 N   0  0  0  0  0  0  0  0  0  0  0  0
  187.0420  178.1870  143.2190 N   0  0  2  0  0  0  0  0  0  0  0  0
  185.9350  177.1010  140.1840 O   0  0  0  0  0  1  0  0  0  0  0  0
  188.0970  176.3150  144.2400 C   0  0  1  0  0  3  0  0  0  0  0  0
  1 16  1  0  0  0  0
  1  6  1  0  0  0  0
  2  8  1  0  0  0  0
  3 17  2  0  0  0  0
  4 22  2  0  0  0  0
  4 20  1  0  0  0  0
  5 27  1  6  0  0  0
  5 24  1  0  0  0  0
  8  7  1  1  0  0  0
  9 18  1  1  0  0  0
  9 14  1  0  0  0  0
 10  8  1  0  0  0  0
 11 15  1  0  0  0  0
 12 28  1  0  0  0  0
 13  9  1  0  0  0  0
 14  8  1  0  0  0  0
 15 19  1  0  0  0  0
 15 23  1  0  0  0  0
 16 28  1  0  0  0  0
 17  5  1  0  0  0  0
 17 25  1  0  0  0  0
 19 25  1  0  0  0  0
 20 16  2  0  0  0  0
 21  1  2  0  0  0  0
 22 21  1  0  0  0  0
 23  6  1  0  0  0  0
 24 12  1  0  0  0  0
 24 26  1  0  0  0  0
 25 12  1  0  0  0  0
 26 13  1  0  0  0  0
 26 10  1  0  0  0  0
 28 10  1  0  0  0  0
M  END
>  <MODEL>
2

>  <REMARK>
 VINA RESULT:      -7.9      2.547      4.697
  Name = 
  0 active torsions:
  status: ('A' for Active; 'I' for Inactive)
                            x       y       z     vdW  Elec       q    Type
                         _______ _______ _______ _____ _____    ______ ____

>  <TORSDO>
F 0

$$$$
=
 OpenBabel11112417403D

 28 32  0  0  1  0  0  0  0  0999 V2000
  191.6360  174.1160  143.2180 C   0  0  0  0  0  0  0  0  0  0  0  0
  188.6760  178.2030  142.2370 O   0  0  0  0  0  1  0  0  0  0  0  0
  192.0670  176.1460  147.2750 O   0  0  0  0  0  0  0  0  0  0  0  0
  189.9870  172.3170  144.5880 C   0  0  0  0  0  3  0  0  0  0  0  0
  189.8550  176.8490  146.6220 C   0  0  2  0  0  3  0  0  0  0  0  0
  192.4680  175.0400  142.5840 O   0  0  0  0  0  0  0  0  0  0  0  0
  187.6790  176.3950  141.0780 C   0  0  0  0  0  1  0  0  0  0  0  0
  187.8220  177.1070  142.4080 C   0  0  1  0  0  0  0  0  0  0  0  0
  186.5410  178.2410  144.1950 C   0  0  1  0  0  3  0  0  0  0  0  0
  188.3840  176.1050  143.4570 C   0  0  2  0  0  3  0  0  0  0  0  0
  193.7830  174.8230  145.3430 O   0  0  0  0  0  1  0  0  0  0  0  0
  190.4720  177.0020  144.2410 C   0  0  1  0  0  3  0  0  0  0  0  0
  186.9240  177.1610  145.1910 C   0  0  0  0  0  2  0  0  0  0  0  0
  186.4510  177.6160  142.8200 C   0  0  0  0  0  2  0  0  0  0  0  0
  193.9340  175.8160  144.3730 C   0  0  2  0  0  3  0  0  0  0  0  0
  190.3420  174.5090  143.5930 C   0  0  0  0  0  0  0  0  0  0  0  0
  191.2620  176.4800  146.3650 C   0  0  0  0  0  0  0  0  0  0  0  0
  185.3020  178.7760  144.5450 O   0  0  0  0  0  1  0  0  0  0  0  0
  192.9850  176.9980  144.6180 C   0  0  0  0  0  2  0  0  0  0  0  0
  189.5280  173.6030  144.2920 C   0  0  0  0  0  3  0  0  0  0  0  0
  192.0960  172.8270  143.5210 C   0  0  0  0  0  3  0  0  0  0  0  0
  191.2710  171.9280  144.2000 C   0  0  0  0  0  3  0  0  0  0  0  0
  193.8240  175.2270  142.9650 C   0  0  0  0  0  2  0  0  0  0  0  0
  189.3510  177.3030  145.2510 C   0  0  1  0  0  3  0  0  0  0  0  0
  191.6390  176.5740  145.0020 N   0  0  0  0  0  0  0  0  0  0  0  0
  188.1950  176.5010  144.8640 N   0  0  2  0  0  0  0  0  0  0  0  0
  189.8010  177.9220  147.5120 O   0  0  0  0  0  1  0  0  0  0  0  0
  189.8920  175.9290  143.2980 C   0  0  1  0  0  3  0  0  0  0  0  0
  1 21  2  0  0  0  0
  1 16  1  0  0  0  0
  2  8  1  0  0  0  0
  5 27  1  1  0  0  0
  6 23  1  0  0  0  0
  6  1  1  0  0  0  0
  8  7  1  6  0  0  0
  8 14  1  0  0  0  0
  8 10  1  0  0  0  0
  9 18  1  1  0  0  0
  9 13  1  0  0  0  0
 10 26  1  0  0  0  0
 12 25  1  0  0  0  0
 12 24  1  0  0  0  0
 14  9  1  0  0  0  0
 15 19  1  0  0  0  0
 15 11  1  0  0  0  0
 16 20  2  0  0  0  0
 17  5  1  0  0  0  0
 17  3  2  0  0  0  0
 19 25  1  0  0  0  0
 20  4  1  0  0  0  0
 21 22  1  0  0  0  0
 22  4  2  0  0  0  0
 23 15  1  0  0  0  0
 24  5  1  0  0  0  0
 25 17  1  0  0  0  0
 26 13  1  0  0  0  0
 26 24  1  0  0  0  0
 28 10  1  0  0  0  0
 28 16  1  0  0  0  0
 28 12  1  0  0  0  0
M  END
>  <MODEL>
3

>  <REMARK>
 VINA RESULT:      -7.8      1.205      1.423
  Name = 
  0 active torsions:
  status: ('A' for Active; 'I' for Inactive)
                            x       y       z     vdW  Elec       q    Type
                         _______ _______ _______ _____ _____    ______ ____

>  <TORSDO>
F 0

$$$$
=
 OpenBabel11112417403D

 28 32  0  0  1  0  0  0  0  0999 V2000
  189.3540  176.8270  145.2060 C   0  0  0  0  0  0  0  0  0  0  0  0
  194.3790  176.1910  144.3300 O   0  0  0  0  0  1  0  0  0  0  0  0
  189.0470  172.9930  142.7630 O   0  0  0  0  0  0  0  0  0  0  0  0
  188.7650  175.1730  147.3860 C   0  0  0  0  0  3  0  0  0  0  0  0
  191.1980  172.7170  143.8170 C   0  0  2  0  0  3  0  0  0  0  0  0
  189.6420  177.6070  144.0860 O   0  0  0  0  0  0  0  0  0  0  0  0
  194.2180  177.1140  146.5050 C   0  0  0  0  0  1  0  0  0  0  0  0
  194.1480  175.8520  145.6680 C   0  0  1  0  0  0  0  0  0  0  0  0
  195.1430  173.6040  145.3880 C   0  0  1  0  0  3  0  0  0  0  0  0
  192.7480  175.2010  145.8570 C   0  0  2  0  0  3  0  0  0  0  0  0
  187.6890  175.5540  142.9200 O   0  0  0  0  0  1  0  0  0  0  0  0
  191.7070  175.1250  143.6920 C   0  0  1  0  0  3  0  0  0  0  0  0
  193.8260  172.9470  145.7610 C   0  0  0  0  0  2  0  0  0  0  0  0
  195.2510  174.9170  146.1330 C   0  0  0  0  0  2  0  0  0  0  0  0
  188.5860  176.3900  142.2530 C   0  0  2  0  0  3  0  0  0  0  0  0
  190.3420  175.9680  145.7110 C   0  0  0  0  0  0  0  0  0  0  0  0
  190.1120  173.5060  143.2010 C   0  0  0  0  0  0  0  0  0  0  0  0
  196.1980  172.7710  145.7570 O   0  0  0  0  0  1  0  0  0  0  0  0
  189.9210  175.6840  141.9730 C   0  0  0  0  0  2  0  0  0  0  0  0
  190.0310  175.1320  146.7970 C   0  0  0  0  0  3  0  0  0  0  0  0
  188.0830  176.8620  145.7980 C   0  0  0  0  0  3  0  0  0  0  0  0
  187.7910  176.0410  146.8880 C   0  0  0  0  0  3  0  0  0  0  0  0
  188.7440  177.7230  142.9910 C   0  0  0  0  0  2  0  0  0  0  0  0
  192.3020  173.7510  144.0440 C   0  0  1  0  0  3  0  0  0  0  0  0
  190.3920  174.8920  143.1080 N   0  0  0  0  0  0  0  0  0  0  0  0
  192.6570  173.7850  145.4590 N   0  0  2  0  0  0  0  0  0  0  0  0
  191.6490  171.7490  142.9190 O   0  0  0  0  0  1  0  0  0  0  0  0
  191.6910  175.9120  145.0180 C   0  0  1  0  0  3  0  0  0  0  0  0
  1 16  2  0  0  0  0
  1 21  1  0  0  0  0
  2  8  1  0  0  0  0
  3 17  2  0  0  0  0
  5 27  1  6  0  0  0
  5 24  1  0  0  0  0
  6  1  1  0  0  0  0
  8 10  1  0  0  0  0
  8 14  1  0  0  0  0
  8  7  1  1  0  0  0
  9 18  1  1  0  0  0
  9 13  1  0  0  0  0
  9 14  1  0  0  0  0
 12 24  1  0  0  0  0
 12 28  1  0  0  0  0
 15 11  1  0  0  0  0
 15 23  1  0  0  0  0
 16 20  1  0  0  0  0
 17  5  1  0  0  0  0
 19 15  1  0  0  0  0
 19 25  1  0  0  0  0
 20  4  2  0  0  0  0
 21 22  2  0  0  0  0
 22  4  1  0  0  0  0
 23  6  1  0  0  0  0
 24 26  1  0  0  0  0
 25 17  1  0  0  0  0
 25 12  1  0  0  0  0
 26 13  1  0  0  0  0
 26 10  1  0  0  0  0
 28 16  1  0  0  0  0
 28 10  1  0  0  0  0
M  END
>  <MODEL>
4

>  <REMARK>
 VINA RESULT:      -7.7      2.363      6.139
  Name = 
  0 active torsions:
  status: ('A' for Active; 'I' for Inactive)
                            x       y       z     vdW  Elec       q    Type
                         _______ _______ _______ _____ _____    ______ ____

>  <TORSDO>
F 0

$$$$
=
 OpenBabel11112417403D

 28 32  0  0  1  0  0  0  0  0999 V2000
  188.5360  177.1980  144.5720 C   0  0  0  0  0  0  0  0  0  0  0  0
  193.2430  176.0410  142.8600 O   0  0  0  0  0  1  0  0  0  0  0  0
  187.4410  173.3530  142.3850 O   0  0  0  0  0  0  0  0  0  0  0  0
  188.1910  175.6660  146.8890 C   0  0  0  0  0  3  0  0  0  0  0  0
  189.7100  172.8890  143.0580 C   0  0  2  0  0  3  0  0  0  0  0  0
  188.6920  177.9160  143.3860 O   0  0  0  0  0  0  0  0  0  0  0  0
  193.5580  177.0290  144.9890 C   0  0  0  0  0  1  0  0  0  0  0  0
  193.2230  175.7600  144.2320 C   0  0  1  0  0  0  0  0  0  0  0  0
  193.9370  173.4180  143.8780 C   0  0  1  0  0  3  0  0  0  0  0  0
  191.8240  175.2570  144.6900 C   0  0  2  0  0  3  0  0  0  0  0  0
  186.3790  176.0400  142.6670 O   0  0  0  0  0  1  0  0  0  0  0  0
  190.4120  175.2310  142.7440 C   0  0  1  0  0  3  0  0  0  0  0  0
  192.6510  172.9050  144.5030 C   0  0  0  0  0  2  0  0  0  0  0  0
  194.2980  174.7310  144.5360 C   0  0  0  0  0  2  0  0  0  0  0  0
  187.2180  176.7650  141.8190 C   0  0  2  0  0  3  0  0  0  0  0  0
  189.5130  176.2560  144.9330 C   0  0  0  0  0  0  0  0  0  0  0  0
  188.6100  173.7680  142.6070 C   0  0  0  0  0  0  0  0  0  0  0  0
  194.9570  172.4930  144.0920 O   0  0  0  0  0  1  0  0  0  0  0  0
  188.4090  175.9230  141.3410 C   0  0  0  0  0  2  0  0  0  0  0  0
  189.3230  175.4830  146.0910 C   0  0  0  0  0  3  0  0  0  0  0  0
  187.3990  177.3740  145.3740 C   0  0  0  0  0  3  0  0  0  0  0  0
  187.2300  176.6140  146.5320 C   0  0  0  0  0  3  0  0  0  0  0  0
  187.6290  178.0930  142.4600 C   0  0  0  0  0  2  0  0  0  0  0  0
  190.9290  173.8130  143.0450 C   0  0  1  0  0  3  0  0  0  0  0  0
  188.9980  175.1150  142.4090 N   0  0  0  0  0  0  0  0  0  0  0  0
  191.5320  173.8480  144.3740 N   0  0  2  0  0  0  0  0  0  0  0  0
  189.9020  171.8590  142.1370 O   0  0  0  0  0  1  0  0  0  0  0  0
  190.7060  176.0490  144.0180 C   0  0  1  0  0  3  0  0  0  0  0  0
  1 16  2  0  0  0  0
  1 21  1  0  0  0  0
  2  8  1  0  0  0  0
  3 17  2  0  0  0  0
  5 27  1  6  0  0  0
  6  1  1  0  0  0  0
  8 14  1  0  0  0  0
  8 10  1  0  0  0  0
  8  7  1  1  0  0  0
  9 18  1  1  0  0  0
  9 13  1  0  0  0  0
  9 14  1  0  0  0  0
 12 24  1  0  0  0  0
 12 28  1  0  0  0  0
 15 23  1  0  0  0  0
 15 11  1  0  0  0  0
 16 20  1  0  0  0  0
 17  5  1  0  0  0  0
 19 15  1  0  0  0  0
 19 25  1  0  0  0  0
 20  4  2  0  0  0  0
 21 22  2  0  0  0  0
 22  4  1  0  0  0  0
 23  6  1  0  0  0  0
 24  5  1  0  0  0  0
 24 26  1  0  0  0  0
 25 17  1  0  0  0  0
 25 12  1  0  0  0  0
 26 13  1  0  0  0  0
 26 10  1  0  0  0  0
 28 10  1  0  0  0  0
 28 16  1  0  0  0  0
M  END
>  <MODEL>
5

>  <REMARK>
 VINA RESULT:      -7.6      2.322      6.154
  Name = 
  0 active torsions:
  status: ('A' for Active; 'I' for Inactive)
                            x       y       z     vdW  Elec       q    Type
                         _______ _______ _______ _____ _____    ______ ____

>  <TORSDO>
F 0

$$$$
=
 OpenBabel11112417403D

 28 32  0  0  1  0  0  0  0  0999 V2000
  190.4270  175.2750  144.6200 C   0  0  0  0  0  0  0  0  0  0  0  0
  185.5370  176.4330  143.5360 O   0  0  0  0  0  1  0  0  0  0  0  0
  190.1950  173.1530  140.5940 O   0  0  0  0  0  0  0  0  0  0  0  0
  191.9610  177.1650  143.2380 C   0  0  0  0  0  3  0  0  0  0  0  0
  188.6390  174.9660  140.2680 C   0  0  2  0  0  3  0  0  0  0  0  0
  189.6590  174.3030  145.2610 O   0  0  0  0  0  0  0  0  0  0  0  0
  186.4050  178.3160  144.6790 C   0  0  0  0  0  1  0  0  0  0  0  0
  186.2880  177.6000  143.3490 C   0  0  1  0  0  0  0  0  0  0  0  0
  185.5030  177.8670  141.0180 C   0  0  1  0  0  3  0  0  0  0  0  0
  187.7170  177.2800  142.8240 C   0  0  2  0  0  3  0  0  0  0  0  0
  191.2350  172.6120  143.2500 O   0  0  0  0  0  1  0  0  0  0  0  0
  187.8710  174.8900  142.6090 C   0  0  1  0  0  3  0  0  0  0  0  0
  186.9250  177.7490  140.4990 C   0  0  0  0  0  2  0  0  0  0  0  0
  185.5450  178.5110  142.3870 C   0  0  0  0  0  2  0  0  0  0  0  0
  190.0710  172.2880  143.9480 C   0  0  2  0  0  3  0  0  0  0  0  0
  189.7970  176.1740  143.7450 C   0  0  0  0  0  0  0  0  0  0  0  0
  189.3250  173.9310  141.0690 C   0  0  0  0  0  0  0  0  0  0  0  0
  184.7570  178.6640  140.1510 O   0  0  0  0  0  1  0  0  0  0  0  0
  188.8120  172.5860  143.1230 C   0  0  0  0  0  2  0  0  0  0  0  0
  190.5790  177.1100  143.0460 C   0  0  0  0  0  3  0  0  0  0  0  0
  191.8160  175.3310  144.8060 C   0  0  0  0  0  3  0  0  0  0  0  0
  192.5800  176.2770  144.1200 C   0  0  0  0  0  3  0  0  0  0  0  0
  190.0630  172.9420  145.3320 C   0  0  0  0  0  2  0  0  0  0  0  0
  187.5990  175.5310  141.2370 C   0  0  1  0  0  3  0  0  0  0  0  0
  188.8870  173.8640  142.4150 N   0  0  0  0  0  0  0  0  0  0  0  0
  187.8000  176.9690  141.3860 N   0  0  2  0  0  0  0  0  0  0  0  0
  187.9880  174.3730  139.1860 O   0  0  0  0  0  1  0  0  0  0  0  0
  188.3000  176.0550  143.5230 C   0  0  1  0  0  3  0  0  0  0  0  0
  1 21  1  0  0  0  0
  1  6  1  0  0  0  0
  3 17  2  0  0  0  0
  4 22  1  0  0  0  0
  5 27  1  6  0  0  0
  5 17  1  0  0  0  0
  5 24  1  0  0  0  0
  6 23  1  0  0  0  0
  8  2  1  0  0  0  0
  8  7  1  1  0  0  0
  9 18  1  6  0  0  0
  9 14  1  0  0  0  0
 10  8  1  0  0  0  0
 10 28  1  0  0  0  0
 11 15  1  0  0  0  0
 12 28  1  0  0  0  0
 13  9  1  0  0  0  0
 13 26  1  0  0  0  0
 14  8  1  0  0  0  0
 15 23  1  0  0  0  0
 16  1  2  0  0  0  0
 17 25  1  0  0  0  0
 19 15  1  0  0  0  0
 20  4  2  0  0  0  0
 20 16  1  0  0  0  0
 22 21  2  0  0  0  0
 24 26  1  0  0  0  0
 24 12  1  0  0  0  0
 25 12  1  0  0  0  0
 25 19  1  0  0  0  0
 26 10  1  0  0  0  0
 28 16  1  0  0  0  0
M  END
>  <MODEL>
6

>  <REMARK>
 VINA RESULT:      -7.3      2.695      4.982
  Name = 
  0 active torsions:
  status: ('A' for Active; 'I' for Inactive)
                            x       y       z     vdW  Elec       q    Type
                         _______ _______ _______ _____ _____    ______ ____

>  <TORSDO>
F 0

$$$$
=
 OpenBabel11112417403D

 28 32  0  0  1  0  0  0  0  0999 V2000
  194.5510  174.0340  145.3380 C   0  0  0  0  0  0  0  0  0  0  0  0
  189.8050  175.0360  147.0390 O   0  0  0  0  0  1  0  0  0  0  0  0
  192.3270  173.0910  141.4740 O   0  0  0  0  0  0  0  0  0  0  0  0
  195.3630  176.3510  143.9950 C   0  0  0  0  0  3  0  0  0  0  0  0
  190.9110  174.7890  142.4380 C   0  0  2  0  0  3  0  0  0  0  0  0
  194.1190  172.8620  145.9600 O   0  0  0  0  0  0  0  0  0  0  0  0
  191.2180  176.5960  148.1220 C   0  0  0  0  0  1  0  0  0  0  0  0
  190.4470  176.2670  146.8600 C   0  0  1  0  0  0  0  0  0  0  0  0
  188.6750  177.1000  145.3480 C   0  0  1  0  0  3  0  0  0  0  0  0
  191.4390  176.2240  145.6620 C   0  0  2  0  0  3  0  0  0  0  0  0
  194.4610  171.9280  143.0620 O   0  0  0  0  0  1  0  0  0  0  0  0
  191.3310  174.0070  144.7370 C   0  0  1  0  0  3  0  0  0  0  0  0
  189.6750  177.2480  144.2150 C   0  0  0  0  0  2  0  0  0  0  0  0
  189.3940  177.3430  146.6570 C   0  0  0  0  0  2  0  0  0  0  0  0
  193.7450  171.3280  144.1000 C   0  0  2  0  0  3  0  0  0  0  0  0
  193.6380  175.0830  145.1520 C   0  0  0  0  0  0  0  0  0  0  0  0
  191.8310  173.6330  142.4970 C   0  0  0  0  0  0  0  0  0  0  0  0
  187.6580  178.0410  145.1940 O   0  0  0  0  0  1  0  0  0  0  0  0
  192.2650  171.7370  144.0800 C   0  0  0  0  0  2  0  0  0  0  0  0
  194.0530  176.2370  144.4640 C   0  0  0  0  0  3  0  0  0  0  0  0
  195.8650  174.1510  144.8610 C   0  0  0  0  0  3  0  0  0  0  0  0
  196.2710  175.3090  144.1960 C   0  0  0  0  0  3  0  0  0  0  0  0
  194.4270  171.5730  145.4480 C   0  0  0  0  0  2  0  0  0  0  0  0
  190.4840  174.9770  143.8950 C   0  0  1  0  0  3  0  0  0  0  0  0
  192.0740  173.1620  143.8110 N   0  0  0  0  0  0  0  0  0  0  0  0
  190.8160  176.3300  144.3310 N   0  0  2  0  0  0  0  0  0  0  0  0
  189.7940  174.4650  141.6680 O   0  0  0  0  0  1  0  0  0  0  0  0
  192.2090  174.9070  145.6310 C   0  0  1  0  0  3  0  0  0  0  0  0
  1  6  1  0  0  0  0
  3 17  2  0  0  0  0
  4 22  2  0  0  0  0
  4 20  1  0  0  0  0
  5 27  1  6  0  0  0
  5 17  1  0  0  0  0
  5 24  1  0  0  0  0
  8  2  1  0  0  0  0
  8  7  1  1  0  0  0
  9 18  1  6  0  0  0
  9 14  1  0  0  0  0
 10  8  1  0  0  0  0
 11 15  1  0  0  0  0
 12 28  1  0  0  0  0
 13 26  1  0  0  0  0
 13  9  1  0  0  0  0
 14  8  1  0  0  0  0
 15 23  1  0  0  0  0
 16  1  1  0  0  0  0
 16 28  1  0  0  0  0
 17 25  1  0  0  0  0
 19 15  1  0  0  0  0
 20 16  2  0  0  0  0
 21  1  2  0  0  0  0
 22 21  1  0  0  0  0
 23  6  1  0  0  0  0
 24 26  1  0  0  0  0
 24 12  1  0  0  0  0
 25 19  1  0  0  0  0
 25 12  1  0  0  0  0
 26 10  1  0  0  0  0
 28 10  1  0  0  0  0
M  END
>  <MODEL>
7

>  <REMARK>
 VINA RESULT:      -7.1      2.181      4.828
  Name = 
  0 active torsions:
  status: ('A' for Active; 'I' for Inactive)
                            x       y       z     vdW  Elec       q    Type
                         _______ _______ _______ _____ _____    ______ ____

>  <TORSDO>
F 0

$$$$
=
 OpenBabel11112417403D

 28 32  0  0  1  0  0  0  0  0999 V2000
  191.0670  174.0060  142.1600 C   0  0  0  0  0  0  0  0  0  0  0  0
  189.0510  178.2770  144.1910 O   0  0  0  0  0  1  0  0  0  0  0  0
  193.1640  173.7860  146.1990 O   0  0  0  0  0  0  0  0  0  0  0  0
  189.5070  171.9040  143.1530 C   0  0  0  0  0  3  0  0  0  0  0  0
  191.1020  174.8880  146.7920 C   0  0  2  0  0  3  0  0  0  0  0  0
  191.8740  175.0520  141.7140 O   0  0  0  0  0  0  0  0  0  0  0  0
  187.3430  177.3350  142.8490 C   0  0  0  0  0  1  0  0  0  0  0  0
  188.0440  177.3050  144.1920 C   0  0  1  0  0  0  0  0  0  0  0  0
  187.6690  177.5330  146.6270 C   0  0  1  0  0  3  0  0  0  0  0  0
  188.6260  175.8800  144.4220 C   0  0  2  0  0  3  0  0  0  0  0  0
  193.8500  173.4290  143.4020 O   0  0  0  0  0  1  0  0  0  0  0  0
  191.0060  176.1210  144.6600 C   0  0  1  0  0  3  0  0  0  0  0  0
  188.0510  176.0800  146.8480 C   0  0  0  0  0  2  0  0  0  0  0  0
  187.0250  177.6570  145.2630 C   0  0  0  0  0  2  0  0  0  0  0  0
  193.9480  174.7510  142.9640 C   0  0  2  0  0  3  0  0  0  0  0  0
  190.0800  174.2690  143.1230 C   0  0  0  0  0  0  0  0  0  0  0  0
  192.2350  174.5800  145.8930 C   0  0  0  0  0  0  0  0  0  0  0  0
  186.7600  177.9270  147.6080 O   0  0  0  0  0  1  0  0  0  0  0  0
  193.4360  175.7390  144.0220 C   0  0  0  0  0  2  0  0  0  0  0  0
  189.3120  173.2050  143.6240 C   0  0  0  0  0  3  0  0  0  0  0  0
  191.2630  172.6980  141.6930 C   0  0  0  0  0  3  0  0  0  0  0  0
  190.4810  171.6510  142.1850 C   0  0  0  0  0  3  0  0  0  0  0  0
  193.2850  174.9250  141.5960 C   0  0  0  0  0  2  0  0  0  0  0  0
  190.3440  175.9850  146.0430 C   0  0  1  0  0  3  0  0  0  0  0  0
  192.2030  175.2900  144.6680 N   0  0  0  0  0  0  0  0  0  0  0  0
  188.9650  175.5620  145.8200 N   0  0  2  0  0  0  0  0  0  0  0  0
  191.5810  175.3990  147.9990 O   0  0  0  0  0  1  0  0  0  0  0  0
  189.9270  175.6850  143.6490 C   0  0  1  0  0  3  0  0  0  0  0  0
  1 16  1  0  0  0  0
  2  8  1  0  0  0  0
  4 20  1  0  0  0  0
  5 27  1  1  0  0  0
  6  1  1  0  0  0  0
  8  7  1  6  0  0  0
  8 10  1  0  0  0  0
  8 14  1  0  0  0  0
  9 13  1  0  0  0  0
  9 18  1  1  0  0  0
 10 26  1  0  0  0  0
 12 25  1  0  0  0  0
 12 24  1  0  0  0  0
 14  9  1  0  0  0  0
 15 11  1  0  0  0  0
 15 19  1  0  0  0  0
 16 20  2  0  0  0  0
 16 28  1  0  0  0  0
 17  3  2  0  0  0  0
 17  5  1  0  0  0  0
 19 25  1  0  0  0  0
 21  1  2  0  0  0  0
 21 22  1  0  0  0  0
 22  4  2  0  0  0  0
 23  6  1  0  0  0  0
 23 15  1  0  0  0  0
 24  5  1  0  0  0  0
 25 17  1  0  0  0  0
 26 24  1  0  0  0  0
 26 13  1  0  0  0  0
 28 10  1  0  0  0  0
 28 12  1  0  0  0  0
M  END
>  <MODEL>
8

>  <REMARK>
 VINA RESULT:      -7.0      1.429      1.534
  Name = 
  0 active torsions:
  status: ('A' for Active; 'I' for Inactive)
                            x       y       z     vdW  Elec       q    Type
                         _______ _______ _______ _____ _____    ______ ____

>  <TORSDO>
F 0

$$$$
=
 OpenBabel11112417403D

 28 32  0  0  1  0  0  0  0  0999 V2000
  191.0230  177.0220  144.8050 C   0  0  0  0  0  0  0  0  0  0  0  0
  195.3360  175.2200  142.6660 O   0  0  0  0  0  1  0  0  0  0  0  0
  189.6830  172.6930  144.3270 O   0  0  0  0  0  0  0  0  0  0  0  0
  191.2200  176.3850  147.5230 C   0  0  0  0  0  3  0  0  0  0  0  0
  192.0590  172.4250  144.6400 C   0  0  2  0  0  3  0  0  0  0  0  0
  190.9060  177.2870  143.4400 O   0  0  0  0  0  0  0  0  0  0  0  0
  196.0290  176.8680  144.2200 C   0  0  0  0  0  1  0  0  0  0  0  0
  195.6050  175.4260  144.0240 C   0  0  1  0  0  0  0  0  0  0  0  0
  196.3360  173.0850  144.3500 C   0  0  1  0  0  3  0  0  0  0  0  0
  194.3500  175.1490  144.9010 C   0  0  2  0  0  3  0  0  0  0  0  0
  188.5810  175.3430  143.8890 O   0  0  0  0  0  1  0  0  0  0  0  0
  192.5780  174.4980  143.4120 C   0  0  1  0  0  3  0  0  0  0  0  0
  195.2270  172.8520  145.3610 C   0  0  0  0  0  2  0  0  0  0  0  0
  196.7640  174.5340  144.4340 C   0  0  0  0  0  2  0  0  0  0  0  0
  189.1990  175.7110  142.6930 C   0  0  2  0  0  3  0  0  0  0  0  0
  192.0930  176.2340  145.2560 C   0  0  0  0  0  0  0  0  0  0  0  0
  190.8530  173.1270  144.1520 C   0  0  0  0  0  0  0  0  0  0  0  0
  197.4190  172.2610  144.6530 O   0  0  0  0  0  1  0  0  0  0  0  0
  190.3060  174.7240  142.2980 C   0  0  0  0  0  2  0  0  0  0  0  0
  192.1750  175.9090  146.6210 C   0  0  0  0  0  3  0  0  0  0  0  0
  190.0640  177.4930  145.7130 C   0  0  0  0  0  3  0  0  0  0  0  0
  190.1650  177.1790  147.0690 C   0  0  0  0  0  3  0  0  0  0  0  0
  189.6710  177.1660  142.7470 C   0  0  0  0  0  2  0  0  0  0  0  0
  193.2080  173.2550  144.0650 C   0  0  1  0  0  3  0  0  0  0  0  0
  191.1330  174.3140  143.4330 N   0  0  0  0  0  0  0  0  0  0  0  0
  194.0630  173.7250  145.1500 N   0  0  2  0  0  0  0  0  0  0  0  0
  192.1070  171.1380  144.1050 O   0  0  0  0  0  1  0  0  0  0  0  0
  193.0860  175.6940  144.2430 C   0  0  1  0  0  3  0  0  0  0  0  0
  1 16  2  0  0  0  0
  1 21  1  0  0  0  0
  2  8  1  0  0  0  0
  5 27  1  6  0  0  0
  6  1  1  0  0  0  0
  8  7  1  1  0  0  0
  8 14  1  0  0  0  0
  8 10  1  0  0  0  0
  9 14  1  0  0  0  0
  9 18  1  1  0  0  0
  9 13  1  0  0  0  0
 10 26  1  0  0  0  0
 12 25  1  0  0  0  0
 12 24  1  0  0  0  0
 12 28  1  0  0  0  0
 15 23  1  0  0  0  0
 15 11  1  0  0  0  0
 16 20  1  0  0  0  0
 17  3  2  0  0  0  0
 17  5  1  0  0  0  0
 19 15  1  0  0  0  0
 19 25  1  0  0  0  0
 20  4  2  0  0  0  0
 21 22  2  0  0  0  0
 22  4  1  0  0  0  0
 23  6  1  0  0  0  0
 24  5  1  0  0  0  0
 24 26  1  0  0  0  0
 25 17  1  0  0  0  0
 26 13  1  0  0  0  0
 28 10  1  0  0  0  0
 28 16  1  0  0  0  0
M  END
>  <MODEL>
9

>  <REMARK>
 VINA RESULT:      -7.0      2.733      6.721
  Name = 
  0 active torsions:
  status: ('A' for Active; 'I' for Inactive)
                            x       y       z     vdW  Elec       q    Type
                         _______ _______ _______ _____ _____    ______ ____

>  <TORSDO>
F 0

$$$$
