=
 OpenBabel11112416333D

 32 38  0  0  1  0  0  0  0  0999 V2000
  192.1490  174.7270  143.7290 C   0  0  1  0  0  3  0  0  0  0  0  0
  187.4930  176.9630  143.5280 C   0  0  0  0  0  0  0  0  0  0  0  0
  186.6070  178.3460  148.1380 C   0  0  0  0  0  3  0  0  0  0  0  0
  185.3410  178.7920  147.7660 C   0  0  0  0  0  3  0  0  0  0  0  0
  185.7270  177.3190  141.7850 C   0  0  0  0  0  0  0  0  0  0  0  0
  184.4490  177.7880  141.4920 C   0  0  0  0  0  0  0  0  0  0  0  0
  189.6440  175.9410  143.0000 C   0  0  0  0  0  0  0  0  0  0  0  0
  189.1920  176.6400  145.2570 C   0  0  0  0  0  3  0  0  0  0  0  0
  182.4330  178.7090  141.8580 N   0  0  0  0  0  0  0  0  0  0  0  0
  191.4220  175.6120  144.7580 C   0  0  2  0  0  3  0  0  0  0  0  0
  187.4550  177.7830  147.1840 C   0  0  0  0  0  3  0  0  0  0  0  0
  187.9100  177.0880  144.8820 C   0  0  0  0  0  0  0  0  0  0  0  0
  187.0510  177.6560  145.8410 C   0  0  0  0  0  0  0  0  0  0  0  0
  185.3390  177.9930  144.1240 C   0  0  0  0  0  0  0  0  0  0  0  0
  182.3990  178.4220  140.4820 N   0  0  0  0  0  0  0  0  0  0  0  0
  191.3370  174.3270  142.6160 O   0  0  0  0  0  0  0  0  0  0  0  0
  190.0570  176.0750  144.3240 C   0  0  0  0  0  0  0  0  0  0  0  0
  183.7160  177.8090  140.1920 C   0  0  0  0  0  3  0  0  0  0  0  0
  190.6070  175.3790  142.0160 C   0  0  0  0  0  2  0  0  0  0  0  0
  192.4900  176.2110  143.8480 C   0  0  1  0  0  3  0  0  0  0  0  0
  184.9240  178.6750  146.4400 C   0  0  0  0  0  3  0  0  0  0  0  0
  185.7650  178.1100  145.4620 C   0  0  0  0  0  0  0  0  0  0  0  0
  184.0530  178.4500  143.7570 C   0  0  0  0  0  3  0  0  0  0  0  0
  188.3860  176.3900  142.6040 C   0  0  0  0  0  3  0  0  0  0  0  0
  186.4890  176.7760  140.7560 O   0  0  0  0  0  1  0  0  0  0  0  0
  181.1060  179.4500  142.7080 Cl  0  0  0  0  0  0  0  0  0  0  0  0
  186.2030  177.4150  143.1330 C   0  0  0  0  0  0  0  0  0  0  0  0
  183.6550  178.3260  142.4360 C   0  0  0  0  0  0  0  0  0  0  0  0
  193.7290  176.3630  144.5940 N   0  0  0  0  0  2  0  0  0  0  0  0
  195.0140  176.2800  143.9750 C   0  0  0  0  0  0  0  0  0  0  0  0
  195.1510  176.0350  142.5110 C   0  0  0  0  0  1  0  0  0  0  0  0
  196.0480  176.4180  144.6760 O   0  0  0  0  0  0  0  0  0  0  0  0
  1 16  1  6  0  0  0
  1 20  1  0  0  0  0
  1 10  1  0  0  0  0
  2 12  1  0  0  0  0
  4  3  1  0  0  0  0
  5 27  1  0  0  0  0
  6  5  2  0  0  0  0
  6 28  1  0  0  0  0
  7 17  1  0  0  0  0
  9 28  1  0  0  0  0
  9 26  1  0  0  0  0
 10 17  1  6  0  0  0
 11  3  2  0  0  0  0
 12  8  1  0  0  0  0
 12 13  2  0  0  0  0
 13 11  1  0  0  0  0
 14 22  2  0  0  0  0
 15  9  1  0  0  0  0
 17  8  2  0  0  0  0
 18 15  2  0  0  0  0
 18  6  1  0  0  0  0
 19 16  1  0  0  0  0
 19  7  1  0  0  0  0
 20 29  1  1  0  0  0
 20 10  1  0  0  0  0
 21  4  2  0  0  0  0
 22 13  1  0  0  0  0
 22 21  1  0  0  0  0
 23 14  1  0  0  0  0
 24  7  2  0  0  0  0
 24  2  1  0  0  0  0
 25  5  1  0  0  0  0
 27  2  2  0  0  0  0
 27 14  1  0  0  0  0
 28 23  2  0  0  0  0
 30 29  1  0  0  0  0
 30 32  2  0  0  0  0
 31 30  1  0  0  0  0
M  END
>  <MODEL>
1

>  <REMARK>
 VINA RESULT:      -9.3      0.000      0.000
  Name = 
  1 active torsions:
  status: ('A' for Active; 'I' for Inactive)
    1  A    between atoms: C_20  and  N_29
                            x       y       z     vdW  Elec       q    Type
                         _______ _______ _______ _____ _____    ______ ____

>  <TORSDO>
F 1

$$$$
=
 OpenBabel11112416333D

 32 38  0  0  1  0  0  0  0  0999 V2000
  190.3110  172.0600  139.5200 C   0  0  1  0  0  3  0  0  0  0  0  0
  188.7280  175.3270  143.2000 C   0  0  0  0  0  0  0  0  0  0  0  0
  192.1670  175.0140  146.6670 C   0  0  0  0  0  3  0  0  0  0  0  0
  191.4360  175.8800  147.4770 C   0  0  0  0  0  3  0  0  0  0  0  0
  186.7170  176.7700  143.6010 C   0  0  0  0  0  0  0  0  0  0  0  0
  186.0470  177.6300  144.4660 C   0  0  0  0  0  0  0  0  0  0  0  0
  189.0240  174.0660  141.1330 C   0  0  0  0  0  0  0  0  0  0  0  0
  190.7080  173.9370  142.8460 C   0  0  0  0  0  3  0  0  0  0  0  0
  185.6620  178.8290  146.3270 N   0  0  0  0  0  0  0  0  0  0  0  0
  191.0640  172.6380  140.7330 C   0  0  2  0  0  3  0  0  0  0  0  0
  191.6810  174.6610  145.4090 C   0  0  0  0  0  3  0  0  0  0  0  0
  189.9680  174.8100  143.6670 C   0  0  0  0  0  0  0  0  0  0  0  0
  190.4550  175.1690  144.9380 C   0  0  0  0  0  0  0  0  0  0  0  0
  188.4820  176.5710  145.3090 C   0  0  0  0  0  0  0  0  0  0  0  0
  184.5350  179.1110  145.5340 N   0  0  0  0  0  0  0  0  0  0  0  0
  188.9050  172.3440  139.5080 O   0  0  0  0  0  0  0  0  0  0  0  0
  190.2440  173.5690  141.5850 C   0  0  0  0  0  0  0  0  0  0  0  0
  184.7450  178.3380  144.2890 C   0  0  0  0  0  3  0  0  0  0  0  0
  188.5780  173.6950  139.7640 C   0  0  0  0  0  2  0  0  0  0  0  0
  191.2640  173.2410  139.3450 C   0  0  1  0  0  3  0  0  0  0  0  0
  190.2200  176.3940  147.0260 C   0  0  0  0  0  3  0  0  0  0  0  0
  189.7120  176.0500  145.7590 C   0  0  0  0  0  0  0  0  0  0  0  0
  187.7500  177.4490  146.1380 C   0  0  0  0  0  3  0  0  0  0  0  0
  188.2820  174.9420  141.9220 C   0  0  0  0  0  3  0  0  0  0  0  0
  186.1410  176.4860  142.3670 O   0  0  0  0  0  1  0  0  0  0  0  0
  185.9020  179.5030  147.9140 Cl  0  0  0  0  0  0  0  0  0  0  0  0
  187.9710  176.2150  144.0150 C   0  0  0  0  0  0  0  0  0  0  0  0
  186.5440  177.9510  145.6760 C   0  0  0  0  0  0  0  0  0  0  0  0
  192.5210  172.7690  138.7910 N   0  0  0  0  0  2  0  0  0  0  0  0
  193.7570  173.4590  138.9890 C   0  0  0  0  0  0  0  0  0  0  0  0
  193.8180  174.7140  139.7920 C   0  0  0  0  0  1  0  0  0  0  0  0
  194.8110  173.0000  138.4810 O   0  0  0  0  0  0  0  0  0  0  0  0
  1 16  1  1  0  0  0
  1 10  1  0  0  0  0
  2 12  1  0  0  0  0
  2 27  1  0  0  0  0
  3  4  1  0  0  0  0
  5 27  2  0  0  0  0
  5  6  1  0  0  0  0
  6 28  2  0  0  0  0
  7 17  2  0  0  0  0
  7 24  1  0  0  0  0
  8 12  2  0  0  0  0
  9 26  1  0  0  0  0
 10 17  1  1  0  0  0
 11  3  2  0  0  0  0
 12 13  1  0  0  0  0
 13 11  1  0  0  0  0
 13 22  2  0  0  0  0
 14 22  1  0  0  0  0
 14 23  2  0  0  0  0
 15  9  1  0  0  0  0
 16 19  1  0  0  0  0
 17  8  1  0  0  0  0
 18  6  1  0  0  0  0
 18 15  2  0  0  0  0
 19  7  1  0  0  0  0
 20 29  1  6  0  0  0
 20  1  1  0  0  0  0
 20 10  1  0  0  0  0
 21  4  2  0  0  0  0
 22 21  1  0  0  0  0
 24  2  2  0  0  0  0
 25  5  1  0  0  0  0
 27 14  1  0  0  0  0
 28 23  1  0  0  0  0
 28  9  1  0  0  0  0
 29 30  1  0  0  0  0
 30 31  1  0  0  0  0
 32 30  2  0  0  0  0
M  END
>  <MODEL>
2

>  <REMARK>
 VINA RESULT:      -9.1      3.181      4.722
  Name = 
  1 active torsions:
  status: ('A' for Active; 'I' for Inactive)
    1  A    between atoms: C_20  and  N_29
                            x       y       z     vdW  Elec       q    Type
                         _______ _______ _______ _____ _____    ______ ____

>  <TORSDO>
F 1

$$$$
=
 OpenBabel11112416333D

 32 38  0  0  1  0  0  0  0  0999 V2000
  185.0550  177.3480  146.6430 C   0  0  1  0  0  3  0  0  0  0  0  0
  189.6910  175.9700  144.8220 C   0  0  0  0  0  0  0  0  0  0  0  0
  188.7360  173.9470  140.4690 C   0  0  0  0  0  3  0  0  0  0  0  0
  190.0840  173.6330  140.3140 C   0  0  0  0  0  3  0  0  0  0  0  0
  192.0500  175.9880  145.6690 C   0  0  0  0  0  0  0  0  0  0  0  0
  193.3790  175.6420  145.4400 C   0  0  0  0  0  0  0  0  0  0  0  0
  187.8490  176.9270  146.1030 C   0  0  0  0  0  0  0  0  0  0  0  0
  187.4050  175.9380  143.9550 C   0  0  0  0  0  3  0  0  0  0  0  0
  195.1530  174.7870  144.3570 N   0  0  0  0  0  0  0  0  0  0  0  0
  185.4840  176.9240  145.2270 C   0  0  2  0  0  3  0  0  0  0  0  0
  188.3020  174.6020  141.6210 C   0  0  0  0  0  3  0  0  0  0  0  0
  188.7670  175.6170  143.7990 C   0  0  0  0  0  0  0  0  0  0  0  0
  189.2100  174.9560  142.6380 C   0  0  0  0  0  0  0  0  0  0  0  0
  191.5070  174.9820  143.4860 C   0  0  0  0  0  0  0  0  0  0  0  0
  195.7210  175.2860  145.5420 N   0  0  0  0  0  0  0  0  0  0  0  0
  186.0650  177.1700  147.6450 O   0  0  0  0  0  0  0  0  0  0  0  0
  186.9460  176.5920  145.0960 C   0  0  0  0  0  0  0  0  0  0  0  0
  194.5830  175.8630  146.2940 C   0  0  0  0  0  3  0  0  0  0  0  0
  187.3390  177.6680  147.2870 C   0  0  0  0  0  2  0  0  0  0  0  0
  185.3130  178.4020  145.5690 C   0  0  1  0  0  3  0  0  0  0  0  0
  190.9980  173.9760  141.3110 C   0  0  0  0  0  3  0  0  0  0  0  0
  190.5800  174.6380  142.4810 C   0  0  0  0  0  0  0  0  0  0  0  0
  192.8720  174.6610  143.3180 C   0  0  0  0  0  3  0  0  0  0  0  0
  189.2030  176.6320  145.9630 C   0  0  0  0  0  3  0  0  0  0  0  0
  191.7270  176.6410  146.8540 O   0  0  0  0  0  1  0  0  0  0  0  0
  196.0820  174.0000  143.1130 Cl  0  0  0  0  0  0  0  0  0  0  0  0
  191.0720  175.6580  144.6760 C   0  0  0  0  0  0  0  0  0  0  0  0
  193.7660  175.0090  144.3170 C   0  0  0  0  0  0  0  0  0  0  0  0
  184.0440  178.8750  145.0410 N   0  0  0  0  0  2  0  0  0  0  0  0
  183.7480  178.8840  143.6430 C   0  0  0  0  0  0  0  0  0  0  0  0
  184.7400  178.3960  142.6420 C   0  0  0  0  0  1  0  0  0  0  0  0
  182.6330  179.3080  143.2490 O   0  0  0  0  0  0  0  0  0  0  0  0
  1 16  1  1  0  0  0
  2 24  1  0  0  0  0
  3 11  1  0  0  0  0
  4  3  2  0  0  0  0
  4 21  1  0  0  0  0
  5 25  1  0  0  0  0
  6  5  1  0  0  0  0
  6 18  1  0  0  0  0
  7 19  1  0  0  0  0
  8 17  2  0  0  0  0
  9 15  1  0  0  0  0
 10 17  1  1  0  0  0
 10 20  1  0  0  0  0
 10  1  1  0  0  0  0
 11 13  2  0  0  0  0
 12  8  1  0  0  0  0
 12  2  2  0  0  0  0
 13 12  1  0  0  0  0
 14 27  1  0  0  0  0
 15 18  2  0  0  0  0
 17  7  1  0  0  0  0
 19 16  1  0  0  0  0
 20 29  1  6  0  0  0
 20  1  1  0  0  0  0
 21 22  2  0  0  0  0
 22 13  1  0  0  0  0
 22 14  1  0  0  0  0
 23 14  2  0  0  0  0
 23 28  1  0  0  0  0
 24  7  2  0  0  0  0
 26  9  1  0  0  0  0
 27  2  1  0  0  0  0
 27  5  2  0  0  0  0
 28  9  1  0  0  0  0
 28  6  2  0  0  0  0
 30 29  1  0  0  0  0
 31 30  1  0  0  0  0
 32 30  2  0  0  0  0
M  END
>  <MODEL>
3

>  <REMARK>
 VINA RESULT:      -8.8      3.648      8.938
  Name = 
  1 active torsions:
  status: ('A' for Active; 'I' for Inactive)
    1  A    between atoms: C_20  and  N_29
                            x       y       z     vdW  Elec       q    Type
                         _______ _______ _______ _____ _____    ______ ____

>  <TORSDO>
F 1

$$$$
=
 OpenBabel11112416333D

 32 38  0  0  1  0  0  0  0  0999 V2000
  185.8980  179.0310  143.1370 C   0  0  1  0  0  3  0  0  0  0  0  0
  189.4320  175.3070  142.5320 C   0  0  0  0  0  0  0  0  0  0  0  0
  192.1480  175.5350  146.5960 C   0  0  0  0  0  3  0  0  0  0  0  0
  192.9860  174.5410  146.0970 C   0  0  0  0  0  3  0  0  0  0  0  0
  190.0650  173.6860  140.7280 C   0  0  0  0  0  0  0  0  0  0  0  0
  190.9460  172.6970  140.3000 C   0  0  0  0  0  0  0  0  0  0  0  0
  187.5020  176.7850  142.3230 C   0  0  0  0  0  0  0  0  0  0  0  0
  188.8450  176.8710  144.3180 C   0  0  0  0  0  3  0  0  0  0  0  0
  192.7010  171.2940  140.3750 N   0  0  0  0  0  0  0  0  0  0  0  0
  186.8620  178.3950  144.1560 C   0  0  2  0  0  3  0  0  0  0  0  0
  191.0610  175.9730  145.8400 C   0  0  0  0  0  3  0  0  0  0  0  0
  189.6940  175.8680  143.8130 C   0  0  0  0  0  0  0  0  0  0  0  0
  190.7930  175.4230  144.5720 C   0  0  0  0  0  0  0  0  0  0  0  0
  191.3950  173.8470  142.7970 C   0  0  0  0  0  0  0  0  0  0  0  0
  192.1250  171.0070  139.1240 N   0  0  0  0  0  0  0  0  0  0  0  0
  186.1380  178.6450  141.7770 O   0  0  0  0  0  0  0  0  0  0  0  0
  187.7520  177.3250  143.5830 C   0  0  0  0  0  0  0  0  0  0  0  0
  190.9570  171.9140  139.0290 C   0  0  0  0  0  3  0  0  0  0  0  0
  186.3010  177.2550  141.5830 C   0  0  0  0  0  2  0  0  0  0  0  0
  185.4030  177.9480  144.0940 C   0  0  1  0  0  3  0  0  0  0  0  0
  192.7360  173.9840  144.8420 C   0  0  0  0  0  3  0  0  0  0  0  0
  191.6430  174.4120  144.0640 C   0  0  0  0  0  0  0  0  0  0  0  0
  192.2500  172.8380  142.3010 C   0  0  0  0  0  3  0  0  0  0  0  0
  188.3220  175.7820  141.8100 C   0  0  0  0  0  3  0  0  0  0  0  0
  189.0120  174.0460  139.8930 O   0  0  0  0  0  1  0  0  0  0  0  0
  194.1200  170.4870  140.9760 Cl  0  0  0  0  0  0  0  0  0  0  0  0
  190.2780  174.2900  142.0100 C   0  0  0  0  0  0  0  0  0  0  0  0
  191.9870  172.2960  141.0540 C   0  0  0  0  0  0  0  0  0  0  0  0
  184.6640  178.5660  145.1820 N   0  0  0  0  0  2  0  0  0  0  0  0
  184.7330  178.0890  146.5270 C   0  0  0  0  0  0  0  0  0  0  0  0
  185.5850  176.9200  146.8880 C   0  0  0  0  0  1  0  0  0  0  0  0
  184.0660  178.6660  147.4230 O   0  0  0  0  0  0  0  0  0  0  0  0
  1 16  1  6  0  0  0
  1 20  1  0  0  0  0
  1 10  1  0  0  0  0
  2 12  1  0  0  0  0
  4  3  1  0  0  0  0
  5 27  1  0  0  0  0
  6  5  2  0  0  0  0
  6 28  1  0  0  0  0
  7 17  1  0  0  0  0
  9 26  1  0  0  0  0
  9 28  1  0  0  0  0
 10 17  1  6  0  0  0
 11  3  2  0  0  0  0
 12  8  1  0  0  0  0
 12 13  2  0  0  0  0
 13 11  1  0  0  0  0
 14 22  2  0  0  0  0
 15  9  1  0  0  0  0
 17  8  2  0  0  0  0
 18 15  2  0  0  0  0
 18  6  1  0  0  0  0
 19 16  1  0  0  0  0
 19  7  1  0  0  0  0
 20 10  1  0  0  0  0
 20 29  1  1  0  0  0
 21  4  2  0  0  0  0
 22 13  1  0  0  0  0
 22 21  1  0  0  0  0
 23 14  1  0  0  0  0
 24  7  2  0  0  0  0
 24  2  1  0  0  0  0
 25  5  1  0  0  0  0
 27  2  2  0  0  0  0
 27 14  1  0  0  0  0
 28 23  2  0  0  0  0
 29 30  1  0  0  0  0
 30 31  1  0  0  0  0
 30 32  2  0  0  0  0
M  END
>  <MODEL>
4

>  <REMARK>
 VINA RESULT:      -8.6      4.073      8.037
  Name = 
  1 active torsions:
  status: ('A' for Active; 'I' for Inactive)
    1  A    between atoms: C_20  and  N_29
                            x       y       z     vdW  Elec       q    Type
                         _______ _______ _______ _____ _____    ______ ____

>  <TORSDO>
F 1

$$$$
=
 OpenBabel11112416333D

 32 38  0  0  1  0  0  0  0  0999 V2000
  185.5140  177.1430  144.7320 C   0  0  1  0  0  3  0  0  0  0  0  0
  190.2060  175.7320  143.0840 C   0  0  0  0  0  0  0  0  0  0  0  0
  189.3210  172.5080  139.5100 C   0  0  0  0  0  3  0  0  0  0  0  0
  190.6890  172.2850  139.3670 C   0  0  0  0  0  3  0  0  0  0  0  0
  192.5770  176.1920  143.7550 C   0  0  0  0  0  0  0  0  0  0  0  0
  193.9260  175.9160  143.5510 C   0  0  0  0  0  0  0  0  0  0  0  0
  188.3180  176.8380  144.1630 C   0  0  0  0  0  0  0  0  0  0  0  0
  187.9080  175.2590  142.3950 C   0  0  0  0  0  3  0  0  0  0  0  0
  195.7410  174.9560  142.6380 N   0  0  0  0  0  0  0  0  0  0  0  0
  185.9390  176.3840  143.4620 C   0  0  2  0  0  3  0  0  0  0  0  0
  188.8610  173.4150  140.4640 C   0  0  0  0  0  3  0  0  0  0  0  0
  189.2900  175.0300  142.2520 C   0  0  0  0  0  0  0  0  0  0  0  0
  189.7600  174.1150  141.2910 C   0  0  0  0  0  0  0  0  0  0  0  0
  192.0680  174.5780  141.9630 C   0  0  0  0  0  0  0  0  0  0  0  0
  196.2940  175.8120  143.6080 N   0  0  0  0  0  0  0  0  0  0  0  0
  186.5700  177.3390  145.6840 O   0  0  0  0  0  0  0  0  0  0  0  0
  187.4220  176.1600  143.3400 C   0  0  0  0  0  0  0  0  0  0  0  0
  195.1280  176.4700  144.2400 C   0  0  0  0  0  3  0  0  0  0  0  0
  187.7740  177.8290  145.1290 C   0  0  0  0  0  2  0  0  0  0  0  0
  185.6300  177.8780  143.3990 C   0  0  1  0  0  3  0  0  0  0  0  0
  191.5940  172.9700  140.1780 C   0  0  0  0  0  3  0  0  0  0  0  0
  191.1490  173.8890  141.1460 C   0  0  0  0  0  0  0  0  0  0  0  0
  193.4530  174.3450  141.8090 C   0  0  0  0  0  3  0  0  0  0  0  0
  189.6900  176.6370  144.0300 C   0  0  0  0  0  3  0  0  0  0  0  0
  192.2280  177.1160  144.7340 O   0  0  0  0  0  1  0  0  0  0  0  0
  196.7050  173.9420  141.6030 Cl  0  0  0  0  0  0  0  0  0  0  0  0
  191.6060  175.5150  142.9490 C   0  0  0  0  0  0  0  0  0  0  0  0
  194.3390  175.0340  142.6220 C   0  0  0  0  0  0  0  0  0  0  0  0
  184.3030  178.0720  142.8380 N   0  0  0  0  0  2  0  0  0  0  0  0
  184.0750  178.2160  141.4340 C   0  0  0  0  0  0  0  0  0  0  0  0
  185.2030  178.1690  140.4610 C   0  0  0  0  0  1  0  0  0  0  0  0
  182.9030  178.3840  141.0120 O   0  0  0  0  0  0  0  0  0  0  0  0
  1 16  1  1  0  0  0
  2 24  1  0  0  0  0
  3 11  1  0  0  0  0
  4  3  2  0  0  0  0
  4 21  1  0  0  0  0
  5 25  1  0  0  0  0
  6  5  1  0  0  0  0
  6 18  1  0  0  0  0
  7 19  1  0  0  0  0
  8 17  2  0  0  0  0
  9 15  1  0  0  0  0
 10 17  1  1  0  0  0
 10  1  1  0  0  0  0
 11 13  2  0  0  0  0
 12  8  1  0  0  0  0
 12  2  2  0  0  0  0
 13 12  1  0  0  0  0
 14 27  1  0  0  0  0
 15 18  2  0  0  0  0
 17  7  1  0  0  0  0
 19 16  1  0  0  0  0
 20 29  1  6  0  0  0
 20 10  1  0  0  0  0
 20  1  1  0  0  0  0
 21 22  2  0  0  0  0
 22 13  1  0  0  0  0
 22 14  1  0  0  0  0
 23 14  2  0  0  0  0
 23 28  1  0  0  0  0
 24  7  2  0  0  0  0
 26  9  1  0  0  0  0
 27  2  1  0  0  0  0
 27  5  2  0  0  0  0
 28  9  1  0  0  0  0
 28  6  2  0  0  0  0
 30 29  1  0  0  0  0
 31 30  1  0  0  0  0
 32 30  2  0  0  0  0
M  END
>  <MODEL>
5

>  <REMARK>
 VINA RESULT:      -8.5      3.680      9.131
  Name = 
  1 active torsions:
  status: ('A' for Active; 'I' for Inactive)
    1  A    between atoms: C_20  and  N_29
                            x       y       z     vdW  Elec       q    Type
                         _______ _______ _______ _____ _____    ______ ____

>  <TORSDO>
F 1

$$$$
=
 OpenBabel11112416333D

 32 38  0  0  1  0  0  0  0  0999 V2000
  195.6640  175.1460  144.8830 C   0  0  1  0  0  3  0  0  0  0  0  0
  190.6130  176.2250  145.0780 C   0  0  0  0  0  0  0  0  0  0  0  0
  188.8330  174.4810  140.8660 C   0  0  0  0  0  3  0  0  0  0  0  0
  187.5730  174.9820  141.1860 C   0  0  0  0  0  3  0  0  0  0  0  0
  189.0790  177.4470  146.6390 C   0  0  0  0  0  0  0  0  0  0  0  0
  187.7920  177.9160  146.8880 C   0  0  0  0  0  0  0  0  0  0  0  0
  192.9730  175.8800  145.5890 C   0  0  0  0  0  0  0  0  0  0  0  0
  192.0730  175.0210  143.5300 C   0  0  0  0  0  3  0  0  0  0  0  0
  185.6080  178.3000  146.5240 N   0  0  0  0  0  0  0  0  0  0  0  0
  194.4990  174.6280  144.0210 C   0  0  2  0  0  3  0  0  0  0  0  0
  189.8990  174.6630  141.7480 C   0  0  0  0  0  3  0  0  0  0  0  0
  190.8000  175.5300  143.8510 C   0  0  0  0  0  0  0  0  0  0  0  0
  189.7220  175.3490  142.9650 C   0  0  0  0  0  0  0  0  0  0  0  0
  188.2410  176.5470  144.5030 C   0  0  0  0  0  0  0  0  0  0  0  0
  185.8260  178.8990  147.7770 N   0  0  0  0  0  0  0  0  0  0  0  0
  195.3120  176.2210  145.7660 O   0  0  0  0  0  0  0  0  0  0  0  0
  193.1540  175.1890  144.3930 C   0  0  0  0  0  0  0  0  0  0  0  0
  187.2610  178.6710  148.0610 C   0  0  0  0  0  3  0  0  0  0  0  0
  194.1320  176.0020  146.5130 C   0  0  0  0  0  2  0  0  0  0  0  0
  195.0460  173.7790  145.1660 C   0  0  1  0  0  3  0  0  0  0  0  0
  187.3800  175.6630  142.3880 C   0  0  0  0  0  3  0  0  0  0  0  0
  188.4420  175.8570  143.2910 C   0  0  0  0  0  0  0  0  0  0  0  0
  186.9600  177.0490  144.8180 C   0  0  0  0  0  3  0  0  0  0  0  0
  191.7190  176.3800  145.9330 C   0  0  0  0  0  3  0  0  0  0  0  0
  190.0680  177.6840  147.5890 O   0  0  0  0  0  1  0  0  0  0  0  0
  184.0590  178.2910  145.7300 Cl  0  0  0  0  0  0  0  0  0  0  0  0
  189.3310  176.7400  145.4190 C   0  0  0  0  0  0  0  0  0  0  0  0
  186.7850  177.7240  146.0160 C   0  0  0  0  0  0  0  0  0  0  0  0
  195.9060  172.7390  144.6260 N   0  0  0  0  0  2  0  0  0  0  0  0
  195.7010  171.3520  144.9010 C   0  0  0  0  0  0  0  0  0  0  0  0
  194.5740  170.8950  145.7630 C   0  0  0  0  0  1  0  0  0  0  0  0
  196.4830  170.5000  144.4070 O   0  0  0  0  0  0  0  0  0  0  0  0
  1 20  1  0  0  0  0
  1 16  1  1  0  0  0
  2 27  1  0  0  0  0
  2 24  1  0  0  0  0
  3  4  2  0  0  0  0
  3 11  1  0  0  0  0
  4 21  1  0  0  0  0
  5  6  1  0  0  0  0
  5 25  1  0  0  0  0
  6 18  1  0  0  0  0
  7 24  2  0  0  0  0
  7 19  1  0  0  0  0
  8 12  1  0  0  0  0
  8 17  2  0  0  0  0
  9 15  1  0  0  0  0
 10 17  1  1  0  0  0
 10  1  1  0  0  0  0
 10 20  1  0  0  0  0
 11 13  2  0  0  0  0
 12  2  2  0  0  0  0
 13 22  1  0  0  0  0
 13 12  1  0  0  0  0
 14 23  2  0  0  0  0
 14 27  1  0  0  0  0
 15 18  2  0  0  0  0
 16 19  1  0  0  0  0
 17  7  1  0  0  0  0
 20 29  1  6  0  0  0
 21 22  2  0  0  0  0
 22 14  1  0  0  0  0
 23 28  1  0  0  0  0
 26  9  1  0  0  0  0
 27  5  2  0  0  0  0
 28  9  1  0  0  0  0
 28  6  2  0  0  0  0
 29 30  1  0  0  0  0
 30 31  1  0  0  0  0
 32 30  2  0  0  0  0
M  END
>  <MODEL>
6

>  <REMARK>
 VINA RESULT:      -8.5      3.130      5.432
  Name = 
  1 active torsions:
  status: ('A' for Active; 'I' for Inactive)
    1  A    between atoms: C_20  and  N_29
                            x       y       z     vdW  Elec       q    Type
                         _______ _______ _______ _____ _____    ______ ____

>  <TORSDO>
F 1

$$$$
=
 OpenBabel11112416333D

 32 38  0  0  1  0  0  0  0  0999 V2000
  185.8110  178.5420  141.3450 C   0  0  1  0  0  3  0  0  0  0  0  0
  189.6390  175.7420  143.3990 C   0  0  0  0  0  0  0  0  0  0  0  0
  190.2010  177.5680  147.9050 C   0  0  0  0  0  3  0  0  0  0  0  0
  191.2800  176.7150  148.1210 C   0  0  0  0  0  3  0  0  0  0  0  0
  191.1930  173.9410  142.6090 C   0  0  0  0  0  0  0  0  0  0  0  0
  192.2790  173.1200  142.9010 C   0  0  0  0  0  0  0  0  0  0  0  0
  187.8530  176.6210  141.9890 C   0  0  0  0  0  0  0  0  0  0  0  0
  188.1400  177.4950  144.2120 C   0  0  0  0  0  3  0  0  0  0  0  0
  193.9600  172.2380  144.1030 N   0  0  0  0  0  0  0  0  0  0  0  0
  186.2810  178.4150  142.8060 C   0  0  2  0  0  3  0  0  0  0  0  0
  189.5260  177.5410  146.6840 C   0  0  0  0  0  3  0  0  0  0  0  0
  189.2340  176.6350  144.4300 C   0  0  0  0  0  0  0  0  0  0  0  0
  189.9190  176.6590  145.6590 C   0  0  0  0  0  0  0  0  0  0  0  0
  191.4270  174.9010  144.8670 C   0  0  0  0  0  0  0  0  0  0  0  0
  194.0420  171.5350  142.8880 N   0  0  0  0  0  0  0  0  0  0  0  0
  186.6770  177.9160  140.3890 O   0  0  0  0  0  0  0  0  0  0  0  0
  187.4490  177.4860  143.0020 C   0  0  0  0  0  0  0  0  0  0  0  0
  192.9470  172.0850  142.0570 C   0  0  0  0  0  3  0  0  0  0  0  0
  187.0660  176.6000  140.7270 C   0  0  0  0  0  2  0  0  0  0  0  0
  185.0660  177.6300  142.3180 C   0  0  1  0  0  3  0  0  0  0  0  0
  191.6840  175.8350  147.1160 C   0  0  0  0  0  3  0  0  0  0  0  0
  191.0150  175.7920  145.8780 C   0  0  0  0  0  0  0  0  0  0  0  0
  192.5220  174.0390  145.0970 C   0  0  0  0  0  3  0  0  0  0  0  0
  188.9240  175.7520  142.1880 C   0  0  0  0  0  3  0  0  0  0  0  0
  190.5920  173.8300  141.3590 O   0  0  0  0  0  1  0  0  0  0  0  0
  195.0420  171.9610  145.4380 Cl  0  0  0  0  0  0  0  0  0  0  0  0
  190.7390  174.8630  143.6060 C   0  0  0  0  0  0  0  0  0  0  0  0
  192.9090  173.1710  144.0890 C   0  0  0  0  0  0  0  0  0  0  0  0
  183.8530  178.2910  142.7680 N   0  0  0  0  0  2  0  0  0  0  0  0
  182.7040  178.4420  141.9310 C   0  0  0  0  0  0  0  0  0  0  0  0
  182.6910  177.9160  140.5360 C   0  0  0  0  0  1  0  0  0  0  0  0
  181.6850  179.0270  142.3780 O   0  0  0  0  0  0  0  0  0  0  0  0
  1 16  1  6  0  0  0
  1 20  1  0  0  0  0
  1 10  1  0  0  0  0
  2 27  2  0  0  0  0
  2 12  1  0  0  0  0
  3  4  1  0  0  0  0
  5  6  2  0  0  0  0
  5 27  1  0  0  0  0
  6 28  1  0  0  0  0
  7 24  2  0  0  0  0
  7 17  1  0  0  0  0
  8 12  1  0  0  0  0
  9 26  1  0  0  0  0
 10 17  1  6  0  0  0
 11  3  2  0  0  0  0
 12 13  2  0  0  0  0
 13 22  1  0  0  0  0
 13 11  1  0  0  0  0
 14 23  1  0  0  0  0
 14 22  2  0  0  0  0
 15  9  1  0  0  0  0
 16 19  1  0  0  0  0
 17  8  2  0  0  0  0
 18 15  2  0  0  0  0
 18  6  1  0  0  0  0
 19  7  1  0  0  0  0
 20 29  1  1  0  0  0
 20 10  1  0  0  0  0
 21  4  2  0  0  0  0
 22 21  1  0  0  0  0
 24  2  1  0  0  0  0
 25  5  1  0  0  0  0
 27 14  1  0  0  0  0
 28  9  1  0  0  0  0
 28 23  2  0  0  0  0
 30 32  2  0  0  0  0
 30 29  1  0  0  0  0
 31 30  1  0  0  0  0
M  END
>  <MODEL>
7

>  <REMARK>
 VINA RESULT:      -8.5      3.759      8.337
  Name = 
  1 active torsions:
  status: ('A' for Active; 'I' for Inactive)
    1  A    between atoms: C_20  and  N_29
                            x       y       z     vdW  Elec       q    Type
                         _______ _______ _______ _____ _____    ______ ____

>  <TORSDO>
F 1

$$$$
=
 OpenBabel11112416333D

 32 38  0  0  1  0  0  0  0  0999 V2000
  192.2770  170.2420  142.9860 C   0  0  1  0  0  3  0  0  0  0  0  0
  189.6520  174.6390  143.6860 C   0  0  0  0  0  0  0  0  0  0  0  0
  191.2810  176.3600  147.9670 C   0  0  0  0  0  3  0  0  0  0  0  0
  190.3730  177.4140  147.8950 C   0  0  0  0  0  3  0  0  0  0  0  0
  187.8190  175.8650  142.4940 C   0  0  0  0  0  0  0  0  0  0  0  0
  186.9420  176.9460  142.4930 C   0  0  0  0  0  0  0  0  0  0  0  0
  190.6500  172.6060  142.7800 C   0  0  0  0  0  0  0  0  0  0  0  0
  191.4440  173.4770  144.8770 C   0  0  0  0  0  3  0  0  0  0  0  0
  185.9420  178.8190  143.2300 N   0  0  0  0  0  0  0  0  0  0  0  0
  192.5110  171.3960  143.9770 C   0  0  2  0  0  3  0  0  0  0  0  0
  191.3300  175.4110  146.9460 C   0  0  0  0  0  3  0  0  0  0  0  0
  190.5240  174.5420  144.8050 C   0  0  0  0  0  0  0  0  0  0  0  0
  190.4710  175.5010  145.8340 C   0  0  0  0  0  0  0  0  0  0  0  0
  188.6800  176.6820  144.6540 C   0  0  0  0  0  0  0  0  0  0  0  0
  185.2840  178.5720  142.0120 N   0  0  0  0  0  0  0  0  0  0  0  0
  191.0420  170.3260  142.2620 O   0  0  0  0  0  0  0  0  0  0  0  0
  191.5130  172.5170  143.8700 C   0  0  0  0  0  0  0  0  0  0  0  0
  185.9130  177.3390  141.4850 C   0  0  0  0  0  3  0  0  0  0  0  0
  190.7800  171.5950  141.6970 C   0  0  0  0  0  2  0  0  0  0  0  0
  193.3330  171.3060  142.6930 C   0  0  1  0  0  3  0  0  0  0  0  0
  189.5150  177.5190  146.7990 C   0  0  0  0  0  3  0  0  0  0  0  0
  189.5490  176.5720  145.7580 C   0  0  0  0  0  0  0  0  0  0  0  0
  187.7640  177.7550  144.5900 C   0  0  0  0  0  3  0  0  0  0  0  0
  189.7420  173.6580  142.6820 C   0  0  0  0  0  3  0  0  0  0  0  0
  187.7830  174.9780  141.4230 O   0  0  0  0  0  1  0  0  0  0  0  0
  185.5680  180.1740  144.2560 Cl  0  0  0  0  0  0  0  0  0  0  0  0
  188.7210  175.7110  143.5960 C   0  0  0  0  0  0  0  0  0  0  0  0
  186.9190  177.8450  143.4950 C   0  0  0  0  0  0  0  0  0  0  0  0
  194.6510  170.7760  143.0010 N   0  0  0  0  0  2  0  0  0  0  0  0
  195.7570  171.6150  143.3390 C   0  0  0  0  0  0  0  0  0  0  0  0
  195.6100  173.0970  143.4010 C   0  0  0  0  0  1  0  0  0  0  0  0
  196.8730  171.0960  143.5930 O   0  0  0  0  0  0  0  0  0  0  0  0
  1 16  1  6  0  0  0
  1 10  1  0  0  0  0
  2 12  1  0  0  0  0
  4  3  1  0  0  0  0
  5 27  1  0  0  0  0
  6  5  2  0  0  0  0
  6 28  1  0  0  0  0
  7 17  1  0  0  0  0
  9 28  1  0  0  0  0
  9 26  1  0  0  0  0
 10 17  1  6  0  0  0
 11  3  2  0  0  0  0
 12  8  1  0  0  0  0
 12 13  2  0  0  0  0
 13 11  1  0  0  0  0
 14 22  2  0  0  0  0
 15  9  1  0  0  0  0
 17  8  2  0  0  0  0
 18 15  2  0  0  0  0
 18  6  1  0  0  0  0
 19 16  1  0  0  0  0
 19  7  1  0  0  0  0
 20  1  1  0  0  0  0
 20 29  1  1  0  0  0
 20 10  1  0  0  0  0
 21  4  2  0  0  0  0
 22 13  1  0  0  0  0
 22 21  1  0  0  0  0
 23 14  1  0  0  0  0
 24  7  2  0  0  0  0
 24  2  1  0  0  0  0
 25  5  1  0  0  0  0
 27  2  2  0  0  0  0
 27 14  1  0  0  0  0
 28 23  2  0  0  0  0
 29 30  1  0  0  0  0
 30 31  1  0  0  0  0
 30 32  2  0  0  0  0
M  END
>  <MODEL>
8

>  <REMARK>
 VINA RESULT:      -8.4      2.972      4.043
  Name = 
  1 active torsions:
  status: ('A' for Active; 'I' for Inactive)
    1  A    between atoms: C_20  and  N_29
                            x       y       z     vdW  Elec       q    Type
                         _______ _______ _______ _____ _____    ______ ____

>  <TORSDO>
F 1

$$$$
=
 OpenBabel11112416333D

 32 38  0  0  1  0  0  0  0  0999 V2000
  193.6500  172.6740  141.0750 C   0  0  1  0  0  3  0  0  0  0  0  0
  190.0300  175.5930  143.3330 C   0  0  0  0  0  0  0  0  0  0  0  0
  191.8910  176.6500  147.7340 C   0  0  0  0  0  3  0  0  0  0  0  0
  190.7150  177.3140  148.0770 C   0  0  0  0  0  3  0  0  0  0  0  0
  187.7170  176.3730  142.7650 C   0  0  0  0  0  0  0  0  0  0  0  0
  186.5760  177.0540  143.1810 C   0  0  0  0  0  0  0  0  0  0  0  0
  191.3870  174.3140  141.7600 C   0  0  0  0  0  0  0  0  0  0  0  0
  192.2860  174.8560  143.9240 C   0  0  0  0  0  3  0  0  0  0  0  0
  185.2320  178.2290  144.5460 N   0  0  0  0  0  0  0  0  0  0  0  0
  193.7220  173.5560  142.3350 C   0  0  2  0  0  3  0  0  0  0  0  0
  192.0150  176.0590  146.4770 C   0  0  0  0  0  3  0  0  0  0  0  0
  191.0960  175.5250  144.2730 C   0  0  0  0  0  0  0  0  0  0  0  0
  190.9660  176.1220  145.5400 C   0  0  0  0  0  0  0  0  0  0  0  0
  188.7070  176.8730  144.9660 C   0  0  0  0  0  0  0  0  0  0  0  0
  184.4490  178.0810  143.3870 N   0  0  0  0  0  0  0  0  0  0  0  0
  192.3270  172.5080  140.5460 O   0  0  0  0  0  0  0  0  0  0  0  0
  192.4350  174.2580  142.6750 C   0  0  0  0  0  0  0  0  0  0  0  0
  185.2980  177.3080  142.4520 C   0  0  0  0  0  3  0  0  0  0  0  0
  191.5930  173.7090  140.4170 C   0  0  0  0  0  2  0  0  0  0  0  0
  194.2610  174.0720  141.0030 C   0  0  1  0  0  3  0  0  0  0  0  0
  189.6650  177.3870  147.1610 C   0  0  0  0  0  3  0  0  0  0  0  0
  189.7710  176.7970  145.8870 C   0  0  0  0  0  0  0  0  0  0  0  0
  187.5200  177.5500  145.3230 C   0  0  0  0  0  3  0  0  0  0  0  0
  190.2060  174.9820  142.0780 C   0  0  0  0  0  3  0  0  0  0  0  0
  187.7340  175.8210  141.4880 O   0  0  0  0  0  1  0  0  0  0  0  0
  184.6830  179.0760  145.9640 Cl  0  0  0  0  0  0  0  0  0  0  0  0
  188.8240  176.2690  143.6680 C   0  0  0  0  0  0  0  0  0  0  0  0
  186.4870  177.6130  144.4020 C   0  0  0  0  0  0  0  0  0  0  0  0
  195.7110  173.9650  140.9960 N   0  0  0  0  0  2  0  0  0  0  0  0
  196.5660  175.1020  141.1340 C   0  0  0  0  0  0  0  0  0  0  0  0
  196.0050  176.4730  141.3020 C   0  0  0  0  0  1  0  0  0  0  0  0
  197.8130  174.9440  141.1170 O   0  0  0  0  0  0  0  0  0  0  0  0
  1 16  1  6  0  0  0
  1 10  1  0  0  0  0
  2 27  2  0  0  0  0
  2 12  1  0  0  0  0
  3  4  1  0  0  0  0
  5  6  2  0  0  0  0
  5 27  1  0  0  0  0
  6 28  1  0  0  0  0
  7 24  2  0  0  0  0
  7 17  1  0  0  0  0
  8 12  1  0  0  0  0
  9 26  1  0  0  0  0
 10 17  1  6  0  0  0
 11  3  2  0  0  0  0
 12 13  2  0  0  0  0
 13 22  1  0  0  0  0
 13 11  1  0  0  0  0
 14 23  1  0  0  0  0
 14 22  2  0  0  0  0
 15  9  1  0  0  0  0
 17  8  2  0  0  0  0
 18  6  1  0  0  0  0
 18 15  2  0  0  0  0
 19 16  1  0  0  0  0
 19  7  1  0  0  0  0
 20 29  1  1  0  0  0
 20  1  1  0  0  0  0
 20 10  1  0  0  0  0
 21  4  2  0  0  0  0
 22 21  1  0  0  0  0
 24  2  1  0  0  0  0
 25  5  1  0  0  0  0
 27 14  1  0  0  0  0
 28  9  1  0  0  0  0
 28 23  2  0  0  0  0
 29 30  1  0  0  0  0
 30 31  1  0  0  0  0
 32 30  2  0  0  0  0
M  END
>  <MODEL>
9

>  <REMARK>
 VINA RESULT:      -8.4      2.355      3.738
  Name = 
  1 active torsions:
  status: ('A' for Active; 'I' for Inactive)
    1  A    between atoms: C_20  and  N_29
                            x       y       z     vdW  Elec       q    Type
                         _______ _______ _______ _____ _____    ______ ____

>  <TORSDO>
F 1

$$$$
