=
 OpenBabel11112417363D

 28 32  0  0  1  0  0  0  0  0999 V2000
  191.3760  176.0810  145.5580 C   0  0  0  0  0  0  0  0  0  0  0  0
  187.7620  178.0040  144.9500 F   0  0  0  0  0  0  0  0  0  0  0  0
  191.1060  173.9060  140.0040 O   0  0  0  0  0  0  0  0  0  0  0  0
  189.7680  174.9790  147.5850 C   0  0  0  0  0  3  0  0  0  0  0  0
  188.8520  173.8950  140.8810 C   0  0  2  0  0  3  0  0  0  0  0  0
  192.2720  176.6580  144.5890 N   0  0  0  0  0  2  0  0  0  0  0  0
  188.9350  178.1270  143.0320 F   0  0  0  0  0  0  0  0  0  0  0  0
  187.8710  177.5050  143.6670 C   0  0  0  0  0  0  0  0  0  0  0  0
  186.4880  176.9880  141.6060 C   0  0  1  0  0  3  0  0  0  0  0  0
  188.0840  175.9770  143.7280 C   0  0  1  0  0  3  0  0  0  0  0  0
  194.2440  175.6160  142.6300 C   0  0  0  0  0  1  0  0  0  0  0  0
  189.6390  174.2220  143.2200 C   0  0  1  0  0  3  0  0  0  0  0  0
  187.5830  176.1130  141.4740 O   0  0  0  0  0  0  0  0  0  0  0  0
  186.5920  177.8250  142.8920 C   0  0  0  0  0  2  0  0  0  0  0  0
  192.7460  175.6180  142.3900 C   0  0  1  0  0  3  0  0  0  0  0  0
  190.0790  175.5900  145.2490 C   0  0  0  0  0  0  0  0  0  0  0  0
  190.3230  173.9840  140.9880 C   0  0  0  0  0  0  0  0  0  0  0  0
  186.4320  177.9090  140.4050 C   0  0  0  0  0  1  0  0  0  0  0  0
  192.1580  174.2580  142.7440 C   0  0  0  0  0  2  0  0  0  0  0  0
  189.2980  175.0300  146.2730 C   0  0  0  0  0  3  0  0  0  0  0  0
  191.8280  176.0240  146.8810 C   0  0  0  0  0  3  0  0  0  0  0  0
  191.0320  175.4790  147.8900 C   0  0  0  0  0  3  0  0  0  0  0  0
  192.0710  176.7640  143.1470 C   0  0  0  0  0  2  0  0  0  0  0  0
  188.3860  174.0950  142.3400 C   0  0  1  0  0  3  0  0  0  0  0  0
  190.7680  174.1750  142.3150 N   0  0  0  0  0  0  0  0  0  0  0  0
  187.5270  175.2770  142.5550 N   0  0  1  0  0  0  0  0  0  0  0  0
  188.4900  172.6190  140.4510 O   0  0  0  0  0  1  0  0  0  0  0  0
  189.5450  175.5890  143.8460 C   0  0  2  0  0  3  0  0  0  0  0  0
  1 21  1  0  0  0  0
  3 17  2  0  0  0  0
  4 22  1  0  0  0  0
  5 27  1  1  0  0  0
  5 17  1  0  0  0  0
  5 24  1  0  0  0  0
  6  1  1  0  0  0  0
  7  8  1  0  0  0  0
  8  2  1  0  0  0  0
  9 18  1  6  0  0  0
  9 14  1  0  0  0  0
 10  8  1  6  0  0  0
 10 28  1  0  0  0  0
 12 25  1  6  0  0  0
 12 28  1  0  0  0  0
 13  9  1  0  0  0  0
 13 26  1  0  0  0  0
 14  8  1  0  0  0  0
 15 11  1  1  0  0  0
 15 19  1  0  0  0  0
 15 23  1  0  0  0  0
 16  1  2  0  0  0  0
 16 20  1  0  0  0  0
 17 25  1  0  0  0  0
 20  4  2  0  0  0  0
 21 22  2  0  0  0  0
 23  6  1  0  0  0  0
 24 26  1  0  0  0  0
 24 12  1  0  0  0  0
 25 19  1  0  0  0  0
 26 10  1  0  0  0  0
 28 16  1  0  0  0  0
M  END
>  <MODEL>
1

>  <REMARK>
 VINA RESULT:      -8.5      0.000      0.000
  Name = 
  0 active torsions:
  status: ('A' for Active; 'I' for Inactive)
                            x       y       z     vdW  Elec       q    Type
                         _______ _______ _______ _____ _____    ______ ____

>  <TORSDO>
F 0

$$$$
=
 OpenBabel11112417363D

 28 32  0  0  1  0  0  0  0  0999 V2000
  188.9350  175.3260  141.8210 C   0  0  0  0  0  0  0  0  0  0  0  0
  193.0640  175.2260  141.5480 F   0  0  0  0  0  0  0  0  0  0  0  0
  189.3960  177.5200  147.3550 O   0  0  0  0  0  0  0  0  0  0  0  0
  189.4330  172.6010  141.3380 C   0  0  0  0  0  3  0  0  0  0  0  0
  191.1790  175.9080  147.0800 C   0  0  2  0  0  3  0  0  0  0  0  0
  188.6080  176.7170  141.9990 N   0  0  0  0  0  2  0  0  0  0  0  0
  192.4970  177.0900  142.6750 F   0  0  0  0  0  0  0  0  0  0  0  0
  193.0220  175.8130  142.7970 C   0  0  0  0  0  0  0  0  0  0  0  0
  194.4420  176.2140  144.8590 C   0  0  1  0  0  3  0  0  0  0  0  0
  192.1560  174.9500  143.7400 C   0  0  1  0  0  3  0  0  0  0  0  0
  186.8430  178.2730  143.8090 C   0  0  0  0  0  1  0  0  0  0  0  0
  190.1380  174.9370  145.0370 C   0  0  1  0  0  3  0  0  0  0  0  0
  193.1300  176.2750  145.3670 O   0  0  0  0  0  0  0  0  0  0  0  0
  194.4450  175.9260  143.3490 C   0  0  0  0  0  2  0  0  0  0  0  0
  188.2040  177.7450  144.2180 C   0  0  1  0  0  3  0  0  0  0  0  0
  189.9220  174.6370  142.5790 C   0  0  0  0  0  0  0  0  0  0  0  0
  189.9080  176.5660  146.7110 C   0  0  0  0  0  0  0  0  0  0  0  0
  195.1460  177.5280  145.1250 C   0  0  0  0  0  1  0  0  0  0  0  0
  188.0510  176.4240  144.9620 C   0  0  0  0  0  2  0  0  0  0  0  0
  190.1440  173.2730  142.3320 C   0  0  0  0  0  3  0  0  0  0  0  0
  188.2360  174.6340  140.8260 C   0  0  0  0  0  3  0  0  0  0  0  0
  188.4810  173.2820  140.5830 C   0  0  0  0  0  3  0  0  0  0  0  0
  189.1350  177.6310  143.0080 C   0  0  0  0  0  2  0  0  0  0  0  0
  191.3640  174.8610  145.9590 C   0  0  1  0  0  3  0  0  0  0  0  0
  189.3210  176.0180  145.5480 N   0  0  0  0  0  0  0  0  0  0  0  0
  192.5870  175.0400  145.1490 N   0  0  1  0  0  0  0  0  0  0  0  0
  191.0280  175.2540  148.3030 O   0  0  0  0  0  1  0  0  0  0  0  0
  190.6840  175.3090  143.6830 C   0  0  2  0  0  3  0  0  0  0  0  0
  1  6  1  0  0  0  0
  1 16  1  0  0  0  0
  2  8  1  0  0  0  0
  4 20  1  0  0  0  0
  5 27  1  1  0  0  0
  6 23  1  0  0  0  0
  7  8  1  0  0  0  0
  8 14  1  0  0  0  0
  9 18  1  6  0  0  0
  9 13  1  0  0  0  0
 10  8  1  6  0  0  0
 10 26  1  0  0  0  0
 12 25  1  1  0  0  0
 12 24  1  0  0  0  0
 14  9  1  0  0  0  0
 15 11  1  6  0  0  0
 15 19  1  0  0  0  0
 16 28  1  0  0  0  0
 17  5  1  0  0  0  0
 17  3  2  0  0  0  0
 19 25  1  0  0  0  0
 20 16  2  0  0  0  0
 21  1  2  0  0  0  0
 22 21  1  0  0  0  0
 22  4  2  0  0  0  0
 23 15  1  0  0  0  0
 24  5  1  0  0  0  0
 25 17  1  0  0  0  0
 26 13  1  0  0  0  0
 26 24  1  0  0  0  0
 28 10  1  0  0  0  0
 28 12  1  0  0  0  0
M  END
>  <MODEL>
2

>  <REMARK>
 VINA RESULT:      -7.5      2.925      6.149
  Name = 
  0 active torsions:
  status: ('A' for Active; 'I' for Inactive)
                            x       y       z     vdW  Elec       q    Type
                         _______ _______ _______ _____ _____    ______ ____

>  <TORSDO>
F 0

$$$$
=
 OpenBabel11112417363D

 28 32  0  0  1  0  0  0  0  0999 V2000
  188.2370  175.5420  141.6810 C   0  0  0  0  0  0  0  0  0  0  0  0
  187.8500  176.9650  145.5480 F   0  0  0  0  0  0  0  0  0  0  0  0
  193.6930  173.5190  143.0150 O   0  0  0  0  0  0  0  0  0  0  0  0
  187.8140  178.2910  141.2630 C   0  0  0  0  0  3  0  0  0  0  0  0
  193.4130  175.6220  144.1770 C   0  0  2  0  0  3  0  0  0  0  0  0
  188.3850  174.1160  141.8230 N   0  0  0  0  0  2  0  0  0  0  0  0
  188.9410  174.9990  145.6480 F   0  0  0  0  0  0  0  0  0  0  0  0
  189.0830  176.3740  145.7410 C   0  0  0  0  0  0  0  0  0  0  0  0
  191.0930  176.4160  147.2860 C   0  0  1  0  0  3  0  0  0  0  0  0
  190.0740  176.8990  144.6780 C   0  0  1  0  0  3  0  0  0  0  0  0
  190.2010  172.0460  140.7140 C   0  0  0  0  0  1  0  0  0  0  0  0
  191.4270  176.2420  142.8090 C   0  0  1  0  0  3  0  0  0  0  0  0
  191.6350  175.9290  146.0810 O   0  0  0  0  0  0  0  0  0  0  0  0
  189.5910  176.7150  147.1430 C   0  0  0  0  0  2  0  0  0  0  0  0
  190.5860  172.9760  141.8480 C   0  0  1  0  0  3  0  0  0  0  0  0
  188.9850  176.4980  142.4210 C   0  0  0  0  0  0  0  0  0  0  0  0
  193.0610  174.5970  143.1710 C   0  0  0  0  0  0  0  0  0  0  0  0
  191.3030  175.3930  148.3830 C   0  0  0  0  0  1  0  0  0  0  0  0
  191.3700  174.1660  141.3060 C   0  0  0  0  0  2  0  0  0  0  0  0
  188.7690  177.8650  142.1860 C   0  0  0  0  0  3  0  0  0  0  0  0
  187.2810  175.9900  140.7620 C   0  0  0  0  0  3  0  0  0  0  0  0
  187.0670  177.3530  140.5530 C   0  0  0  0  0  3  0  0  0  0  0  0
  189.3530  173.4030  142.6500 C   0  0  0  0  0  2  0  0  0  0  0  0
  192.3150  176.6910  143.9780 C   0  0  1  0  0  3  0  0  0  0  0  0
  191.9310  174.9480  142.4000 N   0  0  0  0  0  0  0  0  0  0  0  0
  191.4670  176.9280  145.1640 N   0  0  1  0  0  0  0  0  0  0  0  0
  194.6570  176.1720  143.8690 O   0  0  0  0  0  1  0  0  0  0  0  0
  190.0480  176.0870  143.3970 C   0  0  2  0  0  3  0  0  0  0  0  0
  1  6  1  0  0  0  0
  1 16  1  0  0  0  0
  2  8  1  0  0  0  0
  3 17  2  0  0  0  0
  4 20  1  0  0  0  0
  5 27  1  6  0  0  0
  6 23  1  0  0  0  0
  7  8  1  0  0  0  0
  8 14  1  0  0  0  0
  9 18  1  1  0  0  0
 10 26  1  0  0  0  0
 10  8  1  1  0  0  0
 12 25  1  1  0  0  0
 12 28  1  0  0  0  0
 12 24  1  0  0  0  0
 13  9  1  0  0  0  0
 14  9  1  0  0  0  0
 15 11  1  6  0  0  0
 15 23  1  0  0  0  0
 16 28  1  0  0  0  0
 17  5  1  0  0  0  0
 19 15  1  0  0  0  0
 19 25  1  0  0  0  0
 20 16  2  0  0  0  0
 21  1  2  0  0  0  0
 22 21  1  0  0  0  0
 22  4  2  0  0  0  0
 24  5  1  0  0  0  0
 24 26  1  0  0  0  0
 25 17  1  0  0  0  0
 26 13  1  0  0  0  0
 28 10  1  0  0  0  0
M  END
>  <MODEL>
3

>  <REMARK>
 VINA RESULT:      -7.3      2.256      5.249
  Name = 
  0 active torsions:
  status: ('A' for Active; 'I' for Inactive)
                            x       y       z     vdW  Elec       q    Type
                         _______ _______ _______ _____ _____    ______ ____

>  <TORSDO>
F 0

$$$$
=
 OpenBabel11112417363D

 28 32  0  0  1  0  0  0  0  0999 V2000
  191.8020  174.9850  145.6770 C   0  0  0  0  0  0  0  0  0  0  0  0
  188.7370  176.1180  143.1370 F   0  0  0  0  0  0  0  0  0  0  0  0
  193.2460  170.5860  141.9070 O   0  0  0  0  0  0  0  0  0  0  0  0
  189.5390  174.7410  147.3290 C   0  0  0  0  0  3  0  0  0  0  0  0
  190.8330  170.7590  141.9050 C   0  0  2  0  0  3  0  0  0  0  0  0
  193.0060  175.1580  144.9070 N   0  0  0  0  0  2  0  0  0  0  0  0
  190.4870  175.4940  141.8650 F   0  0  0  0  0  0  0  0  0  0  0  0
  189.2320  175.1200  142.3200 C   0  0  0  0  0  0  0  0  0  0  0  0
  188.5810  173.6320  140.3730 C   0  0  1  0  0  3  0  0  0  0  0  0
  189.3070  173.7980  143.1150 C   0  0  1  0  0  3  0  0  0  0  0  0
  195.4410  173.5450  144.3750 C   0  0  0  0  0  1  0  0  0  0  0  0
  190.8180  172.1440  143.9740 C   0  0  1  0  0  3  0  0  0  0  0  0
  189.5950  172.8900  141.0080 O   0  0  0  0  0  0  0  0  0  0  0  0
  188.3090  174.9530  141.1120 C   0  0  0  0  0  2  0  0  0  0  0  0
  194.1130  173.3080  143.6830 C   0  0  1  0  0  3  0  0  0  0  0  0
  190.6500  174.2950  145.2100 C   0  0  0  0  0  0  0  0  0  0  0  0
  192.1880  171.0170  142.4380 C   0  0  0  0  0  0  0  0  0  0  0  0
  188.9920  173.9270  138.9450 C   0  0  0  0  0  1  0  0  0  0  0  0
  193.3480  172.1940  144.3860 C   0  0  0  0  0  2  0  0  0  0  0  0
  189.5370  174.1720  146.0570 C   0  0  0  0  0  3  0  0  0  0  0  0
  191.7820  175.5530  146.9560 C   0  0  0  0  0  3  0  0  0  0  0  0
  190.6610  175.4350  147.7790 C   0  0  0  0  0  3  0  0  0  0  0  0
  193.3040  174.6050  143.5900 C   0  0  0  0  0  2  0  0  0  0  0  0
  189.9240  171.5340  142.8840 C   0  0  1  0  0  3  0  0  0  0  0  0
  192.1780  171.8080  143.6080 N   0  0  0  0  0  0  0  0  0  0  0  0
  189.1250  172.6090  142.2600 N   0  0  1  0  0  0  0  0  0  0  0  0
  190.5490  169.3960  141.9910 O   0  0  0  0  0  1  0  0  0  0  0  0
  190.6160  173.6330  143.8640 C   0  0  2  0  0  3  0  0  0  0  0  0
  1 21  1  0  0  0  0
  3 17  2  0  0  0  0
  4 22  1  0  0  0  0
  5 27  1  1  0  0  0
  5 17  1  0  0  0  0
  5 24  1  0  0  0  0
  6  1  1  0  0  0  0
  7  8  1  0  0  0  0
  8  2  1  0  0  0  0
  9 18  1  6  0  0  0
  9 13  1  0  0  0  0
  9 14  1  0  0  0  0
 10  8  1  6  0  0  0
 10 28  1  0  0  0  0
 12 25  1  6  0  0  0
 13 26  1  0  0  0  0
 14  8  1  0  0  0  0
 15 11  1  1  0  0  0
 15 19  1  0  0  0  0
 16  1  2  0  0  0  0
 16 20  1  0  0  0  0
 17 25  1  0  0  0  0
 20  4  2  0  0  0  0
 21 22  2  0  0  0  0
 23 15  1  0  0  0  0
 23  6  1  0  0  0  0
 24 12  1  0  0  0  0
 25 19  1  0  0  0  0
 26 24  1  0  0  0  0
 26 10  1  0  0  0  0
 28 12  1  0  0  0  0
 28 16  1  0  0  0  0
M  END
>  <MODEL>
4

>  <REMARK>
 VINA RESULT:      -7.2      2.274      2.989
  Name = 
  0 active torsions:
  status: ('A' for Active; 'I' for Inactive)
                            x       y       z     vdW  Elec       q    Type
                         _______ _______ _______ _____ _____    ______ ____

>  <TORSDO>
F 0

$$$$
=
 OpenBabel11112417363D

 28 32  0  0  1  0  0  0  0  0999 V2000
  193.5850  176.3500  144.5580 C   0  0  0  0  0  0  0  0  0  0  0  0
  190.1210  178.6130  144.4410 F   0  0  0  0  0  0  0  0  0  0  0  0
  191.0360  172.3360  140.9470 O   0  0  0  0  0  0  0  0  0  0  0  0
  192.8590  176.4680  147.2720 C   0  0  0  0  0  3  0  0  0  0  0  0
  189.3140  173.1350  142.4470 C   0  0  2  0  0  3  0  0  0  0  0  0
  194.0500  176.3120  143.1960 N   0  0  0  0  0  2  0  0  0  0  0  0
  190.4440  177.7460  142.3880 F   0  0  0  0  0  0  0  0  0  0  0  0
  189.6890  177.6520  143.5470 C   0  0  0  0  0  0  0  0  0  0  0  0
  187.5810  176.6940  142.5160 C   0  0  1  0  0  3  0  0  0  0  0  0
  189.8360  176.2540  144.1870 C   0  0  1  0  0  3  0  0  0  0  0  0
  195.0330  174.2130  141.3410 C   0  0  0  0  0  1  0  0  0  0  0  0
  190.9780  174.1530  143.9950 C   0  0  1  0  0  3  0  0  0  0  0  0
  188.4910  175.6250  142.4140 O   0  0  0  0  0  0  0  0  0  0  0  0
  188.2240  177.9150  143.1930 C   0  0  0  0  0  2  0  0  0  0  0  0
  193.5650  174.4390  141.6460 C   0  0  1  0  0  3  0  0  0  0  0  0
  192.2490  176.0640  144.9510 C   0  0  0  0  0  0  0  0  0  0  0  0
  190.7100  172.9460  142.0000 C   0  0  0  0  0  0  0  0  0  0  0  0
  187.0980  177.0790  141.1330 C   0  0  0  0  0  1  0  0  0  0  0  0
  193.1010  173.4730  142.7300 C   0  0  0  0  0  2  0  0  0  0  0  0
  191.9110  176.1140  146.3130 C   0  0  0  0  0  3  0  0  0  0  0  0
  194.5190  176.7070  145.5360 C   0  0  0  0  0  3  0  0  0  0  0  0
  194.1630  176.7670  146.8840 C   0  0  0  0  0  3  0  0  0  0  0  0
  193.3000  175.9020  142.0120 C   0  0  0  0  0  2  0  0  0  0  0  0
  189.4750  173.9690  143.7380 C   0  0  1  0  0  3  0  0  0  0  0  0
  191.6530  173.5290  142.8760 N   0  0  0  0  0  0  0  0  0  0  0  0
  188.8270  175.2960  143.6970 N   0  0  1  0  0  0  0  0  0  0  0  0
  188.7520  171.8980  142.7620 O   0  0  0  0  0  1  0  0  0  0  0  0
  191.2050  175.6420  143.9590 C   0  0  2  0  0  3  0  0  0  0  0  0
  1 16  2  0  0  0  0
  1 21  1  0  0  0  0
  3 17  2  0  0  0  0
  5 27  1  1  0  0  0
  5 24  1  0  0  0  0
  6  1  1  0  0  0  0
  7  8  1  0  0  0  0
  8  2  1  0  0  0  0
  9 18  1  6  0  0  0
  9 14  1  0  0  0  0
 10  8  1  6  0  0  0
 12 25  1  6  0  0  0
 13  9  1  0  0  0  0
 13 26  1  0  0  0  0
 14  8  1  0  0  0  0
 15 11  1  1  0  0  0
 15 23  1  0  0  0  0
 15 19  1  0  0  0  0
 16 20  1  0  0  0  0
 17  5  1  0  0  0  0
 17 25  1  0  0  0  0
 19 25  1  0  0  0  0
 20  4  2  0  0  0  0
 21 22  2  0  0  0  0
 22  4  1  0  0  0  0
 23  6  1  0  0  0  0
 24 12  1  0  0  0  0
 26 24  1  0  0  0  0
 26 10  1  0  0  0  0
 28 12  1  0  0  0  0
 28 10  1  0  0  0  0
 28 16  1  0  0  0  0
M  END
>  <MODEL>
5

>  <REMARK>
 VINA RESULT:      -7.2      1.646      2.086
  Name = 
  0 active torsions:
  status: ('A' for Active; 'I' for Inactive)
                            x       y       z     vdW  Elec       q    Type
                         _______ _______ _______ _____ _____    ______ ____

>  <TORSDO>
F 0

$$$$
=
 OpenBabel11112417363D

 28 32  0  0  1  0  0  0  0  0999 V2000
  189.7350  175.1630  144.6270 C   0  0  0  0  0  0  0  0  0  0  0  0
  193.1020  175.7670  146.9570 F   0  0  0  0  0  0  0  0  0  0  0  0
  193.2090  173.1900  140.1900 O   0  0  0  0  0  0  0  0  0  0  0  0
  189.5870  177.9160  145.1850 C   0  0  0  0  0  3  0  0  0  0  0  0
  194.3950  175.0030  141.2670 C   0  0  2  0  0  3  0  0  0  0  0  0
  189.7140  173.7470  144.3640 N   0  0  0  0  0  2  0  0  0  0  0  0
  193.4170  173.8770  145.7740 F   0  0  0  0  0  0  0  0  0  0  0  0
  193.7730  175.2120  145.8850 C   0  0  0  0  0  0  0  0  0  0  0  0
  196.0810  175.0450  144.8480 C   0  0  1  0  0  3  0  0  0  0  0  0
  193.4120  175.9860  144.5980 C   0  0  1  0  0  3  0  0  0  0  0  0
  189.3180  172.0330  141.9740 C   0  0  0  0  0  1  0  0  0  0  0  0
  192.3510  175.7830  142.4560 C   0  0  1  0  0  3  0  0  0  0  0  0
  195.2290  174.8350  143.7470 O   0  0  0  0  0  0  0  0  0  0  0  0
  195.2800  175.2910  146.1380 C   0  0  0  0  0  2  0  0  0  0  0  0
  190.6230  172.7370  142.2920 C   0  0  1  0  0  3  0  0  0  0  0  0
  190.8790  175.9890  144.4480 C   0  0  0  0  0  0  0  0  0  0  0  0
  193.2020  174.1830  140.9650 C   0  0  0  0  0  0  0  0  0  0  0  0
  196.9750  173.8350  145.0310 C   0  0  0  0  0  1  0  0  0  0  0  0
  190.7120  174.0470  141.5200 C   0  0  0  0  0  2  0  0  0  0  0  0
  190.7790  177.3630  144.7190 C   0  0  0  0  0  3  0  0  0  0  0  0
  188.5500  175.7370  145.0990 C   0  0  0  0  0  3  0  0  0  0  0  0
  188.4720  177.1020  145.3780 C   0  0  0  0  0  3  0  0  0  0  0  0
  190.7860  172.9330  143.8020 C   0  0  0  0  0  2  0  0  0  0  0  0
  193.8560  176.0340  142.2830 C   0  0  1  0  0  3  0  0  0  0  0  0
  192.0450  174.6230  141.6450 N   0  0  0  0  0  0  0  0  0  0  0  0
  194.5070  175.9870  143.6090 N   0  0  1  0  0  0  0  0  0  0  0  0
  194.8110  175.6650  140.1120 O   0  0  0  0  0  1  0  0  0  0  0  0
  192.1710  175.4460  143.9130 C   0  0  2  0  0  3  0  0  0  0  0  0
  1 21  1  0  0  0  0
  3 17  2  0  0  0  0
  4 22  1  0  0  0  0
  5 27  1  6  0  0  0
  5 24  1  0  0  0  0
  6  1  1  0  0  0  0
  7  8  1  0  0  0  0
  8 14  1  0  0  0  0
  8  2  1  0  0  0  0
  9 18  1  1  0  0  0
  9 14  1  0  0  0  0
 10  8  1  1  0  0  0
 12 25  1  6  0  0  0
 12 28  1  0  0  0  0
 13  9  1  0  0  0  0
 15 11  1  1  0  0  0
 15 23  1  0  0  0  0
 16  1  2  0  0  0  0
 16 20  1  0  0  0  0
 17  5  1  0  0  0  0
 17 25  1  0  0  0  0
 19 25  1  0  0  0  0
 19 15  1  0  0  0  0
 20  4  2  0  0  0  0
 21 22  2  0  0  0  0
 23  6  1  0  0  0  0
 24 12  1  0  0  0  0
 24 26  1  0  0  0  0
 26 13  1  0  0  0  0
 26 10  1  0  0  0  0
 28 16  1  0  0  0  0
 28 10  1  0  0  0  0
M  END
>  <MODEL>
6

>  <REMARK>
 VINA RESULT:      -7.2      3.138      5.715
  Name = 
  0 active torsions:
  status: ('A' for Active; 'I' for Inactive)
                            x       y       z     vdW  Elec       q    Type
                         _______ _______ _______ _____ _____    ______ ____

>  <TORSDO>
F 0

$$$$
=
 OpenBabel11112417363D

 28 32  0  0  1  0  0  0  0  0999 V2000
  195.9840  175.0260  143.7650 C   0  0  0  0  0  0  0  0  0  0  0  0
  193.9440  176.5590  147.0240 F   0  0  0  0  0  0  0  0  0  0  0  0
  190.7690  173.7100  141.1720 O   0  0  0  0  0  0  0  0  0  0  0  0
  196.9510  173.4370  145.8740 C   0  0  0  0  0  3  0  0  0  0  0  0
  190.5110  173.2880  143.5400 C   0  0  2  0  0  3  0  0  0  0  0  0
  195.5830  175.8500  142.6550 N   0  0  0  0  0  2  0  0  0  0  0  0
  192.7940  177.1180  145.1710 F   0  0  0  0  0  0  0  0  0  0  0  0
  192.8180  176.2800  146.2750 C   0  0  0  0  0  0  0  0  0  0  0  0
  190.3180  175.9170  146.4940 C   0  0  1  0  0  3  0  0  0  0  0  0
  192.8470  174.7980  145.8400 C   0  0  1  0  0  3  0  0  0  0  0  0
  194.6690  175.3720  139.8710 C   0  0  0  0  0  1  0  0  0  0  0  0
  192.9680  173.3470  143.9330 C   0  0  1  0  0  3  0  0  0  0  0  0
  190.6330  175.2150  145.3150 O   0  0  0  0  0  0  0  0  0  0  0  0
  191.5710  176.5540  147.1180 C   0  0  0  0  0  2  0  0  0  0  0  0
  193.7700  175.2260  141.0840 C   0  0  1  0  0  3  0  0  0  0  0  0
  195.0760  174.4320  144.6830 C   0  0  0  0  0  0  0  0  0  0  0  0
  191.2870  173.5400  142.3080 C   0  0  0  0  0  0  0  0  0  0  0  0
  189.3040  176.9980  146.1800 C   0  0  0  0  0  1  0  0  0  0  0  0
  193.7050  173.7660  141.5140 C   0  0  0  0  0  2  0  0  0  0  0  0
  195.5790  173.6290  145.7210 C   0  0  0  0  0  3  0  0  0  0  0  0
  197.3570  174.8230  143.9390 C   0  0  0  0  0  3  0  0  0  0  0  0
  197.8420  174.0360  144.9850 C   0  0  0  0  0  3  0  0  0  0  0  0
  194.2240  176.1510  142.2170 C   0  0  0  0  0  2  0  0  0  0  0  0
  191.6050  173.2030  144.6270 C   0  0  1  0  0  3  0  0  0  0  0  0
  192.6810  173.5790  142.5330 N   0  0  0  0  0  0  0  0  0  0  0  0
  191.4960  174.2230  145.6890 N   0  0  1  0  0  0  0  0  0  0  0  0
  189.8620  172.0570  143.4400 O   0  0  0  0  0  1  0  0  0  0  0  0
  193.5900  174.5800  144.5360 C   0  0  2  0  0  3  0  0  0  0  0  0
  1 21  2  0  0  0  0
  1 16  1  0  0  0  0
  3 17  2  0  0  0  0
  5 27  1  6  0  0  0
  5 24  1  0  0  0  0
  6  1  1  0  0  0  0
  7  8  1  0  0  0  0
  8  2  1  0  0  0  0
  8 14  1  0  0  0  0
  9 18  1  6  0  0  0
  9 14  1  0  0  0  0
 10  8  1  6  0  0  0
 12 25  1  6  0  0  0
 12 28  1  0  0  0  0
 12 24  1  0  0  0  0
 13 26  1  0  0  0  0
 13  9  1  0  0  0  0
 15 11  1  6  0  0  0
 15 19  1  0  0  0  0
 15 23  1  0  0  0  0
 16 20  2  0  0  0  0
 17 25  1  0  0  0  0
 17  5  1  0  0  0  0
 19 25  1  0  0  0  0
 20  4  1  0  0  0  0
 21 22  1  0  0  0  0
 22  4  2  0  0  0  0
 23  6  1  0  0  0  0
 24 26  1  0  0  0  0
 26 10  1  0  0  0  0
 28 16  1  0  0  0  0
 28 10  1  0  0  0  0
M  END
>  <MODEL>
7

>  <REMARK>
 VINA RESULT:      -7.1      3.066      4.874
  Name = 
  0 active torsions:
  status: ('A' for Active; 'I' for Inactive)
                            x       y       z     vdW  Elec       q    Type
                         _______ _______ _______ _____ _____    ______ ____

>  <TORSDO>
F 0

$$$$
=
 OpenBabel11112417363D

 28 32  0  0  1  0  0  0  0  0999 V2000
  189.9060  174.6350  142.4020 C   0  0  0  0  0  0  0  0  0  0  0  0
  192.5230  174.3870  145.5990 F   0  0  0  0  0  0  0  0  0  0  0  0
  186.6780  178.6590  145.4080 O   0  0  0  0  0  0  0  0  0  0  0  0
  189.7550  171.9110  143.0840 C   0  0  0  0  0  3  0  0  0  0  0  0
  187.4600  177.0310  147.0170 C   0  0  2  0  0  3  0  0  0  0  0  0
  189.9920  176.0010  141.9560 N   0  0  0  0  0  2  0  0  0  0  0  0
  191.8940  176.5400  145.3920 F   0  0  0  0  0  0  0  0  0  0  0  0
  191.7350  175.3840  146.1410 C   0  0  0  0  0  0  0  0  0  0  0  0
  191.1470  176.4780  148.3520 C   0  0  1  0  0  3  0  0  0  0  0  0
  190.2600  174.9270  146.1420 C   0  0  1  0  0  3  0  0  0  0  0  0
  188.0520  178.1270  141.2250 C   0  0  0  0  0  1  0  0  0  0  0  0
  188.0900  175.4070  145.2380 C   0  0  1  0  0  3  0  0  0  0  0  0
  190.0080  176.7340  147.5640 O   0  0  0  0  0  0  0  0  0  0  0  0
  192.1960  175.6680  147.5720 C   0  0  0  0  0  2  0  0  0  0  0  0
  188.3930  177.7610  142.6570 C   0  0  1  0  0  3  0  0  0  0  0  0
  189.7170  174.2500  143.7570 C   0  0  0  0  0  0  0  0  0  0  0  0
  187.1810  177.5310  145.6540 C   0  0  0  0  0  0  0  0  0  0  0  0
  191.7530  177.7900  148.8020 C   0  0  0  0  0  1  0  0  0  0  0  0
  187.3530  176.7970  143.2140 C   0  0  0  0  0  2  0  0  0  0  0  0
  189.6290  172.8840  144.0740 C   0  0  0  0  0  3  0  0  0  0  0  0
  190.0340  173.6420  141.4240 C   0  0  0  0  0  3  0  0  0  0  0  0
  189.9610  172.2890  141.7590 C   0  0  0  0  0  3  0  0  0  0  0  0
  189.8180  177.2090  142.7580 C   0  0  0  0  0  2  0  0  0  0  0  0
  188.1010  175.6500  146.7540 C   0  0  1  0  0  3  0  0  0  0  0  0
  187.5440  176.6110  144.6460 N   0  0  0  0  0  0  0  0  0  0  0  0
  189.4840  175.5100  147.2540 N   0  0  1  0  0  0  0  0  0  0  0  0
  186.2600  176.8610  147.7080 O   0  0  0  0  0  1  0  0  0  0  0  0
  189.5380  175.2620  144.8500 C   0  0  2  0  0  3  0  0  0  0  0  0
  1 16  1  0  0  0  0
  2  8  1  0  0  0  0
  3 17  2  0  0  0  0
  4 20  1  0  0  0  0
  5 27  1  1  0  0  0
  6  1  1  0  0  0  0
  6 23  1  0  0  0  0
  7  8  1  0  0  0  0
  8 14  1  0  0  0  0
  9 18  1  6  0  0  0
 10  8  1  6  0  0  0
 10 26  1  0  0  0  0
 12 25  1  6  0  0  0
 12 24  1  0  0  0  0
 13  9  1  0  0  0  0
 14  9  1  0  0  0  0
 15 11  1  6  0  0  0
 15 23  1  0  0  0  0
 15 19  1  0  0  0  0
 16 20  2  0  0  0  0
 16 28  1  0  0  0  0
 17  5  1  0  0  0  0
 19 25  1  0  0  0  0
 21 22  1  0  0  0  0
 21  1  2  0  0  0  0
 22  4  2  0  0  0  0
 24  5  1  0  0  0  0
 24 26  1  0  0  0  0
 25 17  1  0  0  0  0
 26 13  1  0  0  0  0
 28 12  1  0  0  0  0
 28 10  1  0  0  0  0
M  END
>  <MODEL>
8

>  <REMARK>
 VINA RESULT:      -7.0      3.133      5.795
  Name = 
  0 active torsions:
  status: ('A' for Active; 'I' for Inactive)
                            x       y       z     vdW  Elec       q    Type
                         _______ _______ _______ _____ _____    ______ ____

>  <TORSDO>
F 0

$$$$
=
 OpenBabel11112417363D

 28 32  0  0  1  0  0  0  0  0999 V2000
  190.6710  176.6160  145.2880 C   0  0  0  0  0  0  0  0  0  0  0  0
  188.2190  175.0570  142.3400 F   0  0  0  0  0  0  0  0  0  0  0  0
  194.7720  172.4680  144.0130 O   0  0  0  0  0  0  0  0  0  0  0  0
  188.3640  175.9200  146.7390 C   0  0  0  0  0  3  0  0  0  0  0  0
  192.6060  171.4140  143.7960 C   0  0  2  0  0  3  0  0  0  0  0  0
  191.8510  177.0600  144.5930 N   0  0  0  0  0  2  0  0  0  0  0  0
  190.3400  174.9570  141.5920 F   0  0  0  0  0  0  0  0  0  0  0  0
  189.2850  174.2130  142.0950 C   0  0  0  0  0  0  0  0  0  0  0  0
  189.8630  172.0000  141.0010 C   0  0  1  0  0  3  0  0  0  0  0  0
  189.6880  173.5030  143.4060 C   0  0  1  0  0  3  0  0  0  0  0  0
  194.7810  176.7940  144.9910 C   0  0  0  0  0  1  0  0  0  0  0  0
  191.4590  173.2630  145.0060 C   0  0  1  0  0  3  0  0  0  0  0  0
  190.8830  172.1500  141.9600 O   0  0  0  0  0  0  0  0  0  0  0  0
  188.8770  173.1790  141.0430 C   0  0  0  0  0  2  0  0  0  0  0  0
  193.9120  175.6960  144.4070 C   0  0  1  0  0  3  0  0  0  0  0  0
  190.0840  175.3320  145.1200 C   0  0  0  0  0  0  0  0  0  0  0  0
  193.5310  172.4820  144.2290 C   0  0  0  0  0  0  0  0  0  0  0  0
  190.4790  171.9060  139.6210 C   0  0  0  0  0  1  0  0  0  0  0  0
  193.5240  174.7010  145.4950 C   0  0  0  0  0  2  0  0  0  0  0  0
  188.9410  174.9990  145.8660 C   0  0  0  0  0  3  0  0  0  0  0  0
  190.0730  177.5260  146.1670 C   0  0  0  0  0  3  0  0  0  0  0  0
  188.9280  177.1850  146.8880 C   0  0  0  0  0  3  0  0  0  0  0  0
  192.6940  176.2840  143.6890 C   0  0  0  0  0  2  0  0  0  0  0  0
  191.2300  171.9390  144.2630 C   0  0  1  0  0  3  0  0  0  0  0  0
  192.8780  173.5330  144.9110 N   0  0  0  0  0  0  0  0  0  0  0  0
  190.2550  172.1610  143.1750 N   0  0  1  0  0  0  0  0  0  0  0  0
  192.9050  170.2330  144.4740 O   0  0  0  0  0  1  0  0  0  0  0  0
  190.6920  174.2950  144.2210 C   0  0  2  0  0  3  0  0  0  0  0  0
  1 21  1  0  0  0  0
  3 17  2  0  0  0  0
  4 22  1  0  0  0  0
  5 17  1  0  0  0  0
  5 24  1  0  0  0  0
  5 27  1  1  0  0  0
  6  1  1  0  0  0  0
  7  8  1  0  0  0  0
  8  2  1  0  0  0  0
  9 18  1  6  0  0  0
  9 14  1  0  0  0  0
  9 13  1  0  0  0  0
 10  8  1  6  0  0  0
 10 28  1  0  0  0  0
 12 25  1  6  0  0  0
 13 26  1  0  0  0  0
 14  8  1  0  0  0  0
 15 11  1  1  0  0  0
 15 19  1  0  0  0  0
 16  1  2  0  0  0  0
 16 20  1  0  0  0  0
 17 25  1  0  0  0  0
 20  4  2  0  0  0  0
 21 22  2  0  0  0  0
 23 15  1  0  0  0  0
 23  6  1  0  0  0  0
 24 12  1  0  0  0  0
 25 19  1  0  0  0  0
 26 10  1  0  0  0  0
 26 24  1  0  0  0  0
 28 12  1  0  0  0  0
 28 16  1  0  0  0  0
M  END
>  <MODEL>
9

>  <REMARK>
 VINA RESULT:      -6.9      2.698      3.892
  Name = 
  0 active torsions:
  status: ('A' for Active; 'I' for Inactive)
                            x       y       z     vdW  Elec       q    Type
                         _______ _______ _______ _____ _____    ______ ____

>  <TORSDO>
F 0

$$$$
