=
 OpenBabel11112416503D

 31 35  0  0  1  0  0  0  0  0999 V2000
  194.7200  176.3130  144.5140 C   0  0  0  0  0  0  0  0  0  0  0  0
  191.0310  176.9650  143.7940 C   0  0  2  0  0  3  0  0  0  0  0  0
  190.4130  175.8890  142.8700 C   0  0  1  0  0  3  0  0  0  0  0  0
  190.1020  173.5390  142.1790 C   0  0  0  0  0  0  0  0  0  0  0  0
  192.3000  176.5570  144.4840 C   0  0  0  0  0  0  0  0  0  0  0  0
  194.6900  175.8630  145.9110 C   0  0  0  0  0  3  0  0  0  0  0  0
  190.7640  174.4350  143.1900 C   0  0  0  0  0  2  0  0  0  0  0  0
  189.8790  176.8240  146.0620 C   0  0  2  0  0  3  0  0  0  0  0  0
  195.8150  176.3980  143.9000 O   0  0  0  0  0  0  0  0  0  0  0  0
  188.5620  177.3920  142.7600 O   0  0  0  0  0  0  0  0  0  0  0  0
  190.7080  172.5830  141.7240 O   0  0  0  0  0  0  0  0  0  0  0  0
  191.2430  176.6640  146.7390 C   0  0  0  0  0  2  0  0  0  0  0  0
  190.0210  177.6340  144.7600 C   0  0  2  0  0  3  0  0  0  0  0  0
  193.4690  176.7040  143.8550 C   0  0  0  0  0  3  0  0  0  0  0  0
  188.6620  173.7660  141.8010 C   0  0  0  0  0  2  0  0  0  0  0  0
  192.1990  175.8900  145.8420 C   0  0  2  0  0  3  0  0  0  0  0  0
  193.5230  175.6960  146.5370 C   0  0  0  0  0  3  0  0  0  0  0  0
  188.6380  177.8580  144.0900 C   0  0  0  0  0  2  0  0  0  0  0  0
  188.8950  176.0340  142.8180 C   0  0  1  0  0  3  0  0  0  0  0  0
  188.3620  175.2590  141.6190 C   0  0  0  0  0  2  0  0  0  0  0  0
  188.9060  177.4930  147.0280 C   0  0  0  0  0  2  0  0  0  0  0  0
  187.8120  175.4010  147.2350 O   0  0  0  0  0  0  0  0  0  0  0  0
  187.6810  176.6530  147.2000 C   0  0  0  0  0  0  0  0  0  0  0  0
  184.6920  178.7940  145.5960 N   0  0  0  0  0  0  0  0  0  0  0  0
  185.3120  176.5800  146.4710 C   0  0  0  0  0  2  0  0  0  0  0  0
  187.1190  179.2060  148.3320 O   0  0  0  0  0  1  0  0  0  0  0  0
  184.5310  179.5370  144.3610 C   0  0  0  0  0  1  0  0  0  0  0  0
  185.0450  177.4210  145.2200 C   0  0  0  0  0  2  0  0  0  0  0  0
  186.0830  178.6270  147.5970 C   0  0  2  0  0  3  0  0  0  0  0  0
  186.3620  177.2310  147.2420 N   0  0  0  0  0  0  0  0  0  0  0  0
  185.8090  179.4110  146.3170 C   0  0  0  0  0  2  0  0  0  0  0  0
  1  6  1  0  0  0  0
  2  5  1  1  0  0  0
  2 13  1  0  0  0  0
  3  7  1  1  0  0  0
  3  2  1  0  0  0  0
  4  7  1  0  0  0  0
  5 16  1  0  0  0  0
  6 17  2  0  0  0  0
  8 12  1  0  0  0  0
  8 21  1  1  0  0  0
  9  1  2  0  0  0  0
 10 19  1  0  0  0  0
 10 18  1  0  0  0  0
 11  4  2  0  0  0  0
 13 18  1  6  0  0  0
 13  8  1  0  0  0  0
 14  5  2  0  0  0  0
 14  1  1  0  0  0  0
 15  4  1  0  0  0  0
 16 17  1  1  0  0  0
 16 12  1  0  0  0  0
 19 20  1  6  0  0  0
 19  3  1  0  0  0  0
 20 15  1  0  0  0  0
 21 23  1  0  0  0  0
 23 22  2  0  0  0  0
 23 30  1  0  0  0  0
 24 31  1  0  0  0  0
 25 30  1  0  0  0  0
 27 24  1  0  0  0  0
 28 24  1  0  0  0  0
 28 25  1  0  0  0  0
 29 26  1  6  0  0  0
 30 29  1  0  0  0  0
 31 29  1  0  0  0  0
M  END
>  <MODEL>
1

>  <REMARK>
 VINA RESULT:      -8.7      0.000      0.000
  Name = 
  2 active torsions:
  status: ('A' for Active; 'I' for Inactive)
    1  A    between atoms: C_5  and  C_16
    2  A    between atoms: C_10  and  C_16
                            x       y       z     vdW  Elec       q    Type
                         _______ _______ _______ _____ _____    ______ ____

>  <TORSDO>
F 2

$$$$
=
 OpenBabel11112416503D

 31 35  0  0  1  0  0  0  0  0999 V2000
  189.3150  173.8720  141.7730 C   0  0  0  0  0  0  0  0  0  0  0  0
  190.7780  174.7750  145.1780 C   0  0  2  0  0  3  0  0  0  0  0  0
  192.2730  175.1640  145.0900 C   0  0  1  0  0  3  0  0  0  0  0  0
  194.1510  176.3430  144.0040 C   0  0  0  0  0  0  0  0  0  0  0  0
  190.0250  174.8540  143.8820 C   0  0  0  0  0  0  0  0  0  0  0  0
  188.4680  175.0340  141.4790 C   0  0  0  0  0  3  0  0  0  0  0  0
  192.6680  176.0990  143.9470 C   0  0  0  0  0  2  0  0  0  0  0  0
  189.4670  176.8230  145.9390 C   0  0  2  0  0  3  0  0  0  0  0  0
  189.3810  172.9150  140.9590 O   0  0  0  0  0  0  0  0  0  0  0  0
  192.1940  175.0440  147.4730 O   0  0  0  0  0  0  0  0  0  0  0  0
  194.8040  176.3650  142.9740 O   0  0  0  0  0  0  0  0  0  0  0  0
  188.5620  176.6940  144.7110 C   0  0  0  0  0  2  0  0  0  0  0  0
  190.0120  175.4430  146.3480 C   0  0  2  0  0  3  0  0  0  0  0  0
  190.0470  173.8140  143.0430 C   0  0  0  0  0  3  0  0  0  0  0  0
  194.8120  176.6520  145.3210 C   0  0  0  0  0  2  0  0  0  0  0  0
  189.3480  176.1610  143.5200 C   0  0  2  0  0  3  0  0  0  0  0  0
  188.4590  176.0830  142.3030 C   0  0  0  0  0  3  0  0  0  0  0  0
  190.8840  175.5460  147.6290 C   0  0  0  0  0  2  0  0  0  0  0  0
  192.7490  175.7650  146.4110 C   0  0  1  0  0  3  0  0  0  0  0  0
  194.2720  175.7550  146.4410 C   0  0  0  0  0  2  0  0  0  0  0  0
  188.6880  177.4720  147.0790 C   0  0  0  0  0  2  0  0  0  0  0  0
  187.4090  175.5110  147.4510 O   0  0  0  0  0  0  0  0  0  0  0  0
  187.3900  176.7610  147.2970 C   0  0  0  0  0  0  0  0  0  0  0  0
  184.6320  178.9910  145.4230 N   0  0  0  0  0  0  0  0  0  0  0  0
  185.0380  176.8240  146.5160 C   0  0  0  0  0  2  0  0  0  0  0  0
  187.0360  179.4490  148.1720 O   0  0  0  0  0  1  0  0  0  0  0  0
  184.5590  179.6240  144.1200 C   0  0  0  0  0  1  0  0  0  0  0  0
  184.8680  177.5630  145.1850 C   0  0  0  0  0  2  0  0  0  0  0  0
  185.9660  178.8950  147.4670 C   0  0  2  0  0  3  0  0  0  0  0  0
  186.1270  177.4520  147.2500 N   0  0  0  0  0  0  0  0  0  0  0  0
  185.7860  179.5740  146.1130 C   0  0  0  0  0  2  0  0  0  0  0  0
  1 14  1  0  0  0  0
  2  5  1  6  0  0  0
  2 13  1  0  0  0  0
  3  7  1  6  0  0  0
  3  2  1  0  0  0  0
  3 19  1  0  0  0  0
  4 15  1  0  0  0  0
  6  1  1  0  0  0  0
  6 17  2  0  0  0  0
  7  4  1  0  0  0  0
  8 13  1  0  0  0  0
  8 21  1  1  0  0  0
  9  1  2  0  0  0  0
 10 18  1  0  0  0  0
 11  4  2  0  0  0  0
 12  8  1  0  0  0  0
 13 18  1  1  0  0  0
 14  5  2  0  0  0  0
 15 20  1  0  0  0  0
 16 17  1  6  0  0  0
 16  5  1  0  0  0  0
 16 12  1  0  0  0  0
 19 20  1  6  0  0  0
 19 10  1  0  0  0  0
 21 23  1  0  0  0  0
 23 22  2  0  0  0  0
 24 31  1  0  0  0  0
 25 30  1  0  0  0  0
 27 24  1  0  0  0  0
 28 24  1  0  0  0  0
 28 25  1  0  0  0  0
 29 26  1  6  0  0  0
 30 23  1  0  0  0  0
 30 29  1  0  0  0  0
 31 29  1  0  0  0  0
M  END
>  <MODEL>
2

>  <REMARK>
 VINA RESULT:      -7.6      1.233      4.257
  Name = 
  2 active torsions:
  status: ('A' for Active; 'I' for Inactive)
    1  A    between atoms: C_5  and  C_16
    2  A    between atoms: C_10  and  C_16
                            x       y       z     vdW  Elec       q    Type
                         _______ _______ _______ _____ _____    ______ ____

>  <TORSDO>
F 2

$$$$
=
 OpenBabel11112416503D

 31 35  0  0  1  0  0  0  0  0999 V2000
  186.1440  177.2310  142.6680 C   0  0  0  0  0  0  0  0  0  0  0  0
  188.8720  174.7290  143.5910 C   0  0  2  0  0  3  0  0  0  0  0  0
  188.9620  173.5600  142.5810 C   0  0  1  0  0  3  0  0  0  0  0  0
  188.9740  172.6770  140.2760 C   0  0  0  0  0  0  0  0  0  0  0  0
  188.1740  175.9560  143.0800 C   0  0  0  0  0  0  0  0  0  0  0  0
  186.9230  178.3790  142.1890 C   0  0  0  0  0  3  0  0  0  0  0  0
  188.8990  173.9330  141.1000 C   0  0  0  0  0  2  0  0  0  0  0  0
  191.0470  176.0500  143.4750 C   0  0  2  0  0  3  0  0  0  0  0  0
  184.8870  177.2850  142.6930 O   0  0  0  0  0  0  0  0  0  0  0  0
  190.4090  172.5850  144.2100 O   0  0  0  0  0  0  0  0  0  0  0  0
  188.2640  172.5520  139.2920 O   0  0  0  0  0  0  0  0  0  0  0  0
  190.2510  177.3290  143.2050 C   0  0  0  0  0  2  0  0  0  0  0  0
  190.2070  175.0620  144.3040 C   0  0  2  0  0  3  0  0  0  0  0  0
  186.8430  176.0390  143.1600 C   0  0  0  0  0  3  0  0  0  0  0  0
  189.9890  171.6160  140.6110 C   0  0  0  0  0  2  0  0  0  0  0  0
  189.0030  177.0210  142.3890 C   0  0  2  0  0  3  0  0  0  0  0  0
  188.2510  178.2940  142.0880 C   0  0  0  0  0  3  0  0  0  0  0  0
  191.0210  173.7830  144.6380 C   0  0  0  0  0  2  0  0  0  0  0  0
  190.2190  172.7310  142.8320 C   0  0  1  0  0  3  0  0  0  0  0  0
  190.0790  171.3890  142.1250 C   0  0  0  0  0  2  0  0  0  0  0  0
  192.3500  176.4020  144.1860 C   0  0  0  0  0  2  0  0  0  0  0  0
  193.2750  176.4280  142.0040 O   0  0  0  0  0  0  0  0  0  0  0  0
  193.5030  176.3160  143.2370 C   0  0  0  0  0  0  0  0  0  0  0  0
  196.2040  173.9770  145.0600 N   0  0  0  0  0  0  0  0  0  0  0  0
  195.6170  175.0570  142.9290 C   0  0  0  0  0  2  0  0  0  0  0  0
  194.5390  177.1870  145.7440 O   0  0  0  0  0  1  0  0  0  0  0  0
  196.1340  172.7110  145.7630 C   0  0  0  0  0  1  0  0  0  0  0  0
  195.6540  173.7470  143.7200 C   0  0  0  0  0  2  0  0  0  0  0  0
  195.3170  176.2530  145.0580 C   0  0  2  0  0  3  0  0  0  0  0  0
  194.8400  176.0270  143.6890 N   0  0  0  0  0  0  0  0  0  0  0  0
  195.3480  174.9150  145.7910 C   0  0  0  0  0  2  0  0  0  0  0  0
  1  9  2  0  0  0  0
  1 14  1  0  0  0  0
  2  5  1  6  0  0  0
  2 13  1  0  0  0  0
  3  7  1  6  0  0  0
  3 19  1  0  0  0  0
  3  2  1  0  0  0  0
  4 15  1  0  0  0  0
  4  7  1  0  0  0  0
  5 14  2  0  0  0  0
  6  1  1  0  0  0  0
  8 21  1  1  0  0  0
  8 13  1  0  0  0  0
 10 18  1  0  0  0  0
 11  4  2  0  0  0  0
 12  8  1  0  0  0  0
 13 18  1  6  0  0  0
 15 20  1  0  0  0  0
 16 17  1  1  0  0  0
 16  5  1  0  0  0  0
 16 12  1  0  0  0  0
 17  6  2  0  0  0  0
 19 20  1  6  0  0  0
 19 10  1  0  0  0  0
 22 23  2  0  0  0  0
 23 30  1  0  0  0  0
 23 21  1  0  0  0  0
 24 27  1  0  0  0  0
 24 31  1  0  0  0  0
 25 30  1  0  0  0  0
 25 28  1  0  0  0  0
 28 24  1  0  0  0  0
 29 26  1  1  0  0  0
 29 31  1  0  0  0  0
 30 29  1  0  0  0  0
M  END
>  <MODEL>
3

>  <REMARK>
 VINA RESULT:      -7.5      3.757      7.323
  Name = 
  2 active torsions:
  status: ('A' for Active; 'I' for Inactive)
    1  A    between atoms: C_5  and  C_16
    2  A    between atoms: C_10  and  C_16
                            x       y       z     vdW  Elec       q    Type
                         _______ _______ _______ _____ _____    ______ ____

>  <TORSDO>
F 2

$$$$
=
 OpenBabel11112416503D

 31 35  0  0  1  0  0  0  0  0999 V2000
  186.1780  178.4980  146.6150 C   0  0  0  0  0  0  0  0  0  0  0  0
  189.3550  177.6160  144.6950 C   0  0  2  0  0  3  0  0  0  0  0  0
  190.4830  177.1110  145.6260 C   0  0  1  0  0  3  0  0  0  0  0  0
  191.2870  175.7510  147.5230 C   0  0  0  0  0  0  0  0  0  0  0  0
  187.9730  177.5460  145.2770 C   0  0  0  0  0  0  0  0  0  0  0  0
  185.2810  177.3930  146.2560 C   0  0  0  0  0  3  0  0  0  0  0  0
  190.0770  176.1050  146.7040 C   0  0  0  0  0  2  0  0  0  0  0  0
  188.6840  175.7050  143.1490 C   0  0  2  0  0  3  0  0  0  0  0  0
  185.7800  179.4150  147.3780 O   0  0  0  0  0  0  0  0  0  0  0  0
  191.8530  177.3280  143.6840 O   0  0  0  0  0  0  0  0  0  0  0  0
  191.1910  175.6400  148.7340 O   0  0  0  0  0  0  0  0  0  0  0  0
  187.2300  175.8560  143.6020 C   0  0  0  0  0  2  0  0  0  0  0  0
  189.4190  177.0540  143.2520 C   0  0  2  0  0  3  0  0  0  0  0  0
  187.5270  178.5480  146.0390 C   0  0  0  0  0  3  0  0  0  0  0  0
  192.5940  175.4430  146.8410 C   0  0  0  0  0  2  0  0  0  0  0  0
  187.1640  176.2810  145.0630 C   0  0  2  0  0  3  0  0  0  0  0  0
  185.7280  176.3800  145.5120 C   0  0  0  0  0  3  0  0  0  0  0  0
  190.8790  176.9340  142.7400 C   0  0  0  0  0  2  0  0  0  0  0  0
  191.6320  176.5260  144.8090 C   0  0  1  0  0  3  0  0  0  0  0  0
  192.8680  176.4210  145.6930 C   0  0  0  0  0  2  0  0  0  0  0  0
  188.7200  175.1620  141.7240 C   0  0  0  0  0  2  0  0  0  0  0  0
  187.3950  173.1970  141.7750 O   0  0  0  0  0  0  0  0  0  0  0  0
  188.5590  173.6750  141.7280 C   0  0  0  0  0  0  0  0  0  0  0  0
  191.8980  172.2490  143.4340 N   0  0  0  0  0  0  0  0  0  0  0  0
  189.6360  171.6510  142.6740 C   0  0  0  0  0  2  0  0  0  0  0  0
  191.0470  174.2490  140.4640 O   0  0  0  0  0  1  0  0  0  0  0  0
  192.6560  172.6000  144.6200 C   0  0  0  0  0  1  0  0  0  0  0  0
  190.5320  171.9570  143.8780 C   0  0  0  0  0  2  0  0  0  0  0  0
  191.0460  173.1560  141.3320 C   0  0  2  0  0  3  0  0  0  0  0  0
  189.6930  172.7870  141.7630 N   0  0  0  0  0  0  0  0  0  0  0  0
  191.8940  173.4330  142.5690 C   0  0  0  0  0  2  0  0  0  0  0  0
  1  9  2  0  0  0  0
  2  5  1  1  0  0  0
  2  3  1  0  0  0  0
  3  7  1  1  0  0  0
  4 11  2  0  0  0  0
  5 14  2  0  0  0  0
  6  1  1  0  0  0  0
  7  4  1  0  0  0  0
  8 21  1  6  0  0  0
  8 13  1  0  0  0  0
  8 12  1  0  0  0  0
 10 19  1  0  0  0  0
 13 18  1  1  0  0  0
 13  2  1  0  0  0  0
 14  1  1  0  0  0  0
 15  4  1  0  0  0  0
 16 12  1  6  0  0  0
 16  5  1  0  0  0  0
 16 17  1  0  0  0  0
 17  6  2  0  0  0  0
 18 10  1  0  0  0  0
 19  3  1  0  0  0  0
 19 20  1  1  0  0  0
 20 15  1  0  0  0  0
 21 23  1  0  0  0  0
 23 30  1  0  0  0  0
 23 22  2  0  0  0  0
 24 28  1  0  0  0  0
 24 27  1  0  0  0  0
 25 28  1  0  0  0  0
 29 26  1  6  0  0  0
 29 30  1  0  0  0  0
 29 31  1  0  0  0  0
 30 25  1  0  0  0  0
 31 24  1  0  0  0  0
M  END
>  <MODEL>
4

>  <REMARK>
 VINA RESULT:      -7.5      2.735      6.974
  Name = 
  2 active torsions:
  status: ('A' for Active; 'I' for Inactive)
    1  A    between atoms: C_5  and  C_16
    2  A    between atoms: C_10  and  C_16
                            x       y       z     vdW  Elec       q    Type
                         _______ _______ _______ _____ _____    ______ ____

>  <TORSDO>
F 2

$$$$
=
 OpenBabel11112416503D

 31 35  0  0  1  0  0  0  0  0999 V2000
  185.6940  177.7700  147.4900 C   0  0  0  0  0  0  0  0  0  0  0  0
  187.7100  175.8100  144.9120 C   0  0  2  0  0  3  0  0  0  0  0  0
  187.3280  176.1830  143.4600 C   0  0  1  0  0  3  0  0  0  0  0  0
  186.7710  177.8420  141.7190 C   0  0  0  0  0  0  0  0  0  0  0  0
  187.3210  176.8210  145.9510 C   0  0  0  0  0  0  0  0  0  0  0  0
  186.6890  178.7130  148.0130 C   0  0  0  0  0  3  0  0  0  0  0  0
  187.1670  177.6730  143.1600 C   0  0  0  0  0  2  0  0  0  0  0  0
  190.1310  176.5020  145.3010 C   0  0  2  0  0  3  0  0  0  0  0  0
  184.5190  177.7760  147.9390 O   0  0  0  0  0  0  0  0  0  0  0  0
  188.6540  174.2850  142.8800 O   0  0  0  0  0  0  0  0  0  0  0  0
  185.9260  178.6660  141.4130 O   0  0  0  0  0  0  0  0  0  0  0  0
  189.6960  177.3220  146.5180 C   0  0  0  0  0  2  0  0  0  0  0  0
  189.1700  175.3190  145.0820 C   0  0  2  0  0  3  0  0  0  0  0  0
  186.0920  176.7910  146.4720 C   0  0  0  0  0  3  0  0  0  0  0  0
  187.4840  177.0620  140.6460 C   0  0  0  0  0  2  0  0  0  0  0  0
  188.3110  177.9160  146.2970 C   0  0  2  0  0  3  0  0  0  0  0  0
  187.9120  178.7600  147.4810 C   0  0  0  0  0  3  0  0  0  0  0  0
  189.6300  174.4410  143.8870 C   0  0  0  0  0  2  0  0  0  0  0  0
  188.3240  175.5810  142.4720 C   0  0  1  0  0  3  0  0  0  0  0  0
  187.7160  175.6080  141.0750 C   0  0  0  0  0  2  0  0  0  0  0  0
  191.5660  176.0220  145.4960 C   0  0  0  0  0  2  0  0  0  0  0  0
  191.9650  177.0760  143.4110 O   0  0  0  0  0  0  0  0  0  0  0  0
  192.4700  176.6510  144.4840 C   0  0  0  0  0  0  0  0  0  0  0  0
  196.0440  174.9150  145.0310 N   0  0  0  0  0  0  0  0  0  0  0  0
  194.7410  176.3640  143.5300 C   0  0  0  0  0  2  0  0  0  0  0  0
  193.7170  176.9500  147.0280 O   0  0  0  0  0  1  0  0  0  0  0  0
  196.4860  173.5450  145.2060 C   0  0  0  0  0  1  0  0  0  0  0  0
  195.3140  174.9630  143.7600 C   0  0  0  0  0  2  0  0  0  0  0  0
  194.5660  176.6170  145.9710 C   0  0  2  0  0  3  0  0  0  0  0  0
  193.8970  176.7040  144.6680 N   0  0  0  0  0  0  0  0  0  0  0  0
  195.1300  175.2100  146.1380 C   0  0  0  0  0  2  0  0  0  0  0  0
  1  9  2  0  0  0  0
  1  6  1  0  0  0  0
  2 13  1  0  0  0  0
  2  5  1  1  0  0  0
  3  7  1  1  0  0  0
  3  2  1  0  0  0  0
  4  7  1  0  0  0  0
  5 16  1  0  0  0  0
  5 14  2  0  0  0  0
  8 21  1  1  0  0  0
  8 12  1  0  0  0  0
 10 18  1  0  0  0  0
 11  4  2  0  0  0  0
 13 18  1  6  0  0  0
 13  8  1  0  0  0  0
 14  1  1  0  0  0  0
 15 20  1  0  0  0  0
 15  4  1  0  0  0  0
 16 12  1  1  0  0  0
 16 17  1  0  0  0  0
 17  6  2  0  0  0  0
 19 20  1  6  0  0  0
 19 10  1  0  0  0  0
 19  3  1  0  0  0  0
 22 23  2  0  0  0  0
 23 30  1  0  0  0  0
 23 21  1  0  0  0  0
 24 27  1  0  0  0  0
 24 31  1  0  0  0  0
 25 28  1  0  0  0  0
 25 30  1  0  0  0  0
 28 24  1  0  0  0  0
 29 31  1  0  0  0  0
 29 26  1  1  0  0  0
 30 29  1  0  0  0  0
M  END
>  <MODEL>
5

>  <REMARK>
 VINA RESULT:      -7.4      2.996      7.087
  Name = 
  2 active torsions:
  status: ('A' for Active; 'I' for Inactive)
    1  A    between atoms: C_5  and  C_16
    2  A    between atoms: C_10  and  C_16
                            x       y       z     vdW  Elec       q    Type
                         _______ _______ _______ _____ _____    ______ ____

>  <TORSDO>
F 2

$$$$
=
 OpenBabel11112416503D

 31 35  0  0  1  0  0  0  0  0999 V2000
  186.4930  178.1030  147.7360 C   0  0  0  0  0  0  0  0  0  0  0  0
  188.4710  175.4580  145.8280 C   0  0  2  0  0  3  0  0  0  0  0  0
  188.3720  175.6420  144.2960 C   0  0  1  0  0  3  0  0  0  0  0  0
  188.3740  177.0590  142.2740 C   0  0  0  0  0  0  0  0  0  0  0  0
  188.1260  176.6740  146.6380 C   0  0  0  0  0  0  0  0  0  0  0  0
  187.5560  178.9540  148.2840 C   0  0  0  0  0  3  0  0  0  0  0  0
  188.5250  177.0700  143.7700 C   0  0  0  0  0  2  0  0  0  0  0  0
  190.8970  175.8210  146.5180 C   0  0  2  0  0  3  0  0  0  0  0  0
  185.2860  178.3650  147.9770 O   0  0  0  0  0  0  0  0  0  0  0  0
  189.4060  173.4920  144.2130 O   0  0  0  0  0  0  0  0  0  0  0  0
  187.7420  177.9430  141.7200 O   0  0  0  0  0  0  0  0  0  0  0  0
  190.4480  176.8870  147.5200 C   0  0  0  0  0  2  0  0  0  0  0  0
  189.7810  174.7820  146.3070 C   0  0  2  0  0  3  0  0  0  0  0  0
  186.8500  176.9210  146.9440 C   0  0  0  0  0  3  0  0  0  0  0  0
  189.0810  176.0120  141.4540 C   0  0  0  0  0  2  0  0  0  0  0  0
  189.2360  177.6440  146.9910 C   0  0  2  0  0  3  0  0  0  0  0  0
  188.8310  178.7230  147.9630 C   0  0  0  0  0  3  0  0  0  0  0  0
  190.2420  173.6590  145.3390 C   0  0  0  0  0  2  0  0  0  0  0  0
  189.3750  174.7390  143.5810 C   0  0  1  0  0  3  0  0  0  0  0  0
  188.9860  174.6300  142.1120 C   0  0  0  0  0  2  0  0  0  0  0  0
  192.1800  175.1640  147.0160 C   0  0  0  0  0  2  0  0  0  0  0  0
  193.6970  176.9840  146.9660 O   0  0  0  0  0  0  0  0  0  0  0  0
  193.3780  175.8720  146.4670 C   0  0  0  0  0  0  0  0  0  0  0  0
  193.6460  174.6970  142.6410 N   0  0  0  0  0  0  0  0  0  0  0  0
  194.4990  176.3030  144.2980 C   0  0  0  0  0  2  0  0  0  0  0  0
  193.7350  173.0940  145.9530 O   0  0  0  0  0  1  0  0  0  0  0  0
  192.6930  174.5640  141.5560 C   0  0  0  0  0  1  0  0  0  0  0  0
  193.5770  176.0900  143.0940 C   0  0  0  0  0  2  0  0  0  0  0  0
  194.1130  173.9550  144.9210 C   0  0  2  0  0  3  0  0  0  0  0  0
  194.1140  175.3610  145.3400 N   0  0  0  0  0  0  0  0  0  0  0  0
  193.1930  173.8060  143.7130 C   0  0  0  0  0  2  0  0  0  0  0  0
  1  9  2  0  0  0  0
  1  6  1  0  0  0  0
  2 13  1  0  0  0  0
  2  5  1  1  0  0  0
  3  7  1  1  0  0  0
  3  2  1  0  0  0  0
  4  7  1  0  0  0  0
  5 14  2  0  0  0  0
  5 16  1  0  0  0  0
  8 21  1  1  0  0  0
  8 12  1  0  0  0  0
 10 18  1  0  0  0  0
 11  4  2  0  0  0  0
 13 18  1  6  0  0  0
 13  8  1  0  0  0  0
 14  1  1  0  0  0  0
 15 20  1  0  0  0  0
 15  4  1  0  0  0  0
 16 12  1  1  0  0  0
 16 17  1  0  0  0  0
 17  6  2  0  0  0  0
 19 20  1  6  0  0  0
 19 10  1  0  0  0  0
 19  3  1  0  0  0  0
 23 22  2  0  0  0  0
 23 21  1  0  0  0  0
 24 28  1  0  0  0  0
 24 31  1  0  0  0  0
 25 30  1  0  0  0  0
 27 24  1  0  0  0  0
 28 25  1  0  0  0  0
 29 30  1  0  0  0  0
 29 26  1  1  0  0  0
 30 23  1  0  0  0  0
 31 29  1  0  0  0  0
M  END
>  <MODEL>
6

>  <REMARK>
 VINA RESULT:      -7.4      2.991      6.594
  Name = 
  2 active torsions:
  status: ('A' for Active; 'I' for Inactive)
    1  A    between atoms: C_5  and  C_16
    2  A    between atoms: C_10  and  C_16
                            x       y       z     vdW  Elec       q    Type
                         _______ _______ _______ _____ _____    ______ ____

>  <TORSDO>
F 2

$$$$
=
 OpenBabel11112416503D

 31 35  0  0  1  0  0  0  0  0999 V2000
  192.1410  171.0240  143.0520 C   0  0  0  0  0  0  0  0  0  0  0  0
  191.7370  174.0390  145.3540 C   0  0  2  0  0  3  0  0  0  0  0  0
  193.0280  174.8880  145.4420 C   0  0  1  0  0  3  0  0  0  0  0  0
  194.9850  175.9790  144.4060 C   0  0  0  0  0  0  0  0  0  0  0  0
  191.6530  173.1340  144.1590 C   0  0  0  0  0  0  0  0  0  0  0  0
  191.3510  171.4190  141.8790 C   0  0  0  0  0  3  0  0  0  0  0  0
  193.7480  175.1710  144.1240 C   0  0  0  0  0  2  0  0  0  0  0  0
  189.9230  175.4610  144.2690 C   0  0  2  0  0  3  0  0  0  0  0  0
  192.7180  169.9070  143.0790 O   0  0  0  0  0  0  0  0  0  0  0  0
  191.8950  175.9840  147.2350 O   0  0  0  0  0  0  0  0  0  0  0  0
  196.0220  175.7300  143.8150 O   0  0  0  0  0  0  0  0  0  0  0  0
  189.7070  174.3730  143.2140 C   0  0  0  0  0  2  0  0  0  0  0  0
  190.4300  174.8390  145.5830 C   0  0  2  0  0  3  0  0  0  0  0  0
  192.2150  171.9240  144.2090 C   0  0  0  0  0  3  0  0  0  0  0  0
  194.9190  177.1530  145.3470 C   0  0  0  0  0  2  0  0  0  0  0  0
  191.0200  173.6720  142.8910 C   0  0  2  0  0  3  0  0  0  0  0  0
  190.8060  172.6360  141.8170 C   0  0  0  0  0  3  0  0  0  0  0  0
  190.5970  175.9210  146.6830 C   0  0  0  0  0  2  0  0  0  0  0  0
  192.7520  176.2110  146.1530 C   0  0  1  0  0  3  0  0  0  0  0  0
  194.0760  176.8270  146.5860 C   0  0  0  0  0  2  0  0  0  0  0  0
  188.6210  176.2270  144.4840 C   0  0  0  0  0  2  0  0  0  0  0  0
  189.4840  177.9200  143.0670 O   0  0  0  0  0  0  0  0  0  0  0  0
  188.4610  177.2880  143.4420 C   0  0  0  0  0  0  0  0  0  0  0  0
  184.7220  178.6670  143.8990 N   0  0  0  0  0  0  0  0  0  0  0  0
  186.8770  179.0800  142.7870 C   0  0  0  0  0  2  0  0  0  0  0  0
  186.3150  175.4460  143.1040 O   0  0  0  0  0  1  0  0  0  0  0  0
  183.9250  179.0660  145.0430 C   0  0  0  0  0  1  0  0  0  0  0  0
  185.9340  179.4910  143.9220 C   0  0  0  0  0  2  0  0  0  0  0  0
  185.9830  176.7950  142.9660 C   0  0  2  0  0  3  0  0  0  0  0  0
  187.1680  177.6600  142.9280 N   0  0  0  0  0  0  0  0  0  0  0  0
  185.0770  177.2590  144.1020 C   0  0  0  0  0  2  0  0  0  0  0  0
  1  9  2  0  0  0  0
  1 14  1  0  0  0  0
  2  5  1  6  0  0  0
  2  3  1  0  0  0  0
  2 13  1  0  0  0  0
  3  7  1  6  0  0  0
  3 19  1  0  0  0  0
  4 15  1  0  0  0  0
  5 14  2  0  0  0  0
  6  1  1  0  0  0  0
  7  4  1  0  0  0  0
  8 21  1  1  0  0  0
  8 13  1  0  0  0  0
 11  4  2  0  0  0  0
 12  8  1  0  0  0  0
 13 18  1  1  0  0  0
 15 20  1  0  0  0  0
 16 17  1  6  0  0  0
 16 12  1  0  0  0  0
 16  5  1  0  0  0  0
 17  6  2  0  0  0  0
 18 10  1  0  0  0  0
 19 20  1  1  0  0  0
 19 10  1  0  0  0  0
 22 23  2  0  0  0  0
 23 21  1  0  0  0  0
 24 28  1  0  0  0  0
 24 31  1  0  0  0  0
 24 27  1  0  0  0  0
 25 30  1  0  0  0  0
 25 28  1  0  0  0  0
 29 26  1  1  0  0  0
 29 31  1  0  0  0  0
 30 29  1  0  0  0  0
 30 23  1  0  0  0  0
M  END
>  <MODEL>
7

>  <REMARK>
 VINA RESULT:      -7.3      2.268      4.919
  Name = 
  2 active torsions:
  status: ('A' for Active; 'I' for Inactive)
    1  A    between atoms: C_5  and  C_16
    2  A    between atoms: C_10  and  C_16
                            x       y       z     vdW  Elec       q    Type
                         _______ _______ _______ _____ _____    ______ ____

>  <TORSDO>
F 2

$$$$
=
 OpenBabel11112416503D

 31 35  0  0  1  0  0  0  0  0999 V2000
  196.6900  170.8300  145.7010 C   0  0  0  0  0  0  0  0  0  0  0  0
  196.0480  174.5030  144.8950 C   0  0  2  0  0  3  0  0  0  0  0  0
  196.2680  174.8220  143.3970 C   0  0  1  0  0  3  0  0  0  0  0  0
  196.0140  174.2830  141.0020 C   0  0  0  0  0  0  0  0  0  0  0  0
  195.8300  173.0510  145.2090 C   0  0  0  0  0  0  0  0  0  0  0  0
  195.3320  170.3160  145.9190 C   0  0  0  0  0  3  0  0  0  0  0  0
  195.6820  173.8270  142.3960 C   0  0  0  0  0  2  0  0  0  0  0  0
  193.5870  174.8780  145.4360 C   0  0  2  0  0  3  0  0  0  0  0  0
  197.6820  170.0650  145.8180 O   0  0  0  0  0  0  0  0  0  0  0  0
  196.0910  177.0950  144.1060 O   0  0  0  0  0  0  0  0  0  0  0  0
  196.3530  173.4680  140.1600 O   0  0  0  0  0  0  0  0  0  0  0  0
  193.4940  173.4510  145.9830 C   0  0  0  0  0  2  0  0  0  0  0  0
  195.0180  175.4210  145.6000 C   0  0  2  0  0  3  0  0  0  0  0  0
  196.8840  172.2510  145.3920 C   0  0  0  0  0  3  0  0  0  0  0  0
  195.8390  175.7300  140.6210 C   0  0  0  0  0  2  0  0  0  0  0  0
  194.4110  172.5180  145.2030 C   0  0  2  0  0  3  0  0  0  0  0  0
  194.2760  171.1070  145.7170 C   0  0  0  0  0  3  0  0  0  0  0  0
  195.1160  176.8900  145.1060 C   0  0  0  0  0  2  0  0  0  0  0  0
  195.7540  176.2220  143.0660 C   0  0  1  0  0  3  0  0  0  0  0  0
  196.3380  176.6630  141.7310 C   0  0  0  0  0  2  0  0  0  0  0  0
  192.5720  175.7640  146.1520 C   0  0  0  0  0  2  0  0  0  0  0  0
  190.4840  174.7690  146.6700 O   0  0  0  0  0  0  0  0  0  0  0  0
  191.1780  175.3540  145.7970 C   0  0  0  0  0  0  0  0  0  0  0  0
  191.2340  174.7210  141.8370 N   0  0  0  0  0  0  0  0  0  0  0  0
  189.9010  174.4280  143.8840 C   0  0  0  0  0  2  0  0  0  0  0  0
  191.8670  177.5440  144.1110 O   0  0  0  0  0  1  0  0  0  0  0  0
  192.1280  174.0160  140.9380 C   0  0  0  0  0  1  0  0  0  0  0  0
  190.7930  173.7480  142.8410 C   0  0  0  0  0  2  0  0  0  0  0  0
  191.1580  176.5080  143.5000 C   0  0  2  0  0  3  0  0  0  0  0  0
  190.6470  175.5340  144.4700 N   0  0  0  0  0  0  0  0  0  0  0  0
  192.0240  175.7730  142.4810 C   0  0  0  0  0  2  0  0  0  0  0  0
  1  9  2  0  0  0  0
  1  6  1  0  0  0  0
  2  5  1  6  0  0  0
  2 13  1  0  0  0  0
  3  7  1  6  0  0  0
  3  2  1  0  0  0  0
  4  7  1  0  0  0  0
  5 14  2  0  0  0  0
  8 13  1  0  0  0  0
  8 12  1  0  0  0  0
  8 21  1  1  0  0  0
 10 18  1  0  0  0  0
 11  4  2  0  0  0  0
 13 18  1  6  0  0  0
 14  1  1  0  0  0  0
 15  4  1  0  0  0  0
 15 20  1  0  0  0  0
 16  5  1  0  0  0  0
 16 17  1  1  0  0  0
 16 12  1  0  0  0  0
 17  6  2  0  0  0  0
 19 20  1  6  0  0  0
 19  3  1  0  0  0  0
 19 10  1  0  0  0  0
 23 21  1  0  0  0  0
 23 22  2  0  0  0  0
 24 31  1  0  0  0  0
 24 28  1  0  0  0  0
 25 30  1  0  0  0  0
 27 24  1  0  0  0  0
 28 25  1  0  0  0  0
 29 26  1  1  0  0  0
 29 30  1  0  0  0  0
 30 23  1  0  0  0  0
 31 29  1  0  0  0  0
M  END
>  <MODEL>
8

>  <REMARK>
 VINA RESULT:      -7.3      3.781      6.217
  Name = 
  2 active torsions:
  status: ('A' for Active; 'I' for Inactive)
    1  A    between atoms: C_5  and  C_16
    2  A    between atoms: C_10  and  C_16
                            x       y       z     vdW  Elec       q    Type
                         _______ _______ _______ _____ _____    ______ ____

>  <TORSDO>
F 2

$$$$
=
 OpenBabel11112416503D

 31 35  0  0  1  0  0  0  0  0999 V2000
  187.4790  177.1150  140.8950 C   0  0  0  0  0  0  0  0  0  0  0  0
  188.8480  177.3300  144.4490 C   0  0  2  0  0  3  0  0  0  0  0  0
  187.7390  177.6150  145.4890 C   0  0  1  0  0  3  0  0  0  0  0  0
  185.4810  177.2430  146.4140 C   0  0  0  0  0  0  0  0  0  0  0  0
  188.3630  176.7860  143.1370 C   0  0  0  0  0  0  0  0  0  0  0  0
  187.5580  175.6760  140.6170 C   0  0  0  0  0  3  0  0  0  0  0  0
  186.4440  176.8160  145.3410 C   0  0  0  0  0  2  0  0  0  0  0  0
  189.8120  175.0210  144.9270 C   0  0  2  0  0  3  0  0  0  0  0  0
  187.0430  177.9060  140.0190 O   0  0  0  0  0  0  0  0  0  0  0  0
  189.5670  177.9650  146.9840 O   0  0  0  0  0  0  0  0  0  0  0  0
  184.2990  177.3850  146.1480 O   0  0  0  0  0  0  0  0  0  0  0  0
  189.5190  174.6040  143.4840 C   0  0  0  0  0  2  0  0  0  0  0  0
  190.0580  176.5380  145.0060 C   0  0  2  0  0  3  0  0  0  0  0  0
  187.9550  177.6280  142.1840 C   0  0  0  0  0  3  0  0  0  0  0  0
  185.9570  177.4030  147.8330 C   0  0  0  0  0  2  0  0  0  0  0  0
  188.2520  175.2820  142.9770 C   0  0  2  0  0  3  0  0  0  0  0  0
  187.9460  174.8280  141.5720 C   0  0  0  0  0  3  0  0  0  0  0  0
  190.4170  176.9700  146.4540 C   0  0  0  0  0  2  0  0  0  0  0  0
  188.2750  177.4350  146.9080 C   0  0  1  0  0  3  0  0  0  0  0  0
  187.3200  178.1040  147.8880 C   0  0  0  0  0  2  0  0  0  0  0  0
  191.0120  174.2360  145.4490 C   0  0  0  0  0  2  0  0  0  0  0  0
  190.1900  172.1200  144.7690 O   0  0  0  0  0  0  0  0  0  0  0  0
  191.1460  172.9380  144.7180 C   0  0  0  0  0  0  0  0  0  0  0  0
  195.0810  172.1610  144.6510 N   0  0  0  0  0  0  0  0  0  0  0  0
  192.8530  171.2120  144.2150 C   0  0  0  0  0  2  0  0  0  0  0  0
  192.8500  174.8160  143.4190 O   0  0  0  0  0  1  0  0  0  0  0  0
  196.1360  172.2040  145.6440 C   0  0  0  0  0  1  0  0  0  0  0  0
  194.0500  171.2570  145.1700 C   0  0  0  0  0  2  0  0  0  0  0  0
  193.3700  173.5290  143.5710 C   0  0  2  0  0  3  0  0  0  0  0  0
  192.3610  172.5710  144.0370 N   0  0  0  0  0  0  0  0  0  0  0  0
  194.5410  173.5200  144.5490 C   0  0  0  0  0  2  0  0  0  0  0  0
  1 14  1  0  0  0  0
  2  5  1  6  0  0  0
  2 13  1  0  0  0  0
  2  3  1  0  0  0  0
  3  7  1  6  0  0  0
  3 19  1  0  0  0  0
  4 15  1  0  0  0  0
  6  1  1  0  0  0  0
  6 17  2  0  0  0  0
  7  4  1  0  0  0  0
  8 13  1  0  0  0  0
  8 21  1  6  0  0  0
  9  1  2  0  0  0  0
 11  4  2  0  0  0  0
 12  8  1  0  0  0  0
 13 18  1  1  0  0  0
 14  5  2  0  0  0  0
 15 20  1  0  0  0  0
 16 17  1  6  0  0  0
 16  5  1  0  0  0  0
 16 12  1  0  0  0  0
 18 10  1  0  0  0  0
 19 10  1  0  0  0  0
 19 20  1  1  0  0  0
 23 22  2  0  0  0  0
 23 21  1  0  0  0  0
 24 28  1  0  0  0  0
 24 27  1  0  0  0  0
 25 28  1  0  0  0  0
 29 26  1  1  0  0  0
 29 30  1  0  0  0  0
 29 31  1  0  0  0  0
 30 25  1  0  0  0  0
 30 23  1  0  0  0  0
 31 24  1  0  0  0  0
M  END
>  <MODEL>
9

>  <REMARK>
 VINA RESULT:      -7.3      3.316      7.437
  Name = 
  2 active torsions:
  status: ('A' for Active; 'I' for Inactive)
    1  A    between atoms: C_5  and  C_16
    2  A    between atoms: C_10  and  C_16
                            x       y       z     vdW  Elec       q    Type
                         _______ _______ _______ _____ _____    ______ ____

>  <TORSDO>
F 2

$$$$
