=
 OpenBabel11112417433D

 28 32  0  0  1  0  0  0  0  0999 V2000
  186.8520  178.1680  144.7560 C   0  0  0  0  0  0  0  0  0  0  0  0
  189.7120  178.2270  145.5600 F   0  0  0  0  0  0  0  0  0  0  0  0
  187.7450  172.9820  141.5970 O   0  0  0  0  0  1  0  0  0  0  0  0
  185.8020  177.6190  147.3030 C   0  0  0  0  0  3  0  0  0  0  0  0
  189.6690  174.1180  142.4350 C   0  0  2  0  0  3  0  0  0  0  0  0
  187.3790  178.5540  143.4060 C   0  0  0  0  0  2  0  0  0  0  0  0
  190.6820  177.1690  147.2620 F   0  0  0  0  0  0  0  0  0  0  0  0
  190.4210  177.0920  145.9030 C   0  0  0  0  0  0  0  0  0  0  0  0
  192.3690  175.9740  145.4990 C   0  0  2  0  0  3  0  0  0  0  0  0
  189.5950  175.7850  145.6340 C   0  0  2  0  0  3  0  0  0  0  0  0
  187.2800  177.0780  140.4650 O   0  0  0  0  0  0  0  0  0  0  0  0
  188.5420  175.9000  143.4650 C   0  0  1  0  0  3  0  0  0  0  0  0
  191.8040  174.7840  144.7380 C   0  0  0  0  0  2  0  0  0  0  0  0
  191.6370  177.1280  145.1820 O   0  0  0  0  0  0  0  0  0  0  0  0
  186.7010  177.0250  141.5820 C   0  0  0  0  0  0  0  0  0  0  0  0
  187.2720  177.0030  145.4620 C   0  0  0  0  0  0  0  0  0  0  0  0
  188.3090  174.2450  141.7750 C   0  0  2  0  0  3  0  0  0  0  0  0
  193.7620  176.1630  145.1400 N   0  0  0  0  0  1  0  0  0  0  0  0
  186.4670  175.7930  142.1950 O   0  0  0  0  0  0  0  0  0  0  0  0
  186.7310  176.7500  146.7300 C   0  0  0  0  0  3  0  0  0  0  0  0
  185.9220  179.0310  145.3480 C   0  0  0  0  0  3  0  0  0  0  0  0
  185.3980  178.7600  146.6120 C   0  0  0  0  0  3  0  0  0  0  0  0
  186.3560  178.2820  142.3060 C   0  0  0  0  0  2  0  0  0  0  0  0
  189.8650  175.2920  143.2870 N   0  0  1  0  0  0  0  0  0  0  0  0
  187.5140  175.0210  142.7840 C   0  0  2  0  0  3  0  0  0  0  0  0
  190.2770  174.8540  144.6230 C   0  0  2  0  0  3  0  0  0  0  0  0
  190.7510  174.0640  141.3740 C   0  0  0  0  0  1  0  0  0  0  0  0
  188.2560  175.9750  144.9430 C   0  0  2  0  0  3  0  0  0  0  0  0
  1 21  2  0  0  0  0
  1 16  1  0  0  0  0
  2  8  1  0  0  0  0
  3 17  1  0  0  0  0
  5 27  1  6  0  0  0
  5 24  1  0  0  0  0
  6  1  1  0  0  0  0
  8  7  1  0  0  0  0
  9 18  1  6  0  0  0
 10  8  1  6  0  0  0
 11 15  2  0  0  0  0
 12 28  1  0  0  0  0
 13  9  1  0  0  0  0
 14  9  1  0  0  0  0
 14  8  1  0  0  0  0
 15 19  1  0  0  0  0
 15 23  1  0  0  0  0
 16 20  2  0  0  0  0
 17  5  1  0  0  0  0
 17 25  1  0  0  0  0
 19 25  1  0  0  0  0
 20  4  1  0  0  0  0
 21 22  1  0  0  0  0
 22  4  2  0  0  0  0
 23  6  1  0  0  0  0
 24 12  1  0  0  0  0
 24 26  1  0  0  0  0
 25 12  1  0  0  0  0
 26 13  1  0  0  0  0
 26 10  1  0  0  0  0
 28 16  1  0  0  0  0
 28 10  1  0  0  0  0
M  END
>  <MODEL>
1

>  <REMARK>
 VINA RESULT:      -9.2      0.000      0.000
  Name = 
  0 active torsions:
  status: ('A' for Active; 'I' for Inactive)
                            x       y       z     vdW  Elec       q    Type
                         _______ _______ _______ _____ _____    ______ ____

>  <TORSDO>
F 0

$$$$
=
 OpenBabel11112417433D

 28 32  0  0  1  0  0  0  0  0999 V2000
  187.4370  177.4800  144.6560 C   0  0  0  0  0  0  0  0  0  0  0  0
  190.1410  177.9000  145.8110 F   0  0  0  0  0  0  0  0  0  0  0  0
  189.0550  171.9160  142.6320 O   0  0  0  0  0  1  0  0  0  0  0  0
  186.0580  177.2950  147.0960 C   0  0  0  0  0  3  0  0  0  0  0  0
  190.7730  173.3260  143.5010 C   0  0  2  0  0  3  0  0  0  0  0  0
  188.1330  177.6700  143.3410 C   0  0  0  0  0  2  0  0  0  0  0  0
  190.9090  177.2280  147.7900 F   0  0  0  0  0  0  0  0  0  0  0  0
  190.8540  176.8990  146.4440 C   0  0  0  0  0  0  0  0  0  0  0  0
  192.8960  175.8840  146.5130 C   0  0  2  0  0  3  0  0  0  0  0  0
  190.1460  175.5050  146.3080 C   0  0  2  0  0  3  0  0  0  0  0  0
  188.5410  175.7090  140.7280 O   0  0  0  0  0  0  0  0  0  0  0  0
  189.4150  175.1640  144.0320 C   0  0  1  0  0  3  0  0  0  0  0  0
  192.5120  174.5410  145.9100 C   0  0  0  0  0  2  0  0  0  0  0  0
  192.1570  176.9060  145.8980 O   0  0  0  0  0  0  0  0  0  0  0  0
  187.8100  175.8020  141.7480 C   0  0  0  0  0  0  0  0  0  0  0  0
  187.8110  176.4900  145.6100 C   0  0  0  0  0  0  0  0  0  0  0  0
  189.5180  173.2310  142.6530 C   0  0  2  0  0  3  0  0  0  0  0  0
  194.3140  176.1170  146.3150 N   0  0  0  0  0  1  0  0  0  0  0  0
  187.5550  174.6790  142.5370 O   0  0  0  0  0  0  0  0  0  0  0  0
  187.1060  176.4160  146.8190 C   0  0  0  0  0  3  0  0  0  0  0  0
  186.3850  178.3560  144.9530 C   0  0  0  0  0  3  0  0  0  0  0  0
  185.6990  178.2650  146.1630 C   0  0  0  0  0  3  0  0  0  0  0  0
  187.2970  177.1340  142.1810 C   0  0  0  0  0  2  0  0  0  0  0  0
  190.7800  174.6400  144.1450 N   0  0  1  0  0  0  0  0  0  0  0  0
  188.5450  174.1040  143.3900 C   0  0  2  0  0  3  0  0  0  0  0  0
  191.0170  174.4710  145.5810 C   0  0  2  0  0  3  0  0  0  0  0  0
  191.9990  173.1760  142.6210 C   0  0  0  0  0  1  0  0  0  0  0  0
  188.9140  175.4680  145.4210 C   0  0  2  0  0  3  0  0  0  0  0  0
  1 21  2  0  0  0  0
  1 16  1  0  0  0  0
  2  8  1  0  0  0  0
  3 17  1  0  0  0  0
  5 27  1  6  0  0  0
  5 24  1  0  0  0  0
  6  1  1  0  0  0  0
  8  7  1  0  0  0  0
  9 18  1  6  0  0  0
 10  8  1  6  0  0  0
 11 15  2  0  0  0  0
 12 24  1  0  0  0  0
 12 28  1  0  0  0  0
 13  9  1  0  0  0  0
 14  8  1  0  0  0  0
 14  9  1  0  0  0  0
 15 23  1  0  0  0  0
 15 19  1  0  0  0  0
 16 20  2  0  0  0  0
 17 25  1  0  0  0  0
 17  5  1  0  0  0  0
 19 25  1  0  0  0  0
 20  4  1  0  0  0  0
 21 22  1  0  0  0  0
 22  4  2  0  0  0  0
 23  6  1  0  0  0  0
 24 26  1  0  0  0  0
 25 12  1  0  0  0  0
 26 13  1  0  0  0  0
 26 10  1  0  0  0  0
 28 16  1  0  0  0  0
 28 10  1  0  0  0  0
M  END
>  <MODEL>
2

>  <REMARK>
 VINA RESULT:      -8.6      1.188      1.281
  Name = 
  0 active torsions:
  status: ('A' for Active; 'I' for Inactive)
                            x       y       z     vdW  Elec       q    Type
                         _______ _______ _______ _____ _____    ______ ____

>  <TORSDO>
F 0

$$$$
=
 OpenBabel11112417433D

 28 32  0  0  1  0  0  0  0  0999 V2000
  190.4450  174.8470  144.8530 C   0  0  0  0  0  0  0  0  0  0  0  0
  188.4990  175.9180  146.8260 F   0  0  0  0  0  0  0  0  0  0  0  0
  187.4410  177.5840  140.2530 O   0  0  0  0  0  1  0  0  0  0  0  0
  192.6390  176.3950  145.6760 C   0  0  0  0  0  3  0  0  0  0  0  0
  186.4090  177.5740  142.4050 C   0  0  2  0  0  3  0  0  0  0  0  0
  189.3160  173.9410  144.4570 C   0  0  0  0  0  2  0  0  0  0  0  0
  188.4960  177.9180  147.8050 F   0  0  0  0  0  0  0  0  0  0  0  0
  187.9710  177.1930  146.7470 C   0  0  0  0  0  0  0  0  0  0  0  0
  186.0080  178.3550  146.8040 C   0  0  2  0  0  3  0  0  0  0  0  0
  188.3760  177.9100  145.4110 C   0  0  2  0  0  3  0  0  0  0  0  0
  187.6540  173.5470  141.6440 O   0  0  0  0  0  0  0  0  0  0  0  0
  188.0950  176.4060  143.5430 C   0  0  1  0  0  3  0  0  0  0  0  0
  185.9410  178.7780  145.3440 C   0  0  0  0  0  2  0  0  0  0  0  0
  186.5700  177.0740  146.8990 O   0  0  0  0  0  0  0  0  0  0  0  0
  188.7350  174.0450  142.0530 C   0  0  0  0  0  0  0  0  0  0  0  0
  190.3520  176.2690  144.8500 C   0  0  0  0  0  0  0  0  0  0  0  0
  187.2020  176.7910  141.3750 C   0  0  2  0  0  3  0  0  0  0  0  0
  184.6720  178.3470  147.3680 N   0  0  0  0  0  1  0  0  0  0  0  0
  189.1300  175.3150  141.6280 O   0  0  0  0  0  0  0  0  0  0  0  0
  191.4620  177.0190  145.2630 C   0  0  0  0  0  3  0  0  0  0  0  0
  191.6330  174.2380  145.2750 C   0  0  0  0  0  3  0  0  0  0  0  0
  192.7240  175.0050  145.6820 C   0  0  0  0  0  3  0  0  0  0  0  0
  189.5470  173.3280  143.0780 C   0  0  0  0  0  2  0  0  0  0  0  0
  186.8310  177.1230  143.7320 N   0  0  1  0  0  0  0  0  0  0  0  0
  188.4920  176.5070  142.0850 C   0  0  2  0  0  3  0  0  0  0  0  0
  187.1610  178.2910  144.5540 C   0  0  2  0  0  3  0  0  0  0  0  0
  184.9270  177.3140  142.2180 C   0  0  0  0  0  1  0  0  0  0  0  0
  189.1410  177.0640  144.4070 C   0  0  2  0  0  3  0  0  0  0  0  0
  1 21  1  0  0  0  0
  3 17  1  0  0  0  0
  4 22  1  0  0  0  0
  5 27  1  6  0  0  0
  5 24  1  0  0  0  0
  6  1  1  0  0  0  0
  8  2  1  0  0  0  0
  8 14  1  0  0  0  0
  8  7  1  0  0  0  0
  9 14  1  0  0  0  0
  9 18  1  6  0  0  0
 10  8  1  1  0  0  0
 11 15  2  0  0  0  0
 12 24  1  0  0  0  0
 12 28  1  0  0  0  0
 13  9  1  0  0  0  0
 15 23  1  0  0  0  0
 16  1  2  0  0  0  0
 16 20  1  0  0  0  0
 17 25  1  0  0  0  0
 17  5  1  0  0  0  0
 19 15  1  0  0  0  0
 19 25  1  0  0  0  0
 20  4  2  0  0  0  0
 21 22  2  0  0  0  0
 23  6  1  0  0  0  0
 24 26  1  0  0  0  0
 25 12  1  0  0  0  0
 26 13  1  0  0  0  0
 26 10  1  0  0  0  0
 28 16  1  0  0  0  0
 28 10  1  0  0  0  0
M  END
>  <MODEL>
3

>  <REMARK>
 VINA RESULT:      -8.4      2.165      5.057
  Name = 
  0 active torsions:
  status: ('A' for Active; 'I' for Inactive)
                            x       y       z     vdW  Elec       q    Type
                         _______ _______ _______ _____ _____    ______ ____

>  <TORSDO>
F 0

$$$$
=
 OpenBabel11112417433D

 28 32  0  0  1  0  0  0  0  0999 V2000
  188.3040  176.6560  144.4310 C   0  0  0  0  0  0  0  0  0  0  0  0
  191.0940  177.2390  145.2680 F   0  0  0  0  0  0  0  0  0  0  0  0
  189.9310  171.0400  142.5640 O   0  0  0  0  0  1  0  0  0  0  0  0
  187.1950  176.5700  147.0100 C   0  0  0  0  0  3  0  0  0  0  0  0
  191.6710  172.5590  143.1650 C   0  0  2  0  0  3  0  0  0  0  0  0
  188.8520  176.7910  143.0410 C   0  0  0  0  0  2  0  0  0  0  0  0
  192.0900  176.7150  147.1890 F   0  0  0  0  0  0  0  0  0  0  0  0
  191.9090  176.3040  145.8780 C   0  0  0  0  0  0  0  0  0  0  0  0
  193.9880  175.3670  145.7860 C   0  0  2  0  0  3  0  0  0  0  0  0
  191.2490  174.8800  145.8960 C   0  0  2  0  0  3  0  0  0  0  0  0
  189.0680  174.6910  140.5140 O   0  0  0  0  0  0  0  0  0  0  0  0
  190.3010  174.3780  143.7330 C   0  0  1  0  0  3  0  0  0  0  0  0
  193.5990  173.9770  145.3040 C   0  0  0  0  0  2  0  0  0  0  0  0
  193.1480  176.3230  145.1970 O   0  0  0  0  0  0  0  0  0  0  0  0
  188.4420  174.8200  141.5990 C   0  0  0  0  0  0  0  0  0  0  0  0
  188.8160  175.7390  145.3940 C   0  0  0  0  0  0  0  0  0  0  0  0
  190.3400  172.3700  142.4620 C   0  0  2  0  0  3  0  0  0  0  0  0
  195.3670  175.6380  145.4270 N   0  0  0  0  0  1  0  0  0  0  0  0
  188.3180  173.7380  142.4730 O   0  0  0  0  0  0  0  0  0  0  0  0
  188.2430  175.7130  146.6740 C   0  0  0  0  0  3  0  0  0  0  0  0
  187.2540  177.5110  144.7880 C   0  0  0  0  0  3  0  0  0  0  0  0
  186.7010  177.4690  146.0670 C   0  0  0  0  0  3  0  0  0  0  0  0
  187.9230  176.1570  142.0080 C   0  0  0  0  0  2  0  0  0  0  0  0
  191.6910  173.9100  143.7300 N   0  0  1  0  0  0  0  0  0  0  0  0
  189.4130  173.2500  143.2470 C   0  0  2  0  0  3  0  0  0  0  0  0
  192.0820  173.8350  145.1400 C   0  0  2  0  0  3  0  0  0  0  0  0
  192.8040  172.4000  142.1710 C   0  0  0  0  0  1  0  0  0  0  0  0
  189.9340  174.7470  145.1480 C   0  0  2  0  0  3  0  0  0  0  0  0
  1 21  2  0  0  0  0
  1 16  1  0  0  0  0
  2  8  1  0  0  0  0
  5 27  1  6  0  0  0
  5 24  1  0  0  0  0
  6  1  1  0  0  0  0
  8  7  1  0  0  0  0
  9 18  1  6  0  0  0
 10  8  1  6  0  0  0
 11 15  2  0  0  0  0
 12 28  1  0  0  0  0
 13  9  1  0  0  0  0
 14  9  1  0  0  0  0
 14  8  1  0  0  0  0
 15 23  1  0  0  0  0
 15 19  1  0  0  0  0
 16 20  2  0  0  0  0
 17  3  1  0  0  0  0
 17  5  1  0  0  0  0
 17 25  1  0  0  0  0
 19 25  1  0  0  0  0
 20  4  1  0  0  0  0
 21 22  1  0  0  0  0
 22  4  2  0  0  0  0
 23  6  1  0  0  0  0
 24 12  1  0  0  0  0
 24 26  1  0  0  0  0
 25 12  1  0  0  0  0
 26 13  1  0  0  0  0
 26 10  1  0  0  0  0
 28 16  1  0  0  0  0
 28 10  1  0  0  0  0
M  END
>  <MODEL>
4

>  <REMARK>
 VINA RESULT:      -8.2      1.625      2.266
  Name = 
  0 active torsions:
  status: ('A' for Active; 'I' for Inactive)
                            x       y       z     vdW  Elec       q    Type
                         _______ _______ _______ _____ _____    ______ ____

>  <TORSDO>
F 0

$$$$
=
 OpenBabel11112417433D

 28 32  0  0  1  0  0  0  0  0999 V2000
  186.6850  176.7700  142.9720 C   0  0  0  0  0  0  0  0  0  0  0  0
  187.1660  173.9370  142.2190 F   0  0  0  0  0  0  0  0  0  0  0  0
  192.5630  177.4380  144.6090 O   0  0  0  0  0  1  0  0  0  0  0  0
  186.2560  177.7370  140.3700 C   0  0  0  0  0  3  0  0  0  0  0  0
  191.7900  175.2350  144.1150 C   0  0  2  0  0  3  0  0  0  0  0  0
  186.8160  176.2620  144.3780 C   0  0  0  0  0  2  0  0  0  0  0  0
  187.9580  173.1420  140.2960 F   0  0  0  0  0  0  0  0  0  0  0  0
  188.3170  173.5110  141.5830 C   0  0  0  0  0  0  0  0  0  0  0  0
  189.9700  171.9410  141.6730 C   0  0  2  0  0  3  0  0  0  0  0  0
  189.3860  174.6560  141.4860 C   0  0  2  0  0  3  0  0  0  0  0  0
  188.9300  176.9410  146.8080 O   0  0  0  0  0  0  0  0  0  0  0  0
  189.5710  175.8010  143.6040 C   0  0  1  0  0  3  0  0  0  0  0  0
  191.1280  172.8400  142.0820 C   0  0  0  0  0  2  0  0  0  0  0  0
  188.7900  172.3810  142.2890 O   0  0  0  0  0  0  0  0  0  0  0  0
  188.5370  177.4330  145.7180 C   0  0  0  0  0  0  0  0  0  0  0  0
  187.6930  176.6060  141.9780 C   0  0  0  0  0  0  0  0  0  0  0  0
  191.4890  176.5640  144.7810 C   0  0  2  0  0  3  0  0  0  0  0  0
  190.2520  170.5750  142.0720 N   0  0  0  0  0  1  0  0  0  0  0  0
  189.4600  177.9230  144.7930 O   0  0  0  0  0  0  0  0  0  0  0  0
  187.4560  177.1000  140.6870 C   0  0  0  0  0  3  0  0  0  0  0  0
  185.4860  177.4090  142.6340 C   0  0  0  0  0  3  0  0  0  0  0  0
  185.2710  177.8910  141.3430 C   0  0  0  0  0  3  0  0  0  0  0  0
  187.0890  177.3980  145.3610 C   0  0  0  0  0  2  0  0  0  0  0  0
  190.5270  174.6900  143.6130 N   0  0  1  0  0  0  0  0  0  0  0  0
  190.2970  177.0640  144.0190 C   0  0  2  0  0  3  0  0  0  0  0  0
  190.6940  174.3050  142.2090 C   0  0  2  0  0  3  0  0  0  0  0  0
  192.4000  174.2810  145.1230 C   0  0  0  0  0  1  0  0  0  0  0  0
  189.0410  175.9510  142.2010 C   0  0  2  0  0  3  0  0  0  0  0  0
  1  6  1  0  0  0  0
  3 17  1  0  0  0  0
  4 20  2  0  0  0  0
  4 22  1  0  0  0  0
  5 17  1  0  0  0  0
  5 27  1  1  0  0  0
  6 23  1  0  0  0  0
  7  8  1  0  0  0  0
  8  2  1  0  0  0  0
  8 14  1  0  0  0  0
  9 18  1  1  0  0  0
  9 13  1  0  0  0  0
  9 14  1  0  0  0  0
 10  8  1  1  0  0  0
 10 28  1  0  0  0  0
 10 26  1  0  0  0  0
 12 24  1  0  0  0  0
 12 25  1  0  0  0  0
 13 26  1  0  0  0  0
 15 11  2  0  0  0  0
 16 28  1  0  0  0  0
 16  1  2  0  0  0  0
 19 15  1  0  0  0  0
 20 16  1  0  0  0  0
 21  1  1  0  0  0  0
 22 21  2  0  0  0  0
 23 15  1  0  0  0  0
 24  5  1  0  0  0  0
 25 17  1  0  0  0  0
 25 19  1  0  0  0  0
 26 24  1  0  0  0  0
 28 12  1  0  0  0  0
M  END
>  <MODEL>
5

>  <REMARK>
 VINA RESULT:      -8.2      2.613      4.918
  Name = 
  0 active torsions:
  status: ('A' for Active; 'I' for Inactive)
                            x       y       z     vdW  Elec       q    Type
                         _______ _______ _______ _____ _____    ______ ____

>  <TORSDO>
F 0

$$$$
=
 OpenBabel11112417433D

 28 32  0  0  1  0  0  0  0  0999 V2000
  190.8090  175.3140  144.2880 C   0  0  0  0  0  0  0  0  0  0  0  0
  189.3770  176.5330  141.9880 F   0  0  0  0  0  0  0  0  0  0  0  0
  186.0290  176.4160  147.9780 O   0  0  0  0  0  1  0  0  0  0  0  0
  190.7570  172.6680  143.3470 C   0  0  0  0  0  3  0  0  0  0  0  0
  185.9970  177.3850  145.7970 C   0  0  2  0  0  3  0  0  0  0  0  0
  190.9340  176.7300  144.7680 C   0  0  0  0  0  2  0  0  0  0  0  0
  187.9000  175.5750  140.6260 F   0  0  0  0  0  0  0  0  0  0  0  0
  188.0250  176.3570  141.7640 C   0  0  0  0  0  0  0  0  0  0  0  0
  186.0930  177.4850  141.3130 C   0  0  2  0  0  3  0  0  0  0  0  0
  187.3290  175.6070  142.9540 C   0  0  2  0  0  3  0  0  0  0  0  0
  189.8420  178.2790  147.4590 O   0  0  0  0  0  0  0  0  0  0  0  0
  188.0570  176.5380  145.0600 C   0  0  1  0  0  3  0  0  0  0  0  0
  185.3880  177.2860  142.6470 C   0  0  0  0  0  2  0  0  0  0  0  0
  187.4710  177.6350  141.5260 O   0  0  0  0  0  0  0  0  0  0  0  0
  190.0400  177.1070  147.0450 C   0  0  0  0  0  0  0  0  0  0  0  0
  189.5630  174.6890  143.9940 C   0  0  0  0  0  0  0  0  0  0  0  0
  186.8240  177.0530  147.0250 C   0  0  2  0  0  3  0  0  0  0  0  0
  185.5660  178.6660  140.6560 N   0  0  0  0  0  1  0  0  0  0  0  0
  189.0710  176.1200  147.2340 O   0  0  0  0  0  0  0  0  0  0  0  0
  189.5630  173.3670  143.5290 C   0  0  0  0  0  3  0  0  0  0  0  0
  191.9980  174.5990  144.0970 C   0  0  0  0  0  3  0  0  0  0  0  0
  191.9740  173.2850  143.6310 C   0  0  0  0  0  3  0  0  0  0  0  0
  191.2660  176.7910  146.2570 C   0  0  0  0  0  2  0  0  0  0  0  0
  186.8720  177.2850  144.6270 N   0  0  1  0  0  0  0  0  0  0  0  0
  187.8500  176.0970  146.4940 C   0  0  2  0  0  3  0  0  0  0  0  0
  186.2270  176.4440  143.6150 C   0  0  2  0  0  3  0  0  0  0  0  0
  185.4490  178.7930  145.9120 C   0  0  0  0  0  1  0  0  0  0  0  0
  188.2020  175.3310  144.1670 C   0  0  2  0  0  3  0  0  0  0  0  0
  1  6  1  0  0  0  0
  4 20  2  0  0  0  0
  4 22  1  0  0  0  0
  5 27  1  1  0  0  0
  5 17  1  0  0  0  0
  6 23  1  0  0  0  0
  7  8  1  0  0  0  0
  8  2  1  0  0  0  0
  9 18  1  1  0  0  0
  9 14  1  0  0  0  0
  9 13  1  0  0  0  0
 10  8  1  6  0  0  0
 10 26  1  0  0  0  0
 10 28  1  0  0  0  0
 12 25  1  0  0  0  0
 13 26  1  0  0  0  0
 14  8  1  0  0  0  0
 15 19  1  0  0  0  0
 15 11  2  0  0  0  0
 16 28  1  0  0  0  0
 16  1  2  0  0  0  0
 17  3  1  0  0  0  0
 20 16  1  0  0  0  0
 21  1  1  0  0  0  0
 22 21  2  0  0  0  0
 23 15  1  0  0  0  0
 24 12  1  0  0  0  0
 24  5  1  0  0  0  0
 25 17  1  0  0  0  0
 25 19  1  0  0  0  0
 26 24  1  0  0  0  0
 28 12  1  0  0  0  0
M  END
>  <MODEL>
6

>  <REMARK>
 VINA RESULT:      -7.9      2.603      6.142
  Name = 
  0 active torsions:
  status: ('A' for Active; 'I' for Inactive)
                            x       y       z     vdW  Elec       q    Type
                         _______ _______ _______ _____ _____    ______ ____

>  <TORSDO>
F 0

$$$$
=
 OpenBabel11112417433D

 28 32  0  0  1  0  0  0  0  0999 V2000
  187.4710  177.1220  144.2540 C   0  0  0  0  0  0  0  0  0  0  0  0
  187.5840  174.5250  142.8160 F   0  0  0  0  0  0  0  0  0  0  0  0
  193.5560  177.0560  145.0580 O   0  0  0  0  0  1  0  0  0  0  0  0
  186.7720  178.7000  142.0380 C   0  0  0  0  0  3  0  0  0  0  0  0
  192.5250  175.0790  144.2060 C   0  0  2  0  0  3  0  0  0  0  0  0
  187.7500  176.2900  145.4710 C   0  0  0  0  0  2  0  0  0  0  0  0
  188.0240  174.1650  140.6640 F   0  0  0  0  0  0  0  0  0  0  0  0
  188.5910  174.1990  141.9280 C   0  0  0  0  0  0  0  0  0  0  0  0
  190.0910  172.5630  141.4010 C   0  0  2  0  0  3  0  0  0  0  0  0
  189.7360  175.2730  141.9250 C   0  0  2  0  0  3  0  0  0  0  0  0
  190.2360  176.2560  147.6300 O   0  0  0  0  0  0  0  0  0  0  0  0
  190.3170  175.8720  144.1910 C   0  0  1  0  0  3  0  0  0  0  0  0
  191.3710  173.2730  141.8150 C   0  0  0  0  0  2  0  0  0  0  0  0
  189.0530  172.9100  142.2780 O   0  0  0  0  0  0  0  0  0  0  0  0
  189.7410  177.0120  146.7540 C   0  0  0  0  0  0  0  0  0  0  0  0
  188.3110  177.1420  143.1030 C   0  0  0  0  0  0  0  0  0  0  0  0
  192.4420  176.2270  145.1940 C   0  0  2  0  0  3  0  0  0  0  0  0
  190.3010  171.1280  141.4320 N   0  0  0  0  0  1  0  0  0  0  0  0
  190.5660  177.6550  145.8300 O   0  0  0  0  0  0  0  0  0  0  0  0
  187.9420  177.9400  142.0110 C   0  0  0  0  0  3  0  0  0  0  0  0
  186.2990  177.8890  144.2620 C   0  0  0  0  0  3  0  0  0  0  0  0
  185.9510  178.6740  143.1630 C   0  0  0  0  0  3  0  0  0  0  0  0
  188.2600  177.1430  146.6300 C   0  0  0  0  0  2  0  0  0  0  0  0
  191.1610  174.7390  143.7990 N   0  0  1  0  0  0  0  0  0  0  0  0
  191.2060  176.9580  144.7610 C   0  0  2  0  0  3  0  0  0  0  0  0
  191.0940  174.6880  142.3360 C   0  0  2  0  0  3  0  0  0  0  0  0
  193.1810  173.8810  144.8650 C   0  0  0  0  0  1  0  0  0  0  0  0
  189.6120  176.3800  142.9590 C   0  0  2  0  0  3  0  0  0  0  0  0
  1 21  1  0  0  0  0
  1  6  1  0  0  0  0
  3 17  1  0  0  0  0
  4 22  1  0  0  0  0
  5 27  1  1  0  0  0
  5 17  1  0  0  0  0
  6 23  1  0  0  0  0
  7  8  1  0  0  0  0
  8 14  1  0  0  0  0
  8  2  1  0  0  0  0
  9 18  1  1  0  0  0
  9 13  1  0  0  0  0
  9 14  1  0  0  0  0
 10  8  1  1  0  0  0
 10 26  1  0  0  0  0
 10 28  1  0  0  0  0
 12 25  1  0  0  0  0
 13 26  1  0  0  0  0
 15 11  2  0  0  0  0
 16  1  2  0  0  0  0
 19 15  1  0  0  0  0
 20  4  2  0  0  0  0
 20 16  1  0  0  0  0
 22 21  2  0  0  0  0
 23 15  1  0  0  0  0
 24 12  1  0  0  0  0
 24  5  1  0  0  0  0
 25 17  1  0  0  0  0
 25 19  1  0  0  0  0
 26 24  1  0  0  0  0
 28 16  1  0  0  0  0
 28 12  1  0  0  0  0
M  END
>  <MODEL>
7

>  <REMARK>
 VINA RESULT:      -7.9      2.367      4.861
  Name = 
  0 active torsions:
  status: ('A' for Active; 'I' for Inactive)
                            x       y       z     vdW  Elec       q    Type
                         _______ _______ _______ _____ _____    ______ ____

>  <TORSDO>
F 0

$$$$
=
 OpenBabel11112417433D

 28 32  0  0  1  0  0  0  0  0999 V2000
  188.3110  176.2440  145.5710 C   0  0  0  0  0  0  0  0  0  0  0  0
  188.5440  174.4240  143.2340 F   0  0  0  0  0  0  0  0  0  0  0  0
  194.3520  177.3250  145.4590 O   0  0  0  0  0  1  0  0  0  0  0  0
  186.9040  178.2910  144.2600 C   0  0  0  0  0  3  0  0  0  0  0  0
  193.5060  175.5940  144.0520 C   0  0  2  0  0  3  0  0  0  0  0  0
  188.9770  175.1260  146.3180 C   0  0  0  0  0  2  0  0  0  0  0  0
  188.5690  174.9610  141.0730 F   0  0  0  0  0  0  0  0  0  0  0  0
  189.3790  174.6780  142.1620 C   0  0  0  0  0  0  0  0  0  0  0  0
  190.9830  173.7330  140.8430 C   0  0  2  0  0  3  0  0  0  0  0  0
  190.3020  175.9200  142.4240 C   0  0  2  0  0  3  0  0  0  0  0  0
  191.8350  174.9160  147.9370 O   0  0  0  0  0  0  0  0  0  0  0  0
  191.2450  175.8000  144.6440 C   0  0  1  0  0  3  0  0  0  0  0  0
  192.1850  174.5310  141.3250 C   0  0  0  0  0  2  0  0  0  0  0  0
  190.1120  173.4950  141.9160 O   0  0  0  0  0  0  0  0  0  0  0  0
  191.0470  175.7940  147.5010 C   0  0  0  0  0  0  0  0  0  0  0  0
  188.8710  176.8640  144.4170 C   0  0  0  0  0  0  0  0  0  0  0  0
  193.4460  176.2660  145.4100 C   0  0  2  0  0  3  0  0  0  0  0  0
  191.4290  172.4710  140.2840 N   0  0  0  0  0  1  0  0  0  0  0  0
  191.5380  176.8960  146.7980 O   0  0  0  0  0  0  0  0  0  0  0  0
  188.1500  177.8860  143.7830 C   0  0  0  0  0  3  0  0  0  0  0  0
  187.0570  176.6610  146.0340 C   0  0  0  0  0  3  0  0  0  0  0  0
  186.3570  177.6780  145.3860 C   0  0  0  0  0  3  0  0  0  0  0  0
  189.5730  175.6090  147.6380 C   0  0  0  0  0  2  0  0  0  0  0  0
  192.1620  175.1090  143.7310 N   0  0  1  0  0  0  0  0  0  0  0  0
  192.0420  176.7910  145.4670 C   0  0  2  0  0  3  0  0  0  0  0  0
  191.7940  175.5640  142.3880 C   0  0  2  0  0  3  0  0  0  0  0  0
  194.4760  174.4290  144.0970 C   0  0  0  0  0  1  0  0  0  0  0  0
  190.2190  176.5290  143.8130 C   0  0  2  0  0  3  0  0  0  0  0  0
  1 21  1  0  0  0  0
  1  6  1  0  0  0  0
  4 22  1  0  0  0  0
  5 27  1  1  0  0  0
  5 17  1  0  0  0  0
  6 23  1  0  0  0  0
  7  8  1  0  0  0  0
  8  2  1  0  0  0  0
  9 18  1  1  0  0  0
  9 13  1  0  0  0  0
  9 14  1  0  0  0  0
 10  8  1  1  0  0  0
 10 28  1  0  0  0  0
 12 25  1  0  0  0  0
 13 26  1  0  0  0  0
 14  8  1  0  0  0  0
 15 23  1  0  0  0  0
 15 11  2  0  0  0  0
 16  1  2  0  0  0  0
 17  3  1  0  0  0  0
 17 25  1  0  0  0  0
 19 15  1  0  0  0  0
 20  4  2  0  0  0  0
 20 16  1  0  0  0  0
 22 21  2  0  0  0  0
 24  5  1  0  0  0  0
 24 12  1  0  0  0  0
 25 19  1  0  0  0  0
 26 10  1  0  0  0  0
 26 24  1  0  0  0  0
 28 16  1  0  0  0  0
 28 12  1  0  0  0  0
M  END
>  <MODEL>
8

>  <REMARK>
 VINA RESULT:      -7.8      2.328      5.098
  Name = 
  0 active torsions:
  status: ('A' for Active; 'I' for Inactive)
                            x       y       z     vdW  Elec       q    Type
                         _______ _______ _______ _____ _____    ______ ____

>  <TORSDO>
F 0

$$$$
=
 OpenBabel11112417433D

 28 32  0  0  1  0  0  0  0  0999 V2000
  185.9020  177.7180  145.1390 C   0  0  0  0  0  0  0  0  0  0  0  0
  186.0250  176.0050  142.7150 F   0  0  0  0  0  0  0  0  0  0  0  0
  191.8340  176.6640  146.3090 O   0  0  0  0  0  1  0  0  0  0  0  0
  185.5650  180.1640  143.8010 C   0  0  0  0  0  3  0  0  0  0  0  0
  190.7930  175.3740  144.5920 C   0  0  2  0  0  3  0  0  0  0  0  0
  185.9850  176.4160  145.8800 C   0  0  0  0  0  2  0  0  0  0  0  0
  186.6940  176.5690  140.6670 F   0  0  0  0  0  0  0  0  0  0  0  0
  187.1090  175.9910  141.8570 C   0  0  0  0  0  0  0  0  0  0  0  0
  188.5590  174.5960  140.7810 C   0  0  2  0  0  3  0  0  0  0  0  0
  188.3090  176.8320  142.4200 C   0  0  2  0  0  3  0  0  0  0  0  0
  188.1910  175.1860  147.9900 O   0  0  0  0  0  0  0  0  0  0  0  0
  188.6540  176.3240  144.7550 C   0  0  1  0  0  3  0  0  0  0  0  0
  189.8220  174.9160  141.5670 C   0  0  0  0  0  2  0  0  0  0  0  0
  187.4470  174.6360  141.6360 O   0  0  0  0  0  0  0  0  0  0  0  0
  187.8500  176.2950  147.5030 C   0  0  0  0  0  0  0  0  0  0  0  0
  186.8710  178.1450  144.1850 C   0  0  0  0  0  0  0  0  0  0  0  0
  190.6640  175.9820  145.9760 C   0  0  2  0  0  3  0  0  0  0  0  0
  188.6760  173.2760  140.1910 N   0  0  0  0  0  1  0  0  0  0  0  0
  188.8160  177.1830  147.0270 O   0  0  0  0  0  0  0  0  0  0  0  0
  186.6820  179.3720  143.5330 C   0  0  0  0  0  3  0  0  0  0  0  0
  184.7850  178.5250  145.3920 C   0  0  0  0  0  3  0  0  0  0  0  0
  184.6170  179.7400  144.7290 C   0  0  0  0  0  3  0  0  0  0  0  0
  186.4050  176.6230  147.3330 C   0  0  0  0  0  2  0  0  0  0  0  0
  189.4680  175.3910  143.9700 N   0  0  1  0  0  0  0  0  0  0  0  0
  189.5340  176.9550  145.8140 C   0  0  2  0  0  3  0  0  0  0  0  0
  189.5710  175.9860  142.6350 C   0  0  2  0  0  3  0  0  0  0  0  0
  191.2930  173.9460  144.7030 C   0  0  0  0  0  1  0  0  0  0  0  0
  188.1310  177.3870  143.8220 C   0  0  2  0  0  3  0  0  0  0  0  0
  1 21  1  0  0  0  0
  1  6  1  0  0  0  0
  4 22  1  0  0  0  0
  5 27  1  1  0  0  0
  5 17  1  0  0  0  0
  6 23  1  0  0  0  0
  7  8  1  0  0  0  0
  8  2  1  0  0  0  0
  9 18  1  1  0  0  0
  9 13  1  0  0  0  0
  9 14  1  0  0  0  0
 10  8  1  1  0  0  0
 10 26  1  0  0  0  0
 10 28  1  0  0  0  0
 12 25  1  0  0  0  0
 13 26  1  0  0  0  0
 14  8  1  0  0  0  0
 15 11  2  0  0  0  0
 16  1  2  0  0  0  0
 17  3  1  0  0  0  0
 19 15  1  0  0  0  0
 20  4  2  0  0  0  0
 20 16  1  0  0  0  0
 22 21  2  0  0  0  0
 23 15  1  0  0  0  0
 24  5  1  0  0  0  0
 24 12  1  0  0  0  0
 25 17  1  0  0  0  0
 25 19  1  0  0  0  0
 26 24  1  0  0  0  0
 28 16  1  0  0  0  0
 28 12  1  0  0  0  0
M  END
>  <MODEL>
9

>  <REMARK>
 VINA RESULT:      -7.7      2.279      4.699
  Name = 
  0 active torsions:
  status: ('A' for Active; 'I' for Inactive)
                            x       y       z     vdW  Elec       q    Type
                         _______ _______ _______ _____ _____    ______ ____

>  <TORSDO>
F 0

$$$$
