=
 OpenBabel11112416353D

 32 37  0  0  1  0  0  0  0  0999 V2000
  185.9280  179.1380  143.7450 C   0  0  0  0  0  2  0  0  0  0  0  0
  190.0040  175.9450  142.8350 C   0  0  0  0  0  0  0  0  0  0  0  0
  189.4040  172.2180  139.6860 C   0  0  0  0  0  2  0  0  0  0  0  0
  190.8090  172.4100  139.3520 N   0  0  0  0  0  2  0  0  0  0  0  0
  192.4130  176.4400  143.7110 C   0  0  0  0  0  0  0  0  0  0  0  0
  193.8260  176.0890  143.6810 C   0  0  0  0  0  0  0  0  0  0  0  0
  188.0150  177.1220  143.7080 C   0  0  0  0  0  0  0  0  0  0  0  0
  187.6870  175.6390  141.7270 C   0  0  0  0  0  2  0  0  0  0  0  0
  195.6890  175.0130  143.1040 N   0  0  0  0  0  0  0  0  0  0  0  0
  185.6990  176.7740  142.8440 C   0  0  0  0  0  2  0  0  0  0  0  0
  188.7910  173.5490  140.0970 C   0  0  0  0  0  2  0  0  0  0  0  0
  189.1300  175.2220  141.8870 C   0  0  0  0  0  0  0  0  0  0  0  0
  189.6420  174.2370  141.1330 C   0  0  0  0  0  0  0  0  0  0  0  0
  191.9450  174.6460  142.0790 C   0  0  0  0  0  0  0  0  0  0  0  0
  196.0730  176.0080  144.1000 C   0  0  0  0  0  2  0  0  0  0  0  0
  186.2840  178.3740  144.8660 O   0  0  0  0  0  0  0  0  0  0  0  0
  187.1790  176.5420  142.8170 C   0  0  0  0  0  0  0  0  0  0  0  0
  194.8500  176.6800  144.4070 O   0  0  0  0  0  0  0  0  0  0  0  0
  187.5740  178.0370  144.6830 O   0  0  0  0  0  0  0  0  0  0  0  0
  185.3320  178.2500  142.6520 C   0  0  1  0  0  3  0  0  0  0  0  0
  191.5200  172.6600  140.6010 C   0  0  0  0  0  2  0  0  0  0  0  0
  191.0410  173.8910  141.2390 N   0  0  0  0  0  0  0  0  0  0  0  0
  193.4260  174.2690  142.0550 C   0  0  0  0  0  2  0  0  0  0  0  0
  189.4570  176.8280  143.6760 C   0  0  0  0  0  3  0  0  0  0  0  0
  192.0270  177.3910  144.4420 O   0  0  0  0  0  0  0  0  0  0  0  0
  196.5040  173.8820  142.7020 C   0  0  0  0  0  1  0  0  0  0  0  0
  191.4680  175.6550  142.8580 C   0  0  0  0  0  0  0  0  0  0  0  0
  194.2870  175.1240  142.9340 C   0  0  0  0  0  0  0  0  0  0  0  0
  183.8840  178.4000  142.6490 N   0  0  0  0  0  2  0  0  0  0  0  0
  183.1000  178.2780  141.4610 C   0  0  0  0  0  0  0  0  0  0  0  0
  183.6470  178.0570  140.3480 O   0  0  0  0  0  0  0  0  0  0  0  0
  181.6230  178.4190  141.5390 C   0  0  0  0  0  1  0  0  0  0  0  0
  1 16  1  0  0  0  0
  2 27  1  0  0  0  0
  2 24  2  0  0  0  0
  3 11  1  0  0  0  0
  4  3  1  0  0  0  0
  4 21  1  0  0  0  0
  5 25  2  0  0  0  0
  6  5  1  0  0  0  0
  6 18  1  0  0  0  0
  7 19  1  0  0  0  0
  8 12  1  0  0  0  0
  8 17  1  0  0  0  0
  9 15  1  0  0  0  0
 11 13  1  0  0  0  0
 12  2  1  0  0  0  0
 13 22  1  0  0  0  0
 13 12  2  0  0  0  0
 14 27  2  0  0  0  0
 15 18  1  0  0  0  0
 17 10  1  0  0  0  0
 17  7  2  0  0  0  0
 19 16  1  0  0  0  0
 20 29  1  1  0  0  0
 20 10  1  0  0  0  0
 20  1  1  0  0  0  0
 21 22  1  0  0  0  0
 22 14  1  0  0  0  0
 23 14  1  0  0  0  0
 23 28  1  0  0  0  0
 24  7  1  0  0  0  0
 26  9  1  0  0  0  0
 27  5  1  0  0  0  0
 28  9  1  0  0  0  0
 28  6  2  0  0  0  0
 30 32  1  0  0  0  0
 30 29  1  0  0  0  0
 31 30  2  0  0  0  0
M  END
>  <MODEL>
1

>  <REMARK>
 VINA RESULT:      -8.5      0.000      0.000
  Name = 
  1 active torsions:
  status: ('A' for Active; 'I' for Inactive)
    1  A    between atoms: C_20  and  N_29
                            x       y       z     vdW  Elec       q    Type
                         _______ _______ _______ _____ _____    ______ ____

>  <TORSDO>
F 1

$$$$
=
 OpenBabel11112416353D

 32 37  0  0  1  0  0  0  0  0999 V2000
  192.8330  176.4140  142.8870 C   0  0  0  0  0  2  0  0  0  0  0  0
  187.6920  177.1930  143.6630 C   0  0  1  0  0  3  0  0  0  0  0  0
  186.1190  178.0730  148.2360 C   0  0  0  0  0  2  0  0  0  0  0  0
  185.0980  178.9040  147.6150 N   0  0  0  0  0  2  0  0  0  0  0  0
  185.9910  177.4670  141.7020 C   0  0  0  0  0  0  0  0  0  0  0  0
  184.6370  177.8170  141.2920 C   0  0  0  0  0  0  0  0  0  0  0  0
  189.9670  176.2910  143.3190 C   0  0  0  0  0  0  0  0  0  0  0  0
  189.4360  177.2250  145.5730 C   0  0  0  0  0  3  0  0  0  0  0  0
  182.5160  178.4700  141.4650 N   0  0  0  0  0  0  0  0  0  0  0  0
  191.6780  176.0990  145.1270 C   0  0  0  0  0  2  0  0  0  0  0  0
  187.3780  178.0840  147.3800 C   0  0  0  0  0  2  0  0  0  0  0  0
  188.0150  177.3950  145.0920 C   0  0  0  0  0  0  0  0  0  0  0  0
  187.0500  177.7860  145.9390 C   0  0  0  0  0  0  0  0  0  0  0  0
  185.3830  177.9300  144.0520 C   0  0  0  0  0  0  0  0  0  0  0  0
  182.7480  178.1790  140.0540 C   0  0  0  0  0  2  0  0  0  0  0  0
  192.0650  175.2660  142.6480 O   0  0  0  0  0  0  0  0  0  0  0  0
  190.3390  176.5170  144.6000 C   0  0  0  0  0  0  0  0  0  0  0  0
  184.1240  177.7960  140.0020 O   0  0  0  0  0  0  0  0  0  0  0  0
  190.8250  175.7080  142.3680 O   0  0  0  0  0  0  0  0  0  0  0  0
  192.8380  176.7610  144.3760 C   0  0  1  0  0  3  0  0  0  0  0  0
  184.6240  178.1940  146.4310 C   0  0  0  0  0  2  0  0  0  0  0  0
  185.7080  178.0170  145.4580 N   0  0  0  0  0  0  0  0  0  0  0  0
  183.9600  178.2850  143.6230 C   0  0  0  0  0  2  0  0  0  0  0  0
  188.6230  176.6750  142.8560 C   0  0  0  0  0  3  0  0  0  0  0  0
  186.8330  177.1250  140.8310 O   0  0  0  0  0  0  0  0  0  0  0  0
  181.2090  178.6030  142.0820 C   0  0  0  0  0  1  0  0  0  0  0  0
  186.3320  177.5390  143.1570 C   0  0  0  0  0  0  0  0  0  0  0  0
  183.7270  178.1930  142.1460 C   0  0  0  0  0  0  0  0  0  0  0  0
  194.1040  176.3450  144.9620 N   0  0  0  0  0  2  0  0  0  0  0  0
  194.3700  174.9930  145.3400 C   0  0  0  0  0  0  0  0  0  0  0  0
  193.4920  174.1010  145.2000 O   0  0  0  0  0  0  0  0  0  0  0  0
  195.6960  174.6380  145.9100 C   0  0  0  0  0  1  0  0  0  0  0  0
  1 20  1  0  0  0  0
  2 24  1  1  0  0  0
  2 12  1  0  0  0  0
  4  3  1  0  0  0  0
  5 27  1  0  0  0  0
  6  5  1  0  0  0  0
  6 28  2  0  0  0  0
  7 17  1  0  0  0  0
  9 26  1  0  0  0  0
  9 28  1  0  0  0  0
 11  3  1  0  0  0  0
 12  8  1  0  0  0  0
 12 13  2  0  0  0  0
 13 11  1  0  0  0  0
 14 22  1  0  0  0  0
 15  9  1  0  0  0  0
 16  1  1  0  0  0  0
 17 10  1  0  0  0  0
 17  8  2  0  0  0  0
 18 15  1  0  0  0  0
 18  6  1  0  0  0  0
 19 16  1  0  0  0  0
 19  7  1  0  0  0  0
 20 29  1  1  0  0  0
 20 10  1  0  0  0  0
 21  4  1  0  0  0  0
 22 13  1  0  0  0  0
 22 21  1  0  0  0  0
 23 14  1  0  0  0  0
 24  7  2  0  0  0  0
 25  5  2  0  0  0  0
 27  2  1  0  0  0  0
 27 14  2  0  0  0  0
 28 23  1  0  0  0  0
 29 30  1  0  0  0  0
 30 32  1  0  0  0  0
 31 30  2  0  0  0  0
M  END
>  <MODEL>
2

>  <REMARK>
 VINA RESULT:      -8.4      2.949      9.282
  Name = 
  1 active torsions:
  status: ('A' for Active; 'I' for Inactive)
    1  A    between atoms: C_20  and  N_29
                            x       y       z     vdW  Elec       q    Type
                         _______ _______ _______ _____ _____    ______ ____

>  <TORSDO>
F 1

$$$$
=
 OpenBabel11112416353D

 32 37  0  0  1  0  0  0  0  0999 V2000
  189.7080  173.6880  137.8540 C   0  0  0  0  0  2  0  0  0  0  0  0
  188.7200  175.4390  142.7110 C   0  0  0  0  0  0  0  0  0  0  0  0
  192.2660  175.0830  146.0980 C   0  0  0  0  0  2  0  0  0  0  0  0
  191.7110  176.3070  146.6580 N   0  0  0  0  0  2  0  0  0  0  0  0
  186.5680  176.7870  143.3190 C   0  0  0  0  0  0  0  0  0  0  0  0
  185.8610  177.5870  144.3090 C   0  0  0  0  0  0  0  0  0  0  0  0
  188.9250  174.1600  140.6070 C   0  0  0  0  0  0  0  0  0  0  0  0
  190.9730  174.3750  142.0180 C   0  0  0  0  0  2  0  0  0  0  0  0
  185.4700  178.6610  146.2210 N   0  0  0  0  0  0  0  0  0  0  0  0
  190.9870  172.9360  139.9150 C   0  0  0  0  0  2  0  0  0  0  0  0
  192.0410  175.0640  144.5920 C   0  0  0  0  0  2  0  0  0  0  0  0
  190.1070  175.0550  143.0510 C   0  0  0  0  0  0  0  0  0  0  0  0
  190.6030  175.3660  144.2580 C   0  0  0  0  0  0  0  0  0  0  0  0
  188.4700  176.5620  144.8800 C   0  0  0  0  0  0  0  0  0  0  0  0
  184.2720  178.8170  145.4030 C   0  0  0  0  0  2  0  0  0  0  0  0
  188.7400  172.9250  138.5220 O   0  0  0  0  0  0  0  0  0  0  0  0
  190.2180  173.8350  140.8340 C   0  0  0  0  0  0  0  0  0  0  0  0
  184.5920  178.1370  144.1870 O   0  0  0  0  0  0  0  0  0  0  0  0
  188.2220  173.7370  139.4640 O   0  0  0  0  0  0  0  0  0  0  0  0
  191.0840  173.4950  138.4920 C   0  0  1  0  0  3  0  0  0  0  0  0
  190.2570  176.1870  146.6040 C   0  0  0  0  0  2  0  0  0  0  0  0
  189.7910  176.0810  145.2170 N   0  0  0  0  0  0  0  0  0  0  0  0
  187.7240  177.3920  145.9240 C   0  0  0  0  0  2  0  0  0  0  0  0
  188.1910  175.0070  141.5620 C   0  0  0  0  0  3  0  0  0  0  0  0
  186.0260  176.5580  142.2060 O   0  0  0  0  0  0  0  0  0  0  0  0
  185.5390  178.9050  147.6500 C   0  0  0  0  0  1  0  0  0  0  0  0
  187.9290  176.2710  143.6650 C   0  0  0  0  0  0  0  0  0  0  0  0
  186.3770  177.8700  145.4730 C   0  0  0  0  0  0  0  0  0  0  0  0
  191.8760  172.5960  137.6640 N   0  0  0  0  0  2  0  0  0  0  0  0
  193.0130  173.0350  136.9200 C   0  0  0  0  0  0  0  0  0  0  0  0
  193.3650  174.2450  136.9350 O   0  0  0  0  0  0  0  0  0  0  0  0
  193.7870  172.0540  136.1160 C   0  0  0  0  0  1  0  0  0  0  0  0
  1 20  1  0  0  0  0
  1 16  1  0  0  0  0
  2 12  1  0  0  0  0
  2 27  1  0  0  0  0
  3  4  1  0  0  0  0
  5 27  1  0  0  0  0
  5  6  1  0  0  0  0
  6 28  2  0  0  0  0
  7 17  2  0  0  0  0
  7 24  1  0  0  0  0
  8 12  1  0  0  0  0
  9 26  1  0  0  0  0
 10 17  1  0  0  0  0
 11  3  1  0  0  0  0
 12 13  2  0  0  0  0
 13 11  1  0  0  0  0
 13 22  1  0  0  0  0
 14 22  1  0  0  0  0
 14 23  1  0  0  0  0
 15  9  1  0  0  0  0
 16 19  1  0  0  0  0
 17  8  1  0  0  0  0
 18  6  1  0  0  0  0
 18 15  1  0  0  0  0
 19  7  1  0  0  0  0
 20 29  1  6  0  0  0
 20 10  1  0  0  0  0
 21  4  1  0  0  0  0
 22 21  1  0  0  0  0
 24  2  2  0  0  0  0
 25  5  2  0  0  0  0
 27 14  2  0  0  0  0
 28 23  1  0  0  0  0
 28  9  1  0  0  0  0
 30 31  2  0  0  0  0
 30 29  1  0  0  0  0
 32 30  1  0  0  0  0
M  END
>  <MODEL>
3

>  <REMARK>
 VINA RESULT:      -8.0      3.369      8.119
  Name = 
  1 active torsions:
  status: ('A' for Active; 'I' for Inactive)
    1  A    between atoms: C_20  and  N_29
                            x       y       z     vdW  Elec       q    Type
                         _______ _______ _______ _____ _____    ______ ____

>  <TORSDO>
F 1

$$$$
=
 OpenBabel11112416353D

 32 37  0  0  1  0  0  0  0  0999 V2000
  194.6610  175.0570  146.1380 C   0  0  0  0  0  2  0  0  0  0  0  0
  190.3120  175.9910  143.3350 C   0  0  0  0  0  0  0  0  0  0  0  0
  189.5890  173.4250  139.2050 C   0  0  0  0  0  2  0  0  0  0  0  0
  188.1690  173.5300  139.5110 N   0  0  0  0  0  2  0  0  0  0  0  0
  188.3670  177.5010  144.2030 C   0  0  0  0  0  0  0  0  0  0  0  0
  187.0030  177.9750  144.0120 C   0  0  0  0  0  0  0  0  0  0  0  0
  192.5510  175.9940  144.3810 C   0  0  0  0  0  0  0  0  0  0  0  0
  192.1060  174.2640  142.6370 C   0  0  0  0  0  2  0  0  0  0  0  0
  184.9880  178.1930  143.0900 N   0  0  0  0  0  0  0  0  0  0  0  0
  194.4230  174.5030  143.6700 C   0  0  0  0  0  2  0  0  0  0  0  0
  190.3900  173.4100  140.4990 C   0  0  0  0  0  2  0  0  0  0  0  0
  190.7740  174.9360  142.4070 C   0  0  0  0  0  0  0  0  0  0  0  0
  189.9770  174.5450  141.4010 C   0  0  0  0  0  0  0  0  0  0  0  0
  188.1490  176.1000  142.1800 C   0  0  0  0  0  0  0  0  0  0  0  0
  185.0210  179.0950  144.2370 C   0  0  0  0  0  2  0  0  0  0  0  0
  194.6470  176.3350  145.5630 O   0  0  0  0  0  0  0  0  0  0  0  0
  193.0060  174.9840  143.6040 C   0  0  0  0  0  0  0  0  0  0  0  0
  186.3190  178.8900  144.8000 O   0  0  0  0  0  0  0  0  0  0  0  0
  193.3490  176.6260  145.3530 O   0  0  0  0  0  0  0  0  0  0  0  0
  194.8020  173.9810  145.0600 C   0  0  1  0  0  3  0  0  0  0  0  0
  187.9290  174.8870  139.9920 C   0  0  0  0  0  2  0  0  0  0  0  0
  188.6720  175.1430  141.2310 N   0  0  0  0  0  0  0  0  0  0  0  0
  186.7220  176.6060  141.9720 C   0  0  0  0  0  2  0  0  0  0  0  0
  191.1640  176.4680  144.2490 C   0  0  0  0  0  3  0  0  0  0  0  0
  189.0350  177.9160  145.1870 O   0  0  0  0  0  0  0  0  0  0  0  0
  184.0130  178.2490  142.0160 C   0  0  0  0  0  1  0  0  0  0  0  0
  188.9230  176.5230  143.2170 C   0  0  0  0  0  0  0  0  0  0  0  0
  186.2590  177.5710  143.0200 C   0  0  0  0  0  0  0  0  0  0  0  0
  196.1740  173.4940  145.0440 N   0  0  0  0  0  2  0  0  0  0  0  0
  196.5140  172.1610  144.6580 C   0  0  0  0  0  0  0  0  0  0  0  0
  195.6190  171.3370  144.3330 O   0  0  0  0  0  0  0  0  0  0  0  0
  197.9400  171.7430  144.6430 C   0  0  0  0  0  1  0  0  0  0  0  0
  2 24  2  0  0  0  0
  3  4  1  0  0  0  0
  3 11  1  0  0  0  0
  4 21  1  0  0  0  0
  5 25  2  0  0  0  0
  6  5  1  0  0  0  0
  6 18  1  0  0  0  0
  7 19  1  0  0  0  0
  8 17  1  0  0  0  0
  9 15  1  0  0  0  0
 10 20  1  0  0  0  0
 11 13  1  0  0  0  0
 12  8  1  0  0  0  0
 12  2  1  0  0  0  0
 13 12  2  0  0  0  0
 14 27  2  0  0  0  0
 15 18  1  0  0  0  0
 16  1  1  0  0  0  0
 17 10  1  0  0  0  0
 17  7  2  0  0  0  0
 19 16  1  0  0  0  0
 20 29  1  6  0  0  0
 20  1  1  0  0  0  0
 21 22  1  0  0  0  0
 22 13  1  0  0  0  0
 22 14  1  0  0  0  0
 23 14  1  0  0  0  0
 23 28  1  0  0  0  0
 24  7  1  0  0  0  0
 26  9  1  0  0  0  0
 27  2  1  0  0  0  0
 27  5  1  0  0  0  0
 28  9  1  0  0  0  0
 28  6  2  0  0  0  0
 30 29  1  0  0  0  0
 31 30  2  0  0  0  0
 32 30  1  0  0  0  0
M  END
>  <MODEL>
4

>  <REMARK>
 VINA RESULT:      -7.8      1.862      8.286
  Name = 
  1 active torsions:
  status: ('A' for Active; 'I' for Inactive)
    1  A    between atoms: C_20  and  N_29
                            x       y       z     vdW  Elec       q    Type
                         _______ _______ _______ _____ _____    ______ ____

>  <TORSDO>
F 1

$$$$
=
 OpenBabel11112416353D

 32 37  0  0  1  0  0  0  0  0999 V2000
  195.3130  174.5530  146.2710 C   0  0  0  0  0  2  0  0  0  0  0  0
  190.4680  176.1020  144.9450 C   0  0  0  0  0  0  0  0  0  0  0  0
  188.5990  174.5500  140.6710 C   0  0  0  0  0  2  0  0  0  0  0  0
  187.3080  174.5810  141.3430 N   0  0  0  0  0  2  0  0  0  0  0  0
  188.8890  177.3720  146.5900 C   0  0  0  0  0  0  0  0  0  0  0  0
  187.5490  177.8770  146.8610 C   0  0  0  0  0  0  0  0  0  0  0  0
  192.8920  175.8670  145.3610 C   0  0  0  0  0  0  0  0  0  0  0  0
  191.9310  174.5820  143.4490 C   0  0  0  0  0  2  0  0  0  0  0  0
  185.3850  178.3000  146.5530 N   0  0  0  0  0  0  0  0  0  0  0  0
  194.4410  174.5790  143.8860 C   0  0  0  0  0  2  0  0  0  0  0  0
  189.6940  174.2390  141.6830 C   0  0  0  0  0  2  0  0  0  0  0  0
  190.6240  175.2880  143.7200 C   0  0  0  0  0  0  0  0  0  0  0  0
  189.5820  175.1370  142.8890 C   0  0  0  0  0  0  0  0  0  0  0  0
  188.0960  176.4710  144.4300 C   0  0  0  0  0  0  0  0  0  0  0  0
  185.7530  178.9140  147.8240 C   0  0  0  0  0  2  0  0  0  0  0  0
  195.2310  175.9290  146.0170 O   0  0  0  0  0  0  0  0  0  0  0  0
  193.0820  175.0620  144.2910 C   0  0  0  0  0  0  0  0  0  0  0  0
  187.1350  178.5870  147.9800 O   0  0  0  0  0  0  0  0  0  0  0  0
  193.9410  176.2600  146.2130 O   0  0  0  0  0  0  0  0  0  0  0  0
  195.1210  173.7520  144.9830 C   0  0  1  0  0  3  0  0  0  0  0  0
  187.2730  175.7910  142.1570 C   0  0  0  0  0  2  0  0  0  0  0  0
  188.3130  175.7570  143.1920 N   0  0  0  0  0  0  0  0  0  0  0  0
  186.6940  177.0110  144.7090 C   0  0  0  0  0  2  0  0  0  0  0  0
  191.5450  176.3580  145.6940 C   0  0  0  0  0  3  0  0  0  0  0  0
  189.8020  177.5510  147.4390 O   0  0  0  0  0  0  0  0  0  0  0  0
  184.1790  178.5990  145.8030 C   0  0  0  0  0  1  0  0  0  0  0  0
  189.1260  176.6460  145.3040 C   0  0  0  0  0  0  0  0  0  0  0  0
  186.5610  177.7100  146.0270 C   0  0  0  0  0  0  0  0  0  0  0  0
  196.4160  173.2830  144.5120 N   0  0  0  0  0  2  0  0  0  0  0  0
  196.5920  172.0140  143.8790 C   0  0  0  0  0  0  0  0  0  0  0  0
  195.6180  171.2310  143.7250 O   0  0  0  0  0  0  0  0  0  0  0  0
  197.9410  171.6130  143.4020 C   0  0  0  0  0  1  0  0  0  0  0  0
  2 27  1  0  0  0  0
  2 24  2  0  0  0  0
  3  4  1  0  0  0  0
  3 11  1  0  0  0  0
  4 21  1  0  0  0  0
  5  6  1  0  0  0  0
  5 25  2  0  0  0  0
  6 18  1  0  0  0  0
  7 24  1  0  0  0  0
  7 19  1  0  0  0  0
  8 12  1  0  0  0  0
  8 17  1  0  0  0  0
  9 15  1  0  0  0  0
 10 17  1  0  0  0  0
 10 20  1  0  0  0  0
 11 13  1  0  0  0  0
 12  2  1  0  0  0  0
 13 22  1  0  0  0  0
 13 12  2  0  0  0  0
 14 23  1  0  0  0  0
 14 27  2  0  0  0  0
 15 18  1  0  0  0  0
 16 19  1  0  0  0  0
 16  1  1  0  0  0  0
 17  7  2  0  0  0  0
 20 29  1  6  0  0  0
 20  1  1  0  0  0  0
 21 22  1  0  0  0  0
 22 14  1  0  0  0  0
 23 28  1  0  0  0  0
 26  9  1  0  0  0  0
 27  5  1  0  0  0  0
 28  9  1  0  0  0  0
 28  6  2  0  0  0  0
 30 29  1  0  0  0  0
 31 30  2  0  0  0  0
 32 30  1  0  0  0  0
M  END
>  <MODEL>
5

>  <REMARK>
 VINA RESULT:      -7.7      2.908      8.571
  Name = 
  1 active torsions:
  status: ('A' for Active; 'I' for Inactive)
    1  A    between atoms: C_20  and  N_29
                            x       y       z     vdW  Elec       q    Type
                         _______ _______ _______ _____ _____    ______ ____

>  <TORSDO>
F 1

$$$$
=
 OpenBabel11112416353D

 32 37  0  0  1  0  0  0  0  0999 V2000
  193.3280  174.0030  139.8510 C   0  0  0  0  0  2  0  0  0  0  0  0
  189.7970  175.8500  143.2780 C   0  0  1  0  0  3  0  0  0  0  0  0
  191.2120  176.6060  147.9250 C   0  0  0  0  0  2  0  0  0  0  0  0
  190.2580  177.7060  147.9280 N   0  0  0  0  0  2  0  0  0  0  0  0
  187.4350  176.6990  142.5580 C   0  0  0  0  0  0  0  0  0  0  0  0
  186.2090  177.3860  142.9400 C   0  0  0  0  0  0  0  0  0  0  0  0
  191.2230  174.4930  141.7850 C   0  0  0  0  0  0  0  0  0  0  0  0
  192.2390  175.2940  143.9200 C   0  0  0  0  0  3  0  0  0  0  0  0
  184.7530  178.4850  144.2180 N   0  0  0  0  0  0  0  0  0  0  0  0
  193.5290  173.7380  142.3690 C   0  0  0  0  0  2  0  0  0  0  0  0
  191.7670  176.4160  146.5200 C   0  0  0  0  0  2  0  0  0  0  0  0
  190.8770  175.8310  144.2880 C   0  0  0  0  0  0  0  0  0  0  0  0
  190.6530  176.3450  145.5070 C   0  0  0  0  0  0  0  0  0  0  0  0
  188.3260  177.0510  144.8350 C   0  0  0  0  0  0  0  0  0  0  0  0
  184.1080  178.2910  142.9240 C   0  0  0  0  0  2  0  0  0  0  0  0
  192.3000  173.0890  140.1200 O   0  0  0  0  0  0  0  0  0  0  0  0
  192.2690  174.5000  142.6430 C   0  0  0  0  0  0  0  0  0  0  0  0
  185.0940  177.6110  142.1440 O   0  0  0  0  0  0  0  0  0  0  0  0
  191.2580  173.8280  140.5460 O   0  0  0  0  0  0  0  0  0  0  0  0
  194.2210  174.1900  141.0790 C   0  0  1  0  0  3  0  0  0  0  0  0
  189.0640  177.2440  147.2280 C   0  0  0  0  0  2  0  0  0  0  0  0
  189.3680  176.9220  145.8290 N   0  0  0  0  0  0  0  0  0  0  0  0
  187.0360  177.7620  145.2400 C   0  0  0  0  0  2  0  0  0  0  0  0
  189.9840  175.2170  142.1170 C   0  0  0  0  0  3  0  0  0  0  0  0
  187.5590  176.2620  141.3830 O   0  0  0  0  0  0  0  0  0  0  0  0
  184.0660  178.8500  145.4430 C   0  0  0  0  0  1  0  0  0  0  0  0
  188.5120  176.5460  143.5840 C   0  0  0  0  0  0  0  0  0  0  0  0
  186.0290  177.8730  144.1360 C   0  0  0  0  0  0  0  0  0  0  0  0
  195.4550  173.4390  140.8940 N   0  0  0  0  0  2  0  0  0  0  0  0
  196.6490  174.0340  140.3820 C   0  0  0  0  0  0  0  0  0  0  0  0
  196.6700  175.2470  140.0440 O   0  0  0  0  0  0  0  0  0  0  0  0
  197.8780  173.2100  140.2450 C   0  0  0  0  0  1  0  0  0  0  0  0
  1 16  1  0  0  0  0
  1 20  1  0  0  0  0
  2 24  1  1  0  0  0
  2 27  1  0  0  0  0
  2 12  1  0  0  0  0
  3  4  1  0  0  0  0
  5  6  1  0  0  0  0
  5 27  1  0  0  0  0
  6 28  2  0  0  0  0
  7 24  2  0  0  0  0
  7 17  1  0  0  0  0
  8 12  1  0  0  0  0
  9 26  1  0  0  0  0
 10 17  1  0  0  0  0
 11  3  1  0  0  0  0
 12 13  2  0  0  0  0
 13 22  1  0  0  0  0
 13 11  1  0  0  0  0
 14 23  1  0  0  0  0
 14 22  1  0  0  0  0
 15  9  1  0  0  0  0
 16 19  1  0  0  0  0
 17  8  2  0  0  0  0
 18 15  1  0  0  0  0
 18  6  1  0  0  0  0
 19  7  1  0  0  0  0
 20 29  1  6  0  0  0
 20 10  1  0  0  0  0
 21  4  1  0  0  0  0
 22 21  1  0  0  0  0
 25  5  2  0  0  0  0
 27 14  2  0  0  0  0
 28  9  1  0  0  0  0
 28 23  1  0  0  0  0
 30 29  1  0  0  0  0
 31 30  2  0  0  0  0
 32 30  1  0  0  0  0
M  END
>  <MODEL>
6

>  <REMARK>
 VINA RESULT:      -7.7      3.070      8.962
  Name = 
  1 active torsions:
  status: ('A' for Active; 'I' for Inactive)
    1  A    between atoms: C_20  and  N_29
                            x       y       z     vdW  Elec       q    Type
                         _______ _______ _______ _____ _____    ______ ____

>  <TORSDO>
F 1

$$$$
=
 OpenBabel11112416353D

 32 37  0  0  1  0  0  0  0  0999 V2000
  185.4100  177.6170  142.5570 C   0  0  0  0  0  2  0  0  0  0  0  0
  188.9550  174.1230  140.8680 C   0  0  1  0  0  3  0  0  0  0  0  0
  191.8390  171.9190  144.1840 C   0  0  0  0  0  2  0  0  0  0  0  0
  191.8060  170.7680  143.2940 N   0  0  0  0  0  2  0  0  0  0  0  0
  189.0280  173.2590  138.4050 C   0  0  0  0  0  0  0  0  0  0  0  0
  189.5830  172.3040  137.4560 C   0  0  0  0  0  0  0  0  0  0  0  0
  187.6790  176.1350  141.5220 C   0  0  0  0  0  0  0  0  0  0  0  0
  188.6670  174.7610  143.3570 C   0  0  0  0  0  3  0  0  0  0  0  0
  190.8010  170.6040  136.6880 N   0  0  0  0  0  0  0  0  0  0  0  0
  187.4800  176.9570  143.8710 C   0  0  0  0  0  2  0  0  0  0  0  0
  190.5370  172.6980  144.0580 C   0  0  0  0  0  2  0  0  0  0  0  0
  189.3290  173.9290  142.2850 C   0  0  0  0  0  0  0  0  0  0  0  0
  190.2110  172.9720  142.6120 C   0  0  0  0  0  0  0  0  0  0  0  0
  190.3650  172.2250  140.2070 C   0  0  0  0  0  0  0  0  0  0  0  0
  190.0970  171.1660  135.5400 C   0  0  0  0  0  2  0  0  0  0  0  0
  186.4270  178.2010  141.7900 O   0  0  0  0  0  0  0  0  0  0  0  0
  187.9320  175.9670  142.8400 C   0  0  0  0  0  0  0  0  0  0  0  0
  189.3160  172.2260  136.0960 O   0  0  0  0  0  0  0  0  0  0  0  0
  186.9200  177.2100  141.0230 O   0  0  0  0  0  0  0  0  0  0  0  0
  185.9570  177.1250  143.8970 C   0  0  1  0  0  3  0  0  0  0  0  0
  191.9250  171.2710  141.9290 C   0  0  0  0  0  2  0  0  0  0  0  0
  190.7860  172.1310  141.5870 N   0  0  0  0  0  0  0  0  0  0  0  0
  190.9570  171.2300  139.2100 C   0  0  0  0  0  2  0  0  0  0  0  0
  188.1830  175.1630  140.5380 C   0  0  0  0  0  3  0  0  0  0  0  0
  188.1940  174.1140  138.0070 O   0  0  0  0  0  0  0  0  0  0  0  0
  191.9420  169.7120  136.6080 C   0  0  0  0  0  1  0  0  0  0  0  0
  189.4700  173.1800  139.8320 C   0  0  0  0  0  0  0  0  0  0  0  0
  190.4390  171.3870  137.8130 C   0  0  0  0  0  0  0  0  0  0  0  0
  185.5850  178.0660  144.9440 N   0  0  0  0  0  2  0  0  0  0  0  0
  185.1430  177.6460  146.2350 C   0  0  0  0  0  0  0  0  0  0  0  0
  185.0350  176.4220  146.5130 O   0  0  0  0  0  0  0  0  0  0  0  0
  184.8030  178.6660  147.2620 C   0  0  0  0  0  1  0  0  0  0  0  0
  1 20  1  0  0  0  0
  2 24  1  6  0  0  0
  2 12  1  0  0  0  0
  4  3  1  0  0  0  0
  5 27  1  0  0  0  0
  6 28  2  0  0  0  0
  6  5  1  0  0  0  0
  7 17  1  0  0  0  0
  9 28  1  0  0  0  0
 10 20  1  0  0  0  0
 11  3  1  0  0  0  0
 12 13  2  0  0  0  0
 12  8  1  0  0  0  0
 13 11  1  0  0  0  0
 14 22  1  0  0  0  0
 15 18  1  0  0  0  0
 15  9  1  0  0  0  0
 16  1  1  0  0  0  0
 17  8  2  0  0  0  0
 17 10  1  0  0  0  0
 18  6  1  0  0  0  0
 19  7  1  0  0  0  0
 19 16  1  0  0  0  0
 20 29  1  1  0  0  0
 21  4  1  0  0  0  0
 22 21  1  0  0  0  0
 22 13  1  0  0  0  0
 23 14  1  0  0  0  0
 24  7  2  0  0  0  0
 25  5  2  0  0  0  0
 26  9  1  0  0  0  0
 27 14  2  0  0  0  0
 27  2  1  0  0  0  0
 28 23  1  0  0  0  0
 29 30  1  0  0  0  0
 30 31  2  0  0  0  0
 30 32  1  0  0  0  0
M  END
>  <MODEL>
7

>  <REMARK>
 VINA RESULT:      -7.7      3.431      5.527
  Name = 
  1 active torsions:
  status: ('A' for Active; 'I' for Inactive)
    1  A    between atoms: C_20  and  N_29
                            x       y       z     vdW  Elec       q    Type
                         _______ _______ _______ _____ _____    ______ ____

>  <TORSDO>
F 1

$$$$
=
 OpenBabel11112416353D

 32 37  0  0  1  0  0  0  0  0999 V2000
  186.2730  176.1910  143.0990 C   0  0  0  0  0  2  0  0  0  0  0  0
  191.4090  175.1210  142.7650 C   0  0  1  0  0  3  0  0  0  0  0  0
  194.3680  176.6860  146.3650 C   0  0  0  0  0  2  0  0  0  0  0  0
  195.1560  175.4910  146.0960 N   0  0  0  0  0  2  0  0  0  0  0  0
  192.4060  173.5180  140.9620 C   0  0  0  0  0  0  0  0  0  0  0  0
  193.5660  172.7760  140.4860 C   0  0  0  0  0  0  0  0  0  0  0  0
  189.1250  176.0470  142.5880 C   0  0  0  0  0  0  0  0  0  0  0  0
  190.3620  176.4530  144.7190 C   0  0  0  0  0  3  0  0  0  0  0  0
  195.6460  171.9830  140.4280 N   0  0  0  0  0  0  0  0  0  0  0  0
  188.0720  177.5000  144.3240 C   0  0  0  0  0  2  0  0  0  0  0  0
  192.9030  176.4130  146.0530 C   0  0  0  0  0  2  0  0  0  0  0  0
  191.5600  175.8070  144.0660 C   0  0  0  0  0  0  0  0  0  0  0  0
  192.7510  175.7980  144.6850 C   0  0  0  0  0  0  0  0  0  0  0  0
  193.7360  174.3480  142.8710 C   0  0  0  0  0  0  0  0  0  0  0  0
  194.9720  171.4730  139.2390 C   0  0  0  0  0  2  0  0  0  0  0  0
  186.9020  176.8620  142.0410 O   0  0  0  0  0  0  0  0  0  0  0  0
  189.1830  176.6400  143.8030 C   0  0  0  0  0  0  0  0  0  0  0  0
  193.6440  171.9890  139.3460 O   0  0  0  0  0  0  0  0  0  0  0  0
  187.9990  176.1370  141.7490 O   0  0  0  0  0  0  0  0  0  0  0  0
  186.7470  176.7390  144.4450 C   0  0  1  0  0  3  0  0  0  0  0  0
  195.2160  175.3290  144.6480 C   0  0  0  0  0  2  0  0  0  0  0  0
  193.8760  175.1150  144.0890 N   0  0  0  0  0  0  0  0  0  0  0  0
  194.9570  173.5790  142.3660 C   0  0  0  0  0  2  0  0  0  0  0  0
  190.2600  175.2500  142.0940 C   0  0  0  0  0  3  0  0  0  0  0  0
  191.3240  173.4540  140.3200 O   0  0  0  0  0  0  0  0  0  0  0  0
  197.0830  171.9970  140.6280 C   0  0  0  0  0  1  0  0  0  0  0  0
  192.5450  174.3270  142.2120 C   0  0  0  0  0  0  0  0  0  0  0  0
  194.7080  172.7920  141.1160 C   0  0  0  0  0  0  0  0  0  0  0  0
  185.7250  177.6180  144.9930 N   0  0  0  0  0  2  0  0  0  0  0  0
  185.3610  177.6110  146.3750 C   0  0  0  0  0  0  0  0  0  0  0  0
  185.9070  176.8110  147.1800 O   0  0  0  0  0  0  0  0  0  0  0  0
  184.3250  178.5560  146.8660 C   0  0  0  0  0  1  0  0  0  0  0  0
  1 20  1  0  0  0  0
  2 24  1  6  0  0  0
  2 12  1  0  0  0  0
  4  3  1  0  0  0  0
  5 27  1  0  0  0  0
  6  5  1  0  0  0  0
  6 28  2  0  0  0  0
  7 17  1  0  0  0  0
  9 26  1  0  0  0  0
  9 28  1  0  0  0  0
 10 20  1  0  0  0  0
 11  3  1  0  0  0  0
 12 13  2  0  0  0  0
 12  8  1  0  0  0  0
 13 11  1  0  0  0  0
 14 22  1  0  0  0  0
 15 18  1  0  0  0  0
 15  9  1  0  0  0  0
 16  1  1  0  0  0  0
 17 10  1  0  0  0  0
 17  8  2  0  0  0  0
 18  6  1  0  0  0  0
 19 16  1  0  0  0  0
 19  7  1  0  0  0  0
 20 29  1  6  0  0  0
 21  4  1  0  0  0  0
 22 21  1  0  0  0  0
 22 13  1  0  0  0  0
 23 14  1  0  0  0  0
 24  7  2  0  0  0  0
 25  5  2  0  0  0  0
 27  2  1  0  0  0  0
 27 14  2  0  0  0  0
 28 23  1  0  0  0  0
 29 30  1  0  0  0  0
 30 32  1  0  0  0  0
 30 31  2  0  0  0  0
M  END
>  <MODEL>
8

>  <REMARK>
 VINA RESULT:      -7.4      2.815      4.785
  Name = 
  1 active torsions:
  status: ('A' for Active; 'I' for Inactive)
    1  A    between atoms: C_20  and  N_29
                            x       y       z     vdW  Elec       q    Type
                         _______ _______ _______ _____ _____    ______ ____

>  <TORSDO>
F 1

$$$$
=
 OpenBabel11112416353D

 32 37  0  0  1  0  0  0  0  0999 V2000
  189.3160  177.8730  146.9560 C   0  0  0  0  0  2  0  0  0  0  0  0
  192.0350  175.3630  143.2210 C   0  0  1  0  0  3  0  0  0  0  0  0
  189.5490  172.9260  139.7500 C   0  0  0  0  0  2  0  0  0  0  0  0
  190.6460  173.2800  138.8610 N   0  0  0  0  0  2  0  0  0  0  0  0
  194.6160  175.6270  142.9300 C   0  0  0  0  0  0  0  0  0  0  0  0
  195.7910  175.3680  142.1090 C   0  0  0  0  0  0  0  0  0  0  0  0
  190.8580  176.0830  145.2710 C   0  0  0  0  0  0  0  0  0  0  0  0
  189.4510  175.3600  143.3390 C   0  0  0  0  0  3  0  0  0  0  0  0
  197.0090  174.6360  140.3950 N   0  0  0  0  0  0  0  0  0  0  0  0
  188.3830  175.9560  145.5740 C   0  0  0  0  0  2  0  0  0  0  0  0
  189.3800  174.0080  140.8080 C   0  0  0  0  0  2  0  0  0  0  0  0
  190.7320  174.9740  142.6390 C   0  0  0  0  0  0  0  0  0  0  0  0
  190.6990  174.3320  141.4610 C   0  0  0  0  0  0  0  0  0  0  0  0
  193.2080  174.4870  141.2500 C   0  0  0  0  0  0  0  0  0  0  0  0
  197.9410  175.2420  141.3400 C   0  0  0  0  0  2  0  0  0  0  0  0
  190.0490  176.7860  147.4520 O   0  0  0  0  0  0  0  0  0  0  0  0
  189.6340  175.8100  144.7630 C   0  0  0  0  0  0  0  0  0  0  0  0
  197.1040  175.7150  142.3970 O   0  0  0  0  0  0  0  0  0  0  0  0
  191.0480  176.5860  146.5710 O   0  0  0  0  0  0  0  0  0  0  0  0
  188.1680  177.3910  146.0680 C   0  0  1  0  0  3  0  0  0  0  0  0
  191.8840  173.1150  139.6150 C   0  0  0  0  0  2  0  0  0  0  0  0
  191.9260  174.0300  140.7610 N   0  0  0  0  0  0  0  0  0  0  0  0
  194.4420  174.2040  140.3950 C   0  0  0  0  0  2  0  0  0  0  0  0
  192.0650  175.8790  144.4540 C   0  0  0  0  0  3  0  0  0  0  0  0
  194.7450  176.2510  144.0160 O   0  0  0  0  0  0  0  0  0  0  0  0
  197.3850  173.7470  139.3100 C   0  0  0  0  0  1  0  0  0  0  0  0
  193.2870  175.1440  142.4400 C   0  0  0  0  0  0  0  0  0  0  0  0
  195.7180  174.7400  140.9690 C   0  0  0  0  0  0  0  0  0  0  0  0
  186.9200  177.4720  146.8130 N   0  0  0  0  0  2  0  0  0  0  0  0
  185.7900  178.2110  146.3460 C   0  0  0  0  0  0  0  0  0  0  0  0
  185.8440  178.8520  145.2620 O   0  0  0  0  0  0  0  0  0  0  0  0
  184.5400  178.2270  147.1490 C   0  0  0  0  0  1  0  0  0  0  0  0
  1 16  1  0  0  0  0
  2 24  1  1  0  0  0
  3 11  1  0  0  0  0
  4 21  1  0  0  0  0
  4  3  1  0  0  0  0
  5 25  2  0  0  0  0
  6 18  1  0  0  0  0
  6  5  1  0  0  0  0
  7 19  1  0  0  0  0
  8 17  2  0  0  0  0
  9 28  1  0  0  0  0
  9 15  1  0  0  0  0
 10 20  1  0  0  0  0
 11 13  1  0  0  0  0
 12  2  1  0  0  0  0
 12  8  1  0  0  0  0
 13 12  2  0  0  0  0
 14 27  2  0  0  0  0
 15 18  1  0  0  0  0
 17  7  1  0  0  0  0
 17 10  1  0  0  0  0
 19 16  1  0  0  0  0
 20 29  1  1  0  0  0
 20  1  1  0  0  0  0
 21 22  1  0  0  0  0
 22 14  1  0  0  0  0
 22 13  1  0  0  0  0
 23 28  1  0  0  0  0
 23 14  1  0  0  0  0
 24  7  2  0  0  0  0
 26  9  1  0  0  0  0
 27  5  1  0  0  0  0
 27  2  1  0  0  0  0
 28  6  2  0  0  0  0
 30 29  1  0  0  0  0
 30 32  1  0  0  0  0
 31 30  2  0  0  0  0
M  END
>  <MODEL>
9

>  <REMARK>
 VINA RESULT:      -7.3      2.652      3.352
  Name = 
  1 active torsions:
  status: ('A' for Active; 'I' for Inactive)
    1  A    between atoms: C_20  and  N_29
                            x       y       z     vdW  Elec       q    Type
                         _______ _______ _______ _____ _____    ______ ____

>  <TORSDO>
F 1

$$$$
