=
 OpenBabel11112417583D

 34 40  0  0  0  0  0  0  0  0999 V2000
  190.1900  175.9430  145.9930 C   0  0  0  0  0  0  0  0  0  0  0  0
  187.6690  176.1330  146.3990 C   0  0  0  0  0  3  0  0  0  0  0  0
  194.6230  173.4460  143.5260 O   0  0  0  0  0  0  0  0  0  0  0  0
  192.5880  175.8280  145.4940 C   0  0  0  0  0  0  0  0  0  0  0  0
  193.4000  176.0900  143.1550 C   0  0  0  0  0  0  0  0  0  0  0  0
  194.4360  174.6230  141.4310 C   0  0  0  0  0  2  0  0  0  0  0  0
  195.1760  173.5590  142.2420 C   0  0  0  0  0  2  0  0  0  0  0  0
  196.0870  175.1490  144.4570 C   0  0  0  0  0  2  0  0  0  0  0  0
  188.5860  176.3100  144.2150 C   0  0  0  0  0  0  0  0  0  0  0  0
  186.9500  176.3540  141.6510 C   0  0  0  0  0  3  0  0  0  0  0  0
  192.1380  176.2360  142.7520 C   0  0  0  0  0  3  0  0  0  0  0  0
  195.0500  176.0690  145.1000 C   0  0  0  0  0  2  0  0  0  0  0  0
  189.6180  176.4610  143.1540 C   0  0  0  0  0  0  0  0  0  0  0  0
  186.6470  176.4110  145.3880 N   0  0  0  0  0  0  0  0  0  0  0  0
  193.6900  175.9120  144.5620 N   0  0  0  0  0  0  0  0  0  0  0  0
  195.6740  173.6740  144.4280 C   0  0  0  0  0  2  0  0  0  0  0  0
  186.5610  176.7920  142.8590 C   0  0  0  0  0  0  0  0  0  0  0  0
  191.2540  175.9940  145.0410 C   0  0  0  0  0  0  0  0  0  0  0  0
  194.4650  175.9980  142.1040 C   0  0  0  0  0  2  0  0  0  0  0  0
  191.0150  176.2060  143.7100 C   0  0  0  0  0  0  0  0  0  0  0  0
  191.7870  175.5580  147.7770 C   0  0  0  0  0  3  0  0  0  0  0  0
  188.1580  175.5620  141.3240 C   0  0  0  0  0  3  0  0  0  0  0  0
  192.8340  175.6090  146.8600 C   0  0  0  0  0  2  0  0  0  0  0  0
  189.3150  175.5640  141.9910 C   0  0  0  0  0  3  0  0  0  0  0  0
  187.2850  176.4870  144.1120 C   0  0  0  0  0  0  0  0  0  0  0  0
  190.4730  175.7270  147.3470 C   0  0  0  0  0  3  0  0  0  0  0  0
  188.9250  176.1010  145.5940 C   0  0  0  0  0  0  0  0  0  0  0  0
  185.2660  177.5280  142.9310 C   0  0  0  0  0  2  0  0  0  0  0  0
  185.5120  179.0290  142.9770 C   0  0  0  0  0  2  0  0  0  0  0  0
  184.0100  178.6000  146.1680 C   0  0  0  0  0  2  0  0  0  0  0  0
  185.9630  179.5900  145.1960 C   0  0  0  0  0  2  0  0  0  0  0  0
  184.9250  179.6000  144.1780 N   0  0  0  0  0  0  0  0  0  0  0  0
  185.2940  179.3090  146.5210 C   0  0  0  0  0  2  0  0  0  0  0  0
  183.9090  178.6720  144.6580 C   0  0  0  0  0  2  0  0  0  0  0  0
  1 26  1  0  0  0  0
  3 16  1  0  0  0  0
  4 23  1  0  0  0  0
  5 15  1  0  0  0  0
  6 19  1  0  0  0  0
  6  7  1  0  0  0  0
  7  3  1  0  0  0  0
  8 12  1  0  0  0  0
  9 27  1  0  0  0  0
 10 17  2  0  0  0  0
 11  5  2  0  0  0  0
 11 20  1  0  0  0  0
 13 20  2  0  0  0  0
 13  9  1  0  0  0  0
 14  2  2  0  0  0  0
 15 12  1  0  0  0  0
 15  4  1  0  0  0  0
 16  8  1  0  0  0  0
 17 28  1  0  0  0  0
 17 25  1  0  0  0  0
 18  4  2  0  0  0  0
 18  1  1  0  0  0  0
 19  5  1  0  0  0  0
 20 18  1  0  0  0  0
 22 10  1  0  0  0  0
 22 24  2  0  0  0  0
 23 21  1  0  0  0  0
 24 13  1  0  0  0  0
 25  9  2  0  0  0  0
 25 14  1  0  0  0  0
 26 21  2  0  0  0  0
 27  1  2  0  0  0  0
 27  2  1  0  0  0  0
 28 29  1  0  0  0  0
 29 32  1  0  0  0  0
 30 33  1  0  0  0  0
 31 33  1  0  0  0  0
 32 34  1  0  0  0  0
 32 31  1  0  0  0  0
 34 30  1  0  0  0  0
M  END
>  <MODEL>
1

>  <REMARK>
 VINA RESULT:      -9.0      0.000      0.000
  Name = 
  3 active torsions:
  status: ('A' for Active; 'I' for Inactive)
    1  A    between atoms: C_17  and  C_28
    2  A    between atoms: C_28  and  C_29
    3  A    between atoms: C_29  and  N_32
                            x       y       z     vdW  Elec       q    Type
                         _______ _______ _______ _____ _____    ______ ____

>  <TORSDO>
F 3

$$$$
=
 OpenBabel11112417583D

 34 40  0  0  1  0  0  0  0  0999 V2000
  191.8530  176.2770  145.3680 C   0  0  0  0  0  0  0  0  0  0  0  0
  189.4230  176.3440  146.1750 C   0  0  0  0  0  3  0  0  0  0  0  0
  196.1800  173.5680  142.9380 O   0  0  0  0  0  0  0  0  0  0  0  0
  194.1370  176.2410  144.4770 C   0  0  2  0  0  3  0  0  0  0  0  0
  194.5360  175.8340  142.0540 C   0  0  0  0  0  0  0  0  0  0  0  0
  195.5040  174.0070  140.6670 C   0  0  0  0  0  2  0  0  0  0  0  0
  196.5080  173.3260  141.5960 C   0  0  0  0  0  2  0  0  0  0  0  0
  197.4990  175.6080  143.0370 C   0  0  0  0  0  2  0  0  0  0  0  0
  189.9610  175.9160  143.9010 C   0  0  0  0  0  0  0  0  0  0  0  0
  187.9650  174.9990  141.7960 C   0  0  0  0  0  3  0  0  0  0  0  0
  193.2190  175.7260  141.8740 C   0  0  0  0  0  3  0  0  0  0  0  0
  196.4470  176.5800  143.5690 C   0  0  0  0  0  2  0  0  0  0  0  0
  190.7850  175.8250  142.6650 C   0  0  0  0  0  0  0  0  0  0  0  0
  188.2300  176.1920  145.3400 N   0  0  0  0  0  0  0  0  0  0  0  0
  195.0600  176.1340  143.3690 N   0  0  0  0  0  0  0  0  0  0  0  0
  197.3110  174.1660  143.5170 C   0  0  0  0  0  2  0  0  0  0  0  0
  187.7040  175.7540  142.8740 C   0  0  0  0  0  0  0  0  0  0  0  0
  192.7400  176.1280  144.2580 C   0  0  0  0  0  0  0  0  0  0  0  0
  195.4300  175.5200  140.8920 C   0  0  0  0  0  2  0  0  0  0  0  0
  192.2730  175.8910  142.9940 C   0  0  0  0  0  0  0  0  0  0  0  0
  193.7430  176.6240  146.8490 C   0  0  0  0  0  3  0  0  0  0  0  0
  189.2130  174.2630  141.4900 C   0  0  0  0  0  3  0  0  0  0  0  0
  194.6180  176.4840  145.7750 C   0  0  0  0  0  3  0  0  0  0  0  0
  190.4460  174.5840  141.8940 C   0  0  0  0  0  3  0  0  0  0  0  0
  188.6470  175.9260  144.0000 C   0  0  0  0  0  0  0  0  0  0  0  0
  192.3680  176.5240  146.6470 C   0  0  0  0  0  3  0  0  0  0  0  0
  190.5330  176.1810  145.1890 C   0  0  0  0  0  0  0  0  0  0  0  0
  186.3400  176.3480  142.9750 C   0  0  0  0  0  2  0  0  0  0  0  0
  186.0620  177.2400  141.7740 C   0  0  0  0  0  2  0  0  0  0  0  0
  184.0040  179.0030  144.0720 C   0  0  0  0  0  2  0  0  0  0  0  0
  186.2530  179.0370  143.2510 C   0  0  0  0  0  2  0  0  0  0  0  0
  185.4220  178.4740  142.2000 N   0  0  0  0  0  0  0  0  0  0  0  0
  185.3340  179.6910  144.2540 C   0  0  0  0  0  2  0  0  0  0  0  0
  184.1680  178.1200  142.8530 C   0  0  0  0  0  2  0  0  0  0  0  0
  1 26  2  0  0  0  0
  3 16  1  0  0  0  0
  4 23  1  6  0  0  0
  5 15  1  0  0  0  0
  6 19  1  0  0  0  0
  6  7  1  0  0  0  0
  7  3  1  0  0  0  0
  8 16  1  0  0  0  0
  8 12  1  0  0  0  0
  9 25  1  0  0  0  0
  9 27  1  0  0  0  0
 10 17  2  0  0  0  0
 11  5  2  0  0  0  0
 11 20  1  0  0  0  0
 13 20  1  0  0  0  0
 13  9  2  0  0  0  0
 14  2  1  0  0  0  0
 15 12  1  0  0  0  0
 15  4  1  0  0  0  0
 17 28  1  0  0  0  0
 17 25  1  0  0  0  0
 18  4  1  0  0  0  0
 18  1  1  0  0  0  0
 19  5  1  0  0  0  0
 20 18  2  0  0  0  0
 22 10  1  0  0  0  0
 22 24  2  0  0  0  0
 23 21  2  0  0  0  0
 24 13  1  0  0  0  0
 25 14  2  0  0  0  0
 26 21  1  0  0  0  0
 27  1  1  0  0  0  0
 27  2  2  0  0  0  0
 29 32  1  0  0  0  0
 29 28  1  0  0  0  0
 30 33  1  0  0  0  0
 31 33  1  0  0  0  0
 32 34  1  0  0  0  0
 32 31  1  0  0  0  0
 34 30  1  0  0  0  0
M  END
>  <MODEL>
2

>  <REMARK>
 VINA RESULT:      -8.9      1.356      1.829
  Name = 
  3 active torsions:
  status: ('A' for Active; 'I' for Inactive)
    1  A    between atoms: C_17  and  C_28
    2  A    between atoms: C_28  and  C_29
    3  A    between atoms: C_29  and  N_32
                            x       y       z     vdW  Elec       q    Type
                         _______ _______ _______ _____ _____    ______ ____

>  <TORSDO>
F 3

$$$$
=
 OpenBabel11112417583D

 34 40  0  0  1  0  0  0  0  0999 V2000
  192.1870  176.4720  145.5670 C   0  0  0  0  0  0  0  0  0  0  0  0
  189.9980  177.2270  146.6620 C   0  0  0  0  0  3  0  0  0  0  0  0
  195.2060  172.6770  142.6610 O   0  0  0  0  0  0  0  0  0  0  0  0
  194.2360  175.7910  144.4060 C   0  0  2  0  0  3  0  0  0  0  0  0
  194.2060  175.3470  141.9560 C   0  0  0  0  0  0  0  0  0  0  0  0
  194.4230  173.3520  140.4840 C   0  0  0  0  0  2  0  0  0  0  0  0
  195.2860  172.3830  141.2910 C   0  0  0  0  0  2  0  0  0  0  0  0
  197.0680  174.2390  142.5750 C   0  0  0  0  0  2  0  0  0  0  0  0
  190.1110  176.7170  144.3440 C   0  0  0  0  0  0  0  0  0  0  0  0
  187.6980  176.4770  142.5080 C   0  0  0  0  0  3  0  0  0  0  0  0
  192.9040  175.6330  141.9390 C   0  0  0  0  0  3  0  0  0  0  0  0
  196.4190  175.4630  143.2200 C   0  0  0  0  0  2  0  0  0  0  0  0
  190.7180  176.4200  143.0190 C   0  0  0  0  0  0  0  0  0  0  0  0
  188.7220  177.4520  145.9800 N   0  0  0  0  0  0  0  0  0  0  0  0
  194.9480  175.4470  143.1950 N   0  0  0  0  0  0  0  0  0  0  0  0
  196.5240  172.9040  143.0910 C   0  0  0  0  0  2  0  0  0  0  0  0
  187.8010  177.2480  143.6010 C   0  0  0  0  0  0  0  0  0  0  0  0
  192.8520  176.0980  144.3600 C   0  0  0  0  0  0  0  0  0  0  0  0
  194.8230  174.8140  140.6990 C   0  0  0  0  0  2  0  0  0  0  0  0
  192.1880  176.0390  143.1640 C   0  0  0  0  0  0  0  0  0  0  0  0
  194.2580  176.2140  146.8040 C   0  0  0  0  0  3  0  0  0  0  0  0
  188.6290  175.4160  142.0600 C   0  0  0  0  0  3  0  0  0  0  0  0
  194.9190  175.8510  145.6330 C   0  0  0  0  0  3  0  0  0  0  0  0
  189.9410  175.3520  142.3090 C   0  0  0  0  0  3  0  0  0  0  0  0
  188.8790  177.1090  144.6020 C   0  0  0  0  0  0  0  0  0  0  0  0
  192.9000  176.5250  146.7710 C   0  0  0  0  0  3  0  0  0  0  0  0
  190.8850  176.7710  145.5510 C   0  0  0  0  0  0  0  0  0  0  0  0
  186.6930  178.2130  143.8600 C   0  0  0  0  0  2  0  0  0  0  0  0
  185.3930  177.4680  144.1220 C   0  0  0  0  0  2  0  0  0  0  0  0
  185.6580  177.6480  147.6610 C   0  0  0  0  0  2  0  0  0  0  0  0
  185.4750  179.1130  145.7750 C   0  0  0  0  0  2  0  0  0  0  0  0
  184.8380  177.8600  145.4070 N   0  0  0  0  0  0  0  0  0  0  0  0
  185.6560  179.1060  147.2740 C   0  0  0  0  0  2  0  0  0  0  0  0
  185.2930  176.8940  146.3990 C   0  0  0  0  0  2  0  0  0  0  0  0
  1 26  2  0  0  0  0
  3 16  1  0  0  0  0
  4 23  1  6  0  0  0
  5 15  1  0  0  0  0
  6 19  1  0  0  0  0
  6  7  1  0  0  0  0
  7  3  1  0  0  0  0
  8 16  1  0  0  0  0
  8 12  1  0  0  0  0
  9 25  1  0  0  0  0
  9 27  1  0  0  0  0
 10 17  2  0  0  0  0
 11  5  2  0  0  0  0
 11 20  1  0  0  0  0
 13 20  1  0  0  0  0
 13  9  2  0  0  0  0
 14  2  1  0  0  0  0
 15 12  1  0  0  0  0
 15  4  1  0  0  0  0
 17 28  1  0  0  0  0
 17 25  1  0  0  0  0
 18  4  1  0  0  0  0
 18  1  1  0  0  0  0
 19  5  1  0  0  0  0
 20 18  2  0  0  0  0
 22 24  2  0  0  0  0
 22 10  1  0  0  0  0
 23 21  2  0  0  0  0
 24 13  1  0  0  0  0
 25 14  2  0  0  0  0
 26 21  1  0  0  0  0
 27  1  1  0  0  0  0
 27  2  2  0  0  0  0
 28 29  1  0  0  0  0
 29 32  1  0  0  0  0
 31 33  1  0  0  0  0
 32 31  1  0  0  0  0
 32 34  1  0  0  0  0
 33 30  1  0  0  0  0
 34 30  1  0  0  0  0
M  END
>  <MODEL>
3

>  <REMARK>
 VINA RESULT:      -8.7      1.365      1.888
  Name = 
  3 active torsions:
  status: ('A' for Active; 'I' for Inactive)
    1  A    between atoms: C_17  and  C_28
    2  A    between atoms: C_28  and  C_29
    3  A    between atoms: C_29  and  N_32
                            x       y       z     vdW  Elec       q    Type
                         _______ _______ _______ _____ _____    ______ ____

>  <TORSDO>
F 3

$$$$
=
 OpenBabel11112417583D

 34 40  0  0  1  0  0  0  0  0999 V2000
  189.7300  174.6900  142.6240 C   0  0  1  0  0  3  0  0  0  0  0  0
  187.3930  175.7380  142.6100 C   0  0  0  0  0  3  0  0  0  0  0  0
  195.3250  175.1000  143.3260 O   0  0  0  0  0  0  0  0  0  0  0  0
  191.9570  173.6750  142.7660 C   0  0  0  0  0  0  0  0  0  0  0  0
  193.2420  173.7540  144.8980 C   0  0  0  0  0  0  0  0  0  0  0  0
  195.2890  174.9020  145.7270 C   0  0  0  0  0  2  0  0  0  0  0  0
  196.1340  175.1120  144.4720 C   0  0  0  0  0  2  0  0  0  0  0  0
  195.5260  172.6940  143.0390 C   0  0  0  0  0  2  0  0  0  0  0  0
  188.7560  175.7820  144.5540 C   0  0  0  0  0  0  0  0  0  0  0  0
  188.1390  177.3890  147.0630 C   0  0  0  0  0  3  0  0  0  0  0  0
  192.2340  174.4240  145.4590 C   0  0  0  0  0  3  0  0  0  0  0  0
  194.0500  172.3110  142.9560 C   0  0  0  0  0  2  0  0  0  0  0  0
  189.8850  175.4450  145.4630 C   0  0  0  0  0  0  0  0  0  0  0  0
  186.7170  176.3620  143.7480 N   0  0  0  0  0  0  0  0  0  0  0  0
  193.1350  173.3140  143.5230 N   0  0  0  0  0  0  0  0  0  0  0  0
  195.8370  174.0920  142.4940 C   0  0  0  0  0  2  0  0  0  0  0  0
  187.2490  176.8760  146.1990 C   0  0  0  0  0  0  0  0  0  0  0  0
  190.8960  174.3820  143.3890 C   0  0  0  0  0  0  0  0  0  0  0  0
  194.5020  173.5890  145.6920 C   0  0  0  0  0  2  0  0  0  0  0  0
  191.0070  174.7440  144.7040 C   0  0  0  0  0  0  0  0  0  0  0  0
  190.7030  173.6130  140.6810 C   0  0  0  0  0  3  0  0  0  0  0  0
  189.6070  177.4840  146.8960 C   0  0  0  0  0  3  0  0  0  0  0  0
  191.8440  173.3040  141.4160 C   0  0  0  0  0  3  0  0  0  0  0  0
  190.3800  176.6710  146.1700 C   0  0  0  0  0  3  0  0  0  0  0  0
  187.6110  176.3570  144.8630 C   0  0  0  0  0  0  0  0  0  0  0  0
  189.6500  174.3000  141.2820 C   0  0  0  0  0  3  0  0  0  0  0  0
  188.7140  175.3500  143.1870 C   0  0  0  0  0  0  0  0  0  0  0  0
  185.8090  176.9490  146.5810 C   0  0  0  0  0  2  0  0  0  0  0  0
  185.4960  178.3000  147.2070 C   0  0  0  0  0  2  0  0  0  0  0  0
  185.3610  179.7380  143.9620 C   0  0  0  0  0  2  0  0  0  0  0  0
  184.0600  178.3010  145.3680 C   0  0  0  0  0  2  0  0  0  0  0  0
  184.8390  179.1640  146.2400 N   0  0  0  0  0  0  0  0  0  0  0  0
  184.1090  178.8970  143.9820 C   0  0  0  0  0  2  0  0  0  0  0  0
  185.8720  179.7380  145.3870 C   0  0  0  0  0  2  0  0  0  0  0  0
  1 26  1  1  0  0  0
  1 27  1  0  0  0  0
  1 18  1  0  0  0  0
  2 27  2  0  0  0  0
  2 14  1  0  0  0  0
  3  7  1  0  0  0  0
  4 18  1  0  0  0  0
  4 15  1  0  0  0  0
  5 11  2  0  0  0  0
  5 19  1  0  0  0  0
  7  6  1  0  0  0  0
  9 25  1  0  0  0  0
  9 13  2  0  0  0  0
 12  8  1  0  0  0  0
 12 15  1  0  0  0  0
 13 24  1  0  0  0  0
 14 25  2  0  0  0  0
 15  5  1  0  0  0  0
 16  8  1  0  0  0  0
 16  3  1  0  0  0  0
 17 28  1  0  0  0  0
 17 10  2  0  0  0  0
 18 20  2  0  0  0  0
 19  6  1  0  0  0  0
 20 11  1  0  0  0  0
 20 13  1  0  0  0  0
 21 26  2  0  0  0  0
 21 23  1  0  0  0  0
 22 10  1  0  0  0  0
 23  4  2  0  0  0  0
 24 22  2  0  0  0  0
 25 17  1  0  0  0  0
 27  9  1  0  0  0  0
 28 29  1  0  0  0  0
 30 33  1  0  0  0  0
 30 34  1  0  0  0  0
 31 32  1  0  0  0  0
 32 29  1  0  0  0  0
 33 31  1  0  0  0  0
 34 32  1  0  0  0  0
M  END
>  <MODEL>
4

>  <REMARK>
 VINA RESULT:      -8.6      1.609      3.713
  Name = 
  3 active torsions:
  status: ('A' for Active; 'I' for Inactive)
    1  A    between atoms: C_17  and  C_28
    2  A    between atoms: C_28  and  C_29
    3  A    between atoms: C_29  and  N_32
                            x       y       z     vdW  Elec       q    Type
                         _______ _______ _______ _____ _____    ______ ____

>  <TORSDO>
F 3

$$$$
=
 OpenBabel11112417583D

 34 40  0  0  0  0  0  0  0  0999 V2000
  189.9770  176.9630  146.1330 C   0  0  0  0  0  0  0  0  0  0  0  0
  187.5050  177.5410  146.4740 C   0  0  0  0  0  3  0  0  0  0  0  0
  194.0270  173.5760  144.1120 O   0  0  0  0  0  0  0  0  0  0  0  0
  192.3360  176.4630  145.6890 C   0  0  0  0  0  0  0  0  0  0  0  0
  193.1630  176.2770  143.3480 C   0  0  0  0  0  0  0  0  0  0  0  0
  193.9870  174.4530  141.8670 C   0  0  0  0  0  2  0  0  0  0  0  0
  194.5830  173.4290  142.8320 C   0  0  0  0  0  2  0  0  0  0  0  0
  195.7090  175.1880  144.8090 C   0  0  0  0  0  2  0  0  0  0  0  0
  188.4260  177.2790  144.3000 C   0  0  0  0  0  0  0  0  0  0  0  0
  186.7960  177.1670  141.7340 C   0  0  0  0  0  3  0  0  0  0  0  0
  191.9290  176.5280  142.9110 C   0  0  0  0  0  3  0  0  0  0  0  0
  194.8060  176.3190  145.2990 C   0  0  0  0  0  2  0  0  0  0  0  0
  189.4630  177.1380  143.2420 C   0  0  0  0  0  0  0  0  0  0  0  0
  186.5240  177.8020  145.4190 N   0  0  0  0  0  0  0  0  0  0  0  0
  193.4350  176.2670  144.7700 N   0  0  0  0  0  0  0  0  0  0  0  0
  195.1040  173.7910  144.9860 C   0  0  0  0  0  2  0  0  0  0  0  0
  186.4760  177.8230  142.8600 C   0  0  0  0  0  0  0  0  0  0  0  0
  191.0330  176.7360  145.1980 C   0  0  0  0  0  0  0  0  0  0  0  0
  194.2010  175.8940  142.3360 C   0  0  0  0  0  2  0  0  0  0  0  0
  190.8180  176.7840  143.8480 C   0  0  0  0  0  0  0  0  0  0  0  0
  191.5190  176.6330  147.9760 C   0  0  0  0  0  3  0  0  0  0  0  0
  187.8870  176.1850  141.5400 C   0  0  0  0  0  3  0  0  0  0  0  0
  192.5580  176.4130  147.0750 C   0  0  0  0  0  2  0  0  0  0  0  0
  189.0380  176.1300  142.2160 C   0  0  0  0  0  3  0  0  0  0  0  0
  187.1590  177.6080  144.1540 C   0  0  0  0  0  0  0  0  0  0  0  0
  190.2360  176.9100  147.5080 C   0  0  0  0  0  3  0  0  0  0  0  0
  188.7420  177.2280  145.6980 C   0  0  0  0  0  0  0  0  0  0  0  0
  185.2890  178.7250  142.8080 C   0  0  0  0  0  2  0  0  0  0  0  0
  184.0290  177.9260  142.5110 C   0  0  0  0  0  2  0  0  0  0  0  0
  181.1030  178.1720  140.5120 C   0  0  0  0  0  2  0  0  0  0  0  0
  181.9380  178.9570  142.6150 C   0  0  0  0  0  2  0  0  0  0  0  0
  183.0870  178.7330  141.7530 N   0  0  0  0  0  0  0  0  0  0  0  0
  180.7090  178.9570  141.7380 C   0  0  0  0  0  2  0  0  0  0  0  0
  182.5890  177.9160  140.6540 C   0  0  0  0  0  2  0  0  0  0  0  0
  1 26  1  0  0  0  0
  3 16  1  0  0  0  0
  4 23  1  0  0  0  0
  5 15  1  0  0  0  0
  6 19  1  0  0  0  0
  6  7  1  0  0  0  0
  7  3  1  0  0  0  0
  8 16  1  0  0  0  0
  8 12  1  0  0  0  0
  9 27  1  0  0  0  0
 10 17  2  0  0  0  0
 11  5  2  0  0  0  0
 11 20  1  0  0  0  0
 13 20  2  0  0  0  0
 13  9  1  0  0  0  0
 14  2  2  0  0  0  0
 15 12  1  0  0  0  0
 15  4  1  0  0  0  0
 17 25  1  0  0  0  0
 18  4  2  0  0  0  0
 18  1  1  0  0  0  0
 19  5  1  0  0  0  0
 20 18  1  0  0  0  0
 22 10  1  0  0  0  0
 22 24  2  0  0  0  0
 23 21  1  0  0  0  0
 24 13  1  0  0  0  0
 25  9  2  0  0  0  0
 25 14  1  0  0  0  0
 26 21  2  0  0  0  0
 27  1  2  0  0  0  0
 27  2  1  0  0  0  0
 28 17  1  0  0  0  0
 29 28  1  0  0  0  0
 30 34  1  0  0  0  0
 30 33  1  0  0  0  0
 32 29  1  0  0  0  0
 32 31  1  0  0  0  0
 33 31  1  0  0  0  0
 34 32  1  0  0  0  0
M  END
>  <MODEL>
5

>  <REMARK>
 VINA RESULT:      -8.4      1.677      2.182
  Name = 
  3 active torsions:
  status: ('A' for Active; 'I' for Inactive)
    1  A    between atoms: C_17  and  C_28
    2  A    between atoms: C_28  and  C_29
    3  A    between atoms: C_29  and  N_32
                            x       y       z     vdW  Elec       q    Type
                         _______ _______ _______ _____ _____    ______ ____

>  <TORSDO>
F 3

$$$$
=
 OpenBabel11112417583D

 34 40  0  0  1  0  0  0  0  0999 V2000
  188.4920  174.5250  140.4350 C   0  0  2  0  0  3  0  0  0  0  0  0
  187.0980  176.6620  140.2130 C   0  0  0  0  0  3  0  0  0  0  0  0
  193.3720  171.9060  141.5740 O   0  0  0  0  0  0  0  0  0  0  0  0
  189.8060  172.4830  140.7760 C   0  0  0  0  0  0  0  0  0  0  0  0
  190.8060  171.9870  143.0010 C   0  0  0  0  0  0  0  0  0  0  0  0
  193.0990  171.9030  143.9690 C   0  0  0  0  0  2  0  0  0  0  0  0
  193.9930  171.5500  142.7810 C   0  0  0  0  0  2  0  0  0  0  0  0
  192.2570  169.7560  141.3520 C   0  0  0  0  0  2  0  0  0  0  0  0
  188.1560  176.0830  142.2590 C   0  0  0  0  0  0  0  0  0  0  0  0
  188.3640  177.9170  144.6770 C   0  0  0  0  0  3  0  0  0  0  0  0
  190.2910  173.1250  143.4660 C   0  0  0  0  0  3  0  0  0  0  0  0
  190.8150  170.2220  141.1590 C   0  0  0  0  0  2  0  0  0  0  0  0
  188.8700  175.2470  143.2620 C   0  0  0  0  0  0  0  0  0  0  0  0
  186.8030  177.6180  141.2810 N   0  0  0  0  0  0  0  0  0  0  0  0
  190.5570  171.5910  141.6310 N   0  0  0  0  0  0  0  0  0  0  0  0
  193.3030  170.7320  140.8060 C   0  0  0  0  0  2  0  0  0  0  0  0
  187.3890  177.9110  143.7560 C   0  0  0  0  0  0  0  0  0  0  0  0
  189.2620  173.6850  141.2970 C   0  0  0  0  0  0  0  0  0  0  0  0
  191.7310  171.2190  143.8960 C   0  0  0  0  0  2  0  0  0  0  0  0
  189.4770  174.0090  142.6100 C   0  0  0  0  0  0  0  0  0  0  0  0
  188.8370  172.9800  138.5980 C   0  0  0  0  0  3  0  0  0  0  0  0
  189.6570  177.1980  144.6270 C   0  0  0  0  0  3  0  0  0  0  0  0
  189.5870  172.1500  139.4290 C   0  0  0  0  0  3  0  0  0  0  0  0
  189.9080  176.0550  143.9810 C   0  0  0  0  0  3  0  0  0  0  0  0
  187.4880  177.2000  142.4640 C   0  0  0  0  0  0  0  0  0  0  0  0
  188.2910  174.1590  139.0990 C   0  0  0  0  0  3  0  0  0  0  0  0
  187.9640  175.6600  140.9020 C   0  0  0  0  0  0  0  0  0  0  0  0
  186.1980  178.7700  144.0200 C   0  0  0  0  0  2  0  0  0  0  0  0
  184.9730  177.9080  144.2900 C   0  0  0  0  0  2  0  0  0  0  0  0
  185.9400  177.2590  147.6460 C   0  0  0  0  0  2  0  0  0  0  0  0
  185.2620  179.1010  146.2740 C   0  0  0  0  0  2  0  0  0  0  0  0
  184.6630  177.9030  145.7100 N   0  0  0  0  0  0  0  0  0  0  0  0
  185.7450  178.7540  147.6620 C   0  0  0  0  0  2  0  0  0  0  0  0
  185.3860  176.7920  146.3170 C   0  0  0  0  0  2  0  0  0  0  0  0
  1 26  1  6  0  0  0
  1 27  1  0  0  0  0
  1 18  1  0  0  0  0
  2 27  2  0  0  0  0
  2 14  1  0  0  0  0
  3  7  1  0  0  0  0
  4 18  1  0  0  0  0
  4 15  1  0  0  0  0
  5 11  2  0  0  0  0
  5 19  1  0  0  0  0
  7  6  1  0  0  0  0
  9 25  1  0  0  0  0
  9 13  2  0  0  0  0
 12  8  1  0  0  0  0
 12 15  1  0  0  0  0
 13 24  1  0  0  0  0
 14 25  2  0  0  0  0
 15  5  1  0  0  0  0
 16  8  1  0  0  0  0
 16  3  1  0  0  0  0
 17 28  1  0  0  0  0
 17 10  2  0  0  0  0
 18 20  2  0  0  0  0
 19  6  1  0  0  0  0
 20 13  1  0  0  0  0
 20 11  1  0  0  0  0
 21 26  2  0  0  0  0
 21 23  1  0  0  0  0
 22 10  1  0  0  0  0
 23  4  2  0  0  0  0
 24 22  2  0  0  0  0
 25 17  1  0  0  0  0
 27  9  1  0  0  0  0
 28 29  1  0  0  0  0
 29 32  1  0  0  0  0
 30 33  1  0  0  0  0
 31 33  1  0  0  0  0
 32 31  1  0  0  0  0
 32 34  1  0  0  0  0
 34 30  1  0  0  0  0
M  END
>  <MODEL>
6

>  <REMARK>
 VINA RESULT:      -8.3      2.897      4.866
  Name = 
  3 active torsions:
  status: ('A' for Active; 'I' for Inactive)
    1  A    between atoms: C_17  and  C_28
    2  A    between atoms: C_28  and  C_29
    3  A    between atoms: C_29  and  N_32
                            x       y       z     vdW  Elec       q    Type
                         _______ _______ _______ _____ _____    ______ ____

>  <TORSDO>
F 3

$$$$
=
 OpenBabel11112417583D

 34 40  0  0  0  0  0  0  0  0999 V2000
  190.5230  172.8120  143.0920 C   0  0  0  0  0  0  0  0  0  0  0  0
  188.1900  172.9770  142.0480 C   0  0  0  0  0  3  0  0  0  0  0  0
  195.9440  174.3960  143.3500 O   0  0  0  0  0  0  0  0  0  0  0  0
  192.7280  172.7580  144.1630 C   0  0  0  0  0  0  0  0  0  0  0  0
  193.6840  174.8210  145.1770 C   0  0  0  0  0  0  0  0  0  0  0  0
  195.5610  176.3760  144.6700 C   0  0  0  0  0  2  0  0  0  0  0  0
  196.5760  175.5070  143.9280 C   0  0  0  0  0  2  0  0  0  0  0  0
  196.2400  173.0210  145.3330 C   0  0  0  0  0  2  0  0  0  0  0  0
  189.2530  174.8720  143.0080 C   0  0  0  0  0  0  0  0  0  0  0  0
  188.2380  177.7300  142.7660 C   0  0  0  0  0  3  0  0  0  0  0  0
  192.5910  175.4880  144.8070 C   0  0  0  0  0  3  0  0  0  0  0  0
  194.8010  172.5590  145.5550 C   0  0  0  0  0  2  0  0  0  0  0  0
  190.2430  175.6550  143.7950 C   0  0  0  0  0  0  0  0  0  0  0  0
  187.3410  174.1680  142.0110 N   0  0  0  0  0  0  0  0  0  0  0  0
  193.7910  173.4040  144.9010 N   0  0  0  0  0  0  0  0  0  0  0  0
  196.5950  173.2630  143.8630 C   0  0  0  0  0  2  0  0  0  0  0  0
  187.4960  176.6110  142.7580 C   0  0  0  0  0  0  0  0  0  0  0  0
  191.5710  173.4890  143.7870 C   0  0  0  0  0  0  0  0  0  0  0  0
  194.8180  175.6060  145.7650 C   0  0  0  0  0  2  0  0  0  0  0  0
  191.4810  174.8170  144.1030 C   0  0  0  0  0  0  0  0  0  0  0  0
  191.7940  170.7470  143.1570 C   0  0  0  0  0  3  0  0  0  0  0  0
  189.7120  177.8360  142.6770 C   0  0  0  0  0  3  0  0  0  0  0  0
  192.8230  171.3950  143.8380 C   0  0  0  0  0  2  0  0  0  0  0  0
  190.6010  176.9240  143.0820 C   0  0  0  0  0  3  0  0  0  0  0  0
  188.0620  175.2550  142.5930 C   0  0  0  0  0  0  0  0  0  0  0  0
  190.6500  171.4510  142.7890 C   0  0  0  0  0  3  0  0  0  0  0  0
  189.4210  173.4750  142.7310 C   0  0  0  0  0  0  0  0  0  0  0  0
  186.0140  176.7770  142.8040 C   0  0  0  0  0  2  0  0  0  0  0  0
  185.6530  178.2280  143.0830 C   0  0  0  0  0  2  0  0  0  0  0  0
  185.4940  177.5100  146.5590 C   0  0  0  0  0  2  0  0  0  0  0  0
  185.6300  179.4040  145.0990 C   0  0  0  0  0  2  0  0  0  0  0  0
  184.9690  178.3400  144.3610 N   0  0  0  0  0  0  0  0  0  0  0  0
  185.6260  179.0120  146.5580 C   0  0  0  0  0  2  0  0  0  0  0  0
  185.2410  177.1240  145.1170 C   0  0  0  0  0  2  0  0  0  0  0  0
  1 18  1  0  0  0  0
  2 27  1  0  0  0  0
  3 16  1  0  0  0  0
  3  7  1  0  0  0  0
  4 15  1  0  0  0  0
  5 19  1  0  0  0  0
  6 19  1  0  0  0  0
  7  6  1  0  0  0  0
  8 12  1  0  0  0  0
  9 13  1  0  0  0  0
 11  5  2  0  0  0  0
 13 20  2  0  0  0  0
 14  2  2  0  0  0  0
 14 25  1  0  0  0  0
 15  5  1  0  0  0  0
 15 12  1  0  0  0  0
 16  8  1  0  0  0  0
 17 10  2  0  0  0  0
 17 28  1  0  0  0  0
 18 20  1  0  0  0  0
 18  4  2  0  0  0  0
 20 11  1  0  0  0  0
 21 23  1  0  0  0  0
 22 10  1  0  0  0  0
 22 24  2  0  0  0  0
 23  4  1  0  0  0  0
 24 13  1  0  0  0  0
 25 17  1  0  0  0  0
 25  9  2  0  0  0  0
 26  1  1  0  0  0  0
 26 21  2  0  0  0  0
 27  9  1  0  0  0  0
 27  1  2  0  0  0  0
 28 29  1  0  0  0  0
 29 32  1  0  0  0  0
 31 33  1  0  0  0  0
 32 31  1  0  0  0  0
 32 34  1  0  0  0  0
 33 30  1  0  0  0  0
 34 30  1  0  0  0  0
M  END
>  <MODEL>
7

>  <REMARK>
 VINA RESULT:      -8.1      2.127      3.112
  Name = 
  3 active torsions:
  status: ('A' for Active; 'I' for Inactive)
    1  A    between atoms: C_17  and  C_28
    2  A    between atoms: C_28  and  C_29
    3  A    between atoms: C_29  and  N_32
                            x       y       z     vdW  Elec       q    Type
                         _______ _______ _______ _____ _____    ______ ____

>  <TORSDO>
F 3

$$$$
=
 OpenBabel11112417583D

 34 40  0  0  0  0  0  0  0  0999 V2000
  187.3890  177.5600  145.2490 C   0  0  0  0  0  0  0  0  0  0  0  0
  184.9020  178.0090  144.8340 C   0  0  0  0  0  3  0  0  0  0  0  0
  192.0120  174.3740  144.5910 O   0  0  0  0  0  0  0  0  0  0  0  0
  189.7950  177.1820  145.5300 C   0  0  0  0  0  0  0  0  0  0  0  0
  191.2830  177.0180  143.5410 C   0  0  0  0  0  0  0  0  0  0  0  0
  192.5930  175.2260  142.4130 C   0  0  0  0  0  2  0  0  0  0  0  0
  192.9280  174.2450  143.5350 C   0  0  0  0  0  2  0  0  0  0  0  0
  193.3340  176.0790  145.7120 C   0  0  0  0  0  2  0  0  0  0  0  0
  186.4340  177.7760  143.0340 C   0  0  0  0  0  0  0  0  0  0  0  0
  185.6400  177.5550  140.1060 C   0  0  0  0  0  3  0  0  0  0  0  0
  190.2220  177.1990  142.7550 C   0  0  0  0  0  3  0  0  0  0  0  0
  192.2750  177.1650  145.8870 C   0  0  0  0  0  2  0  0  0  0  0  0
  187.7420  177.6810  142.3310 C   0  0  0  0  0  0  0  0  0  0  0  0
  184.2640  178.2080  143.5320 N   0  0  0  0  0  0  0  0  0  0  0  0
  191.1240  177.0350  144.9800 N   0  0  0  0  0  0  0  0  0  0  0  0
  192.7730  174.6540  145.7370 C   0  0  0  0  0  2  0  0  0  0  0  0
  184.9710  178.2030  141.0720 C   0  0  0  0  0  0  0  0  0  0  0  0
  188.6830  177.3810  144.6720 C   0  0  0  0  0  0  0  0  0  0  0  0
  192.5900  176.6820  142.8880 C   0  0  0  0  0  2  0  0  0  0  0  0
  188.8730  177.4050  143.3170 C   0  0  0  0  0  0  0  0  0  0  0  0
  188.3330  177.3290  147.4720 C   0  0  0  0  0  3  0  0  0  0  0  0
  186.7850  176.6300  140.2650 C   0  0  0  0  0  3  0  0  0  0  0  0
  189.6010  177.1560  146.9220 C   0  0  0  0  0  2  0  0  0  0  0  0
  187.6880  176.6420  141.2510 C   0  0  0  0  0  3  0  0  0  0  0  0
  185.2520  178.0370  142.5140 C   0  0  0  0  0  0  0  0  0  0  0  0
  187.2340  177.5330  146.6400 C   0  0  0  0  0  3  0  0  0  0  0  0
  186.3260  177.7550  144.4640 C   0  0  0  0  0  0  0  0  0  0  0  0
  183.8110  179.0410  140.6520 C   0  0  0  0  0  2  0  0  0  0  0  0
  182.5610  178.1840  140.5180 C   0  0  0  0  0  2  0  0  0  0  0  0
  179.0600  178.4250  141.0700 C   0  0  0  0  0  2  0  0  0  0  0  0
  181.1140  179.0370  142.1380 C   0  0  0  0  0  2  0  0  0  0  0  0
  181.3700  178.9960  140.7080 N   0  0  0  0  0  0  0  0  0  0  0  0
  179.6160  179.0410  142.3290 C   0  0  0  0  0  2  0  0  0  0  0  0
  180.2430  178.2680  140.1380 C   0  0  0  0  0  2  0  0  0  0  0  0
  1 26  1  0  0  0  0
  3 16  1  0  0  0  0
  4 23  1  0  0  0  0
  5 15  1  0  0  0  0
  6 19  1  0  0  0  0
  6  7  1  0  0  0  0
  7  3  1  0  0  0  0
  8 16  1  0  0  0  0
  8 12  1  0  0  0  0
  9 27  1  0  0  0  0
 10 22  1  0  0  0  0
 10 17  2  0  0  0  0
 11 20  1  0  0  0  0
 11  5  2  0  0  0  0
 13  9  1  0  0  0  0
 13 20  2  0  0  0  0
 14  2  2  0  0  0  0
 15  4  1  0  0  0  0
 15 12  1  0  0  0  0
 17 25  1  0  0  0  0
 18  1  1  0  0  0  0
 18  4  2  0  0  0  0
 19  5  1  0  0  0  0
 20 18  1  0  0  0  0
 22 24  2  0  0  0  0
 23 21  1  0  0  0  0
 24 13  1  0  0  0  0
 25  9  2  0  0  0  0
 25 14  1  0  0  0  0
 26 21  2  0  0  0  0
 27  2  1  0  0  0  0
 27  1  2  0  0  0  0
 28 17  1  0  0  0  0
 29 28  1  0  0  0  0
 29 32  1  0  0  0  0
 30 33  1  0  0  0  0
 31 33  1  0  0  0  0
 32 31  1  0  0  0  0
 34 32  1  0  0  0  0
 34 30  1  0  0  0  0
M  END
>  <MODEL>
8

>  <REMARK>
 VINA RESULT:      -8.1      2.555      3.642
  Name = 
  3 active torsions:
  status: ('A' for Active; 'I' for Inactive)
    1  A    between atoms: C_17  and  C_28
    2  A    between atoms: C_28  and  C_29
    3  A    between atoms: C_29  and  N_32
                            x       y       z     vdW  Elec       q    Type
                         _______ _______ _______ _____ _____    ______ ____

>  <TORSDO>
F 3

$$$$
=
 OpenBabel11112417583D

 34 40  0  0  1  0  0  0  0  0999 V2000
  190.9690  176.7230  146.1780 C   0  0  0  0  0  0  0  0  0  0  0  0
  193.4060  176.4590  146.9210 C   0  0  0  0  0  3  0  0  0  0  0  0
  187.0930  178.6660  142.5500 O   0  0  0  0  0  0  0  0  0  0  0  0
  188.6540  176.8760  145.3870 C   0  0  2  0  0  3  0  0  0  0  0  0
  188.0200  175.9480  143.1650 C   0  0  0  0  0  0  0  0  0  0  0  0
  187.3170  176.8680  140.9610 C   0  0  0  0  0  2  0  0  0  0  0  0
  186.6420  178.1940  141.3080 C   0  0  0  0  0  2  0  0  0  0  0  0
  185.3620  177.4830  143.7820 C   0  0  0  0  0  2  0  0  0  0  0  0
  192.6650  175.6700  144.8060 C   0  0  0  0  0  0  0  0  0  0  0  0
  194.4980  174.6670  142.5960 C   0  0  0  0  0  3  0  0  0  0  0  0
  189.2860  175.5740  142.9800 C   0  0  0  0  0  3  0  0  0  0  0  0
  186.2230  176.7320  144.7970 C   0  0  0  0  0  2  0  0  0  0  0  0
  191.7180  175.2750  143.7290 C   0  0  0  0  0  0  0  0  0  0  0  0
  194.4700  175.7860  146.1750 N   0  0  0  0  0  0  0  0  0  0  0  0
  187.6330  176.5920  144.4020 N   0  0  0  0  0  0  0  0  0  0  0  0
  185.9480  178.8290  143.3470 C   0  0  0  0  0  2  0  0  0  0  0  0
  194.7270  174.6070  143.9170 C   0  0  0  0  0  0  0  0  0  0  0  0
  189.9930  176.4610  145.1690 C   0  0  0  0  0  0  0  0  0  0  0  0
  187.0680  175.7890  142.0180 C   0  0  0  0  0  2  0  0  0  0  0  0
  190.3180  175.8130  144.0080 C   0  0  0  0  0  0  0  0  0  0  0  0
  189.2820  177.7940  147.5520 C   0  0  0  0  0  3  0  0  0  0  0  0
  193.4260  175.4120  141.8980 C   0  0  0  0  0  3  0  0  0  0  0  0
  188.3190  177.5420  146.5780 C   0  0  0  0  0  3  0  0  0  0  0  0
  192.2230  175.7230  142.3900 C   0  0  0  0  0  3  0  0  0  0  0  0
  193.9410  175.3590  144.9180 C   0  0  0  0  0  0  0  0  0  0  0  0
  190.5990  177.3850  147.3550 C   0  0  0  0  0  3  0  0  0  0  0  0
  192.2360  176.3380  146.0010 C   0  0  0  0  0  0  0  0  0  0  0  0
  195.9150  173.8260  144.3670 C   0  0  0  0  0  2  0  0  0  0  0  0
  195.6170  172.3350  144.3190 C   0  0  0  0  0  2  0  0  0  0  0  0
  195.0790  169.5950  146.5150 C   0  0  0  0  0  2  0  0  0  0  0  0
  196.8700  170.9920  145.7590 C   0  0  0  0  0  2  0  0  0  0  0  0
  195.6470  171.7710  145.6590 N   0  0  0  0  0  0  0  0  0  0  0  0
  196.5710  169.7890  146.6200 C   0  0  0  0  0  2  0  0  0  0  0  0
  194.5650  170.8000  145.7540 C   0  0  0  0  0  2  0  0  0  0  0  0
  1 26  2  0  0  0  0
  3 16  1  0  0  0  0
  4 23  1  1  0  0  0
  5 15  1  0  0  0  0
  6  7  1  0  0  0  0
  6 19  1  0  0  0  0
  7  3  1  0  0  0  0
  8 12  1  0  0  0  0
  9 25  1  0  0  0  0
  9 27  1  0  0  0  0
 10 17  2  0  0  0  0
 11  5  2  0  0  0  0
 11 20  1  0  0  0  0
 13 20  1  0  0  0  0
 13  9  2  0  0  0  0
 14  2  1  0  0  0  0
 15 12  1  0  0  0  0
 15  4  1  0  0  0  0
 16  8  1  0  0  0  0
 17 28  1  0  0  0  0
 17 25  1  0  0  0  0
 18  4  1  0  0  0  0
 18  1  1  0  0  0  0
 19  5  1  0  0  0  0
 20 18  2  0  0  0  0
 22 24  2  0  0  0  0
 22 10  1  0  0  0  0
 23 21  2  0  0  0  0
 24 13  1  0  0  0  0
 25 14  2  0  0  0  0
 26 21  1  0  0  0  0
 27  1  1  0  0  0  0
 27  2  2  0  0  0  0
 29 28  1  0  0  0  0
 29 32  1  0  0  0  0
 30 33  1  0  0  0  0
 31 33  1  0  0  0  0
 32 34  1  0  0  0  0
 32 31  1  0  0  0  0
 34 30  1  0  0  0  0
M  END
>  <MODEL>
9

>  <REMARK>
 VINA RESULT:      -8.0      2.505      8.296
  Name = 
  3 active torsions:
  status: ('A' for Active; 'I' for Inactive)
    1  A    between atoms: C_17  and  C_28
    2  A    between atoms: C_28  and  C_29
    3  A    between atoms: C_29  and  N_32
                            x       y       z     vdW  Elec       q    Type
                         _______ _______ _______ _____ _____    ______ ____

>  <TORSDO>
F 3

$$$$
