=
 OpenBabel11112416473D

 31 35  0  0  1  0  0  0  0  0999 V2000
  191.2300  171.2950  143.1650 C   0  0  0  0  0  0  0  0  0  0  0  0
  191.2030  174.0790  145.6890 N   0  0  0  0  0  0  0  0  0  0  0  0
  192.5340  174.6420  145.8060 C   0  0  0  0  0  0  0  0  0  0  0  0
  194.8900  174.6900  145.1990 C   0  0  0  0  0  0  0  0  0  0  0  0
  190.8480  173.2250  144.5850 C   0  0  0  0  0  0  0  0  0  0  0  0
  190.0830  171.6080  142.4280 C   0  0  0  0  0  3  0  0  0  0  0  0
  193.6330  174.0840  145.1330 C   0  0  0  0  0  3  0  0  0  0  0  0
  189.2900  175.5250  145.2590 C   0  0  2  0  0  3  0  0  0  0  0  0
  192.0100  170.1570  142.8180 N   0  0  0  0  0  1  0  0  0  0  0  0
  191.6440  176.3900  147.2220 O   0  0  0  0  0  0  0  0  0  0  0  0
  196.2480  173.9790  144.3560 Cl  0  0  0  0  0  0  0  0  0  0  0  0
  188.9030  174.6340  144.2060 O   0  0  0  0  0  0  0  0  0  0  0  0
  190.0630  174.7540  146.3320 C   0  0  2  0  0  3  0  0  0  0  0  0
  191.6110  172.1000  144.2430 C   0  0  0  0  0  3  0  0  0  0  0  0
  195.0590  175.8720  145.9230 C   0  0  0  0  0  3  0  0  0  0  0  0
  189.6890  173.5310  143.8450 C   0  0  0  0  0  0  0  0  0  0  0  0
  189.3120  172.7220  142.7690 C   0  0  0  0  0  3  0  0  0  0  0  0
  190.4860  175.6210  147.5250 C   0  0  0  0  0  2  0  0  0  0  0  0
  192.7200  175.8230  146.5460 C   0  0  0  0  0  0  0  0  0  0  0  0
  193.9730  176.4400  146.5940 C   0  0  0  0  0  3  0  0  0  0  0  0
  188.0580  176.2140  145.8270 C   0  0  0  0  0  2  0  0  0  0  0  0
  188.9900  177.8370  144.1720 C   0  0  0  0  0  1  0  0  0  0  0  0
  187.8640  177.5660  145.1530 C   0  0  1  0  0  3  0  0  0  0  0  0
  184.4610  177.8300  142.7120 C   0  0  1  0  0  3  0  0  0  0  0  0
  186.2890  176.7200  143.3880 C   0  0  0  0  0  2  0  0  0  0  0  0
  185.6870  179.4000  145.7760 O   0  0  0  0  0  0  0  0  0  0  0  0
  183.6580  178.2760  141.5080 C   0  0  0  0  0  1  0  0  0  0  0  0
  185.7450  177.4270  142.3020 O   0  0  0  0  0  0  0  0  0  0  0  0
  185.6060  178.6860  144.7420 C   0  0  0  0  0  0  0  0  0  0  0  0
  186.5630  177.6410  144.4880 N   0  0  0  0  0  0  0  0  0  0  0  0
  184.5520  178.9800  143.7190 C   0  0  0  0  0  2  0  0  0  0  0  0
  1 14  1  0  0  0  0
  2  3  1  0  0  0  0
  2 13  1  0  0  0  0
  3 19  1  0  0  0  0
  4 15  2  0  0  0  0
  5  2  1  0  0  0  0
  6 17  1  0  0  0  0
  6  1  2  0  0  0  0
  7  4  1  0  0  0  0
  7  3  2  0  0  0  0
  8 21  1  1  0  0  0
  8 13  1  0  0  0  0
  9  1  1  0  0  0  0
 10 18  1  0  0  0  0
 11  4  1  0  0  0  0
 12  8  1  0  0  0  0
 13 18  1  1  0  0  0
 14  5  2  0  0  0  0
 15 20  1  0  0  0  0
 16 12  1  0  0  0  0
 16  5  1  0  0  0  0
 17 16  2  0  0  0  0
 19 20  2  0  0  0  0
 19 10  1  0  0  0  0
 23 22  1  6  0  0  0
 23 21  1  0  0  0  0
 24 27  1  6  0  0  0
 24 31  1  0  0  0  0
 25 30  1  0  0  0  0
 28 24  1  0  0  0  0
 28 25  1  0  0  0  0
 29 26  2  0  0  0  0
 30 29  1  0  0  0  0
 30 23  1  0  0  0  0
 31 29  1  0  0  0  0
M  END
>  <MODEL>
1

>  <REMARK>
 VINA RESULT:      -8.1      0.000      0.000
  Name = 
  3 active torsions:
  status: ('A' for Active; 'I' for Inactive)
    1  A    between atoms: C_5  and  C_16
    2  A    between atoms: C_5  and  N_30
    3  A    between atoms: C_10  and  C_16
                            x       y       z     vdW  Elec       q    Type
                         _______ _______ _______ _____ _____    ______ ____

>  <TORSDO>
F 3

$$$$
=
 OpenBabel11112416473D

 31 35  0  0  1  0  0  0  0  0999 V2000
  185.4680  178.0620  146.8830 C   0  0  0  0  0  0  0  0  0  0  0  0
  187.9400  176.0100  144.9330 N   0  0  0  0  0  0  0  0  0  0  0  0
  187.6810  176.1560  143.5150 C   0  0  0  0  0  0  0  0  0  0  0  0
  186.3880  177.0680  141.6650 C   0  0  0  0  0  0  0  0  0  0  0  0
  187.3630  176.9150  145.8940 C   0  0  0  0  0  0  0  0  0  0  0  0
  186.3200  178.6800  147.8040 C   0  0  0  0  0  3  0  0  0  0  0  0
  186.5730  176.8740  143.0360 C   0  0  0  0  0  3  0  0  0  0  0  0
  190.1750  176.4000  145.8220 C   0  0  2  0  0  3  0  0  0  0  0  0
  184.0710  178.3310  146.9140 N   0  0  0  0  0  1  0  0  0  0  0  0
  189.7050  174.9180  143.0420 O   0  0  0  0  0  0  0  0  0  0  0  0
  185.0010  177.9640  141.0880 Cl  0  0  0  0  0  0  0  0  0  0  0  0
  189.5880  177.2440  146.8190 O   0  0  0  0  0  0  0  0  0  0  0  0
  189.1660  175.3320  145.3890 C   0  0  2  0  0  3  0  0  0  0  0  0
  185.9870  177.1780  145.9320 C   0  0  0  0  0  3  0  0  0  0  0  0
  187.3190  176.5610  140.7570 C   0  0  0  0  0  3  0  0  0  0  0  0
  188.2160  177.5340  146.8290 C   0  0  0  0  0  0  0  0  0  0  0  0
  187.6920  178.4140  147.7790 C   0  0  0  0  0  3  0  0  0  0  0  0
  189.7200  174.3520  144.3470 C   0  0  0  0  0  2  0  0  0  0  0  0
  188.6020  175.6350  142.5890 C   0  0  0  0  0  0  0  0  0  0  0  0
  188.4270  175.8470  141.2180 C   0  0  0  0  0  3  0  0  0  0  0  0
  191.4590  175.7860  146.3600 C   0  0  0  0  0  2  0  0  0  0  0  0
  193.8390  176.4800  146.6640 C   0  0  0  0  0  1  0  0  0  0  0  0
  192.6630  176.4500  145.7060 C   0  0  1  0  0  3  0  0  0  0  0  0
  194.2850  174.5330  142.3440 C   0  0  1  0  0  3  0  0  0  0  0  0
  193.7970  174.5390  144.5330 C   0  0  0  0  0  2  0  0  0  0  0  0
  192.0070  177.3130  143.0010 O   0  0  0  0  0  0  0  0  0  0  0  0
  195.3510  174.2200  141.3150 C   0  0  0  0  0  1  0  0  0  0  0  0
  194.8660  174.5940  143.6240 O   0  0  0  0  0  0  0  0  0  0  0  0
  192.8070  176.3540  143.1580 C   0  0  0  0  0  0  0  0  0  0  0  0
  193.0230  175.7750  144.4580 N   0  0  0  0  0  0  0  0  0  0  0  0
  193.6110  175.8620  141.9930 C   0  0  0  0  0  2  0  0  0  0  0  0
  1  9  1  0  0  0  0
  1  6  1  0  0  0  0
  2 13  1  0  0  0  0
  2  5  1  0  0  0  0
  3  2  1  0  0  0  0
  4  7  2  0  0  0  0
  5 14  1  0  0  0  0
  5 16  2  0  0  0  0
  7  3  1  0  0  0  0
  8 21  1  1  0  0  0
  8 12  1  0  0  0  0
 10 18  1  0  0  0  0
 11  4  1  0  0  0  0
 12 16  1  0  0  0  0
 13 18  1  6  0  0  0
 13  8  1  0  0  0  0
 14  1  2  0  0  0  0
 15 20  2  0  0  0  0
 15  4  1  0  0  0  0
 16 17  1  0  0  0  0
 17  6  2  0  0  0  0
 19 10  1  0  0  0  0
 19  3  2  0  0  0  0
 20 19  1  0  0  0  0
 23 21  1  0  0  0  0
 23 22  1  1  0  0  0
 24 27  1  6  0  0  0
 24 28  1  0  0  0  0
 26 29  2  0  0  0  0
 28 25  1  0  0  0  0
 29 30  1  0  0  0  0
 30 25  1  0  0  0  0
 30 23  1  0  0  0  0
 31 24  1  0  0  0  0
 31 29  1  0  0  0  0
M  END
>  <MODEL>
2

>  <REMARK>
 VINA RESULT:      -8.0      3.331      7.680
  Name = 
  3 active torsions:
  status: ('A' for Active; 'I' for Inactive)
    1  A    between atoms: C_5  and  C_16
    2  A    between atoms: C_5  and  N_30
    3  A    between atoms: C_10  and  C_16
                            x       y       z     vdW  Elec       q    Type
                         _______ _______ _______ _____ _____    ______ ____

>  <TORSDO>
F 3

$$$$
=
 OpenBabel11112416473D

 31 35  0  0  1  0  0  0  0  0999 V2000
  187.2920  176.8480  140.8440 C   0  0  0  0  0  0  0  0  0  0  0  0
  187.9740  177.3280  144.5090 N   0  0  0  0  0  0  0  0  0  0  0  0
  186.7840  177.8370  145.1620 C   0  0  0  0  0  0  0  0  0  0  0  0
  184.4760  178.6040  145.0930 C   0  0  0  0  0  0  0  0  0  0  0  0
  187.9140  176.7560  143.1880 C   0  0  0  0  0  0  0  0  0  0  0  0
  187.8480  175.5800  140.6450 C   0  0  0  0  0  3  0  0  0  0  0  0
  185.6360  178.1900  144.4340 C   0  0  0  0  0  3  0  0  0  0  0  0
  189.1000  175.3470  145.3750 C   0  0  2  0  0  3  0  0  0  0  0  0
  186.6910  177.5410  139.7570 N   0  0  0  0  0  1  0  0  0  0  0  0
  187.8740  177.5640  147.3050 O   0  0  0  0  0  0  0  0  0  0  0  0
  183.0560  179.0410  144.1690 Cl  0  0  0  0  0  0  0  0  0  0  0  0
  189.0990  174.8140  144.0450 O   0  0  0  0  0  0  0  0  0  0  0  0
  189.1190  176.8780  145.3190 C   0  0  2  0  0  3  0  0  0  0  0  0
  187.3270  177.4380  142.1120 C   0  0  0  0  0  3  0  0  0  0  0  0
  184.4440  178.6520  146.4880 C   0  0  0  0  0  3  0  0  0  0  0  0
  188.4790  175.4830  142.9800 C   0  0  0  0  0  0  0  0  0  0  0  0
  188.4430  174.8990  141.7110 C   0  0  0  0  0  3  0  0  0  0  0  0
  189.1610  177.5410  146.7010 C   0  0  0  0  0  2  0  0  0  0  0  0
  186.7460  177.9070  146.5660 C   0  0  0  0  0  0  0  0  0  0  0  0
  185.5770  178.3010  147.2240 C   0  0  0  0  0  3  0  0  0  0  0  0
  190.2840  174.7900  146.1510 C   0  0  0  0  0  2  0  0  0  0  0  0
  192.5170  175.6320  146.8880 C   0  0  0  0  0  1  0  0  0  0  0  0
  191.5630  175.4930  145.7160 C   0  0  1  0  0  3  0  0  0  0  0  0
  193.8850  173.3980  142.9180 C   0  0  1  0  0  3  0  0  0  0  0  0
  192.7510  173.4540  144.8510 C   0  0  0  0  0  2  0  0  0  0  0  0
  191.8890  176.4570  142.9860 O   0  0  0  0  0  0  0  0  0  0  0  0
  195.1670  172.9500  142.2480 C   0  0  0  0  0  1  0  0  0  0  0  0
  194.0460  173.3690  144.3150 O   0  0  0  0  0  0  0  0  0  0  0  0
  192.4730  175.3970  143.3310 C   0  0  0  0  0  0  0  0  0  0  0  0
  192.2010  174.7840  144.6050 N   0  0  0  0  0  0  0  0  0  0  0  0
  193.5270  174.8090  142.4440 C   0  0  0  0  0  2  0  0  0  0  0  0
  1 14  1  0  0  0  0
  2  3  1  0  0  0  0
  2 13  1  0  0  0  0
  3 19  1  0  0  0  0
  4 15  2  0  0  0  0
  5  2  1  0  0  0  0
  6  1  2  0  0  0  0
  6 17  1  0  0  0  0
  7  4  1  0  0  0  0
  7  3  2  0  0  0  0
  8 21  1  1  0  0  0
  9  1  1  0  0  0  0
 11  4  1  0  0  0  0
 12  8  1  0  0  0  0
 13  8  1  0  0  0  0
 13 18  1  1  0  0  0
 14  5  2  0  0  0  0
 15 20  1  0  0  0  0
 16  5  1  0  0  0  0
 16 12  1  0  0  0  0
 17 16  2  0  0  0  0
 18 10  1  0  0  0  0
 19 20  2  0  0  0  0
 19 10  1  0  0  0  0
 23 21  1  0  0  0  0
 23 22  1  1  0  0  0
 24 27  1  6  0  0  0
 24 28  1  0  0  0  0
 26 29  2  0  0  0  0
 28 25  1  0  0  0  0
 29 30  1  0  0  0  0
 30 25  1  0  0  0  0
 30 23  1  0  0  0  0
 31 24  1  0  0  0  0
 31 29  1  0  0  0  0
M  END
>  <MODEL>
3

>  <REMARK>
 VINA RESULT:      -8.0      3.454      7.422
  Name = 
  3 active torsions:
  status: ('A' for Active; 'I' for Inactive)
    1  A    between atoms: C_5  and  C_16
    2  A    between atoms: C_5  and  N_30
    3  A    between atoms: C_10  and  C_16
                            x       y       z     vdW  Elec       q    Type
                         _______ _______ _______ _____ _____    ______ ____

>  <TORSDO>
F 3

$$$$
=
 OpenBabel11112416473D

 31 35  0  0  1  0  0  0  0  0999 V2000
  191.6520  171.2710  143.0040 C   0  0  0  0  0  0  0  0  0  0  0  0
  192.0170  174.0880  145.4670 N   0  0  0  0  0  0  0  0  0  0  0  0
  193.2090  174.8520  145.1570 C   0  0  0  0  0  0  0  0  0  0  0  0
  195.2010  175.2470  143.8160 C   0  0  0  0  0  0  0  0  0  0  0  0
  191.4590  173.1580  144.5180 C   0  0  0  0  0  0  0  0  0  0  0  0
  190.2930  171.3820  142.6900 C   0  0  0  0  0  3  0  0  0  0  0  0
  194.1020  174.4520  144.1490 C   0  0  0  0  0  3  0  0  0  0  0  0
  189.8680  175.2080  145.7190 C   0  0  2  0  0  3  0  0  0  0  0  0
  192.4430  170.2590  142.3950 N   0  0  0  0  0  1  0  0  0  0  0  0
  192.5690  176.4800  146.8280 O   0  0  0  0  0  0  0  0  0  0  0  0
  196.3040  174.7310  142.5600 Cl  0  0  0  0  0  0  0  0  0  0  0  0
  189.3030  174.2390  144.8290 O   0  0  0  0  0  0  0  0  0  0  0  0
  191.0580  174.5960  146.4630 C   0  0  2  0  0  3  0  0  0  0  0  0
  192.2340  172.1550  143.9190 C   0  0  0  0  0  3  0  0  0  0  0  0
  195.4110  176.4610  144.4740 C   0  0  0  0  0  3  0  0  0  0  0  0
  190.0900  173.2600  144.2040 C   0  0  0  0  0  0  0  0  0  0  0  0
  189.5120  172.3740  143.2910 C   0  0  0  0  0  3  0  0  0  0  0  0
  191.7070  175.5510  147.4730 C   0  0  0  0  0  2  0  0  0  0  0  0
  193.4400  176.0670  145.8250 C   0  0  0  0  0  0  0  0  0  0  0  0
  194.5290  176.8720  145.4760 C   0  0  0  0  0  3  0  0  0  0  0  0
  188.7970  175.7130  146.6740 C   0  0  0  0  0  2  0  0  0  0  0  0
  189.5020  177.7470  145.4060 C   0  0  0  0  0  1  0  0  0  0  0  0
  188.4840  177.1730  146.3740 C   0  0  1  0  0  3  0  0  0  0  0  0
  184.8200  178.0810  144.5410 C   0  0  1  0  0  3  0  0  0  0  0  0
  186.9330  177.3420  144.4050 C   0  0  0  0  0  2  0  0  0  0  0  0
  186.0370  177.4580  147.9300 O   0  0  0  0  0  0  0  0  0  0  0  0
  183.7800  178.9810  143.9070 C   0  0  0  0  0  1  0  0  0  0  0  0
  186.0960  178.4140  144.0520 O   0  0  0  0  0  0  0  0  0  0  0  0
  185.9900  177.6280  146.6830 C   0  0  0  0  0  0  0  0  0  0  0  0
  187.1250  177.3230  145.8520 N   0  0  0  0  0  0  0  0  0  0  0  0
  184.7690  178.2350  146.0640 C   0  0  0  0  0  2  0  0  0  0  0  0
  1 14  1  0  0  0  0
  2 13  1  0  0  0  0
  3  2  1  0  0  0  0
  3 19  1  0  0  0  0
  4  7  1  0  0  0  0
  4 15  2  0  0  0  0
  5  2  1  0  0  0  0
  6  1  2  0  0  0  0
  6 17  1  0  0  0  0
  7  3  2  0  0  0  0
  8 13  1  0  0  0  0
  8 21  1  1  0  0  0
  9  1  1  0  0  0  0
 10 18  1  0  0  0  0
 11  4  1  0  0  0  0
 12  8  1  0  0  0  0
 13 18  1  6  0  0  0
 14  5  2  0  0  0  0
 15 20  1  0  0  0  0
 16  5  1  0  0  0  0
 16 12  1  0  0  0  0
 17 16  2  0  0  0  0
 19 10  1  0  0  0  0
 20 19  2  0  0  0  0
 23 22  1  6  0  0  0
 23 21  1  0  0  0  0
 24 27  1  6  0  0  0
 24 31  1  0  0  0  0
 25 30  1  0  0  0  0
 28 25  1  0  0  0  0
 28 24  1  0  0  0  0
 29 26  2  0  0  0  0
 30 23  1  0  0  0  0
 30 29  1  0  0  0  0
 31 29  1  0  0  0  0
M  END
>  <MODEL>
4

>  <REMARK>
 VINA RESULT:      -8.0      1.292      1.447
  Name = 
  3 active torsions:
  status: ('A' for Active; 'I' for Inactive)
    1  A    between atoms: C_5  and  C_16
    2  A    between atoms: C_5  and  N_30
    3  A    between atoms: C_10  and  C_16
                            x       y       z     vdW  Elec       q    Type
                         _______ _______ _______ _____ _____    ______ ____

>  <TORSDO>
F 3

$$$$
=
 OpenBabel11112416473D

 31 35  0  0  1  0  0  0  0  0999 V2000
  185.6860  178.1510  140.8200 C   0  0  0  0  0  0  0  0  0  0  0  0
  188.2160  177.9100  143.5890 N   0  0  0  0  0  0  0  0  0  0  0  0
  187.5360  177.9160  144.8690 C   0  0  0  0  0  0  0  0  0  0  0  0
  185.5070  178.0380  146.2060 C   0  0  0  0  0  0  0  0  0  0  0  0
  187.4960  177.6730  142.3630 C   0  0  0  0  0  0  0  0  0  0  0  0
  186.1600  177.1600  139.9540 C   0  0  0  0  0  3  0  0  0  0  0  0
  186.1500  178.1140  144.9690 C   0  0  0  0  0  3  0  0  0  0  0  0
  189.8160  176.1510  143.0540 C   0  0  2  0  0  3  0  0  0  0  0  0
  184.5240  178.8970  140.4790 N   0  0  0  0  0  1  0  0  0  0  0  0
  189.6420  177.4400  145.9610 O   0  0  0  0  0  0  0  0  0  0  0  0
  183.7790  178.2910  146.3110 Cl  0  0  0  0  0  0  0  0  0  0  0  0
  189.1380  175.9680  141.8060 O   0  0  0  0  0  0  0  0  0  0  0  0
  189.6540  177.6000  143.5230 C   0  0  2  0  0  3  0  0  0  0  0  0
  186.3540  178.4110  142.0210 C   0  0  0  0  0  3  0  0  0  0  0  0
  186.2400  177.7440  147.3570 C   0  0  0  0  0  3  0  0  0  0  0  0
  187.9740  176.6820  141.4840 C   0  0  0  0  0  0  0  0  0  0  0  0
  187.3040  176.4280  140.2840 C   0  0  0  0  0  3  0  0  0  0  0  0
  190.3830  177.9030  144.8380 C   0  0  0  0  0  2  0  0  0  0  0  0
  188.2670  177.6380  146.0370 C   0  0  0  0  0  0  0  0  0  0  0  0
  187.6190  177.5410  147.2730 C   0  0  0  0  0  3  0  0  0  0  0  0
  191.2780  175.7590  142.9060 C   0  0  0  0  0  2  0  0  0  0  0  0
  191.4090  173.3950  143.7010 C   0  0  0  0  0  1  0  0  0  0  0  0
  191.6870  174.8440  144.0530 C   0  0  1  0  0  3  0  0  0  0  0  0
  195.7920  174.7810  144.9210 C   0  0  1  0  0  3  0  0  0  0  0  0
  194.1140  174.6190  143.4420 C   0  0  0  0  0  2  0  0  0  0  0  0
  192.7350  175.9830  146.5220 O   0  0  0  0  0  0  0  0  0  0  0  0
  197.0940  174.1650  145.3880 C   0  0  0  0  0  1  0  0  0  0  0  0
  195.1050  173.8700  144.0980 O   0  0  0  0  0  0  0  0  0  0  0  0
  193.5340  175.4480  145.7090 C   0  0  0  0  0  0  0  0  0  0  0  0
  193.0950  175.0350  144.4020 N   0  0  0  0  0  0  0  0  0  0  0  0
  194.9410  175.1580  146.1360 C   0  0  0  0  0  2  0  0  0  0  0  0
  1 14  1  0  0  0  0
  2  3  1  0  0  0  0
  3  7  2  0  0  0  0
  3 19  1  0  0  0  0
  4 11  1  0  0  0  0
  4 15  2  0  0  0  0
  5  2  1  0  0  0  0
  6 17  1  0  0  0  0
  6  1  2  0  0  0  0
  7  4  1  0  0  0  0
  8 21  1  6  0  0  0
  8 13  1  0  0  0  0
  9  1  1  0  0  0  0
 10 19  1  0  0  0  0
 12  8  1  0  0  0  0
 13  2  1  0  0  0  0
 13 18  1  1  0  0  0
 14  5  2  0  0  0  0
 16 12  1  0  0  0  0
 16  5  1  0  0  0  0
 17 16  2  0  0  0  0
 18 10  1  0  0  0  0
 19 20  2  0  0  0  0
 20 15  1  0  0  0  0
 21 23  1  0  0  0  0
 23 22  1  6  0  0  0
 23 30  1  0  0  0  0
 24 27  1  1  0  0  0
 24 31  1  0  0  0  0
 25 28  1  0  0  0  0
 25 30  1  0  0  0  0
 28 24  1  0  0  0  0
 29 31  1  0  0  0  0
 29 26  2  0  0  0  0
 30 29  1  0  0  0  0
M  END
>  <MODEL>
5

>  <REMARK>
 VINA RESULT:      -8.0      3.322      7.916
  Name = 
  3 active torsions:
  status: ('A' for Active; 'I' for Inactive)
    1  A    between atoms: C_5  and  C_16
    2  A    between atoms: C_5  and  N_30
    3  A    between atoms: C_10  and  C_16
                            x       y       z     vdW  Elec       q    Type
                         _______ _______ _______ _____ _____    ______ ____

>  <TORSDO>
F 3

$$$$
=
 OpenBabel11112416473D

 31 35  0  0  1  0  0  0  0  0999 V2000
  187.3490  176.8240  140.9020 C   0  0  0  0  0  0  0  0  0  0  0  0
  188.5450  177.1420  144.4510 N   0  0  0  0  0  0  0  0  0  0  0  0
  187.4760  177.6640  145.2780 C   0  0  0  0  0  0  0  0  0  0  0  0
  185.2100  178.5060  145.5550 C   0  0  0  0  0  0  0  0  0  0  0  0
  188.2830  176.6230  143.1320 C   0  0  0  0  0  0  0  0  0  0  0  0
  187.8250  175.5470  140.5860 C   0  0  0  0  0  3  0  0  0  0  0  0
  186.2520  178.0810  144.7290 C   0  0  0  0  0  3  0  0  0  0  0  0
  189.7050  175.0950  145.0860 C   0  0  2  0  0  3  0  0  0  0  0  0
  186.6310  177.5760  139.9310 N   0  0  0  0  0  1  0  0  0  0  0  0
  188.8380  177.2750  147.2390 O   0  0  0  0  0  0  0  0  0  0  0  0
  183.6940  179.0240  144.8520 Cl  0  0  0  0  0  0  0  0  0  0  0  0
  189.5020  174.6130  143.7520 O   0  0  0  0  0  0  0  0  0  0  0  0
  189.7730  176.6250  145.0780 C   0  0  2  0  0  3  0  0  0  0  0  0
  187.5800  177.3630  142.1710 C   0  0  0  0  0  3  0  0  0  0  0  0
  185.3710  178.5030  146.9420 C   0  0  0  0  0  3  0  0  0  0  0  0
  188.7670  175.3410  142.8060 C   0  0  0  0  0  0  0  0  0  0  0  0
  188.5350  174.8070  141.5360 C   0  0  0  0  0  3  0  0  0  0  0  0
  190.0290  177.2340  146.4630 C   0  0  0  0  0  2  0  0  0  0  0  0
  187.6330  177.6820  146.6750 C   0  0  0  0  0  0  0  0  0  0  0  0
  186.5810  178.0890  147.5020 C   0  0  0  0  0  3  0  0  0  0  0  0
  190.9630  174.4710  145.6710 C   0  0  0  0  0  2  0  0  0  0  0  0
  193.0060  175.1920  144.4280 C   0  0  0  0  0  1  0  0  0  0  0  0
  191.9360  174.1240  144.5530 C   0  0  1  0  0  3  0  0  0  0  0  0
  194.1660  170.5840  144.8860 C   0  0  1  0  0  3  0  0  0  0  0  0
  193.8350  172.7330  145.4340 C   0  0  0  0  0  2  0  0  0  0  0  0
  190.8190  171.5460  143.7780 O   0  0  0  0  0  0  0  0  0  0  0  0
  195.1990  169.5590  144.4640 C   0  0  0  0  0  1  0  0  0  0  0  0
  194.6880  171.8790  144.7150 O   0  0  0  0  0  0  0  0  0  0  0  0
  192.0020  171.5940  144.2070 C   0  0  0  0  0  0  0  0  0  0  0  0
  192.5370  172.8060  144.7690 N   0  0  0  0  0  0  0  0  0  0  0  0
  192.8950  170.4010  144.0520 C   0  0  0  0  0  2  0  0  0  0  0  0
  1 14  1  0  0  0  0
  2 13  1  0  0  0  0
  2  3  1  0  0  0  0
  3 19  1  0  0  0  0
  4 15  2  0  0  0  0
  5  2  1  0  0  0  0
  6  1  2  0  0  0  0
  6 17  1  0  0  0  0
  7  3  2  0  0  0  0
  7  4  1  0  0  0  0
  8 21  1  6  0  0  0
  9  1  1  0  0  0  0
 11  4  1  0  0  0  0
 12  8  1  0  0  0  0
 13  8  1  0  0  0  0
 13 18  1  1  0  0  0
 14  5  2  0  0  0  0
 15 20  1  0  0  0  0
 16  5  1  0  0  0  0
 16 12  1  0  0  0  0
 17 16  2  0  0  0  0
 18 10  1  0  0  0  0
 19 10  1  0  0  0  0
 19 20  2  0  0  0  0
 23 22  1  1  0  0  0
 23 30  1  0  0  0  0
 23 21  1  0  0  0  0
 24 27  1  6  0  0  0
 26 29  2  0  0  0  0
 28 24  1  0  0  0  0
 28 25  1  0  0  0  0
 29 30  1  0  0  0  0
 30 25  1  0  0  0  0
 31 29  1  0  0  0  0
 31 24  1  0  0  0  0
M  END
>  <MODEL>
6

>  <REMARK>
 VINA RESULT:      -7.8      3.461      7.794
  Name = 
  3 active torsions:
  status: ('A' for Active; 'I' for Inactive)
    1  A    between atoms: C_5  and  C_16
    2  A    between atoms: C_5  and  N_30
    3  A    between atoms: C_10  and  C_16
                            x       y       z     vdW  Elec       q    Type
                         _______ _______ _______ _____ _____    ______ ____

>  <TORSDO>
F 3

$$$$
=
 OpenBabel11112416473D

 31 35  0  0  1  0  0  0  0  0999 V2000
  191.9330  172.6510  140.8490 C   0  0  0  0  0  0  0  0  0  0  0  0
  193.1230  174.8300  143.6710 N   0  0  0  0  0  0  0  0  0  0  0  0
  194.4580  175.3140  143.3800 C   0  0  0  0  0  0  0  0  0  0  0  0
  196.4240  175.4220  141.9500 C   0  0  0  0  0  0  0  0  0  0  0  0
  192.3020  174.2430  142.6430 C   0  0  0  0  0  0  0  0  0  0  0  0
  190.6370  173.1470  140.6730 C   0  0  0  0  0  3  0  0  0  0  0  0
  195.1720  174.8810  142.2510 C   0  0  0  0  0  3  0  0  0  0  0  0
  191.3510  176.3900  144.2730 C   0  0  2  0  0  3  0  0  0  0  0  0
  192.4060  171.5910  140.0270 N   0  0  0  0  0  1  0  0  0  0  0  0
  194.3360  176.7450  145.3280 O   0  0  0  0  0  0  0  0  0  0  0  0
  197.2990  174.8680  140.5400 Cl  0  0  0  0  0  0  0  0  0  0  0  0
  190.5160  175.7570  143.2980 O   0  0  0  0  0  0  0  0  0  0  0  0
  192.3740  175.3850  144.8110 C   0  0  2  0  0  3  0  0  0  0  0  0
  192.7630  173.1940  141.8340 C   0  0  0  0  0  3  0  0  0  0  0  0
  196.9700  176.4160  142.7640 C   0  0  0  0  0  3  0  0  0  0  0  0
  190.9940  174.7340  142.4660 C   0  0  0  0  0  0  0  0  0  0  0  0
  190.1670  174.1860  141.4820 C   0  0  0  0  0  3  0  0  0  0  0  0
  193.2910  175.9630  145.8950 C   0  0  0  0  0  2  0  0  0  0  0  0
  195.0250  176.3030  144.2030 C   0  0  0  0  0  0  0  0  0  0  0  0
  196.2700  176.8580  143.8890 C   0  0  0  0  0  3  0  0  0  0  0  0
  190.4920  176.9770  145.3820 C   0  0  0  0  0  2  0  0  0  0  0  0
  189.1570  175.2470  146.5930 C   0  0  0  0  0  1  0  0  0  0  0  0
  189.1590  176.2420  145.4470 C   0  0  1  0  0  3  0  0  0  0  0  0
  185.6430  178.4540  146.0400 C   0  0  1  0  0  3  0  0  0  0  0  0
  187.3930  177.3240  146.8700 C   0  0  0  0  0  2  0  0  0  0  0  0
  188.0420  177.9130  143.3380 O   0  0  0  0  0  0  0  0  0  0  0  0
  184.1460  178.6660  146.1400 C   0  0  0  0  0  1  0  0  0  0  0  0
  185.9980  177.2690  146.7090 O   0  0  0  0  0  0  0  0  0  0  0  0
  187.4430  177.8450  144.4430 C   0  0  0  0  0  0  0  0  0  0  0  0
  188.0450  177.1830  145.5710 N   0  0  0  0  0  0  0  0  0  0  0  0
  186.0510  178.3850  144.5660 C   0  0  0  0  0  2  0  0  0  0  0  0
  1 14  1  0  0  0  0
  2 13  1  0  0  0  0
  3  2  1  0  0  0  0
  3 19  1  0  0  0  0
  4  7  1  0  0  0  0
  4 15  2  0  0  0  0
  5  2  1  0  0  0  0
  6  1  2  0  0  0  0
  6 17  1  0  0  0  0
  7  3  2  0  0  0  0
  8 13  1  0  0  0  0
  8 21  1  1  0  0  0
  9  1  1  0  0  0  0
 10 18  1  0  0  0  0
 11  4  1  0  0  0  0
 12  8  1  0  0  0  0
 13 18  1  1  0  0  0
 14  5  2  0  0  0  0
 15 20  1  0  0  0  0
 16  5  1  0  0  0  0
 16 12  1  0  0  0  0
 17 16  2  0  0  0  0
 19 10  1  0  0  0  0
 20 19  2  0  0  0  0
 21 23  1  0  0  0  0
 23 30  1  0  0  0  0
 23 22  1  1  0  0  0
 24 27  1  6  0  0  0
 24 28  1  0  0  0  0
 26 29  2  0  0  0  0
 28 25  1  0  0  0  0
 29 31  1  0  0  0  0
 29 30  1  0  0  0  0
 30 25  1  0  0  0  0
 31 24  1  0  0  0  0
M  END
>  <MODEL>
7

>  <REMARK>
 VINA RESULT:      -7.6      2.379      3.118
  Name = 
  3 active torsions:
  status: ('A' for Active; 'I' for Inactive)
    1  A    between atoms: C_5  and  C_16
    2  A    between atoms: C_5  and  N_30
    3  A    between atoms: C_10  and  C_16
                            x       y       z     vdW  Elec       q    Type
                         _______ _______ _______ _____ _____    ______ ____

>  <TORSDO>
F 3

$$$$
=
 OpenBabel11112416473D

 31 35  0  0  1  0  0  0  0  0999 V2000
  185.8840  177.2330  146.5640 C   0  0  0  0  0  0  0  0  0  0  0  0
  187.3510  176.0280  143.3200 N   0  0  0  0  0  0  0  0  0  0  0  0
  186.6350  176.6270  142.2120 C   0  0  0  0  0  0  0  0  0  0  0  0
  184.8710  178.0550  141.3340 C   0  0  0  0  0  0  0  0  0  0  0  0
  187.2190  176.5440  144.6590 C   0  0  0  0  0  0  0  0  0  0  0  0
  187.0500  177.5400  147.2730 C   0  0  0  0  0  3  0  0  0  0  0  0
  185.4970  177.4250  142.4120 C   0  0  0  0  0  3  0  0  0  0  0  0
  189.7800  176.1790  143.4410 C   0  0  2  0  0  3  0  0  0  0  0  0
  184.6110  177.4280  147.1690 N   0  0  0  0  0  1  0  0  0  0  0  0
  188.2600  175.6860  140.6860 O   0  0  0  0  0  0  0  0  0  0  0  0
  183.4520  179.0430  141.6030 Cl  0  0  0  0  0  0  0  0  0  0  0  0
  189.6460  176.6240  144.7960 O   0  0  0  0  0  0  0  0  0  0  0  0
  188.5960  175.2810  143.0720 C   0  0  2  0  0  3  0  0  0  0  0  0
  185.9670  176.7320  145.2610 C   0  0  0  0  0  3  0  0  0  0  0  0
  185.3860  177.9100  140.0440 C   0  0  0  0  0  3  0  0  0  0  0  0
  188.3910  176.8470  145.3810 C   0  0  0  0  0  0  0  0  0  0  0  0
  188.3020  177.3450  146.6830 C   0  0  0  0  0  3  0  0  0  0  0  0
  188.6730  174.7210  141.6460 C   0  0  0  0  0  2  0  0  0  0  0  0
  187.1350  176.4740  140.9070 C   0  0  0  0  0  0  0  0  0  0  0  0
  186.5190  177.1220  139.8310 C   0  0  0  0  0  3  0  0  0  0  0  0
  191.1120  175.4660  143.2650 C   0  0  0  0  0  2  0  0  0  0  0  0
  190.9950  173.3610  144.6060 C   0  0  0  0  0  1  0  0  0  0  0  0
  191.5120  174.7870  144.5690 C   0  0  1  0  0  3  0  0  0  0  0  0
  195.6110  174.2950  145.3170 C   0  0  1  0  0  3  0  0  0  0  0  0
  193.7680  173.7590  144.1590 C   0  0  0  0  0  2  0  0  0  0  0  0
  193.0360  176.7800  146.0520 O   0  0  0  0  0  0  0  0  0  0  0  0
  196.8270  173.7430  146.0340 C   0  0  0  0  0  1  0  0  0  0  0  0
  194.6780  173.2640  145.1070 O   0  0  0  0  0  0  0  0  0  0  0  0
  193.6220  175.7440  145.6430 C   0  0  0  0  0  0  0  0  0  0  0  0
  192.9630  174.8210  144.7570 N   0  0  0  0  0  0  0  0  0  0  0  0
  194.9940  175.4200  146.1520 C   0  0  0  0  0  2  0  0  0  0  0  0
  1  9  1  0  0  0  0
  1  6  1  0  0  0  0
  2  5  1  0  0  0  0
  3  7  1  0  0  0  0
  3  2  1  0  0  0  0
  4 11  1  0  0  0  0
  4  7  2  0  0  0  0
  5 14  1  0  0  0  0
  5 16  2  0  0  0  0
  8 21  1  1  0  0  0
  8 12  1  0  0  0  0
 10 19  1  0  0  0  0
 10 18  1  0  0  0  0
 12 16  1  0  0  0  0
 13 18  1  6  0  0  0
 13  2  1  0  0  0  0
 13  8  1  0  0  0  0
 14  1  2  0  0  0  0
 15  4  1  0  0  0  0
 16 17  1  0  0  0  0
 17  6  2  0  0  0  0
 19  3  2  0  0  0  0
 20 15  2  0  0  0  0
 20 19  1  0  0  0  0
 21 23  1  0  0  0  0
 23 22  1  6  0  0  0
 23 30  1  0  0  0  0
 24 27  1  1  0  0  0
 24 31  1  0  0  0  0
 25 30  1  0  0  0  0
 25 28  1  0  0  0  0
 28 24  1  0  0  0  0
 29 26  2  0  0  0  0
 29 31  1  0  0  0  0
 30 29  1  0  0  0  0
M  END
>  <MODEL>
8

>  <REMARK>
 VINA RESULT:      -7.6      3.332      8.424
  Name = 
  3 active torsions:
  status: ('A' for Active; 'I' for Inactive)
    1  A    between atoms: C_5  and  C_16
    2  A    between atoms: C_5  and  N_30
    3  A    between atoms: C_10  and  C_16
                            x       y       z     vdW  Elec       q    Type
                         _______ _______ _______ _____ _____    ______ ____

>  <TORSDO>
F 3

$$$$
=
 OpenBabel11112416473D

 31 35  0  0  1  0  0  0  0  0999 V2000
  186.1720  177.2600  142.9700 C   0  0  0  0  0  0  0  0  0  0  0  0
  188.7690  174.5440  143.0140 N   0  0  0  0  0  0  0  0  0  0  0  0
  189.0240  174.0930  141.6610 C   0  0  0  0  0  0  0  0  0  0  0  0
  188.5920  174.1780  139.2670 C   0  0  0  0  0  0  0  0  0  0  0  0
  188.0670  175.7750  143.2710 C   0  0  0  0  0  0  0  0  0  0  0  0
  186.7610  178.1900  143.8320 C   0  0  0  0  0  3  0  0  0  0  0  0
  188.2750  174.5670  140.5710 C   0  0  0  0  0  3  0  0  0  0  0  0
  190.6140  175.2300  144.4510 C   0  0  2  0  0  3  0  0  0  0  0  0
  184.9110  177.5410  142.3750 N   0  0  0  0  0  1  0  0  0  0  0  0
  190.8520  172.7380  142.4820 O   0  0  0  0  0  0  0  0  0  0  0  0
  187.6460  174.7770  137.9230 Cl  0  0  0  0  0  0  0  0  0  0  0  0
  189.8810  176.4210  144.7570 O   0  0  0  0  0  0  0  0  0  0  0  0
  189.6420  174.0960  144.1130 C   0  0  2  0  0  3  0  0  0  0  0  0
  186.8210  176.0530  142.6910 C   0  0  0  0  0  3  0  0  0  0  0  0
  189.6720  173.3240  139.0360 C   0  0  0  0  0  3  0  0  0  0  0  0
  188.6520  176.7120  144.1460 C   0  0  0  0  0  0  0  0  0  0  0  0
  187.9980  177.9160  144.4220 C   0  0  0  0  0  3  0  0  0  0  0  0
  190.3380  172.7630  143.8080 C   0  0  0  0  0  2  0  0  0  0  0  0
  190.0990  173.2200  141.4170 C   0  0  0  0  0  0  0  0  0  0  0  0
  190.4270  172.8480  140.1090 C   0  0  0  0  0  3  0  0  0  0  0  0
  191.5240  174.8740  145.6160 C   0  0  0  0  0  2  0  0  0  0  0  0
  193.1000  176.3370  146.8880 C   0  0  0  0  0  1  0  0  0  0  0  0
  192.8030  175.6970  145.5440 C   0  0  1  0  0  3  0  0  0  0  0  0
  195.9990  173.0750  144.8230 C   0  0  1  0  0  3  0  0  0  0  0  0
  193.8130  173.4260  145.1760 C   0  0  0  0  0  2  0  0  0  0  0  0
  195.3450  176.6540  144.4880 O   0  0  0  0  0  0  0  0  0  0  0  0
  197.1910  172.2170  145.1940 C   0  0  0  0  0  1  0  0  0  0  0  0
  194.9700  172.8870  145.7630 O   0  0  0  0  0  0  0  0  0  0  0  0
  195.2150  175.4290  144.7460 C   0  0  0  0  0  0  0  0  0  0  0  0
  193.9310  174.8790  145.0960 N   0  0  0  0  0  0  0  0  0  0  0  0
  196.4240  174.5450  144.7740 C   0  0  0  0  0  2  0  0  0  0  0  0
  1  6  1  0  0  0  0
  2  5  1  0  0  0  0
  2 13  1  0  0  0  0
  3  2  1  0  0  0  0
  4  7  1  0  0  0  0
  5 16  2  0  0  0  0
  6 17  2  0  0  0  0
  7  3  2  0  0  0  0
  8 12  1  0  0  0  0
  8 21  1  1  0  0  0
  9  1  1  0  0  0  0
 10 18  1  0  0  0  0
 11  4  1  0  0  0  0
 13 18  1  6  0  0  0
 13  8  1  0  0  0  0
 14  1  2  0  0  0  0
 14  5  1  0  0  0  0
 15  4  2  0  0  0  0
 15 20  1  0  0  0  0
 16 17  1  0  0  0  0
 16 12  1  0  0  0  0
 19  3  1  0  0  0  0
 19 10  1  0  0  0  0
 20 19  2  0  0  0  0
 23 21  1  0  0  0  0
 23 22  1  1  0  0  0
 24 27  1  1  0  0  0
 24 28  1  0  0  0  0
 25 28  1  0  0  0  0
 26 29  2  0  0  0  0
 29 31  1  0  0  0  0
 29 30  1  0  0  0  0
 30 25  1  0  0  0  0
 30 23  1  0  0  0  0
 31 24  1  0  0  0  0
M  END
>  <MODEL>
9

>  <REMARK>
 VINA RESULT:      -7.4      3.080      7.926
  Name = 
  3 active torsions:
  status: ('A' for Active; 'I' for Inactive)
    1  A    between atoms: C_5  and  C_16
    2  A    between atoms: C_5  and  N_30
    3  A    between atoms: C_10  and  C_16
                            x       y       z     vdW  Elec       q    Type
                         _______ _______ _______ _____ _____    ______ ____

>  <TORSDO>
F 3

$$$$
