=
 OpenBabel11112417013D

 31 35  0  0  1  0  0  0  0  0999 V2000
  187.4450  176.7260  140.9090 C   0  0  0  0  0  0  0  0  0  0  0  0
  188.4770  177.5820  144.4380 C   0  0  2  0  0  3  0  0  0  0  0  0
  187.2800  177.3120  145.3580 C   0  0  2  0  0  3  0  0  0  0  0  0
  184.9500  178.1350  145.5990 C   0  0  0  0  0  0  0  0  0  0  0  0
  188.3500  176.8520  143.1270 C   0  0  0  0  0  0  0  0  0  0  0  0
  188.1090  175.4140  140.6190 C   0  0  0  0  0  2  0  0  0  0  0  0
  185.9760  177.8120  144.8020 C   0  0  0  0  0  3  0  0  0  0  0  0
  190.1240  175.6840  145.2120 C   0  0  2  0  0  3  0  0  0  0  0  0
  186.7530  177.2850  140.0180 O   0  0  0  0  0  0  0  0  0  0  0  0
  188.8550  177.3790  147.2630 C   0  0  0  0  0  2  0  0  0  0  0  0
  183.7530  178.5390  145.0230 O   0  0  0  0  0  1  0  0  0  0  0  0
  189.3090  174.8420  144.2230 C   0  0  0  0  0  2  0  0  0  0  0  0
  189.7910  177.1920  145.1630 C   0  0  2  0  0  3  0  0  0  0  0  0
  187.6220  177.3670  142.1790 N   0  0  0  0  0  0  0  0  0  0  0  0
  185.0730  178.1480  147.1070 C   0  0  0  0  0  2  0  0  0  0  0  0
  189.1150  175.5670  142.8990 C   0  0  1  0  0  3  0  0  0  0  0  0
  188.3680  174.6650  141.9220 C   0  0  0  0  0  2  0  0  0  0  0  0
  189.9150  177.8070  146.4330 O   0  0  0  0  0  0  0  0  0  0  0  0
  187.5330  177.9150  146.7340 C   0  0  2  0  0  3  0  0  0  0  0  0
  186.3720  177.5230  147.6340 C   0  0  0  0  0  2  0  0  0  0  0  0
  192.1050  175.1010  147.1960 O   0  0  0  0  0  0  0  0  0  0  0  0
  192.4800  175.1720  145.9960 C   0  0  0  0  0  0  0  0  0  0  0  0
  191.5470  175.5060  144.9640 N   0  0  0  0  0  2  0  0  0  0  0  0
  194.4410  175.1100  142.7640 C   0  0  1  0  0  3  0  0  0  0  0  0
  194.5790  176.1500  145.0750 C   0  0  0  0  0  2  0  0  0  0  0  0
  193.3910  172.5510  145.2870 C   0  0  0  0  0  1  0  0  0  0  0  0
  193.5200  176.0630  142.0290 C   0  0  0  0  0  1  0  0  0  0  0  0
  195.3170  175.8770  143.7640 C   0  0  0  0  0  2  0  0  0  0  0  0
  194.1050  173.7120  144.7730 N   0  0  0  0  0  0  0  0  0  0  0  0
  193.9190  174.8860  145.6550 C   0  0  2  0  0  3  0  0  0  0  0  0
  193.6130  174.0020  143.4260 C   0  0  0  0  0  2  0  0  0  0  0  0
  1 14  1  0  0  0  0
  2  5  1  6  0  0  0
  2 13  1  0  0  0  0
  2  3  1  0  0  0  0
  3  7  1  6  0  0  0
  3 19  1  0  0  0  0
  4 15  1  0  0  0  0
  6  1  1  0  0  0  0
  6 17  1  0  0  0  0
  7  4  2  0  0  0  0
  8 23  1  6  0  0  0
  9  1  2  0  0  0  0
 11  4  1  0  0  0  0
 12  8  1  0  0  0  0
 13  8  1  0  0  0  0
 13 18  1  1  0  0  0
 14  5  2  0  0  0  0
 15 20  1  0  0  0  0
 16 17  1  6  0  0  0
 16  5  1  0  0  0  0
 16 12  1  0  0  0  0
 18 10  1  0  0  0  0
 19 10  1  1  0  0  0
 19 20  1  0  0  0  0
 22 21  2  0  0  0  0
 23 22  1  0  0  0  0
 24 27  1  1  0  0  0
 24 31  1  0  0  0  0
 24 28  1  0  0  0  0
 25 30  1  0  0  0  0
 28 25  1  0  0  0  0
 29 26  1  0  0  0  0
 29 30  1  0  0  0  0
 30 22  1  6  0  0  0
 31 29  1  0  0  0  0
M  END
>  <MODEL>
1

>  <REMARK>
 VINA RESULT:      -8.4      0.000      0.000
  Name = 
  2 active torsions:
  status: ('A' for Active; 'I' for Inactive)
    1  A    between atoms: C_5  and  C_30
    2  A    between atoms: C_10  and  N_16
                            x       y       z     vdW  Elec       q    Type
                         _______ _______ _______ _____ _____    ______ ____

>  <TORSDO>
F 2

$$$$
=
 OpenBabel11112417013D

 31 35  0  0  1  0  0  0  0  0999 V2000
  186.7070  177.6090  140.8010 C   0  0  0  0  0  0  0  0  0  0  0  0
  188.2720  177.8350  144.2290 C   0  0  2  0  0  3  0  0  0  0  0  0
  187.2240  177.3930  145.2560 C   0  0  2  0  0  3  0  0  0  0  0  0
  184.9700  178.1360  145.9880 C   0  0  0  0  0  0  0  0  0  0  0  0
  187.9380  177.3480  142.8440 C   0  0  0  0  0  0  0  0  0  0  0  0
  187.2980  176.3760  140.1860 C   0  0  0  0  0  2  0  0  0  0  0  0
  185.8590  177.9700  145.0010 C   0  0  0  0  0  3  0  0  0  0  0  0
  189.9860  175.8480  144.3970 C   0  0  2  0  0  3  0  0  0  0  0  0
  185.8990  178.3090  140.1380 O   0  0  0  0  0  0  0  0  0  0  0  0
  189.0680  177.1380  146.8830 C   0  0  0  0  0  2  0  0  0  0  0  0
  183.7070  178.6220  145.6800 O   0  0  0  0  0  1  0  0  0  0  0  0
  189.0170  175.1860  143.4090 C   0  0  0  0  0  2  0  0  0  0  0  0
  189.6740  177.3360  144.6670 C   0  0  2  0  0  3  0  0  0  0  0  0
  187.0840  178.0160  142.1230 N   0  0  0  0  0  0  0  0  0  0  0  0
  185.3190  177.8820  147.4380 C   0  0  0  0  0  2  0  0  0  0  0  0
  188.6390  176.1320  142.2780 C   0  0  1  0  0  3  0  0  0  0  0  0
  187.7380  175.4100  141.2820 C   0  0  0  0  0  2  0  0  0  0  0  0
  189.9970  177.7180  145.9920 O   0  0  0  0  0  0  0  0  0  0  0  0
  187.6900  177.7450  146.6640 C   0  0  2  0  0  3  0  0  0  0  0  0
  186.6720  177.1870  147.6440 C   0  0  0  0  0  2  0  0  0  0  0  0
  191.8070  173.7290  145.0220 O   0  0  0  0  0  0  0  0  0  0  0  0
  192.1990  174.6220  144.2250 C   0  0  0  0  0  0  0  0  0  0  0  0
  191.3520  175.7320  143.9090 N   0  0  0  0  0  2  0  0  0  0  0  0
  195.2490  172.5150  144.9640 C   0  0  1  0  0  3  0  0  0  0  0  0
  193.7420  173.0920  143.0050 C   0  0  0  0  0  2  0  0  0  0  0  0
  194.4370  176.1660  145.1200 C   0  0  0  0  0  1  0  0  0  0  0  0
  194.4830  171.4040  145.6530 C   0  0  0  0  0  1  0  0  0  0  0  0
  195.0530  172.4380  143.4440 C   0  0  0  0  0  2  0  0  0  0  0  0
  194.6750  174.8720  144.4960 N   0  0  0  0  0  0  0  0  0  0  0  0
  193.5610  174.5030  143.5940 C   0  0  2  0  0  3  0  0  0  0  0  0
  194.8310  173.8690  145.5500 C   0  0  0  0  0  2  0  0  0  0  0  0
  1 14  1  0  0  0  0
  2  5  1  6  0  0  0
  2 13  1  0  0  0  0
  2  3  1  0  0  0  0
  3  7  1  6  0  0  0
  3 19  1  0  0  0  0
  4 15  1  0  0  0  0
  6  1  1  0  0  0  0
  6 17  1  0  0  0  0
  7  4  2  0  0  0  0
  8 23  1  6  0  0  0
  8 13  1  0  0  0  0
  9  1  2  0  0  0  0
 11  4  1  0  0  0  0
 12  8  1  0  0  0  0
 13 18  1  1  0  0  0
 14  5  2  0  0  0  0
 15 20  1  0  0  0  0
 16 17  1  6  0  0  0
 16  5  1  0  0  0  0
 16 12  1  0  0  0  0
 18 10  1  0  0  0  0
 19 10  1  1  0  0  0
 19 20  1  0  0  0  0
 22 21  2  0  0  0  0
 23 22  1  0  0  0  0
 24 31  1  0  0  0  0
 24 27  1  1  0  0  0
 25 28  1  0  0  0  0
 25 30  1  0  0  0  0
 28 24  1  0  0  0  0
 29 26  1  0  0  0  0
 29 31  1  0  0  0  0
 30 22  1  1  0  0  0
 30 29  1  0  0  0  0
M  END
>  <MODEL>
2

>  <REMARK>
 VINA RESULT:      -8.2      1.094      2.002
  Name = 
  2 active torsions:
  status: ('A' for Active; 'I' for Inactive)
    1  A    between atoms: C_5  and  C_30
    2  A    between atoms: C_10  and  N_16
                            x       y       z     vdW  Elec       q    Type
                         _______ _______ _______ _____ _____    ______ ____

>  <TORSDO>
F 2

$$$$
=
 OpenBabel11112417013D

 31 35  0  0  1  0  0  0  0  0999 V2000
  185.2130  177.5290  146.8070 C   0  0  0  0  0  0  0  0  0  0  0  0
  186.9350  176.0820  143.7750 C   0  0  2  0  0  3  0  0  0  0  0  0
  186.7410  177.0600  142.6100 C   0  0  2  0  0  3  0  0  0  0  0  0
  184.8340  178.0250  141.3460 C   0  0  0  0  0  0  0  0  0  0  0  0
  186.7150  176.7490  145.1070 C   0  0  0  0  0  0  0  0  0  0  0  0
  186.3220  178.0530  147.6680 C   0  0  0  0  0  2  0  0  0  0  0  0
  185.3390  177.5950  142.5090 C   0  0  0  0  0  3  0  0  0  0  0  0
  189.5180  176.3340  144.1960 C   0  0  2  0  0  3  0  0  0  0  0  0
  184.0210  177.6170  147.2020 O   0  0  0  0  0  0  0  0  0  0  0  0
  188.5720  175.8790  141.4420 C   0  0  0  0  0  2  0  0  0  0  0  0
  183.5530  178.5600  141.3280 O   0  0  0  0  0  1  0  0  0  0  0  0
  189.0670  177.5390  145.0310 C   0  0  0  0  0  2  0  0  0  0  0  0
  188.3510  175.4540  143.6980 C   0  0  2  0  0  3  0  0  0  0  0  0
  185.5020  176.8950  145.5530 N   0  0  0  0  0  0  0  0  0  0  0  0
  185.5820  177.8820  140.0390 C   0  0  0  0  0  2  0  0  0  0  0  0
  187.9010  177.1820  145.9420 C   0  0  1  0  0  3  0  0  0  0  0  0
  187.5360  178.3840  146.8060 C   0  0  0  0  0  2  0  0  0  0  0  0
  188.6210  174.8750  142.4340 O   0  0  0  0  0  0  0  0  0  0  0  0
  187.1490  176.3990  141.2990 C   0  0  2  0  0  3  0  0  0  0  0  0
  187.0440  177.4430  140.2000 C   0  0  0  0  0  2  0  0  0  0  0  0
  192.3740  176.3800  143.9930 O   0  0  0  0  0  0  0  0  0  0  0  0
  191.8590  175.6120  144.8490 C   0  0  0  0  0  0  0  0  0  0  0  0
  190.4370  175.5090  144.9670 N   0  0  0  0  0  2  0  0  0  0  0  0
  195.5070  174.6250  144.7200 C   0  0  1  0  0  3  0  0  0  0  0  0
  193.8670  175.7180  146.3200 C   0  0  0  0  0  2  0  0  0  0  0  0
  192.2470  172.7940  144.5220 C   0  0  0  0  0  1  0  0  0  0  0  0
  195.9290  175.7840  143.8400 C   0  0  0  0  0  1  0  0  0  0  0  0
  195.2600  175.1060  146.1560 C   0  0  0  0  0  2  0  0  0  0  0  0
  193.3040  173.5870  145.1360 N   0  0  0  0  0  0  0  0  0  0  0  0
  192.7560  174.8140  145.7580 C   0  0  2  0  0  3  0  0  0  0  0  0
  194.2840  173.9320  144.1060 C   0  0  0  0  0  2  0  0  0  0  0  0
  1  9  2  0  0  0  0
  1  6  1  0  0  0  0
  2  5  1  1  0  0  0
  3  7  1  6  0  0  0
  3  2  1  0  0  0  0
  4  7  2  0  0  0  0
  5 14  2  0  0  0  0
  5 16  1  0  0  0  0
  8 23  1  1  0  0  0
  8 12  1  0  0  0  0
 10 18  1  0  0  0  0
 11  4  1  0  0  0  0
 13 18  1  6  0  0  0
 13  2  1  0  0  0  0
 13  8  1  0  0  0  0
 14  1  1  0  0  0  0
 15 20  1  0  0  0  0
 15  4  1  0  0  0  0
 16 12  1  6  0  0  0
 16 17  1  0  0  0  0
 17  6  1  0  0  0  0
 19 20  1  6  0  0  0
 19 10  1  0  0  0  0
 19  3  1  0  0  0  0
 21 22  2  0  0  0  0
 22 23  1  0  0  0  0
 24 27  1  6  0  0  0
 24 28  1  0  0  0  0
 26 29  1  0  0  0  0
 28 25  1  0  0  0  0
 29 30  1  0  0  0  0
 30 22  1  6  0  0  0
 30 25  1  0  0  0  0
 31 24  1  0  0  0  0
 31 29  1  0  0  0  0
M  END
>  <MODEL>
3

>  <REMARK>
 VINA RESULT:      -8.1      1.886      4.193
  Name = 
  2 active torsions:
  status: ('A' for Active; 'I' for Inactive)
    1  A    between atoms: C_5  and  C_30
    2  A    between atoms: C_10  and  N_16
                            x       y       z     vdW  Elec       q    Type
                         _______ _______ _______ _____ _____    ______ ____

>  <TORSDO>
F 2

$$$$
=
 OpenBabel11112417013D

 31 35  0  0  1  0  0  0  0  0999 V2000
  191.1130  171.1230  142.6180 C   0  0  0  0  0  0  0  0  0  0  0  0
  191.2860  173.6480  145.4190 C   0  0  2  0  0  3  0  0  0  0  0  0
  192.6080  174.4120  145.2850 C   0  0  2  0  0  3  0  0  0  0  0  0
  195.0310  173.8710  145.3210 C   0  0  0  0  0  0  0  0  0  0  0  0
  190.8970  172.9720  144.1310 C   0  0  0  0  0  0  0  0  0  0  0  0
  190.1440  171.7030  141.6330 C   0  0  0  0  0  2  0  0  0  0  0  0
  193.7830  173.5220  144.9870 C   0  0  0  0  0  3  0  0  0  0  0  0
  189.5660  175.5440  144.8180 C   0  0  2  0  0  3  0  0  0  0  0  0
  191.6320  169.9980  142.3940 O   0  0  0  0  0  0  0  0  0  0  0  0
  191.6640  176.1170  146.8060 C   0  0  0  0  0  2  0  0  0  0  0  0
  196.0800  173.0320  144.9680 O   0  0  0  0  0  1  0  0  0  0  0  0
  189.8900  175.1140  143.3820 C   0  0  0  0  0  2  0  0  0  0  0  0
  190.1710  174.6150  145.8940 C   0  0  2  0  0  3  0  0  0  0  0  0
  191.4250  171.8210  143.8310 N   0  0  0  0  0  0  0  0  0  0  0  0
  195.3330  175.1110  146.1320 C   0  0  0  0  0  2  0  0  0  0  0  0
  189.8550  173.6000  143.2310 C   0  0  1  0  0  3  0  0  0  0  0  0
  190.1070  173.2210  141.7750 C   0  0  0  0  0  2  0  0  0  0  0  0
  190.5270  175.3220  147.0690 O   0  0  0  0  0  0  0  0  0  0  0  0
  192.8710  175.2270  146.5460 C   0  0  2  0  0  3  0  0  0  0  0  0
  194.1300  176.0470  146.3150 C   0  0  0  0  0  2  0  0  0  0  0  0
  187.9330  177.8620  144.4200 O   0  0  0  0  0  0  0  0  0  0  0  0
  187.3590  176.7900  144.7470 C   0  0  0  0  0  0  0  0  0  0  0  0
  188.1240  175.6080  145.0050 N   0  0  0  0  0  2  0  0  0  0  0  0
  184.6920  179.4630  144.9480 C   0  0  1  0  0  3  0  0  0  0  0  0
  185.2360  177.3900  143.5880 C   0  0  0  0  0  2  0  0  0  0  0  0
  185.9950  176.8250  147.2640 C   0  0  0  0  0  1  0  0  0  0  0  0
  185.5210  180.5320  144.2640 C   0  0  0  0  0  1  0  0  0  0  0  0
  184.1790  178.4440  143.9220 C   0  0  0  0  0  2  0  0  0  0  0  0
  185.3250  177.3640  146.0890 N   0  0  0  0  0  0  0  0  0  0  0  0
  185.8560  176.7580  144.8470 C   0  0  2  0  0  3  0  0  0  0  0  0
  185.5140  178.8150  146.0700 C   0  0  0  0  0  2  0  0  0  0  0  0
  1 14  1  0  0  0  0
  2  5  1  6  0  0  0
  2 13  1  0  0  0  0
  3  7  1  1  0  0  0
  3  2  1  0  0  0  0
  3 19  1  0  0  0  0
  4 15  1  0  0  0  0
  6 17  1  0  0  0  0
  6  1  1  0  0  0  0
  7  4  2  0  0  0  0
  8 23  1  6  0  0  0
  8 13  1  0  0  0  0
  9  1  2  0  0  0  0
 10 18  1  0  0  0  0
 11  4  1  0  0  0  0
 12  8  1  0  0  0  0
 13 18  1  1  0  0  0
 14  5  2  0  0  0  0
 15 20  1  0  0  0  0
 16 17  1  6  0  0  0
 16 12  1  0  0  0  0
 16  5  1  0  0  0  0
 19 20  1  6  0  0  0
 19 10  1  0  0  0  0
 21 22  2  0  0  0  0
 22 23  1  0  0  0  0
 24 27  1  6  0  0  0
 24 31  1  0  0  0  0
 25 28  1  0  0  0  0
 25 30  1  0  0  0  0
 28 24  1  0  0  0  0
 29 26  1  0  0  0  0
 30 22  1  6  0  0  0
 30 29  1  0  0  0  0
 31 29  1  0  0  0  0
M  END
>  <MODEL>
4

>  <REMARK>
 VINA RESULT:      -7.9      2.582      7.516
  Name = 
  2 active torsions:
  status: ('A' for Active; 'I' for Inactive)
    1  A    between atoms: C_5  and  C_30
    2  A    between atoms: C_10  and  N_16
                            x       y       z     vdW  Elec       q    Type
                         _______ _______ _______ _____ _____    ______ ____

>  <TORSDO>
F 2

$$$$
=
 OpenBabel11112417013D

 31 35  0  0  1  0  0  0  0  0999 V2000
  188.3870  174.5410  140.0130 C   0  0  0  0  0  0  0  0  0  0  0  0
  188.9310  176.7510  143.0240 C   0  0  2  0  0  3  0  0  0  0  0  0
  187.6220  176.7940  143.8210 C   0  0  2  0  0  3  0  0  0  0  0  0
  185.2790  177.5190  143.4310 C   0  0  0  0  0  0  0  0  0  0  0  0
  188.9830  175.5650  142.0990 C   0  0  0  0  0  0  0  0  0  0  0  0
  189.0860  173.2570  140.3440 C   0  0  0  0  0  2  0  0  0  0  0  0
  186.4040  176.9680  142.9570 C   0  0  0  0  0  3  0  0  0  0  0  0
  190.4620  175.3950  144.6770 C   0  0  2  0  0  3  0  0  0  0  0  0
  187.8210  174.6720  138.8970 O   0  0  0  0  0  0  0  0  0  0  0  0
  188.9250  177.6790  145.7270 C   0  0  0  0  0  2  0  0  0  0  0  0
  184.1700  177.6010  142.5990 O   0  0  0  0  0  1  0  0  0  0  0  0
  189.7890  174.1920  144.0030 C   0  0  0  0  0  2  0  0  0  0  0  0
  190.1360  176.7450  144.0010 C   0  0  2  0  0  3  0  0  0  0  0  0
  188.3900  175.6320  140.9430 N   0  0  0  0  0  0  0  0  0  0  0  0
  185.1970  178.1210  144.8160 C   0  0  0  0  0  2  0  0  0  0  0  0
  189.7750  174.3350  142.4880 C   0  0  1  0  0  3  0  0  0  0  0  0
  189.1680  173.0860  141.8580 C   0  0  0  0  0  2  0  0  0  0  0  0
  190.0860  177.8100  144.9330 O   0  0  0  0  0  0  0  0  0  0  0  0
  187.6850  177.8970  144.8720 C   0  0  2  0  0  3  0  0  0  0  0  0
  186.4140  177.8210  145.7020 C   0  0  0  0  0  2  0  0  0  0  0  0
  192.0590  174.9600  147.0130 O   0  0  0  0  0  0  0  0  0  0  0  0
  192.6410  174.9540  145.8960 C   0  0  0  0  0  0  0  0  0  0  0  0
  191.9060  175.2120  144.6950 N   0  0  0  0  0  2  0  0  0  0  0  0
  195.1850  174.9080  143.1000 C   0  0  1  0  0  3  0  0  0  0  0  0
  194.8840  175.9220  145.4070 C   0  0  0  0  0  2  0  0  0  0  0  0
  193.6510  172.3320  145.3430 C   0  0  0  0  0  1  0  0  0  0  0  0
  194.4300  175.8770  142.2140 C   0  0  0  0  0  1  0  0  0  0  0  0
  195.8590  175.6550  144.2590 C   0  0  0  0  0  2  0  0  0  0  0  0
  194.4590  173.4910  144.9900 N   0  0  0  0  0  0  0  0  0  0  0  0
  194.1160  174.6580  145.8340 C   0  0  2  0  0  3  0  0  0  0  0  0
  194.2370  173.8010  143.5780 C   0  0  0  0  0  2  0  0  0  0  0  0
  1  6  1  0  0  0  0
  1 14  1  0  0  0  0
  2  5  1  1  0  0  0
  2  3  1  0  0  0  0
  2 13  1  0  0  0  0
  3  7  1  6  0  0  0
  3 19  1  0  0  0  0
  4 15  1  0  0  0  0
  5 16  1  0  0  0  0
  6 17  1  0  0  0  0
  7  4  2  0  0  0  0
  8 23  1  6  0  0  0
  9  1  2  0  0  0  0
 11  4  1  0  0  0  0
 12  8  1  0  0  0  0
 13  8  1  0  0  0  0
 13 18  1  1  0  0  0
 14  5  2  0  0  0  0
 15 20  1  0  0  0  0
 16 17  1  6  0  0  0
 16 12  1  0  0  0  0
 18 10  1  0  0  0  0
 19 20  1  1  0  0  0
 19 10  1  0  0  0  0
 22 21  2  0  0  0  0
 23 22  1  0  0  0  0
 24 27  1  1  0  0  0
 24 31  1  0  0  0  0
 24 28  1  0  0  0  0
 25 30  1  0  0  0  0
 28 25  1  0  0  0  0
 29 26  1  0  0  0  0
 29 30  1  0  0  0  0
 30 22  1  6  0  0  0
 31 29  1  0  0  0  0
M  END
>  <MODEL>
5

>  <REMARK>
 VINA RESULT:      -7.8      1.319      1.615
  Name = 
  2 active torsions:
  status: ('A' for Active; 'I' for Inactive)
    1  A    between atoms: C_5  and  C_30
    2  A    between atoms: C_10  and  N_16
                            x       y       z     vdW  Elec       q    Type
                         _______ _______ _______ _____ _____    ______ ____

>  <TORSDO>
F 2

$$$$
=
 OpenBabel11112417013D

 31 35  0  0  1  0  0  0  0  0999 V2000
  186.7620  178.1120  143.1340 C   0  0  0  0  0  0  0  0  0  0  0  0
  190.2360  176.7830  143.7770 C   0  0  2  0  0  3  0  0  0  0  0  0
  190.3270  176.3970  145.2580 C   0  0  2  0  0  3  0  0  0  0  0  0
  190.1140  177.5410  147.4510 C   0  0  0  0  0  0  0  0  0  0  0  0
  188.8080  176.8720  143.3090 C   0  0  0  0  0  0  0  0  0  0  0  0
  186.0520  177.0070  142.4120 C   0  0  0  0  0  2  0  0  0  0  0  0
  189.7180  177.4180  146.1790 C   0  0  0  0  0  3  0  0  0  0  0  0
  190.3470  174.4110  142.6470 C   0  0  2  0  0  3  0  0  0  0  0  0
  186.1630  179.1960  143.3570 O   0  0  0  0  0  0  0  0  0  0  0  0
  192.3540  175.0980  144.6930 C   0  0  0  0  0  2  0  0  0  0  0  0
  189.4750  178.4650  148.2670 O   0  0  0  0  0  1  0  0  0  0  0  0
  188.8410  174.4170  142.9390 C   0  0  0  0  0  2  0  0  0  0  0  0
  191.0360  175.7660  142.9230 C   0  0  2  0  0  3  0  0  0  0  0  0
  188.1280  177.9580  143.5390 N   0  0  0  0  0  0  0  0  0  0  0  0
  191.2830  176.7610  148.0120 C   0  0  0  0  0  2  0  0  0  0  0  0
  188.1970  175.7320  142.5230 C   0  0  1  0  0  3  0  0  0  0  0  0
  186.6910  175.6660  142.7600 C   0  0  0  0  0  2  0  0  0  0  0  0
  192.3680  175.6040  143.3750 O   0  0  0  0  0  0  0  0  0  0  0  0
  191.7790  176.1390  145.6430 C   0  0  2  0  0  3  0  0  0  0  0  0
  191.7990  175.6540  147.0830 C   0  0  0  0  0  2  0  0  0  0  0  0
  192.1970  172.4150  141.7570 O   0  0  0  0  0  0  0  0  0  0  0  0
  191.4940  172.9930  140.8860 C   0  0  0  0  0  0  0  0  0  0  0  0
  190.5840  174.0330  141.2630 N   0  0  0  0  0  2  0  0  0  0  0  0
  189.0910  172.9700  137.9670 C   0  0  1  0  0  3  0  0  0  0  0  0
  191.4270  173.7910  138.5270 C   0  0  0  0  0  2  0  0  0  0  0  0
  190.8160  170.3520  140.0130 C   0  0  0  0  0  1  0  0  0  0  0  0
  188.2140  174.0830  138.5050 C   0  0  0  0  0  1  0  0  0  0  0  0
  190.4050  173.5420  137.4170 C   0  0  0  0  0  2  0  0  0  0  0  0
  190.7030  171.4590  139.0730 N   0  0  0  0  0  0  0  0  0  0  0  0
  191.6080  172.5690  139.4460 C   0  0  2  0  0  3  0  0  0  0  0  0
  189.3140  171.9160  139.0600 C   0  0  0  0  0  2  0  0  0  0  0  0
  1  9  2  0  0  0  0
  1 14  1  0  0  0  0
  2  5  1  6  0  0  0
  2  3  1  0  0  0  0
  3 19  1  0  0  0  0
  3  7  1  1  0  0  0
  4 15  1  0  0  0  0
  4 11  1  0  0  0  0
  5 14  2  0  0  0  0
  6 17  1  0  0  0  0
  6  1  1  0  0  0  0
  7  4  2  0  0  0  0
  8 23  1  6  0  0  0
  8 13  1  0  0  0  0
  8 12  1  0  0  0  0
 13 18  1  1  0  0  0
 13  2  1  0  0  0  0
 16 17  1  1  0  0  0
 16 12  1  0  0  0  0
 16  5  1  0  0  0  0
 18 10  1  0  0  0  0
 19 10  1  6  0  0  0
 19 20  1  0  0  0  0
 20 15  1  0  0  0  0
 22 23  1  0  0  0  0
 22 21  2  0  0  0  0
 24 27  1  1  0  0  0
 24 31  1  0  0  0  0
 25 30  1  0  0  0  0
 28 24  1  0  0  0  0
 28 25  1  0  0  0  0
 29 30  1  0  0  0  0
 29 26  1  0  0  0  0
 30 22  1  1  0  0  0
 31 29  1  0  0  0  0
M  END
>  <MODEL>
6

>  <REMARK>
 VINA RESULT:      -7.4      3.145      5.076
  Name = 
  2 active torsions:
  status: ('A' for Active; 'I' for Inactive)
    1  A    between atoms: C_5  and  C_30
    2  A    between atoms: C_10  and  N_16
                            x       y       z     vdW  Elec       q    Type
                         _______ _______ _______ _____ _____    ______ ____

>  <TORSDO>
F 2

$$$$
=
 OpenBabel11112417013D

 31 35  0  0  1  0  0  0  0  0999 V2000
  191.2360  176.2820  147.1370 C   0  0  0  0  0  0  0  0  0  0  0  0
  188.7280  175.4840  144.4300 C   0  0  2  0  0  3  0  0  0  0  0  0
  187.9100  176.7520  144.1560 C   0  0  2  0  0  3  0  0  0  0  0  0
  186.3950  178.2490  145.4330 C   0  0  0  0  0  0  0  0  0  0  0  0
  190.0280  175.7970  145.1210 C   0  0  0  0  0  0  0  0  0  0  0  0
  192.5460  176.4160  146.4230 C   0  0  0  0  0  2  0  0  0  0  0  0
  187.4810  177.4660  145.4080 C   0  0  0  0  0  3  0  0  0  0  0  0
  190.0880  175.2890  142.1890 C   0  0  2  0  0  3  0  0  0  0  0  0
  191.1920  176.4120  148.3880 O   0  0  0  0  0  0  0  0  0  0  0  0
  187.1740  175.7020  142.0420 C   0  0  0  0  0  2  0  0  0  0  0  0
  186.0820  178.9260  146.6040 O   0  0  0  0  0  1  0  0  0  0  0  0
  191.0230  176.2770  142.8980 C   0  0  0  0  0  2  0  0  0  0  0  0
  188.9760  174.7270  143.1000 C   0  0  2  0  0  3  0  0  0  0  0  0
  190.0390  175.9720  146.4110 N   0  0  0  0  0  0  0  0  0  0  0  0
  185.4560  178.3640  144.2520 C   0  0  0  0  0  2  0  0  0  0  0  0
  191.3160  175.8420  144.3270 C   0  0  1  0  0  3  0  0  0  0  0  0
  192.3070  176.8080  144.9680 C   0  0  0  0  0  2  0  0  0  0  0  0
  187.7790  174.4740  142.3870 O   0  0  0  0  0  0  0  0  0  0  0  0
  186.6960  176.4150  143.2980 C   0  0  2  0  0  3  0  0  0  0  0  0
  185.9870  177.7180  142.9650 C   0  0  0  0  0  2  0  0  0  0  0  0
  189.6090  174.0080  139.6740 O   0  0  0  0  0  0  0  0  0  0  0  0
  190.5920  173.6130  140.3550 C   0  0  0  0  0  0  0  0  0  0  0  0
  190.8570  174.1810  141.6410 N   0  0  0  0  0  2  0  0  0  0  0  0
  190.3020  171.1810  137.4740 C   0  0  1  0  0  3  0  0  0  0  0  0
  191.9210  172.9210  138.3650 C   0  0  0  0  0  2  0  0  0  0  0  0
  190.4410  170.8820  141.2040 C   0  0  0  0  0  1  0  0  0  0  0  0
  189.3160  172.0220  136.6870 C   0  0  0  0  0  1  0  0  0  0  0  0
  191.7130  171.7750  137.3730 C   0  0  0  0  0  2  0  0  0  0  0  0
  190.9290  171.1810  139.8640 N   0  0  0  0  0  0  0  0  0  0  0  0
  191.4970  172.5460  139.7960 C   0  0  2  0  0  3  0  0  0  0  0  0
  189.8170  171.0430  138.9240 C   0  0  0  0  0  2  0  0  0  0  0  0
  1  9  2  0  0  0  0
  2  5  1  6  0  0  0
  3  2  1  0  0  0  0
  3  7  1  1  0  0  0
  4 11  1  0  0  0  0
  5 14  2  0  0  0  0
  6  1  1  0  0  0  0
  7  4  2  0  0  0  0
  8 23  1  1  0  0  0
  8 12  1  0  0  0  0
  8 13  1  0  0  0  0
 10 18  1  0  0  0  0
 13 18  1  6  0  0  0
 13  2  1  0  0  0  0
 14  1  1  0  0  0  0
 15  4  1  0  0  0  0
 16 12  1  6  0  0  0
 16 17  1  0  0  0  0
 16  5  1  0  0  0  0
 17  6  1  0  0  0  0
 19 10  1  6  0  0  0
 19  3  1  0  0  0  0
 20 19  1  0  0  0  0
 20 15  1  0  0  0  0
 21 22  2  0  0  0  0
 22 23  1  0  0  0  0
 24 27  1  6  0  0  0
 24 31  1  0  0  0  0
 25 30  1  0  0  0  0
 28 24  1  0  0  0  0
 28 25  1  0  0  0  0
 29 26  1  0  0  0  0
 30 29  1  0  0  0  0
 30 22  1  6  0  0  0
 31 29  1  0  0  0  0
M  END
>  <MODEL>
7

>  <REMARK>
 VINA RESULT:      -7.4      3.258      5.548
  Name = 
  2 active torsions:
  status: ('A' for Active; 'I' for Inactive)
    1  A    between atoms: C_5  and  C_30
    2  A    between atoms: C_10  and  N_16
                            x       y       z     vdW  Elec       q    Type
                         _______ _______ _______ _____ _____    ______ ____

>  <TORSDO>
F 2

$$$$
=
 OpenBabel11112417013D

 31 35  0  0  1  0  0  0  0  0999 V2000
  189.1740  173.3710  140.6740 C   0  0  0  0  0  0  0  0  0  0  0  0
  190.7340  174.5230  143.9130 C   0  0  2  0  0  3  0  0  0  0  0  0
  192.0460  175.2400  143.5760 C   0  0  2  0  0  3  0  0  0  0  0  0
  194.2000  174.6690  142.4810 C   0  0  0  0  0  0  0  0  0  0  0  0
  189.8180  174.4450  142.7210 C   0  0  0  0  0  0  0  0  0  0  0  0
  188.0490  174.3290  140.4240 C   0  0  0  0  0  2  0  0  0  0  0  0
  192.8710  174.5200  142.5460 C   0  0  0  0  0  3  0  0  0  0  0  0
  189.2800  176.5440  144.7620 C   0  0  2  0  0  3  0  0  0  0  0  0
  189.3770  172.4240  139.8700 O   0  0  0  0  0  0  0  0  0  0  0  0
  191.9950  176.1970  145.8550 C   0  0  0  0  0  2  0  0  0  0  0  0
  194.9000  174.0200  141.4720 O   0  0  0  0  0  1  0  0  0  0  0  0
  189.0160  176.7310  143.2620 C   0  0  0  0  0  2  0  0  0  0  0  0
  190.0370  175.2410  145.0990 C   0  0  2  0  0  3  0  0  0  0  0  0
  189.9980  173.5040  141.8400 N   0  0  0  0  0  0  0  0  0  0  0  0
  194.9750  175.4600  143.5120 C   0  0  0  0  0  2  0  0  0  0  0  0
  188.6620  175.4130  142.5880 C   0  0  1  0  0  3  0  0  0  0  0  0
  188.3340  175.6570  141.1190 C   0  0  0  0  0  2  0  0  0  0  0  0
  190.8910  175.3950  146.2180 O   0  0  0  0  0  0  0  0  0  0  0  0
  192.8620  175.4610  144.8450 C   0  0  2  0  0  3  0  0  0  0  0  0
  194.0930  176.2700  144.4710 C   0  0  0  0  0  2  0  0  0  0  0  0
  188.8650  177.7400  147.3290 O   0  0  0  0  0  0  0  0  0  0  0  0
  187.8710  177.2180  146.7580 C   0  0  0  0  0  0  0  0  0  0  0  0
  188.0230  176.5640  145.4950 N   0  0  0  0  0  2  0  0  0  0  0  0
  184.6450  178.9780  145.8700 C   0  0  1  0  0  3  0  0  0  0  0  0
  185.4570  176.6580  146.5000 C   0  0  0  0  0  2  0  0  0  0  0  0
  187.1890  179.3050  148.5970 C   0  0  0  0  0  1  0  0  0  0  0  0
  184.9260  179.0330  144.3820 C   0  0  0  0  0  1  0  0  0  0  0  0
  184.2390  177.5590  146.2870 C   0  0  0  0  0  2  0  0  0  0  0  0
  186.1320  178.6740  147.8190 N   0  0  0  0  0  0  0  0  0  0  0  0
  186.5160  177.3040  147.4100 C   0  0  2  0  0  3  0  0  0  0  0  0
  185.8630  179.5000  146.6430 C   0  0  0  0  0  2  0  0  0  0  0  0
  1 14  1  0  0  0  0
  2  5  1  6  0  0  0
  2 13  1  0  0  0  0
  3  7  1  6  0  0  0
  3  2  1  0  0  0  0
  3 19  1  0  0  0  0
  4  7  2  0  0  0  0
  4 15  1  0  0  0  0
  6  1  1  0  0  0  0
  6 17  1  0  0  0  0
  8 13  1  0  0  0  0
  8 23  1  1  0  0  0
  9  1  2  0  0  0  0
 10 18  1  0  0  0  0
 11  4  1  0  0  0  0
 12  8  1  0  0  0  0
 13 18  1  1  0  0  0
 14  5  2  0  0  0  0
 15 20  1  0  0  0  0
 16 17  1  6  0  0  0
 16  5  1  0  0  0  0
 16 12  1  0  0  0  0
 19 20  1  6  0  0  0
 19 10  1  0  0  0  0
 22 21  2  0  0  0  0
 23 22  1  0  0  0  0
 24 27  1  6  0  0  0
 24 28  1  0  0  0  0
 24 31  1  0  0  0  0
 25 30  1  0  0  0  0
 28 25  1  0  0  0  0
 29 26  1  0  0  0  0
 30 22  1  6  0  0  0
 30 29  1  0  0  0  0
 31 29  1  0  0  0  0
M  END
>  <MODEL>
8

>  <REMARK>
 VINA RESULT:      -7.2      2.389      7.066
  Name = 
  2 active torsions:
  status: ('A' for Active; 'I' for Inactive)
    1  A    between atoms: C_5  and  C_30
    2  A    between atoms: C_10  and  N_16
                            x       y       z     vdW  Elec       q    Type
                         _______ _______ _______ _____ _____    ______ ____

>  <TORSDO>
F 2

$$$$
=
 OpenBabel11112417013D

 31 35  0  0  1  0  0  0  0  0999 V2000
  191.2140  176.3050  147.1260 C   0  0  0  0  0  0  0  0  0  0  0  0
  188.6540  175.5230  144.4640 C   0  0  2  0  0  3  0  0  0  0  0  0
  187.8510  176.8000  144.1920 C   0  0  2  0  0  3  0  0  0  0  0  0
  186.3770  178.3300  145.4780 C   0  0  0  0  0  0  0  0  0  0  0  0
  189.9690  175.8220  145.1330 C   0  0  0  0  0  0  0  0  0  0  0  0
  192.5160  176.4140  146.3910 C   0  0  0  0  0  2  0  0  0  0  0  0
  187.4510  177.5310  145.4440 C   0  0  0  0  0  3  0  0  0  0  0  0
  189.9770  175.2900  142.2040 C   0  0  2  0  0  3  0  0  0  0  0  0
  191.1910  176.4450  148.3760 O   0  0  0  0  0  0  0  0  0  0  0  0
  187.0680  175.7450  142.0980 C   0  0  0  0  0  2  0  0  0  0  0  0
  186.0920  179.0210  146.6490 O   0  0  0  0  0  1  0  0  0  0  0  0
  190.9380  176.2690  142.8910 C   0  0  0  0  0  2  0  0  0  0  0  0
  188.8710  174.7510  143.1370 C   0  0  2  0  0  3  0  0  0  0  0  0
  190.0020  176.0070  146.4200 N   0  0  0  0  0  0  0  0  0  0  0  0
  185.4220  178.4490  144.3110 C   0  0  0  0  0  2  0  0  0  0  0  0
  191.2450  175.8410  144.3190 C   0  0  1  0  0  3  0  0  0  0  0  0
  192.2600  176.7980  144.9370 C   0  0  0  0  0  2  0  0  0  0  0  0
  187.6600  174.5100  142.4430 O   0  0  0  0  0  0  0  0  0  0  0  0
  186.6190  176.4750  143.3550 C   0  0  2  0  0  3  0  0  0  0  0  0
  185.9250  177.7850  143.0220 C   0  0  0  0  0  2  0  0  0  0  0  0
  189.3460  173.8940  139.7850 O   0  0  0  0  0  0  0  0  0  0  0  0
  190.3780  173.5390  140.4140 C   0  0  0  0  0  0  0  0  0  0  0  0
  190.7210  174.1660  141.6540 N   0  0  0  0  0  2  0  0  0  0  0  0
  194.0950  172.8570  140.5200 C   0  0  1  0  0  3  0  0  0  0  0  0
  191.9080  171.6560  140.9820 C   0  0  0  0  0  2  0  0  0  0  0  0
  191.6360  173.7890  137.8540 C   0  0  0  0  0  1  0  0  0  0  0  0
  194.3350  173.6140  141.8110 C   0  0  0  0  0  1  0  0  0  0  0  0
  193.4200  171.5100  140.8060 C   0  0  0  0  0  2  0  0  0  0  0  0
  192.2580  172.9510  138.8700 N   0  0  0  0  0  0  0  0  0  0  0  0
  191.2560  172.4580  139.8420 C   0  0  2  0  0  3  0  0  0  0  0  0
  193.2880  173.7330  139.5520 C   0  0  0  0  0  2  0  0  0  0  0  0
  1  9  2  0  0  0  0
  2  5  1  6  0  0  0
  3  2  1  0  0  0  0
  3  7  1  1  0  0  0
  4 11  1  0  0  0  0
  5 14  2  0  0  0  0
  6  1  1  0  0  0  0
  7  4  2  0  0  0  0
  8 23  1  1  0  0  0
  8 12  1  0  0  0  0
  8 13  1  0  0  0  0
 10 18  1  0  0  0  0
 13 18  1  6  0  0  0
 13  2  1  0  0  0  0
 14  1  1  0  0  0  0
 15  4  1  0  0  0  0
 16 12  1  6  0  0  0
 16 17  1  0  0  0  0
 16  5  1  0  0  0  0
 17  6  1  0  0  0  0
 19 10  1  6  0  0  0
 19  3  1  0  0  0  0
 20 19  1  0  0  0  0
 20 15  1  0  0  0  0
 21 22  2  0  0  0  0
 22 23  1  0  0  0  0
 24 28  1  0  0  0  0
 24 27  1  1  0  0  0
 26 29  1  0  0  0  0
 28 25  1  0  0  0  0
 29 31  1  0  0  0  0
 29 30  1  0  0  0  0
 30 22  1  1  0  0  0
 30 25  1  0  0  0  0
 31 24  1  0  0  0  0
M  END
>  <MODEL>
9

>  <REMARK>
 VINA RESULT:      -7.2      2.740      5.044
  Name = 
  2 active torsions:
  status: ('A' for Active; 'I' for Inactive)
    1  A    between atoms: C_5  and  C_30
    2  A    between atoms: C_10  and  N_16
                            x       y       z     vdW  Elec       q    Type
                         _______ _______ _______ _____ _____    ______ ____

>  <TORSDO>
F 2

$$$$
