=
 OpenBabel11112417443D

 34 42  0  0  1  0  0  0  0  0999 V2000
  189.1920  175.2270  142.7150 C   0  0  0  0  0  0  0  0  0  0  0  0
  191.4510  174.1790  142.2050 C   0  0  0  0  0  2  0  0  0  0  0  0
  185.1710  178.8400  146.6110 C   0  0  1  0  0  0  0  0  0  0  0  0
  187.2630  176.5450  143.2970 C   0  0  0  0  0  0  0  0  0  0  0  0
  187.2920  177.7940  145.4350 C   0  0  1  0  0  3  0  0  0  0  0  0
  186.6810  179.0370  147.7840 C   0  0  1  0  0  3  0  0  0  0  0  0
  185.3600  179.3740  147.9270 O   0  0  0  0  0  0  0  0  0  0  0  0
  184.1650  178.4060  144.4140 C   0  0  0  0  0  3  0  0  0  0  0  0
  190.6520  174.1820  144.4870 C   0  0  2  0  0  3  0  0  0  0  0  0
  192.9450  175.1560  146.5560 C   0  0  0  0  0  3  0  0  0  0  0  0
  188.1880  176.7350  146.0930 C   0  0  0  0  0  2  0  0  0  0  0  0
  185.4900  178.2670  143.7130 C   0  0  0  0  0  2  0  0  0  0  0  0
  190.1880  175.3170  145.4150 C   0  0  1  0  0  3  0  0  0  0  0  0
  192.5130  173.5310  143.0780 C   0  0  0  0  0  2  0  0  0  0  0  0
  186.3880  177.1900  144.3390 C   0  0  1  0  0  3  0  0  0  0  0  0
  184.0240  178.7050  145.7090 C   0  0  0  0  0  3  0  0  0  0  0  0
  192.9910  175.0400  145.0530 C   0  0  2  0  0  3  0  0  0  0  0  0
  188.3910  175.8200  143.7020 C   0  0  0  0  0  0  0  0  0  0  0  0
  186.4810  178.4650  146.4970 C   0  0  1  0  0  3  0  0  0  0  0  0
  188.6970  175.6080  145.1720 C   0  0  2  0  0  3  0  0  0  0  0  0
  187.7630  176.0670  141.0290 C   0  0  0  0  0  3  0  0  0  0  0  0
  191.8410  175.1300  147.3220 C   0  0  0  0  0  3  0  0  0  0  0  0
  186.9690  176.6400  141.9700 N   0  0  0  0  0  0  0  0  0  0  0  0
  190.4290  174.8870  146.8560 C   0  0  0  0  0  2  0  0  0  0  0  0
  192.1530  173.8570  144.5320 C   0  0  1  0  0  3  0  0  0  0  0  0
  188.8690  175.3710  141.4020 N   0  0  0  0  0  0  0  0  0  0  0  0
  190.3610  174.4960  143.1010 N   0  0  0  0  0  0  0  0  0  0  0  0
  194.3270  174.9190  144.6560 O   0  0  0  0  0  0  0  0  0  0  0  0
  194.7020  176.2080  144.2640 C   0  0  0  0  0  2  0  0  0  0  0  0
  197.7760  175.6850  143.4550 O   0  0  0  0  0  0  0  0  0  0  0  0
  195.8750  174.7200  142.6850 C   0  0  0  0  0  2  0  0  0  0  0  0
  195.5260  176.1420  142.9910 C   0  0  2  0  0  3  0  0  0  0  0  0
  197.3270  174.6600  142.6780 N   0  0  0  0  0  2  0  0  0  0  0  0
  196.8780  176.7430  143.2400 C   0  0  0  0  0  2  0  0  0  0  0  0
  1 27  1  0  0  0  0
  1 18  1  0  0  0  0
  2 14  1  0  0  0  0
  2 27  1  0  0  0  0
  3 16  1  6  0  0  0
  3  6  1  0  0  0  0
  3  7  1  0  0  0  0
  4 18  2  0  0  0  0
  4 15  1  0  0  0  0
  5 11  1  1  0  0  0
  5 19  1  0  0  0  0
  6  7  1  1  0  0  0
  8 16  2  0  0  0  0
  9 27  1  6  0  0  0
  9 25  1  0  0  0  0
  9 13  1  0  0  0  0
 10 22  2  0  0  0  0
 12  8  1  0  0  0  0
 13 24  1  1  0  0  0
 14 25  1  0  0  0  0
 15 12  1  6  0  0  0
 15  5  1  0  0  0  0
 17 28  1  1  0  0  0
 17 10  1  0  0  0  0
 18 20  1  0  0  0  0
 19  3  1  0  0  0  0
 19  6  1  0  0  0  0
 20 13  1  0  0  0  0
 20 11  1  0  0  0  0
 21 26  1  0  0  0  0
 21 23  2  0  0  0  0
 23  4  1  0  0  0  0
 24 22  1  0  0  0  0
 25 17  1  0  0  0  0
 26  1  2  0  0  0  0
 29 28  1  0  0  0  0
 31 32  1  0  0  0  0
 32 34  1  0  0  0  0
 32 29  1  0  0  0  0
 33 31  1  0  0  0  0
 33 30  1  0  0  0  0
 34 30  1  0  0  0  0
M  END
>  <MODEL>
1

>  <REMARK>
 VINA RESULT:      -9.0      0.000      0.000
  Name = 
  3 active torsions:
  status: ('A' for Active; 'I' for Inactive)
    1  A    between atoms: C_17  and  O_28
    2  A    between atoms: O_28  and  C_29
    3  A    between atoms: C_29  and  C_32
                            x       y       z     vdW  Elec       q    Type
                         _______ _______ _______ _____ _____    ______ ____

>  <TORSDO>
F 3

$$$$
=
 OpenBabel11112417443D

 34 42  0  0  1  0  0  0  0  0999 V2000
  189.2550  175.3150  142.7660 C   0  0  0  0  0  0  0  0  0  0  0  0
  191.5430  174.3190  142.2830 C   0  0  0  0  0  2  0  0  0  0  0  0
  185.1080  178.8370  146.6130 C   0  0  1  0  0  0  0  0  0  0  0  0
  187.2900  176.5880  143.3250 C   0  0  0  0  0  0  0  0  0  0  0  0
  187.2650  177.8390  145.4620 C   0  0  1  0  0  3  0  0  0  0  0  0
  186.6000  179.0690  147.8030 C   0  0  1  0  0  3  0  0  0  0  0  0
  185.2690  179.3760  147.9300 O   0  0  0  0  0  0  0  0  0  0  0  0
  184.1370  178.3780  144.4060 C   0  0  0  0  0  3  0  0  0  0  0  0
  190.7190  174.3050  144.5550 C   0  0  2  0  0  3  0  0  0  0  0  0
  192.9650  175.3320  146.6500 C   0  0  0  0  0  3  0  0  0  0  0  0
  188.1780  176.8010  146.1320 C   0  0  0  0  0  2  0  0  0  0  0  0
  185.4730  178.2690  143.7200 C   0  0  0  0  0  2  0  0  0  0  0  0
  190.2180  175.4290  145.4770 C   0  0  1  0  0  3  0  0  0  0  0  0
  192.6100  173.6960  143.1680 C   0  0  0  0  0  2  0  0  0  0  0  0
  186.3880  177.2130  144.3570 C   0  0  1  0  0  3  0  0  0  0  0  0
  183.9750  178.6750  145.6990 C   0  0  0  0  0  3  0  0  0  0  0  0
  193.0300  175.2160  145.1470 C   0  0  2  0  0  3  0  0  0  0  0  0
  188.4290  175.8890  143.7430 C   0  0  0  0  0  0  0  0  0  0  0  0
  186.4270  178.4920  146.5140 C   0  0  1  0  0  3  0  0  0  0  0  0
  188.7230  175.6860  145.2170 C   0  0  2  0  0  3  0  0  0  0  0  0
  187.8260  176.1190  141.0630 C   0  0  0  0  0  3  0  0  0  0  0  0
  191.8530  175.2820  147.4030 C   0  0  0  0  0  3  0  0  0  0  0  0
  187.0080  176.6760  141.9940 N   0  0  0  0  0  0  0  0  0  0  0  0
  190.4530  175.0060  146.9210 C   0  0  0  0  0  2  0  0  0  0  0  0
  192.2260  174.0150  144.6180 C   0  0  1  0  0  3  0  0  0  0  0  0
  188.9440  175.4500  141.4500 N   0  0  0  0  0  0  0  0  0  0  0  0
  190.4360  174.6110  143.1670 N   0  0  0  0  0  0  0  0  0  0  0  0
  194.3740  175.1260  144.7650 O   0  0  0  0  0  0  0  0  0  0  0  0
  195.0810  175.0300  145.9670 C   0  0  0  0  0  2  0  0  0  0  0  0
  195.8960  172.4880  144.1630 O   0  0  0  0  0  0  0  0  0  0  0  0
  196.9720  174.4570  144.4900 C   0  0  0  0  0  2  0  0  0  0  0  0
  196.2920  174.1330  145.7830 C   0  0  2  0  0  3  0  0  0  0  0  0
  196.9440  173.2310  143.7090 N   0  0  0  0  0  2  0  0  0  0  0  0
  195.8380  172.7230  145.5460 C   0  0  0  0  0  2  0  0  0  0  0  0
  1 27  1  0  0  0  0
  1 18  1  0  0  0  0
  2 27  1  0  0  0  0
  2 14  1  0  0  0  0
  3 16  1  6  0  0  0
  3  6  1  0  0  0  0
  3  7  1  0  0  0  0
  4 18  2  0  0  0  0
  4 15  1  0  0  0  0
  5 11  1  1  0  0  0
  5 19  1  0  0  0  0
  6  7  1  1  0  0  0
  8 16  2  0  0  0  0
  9 27  1  6  0  0  0
  9 25  1  0  0  0  0
  9 13  1  0  0  0  0
 10 22  2  0  0  0  0
 12  8  1  0  0  0  0
 13 24  1  1  0  0  0
 14 25  1  0  0  0  0
 15 12  1  6  0  0  0
 15  5  1  0  0  0  0
 17 28  1  1  0  0  0
 17 10  1  0  0  0  0
 18 20  1  0  0  0  0
 19  3  1  0  0  0  0
 19  6  1  0  0  0  0
 20 13  1  0  0  0  0
 20 11  1  0  0  0  0
 21 26  1  0  0  0  0
 21 23  2  0  0  0  0
 23  4  1  0  0  0  0
 24 22  1  0  0  0  0
 25 17  1  0  0  0  0
 26  1  2  0  0  0  0
 28 29  1  0  0  0  0
 30 34  1  0  0  0  0
 31 32  1  0  0  0  0
 32 29  1  0  0  0  0
 33 30  1  0  0  0  0
 33 31  1  0  0  0  0
 34 32  1  0  0  0  0
M  END
>  <MODEL>
2

>  <REMARK>
 VINA RESULT:      -9.0      1.119      1.349
  Name = 
  3 active torsions:
  status: ('A' for Active; 'I' for Inactive)
    1  A    between atoms: C_17  and  O_28
    2  A    between atoms: O_28  and  C_29
    3  A    between atoms: C_29  and  C_32
                            x       y       z     vdW  Elec       q    Type
                         _______ _______ _______ _____ _____    ______ ____

>  <TORSDO>
F 3

$$$$
=
 OpenBabel11112417443D

 34 42  0  0  1  0  0  0  0  0999 V2000
  189.5270  174.4840  142.5990 C   0  0  0  0  0  0  0  0  0  0  0  0
  191.7930  173.3960  142.9700 C   0  0  0  0  0  2  0  0  0  0  0  0
  184.7380  178.7640  144.3760 C   0  0  1  0  0  0  0  0  0  0  0  0
  187.5670  175.8570  142.3330 C   0  0  0  0  0  0  0  0  0  0  0  0
  187.0560  177.5330  144.0820 C   0  0  1  0  0  3  0  0  0  0  0  0
  185.8730  179.2350  145.8540 C   0  0  1  0  0  3  0  0  0  0  0  0
  184.5780  179.5690  145.5500 O   0  0  0  0  0  0  0  0  0  0  0  0
  184.3600  177.8530  142.1280 C   0  0  0  0  0  3  0  0  0  0  0  0
  190.3980  173.8690  144.8860 C   0  0  2  0  0  3  0  0  0  0  0  0
  192.0680  175.3050  147.2590 C   0  0  0  0  0  3  0  0  0  0  0  0
  187.6920  176.6560  145.1710 C   0  0  0  0  0  2  0  0  0  0  0  0
  185.8200  177.5940  141.8690 C   0  0  0  0  0  2  0  0  0  0  0  0
  189.7420  175.1660  145.3890 C   0  0  1  0  0  3  0  0  0  0  0  0
  192.5460  172.9700  144.2190 C   0  0  0  0  0  2  0  0  0  0  0  0
  186.4660  176.6920  142.9310 C   0  0  1  0  0  3  0  0  0  0  0  0
  183.8800  178.4180  143.2400 C   0  0  0  0  0  3  0  0  0  0  0  0
  192.5220  174.8730  145.8870 C   0  0  2  0  0  3  0  0  0  0  0  0
  188.5090  175.2570  143.1780 C   0  0  0  0  0  0  0  0  0  0  0  0
  186.0120  178.3990  144.7120 C   0  0  1  0  0  3  0  0  0  0  0  0
  188.3890  175.3690  144.6850 C   0  0  2  0  0  3  0  0  0  0  0  0
  188.6530  174.9170  140.4460 C   0  0  0  0  0  3  0  0  0  0  0  0
  190.7960  175.4210  147.6750 C   0  0  0  0  0  3  0  0  0  0  0  0
  187.6550  175.6620  140.9860 N   0  0  0  0  0  0  0  0  0  0  0  0
  189.5590  175.0570  146.8960 C   0  0  0  0  0  2  0  0  0  0  0  0
  191.8130  173.5900  145.4140 C   0  0  1  0  0  3  0  0  0  0  0  0
  189.5840  174.3390  141.2490 N   0  0  0  0  0  0  0  0  0  0  0  0
  190.5130  173.8750  143.4400 N   0  0  0  0  0  0  0  0  0  0  0  0
  193.9100  174.6970  145.9120 O   0  0  0  0  0  0  0  0  0  0  0  0
  194.4360  175.9900  145.8430 C   0  0  0  0  0  2  0  0  0  0  0  0
  195.8170  173.9760  143.7410 O   0  0  0  0  0  0  0  0  0  0  0  0
  194.7940  175.9710  143.4030 C   0  0  0  0  0  2  0  0  0  0  0  0
  195.4690  176.0700  144.7330 C   0  0  2  0  0  3  0  0  0  0  0  0
  195.3600  174.7990  142.7560 N   0  0  0  0  0  2  0  0  0  0  0  0
  196.3100  174.8270  144.7440 C   0  0  0  0  0  2  0  0  0  0  0  0
  1 18  1  0  0  0  0
  1 27  1  0  0  0  0
  2 27  1  0  0  0  0
  2 14  1  0  0  0  0
  3 16  1  6  0  0  0
  3 19  1  0  0  0  0
  3  7  1  0  0  0  0
  3  6  1  0  0  0  0
  4 15  1  0  0  0  0
  4 18  2  0  0  0  0
  5 19  1  0  0  0  0
  5 11  1  1  0  0  0
  6  7  1  1  0  0  0
  8 16  2  0  0  0  0
  9 27  1  6  0  0  0
  9 13  1  0  0  0  0
  9 25  1  0  0  0  0
 10 22  2  0  0  0  0
 12  8  1  0  0  0  0
 13 24  1  1  0  0  0
 14 25  1  0  0  0  0
 15 12  1  6  0  0  0
 15  5  1  0  0  0  0
 17 28  1  1  0  0  0
 17 10  1  0  0  0  0
 18 20  1  0  0  0  0
 19  6  1  0  0  0  0
 20 11  1  0  0  0  0
 20 13  1  0  0  0  0
 21 23  2  0  0  0  0
 21 26  1  0  0  0  0
 23  4  1  0  0  0  0
 24 22  1  0  0  0  0
 25 17  1  0  0  0  0
 26  1  2  0  0  0  0
 29 28  1  0  0  0  0
 30 34  1  0  0  0  0
 31 32  1  0  0  0  0
 32 34  1  0  0  0  0
 32 29  1  0  0  0  0
 33 31  1  0  0  0  0
 33 30  1  0  0  0  0
M  END
>  <MODEL>
3

>  <REMARK>
 VINA RESULT:      -8.8      1.297      1.599
  Name = 
  3 active torsions:
  status: ('A' for Active; 'I' for Inactive)
    1  A    between atoms: C_17  and  O_28
    2  A    between atoms: O_28  and  C_29
    3  A    between atoms: C_29  and  C_32
                            x       y       z     vdW  Elec       q    Type
                         _______ _______ _______ _____ _____    ______ ____

>  <TORSDO>
F 3

$$$$
=
 OpenBabel11112417443D

 34 42  0  0  1  0  0  0  0  0999 V2000
  188.7900  177.1040  146.2230 C   0  0  0  0  0  0  0  0  0  0  0  0
  190.7590  176.2750  147.5990 C   0  0  0  0  0  2  0  0  0  0  0  0
  185.5930  177.7910  140.4160 C   0  0  1  0  0  0  0  0  0  0  0  0
  186.9350  177.5300  144.7480 C   0  0  0  0  0  0  0  0  0  0  0  0
  187.1770  176.9450  142.3530 C   0  0  1  0  0  3  0  0  0  0  0  0
  187.0590  176.8260  139.6320 C   0  0  1  0  0  3  0  0  0  0  0  0
  185.9950  177.4880  139.0750 O   0  0  0  0  0  0  0  0  0  0  0  0
  184.1780  178.4270  142.3180 C   0  0  0  0  0  3  0  0  0  0  0  0
  191.1710  177.1710  145.3930 C   0  0  2  0  0  3  0  0  0  0  0  0
  193.1440  175.2630  143.6740 C   0  0  0  0  0  3  0  0  0  0  0  0
  188.6870  177.2210  142.3920 C   0  0  0  0  0  2  0  0  0  0  0  0
  184.8940  177.5300  143.2920 C   0  0  0  0  0  2  0  0  0  0  0  0
  190.6070  176.8060  144.0090 C   0  0  1  0  0  3  0  0  0  0  0  0
  192.2490  176.1750  147.3200 C   0  0  0  0  0  2  0  0  0  0  0  0
  186.4020  177.8130  143.3680 C   0  0  1  0  0  3  0  0  0  0  0  0
  184.4670  178.5110  141.0160 C   0  0  0  0  0  3  0  0  0  0  0  0
  192.5950  175.0760  145.0670 C   0  0  2  0  0  3  0  0  0  0  0  0
  188.3140  177.3680  144.9300 C   0  0  0  0  0  0  0  0  0  0  0  0
  186.6830  177.1700  140.9600 C   0  0  1  0  0  3  0  0  0  0  0  0
  189.2820  177.5520  143.7760 C   0  0  2  0  0  3  0  0  0  0  0  0
  186.5820  177.1800  147.0660 C   0  0  0  0  0  3  0  0  0  0  0  0
  192.7040  176.1420  142.7580 C   0  0  0  0  0  3  0  0  0  0  0  0
  186.1030  177.4450  145.8230 N   0  0  0  0  0  0  0  0  0  0  0  0
  191.6370  177.1870  142.9550 C   0  0  0  0  0  2  0  0  0  0  0  0
  192.4360  176.4120  145.8170 C   0  0  1  0  0  3  0  0  0  0  0  0
  187.9160  177.0060  147.2600 N   0  0  0  0  0  0  0  0  0  0  0  0
  190.1940  176.9160  146.4330 N   0  0  0  0  0  0  0  0  0  0  0  0
  193.4400  174.2070  145.7660 O   0  0  0  0  0  0  0  0  0  0  0  0
  194.5170  173.9850  144.9030 C   0  0  0  0  0  2  0  0  0  0  0  0
  197.5470  172.8990  145.0510 O   0  0  0  0  0  0  0  0  0  0  0  0
  196.7560  174.9710  144.5800 C   0  0  0  0  0  2  0  0  0  0  0  0
  195.8150  174.3840  145.5840 C   0  0  2  0  0  3  0  0  0  0  0  0
  197.9370  174.1240  144.6000 N   0  0  0  0  0  2  0  0  0  0  0  0
  196.5540  173.1500  146.0110 C   0  0  0  0  0  2  0  0  0  0  0  0
  1 27  1  0  0  0  0
  1 26  1  0  0  0  0
  3 19  1  0  0  0  0
  3 16  1  1  0  0  0
  4 18  1  0  0  0  0
  4 23  2  0  0  0  0
  5 11  1  6  0  0  0
  5 15  1  0  0  0  0
  6  7  1  6  0  0  0
  6  3  1  0  0  0  0
  6 19  1  0  0  0  0
  7  3  1  0  0  0  0
  8 12  1  0  0  0  0
  9 25  1  0  0  0  0
  9 27  1  1  0  0  0
 10 17  1  0  0  0  0
 11 20  1  0  0  0  0
 13 24  1  6  0  0  0
 13  9  1  0  0  0  0
 14  2  1  0  0  0  0
 15 12  1  1  0  0  0
 15  4  1  0  0  0  0
 16  8  2  0  0  0  0
 17 28  1  1  0  0  0
 17 25  1  0  0  0  0
 18  1  2  0  0  0  0
 19  5  1  0  0  0  0
 20 13  1  0  0  0  0
 20 18  1  0  0  0  0
 21 26  2  0  0  0  0
 22 24  1  0  0  0  0
 22 10  2  0  0  0  0
 23 21  1  0  0  0  0
 25 14  1  0  0  0  0
 27  2  1  0  0  0  0
 29 32  1  0  0  0  0
 29 28  1  0  0  0  0
 30 34  1  0  0  0  0
 31 33  1  0  0  0  0
 31 32  1  0  0  0  0
 32 34  1  0  0  0  0
 33 30  1  0  0  0  0
M  END
>  <MODEL>
4

>  <REMARK>
 VINA RESULT:      -8.6      2.781      4.239
  Name = 
  3 active torsions:
  status: ('A' for Active; 'I' for Inactive)
    1  A    between atoms: C_17  and  O_28
    2  A    between atoms: O_28  and  C_29
    3  A    between atoms: C_29  and  C_32
                            x       y       z     vdW  Elec       q    Type
                         _______ _______ _______ _____ _____    ______ ____

>  <TORSDO>
F 3

$$$$
=
 OpenBabel11112417443D

 34 42  0  0  1  0  0  0  0  0999 V2000
  192.2740  176.1340  145.8400 C   0  0  0  0  0  0  0  0  0  0  0  0
  189.9750  176.4260  146.8840 C   0  0  0  0  0  2  0  0  0  0  0  0
  196.2320  175.4300  140.5260 C   0  0  1  0  0  0  0  0  0  0  0  0
  194.3310  176.1350  144.5900 C   0  0  0  0  0  0  0  0  0  0  0  0
  194.2090  176.0140  142.1200 C   0  0  1  0  0  3  0  0  0  0  0  0
  194.6310  175.5420  139.4680 C   0  0  1  0  0  3  0  0  0  0  0  0
  195.9270  175.2370  139.1390 O   0  0  0  0  0  0  0  0  0  0  0  0
  197.5190  175.8470  142.5730 C   0  0  0  0  0  3  0  0  0  0  0  0
  190.2140  174.9600  144.9770 C   0  0  2  0  0  3  0  0  0  0  0  0
  187.9230  175.5050  142.7540 C   0  0  0  0  0  3  0  0  0  0  0  0
  192.9140  175.1910  142.1790 C   0  0  0  0  0  2  0  0  0  0  0  0
  196.4020  176.5930  143.2540 C   0  0  0  0  0  2  0  0  0  0  0  0
  190.7810  175.1880  143.5660 C   0  0  1  0  0  3  0  0  0  0  0  0
  188.6020  175.8730  146.5390 C   0  0  0  0  0  2  0  0  0  0  0  0
  195.1070  175.7730  143.3510 C   0  0  1  0  0  3  0  0  0  0  0  0
  197.4540  175.3610  141.3300 C   0  0  0  0  0  3  0  0  0  0  0  0
  188.1770  176.2040  144.0670 C   0  0  2  0  0  3  0  0  0  0  0  0
  192.9780  175.7860  144.6770 C   0  0  0  0  0  0  0  0  0  0  0  0
  194.9290  175.6860  140.8510 C   0  0  1  0  0  3  0  0  0  0  0  0
  192.3060  174.9820  143.5810 C   0  0  2  0  0  3  0  0  0  0  0  0
  194.2240  177.1150  146.7460 C   0  0  0  0  0  3  0  0  0  0  0  0
  188.7710  174.6810  142.1160 C   0  0  0  0  0  3  0  0  0  0  0  0
  194.9260  176.7800  145.6330 N   0  0  0  0  0  0  0  0  0  0  0  0
  190.1100  174.2060  142.6150 C   0  0  0  0  0  2  0  0  0  0  0  0
  188.7140  175.2440  145.1450 C   0  0  1  0  0  3  0  0  0  0  0  0
  192.9060  176.7980  146.8430 N   0  0  0  0  0  0  0  0  0  0  0  0
  190.8840  175.8050  145.9460 N   0  0  0  0  0  0  0  0  0  0  0  0
  186.9880  176.8120  144.4850 O   0  0  0  0  0  0  0  0  0  0  0  0
  187.1120  178.1470  144.0920 C   0  0  0  0  0  2  0  0  0  0  0  0
  184.0340  179.0100  144.4920 O   0  0  0  0  0  0  0  0  0  0  0  0
  185.5330  178.1960  145.9860 C   0  0  0  0  0  2  0  0  0  0  0  0
  186.3150  179.0380  145.0280 C   0  0  2  0  0  3  0  0  0  0  0  0
  184.1370  178.5360  145.7650 N   0  0  0  0  0  2  0  0  0  0  0  0
  185.2230  179.7200  144.2570 C   0  0  0  0  0  2  0  0  0  0  0  0
  1 27  1  0  0  0  0
  1 26  1  0  0  0  0
  3 19  1  0  0  0  0
  3 16  1  6  0  0  0
  4 18  1  0  0  0  0
  4 23  2  0  0  0  0
  5 11  1  1  0  0  0
  5 15  1  0  0  0  0
  6  7  1  1  0  0  0
  6  3  1  0  0  0  0
  6 19  1  0  0  0  0
  7  3  1  0  0  0  0
  8 12  1  0  0  0  0
  9 25  1  0  0  0  0
  9 27  1  1  0  0  0
 10 17  1  0  0  0  0
 11 20  1  0  0  0  0
 13 24  1  6  0  0  0
 13 20  1  0  0  0  0
 13  9  1  0  0  0  0
 14  2  1  0  0  0  0
 15 12  1  6  0  0  0
 15  4  1  0  0  0  0
 16  8  2  0  0  0  0
 17 28  1  1  0  0  0
 17 25  1  0  0  0  0
 18  1  2  0  0  0  0
 19  5  1  0  0  0  0
 20 18  1  0  0  0  0
 21 26  2  0  0  0  0
 22 24  1  0  0  0  0
 22 10  2  0  0  0  0
 23 21  1  0  0  0  0
 25 14  1  0  0  0  0
 27  2  1  0  0  0  0
 29 28  1  0  0  0  0
 29 32  1  0  0  0  0
 30 33  1  0  0  0  0
 32 31  1  0  0  0  0
 33 31  1  0  0  0  0
 34 30  1  0  0  0  0
 34 32  1  0  0  0  0
M  END
>  <MODEL>
5

>  <REMARK>
 VINA RESULT:      -8.5      2.437      8.990
  Name = 
  3 active torsions:
  status: ('A' for Active; 'I' for Inactive)
    1  A    between atoms: C_17  and  O_28
    2  A    between atoms: O_28  and  C_29
    3  A    between atoms: C_29  and  C_32
                            x       y       z     vdW  Elec       q    Type
                         _______ _______ _______ _____ _____    ______ ____

>  <TORSDO>
F 3

$$$$
=
 OpenBabel11112417443D

 34 42  0  0  1  0  0  0  0  0999 V2000
  193.2230  176.1610  143.2200 C   0  0  0  0  0  0  0  0  0  0  0  0
  191.1500  177.6300  143.1380 C   0  0  0  0  0  2  0  0  0  0  0  0
  196.5250  170.8350  145.4840 C   0  0  1  0  0  0  0  0  0  0  0  0
  194.9300  174.4650  143.2690 C   0  0  0  0  0  0  0  0  0  0  0  0
  194.6250  172.5290  144.7830 C   0  0  1  0  0  3  0  0  0  0  0  0
  194.9420  170.4320  146.4970 C   0  0  1  0  0  3  0  0  0  0  0  0
  196.1990  169.8840  146.5040 O   0  0  0  0  0  0  0  0  0  0  0  0
  197.6950  171.9060  143.6110 C   0  0  0  0  0  3  0  0  0  0  0  0
  191.8180  176.6700  145.2530 C   0  0  2  0  0  3  0  0  0  0  0  0
  189.3110  175.3310  146.8050 C   0  0  0  0  0  3  0  0  0  0  0  0
  193.8400  173.3840  145.7890 C   0  0  0  0  0  2  0  0  0  0  0  0
  196.4390  172.4790  143.0120 C   0  0  0  0  0  2  0  0  0  0  0  0
  192.0800  175.2180  145.6890 C   0  0  1  0  0  3  0  0  0  0  0  0
  190.1360  178.0510  144.1880 C   0  0  0  0  0  2  0  0  0  0  0  0
  195.6570  173.3630  143.9950 C   0  0  1  0  0  3  0  0  0  0  0  0
  197.7270  171.1320  144.7000 C   0  0  0  0  0  3  0  0  0  0  0  0
  189.3610  176.0010  145.4540 C   0  0  2  0  0  3  0  0  0  0  0  0
  193.8860  175.1390  143.9150 C   0  0  0  0  0  0  0  0  0  0  0  0
  195.2830  171.4050  145.5180 C   0  0  1  0  0  3  0  0  0  0  0  0
  193.5320  174.8310  145.3570 C   0  0  2  0  0  3  0  0  0  0  0  0
  194.6190  175.8140  141.3440 C   0  0  0  0  0  3  0  0  0  0  0  0
  190.3660  174.9160  147.5260 C   0  0  0  0  0  3  0  0  0  0  0  0
  195.2800  174.8270  142.0030 N   0  0  0  0  0  0  0  0  0  0  0  0
  191.8200  175.1130  147.1860 C   0  0  0  0  0  2  0  0  0  0  0  0
  190.3720  177.1620  145.4150 C   0  0  1  0  0  3  0  0  0  0  0  0
  193.5940  176.4700  141.9490 N   0  0  0  0  0  0  0  0  0  0  0  0
  192.1400  176.8530  143.8510 N   0  0  0  0  0  0  0  0  0  0  0  0
  188.0750  176.4470  145.1300 O   0  0  0  0  0  0  0  0  0  0  0  0
  187.4310  176.6080  146.3600 C   0  0  0  0  0  2  0  0  0  0  0  0
  184.9360  177.9630  144.8380 O   0  0  0  0  0  0  0  0  0  0  0  0
  185.3650  177.7630  147.0550 C   0  0  0  0  0  2  0  0  0  0  0  0
  186.6930  177.9340  146.3880 C   0  0  2  0  0  3  0  0  0  0  0  0
  184.3710  178.1410  146.0650 N   0  0  0  0  0  2  0  0  0  0  0  0
  186.2880  178.3090  144.9920 C   0  0  0  0  0  2  0  0  0  0  0  0
  1 27  1  0  0  0  0
  1 18  1  0  0  0  0
  2 27  1  0  0  0  0
  2 14  1  0  0  0  0
  3 16  1  6  0  0  0
  3 19  1  0  0  0  0
  3  6  1  0  0  0  0
  3  7  1  0  0  0  0
  4 18  2  0  0  0  0
  4 15  1  0  0  0  0
  5 19  1  0  0  0  0
  5 11  1  1  0  0  0
  6  7  1  1  0  0  0
  8 16  2  0  0  0  0
  9 27  1  6  0  0  0
  9 25  1  0  0  0  0
  9 13  1  0  0  0  0
 10 22  2  0  0  0  0
 12  8  1  0  0  0  0
 13 24  1  1  0  0  0
 14 25  1  0  0  0  0
 15 12  1  6  0  0  0
 15  5  1  0  0  0  0
 17 28  1  1  0  0  0
 17 10  1  0  0  0  0
 18 20  1  0  0  0  0
 19  6  1  0  0  0  0
 20 13  1  0  0  0  0
 20 11  1  0  0  0  0
 21 26  1  0  0  0  0
 21 23  2  0  0  0  0
 23  4  1  0  0  0  0
 24 22  1  0  0  0  0
 25 17  1  0  0  0  0
 26  1  2  0  0  0  0
 28 29  1  0  0  0  0
 29 32  1  0  0  0  0
 30 34  1  0  0  0  0
 30 33  1  0  0  0  0
 32 31  1  0  0  0  0
 33 31  1  0  0  0  0
 34 32  1  0  0  0  0
M  END
>  <MODEL>
6

>  <REMARK>
 VINA RESULT:      -8.4      2.890      8.955
  Name = 
  3 active torsions:
  status: ('A' for Active; 'I' for Inactive)
    1  A    between atoms: C_17  and  O_28
    2  A    between atoms: O_28  and  C_29
    3  A    between atoms: C_29  and  C_32
                            x       y       z     vdW  Elec       q    Type
                         _______ _______ _______ _____ _____    ______ ____

>  <TORSDO>
F 3

$$$$
=
 OpenBabel11112417443D

 34 42  0  0  1  0  0  0  0  0999 V2000
  188.5450  175.3190  141.9040 C   0  0  0  0  0  0  0  0  0  0  0  0
  190.6310  174.1350  141.0630 C   0  0  0  0  0  2  0  0  0  0  0  0
  185.2560  178.7500  146.5750 C   0  0  1  0  0  0  0  0  0  0  0  0
  186.8210  176.7270  142.8220 C   0  0  0  0  0  0  0  0  0  0  0  0
  187.1520  177.6710  145.0870 C   0  0  1  0  0  3  0  0  0  0  0  0
  186.8660  178.6410  147.6190 C   0  0  1  0  0  3  0  0  0  0  0  0
  185.6040  179.0820  147.9240 O   0  0  0  0  0  0  0  0  0  0  0  0
  184.0400  178.7130  144.4430 C   0  0  0  0  0  3  0  0  0  0  0  0
  190.0190  173.9100  143.3900 C   0  0  2  0  0  3  0  0  0  0  0  0
  192.5590  174.3720  145.3450 C   0  0  0  0  0  3  0  0  0  0  0  0
  187.9780  176.4510  145.5230 C   0  0  0  0  0  2  0  0  0  0  0  0
  185.2830  178.5420  143.6110 C   0  0  0  0  0  2  0  0  0  0  0  0
  189.7540  174.9500  144.4920 C   0  0  1  0  0  3  0  0  0  0  0  0
  191.6820  173.2770  141.7460 C   0  0  0  0  0  2  0  0  0  0  0  0
  186.1060  177.3080  144.0120 C   0  0  1  0  0  3  0  0  0  0  0  0
  184.0340  178.8480  145.7720 C   0  0  0  0  0  3  0  0  0  0  0  0
  192.4740  174.4540  143.8420 C   0  0  2  0  0  3  0  0  0  0  0  0
  187.8930  175.8490  143.0270 C   0  0  0  0  0  0  0  0  0  0  0  0
  186.5050  178.2690  146.2950 C   0  0  1  0  0  3  0  0  0  0  0  0
  188.2890  175.4140  144.4250 C   0  0  2  0  0  3  0  0  0  0  0  0
  187.0870  176.5100  140.4750 C   0  0  0  0  0  3  0  0  0  0  0  0
  191.5220  174.3510  146.2000 C   0  0  0  0  0  3  0  0  0  0  0  0
  186.4360  177.0270  141.5490 N   0  0  0  0  0  0  0  0  0  0  0  0
  190.0600  174.3100  145.8390 C   0  0  0  0  0  2  0  0  0  0  0  0
  191.4750  173.4390  143.2560 C   0  0  1  0  0  3  0  0  0  0  0  0
  188.1380  175.6680  140.6550 N   0  0  0  0  0  0  0  0  0  0  0  0
  189.6550  174.4330  142.0880 N   0  0  0  0  0  0  0  0  0  0  0  0
  193.7540  174.2590  143.3120 O   0  0  0  0  0  0  0  0  0  0  0  0
  194.5850  175.0870  144.0710 C   0  0  0  0  0  2  0  0  0  0  0  0
  197.1800  176.1790  142.5050 O   0  0  0  0  0  0  0  0  0  0  0  0
  195.0320  175.9690  141.8110 C   0  0  0  0  0  2  0  0  0  0  0  0
  194.9680  176.3150  143.2650 C   0  0  2  0  0  3  0  0  0  0  0  0
  196.3940  176.2550  141.3940 N   0  0  0  0  0  2  0  0  0  0  0  0
  196.3950  176.6780  143.5560 C   0  0  0  0  0  2  0  0  0  0  0  0
  1 27  1  0  0  0  0
  1 18  1  0  0  0  0
  2 14  1  0  0  0  0
  2 27  1  0  0  0  0
  3 16  1  6  0  0  0
  3  6  1  0  0  0  0
  3  7  1  0  0  0  0
  4 18  2  0  0  0  0
  4 15  1  0  0  0  0
  5 11  1  1  0  0  0
  5 19  1  0  0  0  0
  6  7  1  1  0  0  0
  8 16  2  0  0  0  0
  9 27  1  6  0  0  0
  9 13  1  0  0  0  0
 10 22  2  0  0  0  0
 12  8  1  0  0  0  0
 13 24  1  1  0  0  0
 14 25  1  0  0  0  0
 15 12  1  6  0  0  0
 15  5  1  0  0  0  0
 17 28  1  6  0  0  0
 17 10  1  0  0  0  0
 18 20  1  0  0  0  0
 19  3  1  0  0  0  0
 19  6  1  0  0  0  0
 20 13  1  0  0  0  0
 20 11  1  0  0  0  0
 21 26  1  0  0  0  0
 21 23  2  0  0  0  0
 23  4  1  0  0  0  0
 24 22  1  0  0  0  0
 25  9  1  0  0  0  0
 25 17  1  0  0  0  0
 26  1  2  0  0  0  0
 28 29  1  0  0  0  0
 30 34  1  0  0  0  0
 31 32  1  0  0  0  0
 32 34  1  0  0  0  0
 32 29  1  0  0  0  0
 33 31  1  0  0  0  0
 33 30  1  0  0  0  0
M  END
>  <MODEL>
7

>  <REMARK>
 VINA RESULT:      -8.4      1.014      1.091
  Name = 
  3 active torsions:
  status: ('A' for Active; 'I' for Inactive)
    1  A    between atoms: C_17  and  O_28
    2  A    between atoms: O_28  and  C_29
    3  A    between atoms: C_29  and  C_32
                            x       y       z     vdW  Elec       q    Type
                         _______ _______ _______ _____ _____    ______ ____

>  <TORSDO>
F 3

$$$$
=
 OpenBabel11112417443D

 34 42  0  0  1  0  0  0  0  0999 V2000
  189.3190  175.0930  141.9810 C   0  0  0  0  0  0  0  0  0  0  0  0
  186.9630  175.8160  142.6020 C   0  0  0  0  0  2  0  0  0  0  0  0
  195.6340  173.7240  143.6120 C   0  0  1  0  0  0  0  0  0  0  0  0
  191.5300  174.1770  141.7180 C   0  0  0  0  0  0  0  0  0  0  0  0
  193.0240  174.1200  143.6930 C   0  0  1  0  0  3  0  0  0  0  0  0
  195.1350  174.1560  145.4180 C   0  0  1  0  0  3  0  0  0  0  0  0
  196.3520  173.8990  144.8390 O   0  0  0  0  0  0  0  0  0  0  0  0
  195.1090  173.0170  141.3210 C   0  0  0  0  0  3  0  0  0  0  0  0
  188.8380  176.8990  143.6750 C   0  0  2  0  0  3  0  0  0  0  0  0
  188.4280  177.1030  146.8810 C   0  0  0  0  0  3  0  0  0  0  0  0
  192.3770  175.3860  144.2740 C   0  0  0  0  0  2  0  0  0  0  0  0
  193.6410  172.8300  141.5980 C   0  0  0  0  0  2  0  0  0  0  0  0
  190.0300  176.3440  144.4750 C   0  0  1  0  0  3  0  0  0  0  0  0
  186.4180  176.8290  143.5940 C   0  0  0  0  0  2  0  0  0  0  0  0
  192.9710  174.0970  142.1510 C   0  0  1  0  0  3  0  0  0  0  0  0
  196.0100  173.3790  142.2390 C   0  0  0  0  0  3  0  0  0  0  0  0
  187.5400  176.4770  145.8340 C   0  0  2  0  0  3  0  0  0  0  0  0
  190.6570  175.0340  142.4000 C   0  0  0  0  0  0  0  0  0  0  0  0
  194.4320  174.0280  144.1890 C   0  0  1  0  0  3  0  0  0  0  0  0
  191.1570  175.9380  143.5100 C   0  0  2  0  0  3  0  0  0  0  0  0
  189.7650  173.5090  140.2830 C   0  0  0  0  0  3  0  0  0  0  0  0
  189.7110  177.4700  146.7190 C   0  0  0  0  0  3  0  0  0  0  0  0
  191.0660  173.4440  140.6670 N   0  0  0  0  0  0  0  0  0  0  0  0
  190.5040  177.4240  145.4390 C   0  0  0  0  0  2  0  0  0  0  0  0
  187.5870  177.2400  144.4970 C   0  0  1  0  0  3  0  0  0  0  0  0
  188.8990  174.3240  140.9410 N   0  0  0  0  0  0  0  0  0  0  0  0
  188.4020  175.9470  142.6730 N   0  0  0  0  0  0  0  0  0  0  0  0
  186.2340  176.4220  146.3340 O   0  0  0  0  0  0  0  0  0  0  0  0
  186.2710  177.1690  147.5140 C   0  0  0  0  0  2  0  0  0  0  0  0
  185.3990  179.5980  145.5860 O   0  0  0  0  0  0  0  0  0  0  0  0
  184.1700  177.8980  146.4460 C   0  0  0  0  0  2  0  0  0  0  0  0
  185.1930  178.2390  147.4830 C   0  0  2  0  0  3  0  0  0  0  0  0
  184.1740  179.0050  145.5040 N   0  0  0  0  0  2  0  0  0  0  0  0
  185.7700  179.5120  146.9370 C   0  0  0  0  0  2  0  0  0  0  0  0
  1 18  1  0  0  0  0
  1 27  1  0  0  0  0
  2 27  1  0  0  0  0
  2 14  1  0  0  0  0
  3 16  1  1  0  0  0
  3 19  1  0  0  0  0
  3  7  1  0  0  0  0
  3  6  1  0  0  0  0
  4 15  1  0  0  0  0
  4 18  2  0  0  0  0
  5 19  1  0  0  0  0
  5 11  1  6  0  0  0
  6  7  1  6  0  0  0
  8 12  1  0  0  0  0
  8 16  2  0  0  0  0
  9 27  1  6  0  0  0
  9 13  1  0  0  0  0
  9 25  1  0  0  0  0
 13 24  1  1  0  0  0
 14 25  1  0  0  0  0
 15 12  1  1  0  0  0
 15  5  1  0  0  0  0
 17 28  1  1  0  0  0
 17 10  1  0  0  0  0
 18 20  1  0  0  0  0
 19  6  1  0  0  0  0
 20 11  1  0  0  0  0
 20 13  1  0  0  0  0
 21 23  2  0  0  0  0
 21 26  1  0  0  0  0
 22 10  2  0  0  0  0
 23  4  1  0  0  0  0
 24 22  1  0  0  0  0
 25 17  1  0  0  0  0
 26  1  2  0  0  0  0
 28 29  1  0  0  0  0
 30 34  1  0  0  0  0
 31 32  1  0  0  0  0
 32 29  1  0  0  0  0
 33 30  1  0  0  0  0
 33 31  1  0  0  0  0
 34 32  1  0  0  0  0
M  END
>  <MODEL>
8

>  <REMARK>
 VINA RESULT:      -8.2      2.124      8.248
  Name = 
  3 active torsions:
  status: ('A' for Active; 'I' for Inactive)
    1  A    between atoms: C_17  and  O_28
    2  A    between atoms: O_28  and  C_29
    3  A    between atoms: C_29  and  C_32
                            x       y       z     vdW  Elec       q    Type
                         _______ _______ _______ _____ _____    ______ ____

>  <TORSDO>
F 3

$$$$
=
 OpenBabel11112417443D

 34 42  0  0  1  0  0  0  0  0999 V2000
  191.9810  176.0230  145.9100 C   0  0  0  0  0  0  0  0  0  0  0  0
  189.9810  177.5440  145.5290 C   0  0  0  0  0  2  0  0  0  0  0  0
  195.8110  170.8570  144.1620 C   0  0  1  0  0  0  0  0  0  0  0  0
  193.9400  174.6230  145.8780 C   0  0  0  0  0  0  0  0  0  0  0  0
  194.1150  172.8810  144.1270 C   0  0  1  0  0  3  0  0  0  0  0  0
  194.6190  170.6320  142.6710 C   0  0  1  0  0  3  0  0  0  0  0  0
  195.6450  169.8580  143.1510 O   0  0  0  0  0  0  0  0  0  0  0  0
  196.8470  172.2040  145.9340 C   0  0  0  0  0  3  0  0  0  0  0  0
  189.7510  175.1800  145.0850 C   0  0  2  0  0  3  0  0  0  0  0  0
  188.3260  174.6310  142.2290 C   0  0  0  0  0  3  0  0  0  0  0  0
  192.5890  172.7060  144.0870 C   0  0  0  0  0  2  0  0  0  0  0  0
  196.1400  173.4710  145.5360 C   0  0  0  0  0  2  0  0  0  0  0  0
  190.5460  174.2170  144.1860 C   0  0  1  0  0  3  0  0  0  0  0  0
  188.5730  177.2950  145.0160 C   0  0  0  0  0  2  0  0  0  0  0  0
  194.6110  173.3240  145.5200 C   0  0  1  0  0  3  0  0  0  0  0  0
  196.7290  171.0390  145.2890 C   0  0  0  0  0  3  0  0  0  0  0  0
  188.7000  175.9380  142.8840 C   0  0  2  0  0  3  0  0  0  0  0  0
  192.5860  174.8050  145.5680 C   0  0  0  0  0  0  0  0  0  0  0  0
  194.7570  171.5980  143.7050 C   0  0  1  0  0  3  0  0  0  0  0  0
  191.7700  173.6850  144.9510 C   0  0  2  0  0  3  0  0  0  0  0  0
  194.0180  176.7950  146.8280 C   0  0  0  0  0  3  0  0  0  0  0  0
  188.7570  173.4110  142.5880 C   0  0  0  0  0  3  0  0  0  0  0  0
  194.6210  175.6190  146.5130 N   0  0  0  0  0  0  0  0  0  0  0  0
  189.6260  173.0770  143.7730 C   0  0  0  0  0  2  0  0  0  0  0  0
  188.5610  175.8840  144.4170 C   0  0  1  0  0  3  0  0  0  0  0  0
  192.7100  176.9940  146.5210 N   0  0  0  0  0  0  0  0  0  0  0  0
  190.6030  176.2400  145.5860 N   0  0  0  0  0  0  0  0  0  0  0  0
  187.9000  176.9520  142.3440 O   0  0  0  0  0  0  0  0  0  0  0  0
  186.6070  176.4210  142.3370 C   0  0  0  0  0  2  0  0  0  0  0  0
  185.3790  178.5300  144.4400 O   0  0  0  0  0  0  0  0  0  0  0  0
  186.2860  178.8670  142.3900 C   0  0  0  0  0  2  0  0  0  0  0  0
  185.5870  177.5460  142.3250 C   0  0  2  0  0  3  0  0  0  0  0  0
  185.8010  179.5140  143.5960 N   0  0  0  0  0  2  0  0  0  0  0  0
  184.8220  177.5400  143.6160 C   0  0  0  0  0  2  0  0  0  0  0  0
  1 26  1  0  0  0  0
  2 27  1  0  0  0  0
  3 16  1  6  0  0  0
  4 23  2  0  0  0  0
  5 11  1  1  0  0  0
  5 15  1  0  0  0  0
  6  7  1  1  0  0  0
  6 19  1  0  0  0  0
  6  3  1  0  0  0  0
  7  3  1  0  0  0  0
  9 27  1  6  0  0  0
 10 22  2  0  0  0  0
 10 17  1  0  0  0  0
 11 20  1  0  0  0  0
 12  8  1  0  0  0  0
 13 24  1  1  0  0  0
 13 20  1  0  0  0  0
 13  9  1  0  0  0  0
 14  2  1  0  0  0  0
 15 12  1  6  0  0  0
 15  4  1  0  0  0  0
 16  8  2  0  0  0  0
 17 28  1  6  0  0  0
 17 25  1  0  0  0  0
 18  4  1  0  0  0  0
 18  1  2  0  0  0  0
 19  5  1  0  0  0  0
 19  3  1  0  0  0  0
 20 18  1  0  0  0  0
 22 24  1  0  0  0  0
 23 21  1  0  0  0  0
 25 14  1  0  0  0  0
 25  9  1  0  0  0  0
 26 21  2  0  0  0  0
 27  1  1  0  0  0  0
 29 28  1  0  0  0  0
 31 33  1  0  0  0  0
 32 29  1  0  0  0  0
 32 31  1  0  0  0  0
 32 34  1  0  0  0  0
 33 30  1  0  0  0  0
 34 30  1  0  0  0  0
M  END
>  <MODEL>
9

>  <REMARK>
 VINA RESULT:      -8.1      2.894      8.989
  Name = 
  3 active torsions:
  status: ('A' for Active; 'I' for Inactive)
    1  A    between atoms: C_17  and  O_28
    2  A    between atoms: O_28  and  C_29
    3  A    between atoms: C_29  and  C_32
                            x       y       z     vdW  Elec       q    Type
                         _______ _______ _______ _____ _____    ______ ____

>  <TORSDO>
F 3

$$$$
