=
 OpenBabel11112417513D

 34 41  0  0  1  0  0  0  0  0999 V2000
  187.9100  175.4670  141.3540 C   0  0  0  0  0  0  0  0  0  0  0  0
  189.0600  173.7100  139.9930 C   0  0  0  0  0  2  0  0  0  0  0  0
  184.7840  176.9670  146.6630 C   0  0  0  0  0  2  0  0  0  0  0  0
  187.6240  177.4650  142.6590 C   0  0  0  0  0  0  0  0  0  0  0  0
  188.7970  177.8130  144.9600 C   0  0  1  0  0  3  0  0  0  0  0  0
  187.0630  176.2290  146.0330 C   0  0  0  0  0  2  0  0  0  0  0  0
  186.2470  176.9700  147.0760 C   0  0  0  0  0  2  0  0  0  0  0  0
  185.2130  178.0350  144.4170 C   0  0  0  0  0  2  0  0  0  0  0  0
  188.8770  173.3050  142.4000 C   0  0  2  0  0  3  0  0  0  0  0  0
  191.7630  172.2760  143.5850 C   0  0  0  0  0  2  0  0  0  0  0  0
  189.3230  176.3800  144.7800 C   0  0  1  0  0  3  0  0  0  0  0  0
  186.4520  178.9160  144.4800 C   0  0  0  0  0  2  0  0  0  0  0  0
  189.4770  174.2450  143.4690 C   0  0  1  0  0  3  0  0  0  0  0  0
  189.6980  172.3700  140.2780 C   0  0  0  0  0  2  0  0  0  0  0  0
  187.7020  178.2100  143.9540 C   0  0  2  0  0  3  0  0  0  0  0  0
  184.4540  178.1310  145.7320 C   0  0  0  0  0  2  0  0  0  0  0  0
  191.3890  172.5870  142.1260 C   0  0  1  0  0  3  0  0  0  0  0  0
  188.0670  176.1400  142.5780 C   0  0  0  0  0  0  0  0  0  0  0  0
  188.5000  176.7460  146.0230 C   0  0  1  0  0  3  0  0  0  0  0  0
  188.5690  175.4310  143.8110 C   0  0  2  0  0  3  0  0  0  0  0  0
  187.0140  177.4320  140.3780 C   0  0  0  0  0  3  0  0  0  0  0  0
  190.5690  172.1550  144.5330 C   0  0  0  0  0  2  0  0  0  0  0  0
  187.1270  178.0880  141.5590 N   0  0  0  0  0  0  0  0  0  0  0  0
  189.8400  173.4810  144.7550 C   0  0  0  0  0  2  0  0  0  0  0  0
  189.9030  172.3240  141.7810 C   0  0  1  0  0  3  0  0  0  0  0  0
  187.3890  176.1320  140.2870 N   0  0  0  0  0  0  0  0  0  0  0  0
  188.2080  174.0020  141.2100 C   0  0  1  0  0  3  0  0  0  0  0  0
  191.7700  173.8940  141.8000 O   0  0  0  0  0  0  0  0  0  0  0  0
  193.0000  174.0880  142.4300 C   0  0  0  0  0  2  0  0  0  0  0  0
  193.1270  176.7460  145.0290 C   0  0  0  0  0  3  0  0  0  0  0  0
  192.4120  176.4150  142.8480 N   0  0  0  0  0  0  0  0  0  0  0  0
  192.9410  175.3200  143.2620 C   0  0  0  0  0  0  0  0  0  0  0  0
  192.4870  177.3580  143.8740 N   0  0  0  0  0  2  0  0  0  0  0  0
  193.4200  175.3860  144.5970 N   0  0  0  0  0  0  0  0  0  0  0  0
  1 18  1  0  0  0  0
  2 14  1  0  0  0  0
  2 27  1  0  0  0  0
  3  7  1  0  0  0  0
  4 15  1  0  0  0  0
  5 19  1  0  0  0  0
  6  7  1  0  0  0  0
  8 12  1  0  0  0  0
  8 16  1  0  0  0  0
  9 13  1  0  0  0  0
 10 22  1  0  0  0  0
 11  5  1  0  0  0  0
 11 19  1  0  0  0  0
 13 20  1  0  0  0  0
 13 24  1  0  0  0  0
 14 25  1  0  0  0  0
 15 12  1  0  0  0  0
 15  5  1  0  0  0  0
 16  3  1  0  0  0  0
 17 10  1  0  0  0  0
 18  4  2  0  0  0  0
 18 20  1  0  0  0  0
 19  6  1  0  0  0  0
 20 11  1  0  0  0  0
 21 23  2  0  0  0  0
 22 24  1  0  0  0  0
 23  4  1  0  0  0  0
 25 17  1  0  0  0  0
 25  9  1  0  0  0  0
 26 21  1  0  0  0  0
 26  1  2  0  0  0  0
 27  1  1  0  0  0  0
 27  9  1  0  0  0  0
 28 17  1  0  0  0  0
 28 29  1  0  0  0  0
 29 32  1  0  0  0  0
 31 32  2  0  0  0  0
 31 33  1  0  0  0  0
 32 34  1  0  0  0  0
 33 30  1  0  0  0  0
 34 30  2  0  0  0  0
M  END
>  <MODEL>
1

>  <REMARK>
 VINA RESULT:      -8.8      0.000      0.000
  Name = 
  3 active torsions:
  status: ('A' for Active; 'I' for Inactive)
    1  A    between atoms: C_17  and  O_28
    2  A    between atoms: O_28  and  C_29
    3  A    between atoms: C_29  and  C_32
                            x       y       z     vdW  Elec       q    Type
                         _______ _______ _______ _____ _____    ______ ____

>  <TORSDO>
F 3

$$$$
=
 OpenBabel11112417513D

 34 41  0  0  1  0  0  0  0  0999 V2000
  187.9110  175.4720  141.3460 C   0  0  0  0  0  0  0  0  0  0  0  0
  189.0740  173.7410  139.9650 C   0  0  0  0  0  2  0  0  0  0  0  0
  184.8870  176.9150  146.7310 C   0  0  0  0  0  2  0  0  0  0  0  0
  187.6020  177.4700  142.6470 C   0  0  0  0  0  0  0  0  0  0  0  0
  188.8260  177.8670  144.9130 C   0  0  1  0  0  3  0  0  0  0  0  0
  187.1690  176.2400  146.0430 C   0  0  0  0  0  2  0  0  0  0  0  0
  186.3610  176.9640  147.1030 C   0  0  0  0  0  2  0  0  0  0  0  0
  185.2230  177.9810  144.4670 C   0  0  0  0  0  2  0  0  0  0  0  0
  188.9690  173.3460  142.3780 C   0  0  2  0  0  3  0  0  0  0  0  0
  191.9150  172.4100  143.4890 C   0  0  0  0  0  2  0  0  0  0  0  0
  189.3890  176.4490  144.7270 C   0  0  1  0  0  3  0  0  0  0  0  0
  186.4380  178.8980  144.4910 C   0  0  0  0  0  2  0  0  0  0  0  0
  189.5700  174.3110  143.4250 C   0  0  1  0  0  3  0  0  0  0  0  0
  189.7590  172.4220  140.2390 C   0  0  0  0  0  2  0  0  0  0  0  0
  187.6930  178.2250  143.9350 C   0  0  2  0  0  3  0  0  0  0  0  0
  184.4980  178.0630  145.8020 C   0  0  0  0  0  2  0  0  0  0  0  0
  191.4920  172.7000  142.0390 C   0  0  1  0  0  3  0  0  0  0  0  0
  188.0810  176.1580  142.5620 C   0  0  0  0  0  0  0  0  0  0  0  0
  188.5900  176.7990  145.9900 C   0  0  1  0  0  3  0  0  0  0  0  0
  188.6370  175.4720  143.7850 C   0  0  2  0  0  3  0  0  0  0  0  0
  186.9300  177.4040  140.3840 C   0  0  0  0  0  3  0  0  0  0  0  0
  190.7510  172.2610  144.4700 C   0  0  0  0  0  2  0  0  0  0  0  0
  187.0570  178.0710  141.5570 N   0  0  0  0  0  0  0  0  0  0  0  0
  189.9900  173.5660  144.7040 C   0  0  0  0  0  2  0  0  0  0  0  0
  190.0050  172.3920  141.7360 C   0  0  1  0  0  3  0  0  0  0  0  0
  187.3410  176.1150  140.2900 N   0  0  0  0  0  0  0  0  0  0  0  0
  188.2470  174.0160  141.2030 C   0  0  1  0  0  3  0  0  0  0  0  0
  191.8260  174.0160  141.6950 O   0  0  0  0  0  0  0  0  0  0  0  0
  192.9820  173.9120  140.9200 C   0  0  0  0  0  2  0  0  0  0  0  0
  195.3010  176.1730  142.7510 C   0  0  0  0  0  3  0  0  0  0  0  0
  194.5740  175.7280  140.5940 N   0  0  0  0  0  0  0  0  0  0  0  0
  193.9820  174.9090  141.3880 C   0  0  0  0  0  0  0  0  0  0  0  0
  195.4160  176.5460  141.3490 N   0  0  0  0  0  2  0  0  0  0  0  0
  194.3380  175.0790  142.7530 N   0  0  0  0  0  0  0  0  0  0  0  0
  1 18  1  0  0  0  0
  2 14  1  0  0  0  0
  2 27  1  0  0  0  0
  3  7  1  0  0  0  0
  4 15  1  0  0  0  0
  5 19  1  0  0  0  0
  6  7  1  0  0  0  0
  8 12  1  0  0  0  0
  8 16  1  0  0  0  0
  9 13  1  0  0  0  0
 10 22  1  0  0  0  0
 11  5  1  0  0  0  0
 11 19  1  0  0  0  0
 13 20  1  0  0  0  0
 13 24  1  0  0  0  0
 14 25  1  0  0  0  0
 15 12  1  0  0  0  0
 15  5  1  0  0  0  0
 16  3  1  0  0  0  0
 17 10  1  0  0  0  0
 18  4  2  0  0  0  0
 18 20  1  0  0  0  0
 19  6  1  0  0  0  0
 20 11  1  0  0  0  0
 21 23  2  0  0  0  0
 22 24  1  0  0  0  0
 23  4  1  0  0  0  0
 25 17  1  0  0  0  0
 25  9  1  0  0  0  0
 26 21  1  0  0  0  0
 26  1  2  0  0  0  0
 27  1  1  0  0  0  0
 27  9  1  0  0  0  0
 28 17  1  0  0  0  0
 29 32  1  0  0  0  0
 29 28  1  0  0  0  0
 30 34  2  0  0  0  0
 31 33  1  0  0  0  0
 31 32  2  0  0  0  0
 32 34  1  0  0  0  0
 33 30  1  0  0  0  0
M  END
>  <MODEL>
2

>  <REMARK>
 VINA RESULT:      -8.6      1.054      1.186
  Name = 
  3 active torsions:
  status: ('A' for Active; 'I' for Inactive)
    1  A    between atoms: C_17  and  O_28
    2  A    between atoms: O_28  and  C_29
    3  A    between atoms: C_29  and  C_32
                            x       y       z     vdW  Elec       q    Type
                         _______ _______ _______ _____ _____    ______ ____

>  <TORSDO>
F 3

$$$$
=
 OpenBabel11112417513D

 34 41  0  0  1  0  0  0  0  0999 V2000
  190.6930  173.4470  143.0480 C   0  0  0  0  0  0  0  0  0  0  0  0
  192.7080  172.0960  143.6610 C   0  0  0  0  0  2  0  0  0  0  0  0
  185.9780  177.2370  144.9530 C   0  0  0  0  0  2  0  0  0  0  0  0
  189.3790  175.1820  142.0270 C   0  0  0  0  0  0  0  0  0  0  0  0
  189.7110  177.7050  142.5920 C   0  0  1  0  0  3  0  0  0  0  0  0
  188.4500  177.3260  144.8140 C   0  0  0  0  0  2  0  0  0  0  0  0
  187.1820  178.1600  144.8480 C   0  0  0  0  0  2  0  0  0  0  0  0
  186.5580  175.9230  142.8770 C   0  0  0  0  0  2  0  0  0  0  0  0
  192.0680  173.8910  145.1970 C   0  0  2  0  0  3  0  0  0  0  0  0
  194.7190  175.6310  146.0520 C   0  0  0  0  0  2  0  0  0  0  0  0
  190.7450  177.2200  143.6220 C   0  0  1  0  0  3  0  0  0  0  0  0
  187.3360  176.7960  141.9010 C   0  0  0  0  0  2  0  0  0  0  0  0
  191.9910  175.3780  144.7840 C   0  0  1  0  0  3  0  0  0  0  0  0
  193.6890  172.0810  144.8100 C   0  0  0  0  0  2  0  0  0  0  0  0
  188.8460  176.5800  141.9960 C   0  0  2  0  0  3  0  0  0  0  0  0
  185.5040  176.7650  143.5800 C   0  0  0  0  0  2  0  0  0  0  0  0
  194.6490  174.3770  145.1640 C   0  0  1  0  0  3  0  0  0  0  0  0
  190.2740  174.7890  143.0290 C   0  0  0  0  0  0  0  0  0  0  0  0
  189.5540  178.0780  144.0730 C   0  0  1  0  0  3  0  0  0  0  0  0
  190.6610  175.7540  144.1220 C   0  0  2  0  0  3  0  0  0  0  0  0
  189.4330  173.0160  141.0880 C   0  0  0  0  0  3  0  0  0  0  0  0
  193.4470  175.9120  146.8540 C   0  0  0  0  0  2  0  0  0  0  0  0
  188.9940  174.2980  141.0700 N   0  0  0  0  0  0  0  0  0  0  0  0
  192.2590  176.3110  145.9770 C   0  0  0  0  0  2  0  0  0  0  0  0
  193.5000  173.4050  145.5270 C   0  0  1  0  0  3  0  0  0  0  0  0
  190.2610  172.5980  142.0770 N   0  0  0  0  0  0  0  0  0  0  0  0
  191.5240  172.8920  144.1690 C   0  0  1  0  0  3  0  0  0  0  0  0
  194.6040  174.7460  143.8140 O   0  0  0  0  0  0  0  0  0  0  0  0
  195.4700  175.8350  143.7000 C   0  0  0  0  0  2  0  0  0  0  0  0
  197.9330  175.0210  141.0340 C   0  0  0  0  0  3  0  0  0  0  0  0
  196.0780  176.3630  141.4000 N   0  0  0  0  0  0  0  0  0  0  0  0
  196.2930  175.6850  142.4700 C   0  0  0  0  0  0  0  0  0  0  0  0
  197.0410  176.0150  140.4530 N   0  0  0  0  0  2  0  0  0  0  0  0
  197.4150  174.8180  142.3800 N   0  0  0  0  0  0  0  0  0  0  0  0
  1 27  1  0  0  0  0
  2 27  1  0  0  0  0
  2 14  1  0  0  0  0
  4 18  2  0  0  0  0
  5 11  1  0  0  0  0
  5 19  1  0  0  0  0
  6  7  1  0  0  0  0
  7  3  1  0  0  0  0
  8 16  1  0  0  0  0
  9 25  1  0  0  0  0
 10 22  1  0  0  0  0
 11 19  1  0  0  0  0
 11 20  1  0  0  0  0
 12 15  1  0  0  0  0
 12  8  1  0  0  0  0
 13  9  1  0  0  0  0
 13 24  1  0  0  0  0
 14 25  1  0  0  0  0
 15  4  1  0  0  0  0
 15  5  1  0  0  0  0
 16  3  1  0  0  0  0
 17 25  1  0  0  0  0
 17 10  1  0  0  0  0
 18  1  1  0  0  0  0
 18 20  1  0  0  0  0
 19  6  1  0  0  0  0
 20 13  1  0  0  0  0
 21 26  1  0  0  0  0
 23 21  2  0  0  0  0
 23  4  1  0  0  0  0
 24 22  1  0  0  0  0
 26  1  2  0  0  0  0
 27  9  1  0  0  0  0
 28 17  1  0  0  0  0
 29 28  1  0  0  0  0
 30 34  2  0  0  0  0
 31 32  2  0  0  0  0
 32 29  1  0  0  0  0
 33 30  1  0  0  0  0
 33 31  1  0  0  0  0
 34 32  1  0  0  0  0
M  END
>  <MODEL>
3

>  <REMARK>
 VINA RESULT:      -8.3      2.547      4.043
  Name = 
  3 active torsions:
  status: ('A' for Active; 'I' for Inactive)
    1  A    between atoms: C_17  and  O_28
    2  A    between atoms: O_28  and  C_29
    3  A    between atoms: C_29  and  C_32
                            x       y       z     vdW  Elec       q    Type
                         _______ _______ _______ _____ _____    ______ ____

>  <TORSDO>
F 3

$$$$
=
 OpenBabel11112417513D

 34 41  0  0  1  0  0  0  0  0999 V2000
  189.7660  174.0890  142.2110 C   0  0  0  0  0  0  0  0  0  0  0  0
  191.4940  172.3940  141.5780 C   0  0  0  0  0  2  0  0  0  0  0  0
  186.3080  176.7900  146.7900 C   0  0  0  0  0  2  0  0  0  0  0  0
  188.7460  176.2420  142.5340 C   0  0  0  0  0  0  0  0  0  0  0  0
  189.7010  178.0070  144.1960 C   0  0  1  0  0  3  0  0  0  0  0  0
  188.6960  176.6480  146.1490 C   0  0  0  0  0  2  0  0  0  0  0  0
  187.6620  177.4750  146.8880 C   0  0  0  0  0  2  0  0  0  0  0  0
  186.2990  176.7370  144.2660 C   0  0  0  0  0  2  0  0  0  0  0  0
  191.4800  173.1450  143.9070 C   0  0  2  0  0  3  0  0  0  0  0  0
  194.5410  173.8290  144.8810 C   0  0  0  0  0  2  0  0  0  0  0  0
  190.7300  176.9290  144.5720 C   0  0  1  0  0  3  0  0  0  0  0  0
  187.1130  177.8980  143.7120 C   0  0  0  0  0  2  0  0  0  0  0  0
  191.6800  174.6180  144.3270 C   0  0  1  0  0  3  0  0  0  0  0  0
  192.5920  171.6500  142.3010 C   0  0  0  0  0  2  0  0  0  0  0  0
  188.5370  177.4890  143.3340 C   0  0  2  0  0  3  0  0  0  0  0  0
  185.5610  177.1870  145.5180 C   0  0  0  0  0  2  0  0  0  0  0  0
  194.0760  173.2660  143.5280 C   0  0  1  0  0  3  0  0  0  0  0  0
  189.6570  175.2700  142.9650 C   0  0  0  0  0  0  0  0  0  0  0  0
  189.8310  177.5430  145.6540 C   0  0  1  0  0  3  0  0  0  0  0  0
  190.3910  175.4450  144.2710 C   0  0  2  0  0  3  0  0  0  0  0  0
  188.1910  174.9290  140.6510 C   0  0  0  0  0  3  0  0  0  0  0  0
  193.4820  173.7830  145.9840 C   0  0  0  0  0  2  0  0  0  0  0  0
  188.0490  176.0610  141.3820 N   0  0  0  0  0  0  0  0  0  0  0  0
  192.3060  174.7270  145.7290 C   0  0  0  0  0  2  0  0  0  0  0  0
  192.8000  172.3930  143.6070 C   0  0  1  0  0  3  0  0  0  0  0  0
  189.0310  173.9520  141.0740 N   0  0  0  0  0  0  0  0  0  0  0  0
  190.5950  172.9260  142.6740 C   0  0  1  0  0  3  0  0  0  0  0  0
  193.9340  174.3030  142.5980 O   0  0  0  0  0  0  0  0  0  0  0  0
  195.0230  175.1480  142.8190 C   0  0  0  0  0  2  0  0  0  0  0  0
  197.5490  175.6570  140.1350 C   0  0  0  0  0  3  0  0  0  0  0  0
  195.3200  175.0730  140.4020 N   0  0  0  0  0  0  0  0  0  0  0  0
  195.8220  175.2620  141.5690 C   0  0  0  0  0  0  0  0  0  0  0  0
  196.3180  175.2900  139.4500 N   0  0  0  0  0  2  0  0  0  0  0  0
  197.1940  175.6320  141.5480 N   0  0  0  0  0  0  0  0  0  0  0  0
  1 27  1  0  0  0  0
  1 18  1  0  0  0  0
  2 14  1  0  0  0  0
  2 27  1  0  0  0  0
  3  7  1  0  0  0  0
  4 18  2  0  0  0  0
  4 15  1  0  0  0  0
  5 11  1  0  0  0  0
  5 19  1  0  0  0  0
  6  7  1  0  0  0  0
  8 16  1  0  0  0  0
  9 13  1  0  0  0  0
 10 22  1  0  0  0  0
 11 19  1  0  0  0  0
 12  8  1  0  0  0  0
 13 24  1  0  0  0  0
 14 25  1  0  0  0  0
 15 12  1  0  0  0  0
 15  5  1  0  0  0  0
 16  3  1  0  0  0  0
 17 25  1  0  0  0  0
 17 10  1  0  0  0  0
 18 20  1  0  0  0  0
 19  6  1  0  0  0  0
 20 13  1  0  0  0  0
 20 11  1  0  0  0  0
 21 26  1  0  0  0  0
 21 23  2  0  0  0  0
 23  4  1  0  0  0  0
 24 22  1  0  0  0  0
 25  9  1  0  0  0  0
 26  1  2  0  0  0  0
 27  9  1  0  0  0  0
 28 29  1  0  0  0  0
 28 17  1  0  0  0  0
 30 34  2  0  0  0  0
 31 32  2  0  0  0  0
 32 29  1  0  0  0  0
 33 30  1  0  0  0  0
 33 31  1  0  0  0  0
 34 32  1  0  0  0  0
M  END
>  <MODEL>
4

>  <REMARK>
 VINA RESULT:      -8.0      2.309      3.001
  Name = 
  3 active torsions:
  status: ('A' for Active; 'I' for Inactive)
    1  A    between atoms: C_17  and  O_28
    2  A    between atoms: O_28  and  C_29
    3  A    between atoms: C_29  and  C_32
                            x       y       z     vdW  Elec       q    Type
                         _______ _______ _______ _____ _____    ______ ____

>  <TORSDO>
F 3

$$$$
=
 OpenBabel11112417513D

 34 41  0  0  1  0  0  0  0  0999 V2000
  189.4400  173.6520  143.2040 C   0  0  0  0  0  0  0  0  0  0  0  0
  191.2750  171.9970  142.8090 C   0  0  0  0  0  2  0  0  0  0  0  0
  186.1260  177.1180  147.3530 C   0  0  0  0  0  2  0  0  0  0  0  0
  188.2340  175.7290  143.1130 C   0  0  0  0  0  0  0  0  0  0  0  0
  189.1390  177.9220  144.1910 C   0  0  1  0  0  3  0  0  0  0  0  0
  188.4530  177.0130  146.5090 C   0  0  0  0  0  2  0  0  0  0  0  0
  187.4050  177.9120  147.1380 C   0  0  0  0  0  2  0  0  0  0  0  0
  185.9060  176.4410  144.9310 C   0  0  0  0  0  2  0  0  0  0  0  0
  191.3830  173.2980  144.8790 C   0  0  2  0  0  3  0  0  0  0  0  0
  194.4280  174.4440  145.3240 C   0  0  0  0  0  2  0  0  0  0  0  0
  190.3030  177.0560  144.7000 C   0  0  1  0  0  3  0  0  0  0  0  0
  186.5450  177.4890  144.0310 C   0  0  0  0  0  2  0  0  0  0  0  0
  191.4640  174.8400  144.9120 C   0  0  1  0  0  3  0  0  0  0  0  0
  192.5020  171.5450  143.5650 C   0  0  0  0  0  2  0  0  0  0  0  0
  187.9660  177.1140  143.6100 C   0  0  2  0  0  3  0  0  0  0  0  0
  185.2360  177.1260  146.1130 C   0  0  0  0  0  2  0  0  0  0  0  0
  193.9100  173.5280  144.2030 C   0  0  1  0  0  3  0  0  0  0  0  0
  189.2750  174.9710  143.6610 C   0  0  0  0  0  0  0  0  0  0  0  0
  189.4410  177.8450  145.6950 C   0  0  1  0  0  3  0  0  0  0  0  0
  190.0950  175.5210  144.8010 C   0  0  2  0  0  3  0  0  0  0  0  0
  187.6590  173.9510  141.6690 C   0  0  0  0  0  3  0  0  0  0  0  0
  193.4780  174.5880  146.5140 C   0  0  0  0  0  2  0  0  0  0  0  0
  187.4630  175.2140  142.1190 N   0  0  0  0  0  0  0  0  0  0  0  0
  192.1930  175.3420  146.1700 C   0  0  0  0  0  2  0  0  0  0  0  0
  192.7430  172.6030  144.6260 C   0  0  1  0  0  3  0  0  0  0  0  0
  188.6290  173.1790  142.2190 N   0  0  0  0  0  0  0  0  0  0  0  0
  190.4230  172.7100  143.8380 C   0  0  1  0  0  3  0  0  0  0  0  0
  193.5820  174.2870  143.0740 O   0  0  0  0  0  0  0  0  0  0  0  0
  194.6910  174.1950  142.2320 C   0  0  0  0  0  2  0  0  0  0  0  0
  194.1380  173.1220  138.7130 C   0  0  0  0  0  3  0  0  0  0  0  0
  193.2350  174.5430  140.3090 N   0  0  0  0  0  0  0  0  0  0  0  0
  194.2350  173.9350  140.8400 C   0  0  0  0  0  0  0  0  0  0  0  0
  193.0950  174.0990  138.9930 N   0  0  0  0  0  2  0  0  0  0  0  0
  194.8860  173.0290  139.9600 N   0  0  0  0  0  0  0  0  0  0  0  0
  1 18  1  0  0  0  0
  1 27  1  0  0  0  0
  2 14  1  0  0  0  0
  2 27  1  0  0  0  0
  4 15  1  0  0  0  0
  4 18  2  0  0  0  0
  5 11  1  0  0  0  0
  5 19  1  0  0  0  0
  6  7  1  0  0  0  0
  7  3  1  0  0  0  0
  8 16  1  0  0  0  0
  9 13  1  0  0  0  0
 10 22  1  0  0  0  0
 11 20  1  0  0  0  0
 11 19  1  0  0  0  0
 12  8  1  0  0  0  0
 13 24  1  0  0  0  0
 14 25  1  0  0  0  0
 15 12  1  0  0  0  0
 15  5  1  0  0  0  0
 16  3  1  0  0  0  0
 17 25  1  0  0  0  0
 17 10  1  0  0  0  0
 18 20  1  0  0  0  0
 19  6  1  0  0  0  0
 20 13  1  0  0  0  0
 21 23  2  0  0  0  0
 21 26  1  0  0  0  0
 23  4  1  0  0  0  0
 24 22  1  0  0  0  0
 25  9  1  0  0  0  0
 26  1  2  0  0  0  0
 27  9  1  0  0  0  0
 28 17  1  0  0  0  0
 29 28  1  0  0  0  0
 30 33  1  0  0  0  0
 30 34  2  0  0  0  0
 31 32  2  0  0  0  0
 32 29  1  0  0  0  0
 33 31  1  0  0  0  0
 34 32  1  0  0  0  0
M  END
>  <MODEL>
5

>  <REMARK>
 VINA RESULT:      -7.4      2.120      3.266
  Name = 
  3 active torsions:
  status: ('A' for Active; 'I' for Inactive)
    1  A    between atoms: C_17  and  O_28
    2  A    between atoms: O_28  and  C_29
    3  A    between atoms: C_29  and  C_32
                            x       y       z     vdW  Elec       q    Type
                         _______ _______ _______ _____ _____    ______ ____

>  <TORSDO>
F 3

$$$$
=
 OpenBabel11112417513D

 34 41  0  0  1  0  0  0  0  0999 V2000
  193.3840  175.3660  143.7660 C   0  0  0  0  0  0  0  0  0  0  0  0
  193.4730  176.7710  145.8350 C   0  0  0  0  0  2  0  0  0  0  0  0
  192.0990  169.7400  141.1380 C   0  0  0  0  0  2  0  0  0  0  0  0
  192.6920  174.6180  141.5890 C   0  0  0  0  0  0  0  0  0  0  0  0
  190.2710  173.7870  141.1000 C   0  0  1  0  0  3  0  0  0  0  0  0
  190.8480  171.5570  142.2660 C   0  0  0  0  0  2  0  0  0  0  0  0
  190.7400  170.4060  141.2840 C   0  0  0  0  0  2  0  0  0  0  0  0
  193.2830  171.8630  140.4550 C   0  0  0  0  0  2  0  0  0  0  0  0
  191.9910  174.8240  145.8800 C   0  0  2  0  0  3  0  0  0  0  0  0
  189.0740  175.6650  147.1320 C   0  0  0  0  0  2  0  0  0  0  0  0
  190.0210  173.9860  142.6040 C   0  0  1  0  0  3  0  0  0  0  0  0
  192.3130  172.8050  139.7550 C   0  0  0  0  0  2  0  0  0  0  0  0
  190.8160  174.6250  144.8970 C   0  0  1  0  0  3  0  0  0  0  0  0
  192.8260  176.7250  147.1990 C   0  0  0  0  0  2  0  0  0  0  0  0
  191.7530  173.8730  140.6940 C   0  0  2  0  0  3  0  0  0  0  0  0
  192.9560  170.4260  140.0760 C   0  0  0  0  0  2  0  0  0  0  0  0
  190.3290  176.5390  146.9730 C   0  0  1  0  0  3  0  0  0  0  0  0
  192.4350  174.7110  142.9620 C   0  0  0  0  0  0  0  0  0  0  0  0
  189.7870  172.6120  141.9610 C   0  0  1  0  0  3  0  0  0  0  0  0
  191.2430  174.0080  143.5600 C   0  0  2  0  0  3  0  0  0  0  0  0
  194.6800  175.8660  141.8460 C   0  0  0  0  0  3  0  0  0  0  0  0
  189.3190  174.1660  146.9550 C   0  0  0  0  0  2  0  0  0  0  0  0
  193.7930  175.2110  141.0580 N   0  0  0  0  0  0  0  0  0  0  0  0
  189.6910  173.7820  145.5230 C   0  0  0  0  0  2  0  0  0  0  0  0
  191.6630  175.7590  147.0690 C   0  0  1  0  0  3  0  0  0  0  0  0
  194.4800  175.9270  143.1860 N   0  0  0  0  0  0  0  0  0  0  0  0
  193.2790  175.3820  145.2640 C   0  0  1  0  0  3  0  0  0  0  0  0
  190.2510  177.2810  145.7890 O   0  0  0  0  0  0  0  0  0  0  0  0
  188.8920  177.5390  145.6030 C   0  0  0  0  0  2  0  0  0  0  0  0
  187.5150  178.0300  142.1820 C   0  0  0  0  0  3  0  0  0  0  0  0
  189.5420  177.7020  143.2600 N   0  0  0  0  0  0  0  0  0  0  0  0
  188.6190  177.7340  144.1540 C   0  0  0  0  0  0  0  0  0  0  0  0
  188.9530  177.8830  142.0080 N   0  0  0  0  0  2  0  0  0  0  0  0
  187.3160  177.9260  143.6220 N   0  0  0  0  0  0  0  0  0  0  0  0
  1 27  1  0  0  0  0
  2 14  1  0  0  0  0
  3  7  1  0  0  0  0
  4 18  1  0  0  0  0
  5 19  1  0  0  0  0
  5 11  1  0  0  0  0
  7  6  1  0  0  0  0
  9 25  1  0  0  0  0
 11 20  1  0  0  0  0
 12  8  1  0  0  0  0
 12 15  1  0  0  0  0
 13 24  1  0  0  0  0
 13  9  1  0  0  0  0
 15  5  1  0  0  0  0
 15  4  1  0  0  0  0
 16  8  1  0  0  0  0
 16  3  1  0  0  0  0
 17 25  1  0  0  0  0
 17 10  1  0  0  0  0
 18 20  1  0  0  0  0
 18  1  2  0  0  0  0
 19  6  1  0  0  0  0
 19 11  1  0  0  0  0
 20 13  1  0  0  0  0
 21 26  2  0  0  0  0
 22 10  1  0  0  0  0
 23  4  2  0  0  0  0
 23 21  1  0  0  0  0
 24 22  1  0  0  0  0
 25 14  1  0  0  0  0
 26  1  1  0  0  0  0
 27  2  1  0  0  0  0
 27  9  1  0  0  0  0
 28 17  1  0  0  0  0
 29 28  1  0  0  0  0
 30 34  2  0  0  0  0
 31 32  2  0  0  0  0
 32 29  1  0  0  0  0
 33 30  1  0  0  0  0
 33 31  1  0  0  0  0
 34 32  1  0  0  0  0
M  END
>  <MODEL>
6

>  <REMARK>
 VINA RESULT:      -7.4      2.277      6.873
  Name = 
  3 active torsions:
  status: ('A' for Active; 'I' for Inactive)
    1  A    between atoms: C_17  and  O_28
    2  A    between atoms: O_28  and  C_29
    3  A    between atoms: C_29  and  C_32
                            x       y       z     vdW  Elec       q    Type
                         _______ _______ _______ _____ _____    ______ ____

>  <TORSDO>
F 3

$$$$
=
 OpenBabel11112417513D

 34 41  0  0  1  0  0  0  0  0999 V2000
  192.4520  175.9020  145.8780 C   0  0  0  0  0  0  0  0  0  0  0  0
  190.0640  176.1260  146.5910 C   0  0  0  0  0  2  0  0  0  0  0  0
  196.9360  172.3510  143.1380 C   0  0  0  0  0  2  0  0  0  0  0  0
  194.4880  176.3490  144.6810 C   0  0  0  0  0  0  0  0  0  0  0  0
  194.6920  176.0410  142.1010 C   0  0  1  0  0  3  0  0  0  0  0  0
  194.8410  173.4880  142.4630 C   0  0  0  0  0  2  0  0  0  0  0  0
  196.1780  172.9640  141.9710 C   0  0  0  0  0  2  0  0  0  0  0  0
  196.8520  174.4450  144.5460 C   0  0  0  0  0  2  0  0  0  0  0  0
  190.5430  174.5150  144.8120 C   0  0  2  0  0  3  0  0  0  0  0  0
  188.3750  174.8660  142.3700 C   0  0  0  0  0  2  0  0  0  0  0  0
  193.2510  175.5090  142.1660 C   0  0  1  0  0  3  0  0  0  0  0  0
  196.7890  175.6770  143.6550 C   0  0  0  0  0  2  0  0  0  0  0  0
  191.1890  174.9030  143.4630 C   0  0  1  0  0  3  0  0  0  0  0  0
  188.7570  175.4770  146.2020 C   0  0  0  0  0  2  0  0  0  0  0  0
  195.3630  176.2000  143.4770 C   0  0  2  0  0  3  0  0  0  0  0  0
  197.7460  173.3970  143.9010 C   0  0  0  0  0  2  0  0  0  0  0  0
  188.4240  175.6110  143.7140 C   0  0  1  0  0  3  0  0  0  0  0  0
  193.2060  175.7880  144.6970 C   0  0  0  0  0  0  0  0  0  0  0  0
  194.3660  174.6370  141.5740 C   0  0  1  0  0  3  0  0  0  0  0  0
  192.7190  174.9760  143.5230 C   0  0  2  0  0  3  0  0  0  0  0  0
  194.1910  177.1660  146.8770 C   0  0  0  0  0  3  0  0  0  0  0  0
  189.2650  173.6230  142.3020 C   0  0  0  0  0  2  0  0  0  0  0  0
  194.9450  177.0400  145.7580 N   0  0  0  0  0  0  0  0  0  0  0  0
  190.7580  173.9500  142.3350 C   0  0  0  0  0  2  0  0  0  0  0  0
  189.0200  174.7830  144.8790 C   0  0  1  0  0  3  0  0  0  0  0  0
  192.9650  176.5890  146.9350 N   0  0  0  0  0  0  0  0  0  0  0  0
  191.1340  175.2020  146.0480 C   0  0  1  0  0  3  0  0  0  0  0  0
  189.0850  176.8350  143.5610 O   0  0  0  0  0  0  0  0  0  0  0  0
  188.3410  177.5420  142.6150 C   0  0  0  0  0  2  0  0  0  0  0  0
  185.8490  179.0610  144.9220 C   0  0  0  0  0  3  0  0  0  0  0  0
  186.3060  178.8830  142.6560 N   0  0  0  0  0  0  0  0  0  0  0  0
  187.2310  178.2620  143.2960 C   0  0  0  0  0  0  0  0  0  0  0  0
  185.4080  179.4150  143.5810 N   0  0  0  0  0  2  0  0  0  0  0  0
  187.0670  178.2910  144.7070 N   0  0  0  0  0  0  0  0  0  0  0  0
  1 27  1  0  0  0  0
  1 26  1  0  0  0  0
  3 16  1  0  0  0  0
  4 18  1  0  0  0  0
  4 23  2  0  0  0  0
  5 11  1  0  0  0  0
  5 15  1  0  0  0  0
  7  6  1  0  0  0  0
  7  3  1  0  0  0  0
  9 25  1  0  0  0  0
  9 27  1  0  0  0  0
 10 17  1  0  0  0  0
 11 20  1  0  0  0  0
 12  8  1  0  0  0  0
 13 20  1  0  0  0  0
 13  9  1  0  0  0  0
 14  2  1  0  0  0  0
 15 12  1  0  0  0  0
 15  4  1  0  0  0  0
 16  8  1  0  0  0  0
 17 25  1  0  0  0  0
 18  1  2  0  0  0  0
 19  5  1  0  0  0  0
 19 11  1  0  0  0  0
 19  6  1  0  0  0  0
 20 18  1  0  0  0  0
 21 26  2  0  0  0  0
 22 24  1  0  0  0  0
 22 10  1  0  0  0  0
 23 21  1  0  0  0  0
 24 13  1  0  0  0  0
 25 14  1  0  0  0  0
 27  2  1  0  0  0  0
 28 17  1  0  0  0  0
 29 32  1  0  0  0  0
 29 28  1  0  0  0  0
 31 32  2  0  0  0  0
 31 33  1  0  0  0  0
 32 34  1  0  0  0  0
 33 30  1  0  0  0  0
 34 30  2  0  0  0  0
M  END
>  <MODEL>
7

>  <REMARK>
 VINA RESULT:      -7.4      2.399      7.608
  Name = 
  3 active torsions:
  status: ('A' for Active; 'I' for Inactive)
    1  A    between atoms: C_17  and  O_28
    2  A    between atoms: O_28  and  C_29
    3  A    between atoms: C_29  and  C_32
                            x       y       z     vdW  Elec       q    Type
                         _______ _______ _______ _____ _____    ______ ____

>  <TORSDO>
F 3

$$$$
=
 OpenBabel11112417513D

 34 41  0  0  1  0  0  0  0  0999 V2000
  189.2390  174.9620  141.9560 C   0  0  0  0  0  0  0  0  0  0  0  0
  188.0670  177.0200  142.7640 C   0  0  0  0  0  2  0  0  0  0  0  0
  194.7050  171.8420  141.1790 C   0  0  0  0  0  2  0  0  0  0  0  0
  189.8800  172.6490  141.8270 C   0  0  0  0  0  0  0  0  0  0  0  0
  191.1210  171.4300  143.7680 C   0  0  1  0  0  3  0  0  0  0  0  0
  193.3010  172.6230  143.0640 C   0  0  0  0  0  2  0  0  0  0  0  0
  194.3420  171.6060  142.6360 C   0  0  0  0  0  2  0  0  0  0  0  0
  192.3300  171.6280  140.3490 C   0  0  0  0  0  2  0  0  0  0  0  0
  190.2640  176.5440  143.7310 C   0  0  2  0  0  3  0  0  0  0  0  0
  190.1540  176.9090  146.9930 C   0  0  0  0  0  2  0  0  0  0  0  0
  191.1330  172.7990  144.4670 C   0  0  1  0  0  3  0  0  0  0  0  0
  191.5320  170.7120  141.2660 C   0  0  0  0  0  2  0  0  0  0  0  0
  190.5890  175.2490  144.5090 C   0  0  1  0  0  3  0  0  0  0  0  0
  188.3820  178.1280  143.7410 C   0  0  0  0  0  2  0  0  0  0  0  0
  190.7000  171.4860  142.2890 C   0  0  2  0  0  3  0  0  0  0  0  0
  193.7560  171.1110  140.2310 C   0  0  0  0  0  2  0  0  0  0  0  0
  189.0370  177.1650  145.9690 C   0  0  1  0  0  3  0  0  0  0  0  0
  189.9830  173.8870  142.4720 C   0  0  0  0  0  0  0  0  0  0  0  0
  192.4510  172.0600  144.2020 C   0  0  1  0  0  3  0  0  0  0  0  0
  190.9670  174.0750  143.6000 C   0  0  2  0  0  3  0  0  0  0  0  0
  188.2950  173.5340  140.3170 C   0  0  0  0  0  3  0  0  0  0  0  0
  191.5480  176.7510  146.3840 C   0  0  0  0  0  2  0  0  0  0  0  0
  189.0280  172.4930  140.7800 N   0  0  0  0  0  0  0  0  0  0  0  0
  191.6990  175.4790  145.5500 C   0  0  0  0  0  2  0  0  0  0  0  0
  189.5410  177.6200  144.5780 C   0  0  1  0  0  3  0  0  0  0  0  0
  188.4150  174.7560  140.8940 N   0  0  0  0  0  0  0  0  0  0  0  0
  189.4000  176.3610  142.4780 C   0  0  1  0  0  3  0  0  0  0  0  0
  188.2060  176.0420  145.8730 O   0  0  0  0  0  0  0  0  0  0  0  0
  187.4480  176.0430  147.0450 C   0  0  0  0  0  2  0  0  0  0  0  0
  184.8150  178.6620  147.2620 C   0  0  0  0  0  3  0  0  0  0  0  0
  185.4030  176.8240  145.9760 N   0  0  0  0  0  0  0  0  0  0  0  0
  186.2950  176.9690  146.8890 C   0  0  0  0  0  0  0  0  0  0  0  0
  184.4480  177.8310  146.1250 N   0  0  0  0  0  2  0  0  0  0  0  0
  186.0510  178.0680  147.7560 N   0  0  0  0  0  0  0  0  0  0  0  0
  1 18  1  0  0  0  0
  1 27  1  0  0  0  0
  2 14  1  0  0  0  0
  3  7  1  0  0  0  0
  4 15  1  0  0  0  0
  4 18  2  0  0  0  0
  5 19  1  0  0  0  0
  5 11  1  0  0  0  0
  6 19  1  0  0  0  0
  7  6  1  0  0  0  0
  8 12  1  0  0  0  0
  9 13  1  0  0  0  0
  9 25  1  0  0  0  0
 12 15  1  0  0  0  0
 13 24  1  0  0  0  0
 14 25  1  0  0  0  0
 15  5  1  0  0  0  0
 16  8  1  0  0  0  0
 16  3  1  0  0  0  0
 17 10  1  0  0  0  0
 18 20  1  0  0  0  0
 19 11  1  0  0  0  0
 20 11  1  0  0  0  0
 20 13  1  0  0  0  0
 21 23  2  0  0  0  0
 21 26  1  0  0  0  0
 22 10  1  0  0  0  0
 23  4  1  0  0  0  0
 24 22  1  0  0  0  0
 25 17  1  0  0  0  0
 26  1  2  0  0  0  0
 27  2  1  0  0  0  0
 27  9  1  0  0  0  0
 28 17  1  0  0  0  0
 28 29  1  0  0  0  0
 30 34  2  0  0  0  0
 31 33  1  0  0  0  0
 31 32  2  0  0  0  0
 32 29  1  0  0  0  0
 32 34  1  0  0  0  0
 33 30  1  0  0  0  0
M  END
>  <MODEL>
8

>  <REMARK>
 VINA RESULT:      -7.3      2.556      6.944
  Name = 
  3 active torsions:
  status: ('A' for Active; 'I' for Inactive)
    1  A    between atoms: C_17  and  O_28
    2  A    between atoms: O_28  and  C_29
    3  A    between atoms: C_29  and  C_32
                            x       y       z     vdW  Elec       q    Type
                         _______ _______ _______ _____ _____    ______ ____

>  <TORSDO>
F 3

$$$$
=
 OpenBabel11112417513D

 34 41  0  0  1  0  0  0  0  0999 V2000
  192.8940  175.8660  145.9120 C   0  0  0  0  0  0  0  0  0  0  0  0
  195.3160  175.2750  146.1310 C   0  0  0  0  0  2  0  0  0  0  0  0
  188.1410  177.7700  142.1710 C   0  0  0  0  0  2  0  0  0  0  0  0
  190.5070  175.5850  145.9110 C   0  0  0  0  0  0  0  0  0  0  0  0
  189.2850  174.0070  144.2350 C   0  0  1  0  0  3  0  0  0  0  0  0
  189.6090  175.7870  142.3920 C   0  0  0  0  0  2  0  0  0  0  0  0
  188.2630  176.2800  141.8940 C   0  0  0  0  0  2  0  0  0  0  0  0
  188.5520  177.5400  144.6520 C   0  0  0  0  0  2  0  0  0  0  0  0
  194.3360  175.1250  143.8930 C   0  0  2  0  0  3  0  0  0  0  0  0
  195.2280  172.3040  142.4670 C   0  0  0  0  0  2  0  0  0  0  0  0
  190.6740  173.7720  143.6200 C   0  0  1  0  0  3  0  0  0  0  0  0
  188.0880  176.1750  145.1380 C   0  0  0  0  0  2  0  0  0  0  0  0
  193.1450  174.2050  143.5460 C   0  0  1  0  0  3  0  0  0  0  0  0
  196.4100  174.8380  145.1860 C   0  0  0  0  0  2  0  0  0  0  0  0
  189.2340  175.1690  145.2430 C   0  0  2  0  0  3  0  0  0  0  0  0
  187.6030  178.0440  143.5740 C   0  0  0  0  0  2  0  0  0  0  0  0
  195.6550  172.8540  143.8380 C   0  0  1  0  0  3  0  0  0  0  0  0
  191.7360  175.3960  145.2690 C   0  0  0  0  0  0  0  0  0  0  0  0
  189.5270  174.3040  142.7490 C   0  0  1  0  0  3  0  0  0  0  0  0
  191.7830  174.8270  143.8730 C   0  0  2  0  0  3  0  0  0  0  0  0
  191.5930  176.5610  147.7670 C   0  0  0  0  0  3  0  0  0  0  0  0
  194.5480  173.3280  141.5580 C   0  0  0  0  0  2  0  0  0  0  0  0
  190.4620  176.1430  147.1490 N   0  0  0  0  0  0  0  0  0  0  0  0
  193.1770  173.7710  142.0700 C   0  0  0  0  0  2  0  0  0  0  0  0
  195.7040  174.4000  143.9160 C   0  0  1  0  0  3  0  0  0  0  0  0
  192.7910  176.4340  147.1440 N   0  0  0  0  0  0  0  0  0  0  0  0
  194.2370  175.8520  145.2390 C   0  0  1  0  0  3  0  0  0  0  0  0
  194.8480  172.3130  144.8470 O   0  0  0  0  0  0  0  0  0  0  0  0
  194.7710  170.9480  144.5650 C   0  0  0  0  0  2  0  0  0  0  0  0
  196.7220  169.2880  147.2620 C   0  0  0  0  0  3  0  0  0  0  0  0
  194.5660  169.3710  146.4110 N   0  0  0  0  0  0  0  0  0  0  0  0
  195.2950  170.1740  145.7220 C   0  0  0  0  0  0  0  0  0  0  0  0
  195.3630  168.7810  147.3930 N   0  0  0  0  0  0  0  0  0  0  0  0
  196.6520  170.2160  146.1400 N   0  0  0  0  0  2  0  0  0  0  0  0
  1 26  1  0  0  0  0
  3 16  1  0  0  0  0
  4 23  2  0  0  0  0
  5 15  1  0  0  0  0
  6 19  1  0  0  0  0
  7  3  1  0  0  0  0
  7  6  1  0  0  0  0
  8 12  1  0  0  0  0
  9 25  1  0  0  0  0
  9 27  1  0  0  0  0
 10 17  1  0  0  0  0
 11 20  1  0  0  0  0
 11  5  1  0  0  0  0
 12 15  1  0  0  0  0
 13 20  1  0  0  0  0
 13  9  1  0  0  0  0
 14  2  1  0  0  0  0
 15  4  1  0  0  0  0
 16  8  1  0  0  0  0
 17 25  1  0  0  0  0
 17 28  1  0  0  0  0
 18  4  1  0  0  0  0
 18  1  2  0  0  0  0
 19 11  1  0  0  0  0
 19  5  1  0  0  0  0
 20 18  1  0  0  0  0
 22 24  1  0  0  0  0
 22 10  1  0  0  0  0
 23 21  1  0  0  0  0
 24 13  1  0  0  0  0
 25 14  1  0  0  0  0
 26 21  2  0  0  0  0
 27  1  1  0  0  0  0
 27  2  1  0  0  0  0
 29 28  1  0  0  0  0
 29 32  1  0  0  0  0
 30 33  2  0  0  0  0
 31 33  1  0  0  0  0
 32 34  1  0  0  0  0
 32 31  2  0  0  0  0
 34 30  1  0  0  0  0
M  END
>  <MODEL>
9

>  <REMARK>
 VINA RESULT:      -7.2      3.215      5.958
  Name = 
  3 active torsions:
  status: ('A' for Active; 'I' for Inactive)
    1  A    between atoms: C_17  and  O_28
    2  A    between atoms: O_28  and  C_29
    3  A    between atoms: C_29  and  C_32
                            x       y       z     vdW  Elec       q    Type
                         _______ _______ _______ _____ _____    ______ ____

>  <TORSDO>
F 3

$$$$
