=
 OpenBabel11112418033D

 34 40  0  0  1  0  0  0  0  0999 V2000
  188.9290  175.6080  142.6110 C   0  0  0  0  0  0  0  0  0  0  0  0
  190.9650  174.0630  142.2990 C   0  0  0  0  0  3  0  0  0  0  0  0
  184.5670  178.4600  146.4860 C   0  0  0  0  0  0  0  0  0  0  0  0
  187.0740  177.0730  143.0920 C   0  0  0  0  0  0  0  0  0  0  0  0
  186.7260  177.8380  145.3810 C   0  0  0  0  0  0  0  0  0  0  0  0
  186.6890  178.5890  147.8180 C   0  0  0  0  0  1  0  0  0  0  0  0
  184.0350  177.7830  147.4060 O   0  0  0  0  0  0  0  0  0  0  0  0
  184.4060  179.5880  144.2840 C   0  0  0  0  0  2  0  0  0  0  0  0
  190.4530  174.9090  144.4410 C   0  0  0  0  0  0  0  0  0  0  0  0
  192.6370  175.2870  146.6930 C   0  0  0  0  0  2  0  0  0  0  0  0
  187.8290  177.1230  145.7530 N   0  0  0  0  0  0  0  0  0  0  0  0
  185.0600  178.4900  143.4560 C   0  0  0  0  0  2  0  0  0  0  0  0
  189.7540  175.6210  145.3460 C   0  0  0  0  0  0  0  0  0  0  0  0
  191.9910  173.5130  143.3010 C   0  0  0  0  0  3  0  0  0  0  0  0
  186.3180  177.8330  144.0070 C   0  0  0  0  0  0  0  0  0  0  0  0
  183.7620  178.9980  145.4450 N   0  0  0  0  0  2  0  0  0  0  0  0
  192.8200  174.9880  145.2080 C   0  0  2  0  0  3  0  0  0  0  0  0
  188.1920  176.3560  143.5330 C   0  0  0  0  0  0  0  0  0  0  0  0
  186.0470  178.6830  146.4360 C   0  0  2  0  0  3  0  0  0  0  0  0
  188.5630  176.3840  144.8840 C   0  0  0  0  0  0  0  0  0  0  0  0
  187.4660  176.2790  140.8860 C   0  0  0  0  0  3  0  0  0  0  0  0
  191.5310  176.3020  146.9490 C   0  0  0  0  0  2  0  0  0  0  0  0
  186.7370  177.0140  141.7720 N   0  0  0  0  0  0  0  0  0  0  0  0
  190.1600  175.6600  146.7870 C   0  0  0  0  0  2  0  0  0  0  0  0
  191.6750  174.0990  144.6920 C   0  0  1  0  0  3  0  0  0  0  0  0
  188.5560  175.5810  141.3050 N   0  0  0  0  0  0  0  0  0  0  0  0
  190.0670  174.8800  143.0820 N   0  0  0  0  0  0  0  0  0  0  0  0
  194.0730  174.3400  145.0420 O   0  0  0  0  0  0  0  0  0  0  0  0
  195.2240  175.0790  144.8850 N   0  0  0  0  0  0  0  0  0  0  0  0
  196.7940  176.7030  142.1060 N   0  0  0  0  0  2  0  0  0  0  0  0
  194.7380  175.4620  142.5210 C   0  0  0  0  0  2  0  0  0  0  0  0
  195.5410  175.5960  143.7430 C   0  0  0  0  0  0  0  0  0  0  0  0
  195.4890  176.3420  141.5380 C   0  0  0  0  0  2  0  0  0  0  0  0
  196.7560  176.3930  143.5320 C   0  0  0  0  0  2  0  0  0  0  0  0
  1 27  1  0  0  0  0
  1 18  1  0  0  0  0
  2 27  1  0  0  0  0
  2 14  2  0  0  0  0
  3  7  2  0  0  0  0
  4 18  2  0  0  0  0
  4 15  1  0  0  0  0
  5 11  1  0  0  0  0
  5 19  1  0  0  0  0
  8 16  1  0  0  0  0
  9 25  1  0  0  0  0
  9 13  2  0  0  0  0
 10 22  1  0  0  0  0
 12 15  1  0  0  0  0
 12  8  1  0  0  0  0
 13 24  1  0  0  0  0
 15  5  2  0  0  0  0
 16  3  1  0  0  0  0
 17 28  1  1  0  0  0
 17 10  1  0  0  0  0
 18 20  1  0  0  0  0
 19  3  1  0  0  0  0
 19  6  1  1  0  0  0
 20 13  1  0  0  0  0
 20 11  2  0  0  0  0
 21 26  1  0  0  0  0
 21 23  2  0  0  0  0
 23  4  1  0  0  0  0
 24 22  1  0  0  0  0
 25 14  1  6  0  0  0
 25 17  1  0  0  0  0
 26  1  2  0  0  0  0
 27  9  1  0  0  0  0
 29 28  1  0  0  0  0
 30 34  1  0  0  0  0
 31 32  1  0  0  0  0
 32 29  2  0  0  0  0
 33 30  1  0  0  0  0
 33 31  1  0  0  0  0
 34 32  1  0  0  0  0
M  END
>  <MODEL>
1

>  <REMARK>
 VINA RESULT:      -9.3      0.000      0.000
  Name = 
  2 active torsions:
  status: ('A' for Active; 'I' for Inactive)
    1  A    between atoms: C_17  and  O_28
    2  A    between atoms: O_28  and  N_29
                            x       y       z     vdW  Elec       q    Type
                         _______ _______ _______ _____ _____    ______ ____

>  <TORSDO>
F 2

$$$$
=
 OpenBabel11112418033D

 34 40  0  0  1  0  0  0  0  0999 V2000
  189.0430  175.3580  142.7900 C   0  0  0  0  0  0  0  0  0  0  0  0
  191.0360  173.7330  142.6660 C   0  0  0  0  0  3  0  0  0  0  0  0
  184.5400  178.4890  146.2690 C   0  0  0  0  0  0  0  0  0  0  0  0
  187.2170  176.9040  143.0980 C   0  0  0  0  0  0  0  0  0  0  0  0
  186.7440  177.7550  145.3340 C   0  0  0  0  0  0  0  0  0  0  0  0
  186.5700  178.5850  147.7390 C   0  0  0  0  0  1  0  0  0  0  0  0
  183.9220  177.8620  147.1690 O   0  0  0  0  0  0  0  0  0  0  0  0
  184.5720  179.5500  144.0280 C   0  0  0  0  0  2  0  0  0  0  0  0
  190.4120  174.6650  144.7420 C   0  0  0  0  0  0  0  0  0  0  0  0
  192.4510  175.0370  147.1260 C   0  0  0  0  0  2  0  0  0  0  0  0
  187.7910  177.0130  145.8020 N   0  0  0  0  0  0  0  0  0  0  0  0
  185.2380  178.4040  143.2810 C   0  0  0  0  0  2  0  0  0  0  0  0
  189.6810  175.4310  145.5740 C   0  0  0  0  0  0  0  0  0  0  0  0
  191.9690  173.1780  143.7520 C   0  0  0  0  0  3  0  0  0  0  0  0
  186.4300  177.7200  143.9360 C   0  0  0  0  0  0  0  0  0  0  0  0
  183.8280  179.0210  145.1590 N   0  0  0  0  0  2  0  0  0  0  0  0
  192.7230  174.6840  145.6670 C   0  0  2  0  0  3  0  0  0  0  0  0
  188.2740  176.1620  143.6370 C   0  0  0  0  0  0  0  0  0  0  0  0
  186.0280  178.6580  146.3140 C   0  0  2  0  0  3  0  0  0  0  0  0
  188.5540  176.2210  145.0080 C   0  0  0  0  0  0  0  0  0  0  0  0
  187.7270  176.0250  140.9490 C   0  0  0  0  0  3  0  0  0  0  0  0
  191.3690  176.0990  147.2750 C   0  0  0  0  0  2  0  0  0  0  0  0
  186.9680  176.8150  141.7600 N   0  0  0  0  0  0  0  0  0  0  0  0
  189.9900  175.5010  147.0380 C   0  0  0  0  0  2  0  0  0  0  0  0
  191.5830  173.8210  145.1000 C   0  0  1  0  0  3  0  0  0  0  0  0
  188.7590  175.3030  141.4630 N   0  0  0  0  0  0  0  0  0  0  0  0
  190.1190  174.6060  143.3600 N   0  0  0  0  0  0  0  0  0  0  0  0
  193.9580  173.9870  145.6060 O   0  0  0  0  0  0  0  0  0  0  0  0
  195.1230  174.6570  145.3060 N   0  0  0  0  0  0  0  0  0  0  0  0
  197.8450  174.0540  143.0580 N   0  0  0  0  0  2  0  0  0  0  0  0
  195.7150  173.0060  143.6040 C   0  0  0  0  0  2  0  0  0  0  0  0
  195.9330  174.2220  144.3960 C   0  0  0  0  0  0  0  0  0  0  0  0
  196.8780  173.0360  142.6300 C   0  0  0  0  0  2  0  0  0  0  0  0
  197.1830  174.9060  144.0420 C   0  0  0  0  0  2  0  0  0  0  0  0
  1 27  1  0  0  0  0
  1 18  1  0  0  0  0
  2 27  1  0  0  0  0
  2 14  2  0  0  0  0
  3 19  1  0  0  0  0
  3  7  2  0  0  0  0
  4 18  2  0  0  0  0
  4 15  1  0  0  0  0
  5 11  1  0  0  0  0
  5 19  1  0  0  0  0
  8 16  1  0  0  0  0
  9 25  1  0  0  0  0
  9 13  2  0  0  0  0
 10 22  1  0  0  0  0
 12 15  1  0  0  0  0
 12  8  1  0  0  0  0
 13 24  1  0  0  0  0
 15  5  2  0  0  0  0
 16  3  1  0  0  0  0
 17 28  1  1  0  0  0
 17 10  1  0  0  0  0
 18 20  1  0  0  0  0
 19  6  1  1  0  0  0
 20 13  1  0  0  0  0
 20 11  2  0  0  0  0
 21 26  1  0  0  0  0
 21 23  2  0  0  0  0
 23  4  1  0  0  0  0
 24 22  1  0  0  0  0
 25 14  1  6  0  0  0
 25 17  1  0  0  0  0
 26  1  2  0  0  0  0
 27  9  1  0  0  0  0
 29 28  1  0  0  0  0
 30 34  1  0  0  0  0
 31 32  1  0  0  0  0
 32 29  2  0  0  0  0
 33 30  1  0  0  0  0
 33 31  1  0  0  0  0
 34 32  1  0  0  0  0
M  END
>  <MODEL>
2

>  <REMARK>
 VINA RESULT:      -9.2      1.027      1.090
  Name = 
  2 active torsions:
  status: ('A' for Active; 'I' for Inactive)
    1  A    between atoms: C_17  and  O_28
    2  A    between atoms: O_28  and  N_29
                            x       y       z     vdW  Elec       q    Type
                         _______ _______ _______ _____ _____    ______ ____

>  <TORSDO>
F 2

$$$$
=
 OpenBabel11112418033D

 34 40  0  0  1  0  0  0  0  0999 V2000
  188.8530  175.3420  142.6050 C   0  0  0  0  0  0  0  0  0  0  0  0
  190.8190  173.6880  142.4270 C   0  0  0  0  0  3  0  0  0  0  0  0
  184.4530  178.4930  146.1960 C   0  0  0  0  0  0  0  0  0  0  0  0
  187.0570  176.9110  142.9620 C   0  0  0  0  0  0  0  0  0  0  0  0
  186.6300  177.7380  145.2170 C   0  0  0  0  0  0  0  0  0  0  0  0
  186.5060  178.5360  147.6360 C   0  0  0  0  0  1  0  0  0  0  0  0
  183.8380  177.8620  147.0960 O   0  0  0  0  0  0  0  0  0  0  0  0
  184.4670  179.5850  143.9690 C   0  0  0  0  0  2  0  0  0  0  0  0
  190.2410  174.6010  144.5250 C   0  0  0  0  0  0  0  0  0  0  0  0
  192.3210  174.9070  146.8830 C   0  0  0  0  0  2  0  0  0  0  0  0
  187.6720  176.9730  145.6590 N   0  0  0  0  0  0  0  0  0  0  0  0
  185.1050  178.4390  143.1960 C   0  0  0  0  0  2  0  0  0  0  0  0
  189.5340  175.3650  145.3790 C   0  0  0  0  0  0  0  0  0  0  0  0
  191.7600  173.1040  143.4920 C   0  0  0  0  0  3  0  0  0  0  0  0
  186.2950  177.7280  143.8230 C   0  0  0  0  0  0  0  0  0  0  0  0
  183.7330  179.0510  145.1040 N   0  0  0  0  0  2  0  0  0  0  0  0
  192.5650  174.5700  145.4160 C   0  0  2  0  0  3  0  0  0  0  0  0
  188.1100  176.1450  143.4750 C   0  0  0  0  0  0  0  0  0  0  0  0
  185.9430  178.6370  146.2210 C   0  0  2  0  0  3  0  0  0  0  0  0
  188.4110  176.1800  144.8420 C   0  0  0  0  0  0  0  0  0  0  0  0
  187.5200  176.0560  140.7940 C   0  0  0  0  0  3  0  0  0  0  0  0
  191.2580  175.9830  147.0630 C   0  0  0  0  0  2  0  0  0  0  0  0
  186.7860  176.8450  141.6270 N   0  0  0  0  0  0  0  0  0  0  0  0
  189.8660  175.4100  146.8400 C   0  0  0  0  0  2  0  0  0  0  0  0
  191.4030  173.7330  144.8540 C   0  0  1  0  0  3  0  0  0  0  0  0
  188.5480  175.3100  141.2810 N   0  0  0  0  0  0  0  0  0  0  0  0
  189.9260  174.5650  143.1480 N   0  0  0  0  0  0  0  0  0  0  0  0
  193.7890  173.8550  145.3260 O   0  0  0  0  0  0  0  0  0  0  0  0
  193.8670  172.5510  145.7620 N   0  0  0  0  0  0  0  0  0  0  0  0
  196.4550  170.0760  145.7880 N   0  0  0  0  0  2  0  0  0  0  0  0
  196.2260  172.4130  145.1400 C   0  0  0  0  0  2  0  0  0  0  0  0
  194.9710  171.8810  145.6830 C   0  0  0  0  0  0  0  0  0  0  0  0
  197.2000  171.2780  145.3950 C   0  0  0  0  0  2  0  0  0  0  0  0
  195.1000  170.4910  146.1370 C   0  0  0  0  0  2  0  0  0  0  0  0
  1 27  1  0  0  0  0
  1 18  1  0  0  0  0
  2 27  1  0  0  0  0
  2 14  2  0  0  0  0
  3 19  1  0  0  0  0
  3  7  2  0  0  0  0
  4 18  2  0  0  0  0
  4 15  1  0  0  0  0
  5 11  1  0  0  0  0
  5 19  1  0  0  0  0
  8 16  1  0  0  0  0
  9 25  1  0  0  0  0
  9 13  2  0  0  0  0
 10 22  1  0  0  0  0
 12 15  1  0  0  0  0
 12  8  1  0  0  0  0
 13 24  1  0  0  0  0
 15  5  2  0  0  0  0
 16  3  1  0  0  0  0
 17 28  1  1  0  0  0
 17 10  1  0  0  0  0
 18 20  1  0  0  0  0
 19  6  1  1  0  0  0
 20 13  1  0  0  0  0
 20 11  2  0  0  0  0
 21 26  1  0  0  0  0
 21 23  2  0  0  0  0
 23  4  1  0  0  0  0
 24 22  1  0  0  0  0
 25 14  1  6  0  0  0
 25 17  1  0  0  0  0
 26  1  2  0  0  0  0
 27  9  1  0  0  0  0
 28 29  1  0  0  0  0
 30 34  1  0  0  0  0
 31 33  1  0  0  0  0
 31 32  1  0  0  0  0
 32 29  2  0  0  0  0
 32 34  1  0  0  0  0
 33 30  1  0  0  0  0
M  END
>  <MODEL>
3

>  <REMARK>
 VINA RESULT:      -8.9      1.907      2.390
  Name = 
  2 active torsions:
  status: ('A' for Active; 'I' for Inactive)
    1  A    between atoms: C_17  and  O_28
    2  A    between atoms: O_28  and  N_29
                            x       y       z     vdW  Elec       q    Type
                         _______ _______ _______ _____ _____    ______ ____

>  <TORSDO>
F 2

$$$$
=
 OpenBabel11112418033D

 34 40  0  0  1  0  0  0  0  0999 V2000
  187.8160  175.8550  141.1060 C   0  0  0  0  0  0  0  0  0  0  0  0
  185.9880  177.1690  139.8540 C   0  0  0  0  0  3  0  0  0  0  0  0
  191.8040  175.2120  146.1910 C   0  0  0  0  0  0  0  0  0  0  0  0
  189.4740  174.7210  142.4410 C   0  0  0  0  0  0  0  0  0  0  0  0
  189.7350  175.3370  144.7870 C   0  0  0  0  0  0  0  0  0  0  0  0
  189.6910  176.0800  147.2260 C   0  0  0  0  0  1  0  0  0  0  0  0
  192.4230  176.2260  146.6110 O   0  0  0  0  0  0  0  0  0  0  0  0
  191.8100  173.0350  145.0030 C   0  0  0  0  0  2  0  0  0  0  0  0
  186.4020  177.6180  142.1340 C   0  0  0  0  0  0  0  0  0  0  0  0
  184.2010  178.8030  144.0650 C   0  0  0  0  0  2  0  0  0  0  0  0
  188.7340  176.2510  144.6240 N   0  0  0  0  0  0  0  0  0  0  0  0
  191.2950  173.5440  143.6640 C   0  0  0  0  0  2  0  0  0  0  0  0
  187.0110  177.4640  143.3250 C   0  0  0  0  0  0  0  0  0  0  0  0
  185.0460  178.2920  140.3110 C   0  0  0  0  0  3  0  0  0  0  0  0
  190.1330  174.5270  143.6720 C   0  0  0  0  0  0  0  0  0  0  0  0
  192.5300  174.1010  145.6800 N   0  0  0  0  0  2  0  0  0  0  0  0
  184.0480  178.2370  142.6560 C   0  0  2  0  0  3  0  0  0  0  0  0
  188.4570  175.6780  142.3350 C   0  0  0  0  0  0  0  0  0  0  0  0
  190.3080  175.1600  146.1760 C   0  0  2  0  0  3  0  0  0  0  0  0
  188.0930  176.4500  143.4450 C   0  0  0  0  0  0  0  0  0  0  0  0
  189.1730  174.1800  140.1460 C   0  0  0  0  0  3  0  0  0  0  0  0
  185.1710  177.9930  144.9140 C   0  0  0  0  0  2  0  0  0  0  0  0
  189.8080  173.9940  141.3370 N   0  0  0  0  0  0  0  0  0  0  0  0
  186.6110  178.2830  144.5140 C   0  0  0  0  0  2  0  0  0  0  0  0
  185.2930  178.5550  141.8100 C   0  0  1  0  0  3  0  0  0  0  0  0
  188.1820  175.1060  140.0330 N   0  0  0  0  0  0  0  0  0  0  0  0
  186.7810  176.8390  141.0160 N   0  0  0  0  0  0  0  0  0  0  0  0
  182.8860  178.8110  142.0750 O   0  0  0  0  0  0  0  0  0  0  0  0
  181.8540  178.0080  141.6440 N   0  0  0  0  0  0  0  0  0  0  0  0
  178.6430  178.6330  140.1860 N   0  0  0  0  0  2  0  0  0  0  0  0
  180.5690  179.9470  140.8950 C   0  0  0  0  0  2  0  0  0  0  0  0
  180.7920  178.5110  141.1050 C   0  0  0  0  0  0  0  0  0  0  0  0
  179.2550  179.9670  140.1350 C   0  0  0  0  0  2  0  0  0  0  0  0
  179.6690  177.6930  140.6290 C   0  0  0  0  0  2  0  0  0  0  0  0
  1 18  1  0  0  0  0
  2 14  2  0  0  0  0
  2 27  1  0  0  0  0
  3  7  2  0  0  0  0
  4 15  1  0  0  0  0
  5 19  1  0  0  0  0
  8 16  1  0  0  0  0
  9 13  2  0  0  0  0
 10 22  1  0  0  0  0
 11  5  1  0  0  0  0
 12 15  1  0  0  0  0
 12  8  1  0  0  0  0
 13 20  1  0  0  0  0
 13 24  1  0  0  0  0
 15  5  2  0  0  0  0
 16  3  1  0  0  0  0
 17 28  1  6  0  0  0
 17 10  1  0  0  0  0
 18  4  2  0  0  0  0
 18 20  1  0  0  0  0
 19  3  1  0  0  0  0
 19  6  1  1  0  0  0
 20 11  2  0  0  0  0
 21 23  2  0  0  0  0
 23  4  1  0  0  0  0
 24 22  1  0  0  0  0
 25 14  1  6  0  0  0
 25  9  1  0  0  0  0
 25 17  1  0  0  0  0
 26 21  1  0  0  0  0
 26  1  2  0  0  0  0
 27  1  1  0  0  0  0
 27  9  1  0  0  0  0
 29 28  1  0  0  0  0
 30 34  1  0  0  0  0
 31 32  1  0  0  0  0
 32 29  2  0  0  0  0
 33 30  1  0  0  0  0
 33 31  1  0  0  0  0
 34 32  1  0  0  0  0
M  END
>  <MODEL>
4

>  <REMARK>
 VINA RESULT:      -8.6      2.976      9.030
  Name = 
  2 active torsions:
  status: ('A' for Active; 'I' for Inactive)
    1  A    between atoms: C_17  and  O_28
    2  A    between atoms: O_28  and  N_29
                            x       y       z     vdW  Elec       q    Type
                         _______ _______ _______ _____ _____    ______ ____

>  <TORSDO>
F 2

$$$$
=
 OpenBabel11112418033D

 34 40  0  0  1  0  0  0  0  0999 V2000
  189.3020  176.8980  146.2690 C   0  0  0  0  0  0  0  0  0  0  0  0
  186.7720  177.3640  146.3680 C   0  0  0  0  0  3  0  0  0  0  0  0
  194.4070  174.1210  143.3700 C   0  0  0  0  0  0  0  0  0  0  0  0
  191.6490  176.4190  145.9860 C   0  0  0  0  0  0  0  0  0  0  0  0
  192.4450  175.6070  143.8280 C   0  0  0  0  0  0  0  0  0  0  0  0
  193.0140  174.9140  141.4410 C   0  0  0  0  0  1  0  0  0  0  0  0
  194.3010  172.9360  142.9550 O   0  0  0  0  0  0  0  0  0  0  0  0
  195.3170  175.7490  145.0040 C   0  0  0  0  0  2  0  0  0  0  0  0
  187.7400  176.5690  144.3680 C   0  0  0  0  0  0  0  0  0  0  0  0
  186.4830  177.1260  141.5240 C   0  0  0  0  0  2  0  0  0  0  0  0
  191.1630  175.6820  143.3640 N   0  0  0  0  0  0  0  0  0  0  0  0
  194.0730  175.8630  145.8750 C   0  0  0  0  0  2  0  0  0  0  0  0
  188.7400  176.1490  143.5700 C   0  0  0  0  0  0  0  0  0  0  0  0
  185.6630  177.1990  145.3180 C   0  0  0  0  0  3  0  0  0  0  0  0
  192.7240  175.9890  145.1820 C   0  0  0  0  0  0  0  0  0  0  0  0
  195.3520  174.4340  144.3850 N   0  0  0  0  0  2  0  0  0  0  0  0
  186.1370  177.7480  142.8730 C   0  0  2  0  0  3  0  0  0  0  0  0
  190.3550  176.4700  145.4560 C   0  0  0  0  0  0  0  0  0  0  0  0
  193.5270  175.2140  142.8470 C   0  0  2  0  0  3  0  0  0  0  0  0
  190.1190  176.0910  144.1280 C   0  0  0  0  0  0  0  0  0  0  0  0
  190.8030  177.2000  148.0650 C   0  0  0  0  0  3  0  0  0  0  0  0
  187.9830  176.9420  141.3370 C   0  0  0  0  0  2  0  0  0  0  0  0
  191.8400  176.7860  147.2850 N   0  0  0  0  0  0  0  0  0  0  0  0
  188.4870  175.7560  142.1470 C   0  0  0  0  0  2  0  0  0  0  0  0
  186.3060  176.7170  144.0020 C   0  0  1  0  0  3  0  0  0  0  0  0
  189.5410  177.2570  147.5580 N   0  0  0  0  0  0  0  0  0  0  0  0
  187.9860  176.9420  145.7090 N   0  0  0  0  0  0  0  0  0  0  0  0
  184.7960  178.2110  142.8130 O   0  0  0  0  0  0  0  0  0  0  0  0
  184.0160  177.9460  141.7100 N   0  0  0  0  0  0  0  0  0  0  0  0
  180.5690  178.4810  140.8990 N   0  0  0  0  0  2  0  0  0  0  0  0
  182.0650  178.9830  142.7550 C   0  0  0  0  0  2  0  0  0  0  0  0
  182.7700  178.2920  141.6690 C   0  0  0  0  0  0  0  0  0  0  0  0
  180.7010  179.2470  142.1440 C   0  0  0  0  0  2  0  0  0  0  0  0
  181.9030  178.0310  140.5130 C   0  0  0  0  0  2  0  0  0  0  0  0
  1 26  1  0  0  0  0
  3 16  1  0  0  0  0
  4 23  2  0  0  0  0
  5 15  2  0  0  0  0
  7  3  2  0  0  0  0
  8 12  1  0  0  0  0
  9 27  1  0  0  0  0
 10 17  1  0  0  0  0
 11  5  1  0  0  0  0
 11 20  2  0  0  0  0
 13 20  1  0  0  0  0
 13  9  2  0  0  0  0
 14  2  2  0  0  0  0
 15 12  1  0  0  0  0
 15  4  1  0  0  0  0
 16  8  1  0  0  0  0
 17 28  1  6  0  0  0
 17 25  1  0  0  0  0
 18  4  1  0  0  0  0
 18  1  2  0  0  0  0
 19  6  1  6  0  0  0
 19  3  1  0  0  0  0
 19  5  1  0  0  0  0
 20 18  1  0  0  0  0
 22 10  1  0  0  0  0
 22 24  1  0  0  0  0
 23 21  1  0  0  0  0
 24 13  1  0  0  0  0
 25  9  1  0  0  0  0
 25 14  1  1  0  0  0
 26 21  2  0  0  0  0
 27  1  1  0  0  0  0
 27  2  1  0  0  0  0
 29 28  1  0  0  0  0
 30 33  1  0  0  0  0
 32 29  2  0  0  0  0
 32 31  1  0  0  0  0
 33 31  1  0  0  0  0
 34 30  1  0  0  0  0
 34 32  1  0  0  0  0
M  END
>  <MODEL>
5

>  <REMARK>
 VINA RESULT:      -8.3      2.329      9.150
  Name = 
  2 active torsions:
  status: ('A' for Active; 'I' for Inactive)
    1  A    between atoms: C_17  and  O_28
    2  A    between atoms: O_28  and  N_29
                            x       y       z     vdW  Elec       q    Type
                         _______ _______ _______ _____ _____    ______ ____

>  <TORSDO>
F 2

$$$$
=
 OpenBabel11112418033D

 34 40  0  0  1  0  0  0  0  0999 V2000
  190.4150  174.9280  145.1630 C   0  0  0  0  0  0  0  0  0  0  0  0
  192.1920  173.4480  144.0310 C   0  0  0  0  0  3  0  0  0  0  0  0
  185.4870  179.1360  144.7320 C   0  0  0  0  0  0  0  0  0  0  0  0
  188.6530  176.3130  146.0530 C   0  0  0  0  0  0  0  0  0  0  0  0
  186.8550  177.0450  144.5760 C   0  0  0  0  0  0  0  0  0  0  0  0
  185.0430  177.5390  142.8500 C   0  0  0  0  0  1  0  0  0  0  0  0
  185.5660  180.0840  143.9060 O   0  0  0  0  0  0  0  0  0  0  0  0
  185.5260  178.3240  147.0750 C   0  0  0  0  0  2  0  0  0  0  0  0
  190.3710  174.2640  142.7720 C   0  0  0  0  0  0  0  0  0  0  0  0
  189.2850  172.7950  140.1950 C   0  0  0  0  0  2  0  0  0  0  0  0
  187.4560  176.3600  143.5590 N   0  0  0  0  0  0  0  0  0  0  0  0
  186.9640  177.8250  147.0830 C   0  0  0  0  0  2  0  0  0  0  0  0
  189.2260  174.9420  142.5660 C   0  0  0  0  0  0  0  0  0  0  0  0
  192.3410  172.9620  142.5820 C   0  0  0  0  0  3  0  0  0  0  0  0
  187.4520  177.0320  145.8800 C   0  0  0  0  0  0  0  0  0  0  0  0
  185.3990  179.4160  146.1240 N   0  0  0  0  0  2  0  0  0  0  0  0
  190.2730  172.2990  141.2460 C   0  0  2  0  0  3  0  0  0  0  0  0
  189.2240  175.6340  144.9710 C   0  0  0  0  0  0  0  0  0  0  0  0
  185.5250  177.7070  144.2890 C   0  0  2  0  0  3  0  0  0  0  0  0
  188.6130  175.6680  143.7110 C   0  0  0  0  0  0  0  0  0  0  0  0
  190.4410  175.5740  147.4330 C   0  0  0  0  0  3  0  0  0  0  0  0
  188.1250  173.5700  140.8070 C   0  0  0  0  0  2  0  0  0  0  0  0
  189.2800  176.2660  147.2630 N   0  0  0  0  0  0  0  0  0  0  0  0
  188.5670  174.9660  141.2200 C   0  0  0  0  0  2  0  0  0  0  0  0
  191.1290  173.4640  141.7730 C   0  0  1  0  0  3  0  0  0  0  0  0
  191.0040  174.9080  146.3880 N   0  0  0  0  0  0  0  0  0  0  0  0
  190.9860  174.2420  144.0450 N   0  0  0  0  0  0  0  0  0  0  0  0
  191.0910  171.3060  140.6470 O   0  0  0  0  0  0  0  0  0  0  0  0
  191.3640  171.3480  139.2980 N   0  0  0  0  0  0  0  0  0  0  0  0
  191.1920  168.9560  136.6380 N   0  0  0  0  0  2  0  0  0  0  0  0
  190.6540  169.0270  139.0130 C   0  0  0  0  0  2  0  0  0  0  0  0
  191.1700  170.3170  138.5410 C   0  0  0  0  0  0  0  0  0  0  0  0
  190.5120  168.2390  137.7240 C   0  0  0  0  0  2  0  0  0  0  0  0
  191.4450  170.3180  137.0990 C   0  0  0  0  0  2  0  0  0  0  0  0
  1 26  1  0  0  0  0
  2 27  1  0  0  0  0
  3 16  1  0  0  0  0
  4 23  2  0  0  0  0
  5 15  2  0  0  0  0
  7  3  2  0  0  0  0
  8 12  1  0  0  0  0
  9 27  1  0  0  0  0
 10 22  1  0  0  0  0
 10 17  1  0  0  0  0
 11 20  2  0  0  0  0
 11  5  1  0  0  0  0
 13  9  2  0  0  0  0
 13 20  1  0  0  0  0
 14  2  2  0  0  0  0
 15  4  1  0  0  0  0
 15 12  1  0  0  0  0
 16  8  1  0  0  0  0
 17 28  1  6  0  0  0
 17 25  1  0  0  0  0
 18  1  2  0  0  0  0
 18  4  1  0  0  0  0
 19  6  1  6  0  0  0
 19  5  1  0  0  0  0
 19  3  1  0  0  0  0
 20 18  1  0  0  0  0
 22 24  1  0  0  0  0
 23 21  1  0  0  0  0
 24 13  1  0  0  0  0
 25 14  1  1  0  0  0
 25  9  1  0  0  0  0
 26 21  2  0  0  0  0
 27  1  1  0  0  0  0
 29 28  1  0  0  0  0
 30 34  1  0  0  0  0
 30 33  1  0  0  0  0
 32 31  1  0  0  0  0
 32 29  2  0  0  0  0
 33 31  1  0  0  0  0
 34 32  1  0  0  0  0
M  END
>  <MODEL>
6

>  <REMARK>
 VINA RESULT:      -8.3      3.363      5.514
  Name = 
  2 active torsions:
  status: ('A' for Active; 'I' for Inactive)
    1  A    between atoms: C_17  and  O_28
    2  A    between atoms: O_28  and  N_29
                            x       y       z     vdW  Elec       q    Type
                         _______ _______ _______ _____ _____    ______ ____

>  <TORSDO>
F 2

$$$$
=
 OpenBabel11112418033D

 34 40  0  0  1  0  0  0  0  0999 V2000
  193.0770  175.8110  144.7650 C   0  0  0  0  0  0  0  0  0  0  0  0
  191.1450  177.4380  144.2630 C   0  0  0  0  0  3  0  0  0  0  0  0
  195.1700  169.8470  146.2580 C   0  0  0  0  0  0  0  0  0  0  0  0
  194.7630  174.1400  145.1910 C   0  0  0  0  0  0  0  0  0  0  0  0
  194.1680  171.7800  145.0230 C   0  0  0  0  0  0  0  0  0  0  0  0
  193.3060  169.4110  144.6380 C   0  0  0  0  0  1  0  0  0  0  0  0
  194.5540  169.1880  147.1380 O   0  0  0  0  0  0  0  0  0  0  0  0
  197.1620  171.1430  145.5500 C   0  0  0  0  0  2  0  0  0  0  0  0
  190.7740  175.1100  144.1580 C   0  0  0  0  0  0  0  0  0  0  0  0
  188.5200  173.8220  142.3580 C   0  0  0  0  0  2  0  0  0  0  0  0
  192.8980  172.1580  144.6900 N   0  0  0  0  0  0  0  0  0  0  0  0
  196.5750  172.5310  145.7630 C   0  0  0  0  0  2  0  0  0  0  0  0
  191.1090  173.8080  144.2380 C   0  0  0  0  0  0  0  0  0  0  0  0
  189.6730  177.1920  143.9000 C   0  0  0  0  0  3  0  0  0  0  0  0
  195.1540  172.7880  145.2820 C   0  0  0  0  0  0  0  0  0  0  0  0
  196.5300  170.2060  146.4650 N   0  0  0  0  0  2  0  0  0  0  0  0
  189.0500  175.2520  142.3680 C   0  0  2  0  0  3  0  0  0  0  0  0
  193.4450  174.4650  144.8500 C   0  0  0  0  0  0  0  0  0  0  0  0
  194.4890  170.3020  145.0040 C   0  0  2  0  0  3  0  0  0  0  0  0
  192.5080  173.4540  144.6020 C   0  0  0  0  0  0  0  0  0  0  0  0
  195.2700  176.4560  145.3490 C   0  0  0  0  0  3  0  0  0  0  0  0
  189.6290  172.7900  142.5170 C   0  0  0  0  0  2  0  0  0  0  0  0
  195.6460  175.1500  145.4340 N   0  0  0  0  0  0  0  0  0  0  0  0
  190.1070  172.7290  143.9610 C   0  0  0  0  0  2  0  0  0  0  0  0
  189.4450  175.6710  143.7940 C   0  0  1  0  0  3  0  0  0  0  0  0
  193.9920  176.7830  145.0150 N   0  0  0  0  0  0  0  0  0  0  0  0
  191.7240  176.1240  144.4170 N   0  0  0  0  0  0  0  0  0  0  0  0
  188.0330  176.1020  141.8580 O   0  0  0  0  0  0  0  0  0  0  0  0
  186.9550  176.4470  142.6440 N   0  0  0  0  0  0  0  0  0  0  0  0
  184.0010  178.4000  142.1140 N   0  0  0  0  0  2  0  0  0  0  0  0
  185.9060  177.6510  140.7940 C   0  0  0  0  0  2  0  0  0  0  0  0
  185.9790  177.1520  142.1720 C   0  0  0  0  0  0  0  0  0  0  0  0
  184.5320  178.2930  140.7490 C   0  0  0  0  0  2  0  0  0  0  0  0
  184.8110  177.5410  142.9720 C   0  0  0  0  0  2  0  0  0  0  0  0
  1 18  2  0  0  0  0
  1 26  1  0  0  0  0
  2 27  1  0  0  0  0
  3 16  1  0  0  0  0
  3  7  2  0  0  0  0
  4 15  1  0  0  0  0
  4 23  2  0  0  0  0
  5 15  2  0  0  0  0
  8 12  1  0  0  0  0
  8 16  1  0  0  0  0
  9 13  2  0  0  0  0
  9 27  1  0  0  0  0
 10 17  1  0  0  0  0
 10 22  1  0  0  0  0
 11  5  1  0  0  0  0
 13 20  1  0  0  0  0
 14  2  2  0  0  0  0
 15 12  1  0  0  0  0
 17 28  1  1  0  0  0
 17 25  1  0  0  0  0
 18  4  1  0  0  0  0
 19  6  1  1  0  0  0
 19  5  1  0  0  0  0
 19  3  1  0  0  0  0
 20 11  2  0  0  0  0
 20 18  1  0  0  0  0
 21 23  1  0  0  0  0
 22 24  1  0  0  0  0
 24 13  1  0  0  0  0
 25 14  1  6  0  0  0
 25  9  1  0  0  0  0
 26 21  2  0  0  0  0
 27  1  1  0  0  0  0
 28 29  1  0  0  0  0
 30 34  1  0  0  0  0
 31 32  1  0  0  0  0
 32 29  2  0  0  0  0
 32 34  1  0  0  0  0
 33 31  1  0  0  0  0
 33 30  1  0  0  0  0
M  END
>  <MODEL>
7

>  <REMARK>
 VINA RESULT:      -8.3      3.102      9.132
  Name = 
  2 active torsions:
  status: ('A' for Active; 'I' for Inactive)
    1  A    between atoms: C_17  and  O_28
    2  A    between atoms: O_28  and  N_29
                            x       y       z     vdW  Elec       q    Type
                         _______ _______ _______ _____ _____    ______ ____

>  <TORSDO>
F 2

$$$$
=
 OpenBabel11112418033D

 34 40  0  0  1  0  0  0  0  0999 V2000
  188.8730  174.4620  140.7990 C   0  0  0  0  0  0  0  0  0  0  0  0
  188.1290  176.7640  141.6820 C   0  0  0  0  0  3  0  0  0  0  0  0
  192.8480  169.3350  141.0960 C   0  0  0  0  0  0  0  0  0  0  0  0
  189.6590  172.2770  140.1460 C   0  0  0  0  0  0  0  0  0  0  0  0
  191.0920  171.0240  141.6700 C   0  0  0  0  0  0  0  0  0  0  0  0
  192.4480  169.8910  143.5090 C   0  0  0  0  0  1  0  0  0  0  0  0
  194.0820  169.5300  141.2590 O   0  0  0  0  0  0  0  0  0  0  0  0
  190.9540  168.6820  139.6350 C   0  0  0  0  0  2  0  0  0  0  0  0
  189.5230  175.3960  143.0060 C   0  0  0  0  0  0  0  0  0  0  0  0
  189.6050  175.5880  146.1570 C   0  0  0  0  0  2  0  0  0  0  0  0
  191.0050  172.0630  142.5530 N   0  0  0  0  0  0  0  0  0  0  0  0
  190.4800  170.0880  139.2930 C   0  0  0  0  0  2  0  0  0  0  0  0
  190.2430  174.2970  143.3000 C   0  0  0  0  0  0  0  0  0  0  0  0
  188.4450  177.5060  142.9880 C   0  0  0  0  0  3  0  0  0  0  0  0
  190.3990  171.1080  140.4190 C   0  0  0  0  0  0  0  0  0  0  0  0
  192.3810  168.7070  139.9090 N   0  0  0  0  0  2  0  0  0  0  0  0
  188.6150  176.2080  145.1760 C   0  0  2  0  0  3  0  0  0  0  0  0
  189.6110  173.3110  141.0880 C   0  0  0  0  0  0  0  0  0  0  0  0
  191.8440  169.7880  142.1110 C   0  0  2  0  0  3  0  0  0  0  0  0
  190.3000  173.1940  142.3020 C   0  0  0  0  0  0  0  0  0  0  0  0
  188.2700  173.5590  138.7040 C   0  0  0  0  0  3  0  0  0  0  0  0
  189.9920  174.1660  145.7720 C   0  0  0  0  0  2  0  0  0  0  0  0
  188.9840  172.4300  138.9710 N   0  0  0  0  0  0  0  0  0  0  0  0
  190.9690  174.1690  144.6050 C   0  0  0  0  0  2  0  0  0  0  0  0
  189.3240  176.5920  143.8660 C   0  0  1  0  0  3  0  0  0  0  0  0
  188.2150  174.5680  139.6150 N   0  0  0  0  0  0  0  0  0  0  0  0
  188.8380  175.5090  141.7740 N   0  0  0  0  0  0  0  0  0  0  0  0
  188.0440  177.3520  145.7930 O   0  0  0  0  0  0  0  0  0  0  0  0
  186.7890  177.2870  146.3560 N   0  0  0  0  0  0  0  0  0  0  0  0
  183.6910  178.9830  145.7630 N   0  0  0  0  0  2  0  0  0  0  0  0
  185.9220  178.9460  144.7850 C   0  0  0  0  0  2  0  0  0  0  0  0
  185.8130  178.0070  145.9080 C   0  0  0  0  0  0  0  0  0  0  0  0
  184.4890  179.4150  144.6100 C   0  0  0  0  0  2  0  0  0  0  0  0
  184.4590  177.9670  146.4770 C   0  0  0  0  0  2  0  0  0  0  0  0
  1 18  1  0  0  0  0
  1 27  1  0  0  0  0
  2 27  1  0  0  0  0
  2 14  2  0  0  0  0
  3  7  2  0  0  0  0
  3 19  1  0  0  0  0
  4 15  2  0  0  0  0
  4 18  1  0  0  0  0
  5 19  1  0  0  0  0
  5 11  2  0  0  0  0
  8 16  1  0  0  0  0
  9 13  2  0  0  0  0
  9 25  1  0  0  0  0
 12  8  1  0  0  0  0
 12 15  1  0  0  0  0
 13 24  1  0  0  0  0
 15  5  1  0  0  0  0
 16  3  1  0  0  0  0
 17 28  1  1  0  0  0
 17 10  1  0  0  0  0
 18 20  2  0  0  0  0
 19  6  1  1  0  0  0
 20 11  1  0  0  0  0
 20 13  1  0  0  0  0
 21 23  2  0  0  0  0
 21 26  1  0  0  0  0
 22 10  1  0  0  0  0
 23  4  1  0  0  0  0
 24 22  1  0  0  0  0
 25 14  1  6  0  0  0
 25 17  1  0  0  0  0
 26  1  2  0  0  0  0
 27  9  1  0  0  0  0
 28 29  1  0  0  0  0
 30 34  1  0  0  0  0
 31 32  1  0  0  0  0
 32 29  2  0  0  0  0
 32 34  1  0  0  0  0
 33 31  1  0  0  0  0
 33 30  1  0  0  0  0
M  END
>  <MODEL>
8

>  <REMARK>
 VINA RESULT:      -8.1      3.072      8.437
  Name = 
  2 active torsions:
  status: ('A' for Active; 'I' for Inactive)
    1  A    between atoms: C_17  and  O_28
    2  A    between atoms: O_28  and  N_29
                            x       y       z     vdW  Elec       q    Type
                         _______ _______ _______ _____ _____    ______ ____

>  <TORSDO>
F 2

$$$$
=
 OpenBabel11112418033D

 34 40  0  0  1  0  0  0  0  0999 V2000
  191.1580  172.5570  142.8720 C   0  0  0  0  0  0  0  0  0  0  0  0
  188.7270  172.7900  142.0550 C   0  0  0  0  0  3  0  0  0  0  0  0
  196.9590  175.2000  144.1120 C   0  0  0  0  0  0  0  0  0  0  0  0
  193.4340  172.5330  143.6680 C   0  0  0  0  0  0  0  0  0  0  0  0
  194.5200  174.6430  144.2280 C   0  0  0  0  0  0  0  0  0  0  0  0
  195.3490  176.9690  144.8690 C   0  0  0  0  0  1  0  0  0  0  0  0
  197.4500  176.0080  143.2800 O   0  0  0  0  0  0  0  0  0  0  0  0
  196.9520  172.9650  145.1860 C   0  0  0  0  0  2  0  0  0  0  0  0
  189.9550  174.7170  142.6440 C   0  0  0  0  0  0  0  0  0  0  0  0
  188.5780  177.3810  143.6330 C   0  0  0  0  0  2  0  0  0  0  0  0
  193.3670  175.2900  143.8870 N   0  0  0  0  0  0  0  0  0  0  0  0
  195.8170  172.3620  144.3710 C   0  0  0  0  0  2  0  0  0  0  0  0
  191.0300  175.4030  143.0770 C   0  0  0  0  0  0  0  0  0  0  0  0
  187.8410  174.0240  141.8300 C   0  0  0  0  0  3  0  0  0  0  0  0
  194.5790  173.2150  144.1290 C   0  0  0  0  0  0  0  0  0  0  0  0
  197.6290  173.9790  144.3950 N   0  0  0  0  0  2  0  0  0  0  0  0
  187.9740  175.9930  143.4440 C   0  0  2  0  0  3  0  0  0  0  0  0
  192.2820  173.2510  143.3280 C   0  0  0  0  0  0  0  0  0  0  0  0
  195.6520  175.4750  144.7910 C   0  0  2  0  0  3  0  0  0  0  0  0
  192.2590  174.6470  143.4380 C   0  0  0  0  0  0  0  0  0  0  0  0
  192.3190  170.5140  143.0920 C   0  0  0  0  0  3  0  0  0  0  0  0
  189.9730  177.3300  144.2430 C   0  0  0  0  0  2  0  0  0  0  0  0
  193.4230  171.1750  143.5390 N   0  0  0  0  0  0  0  0  0  0  0  0
  190.9990  176.8960  143.2060 C   0  0  0  0  0  2  0  0  0  0  0  0
  188.6340  175.2770  142.2540 C   0  0  1  0  0  3  0  0  0  0  0  0
  191.1930  171.2030  142.7620 N   0  0  0  0  0  0  0  0  0  0  0  0
  189.9890  173.3080  142.5280 N   0  0  0  0  0  0  0  0  0  0  0  0
  186.5790  176.1460  143.2270 O   0  0  0  0  0  0  0  0  0  0  0  0
  185.9870  177.3840  143.3470 N   0  0  0  0  0  0  0  0  0  0  0  0
  184.0580  178.9930  145.8990 N   0  0  0  0  0  2  0  0  0  0  0  0
  185.2230  176.8730  145.6120 C   0  0  0  0  0  2  0  0  0  0  0  0
  185.3650  177.7290  144.4280 C   0  0  0  0  0  0  0  0  0  0  0  0
  184.5330  177.7950  146.6010 C   0  0  0  0  0  2  0  0  0  0  0  0
  184.7210  179.0370  144.6000 C   0  0  0  0  0  2  0  0  0  0  0  0
  1 18  1  0  0  0  0
  2 27  1  0  0  0  0
  3 16  1  0  0  0  0
  3 19  1  0  0  0  0
  4 15  1  0  0  0  0
  5 19  1  0  0  0  0
  7  3  2  0  0  0  0
  9 13  2  0  0  0  0
 10 22  1  0  0  0  0
 11  5  1  0  0  0  0
 12  8  1  0  0  0  0
 13 24  1  0  0  0  0
 13 20  1  0  0  0  0
 14  2  2  0  0  0  0
 15  5  2  0  0  0  0
 15 12  1  0  0  0  0
 16  8  1  0  0  0  0
 17 28  1  6  0  0  0
 17 10  1  0  0  0  0
 18 20  1  0  0  0  0
 18  4  2  0  0  0  0
 19  6  1  6  0  0  0
 20 11  2  0  0  0  0
 21 23  2  0  0  0  0
 23  4  1  0  0  0  0
 24 22  1  0  0  0  0
 25 14  1  1  0  0  0
 25  9  1  0  0  0  0
 25 17  1  0  0  0  0
 26  1  2  0  0  0  0
 26 21  1  0  0  0  0
 27  9  1  0  0  0  0
 27  1  1  0  0  0  0
 28 29  1  0  0  0  0
 29 32  2  0  0  0  0
 30 33  1  0  0  0  0
 31 33  1  0  0  0  0
 32 34  1  0  0  0  0
 32 31  1  0  0  0  0
 34 30  1  0  0  0  0
M  END
>  <MODEL>
9

>  <REMARK>
 VINA RESULT:      -8.0      2.306      8.773
  Name = 
  2 active torsions:
  status: ('A' for Active; 'I' for Inactive)
    1  A    between atoms: C_17  and  O_28
    2  A    between atoms: O_28  and  N_29
                            x       y       z     vdW  Elec       q    Type
                         _______ _______ _______ _____ _____    ______ ____

>  <TORSDO>
F 2

$$$$
