=
 OpenBabel11112416323D

 32 37  0  0  1  0  0  0  0  0999 V2000
  191.7900  174.4950  143.9850 C   0  0  0  0  0  2  0  0  0  0  0  0
  187.2420  177.0300  143.4520 C   0  0  1  0  0  3  0  0  0  0  0  0
  185.8720  177.7490  148.0310 C   0  0  0  0  0  3  0  0  0  0  0  0
  184.6370  178.4150  147.5730 C   0  0  0  0  0  3  0  0  0  0  0  0
  185.6280  177.4680  141.6310 C   0  0  0  0  0  0  0  0  0  0  0  0
  184.3330  177.8710  141.3230 C   0  0  0  0  0  0  0  0  0  0  0  0
  189.5690  176.2200  142.9550 C   0  0  1  0  0  3  0  0  0  0  0  0
  189.0150  176.9340  145.2670 C   0  0  0  0  0  2  0  0  0  0  0  0
  182.3200  178.6420  141.7200 N   0  0  0  0  0  0  0  0  0  0  0  0
  191.1450  175.6000  144.8440 C   0  0  2  0  0  3  0  0  0  0  0  0
  186.8730  177.5010  147.1790 C   0  0  0  0  0  3  0  0  0  0  0  0
  187.6250  177.1640  144.8490 N   0  0  1  0  0  0  0  0  0  0  0  0
  186.8250  177.9910  145.7510 C   0  0  1  0  0  3  0  0  0  0  0  0
  185.0960  178.0490  143.9700 C   0  0  0  0  0  0  0  0  0  0  0  0
  182.4850  178.3970  140.3980 C   0  0  0  0  0  3  0  0  0  0  0  0
  190.9500  174.0820  142.7690 C   0  0  0  0  0  2  0  0  0  0  0  0
  189.6870  175.8560  144.4330 C   0  0  2  0  0  3  0  0  0  0  0  0
  183.7290  177.9170  140.1180 N   0  0  0  0  0  0  0  0  0  0  0  0
  190.4030  175.3100  142.0400 C   0  0  0  0  0  2  0  0  0  0  0  0
  184.4070  178.6040  146.2700 C   0  0  0  0  0  3  0  0  0  0  0  0
  185.4110  178.1720  145.2720 C   0  0  2  0  0  3  0  0  0  0  0  0
  183.8370  178.4110  143.5720 N   0  0  0  0  0  0  0  0  0  0  0  0
  188.1050  176.1610  142.5650 C   0  0  0  0  0  2  0  0  0  0  0  0
  186.5150  177.0890  140.4850 C   0  0  0  0  0  1  0  0  0  0  0  0
  181.1370  179.1730  142.3710 C   0  0  0  0  0  1  0  0  0  0  0  0
  186.0380  177.5140  143.0140 C   0  0  0  0  0  0  0  0  0  0  0  0
  183.4860  178.3060  142.2750 C   0  0  0  0  0  0  0  0  0  0  0  0
  191.9850  176.8750  144.7810 C   0  0  0  0  0  2  0  0  0  0  0  0
  193.3040  176.5930  144.2330 N   0  0  0  0  0  2  0  0  0  0  0  0
  194.4990  176.6380  145.0150 C   0  0  0  0  0  0  0  0  0  0  0  0
  194.4500  176.8750  146.4870 C   0  0  0  0  0  1  0  0  0  0  0  0
  195.6370  176.4200  144.4500 N   0  0  0  0  0  2  0  0  0  0  0  0
  1 10  1  0  0  0  0
  2 23  1  1  0  0  0
  2 12  1  0  0  0  0
  4  3  1  0  0  0  0
  5 26  1  0  0  0  0
  6  5  2  0  0  0  0
  6 27  1  0  0  0  0
  7 19  1  6  0  0  0
  7 17  1  0  0  0  0
  9 27  1  0  0  0  0
  9 25  1  0  0  0  0
 10 28  1  6  0  0  0
 11  3  2  0  0  0  0
 12  8  1  6  0  0  0
 12 13  1  0  0  0  0
 13 11  1  1  0  0  0
 14 21  1  0  0  0  0
 15  9  1  0  0  0  0
 16  1  1  0  0  0  0
 17 10  1  0  0  0  0
 17  8  1  1  0  0  0
 18 15  2  0  0  0  0
 18  6  1  0  0  0  0
 19 16  1  0  0  0  0
 20  4  2  0  0  0  0
 21 13  1  0  0  0  0
 21 20  1  6  0  0  0
 22 14  1  0  0  0  0
 23  7  1  0  0  0  0
 24  5  1  0  0  0  0
 26  2  1  0  0  0  0
 26 14  2  0  0  0  0
 27 22  2  0  0  0  0
 29 28  1  0  0  0  0
 29 30  1  0  0  0  0
 30 31  1  0  0  0  0
 32 30  2  0  0  0  0
M  END
>  <MODEL>
1

>  <REMARK>
 VINA RESULT:      -9.3      0.000      0.000
  Name = 
  2 active torsions:
  status: ('A' for Active; 'I' for Inactive)
    1  A    between atoms: C_10  and  C_20
    2  A    between atoms: C_20  and  N_29
                            x       y       z     vdW  Elec       q    Type
                         _______ _______ _______ _____ _____    ______ ____

>  <TORSDO>
F 2

$$$$
=
 OpenBabel11112416323D

 32 37  0  0  1  0  0  0  0  0999 V2000
  184.8880  177.3650  146.5130 C   0  0  0  0  0  2  0  0  0  0  0  0
  189.6260  175.8890  144.8490 C   0  0  1  0  0  3  0  0  0  0  0  0
  188.6000  173.0370  141.0840 C   0  0  0  0  0  3  0  0  0  0  0  0
  190.0380  172.7820  140.8660 C   0  0  0  0  0  3  0  0  0  0  0  0
  191.9380  175.9400  145.7240 C   0  0  0  0  0  0  0  0  0  0  0  0
  193.2240  175.4280  145.5870 C   0  0  0  0  0  0  0  0  0  0  0  0
  187.8170  177.2910  145.8860 C   0  0  1  0  0  3  0  0  0  0  0  0
  187.3540  176.1320  143.7400 C   0  0  0  0  0  2  0  0  0  0  0  0
  194.8380  174.2700  144.6630 N   0  0  0  0  0  0  0  0  0  0  0  0
  185.4150  177.0830  145.0930 C   0  0  2  0  0  3  0  0  0  0  0  0
  188.1940  174.0140  141.9020 C   0  0  0  0  0  3  0  0  0  0  0  0
  188.6890  175.5180  143.8000 N   0  0  1  0  0  0  0  0  0  0  0  0
  189.1820  174.9610  142.5410 C   0  0  1  0  0  3  0  0  0  0  0  0
  191.3860  174.7110  143.6550 C   0  0  0  0  0  0  0  0  0  0  0  0
  195.2860  174.9160  145.7650 C   0  0  0  0  0  3  0  0  0  0  0  0
  185.9410  177.1850  147.6140 C   0  0  0  0  0  2  0  0  0  0  0  0
  186.8080  176.4340  145.1250 C   0  0  2  0  0  3  0  0  0  0  0  0
  194.3050  175.6470  146.3630 N   0  0  0  0  0  0  0  0  0  0  0  0
  187.2670  177.8340  147.2150 C   0  0  0  0  0  2  0  0  0  0  0  0
  190.9590  173.3810  141.6250 C   0  0  0  0  0  3  0  0  0  0  0  0
  190.5440  174.3360  142.6780 C   0  0  2  0  0  3  0  0  0  0  0  0
  192.6750  174.2470  143.6120 N   0  0  0  0  0  0  0  0  0  0  0  0
  189.0600  176.4590  146.1300 C   0  0  0  0  0  2  0  0  0  0  0  0
  191.7080  176.9180  146.8350 C   0  0  0  0  0  1  0  0  0  0  0  0
  195.6070  173.4190  143.7720 C   0  0  0  0  0  1  0  0  0  0  0  0
  190.9480  175.5480  144.7490 C   0  0  0  0  0  0  0  0  0  0  0  0
  193.5490  174.6050  144.5730 C   0  0  0  0  0  0  0  0  0  0  0  0
  185.4070  178.3660  144.2610 C   0  0  0  0  0  2  0  0  0  0  0  0
  184.3690  178.3060  143.2410 N   0  0  0  0  0  2  0  0  0  0  0  0
  184.6550  178.3010  141.8410 C   0  0  0  0  0  0  0  0  0  0  0  0
  186.0580  178.2460  141.3370 C   0  0  0  0  0  1  0  0  0  0  0  0
  183.6820  178.2930  140.9940 N   0  0  0  0  0  2  0  0  0  0  0  0
  1 16  1  0  0  0  0
  2 23  1  1  0  0  0
  3 11  2  0  0  0  0
  4  3  1  0  0  0  0
  4 20  2  0  0  0  0
  5 24  1  0  0  0  0
  6  5  1  0  0  0  0
  6 18  1  0  0  0  0
  7 23  1  1  0  0  0
  7 19  1  0  0  0  0
  9 15  1  0  0  0  0
 10 28  1  6  0  0  0
 10 17  1  0  0  0  0
 10  1  1  0  0  0  0
 12  8  1  6  0  0  0
 12  2  1  0  0  0  0
 13 11  1  1  0  0  0
 13 21  1  0  0  0  0
 13 12  1  0  0  0  0
 14 26  1  0  0  0  0
 15 18  2  0  0  0  0
 17  8  1  6  0  0  0
 17  7  1  0  0  0  0
 19 16  1  0  0  0  0
 21 20  1  6  0  0  0
 21 14  1  0  0  0  0
 22 14  2  0  0  0  0
 22 27  1  0  0  0  0
 25  9  1  0  0  0  0
 26  2  1  0  0  0  0
 26  5  2  0  0  0  0
 27  9  1  0  0  0  0
 27  6  2  0  0  0  0
 29 28  1  0  0  0  0
 30 29  1  0  0  0  0
 31 30  1  0  0  0  0
 32 30  2  0  0  0  0
M  END
>  <MODEL>
2

>  <REMARK>
 VINA RESULT:      -8.8      1.682      8.763
  Name = 
  2 active torsions:
  status: ('A' for Active; 'I' for Inactive)
    1  A    between atoms: C_10  and  C_20
    2  A    between atoms: C_20  and  N_29
                            x       y       z     vdW  Elec       q    Type
                         _______ _______ _______ _____ _____    ______ ____

>  <TORSDO>
F 2

$$$$
=
 OpenBabel11112416323D

 32 37  0  0  1  0  0  0  0  0999 V2000
  195.2310  174.9570  145.7840 C   0  0  0  0  0  2  0  0  0  0  0  0
  190.2800  175.7430  144.2800 C   0  0  1  0  0  3  0  0  0  0  0  0
  190.1550  173.7120  139.8960 C   0  0  0  0  0  3  0  0  0  0  0  0
  188.7370  174.0940  139.7420 C   0  0  0  0  0  3  0  0  0  0  0  0
  188.3770  177.1420  145.0120 C   0  0  0  0  0  0  0  0  0  0  0  0
  187.1390  177.6680  144.6540 C   0  0  0  0  0  0  0  0  0  0  0  0
  192.2640  175.3690  145.7760 C   0  0  1  0  0  3  0  0  0  0  0  0
  192.0560  174.0240  143.7000 C   0  0  0  0  0  2  0  0  0  0  0  0
  185.3660  177.9580  143.4000 N   0  0  0  0  0  0  0  0  0  0  0  0
  194.2850  174.0860  144.9350 C   0  0  2  0  0  3  0  0  0  0  0  0
  190.7610  173.7900  141.0850 C   0  0  0  0  0  3  0  0  0  0  0  0
  190.8410  174.7750  143.3510 N   0  0  1  0  0  0  0  0  0  0  0  0
  189.9920  174.1600  142.3320 C   0  0  1  0  0  3  0  0  0  0  0  0
  188.2820  175.8670  142.9010 C   0  0  0  0  0  0  0  0  0  0  0  0
  185.2710  178.6890  144.5360 C   0  0  0  0  0  3  0  0  0  0  0  0
  194.6010  176.2690  146.2690 C   0  0  0  0  0  2  0  0  0  0  0  0
  193.0080  174.8490  144.5490 C   0  0  2  0  0  3  0  0  0  0  0  0
  186.3600  178.5290  145.3400 N   0  0  0  0  0  0  0  0  0  0  0  0
  193.1900  176.0320  146.8080 C   0  0  0  0  0  2  0  0  0  0  0  0
  188.0870  174.7090  140.7340 C   0  0  0  0  0  3  0  0  0  0  0  0
  188.7780  174.9880  142.0130 C   0  0  2  0  0  3  0  0  0  0  0  0
  187.0710  176.4470  142.6280 N   0  0  0  0  0  0  0  0  0  0  0  0
  191.2050  176.3490  145.3120 C   0  0  0  0  0  2  0  0  0  0  0  0
  188.9110  177.5130  146.3610 C   0  0  0  0  0  1  0  0  0  0  0  0
  184.3890  177.8710  142.3310 C   0  0  0  0  0  1  0  0  0  0  0  0
  189.0130  176.2290  144.0930 C   0  0  0  0  0  0  0  0  0  0  0  0
  186.5400  177.3310  143.4970 C   0  0  0  0  0  0  0  0  0  0  0  0
  193.9670  172.7820  145.6660 C   0  0  0  0  0  2  0  0  0  0  0  0
  194.3810  171.6360  144.8700 N   0  0  0  0  0  2  0  0  0  0  0  0
  195.6830  171.0540  144.9610 C   0  0  0  0  0  0  0  0  0  0  0  0
  196.6730  171.5280  145.9720 C   0  0  0  0  0  1  0  0  0  0  0  0
  195.9940  170.0670  144.1910 N   0  0  0  0  0  2  0  0  0  0  0  0
  1 16  1  0  0  0  0
  2 23  1  6  0  0  0
  3 11  2  0  0  0  0
  4  3  1  0  0  0  0
  4 20  2  0  0  0  0
  5 24  1  0  0  0  0
  6  5  1  0  0  0  0
  6 18  1  0  0  0  0
  7 23  1  6  0  0  0
  7 19  1  0  0  0  0
  9 27  1  0  0  0  0
  9 15  1  0  0  0  0
 10 28  1  1  0  0  0
 10  1  1  0  0  0  0
 12  8  1  1  0  0  0
 12  2  1  0  0  0  0
 13 11  1  6  0  0  0
 13 12  1  0  0  0  0
 14 26  1  0  0  0  0
 15 18  2  0  0  0  0
 16 19  1  0  0  0  0
 17  8  1  1  0  0  0
 17 10  1  0  0  0  0
 17  7  1  0  0  0  0
 21 20  1  1  0  0  0
 21 13  1  0  0  0  0
 21 14  1  0  0  0  0
 22 14  2  0  0  0  0
 22 27  1  0  0  0  0
 25  9  1  0  0  0  0
 26  2  1  0  0  0  0
 26  5  2  0  0  0  0
 27  6  2  0  0  0  0
 29 30  1  0  0  0  0
 29 28  1  0  0  0  0
 30 31  1  0  0  0  0
 32 30  2  0  0  0  0
M  END
>  <MODEL>
3

>  <REMARK>
 VINA RESULT:      -8.3      2.572      5.442
  Name = 
  2 active torsions:
  status: ('A' for Active; 'I' for Inactive)
    1  A    between atoms: C_10  and  C_20
    2  A    between atoms: C_20  and  N_29
                            x       y       z     vdW  Elec       q    Type
                         _______ _______ _______ _____ _____    ______ ____

>  <TORSDO>
F 2

$$$$
=
 OpenBabel11112416323D

 32 37  0  0  1  0  0  0  0  0999 V2000
  187.3890  178.0310  142.5960 C   0  0  0  0  0  2  0  0  0  0  0  0
  190.7510  174.1990  143.7830 C   0  0  1  0  0  3  0  0  0  0  0  0
  194.3690  176.5740  145.9350 C   0  0  0  0  0  3  0  0  0  0  0  0
  195.1110  175.3110  146.1160 C   0  0  0  0  0  3  0  0  0  0  0  0
  191.0720  171.8290  143.1570 C   0  0  0  0  0  0  0  0  0  0  0  0
  191.9620  170.7590  143.1480 C   0  0  0  0  0  0  0  0  0  0  0  0
  188.5820  175.3790  143.3170 C   0  0  1  0  0  3  0  0  0  0  0  0
  190.2740  176.5000  144.7460 C   0  0  0  0  0  2  0  0  0  0  0  0
  193.8150  169.6820  143.6020 N   0  0  0  0  0  0  0  0  0  0  0  0
  188.3380  177.8590  143.7970 C   0  0  2  0  0  3  0  0  0  0  0  0
  193.0800  176.5670  145.5770 C   0  0  0  0  0  3  0  0  0  0  0  0
  191.1920  175.3730  144.5190 N   0  0  1  0  0  0  0  0  0  0  0  0
  192.3090  175.2730  145.4570 C   0  0  1  0  0  3  0  0  0  0  0  0
  192.7690  173.0370  144.4820 C   0  0  0  0  0  0  0  0  0  0  0  0
  192.9660  168.8940  142.9020 C   0  0  0  0  0  3  0  0  0  0  0  0
  187.4440  176.8750  141.5890 C   0  0  0  0  0  2  0  0  0  0  0  0
  189.3150  176.6920  143.5840 C   0  0  2  0  0  3  0  0  0  0  0  0
  191.8010  169.5350  142.6050 N   0  0  0  0  0  0  0  0  0  0  0  0
  187.4330  175.5240  142.3060 C   0  0  0  0  0  2  0  0  0  0  0  0
  194.5760  174.1460  145.7370 C   0  0  0  0  0  3  0  0  0  0  0  0
  193.2150  174.1110  145.1570 C   0  0  2  0  0  3  0  0  0  0  0  0
  193.5810  171.9360  144.4070 N   0  0  0  0  0  0  0  0  0  0  0  0
  189.5910  174.3610  142.8260 C   0  0  0  0  0  2  0  0  0  0  0  0
  189.7240  171.6000  142.5460 C   0  0  0  0  0  1  0  0  0  0  0  0
  195.1310  169.3260  144.1000 C   0  0  0  0  0  1  0  0  0  0  0  0
  191.4870  173.0450  143.8140 C   0  0  0  0  0  0  0  0  0  0  0  0
  193.1660  170.8400  143.7420 C   0  0  0  0  0  0  0  0  0  0  0  0
  187.5340  177.6970  145.0870 C   0  0  0  0  0  2  0  0  0  0  0  0
  186.3250  178.5070  145.0400 N   0  0  0  0  0  2  0  0  0  0  0  0
  185.0970  178.1080  145.6530 C   0  0  0  0  0  0  0  0  0  0  0  0
  185.0120  176.8700  146.4810 C   0  0  0  0  0  1  0  0  0  0  0  0
  184.0530  178.8560  145.5310 N   0  0  0  0  0  2  0  0  0  0  0  0
  1 10  1  0  0  0  0
  2 23  1  6  0  0  0
  2 26  1  0  0  0  0
  2 12  1  0  0  0  0
  3  4  1  0  0  0  0
  5 26  1  0  0  0  0
  6  5  2  0  0  0  0
  6 27  1  0  0  0  0
  7 19  1  6  0  0  0
  7 17  1  0  0  0  0
  9 27  1  0  0  0  0
  9 25  1  0  0  0  0
 10 28  1  1  0  0  0
 11  3  2  0  0  0  0
 12  8  1  1  0  0  0
 12 13  1  0  0  0  0
 13 11  1  6  0  0  0
 14 21  1  0  0  0  0
 15  9  1  0  0  0  0
 16 19  1  0  0  0  0
 16  1  1  0  0  0  0
 17 10  1  0  0  0  0
 17  8  1  1  0  0  0
 18 15  2  0  0  0  0
 18  6  1  0  0  0  0
 20  4  2  0  0  0  0
 21 13  1  0  0  0  0
 21 20  1  1  0  0  0
 22 14  1  0  0  0  0
 23  7  1  0  0  0  0
 24  5  1  0  0  0  0
 26 14  2  0  0  0  0
 27 22  2  0  0  0  0
 29 28  1  0  0  0  0
 29 30  1  0  0  0  0
 30 31  1  0  0  0  0
 32 30  2  0  0  0  0
M  END
>  <MODEL>
4

>  <REMARK>
 VINA RESULT:      -8.2      3.000      8.847
  Name = 
  2 active torsions:
  status: ('A' for Active; 'I' for Inactive)
    1  A    between atoms: C_10  and  C_20
    2  A    between atoms: C_20  and  N_29
                            x       y       z     vdW  Elec       q    Type
                         _______ _______ _______ _____ _____    ______ ____

>  <TORSDO>
F 2

$$$$
=
 OpenBabel11112416323D

 32 37  0  0  1  0  0  0  0  0999 V2000
  191.0440  172.0700  140.0130 C   0  0  0  0  0  2  0  0  0  0  0  0
  189.0750  175.5370  143.4030 C   0  0  1  0  0  3  0  0  0  0  0  0
  192.1790  175.3040  147.1010 C   0  0  0  0  0  3  0  0  0  0  0  0
  191.3910  176.3060  147.8460 C   0  0  0  0  0  3  0  0  0  0  0  0
  186.9450  176.7580  143.6960 C   0  0  0  0  0  0  0  0  0  0  0  0
  186.1570  177.4860  144.5820 C   0  0  0  0  0  0  0  0  0  0  0  0
  189.6410  174.4240  141.2230 C   0  0  1  0  0  3  0  0  0  0  0  0
  191.3980  174.6070  142.9670 C   0  0  0  0  0  2  0  0  0  0  0  0
  185.6640  178.5240  146.4480 N   0  0  0  0  0  0  0  0  0  0  0  0
  191.7440  173.0210  141.0030 C   0  0  2  0  0  3  0  0  0  0  0  0
  191.9560  175.0850  145.8010 C   0  0  0  0  0  3  0  0  0  0  0  0
  190.4150  175.2200  143.8730 N   0  0  1  0  0  0  0  0  0  0  0  0
  190.9750  175.9300  145.0220 C   0  0  1  0  0  3  0  0  0  0  0  0
  188.6900  176.8060  145.4420 C   0  0  0  0  0  0  0  0  0  0  0  0
  184.6350  178.6040  145.5720 C   0  0  0  0  0  3  0  0  0  0  0  0
  189.5130  172.1710  140.0300 C   0  0  0  0  0  2  0  0  0  0  0  0
  190.7400  173.6710  141.9680 C   0  0  2  0  0  3  0  0  0  0  0  0
  184.9100  177.9680  144.3990 N   0  0  0  0  0  0  0  0  0  0  0  0
  189.0620  173.6320  140.0400 C   0  0  0  0  0  2  0  0  0  0  0  0
  190.3130  176.8710  147.2950 C   0  0  0  0  0  3  0  0  0  0  0  0
  189.9160  176.5170  145.9140 C   0  0  2  0  0  3  0  0  0  0  0  0
  187.8360  177.5110  146.2480 N   0  0  0  0  0  0  0  0  0  0  0  0
  188.5460  174.7710  142.2120 C   0  0  0  0  0  2  0  0  0  0  0  0
  186.3890  176.5170  142.3270 C   0  0  0  0  0  1  0  0  0  0  0  0
  185.7280  179.0990  147.7790 C   0  0  0  0  0  1  0  0  0  0  0  0
  188.2590  176.3560  144.1370 C   0  0  0  0  0  0  0  0  0  0  0  0
  186.6010  177.8220  145.8070 C   0  0  0  0  0  0  0  0  0  0  0  0
  192.5600  174.0670  140.2440 C   0  0  0  0  0  2  0  0  0  0  0  0
  193.9840  173.7930  140.3680 N   0  0  0  0  0  2  0  0  0  0  0  0
  194.9180  174.7430  140.8860 C   0  0  0  0  0  0  0  0  0  0  0  0
  194.4630  176.0520  141.4370 C   0  0  0  0  0  1  0  0  0  0  0  0
  196.1730  174.4460  140.9230 N   0  0  0  0  0  2  0  0  0  0  0  0
  1 16  1  0  0  0  0
  1 10  1  0  0  0  0
  2 23  1  1  0  0  0
  2 12  1  0  0  0  0
  2 26  1  0  0  0  0
  3  4  1  0  0  0  0
  5 26  2  0  0  0  0
  5  6  1  0  0  0  0
  6 27  2  0  0  0  0
  7 19  1  6  0  0  0
  7 17  1  0  0  0  0
  7 23  1  0  0  0  0
  9 25  1  0  0  0  0
 10 28  1  6  0  0  0
 10 17  1  0  0  0  0
 11  3  2  0  0  0  0
 12  8  1  6  0  0  0
 12 13  1  0  0  0  0
 13 11  1  1  0  0  0
 13 21  1  0  0  0  0
 14 21  1  0  0  0  0
 14 22  2  0  0  0  0
 15  9  1  0  0  0  0
 16 19  1  0  0  0  0
 17  8  1  1  0  0  0
 18  6  1  0  0  0  0
 18 15  2  0  0  0  0
 20  4  2  0  0  0  0
 21 20  1  6  0  0  0
 24  5  1  0  0  0  0
 26 14  1  0  0  0  0
 27 22  1  0  0  0  0
 27  9  1  0  0  0  0
 28 29  1  0  0  0  0
 29 30  1  0  0  0  0
 30 32  2  0  0  0  0
 30 31  1  0  0  0  0
M  END
>  <MODEL>
5

>  <REMARK>
 VINA RESULT:      -8.1      2.384      4.613
  Name = 
  2 active torsions:
  status: ('A' for Active; 'I' for Inactive)
    1  A    between atoms: C_10  and  C_20
    2  A    between atoms: C_20  and  N_29
                            x       y       z     vdW  Elec       q    Type
                         _______ _______ _______ _____ _____    ______ ____

>  <TORSDO>
F 2

$$$$
=
 OpenBabel11112416323D

 32 37  0  0  1  0  0  0  0  0999 V2000
  187.0420  178.4580  143.6460 C   0  0  0  0  0  2  0  0  0  0  0  0
  189.6510  174.0300  142.6590 C   0  0  1  0  0  3  0  0  0  0  0  0
  193.1960  174.1180  145.9420 C   0  0  0  0  0  3  0  0  0  0  0  0
  193.7290  172.8420  145.4240 C   0  0  0  0  0  3  0  0  0  0  0  0
  189.7430  172.3640  140.8340 C   0  0  0  0  0  0  0  0  0  0  0  0
  190.4730  171.3200  140.2730 C   0  0  0  0  0  0  0  0  0  0  0  0
  187.7510  175.6660  142.8240 C   0  0  1  0  0  3  0  0  0  0  0  0
  189.3480  175.4870  144.7160 C   0  0  0  0  0  2  0  0  0  0  0  0
  192.0800  169.8370  140.1400 N   0  0  0  0  0  0  0  0  0  0  0  0
  187.7720  177.4860  144.5930 C   0  0  2  0  0  3  0  0  0  0  0  0
  191.9850  174.5530  145.5790 C   0  0  0  0  0  3  0  0  0  0  0  0
  190.1310  174.5100  143.9440 N   0  0  1  0  0  0  0  0  0  0  0  0
  191.0750  173.7060  144.7200 C   0  0  1  0  0  3  0  0  0  0  0  0
  191.3710  172.3120  142.6880 C   0  0  0  0  0  0  0  0  0  0  0  0
  191.2450  169.7320  139.0790 C   0  0  0  0  0  3  0  0  0  0  0  0
  187.0900  178.0440  142.1700 C   0  0  0  0  0  2  0  0  0  0  0  0
  188.6050  176.4570  143.8130 C   0  0  2  0  0  3  0  0  0  0  0  0
  190.2320  170.6420  139.1330 N   0  0  0  0  0  0  0  0  0  0  0  0
  186.7940  176.5520  142.0110 C   0  0  0  0  0  2  0  0  0  0  0  0
  193.1060  172.1960  144.4350 C   0  0  0  0  0  3  0  0  0  0  0  0
  191.8520  172.7410  143.8680 C   0  0  2  0  0  3  0  0  0  0  0  0
  192.0320  171.2940  142.0520 N   0  0  0  0  0  0  0  0  0  0  0  0
  188.6770  174.9030  141.8980 C   0  0  0  0  0  2  0  0  0  0  0  0
  188.4810  172.7660  140.1340 C   0  0  0  0  0  1  0  0  0  0  0  0
  193.2480  169.0220  140.4190 C   0  0  0  0  0  1  0  0  0  0  0  0
  190.2150  172.9260  142.0770 C   0  0  0  0  0  0  0  0  0  0  0  0
  191.5770  170.8350  140.8700 C   0  0  0  0  0  0  0  0  0  0  0  0
  186.7730  176.8120  145.5320 C   0  0  0  0  0  2  0  0  0  0  0  0
  185.4440  177.3830  145.3600 N   0  0  0  0  0  2  0  0  0  0  0  0
  184.8610  178.2940  146.2950 C   0  0  0  0  0  0  0  0  0  0  0  0
  185.6350  178.8030  147.4640 C   0  0  0  0  0  1  0  0  0  0  0  0
  183.6610  178.7240  146.0990 N   0  0  0  0  0  2  0  0  0  0  0  0
  1 10  1  0  0  0  0
  2 23  1  6  0  0  0
  2 12  1  0  0  0  0
  4  3  1  0  0  0  0
  5 26  1  0  0  0  0
  6  5  2  0  0  0  0
  6 27  1  0  0  0  0
  7 23  1  6  0  0  0
  7 17  1  0  0  0  0
  9 25  1  0  0  0  0
  9 27  1  0  0  0  0
 10 28  1  6  0  0  0
 11  3  2  0  0  0  0
 12  8  1  1  0  0  0
 12 13  1  0  0  0  0
 13 11  1  6  0  0  0
 14 21  1  0  0  0  0
 15 18  2  0  0  0  0
 15  9  1  0  0  0  0
 16  1  1  0  0  0  0
 17 10  1  0  0  0  0
 17  8  1  1  0  0  0
 18  6  1  0  0  0  0
 19 16  1  0  0  0  0
 19  7  1  0  0  0  0
 20  4  2  0  0  0  0
 21 20  1  1  0  0  0
 21 13  1  0  0  0  0
 22 14  1  0  0  0  0
 24  5  1  0  0  0  0
 26  2  1  0  0  0  0
 26 14  2  0  0  0  0
 27 22  2  0  0  0  0
 29 28  1  0  0  0  0
 29 30  1  0  0  0  0
 30 31  1  0  0  0  0
 32 30  2  0  0  0  0
M  END
>  <MODEL>
6

>  <REMARK>
 VINA RESULT:      -7.8      3.385      8.295
  Name = 
  2 active torsions:
  status: ('A' for Active; 'I' for Inactive)
    1  A    between atoms: C_10  and  C_20
    2  A    between atoms: C_20  and  N_29
                            x       y       z     vdW  Elec       q    Type
                         _______ _______ _______ _____ _____    ______ ____

>  <TORSDO>
F 2

$$$$
=
 OpenBabel11112416323D

 32 37  0  0  1  0  0  0  0  0999 V2000
  193.4180  172.0750  141.4070 C   0  0  0  0  0  2  0  0  0  0  0  0
  189.9830  175.5660  143.2520 C   0  0  1  0  0  3  0  0  0  0  0  0
  191.5490  176.3340  147.7600 C   0  0  0  0  0  3  0  0  0  0  0  0
  190.4380  177.2770  148.0020 C   0  0  0  0  0  3  0  0  0  0  0  0
  187.7680  176.4380  142.5840 C   0  0  0  0  0  0  0  0  0  0  0  0
  186.6360  177.1300  143.0050 C   0  0  0  0  0  0  0  0  0  0  0  0
  191.4180  174.2940  141.6280 C   0  0  1  0  0  3  0  0  0  0  0  0
  192.3950  174.9930  143.8010 C   0  0  0  0  0  2  0  0  0  0  0  0
  185.3900  178.3000  144.3750 N   0  0  0  0  0  0  0  0  0  0  0  0
  193.6020  173.2490  142.3880 C   0  0  2  0  0  3  0  0  0  0  0  0
  191.8360  175.9170  146.5220 C   0  0  0  0  0  3  0  0  0  0  0  0
  191.0890  175.5420  144.1960 N   0  0  1  0  0  0  0  0  0  0  0  0
  191.1130  176.4770  145.3200 C   0  0  1  0  0  3  0  0  0  0  0  0
  188.7480  177.0020  144.7780 C   0  0  0  0  0  0  0  0  0  0  0  0
  184.7440  178.0930  143.2040 C   0  0  0  0  0  3  0  0  0  0  0  0
  191.9830  171.9180  140.8870 C   0  0  0  0  0  2  0  0  0  0  0  0
  192.2510  173.8390  142.8240 C   0  0  2  0  0  3  0  0  0  0  0  0
  185.4940  177.3680  142.3270 N   0  0  0  0  0  0  0  0  0  0  0  0
  191.3970  173.2710  140.4820 C   0  0  0  0  0  2  0  0  0  0  0  0
  189.5750  177.5770  147.0270 C   0  0  0  0  0  3  0  0  0  0  0  0
  189.7450  176.9870  145.6800 C   0  0  2  0  0  3  0  0  0  0  0  0
  187.5870  177.6500  145.1070 N   0  0  0  0  0  0  0  0  0  0  0  0
  190.0080  174.5760  142.1100 C   0  0  0  0  0  2  0  0  0  0  0  0
  187.7730  175.9340  141.1740 C   0  0  0  0  0  1  0  0  0  0  0  0
  184.9050  179.0430  145.5240 C   0  0  0  0  0  1  0  0  0  0  0  0
  188.8700  176.3230  143.5080 C   0  0  0  0  0  0  0  0  0  0  0  0
  186.5680  177.6900  144.2260 C   0  0  0  0  0  0  0  0  0  0  0  0
  194.5130  174.3120  141.7760 C   0  0  0  0  0  2  0  0  0  0  0  0
  195.8700  174.1790  142.2880 N   0  0  0  0  0  2  0  0  0  0  0  0
  196.4840  175.1580  143.1290 C   0  0  0  0  0  0  0  0  0  0  0  0
  195.7200  176.3390  143.6260 C   0  0  0  0  0  1  0  0  0  0  0  0
  197.7060  174.9950  143.5080 N   0  0  0  0  0  2  0  0  0  0  0  0
  1 10  1  0  0  0  0
  2 23  1  1  0  0  0
  2 26  1  0  0  0  0
  2 12  1  0  0  0  0
  3  4  1  0  0  0  0
  5  6  2  0  0  0  0
  5 26  1  0  0  0  0
  6 27  1  0  0  0  0
  7 19  1  6  0  0  0
  7 23  1  0  0  0  0
  7 17  1  0  0  0  0
  9 25  1  0  0  0  0
 10 28  1  6  0  0  0
 10 17  1  0  0  0  0
 11  3  2  0  0  0  0
 12  8  1  6  0  0  0
 12 13  1  0  0  0  0
 13 21  1  0  0  0  0
 13 11  1  1  0  0  0
 14 22  1  0  0  0  0
 14 21  1  0  0  0  0
 15  9  1  0  0  0  0
 16  1  1  0  0  0  0
 17  8  1  1  0  0  0
 18  6  1  0  0  0  0
 18 15  2  0  0  0  0
 19 16  1  0  0  0  0
 20  4  2  0  0  0  0
 21 20  1  6  0  0  0
 24  5  1  0  0  0  0
 26 14  2  0  0  0  0
 27  9  1  0  0  0  0
 27 22  2  0  0  0  0
 28 29  1  0  0  0  0
 29 30  1  0  0  0  0
 30 32  2  0  0  0  0
 30 31  1  0  0  0  0
M  END
>  <MODEL>
7

>  <REMARK>
 VINA RESULT:      -7.8      2.032      3.905
  Name = 
  2 active torsions:
  status: ('A' for Active; 'I' for Inactive)
    1  A    between atoms: C_10  and  C_20
    2  A    between atoms: C_20  and  N_29
                            x       y       z     vdW  Elec       q    Type
                         _______ _______ _______ _____ _____    ______ ____

>  <TORSDO>
F 2

$$$$
=
 OpenBabel11112416323D

 32 37  0  0  1  0  0  0  0  0999 V2000
  195.6110  175.6580  144.5860 C   0  0  0  0  0  2  0  0  0  0  0  0
  190.4540  176.2950  145.2110 C   0  0  1  0  0  3  0  0  0  0  0  0
  188.6650  174.7730  140.9880 C   0  0  0  0  0  3  0  0  0  0  0  0
  187.2930  175.0790  141.4400 C   0  0  0  0  0  3  0  0  0  0  0  0
  188.9650  177.4780  146.7920 C   0  0  0  0  0  0  0  0  0  0  0  0
  187.6780  177.9620  147.0070 C   0  0  0  0  0  0  0  0  0  0  0  0
  192.8680  175.8800  145.7700 C   0  0  1  0  0  3  0  0  0  0  0  0
  191.8900  174.7690  143.7770 C   0  0  0  0  0  2  0  0  0  0  0  0
  185.5530  178.2800  146.5780 N   0  0  0  0  0  0  0  0  0  0  0  0
  194.4220  174.8320  144.0590 C   0  0  2  0  0  3  0  0  0  0  0  0
  189.6840  174.7530  141.8530 C   0  0  0  0  0  3  0  0  0  0  0  0
  190.6240  175.4770  144.0220 N   0  0  1  0  0  0  0  0  0  0  0  0
  189.4550  174.9290  143.3360 C   0  0  1  0  0  3  0  0  0  0  0  0
  188.0750  176.4480  144.7330 C   0  0  0  0  0  0  0  0  0  0  0  0
  185.8970  178.8690  147.7480 C   0  0  0  0  0  3  0  0  0  0  0  0
  195.2000  176.8640  145.4410 C   0  0  0  0  0  2  0  0  0  0  0  0
  193.0850  175.5520  144.2950 C   0  0  2  0  0  3  0  0  0  0  0  0
  187.2140  178.6880  148.0450 N   0  0  0  0  0  0  0  0  0  0  0  0
  194.1130  176.4780  146.4450 C   0  0  0  0  0  2  0  0  0  0  0  0
  187.0700  175.5350  142.6760 C   0  0  0  0  0  3  0  0  0  0  0  0
  188.2000  175.7090  143.6170 C   0  0  2  0  0  3  0  0  0  0  0  0
  186.8460  176.9780  145.0230 N   0  0  0  0  0  0  0  0  0  0  0  0
  191.6980  176.8370  145.8790 C   0  0  0  0  0  2  0  0  0  0  0  0
  189.9760  177.7260  147.8690 C   0  0  0  0  0  1  0  0  0  0  0  0
  184.2380  178.2530  145.9640 C   0  0  0  0  0  1  0  0  0  0  0  0
  189.2070  176.7170  145.5890 C   0  0  0  0  0  0  0  0  0  0  0  0
  186.6810  177.7210  146.1360 C   0  0  0  0  0  0  0  0  0  0  0  0
  194.4320  173.4360  144.6810 C   0  0  0  0  0  2  0  0  0  0  0  0
  195.7890  172.9120  144.7410 N   0  0  0  0  0  2  0  0  0  0  0  0
  196.1050  171.6260  145.2790 C   0  0  0  0  0  0  0  0  0  0  0  0
  195.0320  170.6880  145.7190 C   0  0  0  0  0  1  0  0  0  0  0  0
  197.3360  171.2480  145.3400 N   0  0  0  0  0  2  0  0  0  0  0  0
  1 16  1  0  0  0  0
  2 26  1  0  0  0  0
  2 23  1  6  0  0  0
  3  4  1  0  0  0  0
  3 11  2  0  0  0  0
  4 20  2  0  0  0  0
  5  6  1  0  0  0  0
  5 24  1  0  0  0  0
  6 18  1  0  0  0  0
  7 23  1  6  0  0  0
  7 19  1  0  0  0  0
  9 15  1  0  0  0  0
 10 17  1  0  0  0  0
 10  1  1  0  0  0  0
 10 28  1  1  0  0  0
 12  8  1  1  0  0  0
 12  2  1  0  0  0  0
 13 11  1  6  0  0  0
 13 21  1  0  0  0  0
 13 12  1  0  0  0  0
 14 22  2  0  0  0  0
 14 26  1  0  0  0  0
 15 18  2  0  0  0  0
 16 19  1  0  0  0  0
 17  8  1  1  0  0  0
 17  7  1  0  0  0  0
 21 20  1  1  0  0  0
 21 14  1  0  0  0  0
 22 27  1  0  0  0  0
 25  9  1  0  0  0  0
 26  5  2  0  0  0  0
 27  9  1  0  0  0  0
 27  6  2  0  0  0  0
 28 29  1  0  0  0  0
 29 30  1  0  0  0  0
 30 32  2  0  0  0  0
 30 31  1  0  0  0  0
M  END
>  <MODEL>
8

>  <REMARK>
 VINA RESULT:      -7.6      2.690      5.525
  Name = 
  2 active torsions:
  status: ('A' for Active; 'I' for Inactive)
    1  A    between atoms: C_10  and  C_20
    2  A    between atoms: C_20  and  N_29
                            x       y       z     vdW  Elec       q    Type
                         _______ _______ _______ _____ _____    ______ ____

>  <TORSDO>
F 2

$$$$
=
 OpenBabel11112416323D

 32 37  0  0  1  0  0  0  0  0999 V2000
  186.6590  178.4890  142.9840 C   0  0  0  0  0  2  0  0  0  0  0  0
  190.3890  174.8180  142.9920 C   0  0  1  0  0  3  0  0  0  0  0  0
  193.4520  176.4080  146.3750 C   0  0  0  0  0  3  0  0  0  0  0  0
  194.3390  175.2520  146.1370 C   0  0  0  0  0  3  0  0  0  0  0  0
  191.0810  172.9520  141.5250 C   0  0  0  0  0  0  0  0  0  0  0  0
  192.1030  172.0620  141.2110 C   0  0  0  0  0  0  0  0  0  0  0  0
  188.1300  175.8910  142.7450 C   0  0  1  0  0  3  0  0  0  0  0  0
  189.5250  176.4700  144.7160 C   0  0  0  0  0  2  0  0  0  0  0  0
  194.0380  171.0610  141.4440 N   0  0  0  0  0  0  0  0  0  0  0  0
  187.5140  177.9230  144.1340 C   0  0  2  0  0  3  0  0  0  0  0  0
  192.2130  176.4350  145.8740 C   0  0  0  0  0  3  0  0  0  0  0  0
  190.6020  175.6210  144.1850 N   0  0  1  0  0  0  0  0  0  0  0  0
  191.6360  175.2430  145.1470 C   0  0  1  0  0  3  0  0  0  0  0  0
  192.4770  173.6530  143.4360 C   0  0  0  0  0  0  0  0  0  0  0  0
  193.3670  170.5580  140.3820 C   0  0  0  0  0  3  0  0  0  0  0  0
  186.9570  177.8580  141.6180 C   0  0  0  0  0  2  0  0  0  0  0  0
  188.6530  177.0370  143.6080 C   0  0  2  0  0  3  0  0  0  0  0  0
  192.1570  171.1590  140.2090 N   0  0  0  0  0  0  0  0  0  0  0  0
  187.0650  176.3370  141.7300 C   0  0  0  0  0  2  0  0  0  0  0  0
  194.0020  174.3040  145.2590 C   0  0  0  0  0  3  0  0  0  0  0  0
  192.7130  174.3900  144.5350 C   0  0  2  0  0  3  0  0  0  0  0  0
  193.4330  172.7560  143.0400 N   0  0  0  0  0  0  0  0  0  0  0  0
  189.3070  175.2560  142.0300 C   0  0  0  0  0  2  0  0  0  0  0  0
  189.8340  172.8770  140.6980 C   0  0  0  0  0  1  0  0  0  0  0  0
  195.3420  170.6480  141.9330 C   0  0  0  0  0  1  0  0  0  0  0  0
  191.2690  173.8220  142.6600 C   0  0  0  0  0  0  0  0  0  0  0  0
  193.2300  171.9970  141.9450 C   0  0  0  0  0  0  0  0  0  0  0  0
  186.6290  177.1770  145.1320 C   0  0  0  0  0  2  0  0  0  0  0  0
  186.6170  177.8630  146.4170 N   0  0  0  0  0  2  0  0  0  0  0  0
  185.4990  178.6220  146.8830 C   0  0  0  0  0  0  0  0  0  0  0  0
  184.2200  178.6660  146.1160 C   0  0  0  0  0  1  0  0  0  0  0  0
  185.5780  179.2400  148.0120 N   0  0  0  0  0  2  0  0  0  0  0  0
  1 10  1  0  0  0  0
  2 23  1  6  0  0  0
  2 12  1  0  0  0  0
  4  3  1  0  0  0  0
  5 26  1  0  0  0  0
  6  5  2  0  0  0  0
  6 27  1  0  0  0  0
  7 19  1  6  0  0  0
  7 17  1  0  0  0  0
  9 25  1  0  0  0  0
  9 27  1  0  0  0  0
 10 28  1  1  0  0  0
 11  3  2  0  0  0  0
 12  8  1  1  0  0  0
 12 13  1  0  0  0  0
 13 11  1  6  0  0  0
 14 21  1  0  0  0  0
 15  9  1  0  0  0  0
 16 19  1  0  0  0  0
 16  1  1  0  0  0  0
 17 10  1  0  0  0  0
 17  8  1  1  0  0  0
 18 15  2  0  0  0  0
 18  6  1  0  0  0  0
 20  4  2  0  0  0  0
 21 13  1  0  0  0  0
 21 20  1  1  0  0  0
 22 14  1  0  0  0  0
 23  7  1  0  0  0  0
 24  5  1  0  0  0  0
 26  2  1  0  0  0  0
 26 14  2  0  0  0  0
 27 22  2  0  0  0  0
 28 29  1  0  0  0  0
 29 30  1  0  0  0  0
 30 32  2  0  0  0  0
 31 30  1  0  0  0  0
M  END
>  <MODEL>
9

>  <REMARK>
 VINA RESULT:      -7.5      2.762      8.411
  Name = 
  2 active torsions:
  status: ('A' for Active; 'I' for Inactive)
    1  A    between atoms: C_10  and  C_20
    2  A    between atoms: C_20  and  N_29
                            x       y       z     vdW  Elec       q    Type
                         _______ _______ _______ _____ _____    ______ ____

>  <TORSDO>
F 2

$$$$
