=
 OpenBabel11112417303D

 37 41  0  0  1  0  0  0  0  0999 V2000
  192.3920  175.7860  146.7840 C   0  0  0  0  0  0  0  0  0  0  0  0
  193.0970  175.0940  142.5000 C   0  0  0  0  0  2  0  0  0  0  0  0
  190.4940  174.3160  140.8810 O   0  0  0  0  0  0  0  0  0  0  0  0
  194.0130  176.7600  145.1700 C   0  0  2  0  0  3  0  0  0  0  0  0
  191.6560  174.8640  142.8950 C   0  0  2  0  0  3  0  0  0  0  0  0
  192.8600  177.1790  144.4490 O   0  0  0  0  0  0  0  0  0  0  0  0
  190.9360  173.7740  142.0940 C   0  0  2  0  0  3  0  0  0  0  0  0
  195.1590  176.3330  144.2410 C   0  0  0  0  0  2  0  0  0  0  0  0
  191.6220  176.5340  144.7480 C   0  0  2  0  0  3  0  0  0  0  0  0
  191.9130  176.9700  147.3310 F   0  0  0  0  0  0  0  0  0  0  0  0
  194.0320  172.8870  142.9300 N   0  0  0  0  0  2  0  0  0  0  0  0
  195.2190  174.8420  143.8580 C   0  0  0  0  0  2  0  0  0  0  0  0
  191.6980  175.4230  145.6240 O   0  0  0  0  0  0  0  0  0  0  0  0
  188.2450  174.8160  141.7660 C   0  0  0  0  0  2  0  0  0  0  0  0
  189.1190  174.0340  140.7770 C   0  0  0  0  0  2  0  0  0  0  0  0
  193.8760  174.2340  143.4710 C   0  0  1  0  0  3  0  0  0  0  0  0
  190.9330  176.1190  143.4230 C   0  0  2  0  0  3  0  0  0  0  0  0
  193.8480  175.9130  146.4300 C   0  0  0  0  0  2  0  0  0  0  0  0
  191.8330  172.5250  141.8520 C   0  0  1  0  0  3  0  0  0  0  0  0
  192.2530  174.7810  147.7210 F   0  0  0  0  0  0  0  0  0  0  0  0
  188.8920  176.1060  142.2450 C   0  0  0  0  0  2  0  0  0  0  0  0
  189.4810  175.8980  143.5640 N   0  0  0  0  0  0  0  0  0  0  0  0
  192.7510  172.1840  143.0390 C   0  0  0  0  0  2  0  0  0  0  0  0
  191.5050  170.0400  142.2100 C   0  0  0  0  0  2  0  0  0  0  0  0
  191.0370  171.2800  141.4520 C   0  0  2  0  0  3  0  0  0  0  0  0
  190.9810  171.0700  139.9580 C   0  0  0  0  0  3  0  0  0  0  0  0
  190.8500  169.7460  138.0220 O   0  0  0  0  0  1  0  0  0  0  0  0
  191.0480  168.5980  140.2260 C   0  0  0  0  0  2  0  0  0  0  0  0
  190.9360  169.8540  139.4040 C   0  0  0  0  0  0  0  0  0  0  0  0
  190.7370  168.8260  141.7040 C   0  0  0  0  0  2  0  0  0  0  0  0
  188.8820  176.9330  144.4120 C   0  0  0  0  0  2  0  0  0  0  0  0
  187.8310  176.3510  145.3680 C   0  0  1  0  0  3  0  0  0  0  0  0
  188.8240  174.9170  147.1520 C   0  0  0  0  0  1  0  0  0  0  0  0
  188.3250  176.3060  146.8070 C   0  0  0  0  0  2  0  0  0  0  0  0
  186.5180  177.1170  145.2970 C   0  0  0  0  0  2  0  0  0  0  0  0
  185.6320  176.7790  146.4820 C   0  0  0  0  0  2  0  0  0  0  0  0
  184.4500  177.5170  146.4190 O   0  0  0  0  0  1  0  0  0  0  0  0
  1 10  1  0  0  0  0
  1 20  1  0  0  0  0
  4  8  1  6  0  0  0
  4 18  1  0  0  0  0
  5  2  1  6  0  0  0
  5 17  1  0  0  0  0
  6  4  1  0  0  0  0
  7  3  1  6  0  0  0
  7  5  1  0  0  0  0
  9  6  1  6  0  0  0
  9 13  1  0  0  0  0
 11 23  1  0  0  0  0
 11 16  1  0  0  0  0
 12  8  1  0  0  0  0
 13  1  1  0  0  0  0
 14 21  1  0  0  0  0
 15  3  1  0  0  0  0
 15 14  1  0  0  0  0
 16  2  1  6  0  0  0
 16 12  1  0  0  0  0
 17 22  1  1  0  0  0
 17  9  1  0  0  0  0
 18  1  1  0  0  0  0
 19  7  1  0  0  0  0
 19 23  1  1  0  0  0
 21 22  1  0  0  0  0
 22 31  1  0  0  0  0
 25 26  1  6  0  0  0
 25 19  1  0  0  0  0
 25 24  1  0  0  0  0
 27 29  1  0  0  0  0
 28 30  1  0  0  0  0
 29 26  2  0  0  0  0
 29 28  1  0  0  0  0
 30 24  1  0  0  0  0
 32 31  1  6  0  0  0
 32 34  1  0  0  0  0
 34 33  1  0  0  0  0
 35 32  1  0  0  0  0
 35 36  1  0  0  0  0
 37 36  1  0  0  0  0
M  END
>  <MODEL>
1

>  <REMARK>
 VINA RESULT:      -7.5      0.000      0.000
  Name = 
  6 active torsions:
  status: ('A' for Active; 'I' for Inactive)
    1  A    between atoms: C_1  and  C_4
    2  A    between atoms: C_1  and  N_27
    3  A    between atoms: C_4  and  C_12
    4  A    between atoms: C_4  and  C_37
    5  A    between atoms: C_8  and  C_12
    6  A    between atoms: C_23  and  C_30
                            x       y       z     vdW  Elec       q    Type
                         _______ _______ _______ _____ _____    ______ ____

>  <TORSDO>
F 6

$$$$
=
 OpenBabel11112417303D

 37 41  0  0  1  0  0  0  0  0999 V2000
  193.6010  176.5100  145.0060 C   0  0  0  0  0  0  0  0  0  0  0  0
  189.7760  174.3860  145.4430 C   0  0  0  0  0  2  0  0  0  0  0  0
  188.5650  173.3500  142.7110 O   0  0  0  0  0  0  0  0  0  0  0  0
  192.6630  175.0970  146.8240 C   0  0  2  0  0  3  0  0  0  0  0  0
  190.2130  174.5040  144.0010 C   0  0  2  0  0  3  0  0  0  0  0  0
  192.5960  174.0770  145.8330 O   0  0  0  0  0  0  0  0  0  0  0  0
  189.0670  174.6280  142.9890 C   0  0  2  0  0  3  0  0  0  0  0  0
  191.4700  175.0510  147.7900 C   0  0  0  0  0  2  0  0  0  0  0  0
  192.6630  174.4790  144.4650 C   0  0  2  0  0  3  0  0  0  0  0  0
  194.8430  175.8980  144.8930 F   0  0  0  0  0  0  0  0  0  0  0  0
  188.5560  176.4780  145.7080 N   0  0  0  0  0  2  0  0  0  0  0  0
  190.2430  175.9040  147.4150 C   0  0  0  0  0  2  0  0  0  0  0  0
  192.6270  175.8750  144.2270 O   0  0  0  0  0  0  0  0  0  0  0  0
  189.9830  173.0810  140.7090 C   0  0  0  0  0  2  0  0  0  0  0  0
  188.5770  173.1960  141.3120 C   0  0  0  0  0  2  0  0  0  0  0  0
  189.8320  175.8110  145.9500 C   0  0  1  0  0  3  0  0  0  0  0  0
  191.5310  173.7760  143.6740 C   0  0  2  0  0  3  0  0  0  0  0  0
  193.1280  176.4980  146.4340 C   0  0  0  0  0  2  0  0  0  0  0  0
  187.9360  175.5740  143.4880 C   0  0  1  0  0  3  0  0  0  0  0  0
  193.7190  177.8230  144.5930 F   0  0  0  0  0  0  0  0  0  0  0  0
  191.0210  172.5860  141.7040 C   0  0  0  0  0  2  0  0  0  0  0  0
  191.7820  173.7200  142.2200 N   0  0  0  0  0  0  0  0  0  0  0  0
  188.4510  176.7890  144.2800 C   0  0  0  0  0  2  0  0  0  0  0  0
  187.7660  176.8980  141.3360 C   0  0  0  0  0  2  0  0  0  0  0  0
  187.0140  176.0550  142.3630 C   0  0  2  0  0  3  0  0  0  0  0  0
  185.7630  176.7280  142.8740 C   0  0  0  0  0  3  0  0  0  0  0  0
  183.9960  178.2680  142.7340 O   0  0  0  0  0  1  0  0  0  0  0  0
  185.7550  178.3280  140.9690 C   0  0  0  0  0  2  0  0  0  0  0  0
  185.1630  177.7260  142.2160 C   0  0  0  0  0  0  0  0  0  0  0  0
  186.7800  177.4160  140.2980 C   0  0  0  0  0  2  0  0  0  0  0  0
  193.1840  173.3860  141.9520 C   0  0  0  0  0  2  0  0  0  0  0  0
  193.8330  174.3820  140.9810 C   0  0  1  0  0  3  0  0  0  0  0  0
  195.0900  176.5150  141.2910 C   0  0  0  0  0  1  0  0  0  0  0  0
  195.0820  175.0240  141.5660 C   0  0  0  0  0  2  0  0  0  0  0  0
  194.1640  173.7340  139.6450 C   0  0  0  0  0  2  0  0  0  0  0  0
  193.2900  174.2980  138.5400 C   0  0  0  0  0  2  0  0  0  0  0  0
  193.9020  175.4150  137.9710 O   0  0  0  0  0  1  0  0  0  0  0  0
  1 18  1  0  0  0  0
  4 18  1  6  0  0  0
  4  8  1  0  0  0  0
  5  2  1  1  0  0  0
  6  4  1  0  0  0  0
  7  3  1  1  0  0  0
  7 19  1  0  0  0  0
  7  5  1  0  0  0  0
  9 13  1  1  0  0  0
  9  6  1  0  0  0  0
 10  1  1  0  0  0  0
 11 16  1  0  0  0  0
 12  8  1  0  0  0  0
 13  1  1  0  0  0  0
 14 15  1  0  0  0  0
 14 21  1  0  0  0  0
 15  3  1  0  0  0  0
 16  2  1  1  0  0  0
 16 12  1  0  0  0  0
 17 22  1  6  0  0  0
 17  5  1  0  0  0  0
 17  9  1  0  0  0  0
 19 23  1  6  0  0  0
 20  1  1  0  0  0  0
 21 22  1  0  0  0  0
 23 11  1  0  0  0  0
 25 24  1  6  0  0  0
 25 26  1  0  0  0  0
 25 19  1  0  0  0  0
 28 29  1  0  0  0  0
 29 27  1  0  0  0  0
 29 26  2  0  0  0  0
 30 28  1  0  0  0  0
 30 24  1  0  0  0  0
 31 22  1  0  0  0  0
 32 35  1  6  0  0  0
 32 34  1  0  0  0  0
 32 31  1  0  0  0  0
 33 34  1  0  0  0  0
 36 35  1  0  0  0  0
 37 36  1  0  0  0  0
M  END
>  <MODEL>
2

>  <REMARK>
 VINA RESULT:      -7.4      2.482      6.641
  Name = 
  6 active torsions:
  status: ('A' for Active; 'I' for Inactive)
    1  A    between atoms: C_1  and  C_4
    2  A    between atoms: C_1  and  N_27
    3  A    between atoms: C_4  and  C_12
    4  A    between atoms: C_4  and  C_37
    5  A    between atoms: C_8  and  C_12
    6  A    between atoms: C_23  and  C_30
                            x       y       z     vdW  Elec       q    Type
                         _______ _______ _______ _____ _____    ______ ____

>  <TORSDO>
F 6

$$$$
=
 OpenBabel11112417303D

 37 41  0  0  1  0  0  0  0  0999 V2000
  187.8850  177.6970  141.6510 C   0  0  0  0  0  0  0  0  0  0  0  0
  189.7320  174.0880  143.3530 C   0  0  0  0  0  2  0  0  0  0  0  0
  191.1420  174.5630  146.1440 O   0  0  0  0  0  0  0  0  0  0  0  0
  187.3000  175.2850  141.5100 C   0  0  2  0  0  3  0  0  0  0  0  0
  189.9470  175.3110  144.2150 C   0  0  2  0  0  3  0  0  0  0  0  0
  187.1970  175.3500  142.9280 O   0  0  0  0  0  0  0  0  0  0  0  0
  191.2740  175.3330  144.9810 C   0  0  2  0  0  3  0  0  0  0  0  0
  187.8890  173.9510  141.0280 C   0  0  0  0  0  2  0  0  0  0  0  0
  187.8200  176.4520  143.5860 C   0  0  2  0  0  3  0  0  0  0  0  0
  186.6340  178.1900  141.9990 F   0  0  0  0  0  0  0  0  0  0  0  0
  191.6420  174.2630  141.8520 N   0  0  0  0  0  2  0  0  0  0  0  0
  189.4180  173.8960  140.8470 C   0  0  0  0  0  2  0  0  0  0  0  0
  188.6200  177.2890  142.7700 O   0  0  0  0  0  0  0  0  0  0  0  0
  190.5800  176.5200  147.5390 C   0  0  0  0  0  2  0  0  0  0  0  0
  191.5460  175.3700  147.2230 C   0  0  0  0  0  2  0  0  0  0  0  0
  190.2120  174.5260  141.9860 C   0  0  1  0  0  3  0  0  0  0  0  0
  188.6520  175.9250  144.7820 C   0  0  2  0  0  3  0  0  0  0  0  0
  187.7560  176.5160  140.7290 C   0  0  0  0  0  2  0  0  0  0  0  0
  192.4670  174.8330  144.1150 C   0  0  1  0  0  3  0  0  0  0  0  0
  188.5830  178.6920  140.9950 F   0  0  0  0  0  0  0  0  0  0  0  0
  189.1610  176.2560  147.0600 C   0  0  0  0  0  2  0  0  0  0  0  0
  188.9330  176.9570  145.8000 N   0  0  0  0  0  0  0  0  0  0  0  0
  192.3790  175.2550  142.6390 C   0  0  0  0  0  2  0  0  0  0  0  0
  194.6950  175.9330  143.6280 C   0  0  0  0  0  2  0  0  0  0  0  0
  193.8320  175.2390  144.6790 C   0  0  2  0  0  3  0  0  0  0  0  0
  194.5460  174.1030  145.3710 C   0  0  0  0  0  3  0  0  0  0  0  0
  196.4610  172.9310  146.0620 O   0  0  0  0  0  1  0  0  0  0  0  0
  196.7630  174.9210  144.5920 C   0  0  0  0  0  2  0  0  0  0  0  0
  195.8780  173.9860  145.3730 C   0  0  0  0  0  0  0  0  0  0  0  0
  196.0650  176.2300  144.2240 C   0  0  0  0  0  2  0  0  0  0  0  0
  187.7460  177.7830  146.0370 C   0  0  0  0  0  2  0  0  0  0  0  0
  186.6920  177.0430  146.8740 C   0  0  1  0  0  3  0  0  0  0  0  0
  187.0610  179.1310  148.1900 C   0  0  0  0  0  1  0  0  0  0  0  0
  186.2800  177.8340  148.1070 C   0  0  0  0  0  2  0  0  0  0  0  0
  185.4620  176.6920  146.0510 C   0  0  0  0  0  2  0  0  0  0  0  0
  184.7080  177.9450  145.6450 C   0  0  0  0  0  2  0  0  0  0  0  0
  184.5180  177.9610  144.2630 O   0  0  0  0  0  1  0  0  0  0  0  0
  1 10  1  0  0  0  0
  1 13  1  0  0  0  0
  3 15  1  0  0  0  0
  4 18  1  1  0  0  0
  4  6  1  0  0  0  0
  5  2  1  1  0  0  0
  5 17  1  0  0  0  0
  5  7  1  0  0  0  0
  6  9  1  0  0  0  0
  7  3  1  1  0  0  0
  8  4  1  0  0  0  0
  9 13  1  6  0  0  0
  9 17  1  0  0  0  0
 11 16  1  0  0  0  0
 11 23  1  0  0  0  0
 12  8  1  0  0  0  0
 15 14  1  0  0  0  0
 16 12  1  6  0  0  0
 16  2  1  0  0  0  0
 17 22  1  1  0  0  0
 18  1  1  0  0  0  0
 19 23  1  6  0  0  0
 19 25  1  0  0  0  0
 19  7  1  0  0  0  0
 20  1  1  0  0  0  0
 21 14  1  0  0  0  0
 22 31  1  0  0  0  0
 22 21  1  0  0  0  0
 24 30  1  0  0  0  0
 25 24  1  6  0  0  0
 25 26  1  0  0  0  0
 26 29  2  0  0  0  0
 28 29  1  0  0  0  0
 29 27  1  0  0  0  0
 30 28  1  0  0  0  0
 32 31  1  6  0  0  0
 32 34  1  0  0  0  0
 34 33  1  0  0  0  0
 35 32  1  0  0  0  0
 36 35  1  0  0  0  0
 37 36  1  0  0  0  0
M  END
>  <MODEL>
3

>  <REMARK>
 VINA RESULT:      -7.3      3.343      5.870
  Name = 
  6 active torsions:
  status: ('A' for Active; 'I' for Inactive)
    1  A    between atoms: C_1  and  C_4
    2  A    between atoms: C_1  and  N_27
    3  A    between atoms: C_4  and  C_12
    4  A    between atoms: C_4  and  C_37
    5  A    between atoms: C_8  and  C_12
    6  A    between atoms: C_23  and  C_30
                            x       y       z     vdW  Elec       q    Type
                         _______ _______ _______ _____ _____    ______ ____

>  <TORSDO>
F 6

$$$$
=
 OpenBabel11112417303D

 37 41  0  0  1  0  0  0  0  0999 V2000
  192.3110  171.5200  143.6290 C   0  0  0  0  0  0  0  0  0  0  0  0
  190.2900  174.2000  140.7900 C   0  0  0  0  0  2  0  0  0  0  0  0
  189.5850  177.0410  141.9870 O   0  0  0  0  0  0  0  0  0  0  0  0
  192.4510  171.7630  141.1590 C   0  0  2  0  0  3  0  0  0  0  0  0
  190.4610  174.8250  142.1550 C   0  0  2  0  0  3  0  0  0  0  0  0
  192.8540  173.1010  141.4340 O   0  0  0  0  0  0  0  0  0  0  0  0
  189.3430  175.7890  142.5670 C   0  0  2  0  0  3  0  0  0  0  0  0
  191.5640  171.6670  139.9090 C   0  0  0  0  0  2  0  0  0  0  0  0
  192.5700  173.6240  142.7310 C   0  0  2  0  0  3  0  0  0  0  0  0
  193.6710  171.5410  143.9130 F   0  0  0  0  0  0  0  0  0  0  0  0
  188.1660  173.0480  141.0940 N   0  0  0  0  0  2  0  0  0  0  0  0
  190.0430  171.7680  140.1300 C   0  0  0  0  0  2  0  0  0  0  0  0
  191.7670  172.8080  143.5650 O   0  0  0  0  0  0  0  0  0  0  0  0
  190.7360  177.9000  143.9940 C   0  0  0  0  0  2  0  0  0  0  0  0
  189.5510  177.9920  143.0240 C   0  0  0  0  0  2  0  0  0  0  0  0
  189.6160  172.8770  141.0840 C   0  0  1  0  0  3  0  0  0  0  0  0
  191.9280  175.0260  142.5830 C   0  0  2  0  0  3  0  0  0  0  0  0
  192.0510  170.8440  142.3110 C   0  0  0  0  0  2  0  0  0  0  0  0
  187.9310  175.2600  142.1800 C   0  0  1  0  0  3  0  0  0  0  0  0
  191.6650  170.8090  144.6220 F   0  0  0  0  0  0  0  0  0  0  0  0
  191.9620  177.2450  143.3780 C   0  0  0  0  0  2  0  0  0  0  0  0
  192.0370  175.8500  143.8030 N   0  0  0  0  0  0  0  0  0  0  0  0
  187.7800  173.7360  142.3280 C   0  0  0  0  0  2  0  0  0  0  0  0
  186.2080  177.1140  142.1330 C   0  0  0  0  0  2  0  0  0  0  0  0
  186.7980  175.9590  142.9370 C   0  0  2  0  0  3  0  0  0  0  0  0
  187.1840  176.3550  144.3420 C   0  0  0  0  0  3  0  0  0  0  0  0
  187.0700  177.7210  146.2490 O   0  0  0  0  0  1  0  0  0  0  0  0
  185.8000  178.4190  144.2210 C   0  0  0  0  0  2  0  0  0  0  0  0
  186.6930  177.4440  144.9420 C   0  0  0  0  0  0  0  0  0  0  0  0
  185.1520  177.8190  142.9730 C   0  0  0  0  0  2  0  0  0  0  0  0
  193.3670  175.7090  144.4030 C   0  0  0  0  0  2  0  0  0  0  0  0
  193.2870  175.4440  145.9140 C   0  0  1  0  0  3  0  0  0  0  0  0
  194.6930  177.5050  145.9340 C   0  0  0  0  0  1  0  0  0  0  0  0
  193.7310  176.6470  146.7320 C   0  0  0  0  0  2  0  0  0  0  0  0
  191.8890  175.0180  146.3390 C   0  0  0  0  0  2  0  0  0  0  0  0
  191.3470  175.9410  147.4140 C   0  0  0  0  0  2  0  0  0  0  0  0
  190.0440  176.3250  147.1010 O   0  0  0  0  0  1  0  0  0  0  0  0
  1 10  1  0  0  0  0
  1 20  1  0  0  0  0
  2 16  1  0  0  0  0
  3 15  1  0  0  0  0
  4  8  1  6  0  0  0
  4  6  1  0  0  0  0
  4 18  1  0  0  0  0
  5  2  1  6  0  0  0
  5  7  1  0  0  0  0
  5 17  1  0  0  0  0
  7  3  1  6  0  0  0
  8 12  1  0  0  0  0
  9  6  1  6  0  0  0
  9 13  1  0  0  0  0
 11 23  1  0  0  0  0
 13  1  1  0  0  0  0
 15 14  1  0  0  0  0
 16 12  1  6  0  0  0
 16 11  1  0  0  0  0
 17  9  1  0  0  0  0
 17 22  1  1  0  0  0
 18  1  1  0  0  0  0
 19 23  1  1  0  0  0
 19  7  1  0  0  0  0
 19 25  1  0  0  0  0
 21 22  1  0  0  0  0
 21 14  1  0  0  0  0
 22 31  1  0  0  0  0
 24 30  1  0  0  0  0
 25 24  1  6  0  0  0
 25 26  1  0  0  0  0
 26 29  2  0  0  0  0
 28 29  1  0  0  0  0
 29 27  1  0  0  0  0
 30 28  1  0  0  0  0
 32 31  1  6  0  0  0
 32 35  1  0  0  0  0
 32 34  1  0  0  0  0
 33 34  1  0  0  0  0
 35 36  1  0  0  0  0
 37 36  1  0  0  0  0
M  END
>  <MODEL>
4

>  <REMARK>
 VINA RESULT:      -7.2      2.474      6.285
  Name = 
  6 active torsions:
  status: ('A' for Active; 'I' for Inactive)
    1  A    between atoms: C_1  and  C_4
    2  A    between atoms: C_1  and  N_27
    3  A    between atoms: C_4  and  C_12
    4  A    between atoms: C_4  and  C_37
    5  A    between atoms: C_8  and  C_12
    6  A    between atoms: C_23  and  C_30
                            x       y       z     vdW  Elec       q    Type
                         _______ _______ _______ _____ _____    ______ ____

>  <TORSDO>
F 6

$$$$
=
 OpenBabel11112417303D

 37 41  0  0  1  0  0  0  0  0999 V2000
  189.0360  175.1140  147.0740 C   0  0  0  0  0  0  0  0  0  0  0  0
  192.0490  175.0770  143.8720 C   0  0  0  0  0  2  0  0  0  0  0  0
  190.9330  174.1190  141.0720 O   0  0  0  0  0  0  0  0  0  0  0  0
  191.0420  176.5170  146.6390 C   0  0  2  0  0  3  0  0  0  0  0  0
  190.6990  174.5830  143.4040 C   0  0  2  0  0  3  0  0  0  0  0  0
  190.4010  176.8420  145.4110 O   0  0  0  0  0  0  0  0  0  0  0  0
  190.7510  173.5040  142.3160 C   0  0  2  0  0  3  0  0  0  0  0  0
  192.5650  176.3880  146.4860 C   0  0  0  0  0  2  0  0  0  0  0  0
  189.3510  175.9840  144.9660 C   0  0  2  0  0  3  0  0  0  0  0  0
  188.1180  176.1340  147.2900 F   0  0  0  0  0  0  0  0  0  0  0  0
  193.0170  173.0020  144.7000 N   0  0  0  0  0  2  0  0  0  0  0  0
  193.1120  174.9830  146.1690 C   0  0  0  0  0  2  0  0  0  0  0  0
  189.1600  174.7970  145.7160 O   0  0  0  0  0  0  0  0  0  0  0  0
  188.5140  174.1560  140.5830 C   0  0  0  0  0  2  0  0  0  0  0  0
  189.9160  173.6460  140.2220 C   0  0  0  0  0  2  0  0  0  0  0  0
  192.3350  174.2310  145.0940 C   0  0  1  0  0  3  0  0  0  0  0  0
  189.5770  175.6370  143.4730 C   0  0  2  0  0  3  0  0  0  0  0  0
  190.3970  175.5040  147.5820 C   0  0  0  0  0  2  0  0  0  0  0  0
  191.8620  172.4460  142.5830 C   0  0  1  0  0  3  0  0  0  0  0  0
  188.6160  173.9910  147.7590 F   0  0  0  0  0  0  0  0  0  0  0  0
  188.5360  175.4600  141.3650 C   0  0  0  0  0  2  0  0  0  0  0  0
  188.3520  175.1810  142.7860 N   0  0  0  0  0  0  0  0  0  0  0  0
  192.0460  172.1040  144.0710 C   0  0  0  0  0  2  0  0  0  0  0  0
  191.7160  169.9210  142.6830 C   0  0  0  0  0  2  0  0  0  0  0  0
  191.6670  171.1540  141.7850 C   0  0  2  0  0  3  0  0  0  0  0  0
  192.5880  171.0520  140.5930 C   0  0  0  0  0  3  0  0  0  0  0  0
  193.8770  169.8690  139.0260 O   0  0  0  0  0  1  0  0  0  0  0  0
  192.8000  168.5880  140.8730 C   0  0  0  0  0  2  0  0  0  0  0  0
  193.0630  169.8830  140.1490 C   0  0  0  0  0  0  0  0  0  0  0  0
  191.6050  168.6700  141.8210 C   0  0  0  0  0  2  0  0  0  0  0  0
  187.2030  175.9990  143.1860 C   0  0  0  0  0  2  0  0  0  0  0  0
  187.0830  177.2710  142.3340 C   0  0  1  0  0  3  0  0  0  0  0  0
  185.9440  177.7220  140.1610 C   0  0  0  0  0  1  0  0  0  0  0  0
  185.7430  177.3590  141.6190 C   0  0  0  0  0  2  0  0  0  0  0  0
  187.3110  178.5280  143.1610 C   0  0  0  0  0  2  0  0  0  0  0  0
  185.9890  179.1540  143.5660 C   0  0  0  0  0  2  0  0  0  0  0  0
  185.9500  179.3350  144.9490 O   0  0  0  0  0  1  0  0  0  0  0  0
  1 10  1  0  0  0  0
  1 18  1  0  0  0  0
  1 20  1  0  0  0  0
  4  8  1  6  0  0  0
  4 18  1  0  0  0  0
  5 17  1  0  0  0  0
  5  2  1  6  0  0  0
  6  4  1  0  0  0  0
  7  3  1  6  0  0  0
  7 19  1  0  0  0  0
  7  5  1  0  0  0  0
  9  6  1  1  0  0  0
  9 13  1  0  0  0  0
 11 16  1  0  0  0  0
 12  8  1  0  0  0  0
 13  1  1  0  0  0  0
 14 21  1  0  0  0  0
 15 14  1  0  0  0  0
 15  3  1  0  0  0  0
 16  2  1  6  0  0  0
 16 12  1  0  0  0  0
 17 22  1  1  0  0  0
 17  9  1  0  0  0  0
 19 23  1  1  0  0  0
 21 22  1  0  0  0  0
 22 31  1  0  0  0  0
 23 11  1  0  0  0  0
 25 26  1  6  0  0  0
 25 19  1  0  0  0  0
 25 24  1  0  0  0  0
 27 29  1  0  0  0  0
 28 30  1  0  0  0  0
 29 26  2  0  0  0  0
 29 28  1  0  0  0  0
 30 24  1  0  0  0  0
 32 34  1  1  0  0  0
 32 35  1  0  0  0  0
 32 31  1  0  0  0  0
 33 34  1  0  0  0  0
 35 36  1  0  0  0  0
 36 37  1  0  0  0  0
M  END
>  <MODEL>
5

>  <REMARK>
 VINA RESULT:      -7.0      2.014      2.843
  Name = 
  6 active torsions:
  status: ('A' for Active; 'I' for Inactive)
    1  A    between atoms: C_1  and  C_4
    2  A    between atoms: C_1  and  N_27
    3  A    between atoms: C_4  and  C_12
    4  A    between atoms: C_4  and  C_37
    5  A    between atoms: C_8  and  C_12
    6  A    between atoms: C_23  and  C_30
                            x       y       z     vdW  Elec       q    Type
                         _______ _______ _______ _____ _____    ______ ____

>  <TORSDO>
F 6

$$$$
=
 OpenBabel11112417303D

 37 41  0  0  1  0  0  0  0  0999 V2000
  195.4050  175.7380  142.3870 C   0  0  0  0  0  0  0  0  0  0  0  0
  192.2300  174.6920  145.2430 C   0  0  0  0  0  2  0  0  0  0  0  0
  189.7000  173.3400  143.9110 O   0  0  0  0  0  0  0  0  0  0  0  0
  195.4550  175.0420  144.7730 C   0  0  2  0  0  3  0  0  0  0  0  0
  191.8570  174.3650  143.8150 C   0  0  2  0  0  3  0  0  0  0  0  0
  194.8080  173.8580  144.3170 O   0  0  0  0  0  0  0  0  0  0  0  0
  190.3640  174.5010  143.4930 C   0  0  2  0  0  3  0  0  0  0  0  0
  194.9420  175.4940  146.1480 C   0  0  0  0  0  2  0  0  0  0  0  0
  194.1800  173.9000  143.0360 C   0  0  2  0  0  3  0  0  0  0  0  0
  196.3570  174.8530  141.8970 F   0  0  0  0  0  0  0  0  0  0  0  0
  191.4810  177.0060  145.3770 N   0  0  0  0  0  2  0  0  0  0  0  0
  193.7660  176.4880  146.1550 C   0  0  0  0  0  2  0  0  0  0  0  0
  194.1250  175.1720  142.4140 O   0  0  0  0  0  0  0  0  0  0  0  0
  189.8410  172.2940  141.6800 C   0  0  0  0  0  2  0  0  0  0  0  0
  188.9690  172.8620  142.8080 C   0  0  0  0  0  2  0  0  0  0  0  0
  192.6450  176.1470  145.1790 C   0  0  1  0  0  3  0  0  0  0  0  0
  192.7550  173.3040  143.1500 C   0  0  2  0  0  3  0  0  0  0  0  0
  195.7480  176.1700  143.7860 C   0  0  0  0  0  2  0  0  0  0  0  0
  189.7310  175.7670  144.1400 C   0  0  1  0  0  3  0  0  0  0  0  0
  195.3830  176.8550  141.5750 F   0  0  0  0  0  0  0  0  0  0  0  0
  191.2070  171.8290  142.1570 C   0  0  0  0  0  2  0  0  0  0  0  0
  192.2050  172.8510  141.8570 N   0  0  0  0  0  0  0  0  0  0  0  0
  190.6690  176.9870  144.1580 C   0  0  0  0  0  2  0  0  0  0  0  0
  188.5580  176.5500  142.0370 C   0  0  0  0  0  2  0  0  0  0  0  0
  188.3950  176.1630  143.5050 C   0  0  2  0  0  3  0  0  0  0  0  0
  187.6450  177.2000  144.3080 C   0  0  0  0  0  3  0  0  0  0  0  0
  186.1790  179.0190  144.5470 O   0  0  0  0  0  1  0  0  0  0  0  0
  186.7580  178.2670  142.2420 C   0  0  0  0  0  2  0  0  0  0  0  0
  186.8630  178.1230  143.7380 C   0  0  0  0  0  0  0  0  0  0  0  0
  187.2150  177.0160  141.4920 C   0  0  0  0  0  2  0  0  0  0  0  0
  193.2330  172.1570  141.0750 C   0  0  0  0  0  2  0  0  0  0  0  0
  193.3550  172.7300  139.6560 C   0  0  1  0  0  3  0  0  0  0  0  0
  191.2570  173.2690  138.4180 C   0  0  0  0  0  1  0  0  0  0  0  0
  192.3070  173.7970  139.3750 C   0  0  0  0  0  2  0  0  0  0  0  0
  194.7450  173.2900  139.3910 C   0  0  0  0  0  2  0  0  0  0  0  0
  194.6630  174.7070  138.8540 C   0  0  0  0  0  2  0  0  0  0  0  0
  195.9300  175.2910  138.8540 O   0  0  0  0  0  1  0  0  0  0  0  0
  1 13  1  0  0  0  0
  1 18  1  0  0  0  0
  4 18  1  6  0  0  0
  4  8  1  0  0  0  0
  5  2  1  1  0  0  0
  6  4  1  0  0  0  0
  7  5  1  0  0  0  0
  7  3  1  1  0  0  0
  7 19  1  0  0  0  0
  8 12  1  0  0  0  0
  9 13  1  1  0  0  0
  9 17  1  0  0  0  0
  9  6  1  0  0  0  0
 10  1  1  0  0  0  0
 14 21  1  0  0  0  0
 14 15  1  0  0  0  0
 15  3  1  0  0  0  0
 16  2  1  1  0  0  0
 16 11  1  0  0  0  0
 16 12  1  0  0  0  0
 17 22  1  6  0  0  0
 17  5  1  0  0  0  0
 19 23  1  6  0  0  0
 20  1  1  0  0  0  0
 22 21  1  0  0  0  0
 23 11  1  0  0  0  0
 25 24  1  6  0  0  0
 25 19  1  0  0  0  0
 25 26  1  0  0  0  0
 28 29  1  0  0  0  0
 29 26  2  0  0  0  0
 29 27  1  0  0  0  0
 30 24  1  0  0  0  0
 30 28  1  0  0  0  0
 31 22  1  0  0  0  0
 32 34  1  1  0  0  0
 32 31  1  0  0  0  0
 33 34  1  0  0  0  0
 35 32  1  0  0  0  0
 36 35  1  0  0  0  0
 37 36  1  0  0  0  0
M  END
>  <MODEL>
6

>  <REMARK>
 VINA RESULT:      -6.9      2.857      6.859
  Name = 
  6 active torsions:
  status: ('A' for Active; 'I' for Inactive)
    1  A    between atoms: C_1  and  C_4
    2  A    between atoms: C_1  and  N_27
    3  A    between atoms: C_4  and  C_12
    4  A    between atoms: C_4  and  C_37
    5  A    between atoms: C_8  and  C_12
    6  A    between atoms: C_23  and  C_30
                            x       y       z     vdW  Elec       q    Type
                         _______ _______ _______ _____ _____    ______ ____

>  <TORSDO>
F 6

$$$$
=
 OpenBabel11112417303D

 37 41  0  0  1  0  0  0  0  0999 V2000
  195.2510  175.4870  142.0120 C   0  0  0  0  0  0  0  0  0  0  0  0
  193.0990  173.9890  145.5410 C   0  0  0  0  0  2  0  0  0  0  0  0
  190.2770  172.7230  144.8800 O   0  0  0  0  0  0  0  0  0  0  0  0
  196.0260  174.5060  144.1600 C   0  0  2  0  0  3  0  0  0  0  0  0
  192.3050  173.8260  144.2650 C   0  0  2  0  0  3  0  0  0  0  0  0
  195.2660  173.3650  143.7760 O   0  0  0  0  0  0  0  0  0  0  0  0
  190.7860  173.9480  144.4320 C   0  0  2  0  0  3  0  0  0  0  0  0
  195.9610  174.7680  145.6720 C   0  0  0  0  0  2  0  0  0  0  0  0
  194.2760  173.5420  142.7630 C   0  0  2  0  0  3  0  0  0  0  0  0
  196.0040  174.7030  141.1460 F   0  0  0  0  0  0  0  0  0  0  0  0
  192.4370  176.2410  146.1900 N   0  0  0  0  0  2  0  0  0  0  0  0
  194.8470  175.7120  146.1630 C   0  0  0  0  0  2  0  0  0  0  0  0
  194.0380  174.8770  142.3550 O   0  0  0  0  0  0  0  0  0  0  0  0
  189.7230  171.9640  142.5980 C   0  0  0  0  0  2  0  0  0  0  0  0
  189.2410  172.3580  144.0010 C   0  0  0  0  0  2  0  0  0  0  0  0
  193.4800  175.4540  145.5400 C   0  0  1  0  0  3  0  0  0  0  0  0
  192.9510  172.8860  143.2290 C   0  0  2  0  0  3  0  0  0  0  0  0
  196.0080  175.7560  143.2830 C   0  0  0  0  0  2  0  0  0  0  0  0
  190.3860  175.1030  145.3970 C   0  0  1  0  0  3  0  0  0  0  0  0
  194.9870  176.6940  141.3940 F   0  0  0  0  0  0  0  0  0  0  0  0
  191.1680  171.4910  142.5740 C   0  0  0  0  0  2  0  0  0  0  0  0
  192.0300  172.5760  142.1170 N   0  0  0  0  0  0  0  0  0  0  0  0
  191.2900  176.3430  145.2840 C   0  0  0  0  0  2  0  0  0  0  0  0
  188.6720  176.2670  143.9420 C   0  0  0  0  0  2  0  0  0  0  0  0
  188.9220  175.5270  145.2540 C   0  0  2  0  0  3  0  0  0  0  0  0
  188.4040  176.2740  146.4600 C   0  0  0  0  0  3  0  0  0  0  0  0
  187.0330  177.8540  147.5270 O   0  0  0  0  0  1  0  0  0  0  0  0
  186.9710  177.7280  145.0380 C   0  0  0  0  0  2  0  0  0  0  0  0
  187.4830  177.2390  146.3670 C   0  0  0  0  0  0  0  0  0  0  0  0
  187.2240  176.7370  143.9030 C   0  0  0  0  0  2  0  0  0  0  0  0
  192.7660  172.0200  140.9790 C   0  0  0  0  0  2  0  0  0  0  0  0
  192.3510  172.6760  139.6540 C   0  0  1  0  0  3  0  0  0  0  0  0
  193.6810  174.5860  138.7550 C   0  0  0  0  0  1  0  0  0  0  0  0
  193.5510  173.0760  138.8090 C   0  0  0  0  0  2  0  0  0  0  0  0
  191.4260  171.7780  138.8450 C   0  0  0  0  0  2  0  0  0  0  0  0
  190.1140  172.4810  138.5500 C   0  0  0  0  0  2  0  0  0  0  0  0
  189.9750  173.5990  139.3720 O   0  0  0  0  0  1  0  0  0  0  0  0
  1 13  1  0  0  0  0
  1 18  1  0  0  0  0
  4 18  1  6  0  0  0
  4  8  1  0  0  0  0
  5  7  1  0  0  0  0
  5  2  1  1  0  0  0
  6  4  1  0  0  0  0
  7  3  1  1  0  0  0
  7 19  1  0  0  0  0
  8 12  1  0  0  0  0
  9 13  1  1  0  0  0
  9 17  1  0  0  0  0
  9  6  1  0  0  0  0
 10  1  1  0  0  0  0
 14 15  1  0  0  0  0
 15  3  1  0  0  0  0
 16  2  1  1  0  0  0
 16 12  1  0  0  0  0
 16 11  1  0  0  0  0
 17 22  1  6  0  0  0
 17  5  1  0  0  0  0
 19 23  1  6  0  0  0
 20  1  1  0  0  0  0
 21 14  1  0  0  0  0
 22 21  1  0  0  0  0
 23 11  1  0  0  0  0
 25 24  1  6  0  0  0
 25 19  1  0  0  0  0
 25 26  1  0  0  0  0
 28 29  1  0  0  0  0
 29 26  2  0  0  0  0
 29 27  1  0  0  0  0
 30 24  1  0  0  0  0
 30 28  1  0  0  0  0
 31 22  1  0  0  0  0
 32 34  1  6  0  0  0
 32 31  1  0  0  0  0
 33 34  1  0  0  0  0
 35 32  1  0  0  0  0
 36 35  1  0  0  0  0
 36 37  1  0  0  0  0
M  END
>  <MODEL>
7

>  <REMARK>
 VINA RESULT:      -6.9      2.684      6.760
  Name = 
  6 active torsions:
  status: ('A' for Active; 'I' for Inactive)
    1  A    between atoms: C_1  and  C_4
    2  A    between atoms: C_1  and  N_27
    3  A    between atoms: C_4  and  C_12
    4  A    between atoms: C_4  and  C_37
    5  A    between atoms: C_8  and  C_12
    6  A    between atoms: C_23  and  C_30
                            x       y       z     vdW  Elec       q    Type
                         _______ _______ _______ _____ _____    ______ ____

>  <TORSDO>
F 6

$$$$
=
 OpenBabel11112417303D

 37 41  0  0  1  0  0  0  0  0999 V2000
  188.0000  175.9210  141.4900 C   0  0  0  0  0  0  0  0  0  0  0  0
  191.1990  173.0490  142.4130 C   0  0  0  0  0  2  0  0  0  0  0  0
  192.8400  173.7520  145.0230 O   0  0  0  0  0  0  0  0  0  0  0  0
  188.2250  173.4770  141.1010 C   0  0  2  0  0  3  0  0  0  0  0  0
  191.1470  174.1950  143.3960 C   0  0  2  0  0  3  0  0  0  0  0  0
  188.3560  173.3850  142.5160 O   0  0  0  0  0  0  0  0  0  0  0  0
  192.5060  174.6130  143.9700 C   0  0  2  0  0  3  0  0  0  0  0  0
  189.1260  172.4740  140.3650 C   0  0  0  0  0  2  0  0  0  0  0  0
  188.6880  174.5770  143.2270 C   0  0  2  0  0  3  0  0  0  0  0  0
  186.7380  175.9200  142.0700 F   0  0  0  0  0  0  0  0  0  0  0  0
  192.6510  173.9980  140.7030 N   0  0  0  0  0  2  0  0  0  0  0  0
  190.5310  172.9660  139.9710 C   0  0  0  0  0  2  0  0  0  0  0  0
  189.0130  175.7030  142.4320 O   0  0  0  0  0  0  0  0  0  0  0  0
  191.9200  175.2710  146.7370 C   0  0  0  0  0  2  0  0  0  0  0  0
  193.1390  174.5570  146.1370 C   0  0  0  0  0  2  0  0  0  0  0  0
  191.2610  173.7370  141.0660 C   0  0  1  0  0  3  0  0  0  0  0  0
  189.8430  174.2740  144.2140 C   0  0  2  0  0  3  0  0  0  0  0  0
  188.1070  174.8490  140.4410 C   0  0  0  0  0  2  0  0  0  0  0  0
  193.6260  174.6300  142.8890 C   0  0  1  0  0  3  0  0  0  0  0  0
  188.2060  177.1470  140.8870 F   0  0  0  0  0  0  0  0  0  0  0  0
  190.6060  174.5730  146.4240 C   0  0  0  0  0  2  0  0  0  0  0  0
  189.9430  175.2520  145.3160 N   0  0  0  0  0  0  0  0  0  0  0  0
  193.1460  175.1160  141.5100 C   0  0  0  0  0  2  0  0  0  0  0  0
  195.5480  176.0840  142.1130 C   0  0  0  0  0  2  0  0  0  0  0  0
  194.8580  175.4360  143.3110 C   0  0  2  0  0  3  0  0  0  0  0  0
  195.8070  174.6500  144.1830 C   0  0  0  0  0  3  0  0  0  0  0  0
  197.9320  174.0990  145.0160 O   0  0  0  0  0  1  0  0  0  0  0  0
  197.7840  175.7750  143.1770 C   0  0  0  0  0  2  0  0  0  0  0  0
  197.1300  174.8380  144.1580 C   0  0  0  0  0  0  0  0  0  0  0  0
  196.8090  176.7930  142.5880 C   0  0  0  0  0  2  0  0  0  0  0  0
  188.6110  175.5930  145.8240 C   0  0  0  0  0  2  0  0  0  0  0  0
  188.4670  177.0990  146.0840 C   0  0  1  0  0  3  0  0  0  0  0  0
  189.9040  178.2180  144.3790 C   0  0  0  0  0  1  0  0  0  0  0  0
  188.4800  177.9090  144.7960 C   0  0  0  0  0  2  0  0  0  0  0  0
  187.2100  177.4160  146.8810 C   0  0  0  0  0  2  0  0  0  0  0  0
  186.1080  177.9240  145.9700 C   0  0  0  0  0  2  0  0  0  0  0  0
  185.0840  176.9800  145.8860 O   0  0  0  0  0  1  0  0  0  0  0  0
  1 10  1  0  0  0  0
  1 13  1  0  0  0  0
  3 15  1  0  0  0  0
  4  8  1  6  0  0  0
  4  6  1  0  0  0  0
  5  2  1  1  0  0  0
  5  7  1  0  0  0  0
  5 17  1  0  0  0  0
  6  9  1  0  0  0  0
  7  3  1  1  0  0  0
  9 13  1  6  0  0  0
  9 17  1  0  0  0  0
 11 16  1  0  0  0  0
 11 23  1  0  0  0  0
 12  8  1  0  0  0  0
 15 14  1  0  0  0  0
 16 12  1  6  0  0  0
 16  2  1  0  0  0  0
 17 22  1  1  0  0  0
 18  4  1  0  0  0  0
 18  1  1  0  0  0  0
 19 23  1  6  0  0  0
 19 25  1  0  0  0  0
 19  7  1  0  0  0  0
 20  1  1  0  0  0  0
 21 14  1  0  0  0  0
 22 31  1  0  0  0  0
 22 21  1  0  0  0  0
 24 30  1  0  0  0  0
 25 24  1  6  0  0  0
 25 26  1  0  0  0  0
 28 29  1  0  0  0  0
 29 26  2  0  0  0  0
 29 27  1  0  0  0  0
 30 28  1  0  0  0  0
 31 32  1  0  0  0  0
 32 34  1  6  0  0  0
 32 35  1  0  0  0  0
 33 34  1  0  0  0  0
 36 35  1  0  0  0  0
 37 36  1  0  0  0  0
M  END
>  <MODEL>
8

>  <REMARK>
 VINA RESULT:      -6.8      2.841      5.846
  Name = 
  6 active torsions:
  status: ('A' for Active; 'I' for Inactive)
    1  A    between atoms: C_1  and  C_4
    2  A    between atoms: C_1  and  N_27
    3  A    between atoms: C_4  and  C_12
    4  A    between atoms: C_4  and  C_37
    5  A    between atoms: C_8  and  C_12
    6  A    between atoms: C_23  and  C_30
                            x       y       z     vdW  Elec       q    Type
                         _______ _______ _______ _____ _____    ______ ____

>  <TORSDO>
F 6

$$$$
=
 OpenBabel11112417303D

 37 41  0  0  1  0  0  0  0  0999 V2000
  191.1320  171.5970  143.3700 C   0  0  0  0  0  0  0  0  0  0  0  0
  189.4150  175.0770  141.3040 C   0  0  0  0  0  2  0  0  0  0  0  0
  190.1680  177.8520  142.6210 O   0  0  0  0  0  0  0  0  0  0  0  0
  190.5750  172.0280  140.9860 C   0  0  2  0  0  3  0  0  0  0  0  0
  190.2110  175.4650  142.5290 C   0  0  2  0  0  3  0  0  0  0  0  0
  191.4890  173.1140  141.0930 O   0  0  0  0  0  0  0  0  0  0  0  0
  189.6930  176.7040  143.2670 C   0  0  2  0  0  3  0  0  0  0  0  0
  189.3710  172.3650  140.0950 C   0  0  0  0  0  2  0  0  0  0  0  0
  191.8260  173.5680  142.4040 C   0  0  2  0  0  3  0  0  0  0  0  0
  192.4280  171.1270  143.1940 F   0  0  0  0  0  0  0  0  0  0  0  0
  187.2270  174.6880  142.3020 N   0  0  0  0  0  2  0  0  0  0  0  0
  188.1330  172.9520  140.7990 C   0  0  0  0  0  2  0  0  0  0  0  0
  191.0880  172.9930  143.4670 O   0  0  0  0  0  0  0  0  0  0  0  0
  192.1110  178.0610  144.1290 C   0  0  0  0  0  2  0  0  0  0  0  0
  190.7960  178.6470  143.5980 C   0  0  0  0  0  2  0  0  0  0  0  0
  188.4440  174.0380  141.8230 C   0  0  1  0  0  3  0  0  0  0  0  0
  191.7090  175.1120  142.4510 C   0  0  2  0  0  3  0  0  0  0  0  0
  190.2550  171.1870  142.2190 C   0  0  0  0  0  2  0  0  0  0  0  0
  188.1390  176.7260  143.3700 C   0  0  1  0  0  3  0  0  0  0  0  0
  190.6200  171.0510  144.5300 F   0  0  0  0  0  0  0  0  0  0  0  0
  192.7700  177.0950  143.1570 C   0  0  0  0  0  2  0  0  0  0  0  0
  192.4750  175.7230  143.5560 N   0  0  0  0  0  0  0  0  0  0  0  0
  187.5140  175.3370  143.5840 C   0  0  0  0  0  2  0  0  0  0  0  0
  187.2390  176.9510  145.7260 C   0  0  0  0  0  2  0  0  0  0  0  0
  187.6210  177.6870  144.4450 C   0  0  2  0  0  3  0  0  0  0  0  0
  186.5290  178.6000  143.9420 C   0  0  0  0  0  3  0  0  0  0  0  0
  184.5880  179.8980  144.1970 O   0  0  0  0  0  1  0  0  0  0  0  0
  185.3710  178.5520  146.1440 C   0  0  0  0  0  2  0  0  0  0  0  0
  185.5350  179.0320  144.7260 C   0  0  0  0  0  0  0  0  0  0  0  0
  186.6510  177.9460  146.7170 C   0  0  0  0  0  2  0  0  0  0  0  0
  193.7850  175.0790  143.6920 C   0  0  0  0  0  2  0  0  0  0  0  0
  194.0400  174.5990  145.1280 C   0  0  1  0  0  3  0  0  0  0  0  0
  195.9630  173.1240  145.7200 C   0  0  0  0  0  1  0  0  0  0  0  0
  194.5490  173.1660  145.1730 C   0  0  0  0  0  2  0  0  0  0  0  0
  195.0060  175.5140  145.8650 C   0  0  0  0  0  2  0  0  0  0  0  0
  194.2540  176.5770  146.6450 C   0  0  0  0  0  2  0  0  0  0  0  0
  192.9750  176.1210  146.9630 O   0  0  0  0  0  1  0  0  0  0  0  0
  1 13  1  0  0  0  0
  1 20  1  0  0  0  0
  2 16  1  0  0  0  0
  3 15  1  0  0  0  0
  4  8  1  1  0  0  0
  4  6  1  0  0  0  0
  4 18  1  0  0  0  0
  5  2  1  6  0  0  0
  5  7  1  0  0  0  0
  7  3  1  6  0  0  0
  7 19  1  0  0  0  0
  8 12  1  0  0  0  0
  9  6  1  6  0  0  0
  9 17  1  0  0  0  0
  9 13  1  0  0  0  0
 10  1  1  0  0  0  0
 11 23  1  0  0  0  0
 15 14  1  0  0  0  0
 16 12  1  6  0  0  0
 16 11  1  0  0  0  0
 17  5  1  0  0  0  0
 17 22  1  1  0  0  0
 18  1  1  0  0  0  0
 19 23  1  1  0  0  0
 19 25  1  0  0  0  0
 21 22  1  0  0  0  0
 21 14  1  0  0  0  0
 22 31  1  0  0  0  0
 24 30  1  0  0  0  0
 25 26  1  6  0  0  0
 25 24  1  0  0  0  0
 26 29  2  0  0  0  0
 27 29  1  0  0  0  0
 28 30  1  0  0  0  0
 29 28  1  0  0  0  0
 32 31  1  6  0  0  0
 32 34  1  0  0  0  0
 32 35  1  0  0  0  0
 34 33  1  0  0  0  0
 35 36  1  0  0  0  0
 36 37  1  0  0  0  0
M  END
>  <MODEL>
9

>  <REMARK>
 VINA RESULT:      -6.7      2.402      7.232
  Name = 
  6 active torsions:
  status: ('A' for Active; 'I' for Inactive)
    1  A    between atoms: C_1  and  C_4
    2  A    between atoms: C_1  and  N_27
    3  A    between atoms: C_4  and  C_12
    4  A    between atoms: C_4  and  C_37
    5  A    between atoms: C_8  and  C_12
    6  A    between atoms: C_23  and  C_30
                            x       y       z     vdW  Elec       q    Type
                         _______ _______ _______ _____ _____    ______ ____

>  <TORSDO>
F 6

$$$$
