=
 OpenBabel11112417123D

 37 42  0  0  1  0  0  0  0  0999 V2000
  194.5740  175.3530  144.6170 C   0  0  0  0  0  0  0  0  0  0  0  0
  190.4350  175.7730  145.5910 C   0  0  0  0  0  0  0  0  0  0  0  0
  189.4210  177.7960  143.5990 C   0  0  0  0  0  1  0  0  0  0  0  0
  192.7240  175.9680  146.3160 C   0  0  0  0  0  0  0  0  0  0  0  0
  189.6930  175.3940  144.3580 C   0  0  1  0  0  3  0  0  0  0  0  0
  191.7600  175.5420  145.4020 C   0  0  0  0  0  0  0  0  0  0  0  0
  188.7060  176.4820  143.8990 C   0  0  1  0  0  3  0  0  0  0  0  0
  192.2800  176.5810  147.5000 C   0  0  0  0  0  3  0  0  0  0  0  0
  191.9920  174.9490  144.0780 C   0  0  2  0  0  3  0  0  0  0  0  0
  194.6960  173.8430  144.7380 C   0  0  0  0  0  1  0  0  0  0  0  0
  188.5190  176.7790  146.9250 C   0  0  0  0  0  2  0  0  0  0  0  0
  190.9030  176.7830  147.7240 C   0  0  0  0  0  3  0  0  0  0  0  0
  193.3880  175.7980  143.2800 S   0  0  0  0  0  0  0  0  0  0  0  0
  189.9600  176.3880  146.7600 C   0  0  0  0  0  0  0  0  0  0  0  0
  190.7320  175.1270  143.3370 N   0  0  1  0  0  0  0  0  0  0  0  0
  194.1930  175.9580  145.9830 C   0  0  0  0  0  2  0  0  0  0  0  0
  187.6420  176.6890  144.8980 N   0  0  0  0  0  0  0  0  0  0  0  0
  195.9340  175.8960  144.2340 C   0  0  0  0  0  1  0  0  0  0  0  0
  187.6920  176.0170  146.0850 O   0  0  0  0  0  0  0  0  0  0  0  0
  189.6300  174.1200  141.3010 C   0  0  0  0  0  2  0  0  0  0  0  0
  188.9830  172.8390  140.7770 C   0  0  2  0  0  3  0  0  0  0  0  0
  191.3340  171.8480  140.2860 C   0  0  2  0  0  3  0  0  0  0  0  0
  189.9060  171.6170  140.8110 C   0  0  0  0  0  2  0  0  0  0  0  0
  192.1650  172.8130  141.0420 N   0  0  0  0  0  0  0  0  0  0  0  0
  192.2470  174.0000  140.3860 O   0  0  0  0  0  1  0  0  0  0  0  0
  191.7220  173.0380  142.4300 C   0  0  0  0  0  2  0  0  0  0  0  0
  191.3380  172.1170  138.9130 O   0  0  0  0  0  1  0  0  0  0  0  0
  190.4430  173.8930  142.5920 C   0  0  1  0  0  3  0  0  0  0  0  0
  188.2700  174.4750  139.1170 N   0  0  0  0  0  1  0  0  0  0  0  0
  188.4310  173.0550  139.3780 C   0  0  0  0  0  2  0  0  0  0  0  0
  186.0270  178.4620  145.4580 C   0  0  0  0  0  3  0  0  0  0  0  0
  186.4660  177.4590  144.5810 C   0  0  0  0  0  0  0  0  0  0  0  0
  185.7310  177.2120  143.4090 C   0  0  0  0  0  3  0  0  0  0  0  0
  183.8880  177.7120  141.9840 F   0  0  0  0  0  0  0  0  0  0  0  0
  184.1620  178.9580  143.9970 C   0  0  0  0  0  3  0  0  0  0  0  0
  184.5860  177.9590  143.1170 C   0  0  0  0  0  0  0  0  0  0  0  0
  184.8820  179.2100  145.1680 C   0  0  0  0  0  3  0  0  0  0  0  0
  1 10  1  0  0  0  0
  1 16  1  0  0  0  0
  2 14  1  0  0  0  0
  4  8  2  0  0  0  0
  5  2  1  1  0  0  0
  6  2  2  0  0  0  0
  6  4  1  0  0  0  0
  7  3  1  1  0  0  0
  7  5  1  0  0  0  0
  7 17  1  0  0  0  0
  8 12  1  0  0  0  0
  9 13  1  6  0  0  0
  9  6  1  0  0  0  0
 13  1  1  0  0  0  0
 14 11  1  0  0  0  0
 14 12  2  0  0  0  0
 15 28  1  1  0  0  0
 15  9  1  0  0  0  0
 15  5  1  0  0  0  0
 16  4  1  0  0  0  0
 17 19  1  0  0  0  0
 18  1  1  0  0  0  0
 19 11  1  0  0  0  0
 21 30  1  6  0  0  0
 21 23  1  0  0  0  0
 21 20  1  0  0  0  0
 22 27  1  6  0  0  0
 22 23  1  0  0  0  0
 22 24  1  0  0  0  0
 24 26  1  0  0  0  0
 25 24  1  0  0  0  0
 26 28  1  0  0  0  0
 28 20  1  6  0  0  0
 29 30  1  0  0  0  0
 32 17  1  0  0  0  0
 32 31  2  0  0  0  0
 33 32  1  0  0  0  0
 34 36  1  0  0  0  0
 35 37  2  0  0  0  0
 36 33  2  0  0  0  0
 36 35  1  0  0  0  0
 37 31  1  0  0  0  0
M  END
>  <MODEL>
1

>  <REMARK>
 VINA RESULT:      -9.3      0.000      0.000
  Name = 
  3 active torsions:
  status: ('A' for Active; 'I' for Inactive)
    1  A    between atoms: C_4  and  C_37
    2  A    between atoms: N_21  and  C_27
    3  A    between atoms: N_23  and  C_30
                            x       y       z     vdW  Elec       q    Type
                         _______ _______ _______ _____ _____    ______ ____

>  <TORSDO>
F 3

$$$$
=
 OpenBabel11112417123D

 37 42  0  0  1  0  0  0  0  0999 V2000
  195.2870  175.8740  142.8970 C   0  0  0  0  0  0  0  0  0  0  0  0
  191.9110  175.7630  145.5140 C   0  0  0  0  0  0  0  0  0  0  0  0
  189.9360  177.6460  144.2320 C   0  0  0  0  0  1  0  0  0  0  0  0
  194.2560  176.2450  145.2390 C   0  0  0  0  0  0  0  0  0  0  0  0
  190.7720  175.2950  144.6780 C   0  0  1  0  0  3  0  0  0  0  0  0
  193.0540  175.7020  144.7830 C   0  0  0  0  0  0  0  0  0  0  0  0
  189.5660  176.2500  144.7280 C   0  0  1  0  0  3  0  0  0  0  0  0
  194.2780  176.7940  146.5330 C   0  0  0  0  0  3  0  0  0  0  0  0
  192.7810  175.1470  143.4500 C   0  0  2  0  0  3  0  0  0  0  0  0
  195.6210  174.3920  142.8750 C   0  0  0  0  0  1  0  0  0  0  0  0
  190.6230  176.5140  147.5730 C   0  0  0  0  0  2  0  0  0  0  0  0
  193.1060  176.8190  147.3160 C   0  0  0  0  0  3  0  0  0  0  0  0
  193.6100  176.1680  142.1950 S   0  0  0  0  0  0  0  0  0  0  0  0
  191.8990  176.3100  146.8070 C   0  0  0  0  0  0  0  0  0  0  0  0
  191.3150  175.1650  143.3060 N   0  0  1  0  0  0  0  0  0  0  0  0
  195.4430  176.4220  144.3290 C   0  0  0  0  0  2  0  0  0  0  0  0
  188.9990  176.3180  146.0870 N   0  0  0  0  0  0  0  0  0  0  0  0
  196.2930  176.5860  142.0180 C   0  0  0  0  0  1  0  0  0  0  0  0
  189.6150  175.6560  147.1090 O   0  0  0  0  0  0  0  0  0  0  0  0
  189.8370  174.0910  141.5650 C   0  0  0  0  0  2  0  0  0  0  0  0
  189.0990  172.7970  141.2260 C   0  0  2  0  0  3  0  0  0  0  0  0
  191.3090  171.7670  140.3270 C   0  0  2  0  0  3  0  0  0  0  0  0
  190.0090  171.5680  141.1280 C   0  0  0  0  0  2  0  0  0  0  0  0
  192.2720  172.7530  140.8690 N   0  0  0  0  0  0  0  0  0  0  0  0
  192.2270  173.9140  140.1640 O   0  0  0  0  0  1  0  0  0  0  0  0
  192.1070  173.0340  142.3060 C   0  0  0  0  0  2  0  0  0  0  0  0
  191.0460  171.9830  138.9700 O   0  0  0  0  0  1  0  0  0  0  0  0
  190.8850  173.9060  142.6800 C   0  0  1  0  0  3  0  0  0  0  0  0
  188.4830  174.2940  139.4050 N   0  0  0  0  0  1  0  0  0  0  0  0
  188.2860  172.9640  139.9540 C   0  0  0  0  0  2  0  0  0  0  0  0
  186.5680  176.4250  145.7030 C   0  0  0  0  0  3  0  0  0  0  0  0
  187.7180  176.9330  146.3260 C   0  0  0  0  0  0  0  0  0  0  0  0
  187.5960  178.0530  147.1660 C   0  0  0  0  0  3  0  0  0  0  0  0
  186.2460  179.7240  148.1960 F   0  0  0  0  0  0  0  0  0  0  0  0
  185.2120  178.1290  146.7590 C   0  0  0  0  0  3  0  0  0  0  0  0
  186.3500  178.6470  147.3830 C   0  0  0  0  0  0  0  0  0  0  0  0
  185.3200  177.0180  145.9190 C   0  0  0  0  0  3  0  0  0  0  0  0
  1 16  1  0  0  0  0
  2 14  1  0  0  0  0
  4  8  2  0  0  0  0
  5  7  1  0  0  0  0
  5  2  1  1  0  0  0
  6  4  1  0  0  0  0
  6  2  2  0  0  0  0
  7  3  1  1  0  0  0
  7 17  1  0  0  0  0
  8 12  1  0  0  0  0
  9 13  1  6  0  0  0
  9  6  1  0  0  0  0
 10  1  1  0  0  0  0
 13  1  1  0  0  0  0
 14 12  2  0  0  0  0
 14 11  1  0  0  0  0
 15 28  1  1  0  0  0
 15  9  1  0  0  0  0
 15  5  1  0  0  0  0
 16  4  1  0  0  0  0
 17 32  1  0  0  0  0
 17 19  1  0  0  0  0
 18  1  1  0  0  0  0
 19 11  1  0  0  0  0
 21 30  1  6  0  0  0
 21 20  1  0  0  0  0
 22 27  1  6  0  0  0
 22 24  1  0  0  0  0
 22 23  1  0  0  0  0
 23 21  1  0  0  0  0
 24 26  1  0  0  0  0
 25 24  1  0  0  0  0
 26 28  1  0  0  0  0
 28 20  1  6  0  0  0
 29 30  1  0  0  0  0
 31 37  2  0  0  0  0
 31 32  1  0  0  0  0
 32 33  2  0  0  0  0
 33 36  1  0  0  0  0
 35 36  2  0  0  0  0
 36 34  1  0  0  0  0
 37 35  1  0  0  0  0
M  END
>  <MODEL>
2

>  <REMARK>
 VINA RESULT:      -9.3      1.720      2.166
  Name = 
  3 active torsions:
  status: ('A' for Active; 'I' for Inactive)
    1  A    between atoms: C_4  and  C_37
    2  A    between atoms: N_21  and  C_27
    3  A    between atoms: N_23  and  C_30
                            x       y       z     vdW  Elec       q    Type
                         _______ _______ _______ _____ _____    ______ ____

>  <TORSDO>
F 3

$$$$
=
 OpenBabel11112417123D

 37 42  0  0  1  0  0  0  0  0999 V2000
  194.9980  175.7150  143.3970 C   0  0  0  0  0  0  0  0  0  0  0  0
  191.1640  175.7140  145.2840 C   0  0  0  0  0  0  0  0  0  0  0  0
  189.6340  177.8610  143.8210 C   0  0  0  0  0  1  0  0  0  0  0  0
  193.5450  176.0010  145.5180 C   0  0  0  0  0  0  0  0  0  0  0  0
  190.1860  175.4170  144.2030 C   0  0  1  0  0  3  0  0  0  0  0  0
  192.4240  175.6060  144.7870 C   0  0  0  0  0  0  0  0  0  0  0  0
  189.0690  176.4720  144.1050 C   0  0  1  0  0  3  0  0  0  0  0  0
  193.3460  176.4450  146.8360 C   0  0  0  0  0  3  0  0  0  0  0  0
  192.3840  175.1800  143.3820 C   0  0  2  0  0  3  0  0  0  0  0  0
  195.2180  174.2150  143.3030 C   0  0  0  0  0  1  0  0  0  0  0  0
  189.5470  176.4220  147.1130 C   0  0  0  0  0  2  0  0  0  0  0  0
  192.0460  176.5180  147.3740 C   0  0  0  0  0  3  0  0  0  0  0  0
  193.5230  176.2130  142.4120 S   0  0  0  0  0  0  0  0  0  0  0  0
  190.9320  176.1610  146.5950 C   0  0  0  0  0  0  0  0  0  0  0  0
  190.9830  175.3420  142.9570 N   0  0  1  0  0  0  0  0  0  0  0  0
  194.9010  176.1370  144.8770 C   0  0  0  0  0  2  0  0  0  0  0  0
  188.2460  176.4880  145.3270 N   0  0  0  0  0  0  0  0  0  0  0  0
  196.2100  176.3980  142.8000 C   0  0  0  0  0  1  0  0  0  0  0  0
  188.5920  175.6970  146.3840 O   0  0  0  0  0  0  0  0  0  0  0  0
  191.7880  173.4580  141.4830 C   0  0  0  0  0  2  0  0  0  0  0  0
  191.3630  172.5460  140.3340 C   0  0  2  0  0  3  0  0  0  0  0  0
  190.1050  171.0110  142.0120 C   0  0  2  0  0  3  0  0  0  0  0  0
  190.1200  171.7020  140.6360 C   0  0  0  0  0  2  0  0  0  0  0  0
  190.0990  171.9020  143.1950 N   0  0  0  0  0  0  0  0  0  0  0  0
  191.3300  171.9520  143.7700 O   0  0  0  0  0  1  0  0  0  0  0  0
  189.6180  173.2680  142.9240 C   0  0  0  0  0  2  0  0  0  0  0  0
  191.0940  170.0270  142.1010 O   0  0  0  0  0  1  0  0  0  0  0  0
  190.5970  174.1790  142.1460 C   0  0  1  0  0  3  0  0  0  0  0  0
  193.6630  171.8710  140.7680 N   0  0  0  0  0  1  0  0  0  0  0  0
  192.5180  171.6610  139.8990 C   0  0  0  0  0  2  0  0  0  0  0  0
  185.9690  176.7650  146.2260 C   0  0  0  0  0  3  0  0  0  0  0  0
  186.9920  177.1970  145.3680 C   0  0  0  0  0  0  0  0  0  0  0  0
  186.7620  178.3130  144.5470 C   0  0  0  0  0  3  0  0  0  0  0  0
  185.3310  180.0630  143.7940 F   0  0  0  0  0  0  0  0  0  0  0  0
  184.5300  178.5490  145.4500 C   0  0  0  0  0  3  0  0  0  0  0  0
  185.5390  178.9870  144.5890 C   0  0  0  0  0  0  0  0  0  0  0  0
  184.7440  177.4380  146.2690 C   0  0  0  0  0  3  0  0  0  0  0  0
  1 16  1  0  0  0  0
  2 14  1  0  0  0  0
  4  8  2  0  0  0  0
  5  2  1  1  0  0  0
  6  2  2  0  0  0  0
  6  4  1  0  0  0  0
  7  3  1  1  0  0  0
  7  5  1  0  0  0  0
  7 17  1  0  0  0  0
  8 12  1  0  0  0  0
  9 13  1  6  0  0  0
  9  6  1  0  0  0  0
 10  1  1  0  0  0  0
 13  1  1  0  0  0  0
 14 11  1  0  0  0  0
 14 12  2  0  0  0  0
 15 28  1  6  0  0  0
 15  9  1  0  0  0  0
 15  5  1  0  0  0  0
 16  4  1  0  0  0  0
 17 32  1  0  0  0  0
 17 19  1  0  0  0  0
 18  1  1  0  0  0  0
 19 11  1  0  0  0  0
 21 30  1  1  0  0  0
 21 23  1  0  0  0  0
 21 20  1  0  0  0  0
 22 27  1  1  0  0  0
 22 24  1  0  0  0  0
 23 22  1  0  0  0  0
 24 25  1  0  0  0  0
 26 24  1  0  0  0  0
 28 20  1  1  0  0  0
 28 26  1  0  0  0  0
 30 29  1  0  0  0  0
 31 37  1  0  0  0  0
 32 31  2  0  0  0  0
 33 36  2  0  0  0  0
 33 32  1  0  0  0  0
 34 36  1  0  0  0  0
 35 37  2  0  0  0  0
 36 35  1  0  0  0  0
M  END
>  <MODEL>
3

>  <REMARK>
 VINA RESULT:      -9.2      1.706      2.144
  Name = 
  3 active torsions:
  status: ('A' for Active; 'I' for Inactive)
    1  A    between atoms: C_4  and  C_37
    2  A    between atoms: N_21  and  C_27
    3  A    between atoms: N_23  and  C_30
                            x       y       z     vdW  Elec       q    Type
                         _______ _______ _______ _____ _____    ______ ____

>  <TORSDO>
F 3

$$$$
=
 OpenBabel11112417123D

 37 42  0  0  1  0  0  0  0  0999 V2000
  193.3540  175.6560  145.6130 C   0  0  0  0  0  0  0  0  0  0  0  0
  189.1480  175.9710  144.9280 C   0  0  0  0  0  0  0  0  0  0  0  0
  188.9430  177.6370  142.4230 C   0  0  0  0  0  1  0  0  0  0  0  0
  191.0050  176.3950  146.4030 C   0  0  0  0  0  0  0  0  0  0  0  0
  188.9170  175.3820  143.5800 C   0  0  1  0  0  3  0  0  0  0  0  0
  190.4490  175.7910  145.2740 C   0  0  0  0  0  0  0  0  0  0  0  0
  188.1690  176.3380  142.6340 C   0  0  1  0  0  3  0  0  0  0  0  0
  190.1530  177.1390  147.2360 C   0  0  0  0  0  3  0  0  0  0  0  0
  191.1570  175.0350  144.2330 C   0  0  2  0  0  3  0  0  0  0  0  0
  193.4250  174.1870  145.9960 C   0  0  0  0  0  1  0  0  0  0  0  0
  186.8730  177.0410  145.2990 C   0  0  0  0  0  2  0  0  0  0  0  0
  188.7910  177.2920  146.9060 C   0  0  0  0  0  3  0  0  0  0  0  0
  192.7480  175.8430  143.8840 S   0  0  0  0  0  0  0  0  0  0  0  0
  188.2730  176.7150  145.7350 C   0  0  0  0  0  0  0  0  0  0  0  0
  190.2610  175.0360  143.0640 N   0  0  1  0  0  0  0  0  0  0  0  0
  192.4930  176.4220  146.6360 C   0  0  0  0  0  2  0  0  0  0  0  0
  186.8110  176.6210  143.1300 N   0  0  0  0  0  0  0  0  0  0  0  0
  194.7590  176.2170  145.6780 C   0  0  0  0  0  1  0  0  0  0  0  0
  186.4170  176.1250  144.3390 O   0  0  0  0  0  0  0  0  0  0  0  0
  190.0190  173.6970  140.9370 C   0  0  0  0  0  2  0  0  0  0  0  0
  189.6130  172.3240  140.4040 C   0  0  2  0  0  3  0  0  0  0  0  0
  191.9640  171.3930  141.0020 C   0  0  2  0  0  3  0  0  0  0  0  0
  190.4410  171.1670  140.9710 C   0  0  0  0  0  2  0  0  0  0  0  0
  192.4470  172.4960  141.8640 N   0  0  0  0  0  0  0  0  0  0  0  0
  192.7860  173.5800  141.1190 O   0  0  0  0  0  1  0  0  0  0  0  0
  191.5070  172.8920  142.9270 C   0  0  0  0  0  2  0  0  0  0  0  0
  192.4980  171.4640  139.7110 O   0  0  0  0  0  1  0  0  0  0  0  0
  190.2710  173.6960  142.4590 C   0  0  1  0  0  3  0  0  0  0  0  0
  190.0970  173.5970  138.3830 N   0  0  0  0  0  1  0  0  0  0  0  0
  189.6430  172.3120  138.8850 C   0  0  0  0  0  2  0  0  0  0  0  0
  186.1330  177.5410  140.9480 C   0  0  0  0  0  3  0  0  0  0  0  0
  185.8340  177.2710  142.2920 C   0  0  0  0  0  0  0  0  0  0  0  0
  184.5850  177.6600  142.8020 C   0  0  0  0  0  3  0  0  0  0  0  0
  182.4480  178.6660  142.4860 F   0  0  0  0  0  0  0  0  0  0  0  0
  183.9570  178.5580  140.6450 C   0  0  0  0  0  3  0  0  0  0  0  0
  183.6500  178.2980  141.9830 C   0  0  0  0  0  0  0  0  0  0  0  0
  185.1990  178.1800  140.1270 C   0  0  0  0  0  3  0  0  0  0  0  0
  1 18  1  0  0  0  0
  1 10  1  0  0  0  0
  1 16  1  0  0  0  0
  2  6  2  0  0  0  0
  2 14  1  0  0  0  0
  4 16  1  0  0  0  0
  4  8  2  0  0  0  0
  5  2  1  1  0  0  0
  6  4  1  0  0  0  0
  7  3  1  1  0  0  0
  7 17  1  0  0  0  0
  7  5  1  0  0  0  0
  9 13  1  6  0  0  0
  9  6  1  0  0  0  0
 11 14  1  0  0  0  0
 12  8  1  0  0  0  0
 13  1  1  0  0  0  0
 14 12  2  0  0  0  0
 15 28  1  1  0  0  0
 15  5  1  0  0  0  0
 15  9  1  0  0  0  0
 17 19  1  0  0  0  0
 19 11  1  0  0  0  0
 21 30  1  6  0  0  0
 21 20  1  0  0  0  0
 21 23  1  0  0  0  0
 22 27  1  6  0  0  0
 22 24  1  0  0  0  0
 23 22  1  0  0  0  0
 24 26  1  0  0  0  0
 25 24  1  0  0  0  0
 28 20  1  6  0  0  0
 28 26  1  0  0  0  0
 29 30  1  0  0  0  0
 31 32  1  0  0  0  0
 32 33  2  0  0  0  0
 32 17  1  0  0  0  0
 35 36  2  0  0  0  0
 36 34  1  0  0  0  0
 36 33  1  0  0  0  0
 37 35  1  0  0  0  0
 37 31  2  0  0  0  0
M  END
>  <MODEL>
4

>  <REMARK>
 VINA RESULT:      -8.6      1.374      1.956
  Name = 
  3 active torsions:
  status: ('A' for Active; 'I' for Inactive)
    1  A    between atoms: C_4  and  C_37
    2  A    between atoms: N_21  and  C_27
    3  A    between atoms: N_23  and  C_30
                            x       y       z     vdW  Elec       q    Type
                         _______ _______ _______ _____ _____    ______ ____

>  <TORSDO>
F 3

$$$$
=
 OpenBabel11112417123D

 37 42  0  0  1  0  0  0  0  0999 V2000
  190.9370  175.7150  146.5140 C   0  0  0  0  0  0  0  0  0  0  0  0
  191.2960  174.5760  142.4120 C   0  0  0  0  0  0  0  0  0  0  0  0
  190.1180  171.8020  142.3230 C   0  0  0  0  0  1  0  0  0  0  0  0
  192.4090  175.2530  144.4390 C   0  0  0  0  0  0  0  0  0  0  0  0
  189.9080  174.3000  141.9500 C   0  0  1  0  0  3  0  0  0  0  0  0
  191.2540  175.0700  143.6770 C   0  0  0  0  0  0  0  0  0  0  0  0
  189.7550  172.9010  141.3270 C   0  0  1  0  0  3  0  0  0  0  0  0
  193.6460  174.9880  143.8280 C   0  0  0  0  0  3  0  0  0  0  0  0
  189.8630  175.2130  144.1250 C   0  0  2  0  0  3  0  0  0  0  0  0
  190.4760  177.1500  146.3240 C   0  0  0  0  0  1  0  0  0  0  0  0
  192.5790  173.6190  140.4370 C   0  0  0  0  0  2  0  0  0  0  0  0
  193.7000  174.5180  142.5010 C   0  0  0  0  0  3  0  0  0  0  0  0
  189.7050  174.5430  145.8080 S   0  0  0  0  0  0  0  0  0  0  0  0
  192.5160  174.2950  141.7770 C   0  0  0  0  0  0  0  0  0  0  0  0
  189.0520  174.4660  143.1470 N   0  0  1  0  0  0  0  0  0  0  0  0
  192.3470  175.5360  145.9160 C   0  0  0  0  0  2  0  0  0  0  0  0
  190.5630  172.7750  140.1010 N   0  0  0  0  0  0  0  0  0  0  0  0
  191.0300  175.4540  148.0030 C   0  0  0  0  0  1  0  0  0  0  0  0
  191.3830  173.8000  139.7250 O   0  0  0  0  0  0  0  0  0  0  0  0
  187.3910  176.1730  143.9830 C   0  0  0  0  0  2  0  0  0  0  0  0
  185.9450  176.6410  143.8270 C   0  0  2  0  0  3  0  0  0  0  0  0
  186.6050  177.9770  141.6980 C   0  0  2  0  0  3  0  0  0  0  0  0
  185.5800  177.0690  142.4020 C   0  0  0  0  0  2  0  0  0  0  0  0
  187.9430  177.3930  141.4520 N   0  0  0  0  0  0  0  0  0  0  0  0
  188.8520  177.8690  142.3420 O   0  0  0  0  0  1  0  0  0  0  0  0
  187.9700  175.9190  141.4490 C   0  0  0  0  0  2  0  0  0  0  0  0
  186.6860  179.2310  142.3140 O   0  0  0  0  0  1  0  0  0  0  0  0
  187.8460  175.2470  142.8370 C   0  0  1  0  0  3  0  0  0  0  0  0
  186.8110  178.0550  145.6130 N   0  0  0  0  0  1  0  0  0  0  0  0
  185.6350  177.7520  144.8150 C   0  0  0  0  0  2  0  0  0  0  0  0
  190.7590  170.3700  139.6050 C   0  0  0  0  0  3  0  0  0  0  0  0
  190.3830  171.6610  139.2040 C   0  0  0  0  0  0  0  0  0  0  0  0
  189.8500  171.8450  137.9180 C   0  0  0  0  0  3  0  0  0  0  0  0
  189.1710  170.9490  135.8170 F   0  0  0  0  0  0  0  0  0  0  0  0
  190.0630  169.4770  137.4650 C   0  0  0  0  0  3  0  0  0  0  0  0
  189.6880  170.7590  137.0530 C   0  0  0  0  0  0  0  0  0  0  0  0
  190.5980  169.2820  138.7410 C   0  0  0  0  0  3  0  0  0  0  0  0
  1 18  1  0  0  0  0
  2  6  1  0  0  0  0
  4 16  1  0  0  0  0
  5  2  1  1  0  0  0
  5 15  1  0  0  0  0
  6  4  2  0  0  0  0
  7  5  1  0  0  0  0
  7  3  1  1  0  0  0
  8  4  1  0  0  0  0
  9  6  1  6  0  0  0
  9 13  1  0  0  0  0
 10  1  1  0  0  0  0
 11 14  1  0  0  0  0
 12  8  2  0  0  0  0
 13  1  1  0  0  0  0
 14  2  2  0  0  0  0
 14 12  1  0  0  0  0
 15 28  1  6  0  0  0
 15  9  1  0  0  0  0
 16  1  1  0  0  0  0
 17  7  1  0  0  0  0
 19 17  1  0  0  0  0
 19 11  1  0  0  0  0
 21 20  1  0  0  0  0
 21 30  1  1  0  0  0
 22 27  1  1  0  0  0
 22 23  1  0  0  0  0
 23 21  1  0  0  0  0
 24 22  1  0  0  0  0
 24 25  1  0  0  0  0
 26 24  1  0  0  0  0
 28 26  1  6  0  0  0
 28 20  1  0  0  0  0
 30 29  1  0  0  0  0
 32 31  1  0  0  0  0
 32 17  1  0  0  0  0
 33 32  2  0  0  0  0
 34 36  1  0  0  0  0
 35 37  1  0  0  0  0
 36 35  2  0  0  0  0
 36 33  1  0  0  0  0
 37 31  2  0  0  0  0
M  END
>  <MODEL>
5

>  <REMARK>
 VINA RESULT:      -8.2      2.809      6.935
  Name = 
  3 active torsions:
  status: ('A' for Active; 'I' for Inactive)
    1  A    between atoms: C_4  and  C_37
    2  A    between atoms: N_21  and  C_27
    3  A    between atoms: N_23  and  C_30
                            x       y       z     vdW  Elec       q    Type
                         _______ _______ _______ _____ _____    ______ ____

>  <TORSDO>
F 3

$$$$
=
 OpenBabel11112417123D

 37 42  0  0  1  0  0  0  0  0999 V2000
  192.6470  169.8180  141.1120 C   0  0  0  0  0  0  0  0  0  0  0  0
  190.7150  173.5640  141.8150 C   0  0  0  0  0  0  0  0  0  0  0  0
  189.3230  173.1780  144.4610 C   0  0  0  0  0  1  0  0  0  0  0  0
  190.9580  171.6370  140.3880 C   0  0  0  0  0  0  0  0  0  0  0  0
  191.2690  174.0650  143.1020 C   0  0  1  0  0  3  0  0  0  0  0  0
  191.3760  172.4330  141.4560 C   0  0  0  0  0  0  0  0  0  0  0  0
  190.1750  174.4010  144.1310 C   0  0  1  0  0  3  0  0  0  0  0  0
  189.8650  172.0840  139.6260 C   0  0  0  0  0  3  0  0  0  0  0  0
  192.4380  172.1310  142.4250 C   0  0  2  0  0  3  0  0  0  0  0  0
  193.9810  170.3300  140.5950 C   0  0  0  0  0  1  0  0  0  0  0  0
  188.7880  175.1980  141.5380 C   0  0  0  0  0  2  0  0  0  0  0  0
  189.2020  173.2810  139.9650 C   0  0  0  0  0  3  0  0  0  0  0  0
  192.3760  170.3640  142.8490 S   0  0  0  0  0  0  0  0  0  0  0  0
  189.6160  174.0330  141.0780 C   0  0  0  0  0  0  0  0  0  0  0  0
  192.1720  172.9960  143.5870 N   0  0  1  0  0  0  0  0  0  0  0  0
  191.5160  170.2570  140.1610 C   0  0  0  0  0  2  0  0  0  0  0  0
  189.3260  175.5090  143.6590 N   0  0  0  0  0  0  0  0  0  0  0  0
  192.6990  168.3050  141.1010 C   0  0  0  0  0  1  0  0  0  0  0  0
  189.5180  176.0220  142.4090 O   0  0  0  0  0  0  0  0  0  0  0  0
  193.9030  174.8110  143.3050 C   0  0  0  0  0  2  0  0  0  0  0  0
  195.3850  175.1210  143.5080 C   0  0  2  0  0  3  0  0  0  0  0  0
  194.9420  175.6060  146.0230 C   0  0  2  0  0  3  0  0  0  0  0  0
  195.8580  174.9740  144.9580 C   0  0  0  0  0  2  0  0  0  0  0  0
  193.5810  175.0350  146.1420 N   0  0  0  0  0  0  0  0  0  0  0  0
  192.6610  175.8480  145.5600 O   0  0  0  0  0  1  0  0  0  0  0  0
  193.4480  173.6670  145.6090 C   0  0  0  0  0  2  0  0  0  0  0  0
  194.9180  177.0010  145.9150 O   0  0  0  0  0  1  0  0  0  0  0  0
  193.4470  173.5500  144.0660 C   0  0  1  0  0  3  0  0  0  0  0  0
  197.1140  176.8150  143.2340 N   0  0  0  0  0  1  0  0  0  0  0  0
  195.7200  176.5020  142.9730 C   0  0  0  0  0  2  0  0  0  0  0  0
  188.8140  176.5090  145.8520 C   0  0  0  0  0  3  0  0  0  0  0  0
  188.4090  176.1730  144.5510 C   0  0  0  0  0  0  0  0  0  0  0  0
  187.0980  176.4780  144.1490 C   0  0  0  0  0  3  0  0  0  0  0  0
  184.9550  177.4040  144.6240 F   0  0  0  0  0  0  0  0  0  0  0  0
  186.6320  177.4460  146.3170 C   0  0  0  0  0  3  0  0  0  0  0  0
  186.2150  177.1130  145.0260 C   0  0  0  0  0  0  0  0  0  0  0  0
  187.9310  177.1430  146.7310 C   0  0  0  0  0  3  0  0  0  0  0  0
  1 13  1  0  0  0  0
  4  6  2  0  0  0  0
  5  2  1  6  0  0  0
  5 15  1  0  0  0  0
  5  7  1  0  0  0  0
  6  2  1  0  0  0  0
  7  3  1  6  0  0  0
  8 12  2  0  0  0  0
  8  4  1  0  0  0  0
  9  6  1  6  0  0  0
  9 13  1  0  0  0  0
  9 15  1  0  0  0  0
 10  1  1  0  0  0  0
 11 19  1  0  0  0  0
 12 14  1  0  0  0  0
 14 11  1  0  0  0  0
 14  2  2  0  0  0  0
 15 28  1  6  0  0  0
 16  4  1  0  0  0  0
 16  1  1  0  0  0  0
 17  7  1  0  0  0  0
 17 32  1  0  0  0  0
 18  1  1  0  0  0  0
 19 17  1  0  0  0  0
 20 21  1  0  0  0  0
 21 30  1  1  0  0  0
 21 23  1  0  0  0  0
 22 27  1  6  0  0  0
 22 24  1  0  0  0  0
 23 22  1  0  0  0  0
 25 24  1  0  0  0  0
 26 24  1  0  0  0  0
 28 20  1  6  0  0  0
 28 26  1  0  0  0  0
 30 29  1  0  0  0  0
 31 37  1  0  0  0  0
 32 31  2  0  0  0  0
 33 32  1  0  0  0  0
 33 36  2  0  0  0  0
 34 36  1  0  0  0  0
 35 37  2  0  0  0  0
 36 35  1  0  0  0  0
M  END
>  <MODEL>
6

>  <REMARK>
 VINA RESULT:      -7.8      2.664      5.895
  Name = 
  3 active torsions:
  status: ('A' for Active; 'I' for Inactive)
    1  A    between atoms: C_4  and  C_37
    2  A    between atoms: N_21  and  C_27
    3  A    between atoms: N_23  and  C_30
                            x       y       z     vdW  Elec       q    Type
                         _______ _______ _______ _____ _____    ______ ____

>  <TORSDO>
F 3

$$$$
=
 OpenBabel11112417123D

 37 42  0  0  1  0  0  0  0  0999 V2000
  192.5680  170.7290  142.5070 C   0  0  0  0  0  0  0  0  0  0  0  0
  190.1610  174.2210  143.0320 C   0  0  0  0  0  0  0  0  0  0  0  0
  189.3070  174.0860  145.9210 C   0  0  0  0  0  1  0  0  0  0  0  0
  190.4960  172.1380  141.8680 C   0  0  0  0  0  0  0  0  0  0  0  0
  190.8240  175.0050  144.1110 C   0  0  1  0  0  3  0  0  0  0  0  0
  190.9400  173.1530  142.7170 C   0  0  0  0  0  0  0  0  0  0  0  0
  189.8700  175.3460  145.2690 C   0  0  1  0  0  3  0  0  0  0  0  0
  189.2340  172.2890  141.2690 C   0  0  0  0  0  3  0  0  0  0  0  0
  192.1810  173.1740  143.5020 C   0  0  2  0  0  3  0  0  0  0  0  0
  193.6920  171.3350  141.6840 C   0  0  0  0  0  1  0  0  0  0  0  0
  187.9630  175.4900  142.8980 C   0  0  0  0  0  2  0  0  0  0  0  0
  188.4390  173.4170  141.5570 C   0  0  0  0  0  3  0  0  0  0  0  0
  192.4930  171.5140  144.1720 S   0  0  0  0  0  0  0  0  0  0  0  0
  188.8930  174.3960  142.4570 C   0  0  0  0  0  0  0  0  0  0  0  0
  191.9630  174.1740  144.5610 N   0  0  1  0  0  0  0  0  0  0  0  0
  191.2390  170.8350  141.7340 C   0  0  0  0  0  2  0  0  0  0  0  0
  188.7780  176.2260  144.8160 N   0  0  0  0  0  0  0  0  0  0  0  0
  192.8770  169.2590  142.6980 C   0  0  0  0  0  1  0  0  0  0  0  0
  188.6730  176.5440  143.4930 O   0  0  0  0  0  0  0  0  0  0  0  0
  194.4650  174.1400  144.8970 C   0  0  0  0  0  2  0  0  0  0  0  0
  195.6270  174.9520  145.4660 C   0  0  2  0  0  3  0  0  0  0  0  0
  195.7000  176.3750  143.2930 C   0  0  2  0  0  3  0  0  0  0  0  0
  195.7880  176.3370  144.8300 C   0  0  0  0  0  2  0  0  0  0  0  0
  194.4050  175.9740  142.6980 N   0  0  0  0  0  0  0  0  0  0  0  0
  194.4770  174.7190  142.1830 O   0  0  0  0  0  1  0  0  0  0  0  0
  193.2580  176.0720  143.6190 C   0  0  0  0  0  2  0  0  0  0  0  0
  196.7780  175.7090  142.7010 O   0  0  0  0  0  1  0  0  0  0  0  0
  193.1840  174.9790  144.7110 C   0  0  1  0  0  3  0  0  0  0  0  0
  196.8160  172.9350  146.1380 N   0  0  0  0  0  1  0  0  0  0  0  0
  196.9230  174.1660  145.3740 C   0  0  0  0  0  2  0  0  0  0  0  0
  188.4750  177.6400  146.8110 C   0  0  0  0  0  3  0  0  0  0  0  0
  187.9180  176.8900  145.7640 C   0  0  0  0  0  0  0  0  0  0  0  0
  186.5200  176.7870  145.6700 C   0  0  0  0  0  3  0  0  0  0  0  0
  184.3510  177.3220  146.4970 F   0  0  0  0  0  0  0  0  0  0  0  0
  186.2630  178.1740  147.6360 C   0  0  0  0  0  3  0  0  0  0  0  0
  185.6970  177.4270  146.6000 C   0  0  0  0  0  0  0  0  0  0  0  0
  187.6520  178.2800  147.7430 C   0  0  0  0  0  3  0  0  0  0  0  0
  1 18  1  0  0  0  0
  1 13  1  0  0  0  0
  4  6  2  0  0  0  0
  5  2  1  6  0  0  0
  5 15  1  0  0  0  0
  5  7  1  0  0  0  0
  6  2  1  0  0  0  0
  7  3  1  6  0  0  0
  8 12  2  0  0  0  0
  8  4  1  0  0  0  0
  9  6  1  6  0  0  0
  9 13  1  0  0  0  0
  9 15  1  0  0  0  0
 10  1  1  0  0  0  0
 11 19  1  0  0  0  0
 12 14  1  0  0  0  0
 14 11  1  0  0  0  0
 14  2  2  0  0  0  0
 15 28  1  6  0  0  0
 16  4  1  0  0  0  0
 16  1  1  0  0  0  0
 17  7  1  0  0  0  0
 17 32  1  0  0  0  0
 19 17  1  0  0  0  0
 20 21  1  0  0  0  0
 21 30  1  6  0  0  0
 22 27  1  6  0  0  0
 22 23  1  0  0  0  0
 23 21  1  0  0  0  0
 24 22  1  0  0  0  0
 24 26  1  0  0  0  0
 25 24  1  0  0  0  0
 28 26  1  6  0  0  0
 28 20  1  0  0  0  0
 30 29  1  0  0  0  0
 31 37  1  0  0  0  0
 32 31  2  0  0  0  0
 33 32  1  0  0  0  0
 33 36  2  0  0  0  0
 34 36  1  0  0  0  0
 35 37  2  0  0  0  0
 36 35  1  0  0  0  0
M  END
>  <MODEL>
7

>  <REMARK>
 VINA RESULT:      -7.8      2.547      5.456
  Name = 
  3 active torsions:
  status: ('A' for Active; 'I' for Inactive)
    1  A    between atoms: C_4  and  C_37
    2  A    between atoms: N_21  and  C_27
    3  A    between atoms: N_23  and  C_30
                            x       y       z     vdW  Elec       q    Type
                         _______ _______ _______ _____ _____    ______ ____

>  <TORSDO>
F 3

$$$$
=
 OpenBabel11112417123D

 37 42  0  0  1  0  0  0  0  0999 V2000
  191.9950  170.8530  141.3200 C   0  0  0  0  0  0  0  0  0  0  0  0
  189.8560  174.5430  141.5820 C   0  0  0  0  0  0  0  0  0  0  0  0
  188.7720  174.5550  144.3960 C   0  0  0  0  0  1  0  0  0  0  0  0
  190.1040  172.4100  140.4890 C   0  0  0  0  0  0  0  0  0  0  0  0
  190.4960  175.2980  142.6940 C   0  0  1  0  0  3  0  0  0  0  0  0
  190.5640  173.4070  141.3510 C   0  0  0  0  0  0  0  0  0  0  0  0
  189.4870  175.7470  143.7660 C   0  0  1  0  0  3  0  0  0  0  0  0
  188.9090  172.6480  139.7900 C   0  0  0  0  0  3  0  0  0  0  0  0
  191.7380  173.3470  142.2310 C   0  0  2  0  0  3  0  0  0  0  0  0
  193.2260  171.3430  140.5760 C   0  0  0  0  0  1  0  0  0  0  0  0
  187.7890  175.9840  141.2480 C   0  0  0  0  0  2  0  0  0  0  0  0
  188.1920  173.8440  139.9910 C   0  0  0  0  0  3  0  0  0  0  0  0
  191.8570  171.6850  142.9570 S   0  0  0  0  0  0  0  0  0  0  0  0
  188.6550  174.8060  140.9040 C   0  0  0  0  0  0  0  0  0  0  0  0
  191.5230  174.3880  143.2500 N   0  0  1  0  0  0  0  0  0  0  0  0
  190.7430  171.0470  140.4410 C   0  0  0  0  0  2  0  0  0  0  0  0
  188.5120  176.7010  143.2100 N   0  0  0  0  0  0  0  0  0  0  0  0
  192.1630  169.3680  141.5630 C   0  0  0  0  0  1  0  0  0  0  0  0
  188.5360  176.9920  141.8770 O   0  0  0  0  0  0  0  0  0  0  0  0
  192.9350  175.6710  144.9030 C   0  0  0  0  0  2  0  0  0  0  0  0
  194.0250  176.7380  145.0030 C   0  0  2  0  0  3  0  0  0  0  0  0
  195.8330  174.9420  144.4930 C   0  0  2  0  0  3  0  0  0  0  0  0
  195.3180  176.3760  144.2660 C   0  0  0  0  0  2  0  0  0  0  0  0
  194.9570  173.8470  144.0180 N   0  0  0  0  0  0  0  0  0  0  0  0
  194.3050  173.2620  145.0570 O   0  0  0  0  0  1  0  0  0  0  0  0
  193.9880  174.2490  142.9830 C   0  0  0  0  0  2  0  0  0  0  0  0
  196.2450  174.7490  145.8160 O   0  0  0  0  0  1  0  0  0  0  0  0
  192.7920  175.0940  143.4810 C   0  0  1  0  0  3  0  0  0  0  0  0
  193.1450  176.7900  147.2750 N   0  0  0  0  0  1  0  0  0  0  0  0
  194.3120  177.0730  146.4570 C   0  0  0  0  0  2  0  0  0  0  0  0
  187.6160  177.1960  145.4510 C   0  0  0  0  0  3  0  0  0  0  0  0
  187.6390  177.4580  144.0730 C   0  0  0  0  0  0  0  0  0  0  0  0
  186.7910  178.4510  143.5560 C   0  0  0  0  0  3  0  0  0  0  0  0
  185.1300  180.1270  143.8900 F   0  0  0  0  0  0  0  0  0  0  0  0
  185.9310  178.9040  145.7720 C   0  0  0  0  0  3  0  0  0  0  0  0
  185.9420  179.1710  144.4010 C   0  0  0  0  0  0  0  0  0  0  0  0
  186.7670  177.9160  146.2980 C   0  0  0  0  0  3  0  0  0  0  0  0
  1 18  1  0  0  0  0
  1 13  1  0  0  0  0
  4  6  2  0  0  0  0
  5  2  1  6  0  0  0
  5 15  1  0  0  0  0
  5  7  1  0  0  0  0
  6  2  1  0  0  0  0
  7  3  1  6  0  0  0
  8 12  2  0  0  0  0
  8  4  1  0  0  0  0
  9  6  1  6  0  0  0
  9 13  1  0  0  0  0
  9 15  1  0  0  0  0
 10  1  1  0  0  0  0
 11 19  1  0  0  0  0
 12 14  1  0  0  0  0
 14 11  1  0  0  0  0
 14  2  2  0  0  0  0
 15 28  1  6  0  0  0
 16  4  1  0  0  0  0
 16  1  1  0  0  0  0
 17  7  1  0  0  0  0
 17 32  1  0  0  0  0
 19 17  1  0  0  0  0
 20 21  1  0  0  0  0
 21 30  1  1  0  0  0
 22 27  1  1  0  0  0
 23 22  1  0  0  0  0
 23 21  1  0  0  0  0
 24 22  1  0  0  0  0
 24 25  1  0  0  0  0
 26 24  1  0  0  0  0
 28 26  1  1  0  0  0
 28 20  1  0  0  0  0
 30 29  1  0  0  0  0
 31 37  1  0  0  0  0
 32 31  2  0  0  0  0
 33 32  1  0  0  0  0
 33 36  2  0  0  0  0
 34 36  1  0  0  0  0
 35 37  2  0  0  0  0
 36 35  1  0  0  0  0
M  END
>  <MODEL>
8

>  <REMARK>
 VINA RESULT:      -7.7      2.450      5.588
  Name = 
  3 active torsions:
  status: ('A' for Active; 'I' for Inactive)
    1  A    between atoms: C_4  and  C_37
    2  A    between atoms: N_21  and  C_27
    3  A    between atoms: N_23  and  C_30
                            x       y       z     vdW  Elec       q    Type
                         _______ _______ _______ _____ _____    ______ ____

>  <TORSDO>
F 3

$$$$
=
 OpenBabel11112417123D

 37 42  0  0  1  0  0  0  0  0999 V2000
  186.9940  176.9330  142.2620 C   0  0  0  0  0  0  0  0  0  0  0  0
  191.1050  175.8830  142.7690 C   0  0  0  0  0  0  0  0  0  0  0  0
  191.0210  173.4700  144.5750 C   0  0  0  0  0  1  0  0  0  0  0  0
  189.3820  177.5450  143.0440 C   0  0  0  0  0  0  0  0  0  0  0  0
  191.2270  174.4880  142.2640 C   0  0  1  0  0  3  0  0  0  0  0  0
  189.8490  176.3370  142.5240 C   0  0  0  0  0  0  0  0  0  0  0  0
  191.8520  173.5340  143.2960 C   0  0  1  0  0  3  0  0  0  0  0  0
  190.2850  178.3370  143.7740 C   0  0  0  0  0  3  0  0  0  0  0  0
  189.0710  175.3240  141.7980 C   0  0  2  0  0  3  0  0  0  0  0  0
  187.0070  177.2370  140.7730 C   0  0  0  0  0  1  0  0  0  0  0  0
  193.3700  176.1050  143.9030 C   0  0  0  0  0  2  0  0  0  0  0  0
  191.6040  177.8930  143.9950 C   0  0  0  0  0  3  0  0  0  0  0  0
  187.4290  175.1690  142.5640 S   0  0  0  0  0  0  0  0  0  0  0  0
  192.0280  176.6470  143.5010 C   0  0  0  0  0  0  0  0  0  0  0  0
  189.8530  174.0790  141.8960 N   0  0  1  0  0  0  0  0  0  0  0  0
  187.9230  177.9150  143.0030 C   0  0  0  0  0  2  0  0  0  0  0  0
  193.2420  173.9180  143.6020 N   0  0  0  0  0  0  0  0  0  0  0  0
  185.5850  177.1590  142.7660 C   0  0  0  0  0  1  0  0  0  0  0  0
  193.7620  175.0560  143.0570 O   0  0  0  0  0  0  0  0  0  0  0  0
  191.0120  173.7730  139.6750 C   0  0  0  0  0  2  0  0  0  0  0  0
  190.7620  173.4160  138.2110 C   0  0  2  0  0  3  0  0  0  0  0  0
  190.7580  170.8900  138.8240 C   0  0  2  0  0  3  0  0  0  0  0  0
  190.1310  172.0350  138.0060 C   0  0  0  0  0  2  0  0  0  0  0  0
  190.6530  171.0010  140.2970 N   0  0  0  0  0  0  0  0  0  0  0  0
  191.8360  171.3920  140.8390 O   0  0  0  0  0  1  0  0  0  0  0  0
  189.5720  171.8860  140.7640 C   0  0  0  0  0  2  0  0  0  0  0  0
  192.0670  170.6230  138.4100 O   0  0  0  0  0  1  0  0  0  0  0  0
  189.8290  173.4020  140.5910 C   0  0  1  0  0  3  0  0  0  0  0  0
  193.1380  173.9540  138.2650 N   0  0  0  0  0  1  0  0  0  0  0  0
  192.0430  173.5440  137.4040 C   0  0  0  0  0  2  0  0  0  0  0  0
  193.8580  171.6530  144.3490 C   0  0  0  0  0  3  0  0  0  0  0  0
  194.1130  173.0330  144.3330 C   0  0  0  0  0  0  0  0  0  0  0  0
  195.2150  173.5280  145.0500 C   0  0  0  0  0  3  0  0  0  0  0  0
  197.1070  173.1510  146.4490 F   0  0  0  0  0  0  0  0  0  0  0  0
  195.7850  171.2890  145.7680 C   0  0  0  0  0  3  0  0  0  0  0  0
  196.0470  172.6610  145.7630 C   0  0  0  0  0  0  0  0  0  0  0  0
  194.6900  170.7840  145.0610 C   0  0  0  0  0  3  0  0  0  0  0  0
  1 13  1  0  0  0  0
  1 18  1  0  0  0  0
  1 16  1  0  0  0  0
  2 14  1  0  0  0  0
  4  8  2  0  0  0  0
  5  2  1  1  0  0  0
  5  7  1  0  0  0  0
  6  2  2  0  0  0  0
  6  4  1  0  0  0  0
  7 17  1  0  0  0  0
  7  3  1  1  0  0  0
  8 12  1  0  0  0  0
  9 15  1  0  0  0  0
  9  6  1  1  0  0  0
  9 13  1  0  0  0  0
 10  1  1  0  0  0  0
 14 11  1  0  0  0  0
 14 12  2  0  0  0  0
 15 28  1  6  0  0  0
 15  5  1  0  0  0  0
 16  4  1  0  0  0  0
 17 32  1  0  0  0  0
 19 17  1  0  0  0  0
 19 11  1  0  0  0  0
 21 30  1  6  0  0  0
 21 20  1  0  0  0  0
 22 27  1  1  0  0  0
 22 24  1  0  0  0  0
 23 21  1  0  0  0  0
 23 22  1  0  0  0  0
 24 26  1  0  0  0  0
 24 25  1  0  0  0  0
 28 20  1  1  0  0  0
 28 26  1  0  0  0  0
 30 29  1  0  0  0  0
 31 37  1  0  0  0  0
 32 31  2  0  0  0  0
 32 33  1  0  0  0  0
 33 36  2  0  0  0  0
 36 35  1  0  0  0  0
 36 34  1  0  0  0  0
 37 35  2  0  0  0  0
M  END
>  <MODEL>
9

>  <REMARK>
 VINA RESULT:      -7.5      3.656      6.921
  Name = 
  3 active torsions:
  status: ('A' for Active; 'I' for Inactive)
    1  A    between atoms: C_4  and  C_37
    2  A    between atoms: N_21  and  C_27
    3  A    between atoms: N_23  and  C_30
                            x       y       z     vdW  Elec       q    Type
                         _______ _______ _______ _____ _____    ______ ____

>  <TORSDO>
F 3

$$$$
