=
 OpenBabel11112417523D

 34 41  0  0  1  0  0  0  0  0999 V2000
  189.5720  174.7080  143.3910 C   0  0  0  0  0  0  0  0  0  0  0  0
  191.9130  173.7390  143.6900 C   0  0  0  0  0  2  0  0  0  0  0  0
  184.6220  178.6850  144.7980 C   0  0  0  0  0  0  0  0  0  0  0  0
  187.5220  175.9680  143.1280 C   0  0  0  0  0  0  0  0  0  0  0  0
  186.6950  177.3510  145.1110 C   0  0  2  0  0  3  0  0  0  0  0  0
  185.2610  178.5680  146.7070 C   0  0  0  0  0  2  0  0  0  0  0  0
  183.9890  178.7160  146.0950 O   0  0  0  0  0  0  0  0  0  0  0  0
  185.1140  178.4960  142.4080 C   0  0  0  0  0  2  0  0  0  0  0  0
  190.7790  174.7330  145.5840 C   0  0  2  0  0  3  0  0  0  0  0  0
  192.7030  176.5230  147.4490 C   0  0  0  0  0  3  0  0  0  0  0  0
  188.1710  177.5440  145.4490 C   0  0  0  0  0  2  0  0  0  0  0  0
  186.5000  178.1580  142.7710 N   0  0  0  0  0  2  0  0  0  0  0  0
  190.2490  176.1620  145.7900 C   0  0  1  0  0  3  0  0  0  0  0  0
  192.8320  173.6240  144.8960 C   0  0  0  0  0  2  0  0  0  0  0  0
  186.5150  176.9670  143.6190 C   0  0  1  0  0  3  0  0  0  0  0  0
  184.2170  178.6320  143.5680 N   0  0  0  0  0  0  0  0  0  0  0  0
  193.0260  175.8150  146.1580 C   0  0  2  0  0  3  0  0  0  0  0  0
  188.6750  175.6700  143.8790 C   0  0  0  0  0  0  0  0  0  0  0  0
  185.9530  178.6480  145.4590 C   0  0  2  0  0  3  0  0  0  0  0  0
  188.9440  176.3430  145.1280 N   0  0  0  0  0  0  0  0  0  0  0  0
  188.1910  174.4340  141.4350 C   0  0  0  0  0  3  0  0  0  0  0  0
  191.4730  176.8130  147.9110 C   0  0  0  0  0  3  0  0  0  0  0  0
  187.3160  175.3490  141.9330 N   0  0  0  0  0  0  0  0  0  0  0  0
  190.1570  176.4230  147.2890 C   0  0  0  0  0  2  0  0  0  0  0  0
  192.2370  174.5010  146.0040 C   0  0  1  0  0  3  0  0  0  0  0  0
  189.3370  174.0950  142.1570 C   0  0  0  0  0  3  0  0  0  0  0  0
  190.7070  174.3650  144.1870 N   0  0  0  0  0  0  0  0  0  0  0  0
  194.4030  175.5780  146.1100 O   0  0  0  0  0  0  0  0  0  0  0  0
  194.9070  176.5640  145.2570 C   0  0  0  0  0  2  0  0  0  0  0  0
  197.6120  176.0280  142.9970 O   0  0  0  0  0  0  0  0  0  0  0  0
  196.2290  174.6690  144.3510 C   0  0  0  0  0  2  0  0  0  0  0  0
  195.4790  175.9220  144.0060 C   0  0  2  0  0  3  0  0  0  0  0  0
  197.6410  174.9520  143.8960 C   0  0  0  0  0  2  0  0  0  0  0  0
  196.5350  176.8240  143.4130 C   0  0  0  0  0  2  0  0  0  0  0  0
  1 18  1  0  0  0  0
  1 27  1  0  0  0  0
  2 27  1  0  0  0  0
  2 14  1  0  0  0  0
  3 19  1  0  0  0  0
  3  7  1  0  0  0  0
  4 15  1  0  0  0  0
  4 18  2  0  0  0  0
  5 11  1  6  0  0  0
  5 19  1  0  0  0  0
  7  6  1  0  0  0  0
  8 12  1  0  0  0  0
  8 16  1  0  0  0  0
  9 27  1  6  0  0  0
  9 13  1  0  0  0  0
  9 25  1  0  0  0  0
 10 22  2  0  0  0  0
 13 24  1  1  0  0  0
 15 12  1  6  0  0  0
 15  5  1  0  0  0  0
 16  3  2  0  0  0  0
 17 28  1  1  0  0  0
 17 10  1  0  0  0  0
 18 20  1  0  0  0  0
 19  6  1  1  0  0  0
 20 11  1  0  0  0  0
 20 13  1  0  0  0  0
 21 23  2  0  0  0  0
 21 26  1  0  0  0  0
 23  4  1  0  0  0  0
 24 22  1  0  0  0  0
 25 14  1  6  0  0  0
 25 17  1  0  0  0  0
 26  1  2  0  0  0  0
 29 28  1  0  0  0  0
 30 34  1  0  0  0  0
 30 33  1  0  0  0  0
 32 31  1  0  0  0  0
 32 29  1  1  0  0  0
 33 31  1  0  0  0  0
 34 32  1  0  0  0  0
M  END
>  <MODEL>
1

>  <REMARK>
 VINA RESULT:      -9.2      0.000      0.000
  Name = 
  3 active torsions:
  status: ('A' for Active; 'I' for Inactive)
    1  A    between atoms: C_17  and  O_28
    2  A    between atoms: O_28  and  C_29
    3  A    between atoms: C_29  and  C_32
                            x       y       z     vdW  Elec       q    Type
                         _______ _______ _______ _____ _____    ______ ____

>  <TORSDO>
F 3

$$$$
=
 OpenBabel11112417523D

 34 41  0  0  1  0  0  0  0  0999 V2000
  189.4360  175.3610  142.8750 C   0  0  0  0  0  0  0  0  0  0  0  0
  191.8060  174.4660  142.5780 C   0  0  0  0  0  2  0  0  0  0  0  0
  184.7180  178.6340  145.9270 C   0  0  0  0  0  0  0  0  0  0  0  0
  187.3550  176.5430  143.2340 C   0  0  0  0  0  0  0  0  0  0  0  0
  186.8300  177.3690  145.5950 C   0  0  2  0  0  3  0  0  0  0  0  0
  185.6480  178.0970  147.6340 C   0  0  0  0  0  2  0  0  0  0  0  0
  184.2940  178.3230  147.2720 O   0  0  0  0  0  0  0  0  0  0  0  0
  184.8330  179.0470  143.5180 C   0  0  0  0  0  2  0  0  0  0  0  0
  190.9690  174.9200  144.8040 C   0  0  2  0  0  3  0  0  0  0  0  0
  193.1380  176.3060  146.7420 C   0  0  0  0  0  3  0  0  0  0  0  0
  188.3390  177.5490  145.7470 C   0  0  0  0  0  2  0  0  0  0  0  0
  186.2630  178.7020  143.5770 N   0  0  0  0  0  2  0  0  0  0  0  0
  190.4600  176.2310  145.4290 C   0  0  1  0  0  3  0  0  0  0  0  0
  192.9040  174.1120  143.5690 C   0  0  0  0  0  2  0  0  0  0  0  0
  186.4240  177.3440  144.0980 C   0  0  1  0  0  3  0  0  0  0  0  0
  184.1260  178.8570  144.7950 N   0  0  0  0  0  0  0  0  0  0  0  0
  193.2650  175.9440  145.2840 C   0  0  2  0  0  3  0  0  0  0  0  0
  188.6140  176.1320  143.7100 C   0  0  0  0  0  0  0  0  0  0  0  0
  186.1360  178.5070  146.3550 C   0  0  2  0  0  3  0  0  0  0  0  0
  189.0670  176.5000  145.0320 N   0  0  0  0  0  0  0  0  0  0  0  0
  187.7700  175.4940  141.1390 C   0  0  0  0  0  3  0  0  0  0  0  0
  191.9930  176.4160  147.4380 C   0  0  0  0  0  3  0  0  0  0  0  0
  186.9720  176.2180  141.9680 N   0  0  0  0  0  0  0  0  0  0  0  0
  190.6000  176.1200  146.9420 C   0  0  0  0  0  2  0  0  0  0  0  0
  192.4780  174.6680  144.9340 C   0  0  1  0  0  3  0  0  0  0  0  0
  189.0180  175.0490  141.5780 C   0  0  0  0  0  3  0  0  0  0  0  0
  190.6850  174.8930  143.3860 N   0  0  0  0  0  0  0  0  0  0  0  0
  194.6210  175.7940  144.9770 O   0  0  0  0  0  0  0  0  0  0  0  0
  195.1780  175.1790  146.1010 C   0  0  0  0  0  2  0  0  0  0  0  0
  196.4330  172.2870  144.4360 O   0  0  0  0  0  0  0  0  0  0  0  0
  196.7800  174.6210  144.2890 C   0  0  0  0  0  2  0  0  0  0  0  0
  196.3350  174.2900  145.6840 C   0  0  2  0  0  3  0  0  0  0  0  0
  196.5510  173.3420  143.5200 C   0  0  0  0  0  2  0  0  0  0  0  0
  195.8630  172.8590  145.5820 C   0  0  0  0  0  2  0  0  0  0  0  0
  1 27  1  0  0  0  0
  1 18  1  0  0  0  0
  2 27  1  0  0  0  0
  2 14  1  0  0  0  0
  3 19  1  0  0  0  0
  3  7  1  0  0  0  0
  4 18  2  0  0  0  0
  5 11  1  6  0  0  0
  5 19  1  0  0  0  0
  7  6  1  0  0  0  0
  8 12  1  0  0  0  0
  8 16  1  0  0  0  0
  9 27  1  6  0  0  0
  9 25  1  0  0  0  0
  9 13  1  0  0  0  0
 10 22  2  0  0  0  0
 12 15  1  0  0  0  0
 13 24  1  1  0  0  0
 15  4  1  6  0  0  0
 15  5  1  0  0  0  0
 16  3  2  0  0  0  0
 17 28  1  1  0  0  0
 17 10  1  0  0  0  0
 18 20  1  0  0  0  0
 19  6  1  1  0  0  0
 20 13  1  0  0  0  0
 20 11  1  0  0  0  0
 21 26  1  0  0  0  0
 21 23  2  0  0  0  0
 23  4  1  0  0  0  0
 24 22  1  0  0  0  0
 25 14  1  6  0  0  0
 25 17  1  0  0  0  0
 26  1  2  0  0  0  0
 28 29  1  0  0  0  0
 30 34  1  0  0  0  0
 31 32  1  0  0  0  0
 32 29  1  6  0  0  0
 33 31  1  0  0  0  0
 33 30  1  0  0  0  0
 34 32  1  0  0  0  0
M  END
>  <MODEL>
2

>  <REMARK>
 VINA RESULT:      -9.1      1.258      1.507
  Name = 
  3 active torsions:
  status: ('A' for Active; 'I' for Inactive)
    1  A    between atoms: C_17  and  O_28
    2  A    between atoms: O_28  and  C_29
    3  A    between atoms: C_29  and  C_32
                            x       y       z     vdW  Elec       q    Type
                         _______ _______ _______ _____ _____    ______ ____

>  <TORSDO>
F 3

$$$$
=
 OpenBabel11112417523D

 34 41  0  0  1  0  0  0  0  0999 V2000
  192.2250  175.9770  145.6110 C   0  0  0  0  0  0  0  0  0  0  0  0
  190.0490  176.5100  146.8330 C   0  0  0  0  0  2  0  0  0  0  0  0
  195.8350  174.3750  140.4450 C   0  0  0  0  0  0  0  0  0  0  0  0
  194.1620  175.7140  144.1850 C   0  0  0  0  0  0  0  0  0  0  0  0
  193.8440  174.5780  141.9180 C   0  0  2  0  0  3  0  0  0  0  0  0
  194.2320  173.3160  139.8340 C   0  0  0  0  0  2  0  0  0  0  0  0
  195.6350  173.1540  139.6990 O   0  0  0  0  0  0  0  0  0  0  0  0
  196.7510  176.2070  141.7830 C   0  0  0  0  0  2  0  0  0  0  0  0
  190.0040  175.0850  144.8760 C   0  0  2  0  0  3  0  0  0  0  0  0
  187.5140  175.6630  142.9140 C   0  0  0  0  0  3  0  0  0  0  0  0
  192.4520  175.2050  141.9240 C   0  0  0  0  0  2  0  0  0  0  0  0
  195.3780  176.5080  142.2200 N   0  0  0  0  0  2  0  0  0  0  0  0
  190.4390  175.3680  143.4270 C   0  0  1  0  0  3  0  0  0  0  0  0
  188.6070  176.0890  146.5960 C   0  0  0  0  0  2  0  0  0  0  0  0
  194.7980  175.3380  142.8780 C   0  0  1  0  0  3  0  0  0  0  0  0
  196.8540  174.9970  140.9510 N   0  0  0  0  0  0  0  0  0  0  0  0
  187.9140  176.3850  144.1750 C   0  0  2  0  0  3  0  0  0  0  0  0
  192.7680  175.6430  144.3620 C   0  0  0  0  0  0  0  0  0  0  0  0
  194.3640  174.5870  140.4740 C   0  0  2  0  0  3  0  0  0  0  0  0
  191.9000  175.2410  143.2790 N   0  0  0  0  0  0  0  0  0  0  0  0
  194.4360  176.4910  146.4180 C   0  0  0  0  0  3  0  0  0  0  0  0
  188.2930  174.8440  142.1850 C   0  0  0  0  0  3  0  0  0  0  0  0
  194.9520  176.1370  145.2100 N   0  0  0  0  0  0  0  0  0  0  0  0
  189.6970  174.4010  142.5120 C   0  0  0  0  0  2  0  0  0  0  0  0
  188.5470  175.4360  145.2100 C   0  0  1  0  0  3  0  0  0  0  0  0
  193.0610  176.4150  146.6420 C   0  0  0  0  0  3  0  0  0  0  0  0
  190.8160  175.8430  145.8030 N   0  0  0  0  0  0  0  0  0  0  0  0
  186.7850  177.0180  144.7050 O   0  0  0  0  0  0  0  0  0  0  0  0
  186.7780  178.2870  144.1190 C   0  0  0  0  0  2  0  0  0  0  0  0
  183.5640  178.9590  145.5080 O   0  0  0  0  0  0  0  0  0  0  0  0
  185.7790  178.8290  146.3250 C   0  0  0  0  0  2  0  0  0  0  0  0
  185.8260  179.1980  144.8710 C   0  0  2  0  0  3  0  0  0  0  0  0
  184.3380  178.4420  146.5580 C   0  0  0  0  0  2  0  0  0  0  0  0
  184.4130  178.9600  144.3930 C   0  0  0  0  0  2  0  0  0  0  0  0
  1 27  1  0  0  0  0
  1 26  1  0  0  0  0
  3 19  1  0  0  0  0
  3 16  2  0  0  0  0
  4 18  1  0  0  0  0
  4 23  2  0  0  0  0
  5 11  1  6  0  0  0
  5 15  1  0  0  0  0
  7  6  1  0  0  0  0
  7  3  1  0  0  0  0
  8 12  1  0  0  0  0
  9 25  1  0  0  0  0
  9 27  1  1  0  0  0
 10 17  1  0  0  0  0
 11 20  1  0  0  0  0
 13 24  1  6  0  0  0
 13  9  1  0  0  0  0
 14  2  1  0  0  0  0
 15 12  1  6  0  0  0
 15  4  1  0  0  0  0
 16  8  1  0  0  0  0
 17 28  1  1  0  0  0
 17 25  1  0  0  0  0
 18  1  2  0  0  0  0
 19  6  1  6  0  0  0
 19  5  1  0  0  0  0
 20 13  1  0  0  0  0
 20 18  1  0  0  0  0
 21 26  2  0  0  0  0
 22 24  1  0  0  0  0
 22 10  2  0  0  0  0
 23 21  1  0  0  0  0
 25 14  1  1  0  0  0
 27  2  1  0  0  0  0
 29 28  1  0  0  0  0
 30 33  1  0  0  0  0
 31 33  1  0  0  0  0
 32 29  1  6  0  0  0
 32 31  1  0  0  0  0
 34 32  1  0  0  0  0
 34 30  1  0  0  0  0
M  END
>  <MODEL>
3

>  <REMARK>
 VINA RESULT:      -8.3      2.683      8.812
  Name = 
  3 active torsions:
  status: ('A' for Active; 'I' for Inactive)
    1  A    between atoms: C_17  and  O_28
    2  A    between atoms: O_28  and  C_29
    3  A    between atoms: C_29  and  C_32
                            x       y       z     vdW  Elec       q    Type
                         _______ _______ _______ _____ _____    ______ ____

>  <TORSDO>
F 3

$$$$
=
 OpenBabel11112417523D

 34 41  0  0  1  0  0  0  0  0999 V2000
  189.9880  174.5090  142.3600 C   0  0  0  0  0  0  0  0  0  0  0  0
  187.6680  175.5650  142.4530 C   0  0  0  0  0  2  0  0  0  0  0  0
  195.8320  172.9170  144.7260 C   0  0  0  0  0  0  0  0  0  0  0  0
  192.1020  173.3590  142.6110 C   0  0  0  0  0  0  0  0  0  0  0  0
  193.6940  174.1530  144.4460 C   0  0  2  0  0  3  0  0  0  0  0  0
  195.7210  174.6420  145.7650 C   0  0  0  0  0  2  0  0  0  0  0  0
  196.7840  173.9010  145.1860 O   0  0  0  0  0  0  0  0  0  0  0  0
  194.6880  171.0950  143.5610 C   0  0  0  0  0  2  0  0  0  0  0  0
  189.4460  176.4610  143.8300 C   0  0  2  0  0  3  0  0  0  0  0  0
  188.4990  177.2650  146.8040 C   0  0  0  0  0  3  0  0  0  0  0  0
  192.4340  174.5050  145.2320 C   0  0  0  0  0  2  0  0  0  0  0  0
  193.4120  171.7470  143.8980 N   0  0  0  0  0  2  0  0  0  0  0  0
  190.2900  175.7900  144.9280 C   0  0  1  0  0  3  0  0  0  0  0  0
  187.1030  176.7390  143.2380 C   0  0  0  0  0  2  0  0  0  0  0  0
  193.3850  173.1020  143.3470 C   0  0  1  0  0  3  0  0  0  0  0  0
  195.8720  171.8760  143.9550 N   0  0  0  0  0  0  0  0  0  0  0  0
  187.7040  176.6170  145.6980 C   0  0  2  0  0  3  0  0  0  0  0  0
  191.1580  174.2820  143.0980 C   0  0  0  0  0  0  0  0  0  0  0  0
  194.7500  173.6460  145.4380 C   0  0  2  0  0  3  0  0  0  0  0  0
  191.3770  174.9850  144.3420 N   0  0  0  0  0  0  0  0  0  0  0  0
  190.7060  172.8690  140.7470 C   0  0  0  0  0  3  0  0  0  0  0  0
  189.8390  177.3420  146.8790 C   0  0  0  0  0  3  0  0  0  0  0  0
  191.8500  172.6790  141.4590 N   0  0  0  0  0  0  0  0  0  0  0  0
  190.8320  176.8810  145.8430 C   0  0  0  0  0  2  0  0  0  0  0  0
  188.1390  177.1110  144.3060 C   0  0  1  0  0  3  0  0  0  0  0  0
  189.7530  173.7900  141.1840 C   0  0  0  0  0  3  0  0  0  0  0  0
  189.0630  175.4930  142.8260 N   0  0  0  0  0  0  0  0  0  0  0  0
  186.3460  176.8720  145.9160 O   0  0  0  0  0  0  0  0  0  0  0  0
  186.3210  177.9450  146.8100 C   0  0  0  0  0  2  0  0  0  0  0  0
  184.8070  179.8640  144.2150 O   0  0  0  0  0  0  0  0  0  0  0  0
  184.0660  178.3190  145.8440 C   0  0  0  0  0  2  0  0  0  0  0  0
  185.3150  178.9820  146.3460 C   0  0  2  0  0  3  0  0  0  0  0  0
  183.9840  178.7430  144.3970 C   0  0  0  0  0  2  0  0  0  0  0  0
  185.8540  179.7030  145.1330 C   0  0  0  0  0  2  0  0  0  0  0  0
  1 27  1  0  0  0  0
  1 18  1  0  0  0  0
  2 27  1  0  0  0  0
  2 14  1  0  0  0  0
  3  7  1  0  0  0  0
  3 19  1  0  0  0  0
  4 18  2  0  0  0  0
  5 11  1  1  0  0  0
  5 19  1  0  0  0  0
  7  6  1  0  0  0  0
  8 12  1  0  0  0  0
  8 16  1  0  0  0  0
  9 27  1  6  0  0  0
  9 25  1  0  0  0  0
  9 13  1  0  0  0  0
 10 22  2  0  0  0  0
 13 24  1  1  0  0  0
 15  4  1  1  0  0  0
 15 12  1  0  0  0  0
 15  5  1  0  0  0  0
 16  3  2  0  0  0  0
 17 28  1  1  0  0  0
 17 10  1  0  0  0  0
 18 20  1  0  0  0  0
 19  6  1  6  0  0  0
 20 13  1  0  0  0  0
 20 11  1  0  0  0  0
 21 26  1  0  0  0  0
 21 23  2  0  0  0  0
 23  4  1  0  0  0  0
 24 22  1  0  0  0  0
 25 14  1  6  0  0  0
 25 17  1  0  0  0  0
 26  1  2  0  0  0  0
 28 29  1  0  0  0  0
 30 33  1  0  0  0  0
 30 34  1  0  0  0  0
 31 32  1  0  0  0  0
 32 29  1  6  0  0  0
 33 31  1  0  0  0  0
 34 32  1  0  0  0  0
M  END
>  <MODEL>
4

>  <REMARK>
 VINA RESULT:      -8.2      2.102      8.270
  Name = 
  3 active torsions:
  status: ('A' for Active; 'I' for Inactive)
    1  A    between atoms: C_17  and  O_28
    2  A    between atoms: O_28  and  C_29
    3  A    between atoms: C_29  and  C_32
                            x       y       z     vdW  Elec       q    Type
                         _______ _______ _______ _____ _____    ______ ____

>  <TORSDO>
F 3

$$$$
=
 OpenBabel11112417523D

 34 41  0  0  1  0  0  0  0  0999 V2000
  192.2440  176.2070  145.5880 C   0  0  0  0  0  0  0  0  0  0  0  0
  190.1490  177.1810  146.6680 C   0  0  0  0  0  2  0  0  0  0  0  0
  195.7540  173.7860  140.6770 C   0  0  0  0  0  0  0  0  0  0  0  0
  194.1700  175.5350  144.2840 C   0  0  0  0  0  0  0  0  0  0  0  0
  193.7620  174.4110  142.0250 C   0  0  2  0  0  3  0  0  0  0  0  0
  194.0120  173.0340  139.9940 C   0  0  0  0  0  2  0  0  0  0  0  0
  195.3640  172.6040  139.9450 O   0  0  0  0  0  0  0  0  0  0  0  0
  196.9300  175.4510  142.0300 C   0  0  0  0  0  2  0  0  0  0  0  0
  189.9370  175.7310  144.7410 C   0  0  2  0  0  3  0  0  0  0  0  0
  187.7140  176.7120  142.6240 C   0  0  0  0  0  3  0  0  0  0  0  0
  192.5180  175.2910  141.9370 C   0  0  0  0  0  2  0  0  0  0  0  0
  195.6190  176.0220  142.3790 N   0  0  0  0  0  2  0  0  0  0  0  0
  190.4950  175.8810  143.3150 C   0  0  1  0  0  3  0  0  0  0  0  0
  188.6680  177.0360  146.3550 C   0  0  0  0  0  2  0  0  0  0  0  0
  194.7900  175.0040  143.0240 C   0  0  1  0  0  3  0  0  0  0  0  0
  196.8440  174.2190  141.2290 N   0  0  0  0  0  0  0  0  0  0  0  0
  188.1760  177.3830  143.8930 C   0  0  2  0  0  3  0  0  0  0  0  0
  192.7800  175.7360  144.3800 C   0  0  0  0  0  0  0  0  0  0  0  0
  194.3520  174.2760  140.6150 C   0  0  2  0  0  3  0  0  0  0  0  0
  191.9100  175.4740  143.2560 N   0  0  0  0  0  0  0  0  0  0  0  0
  194.4660  176.3140  146.5130 C   0  0  0  0  0  3  0  0  0  0  0  0
  188.3590  175.7370  141.9590 C   0  0  0  0  0  3  0  0  0  0  0  0
  194.9690  175.8310  145.3450 N   0  0  0  0  0  0  0  0  0  0  0  0
  189.6320  175.0460  142.3770 C   0  0  0  0  0  2  0  0  0  0  0  0
  188.5590  176.3640  144.9810 C   0  0  1  0  0  3  0  0  0  0  0  0
  193.0920  176.5090  146.6570 C   0  0  0  0  0  3  0  0  0  0  0  0
  190.8270  176.3490  145.6990 N   0  0  0  0  0  0  0  0  0  0  0  0
  187.1630  178.2360  144.3420 O   0  0  0  0  0  0  0  0  0  0  0  0
  185.9830  177.5020  144.1900 C   0  0  0  0  0  2  0  0  0  0  0  0
  185.0140  177.8010  147.6080 O   0  0  0  0  0  0  0  0  0  0  0  0
  185.3050  179.2790  145.7860 C   0  0  0  0  0  2  0  0  0  0  0  0
  184.9780  177.9150  145.2500 C   0  0  2  0  0  3  0  0  0  0  0  0
  185.5660  179.0410  147.2540 C   0  0  0  0  0  2  0  0  0  0  0  0
  185.1110  177.0130  146.4530 C   0  0  0  0  0  2  0  0  0  0  0  0
  1 27  1  0  0  0  0
  1 26  1  0  0  0  0
  3 16  2  0  0  0  0
  4 18  1  0  0  0  0
  4 23  2  0  0  0  0
  5 11  1  6  0  0  0
  5 15  1  0  0  0  0
  7  6  1  0  0  0  0
  7  3  1  0  0  0  0
  8 12  1  0  0  0  0
  9 25  1  0  0  0  0
  9 27  1  1  0  0  0
 10 17  1  0  0  0  0
 11 20  1  0  0  0  0
 13 24  1  6  0  0  0
 13  9  1  0  0  0  0
 14  2  1  0  0  0  0
 15 12  1  6  0  0  0
 15  4  1  0  0  0  0
 16  8  1  0  0  0  0
 17 28  1  1  0  0  0
 17 25  1  0  0  0  0
 18  1  2  0  0  0  0
 19  6  1  6  0  0  0
 19  3  1  0  0  0  0
 19  5  1  0  0  0  0
 20 13  1  0  0  0  0
 20 18  1  0  0  0  0
 21 26  2  0  0  0  0
 22 24  1  0  0  0  0
 22 10  2  0  0  0  0
 23 21  1  0  0  0  0
 25 14  1  1  0  0  0
 27  2  1  0  0  0  0
 29 28  1  0  0  0  0
 31 33  1  0  0  0  0
 32 29  1  6  0  0  0
 32 31  1  0  0  0  0
 32 34  1  0  0  0  0
 33 30  1  0  0  0  0
 34 30  1  0  0  0  0
M  END
>  <MODEL>
5

>  <REMARK>
 VINA RESULT:      -8.1      2.705      8.815
  Name = 
  3 active torsions:
  status: ('A' for Active; 'I' for Inactive)
    1  A    between atoms: C_17  and  O_28
    2  A    between atoms: O_28  and  C_29
    3  A    between atoms: C_29  and  C_32
                            x       y       z     vdW  Elec       q    Type
                         _______ _______ _______ _____ _____    ______ ____

>  <TORSDO>
F 3

$$$$
=
 OpenBabel11112417523D

 34 41  0  0  1  0  0  0  0  0999 V2000
  191.1740  173.2760  142.2230 C   0  0  0  0  0  0  0  0  0  0  0  0
  188.6440  173.5990  142.2920 C   0  0  0  0  0  2  0  0  0  0  0  0
  197.3500  174.8760  143.4850 C   0  0  0  0  0  0  0  0  0  0  0  0
  193.5640  173.0490  142.5300 C   0  0  0  0  0  0  0  0  0  0  0  0
  194.9070  175.1440  143.1140 C   0  0  2  0  0  3  0  0  0  0  0  0
  196.7290  176.7900  143.3530 C   0  0  0  0  0  2  0  0  0  0  0  0
  197.9410  176.1180  143.0460 O   0  0  0  0  0  0  0  0  0  0  0  0
  196.8160  172.5230  143.8940 C   0  0  0  0  0  2  0  0  0  0  0  0
  190.1000  175.5300  142.4110 C   0  0  2  0  0  3  0  0  0  0  0  0
  189.1260  177.7530  144.5300 C   0  0  0  0  0  3  0  0  0  0  0  0
  193.6540  175.6060  143.8530 C   0  0  0  0  0  2  0  0  0  0  0  0
  195.4190  172.9300  144.1160 N   0  0  0  0  0  2  0  0  0  0  0  0
  191.1880  175.8950  143.4360 C   0  0  1  0  0  3  0  0  0  0  0  0
  187.7680  174.8370  142.3880 C   0  0  0  0  0  2  0  0  0  0  0  0
  194.9020  173.6040  142.9250 C   0  0  1  0  0  3  0  0  0  0  0  0
  197.6900  173.6250  143.4590 N   0  0  0  0  0  0  0  0  0  0  0  0
  188.5280  176.4020  144.2330 C   0  0  2  0  0  3  0  0  0  0  0  0
  192.3960  173.8290  142.6310 C   0  0  0  0  0  0  0  0  0  0  0  0
  196.1320  175.6160  143.9090 C   0  0  2  0  0  3  0  0  0  0  0  0
  192.4440  175.1760  143.1530 N   0  0  0  0  0  0  0  0  0  0  0  0
  192.3000  171.2110  141.7020 C   0  0  0  0  0  3  0  0  0  0  0  0
  190.3640  178.1650  144.2030 C   0  0  0  0  0  3  0  0  0  0  0  0
  193.4830  171.7690  142.0760 N   0  0  0  0  0  0  0  0  0  0  0  0
  191.3870  177.4050  143.3970 C   0  0  0  0  0  2  0  0  0  0  0  0
  188.6830  176.0130  142.7510 C   0  0  1  0  0  3  0  0  0  0  0  0
  191.1220  171.9560  141.7670 C   0  0  0  0  0  3  0  0  0  0  0  0
  190.0030  174.0930  142.2680 N   0  0  0  0  0  0  0  0  0  0  0  0
  187.1810  176.4170  144.6060 O   0  0  0  0  0  0  0  0  0  0  0  0
  187.1960  176.4160  146.0030 C   0  0  0  0  0  2  0  0  0  0  0  0
  185.1900  179.0480  147.3310 O   0  0  0  0  0  0  0  0  0  0  0  0
  185.0970  177.6190  145.4490 C   0  0  0  0  0  2  0  0  0  0  0  0
  185.8710  176.9310  146.5350 C   0  0  2  0  0  3  0  0  0  0  0  0
  184.9470  179.0360  145.9490 C   0  0  0  0  0  2  0  0  0  0  0  0
  186.1210  178.0230  147.5480 C   0  0  0  0  0  2  0  0  0  0  0  0
  1 27  1  0  0  0  0
  1 18  1  0  0  0  0
  2 14  1  0  0  0  0
  3 19  1  0  0  0  0
  4 18  2  0  0  0  0
  5 11  1  1  0  0  0
  5 19  1  0  0  0  0
  7  6  1  0  0  0  0
  7  3  1  0  0  0  0
  8 12  1  0  0  0  0
  9 27  1  1  0  0  0
  9 25  1  0  0  0  0
  9 13  1  0  0  0  0
 13 24  1  6  0  0  0
 15  4  1  1  0  0  0
 15  5  1  0  0  0  0
 15 12  1  0  0  0  0
 16  3  2  0  0  0  0
 16  8  1  0  0  0  0
 17 10  1  0  0  0  0
 17 28  1  6  0  0  0
 18 20  1  0  0  0  0
 19  6  1  6  0  0  0
 20 13  1  0  0  0  0
 20 11  1  0  0  0  0
 21 26  1  0  0  0  0
 21 23  2  0  0  0  0
 22 10  2  0  0  0  0
 23  4  1  0  0  0  0
 24 22  1  0  0  0  0
 25 14  1  1  0  0  0
 25 17  1  0  0  0  0
 26  1  2  0  0  0  0
 27  2  1  0  0  0  0
 28 29  1  0  0  0  0
 30 34  1  0  0  0  0
 31 33  1  0  0  0  0
 31 32  1  0  0  0  0
 32 29  1  6  0  0  0
 32 34  1  0  0  0  0
 33 30  1  0  0  0  0
M  END
>  <MODEL>
6

>  <REMARK>
 VINA RESULT:      -8.0      2.690      8.616
  Name = 
  3 active torsions:
  status: ('A' for Active; 'I' for Inactive)
    1  A    between atoms: C_17  and  O_28
    2  A    between atoms: O_28  and  C_29
    3  A    between atoms: C_29  and  C_32
                            x       y       z     vdW  Elec       q    Type
                         _______ _______ _______ _____ _____    ______ ____

>  <TORSDO>
F 3

$$$$
=
 OpenBabel11112417523D

 34 41  0  0  1  0  0  0  0  0999 V2000
  190.3170  174.8450  144.8580 C   0  0  0  0  0  0  0  0  0  0  0  0
  191.6320  173.0140  143.6640 C   0  0  0  0  0  2  0  0  0  0  0  0
  185.4920  179.1570  145.5100 C   0  0  0  0  0  0  0  0  0  0  0  0
  188.7610  176.3750  145.9050 C   0  0  0  0  0  0  0  0  0  0  0  0
  187.1220  177.6400  144.4070 C   0  0  2  0  0  3  0  0  0  0  0  0
  185.5740  179.3350  143.5030 C   0  0  0  0  0  2  0  0  0  0  0  0
  185.2650  180.2250  144.5640 O   0  0  0  0  0  0  0  0  0  0  0  0
  185.9300  177.8260  147.5160 C   0  0  0  0  0  2  0  0  0  0  0  0
  190.3330  174.5920  142.3670 C   0  0  2  0  0  3  0  0  0  0  0  0
  188.7520  173.2480  139.9020 C   0  0  0  0  0  3  0  0  0  0  0  0
  187.1500  176.3980  143.5180 C   0  0  0  0  0  2  0  0  0  0  0  0
  186.4640  176.7710  146.6390 N   0  0  0  0  0  2  0  0  0  0  0  0
  188.8240  174.8960  142.3890 C   0  0  1  0  0  3  0  0  0  0  0  0
  191.8090  172.6660  142.1950 C   0  0  0  0  0  2  0  0  0  0  0  0
  187.5780  177.2980  145.8500 C   0  0  1  0  0  3  0  0  0  0  0  0
  185.5670  179.0600  146.8000 N   0  0  0  0  0  0  0  0  0  0  0  0
  189.5950  172.5850  140.9620 C   0  0  2  0  0  3  0  0  0  0  0  0
  189.1890  175.6730  144.7630 C   0  0  0  0  0  0  0  0  0  0  0  0
  185.6990  178.2130  144.3800 C   0  0  2  0  0  3  0  0  0  0  0  0
  188.4800  175.7900  143.5090 N   0  0  0  0  0  0  0  0  0  0  0  0
  190.5010  175.3920  147.1970 C   0  0  0  0  0  3  0  0  0  0  0  0
  188.2320  174.4860  139.9590 C   0  0  0  0  0  3  0  0  0  0  0  0
  189.4220  176.2120  147.0840 N   0  0  0  0  0  0  0  0  0  0  0  0
  188.4450  175.5090  141.0460 C   0  0  0  0  0  2  0  0  0  0  0  0
  190.7690  173.4750  141.4090 C   0  0  1  0  0  3  0  0  0  0  0  0
  190.9710  174.6930  146.0840 C   0  0  0  0  0  3  0  0  0  0  0  0
  190.7840  174.1860  143.6800 N   0  0  0  0  0  0  0  0  0  0  0  0
  190.0560  171.3620  140.4660 O   0  0  0  0  0  0  0  0  0  0  0  0
  189.8920  171.4510  139.0810 C   0  0  0  0  0  2  0  0  0  0  0  0
  191.6820  168.3710  138.9430 O   0  0  0  0  0  0  0  0  0  0  0  0
  190.1180  169.4950  137.5710 C   0  0  0  0  0  2  0  0  0  0  0  0
  190.8610  170.5140  138.3840 C   0  0  2  0  0  3  0  0  0  0  0  0
  190.5160  168.1750  138.1880 C   0  0  0  0  0  2  0  0  0  0  0  0
  191.5970  169.6890  139.4130 C   0  0  0  0  0  2  0  0  0  0  0  0
  1 26  1  0  0  0  0
  2 27  1  0  0  0  0
  3 16  2  0  0  0  0
  4 23  2  0  0  0  0
  5 11  1  6  0  0  0
  5 15  1  0  0  0  0
  6  7  1  0  0  0  0
  7  3  1  0  0  0  0
  9 13  1  0  0  0  0
  9 27  1  1  0  0  0
 10 22  2  0  0  0  0
 10 17  1  0  0  0  0
 12  8  1  0  0  0  0
 13 24  1  6  0  0  0
 13 20  1  0  0  0  0
 14  2  1  0  0  0  0
 15  4  1  6  0  0  0
 15 12  1  0  0  0  0
 16  8  1  0  0  0  0
 17 28  1  6  0  0  0
 17 25  1  0  0  0  0
 18  1  2  0  0  0  0
 18  4  1  0  0  0  0
 19  6  1  6  0  0  0
 19  5  1  0  0  0  0
 19  3  1  0  0  0  0
 20 11  1  0  0  0  0
 20 18  1  0  0  0  0
 22 24  1  0  0  0  0
 23 21  1  0  0  0  0
 25 14  1  1  0  0  0
 25  9  1  0  0  0  0
 26 21  2  0  0  0  0
 27  1  1  0  0  0  0
 29 28  1  0  0  0  0
 30 34  1  0  0  0  0
 31 33  1  0  0  0  0
 31 32  1  0  0  0  0
 32 29  1  1  0  0  0
 32 34  1  0  0  0  0
 33 30  1  0  0  0  0
M  END
>  <MODEL>
7

>  <REMARK>
 VINA RESULT:      -7.9      3.515      5.919
  Name = 
  3 active torsions:
  status: ('A' for Active; 'I' for Inactive)
    1  A    between atoms: C_17  and  O_28
    2  A    between atoms: O_28  and  C_29
    3  A    between atoms: C_29  and  C_32
                            x       y       z     vdW  Elec       q    Type
                         _______ _______ _______ _____ _____    ______ ____

>  <TORSDO>
F 3

$$$$
=
 OpenBabel11112417523D

 34 41  0  0  1  0  0  0  0  0999 V2000
  190.3000  172.9410  142.7090 C   0  0  0  0  0  0  0  0  0  0  0  0
  187.9780  173.9120  142.2910 C   0  0  0  0  0  2  0  0  0  0  0  0
  196.3060  172.9090  145.2020 C   0  0  0  0  0  0  0  0  0  0  0  0
  192.4400  172.1080  143.4710 C   0  0  0  0  0  0  0  0  0  0  0  0
  194.1390  173.7940  144.3670 C   0  0  2  0  0  3  0  0  0  0  0  0
  196.2410  174.9150  145.0070 C   0  0  0  0  0  2  0  0  0  0  0  0
  197.2740  173.9450  144.9240 O   0  0  0  0  0  0  0  0  0  0  0  0
  195.1110  170.7860  145.4270 C   0  0  0  0  0  2  0  0  0  0  0  0
  189.8310  175.4000  142.7500 C   0  0  2  0  0  3  0  0  0  0  0  0
  189.0700  177.8480  144.7030 C   0  0  0  0  0  3  0  0  0  0  0  0
  192.9290  174.5830  144.8610 C   0  0  0  0  0  2  0  0  0  0  0  0
  193.8520  171.5460  145.3840 N   0  0  0  0  0  2  0  0  0  0  0  0
  190.7540  175.4930  143.9780 C   0  0  1  0  0  3  0  0  0  0  0  0
  187.4510  175.3380  142.2510 C   0  0  0  0  0  2  0  0  0  0  0  0
  193.7720  172.3050  144.1360 C   0  0  1  0  0  3  0  0  0  0  0  0
  196.3090  171.6130  145.2050 N   0  0  0  0  0  0  0  0  0  0  0  0
  188.2130  176.6920  144.2540 C   0  0  2  0  0  3  0  0  0  0  0  0
  191.5190  173.1670  143.3640 C   0  0  0  0  0  0  0  0  0  0  0  0
  195.2630  173.9500  145.4000 C   0  0  2  0  0  3  0  0  0  0  0  0
  191.8100  174.4670  143.9250 N   0  0  0  0  0  0  0  0  0  0  0  0
  190.9320  170.6430  142.3570 C   0  0  0  0  0  3  0  0  0  0  0  0
  190.4120  177.9160  144.6370 C   0  0  0  0  0  3  0  0  0  0  0  0
  192.1210  170.8830  142.9710 N   0  0  0  0  0  0  0  0  0  0  0  0
  191.3410  176.8990  144.0250 C   0  0  0  0  0  2  0  0  0  0  0  0
  188.5500  176.2430  142.8200 C   0  0  1  0  0  3  0  0  0  0  0  0
  189.9980  171.6700  142.2120 C   0  0  0  0  0  3  0  0  0  0  0  0
  189.3960  174.0360  142.5490 N   0  0  0  0  0  0  0  0  0  0  0  0
  186.8700  177.0650  144.3570 O   0  0  0  0  0  0  0  0  0  0  0  0
  186.8380  178.4050  143.9610 C   0  0  0  0  0  2  0  0  0  0  0  0
  183.6720  178.6660  145.5790 O   0  0  0  0  0  0  0  0  0  0  0  0
  185.9380  178.7390  146.2490 C   0  0  0  0  0  2  0  0  0  0  0  0
  185.8480  179.1750  144.8160 C   0  0  2  0  0  3  0  0  0  0  0  0
  184.5640  178.1890  146.5500 C   0  0  0  0  0  2  0  0  0  0  0  0
  184.4400  178.8080  144.4140 C   0  0  0  0  0  2  0  0  0  0  0  0
  1 18  1  0  0  0  0
  2 27  1  0  0  0  0
  3 16  2  0  0  0  0
  3 19  1  0  0  0  0
  5 11  1  1  0  0  0
  5 19  1  0  0  0  0
  7  6  1  0  0  0  0
  7  3  1  0  0  0  0
  9 27  1  1  0  0  0
  9 25  1  0  0  0  0
  9 13  1  0  0  0  0
 12  8  1  0  0  0  0
 13 24  1  6  0  0  0
 14  2  1  0  0  0  0
 15  4  1  1  0  0  0
 15  5  1  0  0  0  0
 15 12  1  0  0  0  0
 16  8  1  0  0  0  0
 17 28  1  6  0  0  0
 17 10  1  0  0  0  0
 18  4  2  0  0  0  0
 18 20  1  0  0  0  0
 19  6  1  6  0  0  0
 20 13  1  0  0  0  0
 20 11  1  0  0  0  0
 21 23  2  0  0  0  0
 22 10  2  0  0  0  0
 23  4  1  0  0  0  0
 24 22  1  0  0  0  0
 25 14  1  1  0  0  0
 25 17  1  0  0  0  0
 26 21  1  0  0  0  0
 26  1  2  0  0  0  0
 27  1  1  0  0  0  0
 29 28  1  0  0  0  0
 30 33  1  0  0  0  0
 31 33  1  0  0  0  0
 32 29  1  6  0  0  0
 32 31  1  0  0  0  0
 34 32  1  0  0  0  0
 34 30  1  0  0  0  0
M  END
>  <MODEL>
8

>  <REMARK>
 VINA RESULT:      -7.9      2.411      8.563
  Name = 
  3 active torsions:
  status: ('A' for Active; 'I' for Inactive)
    1  A    between atoms: C_17  and  O_28
    2  A    between atoms: O_28  and  C_29
    3  A    between atoms: C_29  and  C_32
                            x       y       z     vdW  Elec       q    Type
                         _______ _______ _______ _____ _____    ______ ____

>  <TORSDO>
F 3

$$$$
=
 OpenBabel11112417523D

 34 41  0  0  1  0  0  0  0  0999 V2000
  190.7800  176.0560  145.1120 C   0  0  0  0  0  0  0  0  0  0  0  0
  192.5390  174.6350  143.9310 C   0  0  0  0  0  2  0  0  0  0  0  0
  184.8490  178.5910  145.9450 C   0  0  0  0  0  0  0  0  0  0  0  0
  188.8850  177.0980  146.1990 C   0  0  0  0  0  0  0  0  0  0  0  0
  186.8040  177.5770  144.7940 C   0  0  2  0  0  3  0  0  0  0  0  0
  184.7110  178.5570  143.9340 C   0  0  0  0  0  2  0  0  0  0  0  0
  184.2020  179.4100  144.9480 O   0  0  0  0  0  0  0  0  0  0  0  0
  185.8650  177.7120  147.9910 C   0  0  0  0  0  2  0  0  0  0  0  0
  190.6870  175.5420  142.6630 C   0  0  2  0  0  3  0  0  0  0  0  0
  189.4670  173.4850  140.5050 C   0  0  0  0  0  3  0  0  0  0  0  0
  187.1800  176.3220  144.0110 C   0  0  0  0  0  2  0  0  0  0  0  0
  186.6540  176.7990  147.1480 N   0  0  0  0  0  2  0  0  0  0  0  0
  189.1710  175.3350  142.8270 C   0  0  1  0  0  3  0  0  0  0  0  0
  192.7080  174.2010  142.4840 C   0  0  0  0  0  2  0  0  0  0  0  0
  187.4590  177.5690  146.2000 C   0  0  1  0  0  3  0  0  0  0  0  0
  185.0510  178.6700  147.2230 N   0  0  0  0  0  0  0  0  0  0  0  0
  190.5630  173.2590  141.5150 C   0  0  2  0  0  3  0  0  0  0  0  0
  189.4350  176.4510  145.0760 C   0  0  0  0  0  0  0  0  0  0  0  0
  185.2740  177.6450  144.8790 C   0  0  2  0  0  3  0  0  0  0  0  0
  188.6330  176.1870  143.9030 N   0  0  0  0  0  0  0  0  0  0  0  0
  190.9490  176.8930  147.3650 C   0  0  0  0  0  3  0  0  0  0  0  0
  188.5650  174.4820  140.5190 C   0  0  0  0  0  3  0  0  0  0  0  0
  189.6510  177.2950  147.3060 N   0  0  0  0  0  0  0  0  0  0  0  0
  188.5050  175.6340  141.4890 C   0  0  0  0  0  2  0  0  0  0  0  0
  191.3990  174.5290  141.7560 C   0  0  1  0  0  3  0  0  0  0  0  0
  191.5390  176.2660  146.2660 C   0  0  0  0  0  3  0  0  0  0  0  0
  191.3490  175.4570  143.9460 N   0  0  0  0  0  0  0  0  0  0  0  0
  191.3710  172.2070  141.0710 O   0  0  0  0  0  0  0  0  0  0  0  0
  190.8390  171.0660  141.6760 C   0  0  0  0  0  2  0  0  0  0  0  0
  194.2990  170.4770  142.3000 O   0  0  0  0  0  0  0  0  0  0  0  0
  192.3170  170.5030  143.5890 C   0  0  0  0  0  2  0  0  0  0  0  0
  191.9610  170.1710  142.1690 C   0  0  2  0  0  3  0  0  0  0  0  0
  193.7610  170.9380  143.5110 C   0  0  0  0  0  2  0  0  0  0  0  0
  193.2240  170.4730  141.4000 C   0  0  0  0  0  2  0  0  0  0  0  0
  1 26  1  0  0  0  0
  2 27  1  0  0  0  0
  3 16  2  0  0  0  0
  4 23  2  0  0  0  0
  5 11  1  1  0  0  0
  5 19  1  0  0  0  0
  5 15  1  0  0  0  0
  6  7  1  0  0  0  0
  7  3  1  0  0  0  0
  9 13  1  0  0  0  0
  9 27  1  1  0  0  0
 10 22  2  0  0  0  0
 10 17  1  0  0  0  0
 12  8  1  0  0  0  0
 13 24  1  6  0  0  0
 13 20  1  0  0  0  0
 14  2  1  0  0  0  0
 15  4  1  6  0  0  0
 15 12  1  0  0  0  0
 16  8  1  0  0  0  0
 17 28  1  6  0  0  0
 17 25  1  0  0  0  0
 18  1  2  0  0  0  0
 18  4  1  0  0  0  0
 19  6  1  6  0  0  0
 19  3  1  0  0  0  0
 20 11  1  0  0  0  0
 20 18  1  0  0  0  0
 22 24  1  0  0  0  0
 23 21  1  0  0  0  0
 25 14  1  1  0  0  0
 25  9  1  0  0  0  0
 26 21  2  0  0  0  0
 27  1  1  0  0  0  0
 28 29  1  0  0  0  0
 30 33  1  0  0  0  0
 32 29  1  6  0  0  0
 32 31  1  0  0  0  0
 33 31  1  0  0  0  0
 34 32  1  0  0  0  0
 34 30  1  0  0  0  0
M  END
>  <MODEL>
9

>  <REMARK>
 VINA RESULT:      -7.9      2.606      4.855
  Name = 
  3 active torsions:
  status: ('A' for Active; 'I' for Inactive)
    1  A    between atoms: C_17  and  O_28
    2  A    between atoms: O_28  and  C_29
    3  A    between atoms: C_29  and  C_32
                            x       y       z     vdW  Elec       q    Type
                         _______ _______ _______ _____ _____    ______ ____

>  <TORSDO>
F 3

$$$$
