=
 OpenBabel11112417073D

 31 35  0  0  1  0  0  0  0  0999 V2000
  184.8270  178.1790  147.1540 C   0  0  0  0  0  0  0  0  0  0  0  0
  187.3110  176.1220  145.1320 C   0  0  2  0  0  3  0  0  0  0  0  0
  187.3540  176.6820  143.7230 C   0  0  0  0  0  0  0  0  0  0  0  0
  186.3810  177.9870  141.9180 C   0  0  0  0  0  0  0  0  0  0  0  0
  186.7460  177.0980  146.1360 C   0  0  0  0  0  0  0  0  0  0  0  0
  185.6770  178.9280  147.9710 C   0  0  0  0  0  3  0  0  0  0  0  0
  186.3280  177.5010  143.2270 C   0  0  0  0  0  3  0  0  0  0  0  0
  189.6390  176.7700  145.9350 C   0  0  2  0  0  3  0  0  0  0  0  0
  183.4850  178.3390  147.2460 F   0  0  0  0  0  0  0  0  0  0  0  0
  189.4390  175.4520  143.3550 N   0  0  0  0  0  2  0  0  0  0  0  0
  185.3930  178.7870  141.4520 F   0  0  0  0  0  0  0  0  0  0  0  0
  189.0140  177.6440  146.9240 N   0  0  0  0  0  2  0  0  0  0  0  0
  188.6980  175.6070  145.5820 C   0  0  2  0  0  3  0  0  0  0  0  0
  185.3590  177.2650  146.2410 C   0  0  0  0  0  3  0  0  0  0  0  0
  187.4560  177.6490  141.0890 C   0  0  0  0  0  3  0  0  0  0  0  0
  187.6000  177.8540  146.9640 C   0  0  0  0  0  0  0  0  0  0  0  0
  187.0620  178.7610  147.8810 C   0  0  0  0  0  3  0  0  0  0  0  0
  189.2850  174.7340  144.5590 N   0  0  0  0  0  2  0  0  0  0  0  0
  188.4090  176.3150  142.8700 C   0  0  0  0  0  0  0  0  0  0  0  0
  188.4690  176.8130  141.5660 C   0  0  0  0  0  3  0  0  0  0  0  0
  192.1850  177.0720  144.6920 O   0  0  0  0  0  0  0  0  0  0  0  0
  192.1410  176.4520  145.7900 C   0  0  0  0  0  0  0  0  0  0  0  0
  190.8960  176.2570  146.4600 N   0  0  0  0  0  2  0  0  0  0  0  0
  195.4070  176.2430  144.3850 C   0  0  0  0  0  0  0  0  0  0  0  0
  194.4810  176.9820  146.5070 C   0  0  0  0  0  2  0  0  0  0  0  0
  193.4620  173.5750  145.8630 O   0  0  0  0  0  0  0  0  0  0  0  0
  196.1780  176.5260  143.1470 C   0  0  0  0  0  1  0  0  0  0  0  0
  195.1690  177.2020  145.2310 N   0  0  0  0  0  0  0  0  0  0  0  0
  193.9070  174.7290  145.6350 C   0  0  0  0  0  0  0  0  0  0  0  0
  193.3920  175.9070  146.4040 C   0  0  2  0  0  3  0  0  0  0  0  0
  194.8750  174.9340  144.6050 N   0  0  0  0  0  2  0  0  0  0  0  0
  1  9  1  0  0  0  0
  1  6  1  0  0  0  0
  2  3  1  6  0  0  0
  2 13  1  0  0  0  0
  2  5  1  0  0  0  0
  4  7  2  0  0  0  0
  5 14  1  0  0  0  0
  5 16  2  0  0  0  0
  7  3  1  0  0  0  0
  8 23  1  1  0  0  0
  8 12  1  0  0  0  0
 10 18  1  0  0  0  0
 11  4  1  0  0  0  0
 12 16  1  0  0  0  0
 13 18  1  6  0  0  0
 13  8  1  0  0  0  0
 14  1  2  0  0  0  0
 15 20  2  0  0  0  0
 15  4  1  0  0  0  0
 16 17  1  0  0  0  0
 17  6  2  0  0  0  0
 19 10  1  0  0  0  0
 19  3  2  0  0  0  0
 20 19  1  0  0  0  0
 21 22  2  0  0  0  0
 22 23  1  0  0  0  0
 24 31  1  0  0  0  0
 24 28  2  0  0  0  0
 27 24  1  0  0  0  0
 28 25  1  0  0  0  0
 29 26  2  0  0  0  0
 29 30  1  0  0  0  0
 30 22  1  6  0  0  0
 30 25  1  0  0  0  0
 31 29  1  0  0  0  0
M  END
>  <MODEL>
1

>  <REMARK>
 VINA RESULT:      -8.8      0.000      0.000
  Name = 
  2 active torsions:
  status: ('A' for Active; 'I' for Inactive)
    1  A    between atoms: C_5  and  C_30
    2  A    between atoms: C_10  and  N_16
                            x       y       z     vdW  Elec       q    Type
                         _______ _______ _______ _____ _____    ______ ____

>  <TORSDO>
F 2

$$$$
=
 OpenBabel11112417073D

 31 35  0  0  1  0  0  0  0  0999 V2000
  185.9990  178.2060  140.8140 C   0  0  0  0  0  0  0  0  0  0  0  0
  188.2510  178.0770  143.8800 C   0  0  2  0  0  3  0  0  0  0  0  0
  187.4110  177.6480  145.0680 C   0  0  0  0  0  0  0  0  0  0  0  0
  185.2600  177.3570  146.1620 C   0  0  0  0  0  0  0  0  0  0  0  0
  187.6200  177.7240  142.5540 C   0  0  0  0  0  0  0  0  0  0  0  0
  186.4110  177.0710  140.1110 C   0  0  0  0  0  3  0  0  0  0  0  0
  186.0100  177.7380  145.0470 C   0  0  0  0  0  3  0  0  0  0  0  0
  189.7340  176.0230  143.6250 C   0  0  2  0  0  3  0  0  0  0  0  0
  185.0120  178.9900  140.3160 F   0  0  0  0  0  0  0  0  0  0  0  0
  189.4770  177.1590  146.2850 N   0  0  0  0  0  2  0  0  0  0  0  0
  183.9080  177.4350  146.1280 F   0  0  0  0  0  0  0  0  0  0  0  0
  189.1200  175.7860  142.3220 N   0  0  0  0  0  2  0  0  0  0  0  0
  189.6910  177.5190  143.9710 C   0  0  2  0  0  3  0  0  0  0  0  0
  186.6020  178.5330  142.0310 C   0  0  0  0  0  3  0  0  0  0  0  0
  185.9040  176.8920  147.3130 C   0  0  0  0  0  3  0  0  0  0  0  0
  188.0330  176.5810  141.8410 C   0  0  0  0  0  0  0  0  0  0  0  0
  187.4310  176.2640  140.6200 C   0  0  0  0  0  3  0  0  0  0  0  0
  190.2650  177.7800  145.2960 N   0  0  0  0  0  2  0  0  0  0  0  0
  188.0500  177.2190  146.2430 C   0  0  0  0  0  0  0  0  0  0  0  0
  187.2990  176.8230  147.3530 C   0  0  0  0  0  3  0  0  0  0  0  0
  190.7370  173.8300  145.1460 O   0  0  0  0  0  0  0  0  0  0  0  0
  191.5470  174.4380  144.3920 C   0  0  0  0  0  0  0  0  0  0  0  0
  191.1110  175.5500  143.6110 N   0  0  0  0  0  2  0  0  0  0  0  0
  194.4840  176.2690  145.2270 C   0  0  0  0  0  0  0  0  0  0  0  0
  193.6530  174.0320  145.6840 C   0  0  0  0  0  2  0  0  0  0  0  0
  193.7400  174.5840  142.1130 O   0  0  0  0  0  0  0  0  0  0  0  0
  194.9500  177.5940  145.7100 C   0  0  0  0  0  1  0  0  0  0  0  0
  194.0560  175.3850  146.0790 N   0  0  0  0  0  0  0  0  0  0  0  0
  193.7460  174.8530  143.3420 C   0  0  0  0  0  0  0  0  0  0  0  0
  192.9760  174.0040  144.3070 C   0  0  2  0  0  3  0  0  0  0  0  0
  194.4480  176.0000  143.8220 N   0  0  0  0  0  2  0  0  0  0  0  0
  1 14  1  0  0  0  0
  2  5  1  6  0  0  0
  2 13  1  0  0  0  0
  2  3  1  0  0  0  0
  3 19  1  0  0  0  0
  4 15  2  0  0  0  0
  6 17  1  0  0  0  0
  6  1  2  0  0  0  0
  7  3  2  0  0  0  0
  7  4  1  0  0  0  0
  8 23  1  6  0  0  0
  8 13  1  0  0  0  0
  9  1  1  0  0  0  0
 11  4  1  0  0  0  0
 12  8  1  0  0  0  0
 13 18  1  1  0  0  0
 14  5  2  0  0  0  0
 15 20  1  0  0  0  0
 16 12  1  0  0  0  0
 16  5  1  0  0  0  0
 17 16  2  0  0  0  0
 18 10  1  0  0  0  0
 19 10  1  0  0  0  0
 19 20  2  0  0  0  0
 22 21  2  0  0  0  0
 23 22  1  0  0  0  0
 24 27  1  0  0  0  0
 24 28  2  0  0  0  0
 25 28  1  0  0  0  0
 26 29  2  0  0  0  0
 29 31  1  0  0  0  0
 29 30  1  0  0  0  0
 30 22  1  1  0  0  0
 30 25  1  0  0  0  0
 31 24  1  0  0  0  0
M  END
>  <MODEL>
2

>  <REMARK>
 VINA RESULT:      -8.7      1.706      4.294
  Name = 
  2 active torsions:
  status: ('A' for Active; 'I' for Inactive)
    1  A    between atoms: C_5  and  C_30
    2  A    between atoms: C_10  and  N_16
                            x       y       z     vdW  Elec       q    Type
                         _______ _______ _______ _____ _____    ______ ____

>  <TORSDO>
F 2

$$$$
=
 OpenBabel11112417073D

 31 35  0  0  1  0  0  0  0  0999 V2000
  184.7620  177.7920  146.7350 C   0  0  0  0  0  0  0  0  0  0  0  0
  187.0140  176.0660  144.1980 C   0  0  2  0  0  3  0  0  0  0  0  0
  186.7510  176.6790  142.8350 C   0  0  0  0  0  0  0  0  0  0  0  0
  185.3550  177.9490  141.3040 C   0  0  0  0  0  0  0  0  0  0  0  0
  186.5550  176.9430  145.3370 C   0  0  0  0  0  0  0  0  0  0  0  0
  185.6750  178.5890  147.4290 C   0  0  0  0  0  3  0  0  0  0  0  0
  185.5830  177.4120  142.5730 C   0  0  0  0  0  3  0  0  0  0  0  0
  189.3810  176.9080  144.6120 C   0  0  2  0  0  3  0  0  0  0  0  0
  183.4490  177.8150  147.0710 F   0  0  0  0  0  0  0  0  0  0  0  0
  188.8370  175.6750  142.0400 N   0  0  0  0  0  2  0  0  0  0  0  0
  184.2310  178.6650  141.0640 F   0  0  0  0  0  0  0  0  0  0  0  0
  188.8690  177.6790  145.7410 N   0  0  0  0  0  2  0  0  0  0  0  0
  188.5000  175.6730  144.3670 C   0  0  2  0  0  3  0  0  0  0  0  0
  185.2000  176.9690  145.6940 C   0  0  0  0  0  3  0  0  0  0  0  0
  186.2880  177.7500  140.2820 C   0  0  0  0  0  3  0  0  0  0  0  0
  187.4730  177.7480  146.0410 C   0  0  0  0  0  0  0  0  0  0  0  0
  187.0290  178.5630  147.0870 C   0  0  0  0  0  3  0  0  0  0  0  0
  188.9690  174.9010  143.2100 N   0  0  0  0  0  2  0  0  0  0  0  0
  187.6630  176.4510  141.7910 C   0  0  0  0  0  0  0  0  0  0  0  0
  187.4410  177.0010  140.5260 C   0  0  0  0  0  3  0  0  0  0  0  0
  191.6780  177.8690  143.2250 O   0  0  0  0  0  0  0  0  0  0  0  0
  191.8620  177.0300  144.1510 C   0  0  0  0  0  0  0  0  0  0  0  0
  190.7530  176.5020  144.8780 N   0  0  0  0  0  2  0  0  0  0  0  0
  193.0590  173.7100  144.6230 C   0  0  0  0  0  0  0  0  0  0  0  0
  193.8260  175.6680  143.4040 C   0  0  0  0  0  2  0  0  0  0  0  0
  193.3670  176.5150  146.8880 O   0  0  0  0  0  0  0  0  0  0  0  0
  192.6220  172.2900  144.6370 C   0  0  0  0  0  1  0  0  0  0  0  0
  193.3180  174.2950  143.4910 N   0  0  0  0  0  0  0  0  0  0  0  0
  193.2680  175.8640  145.8160 C   0  0  0  0  0  0  0  0  0  0  0  0
  193.2440  176.5740  144.4970 C   0  0  2  0  0  3  0  0  0  0  0  0
  193.1270  174.4430  145.8500 N   0  0  0  0  0  2  0  0  0  0  0  0
  1  9  1  0  0  0  0
  1  6  1  0  0  0  0
  2  3  1  6  0  0  0
  2 13  1  0  0  0  0
  2  5  1  0  0  0  0
  4  7  2  0  0  0  0
  5 14  1  0  0  0  0
  5 16  2  0  0  0  0
  7  3  1  0  0  0  0
  8 23  1  1  0  0  0
  8 12  1  0  0  0  0
 10 18  1  0  0  0  0
 11  4  1  0  0  0  0
 12 16  1  0  0  0  0
 13 18  1  6  0  0  0
 13  8  1  0  0  0  0
 14  1  2  0  0  0  0
 15 20  2  0  0  0  0
 15  4  1  0  0  0  0
 16 17  1  0  0  0  0
 17  6  2  0  0  0  0
 19 10  1  0  0  0  0
 19  3  2  0  0  0  0
 20 19  1  0  0  0  0
 21 22  2  0  0  0  0
 22 23  1  0  0  0  0
 24 27  1  0  0  0  0
 24 31  1  0  0  0  0
 25 28  1  0  0  0  0
 25 30  1  0  0  0  0
 28 24  2  0  0  0  0
 29 31  1  0  0  0  0
 29 26  2  0  0  0  0
 30 22  1  6  0  0  0
 30 29  1  0  0  0  0
M  END
>  <MODEL>
3

>  <REMARK>
 VINA RESULT:      -8.6      1.486      2.009
  Name = 
  2 active torsions:
  status: ('A' for Active; 'I' for Inactive)
    1  A    between atoms: C_5  and  C_30
    2  A    between atoms: C_10  and  N_16
                            x       y       z     vdW  Elec       q    Type
                         _______ _______ _______ _____ _____    ______ ____

>  <TORSDO>
F 2

$$$$
=
 OpenBabel11112417073D

 31 35  0  0  1  0  0  0  0  0999 V2000
  191.5690  172.9260  141.7700 C   0  0  0  0  0  0  0  0  0  0  0  0
  191.0770  174.0810  145.3630 C   0  0  2  0  0  3  0  0  0  0  0  0
  192.2290  174.9980  145.7290 C   0  0  0  0  0  0  0  0  0  0  0  0
  194.4770  175.8460  145.3600 C   0  0  0  0  0  0  0  0  0  0  0  0
  190.8930  173.9320  143.8720 C   0  0  0  0  0  0  0  0  0  0  0  0
  190.5910  173.6640  141.0980 C   0  0  0  0  0  3  0  0  0  0  0  0
  193.4230  175.0080  144.9900 C   0  0  0  0  0  3  0  0  0  0  0  0
  189.1640  175.7610  145.3480 C   0  0  2  0  0  3  0  0  0  0  0  0
  192.3740  172.0830  141.0800 F   0  0  0  0  0  0  0  0  0  0  0  0
  190.9310  175.7750  147.6530 N   0  0  0  0  0  2  0  0  0  0  0  0
  195.6200  175.8580  144.6340 F   0  0  0  0  0  0  0  0  0  0  0  0
  189.0070  175.5140  143.9180 N   0  0  0  0  0  2  0  0  0  0  0  0
  189.7600  174.5260  146.0410 C   0  0  2  0  0  3  0  0  0  0  0  0
  191.7190  173.0580  143.1530 C   0  0  0  0  0  3  0  0  0  0  0  0
  194.3510  176.6760  146.4780 C   0  0  0  0  0  3  0  0  0  0  0  0
  189.9070  174.6730  143.1910 C   0  0  0  0  0  0  0  0  0  0  0  0
  189.7570  174.5310  141.8080 C   0  0  0  0  0  3  0  0  0  0  0  0
  189.9670  174.7630  147.4740 N   0  0  0  0  0  2  0  0  0  0  0  0
  192.1280  175.8060  146.8740 C   0  0  0  0  0  0  0  0  0  0  0  0
  193.1770  176.6550  147.2350 C   0  0  0  0  0  3  0  0  0  0  0  0
  188.6660  177.9460  147.1100 O   0  0  0  0  0  0  0  0  0  0  0  0
  187.6890  177.2080  146.8030 C   0  0  0  0  0  0  0  0  0  0  0  0
  187.8720  176.0910  145.9330 N   0  0  0  0  0  2  0  0  0  0  0  0
  184.8930  178.6850  145.1650 C   0  0  0  0  0  0  0  0  0  0  0  0
  185.2420  176.7320  146.5700 C   0  0  0  0  0  2  0  0  0  0  0  0
  186.4050  179.6870  148.2950 O   0  0  0  0  0  0  0  0  0  0  0  0
  184.4630  179.2850  143.8760 C   0  0  0  0  0  1  0  0  0  0  0  0
  184.9030  177.3920  145.3050 N   0  0  0  0  0  0  0  0  0  0  0  0
  186.0280  178.9580  147.3430 C   0  0  0  0  0  0  0  0  0  0  0  0
  186.3240  177.4890  147.3490 C   0  0  2  0  0  3  0  0  0  0  0  0
  185.3560  179.5320  146.2210 N   0  0  0  0  0  2  0  0  0  0  0  0
  1 14  1  0  0  0  0
  2  5  1  6  0  0  0
  2  3  1  0  0  0  0
  2 13  1  0  0  0  0
  3 19  1  0  0  0  0
  4 15  2  0  0  0  0
  6  1  2  0  0  0  0
  6 17  1  0  0  0  0
  7  4  1  0  0  0  0
  7  3  2  0  0  0  0
  8 23  1  1  0  0  0
  8 13  1  0  0  0  0
  9  1  1  0  0  0  0
 11  4  1  0  0  0  0
 12  8  1  0  0  0  0
 13 18  1  1  0  0  0
 14  5  2  0  0  0  0
 15 20  1  0  0  0  0
 16  5  1  0  0  0  0
 16 12  1  0  0  0  0
 17 16  2  0  0  0  0
 18 10  1  0  0  0  0
 19 20  2  0  0  0  0
 19 10  1  0  0  0  0
 22 21  2  0  0  0  0
 23 22  1  0  0  0  0
 24 28  2  0  0  0  0
 24 31  1  0  0  0  0
 25 30  1  0  0  0  0
 27 24  1  0  0  0  0
 28 25  1  0  0  0  0
 29 30  1  0  0  0  0
 29 26  2  0  0  0  0
 30 22  1  6  0  0  0
 31 29  1  0  0  0  0
M  END
>  <MODEL>
4

>  <REMARK>
 VINA RESULT:      -8.2      3.802      7.869
  Name = 
  2 active torsions:
  status: ('A' for Active; 'I' for Inactive)
    1  A    between atoms: C_5  and  C_30
    2  A    between atoms: C_10  and  N_16
                            x       y       z     vdW  Elec       q    Type
                         _______ _______ _______ _____ _____    ______ ____

>  <TORSDO>
F 2

$$$$
=
 OpenBabel11112417073D

 31 35  0  0  1  0  0  0  0  0999 V2000
  185.8020  178.2820  140.8560 C   0  0  0  0  0  0  0  0  0  0  0  0
  188.2990  178.1450  143.7260 C   0  0  2  0  0  3  0  0  0  0  0  0
  187.5760  177.6400  144.9600 C   0  0  0  0  0  0  0  0  0  0  0  0
  185.5350  177.2190  146.2100 C   0  0  0  0  0  0  0  0  0  0  0  0
  187.5770  177.8120  142.4420 C   0  0  0  0  0  0  0  0  0  0  0  0
  186.2010  177.1910  140.0800 C   0  0  0  0  0  3  0  0  0  0  0  0
  186.1760  177.6710  145.0540 C   0  0  0  0  0  3  0  0  0  0  0  0
  189.8380  176.1670  143.2770 C   0  0  2  0  0  3  0  0  0  0  0  0
  184.7480  179.0400  140.4690 F   0  0  0  0  0  0  0  0  0  0  0  0
  189.7530  177.1990  145.9900 N   0  0  0  0  0  2  0  0  0  0  0  0
  184.1830  177.2400  146.2870 F   0  0  0  0  0  0  0  0  0  0  0  0
  189.1300  175.9490  142.0190 N   0  0  0  0  0  2  0  0  0  0  0  0
  189.7630  177.6480  143.6810 C   0  0  2  0  0  3  0  0  0  0  0  0
  186.4890  178.5930  142.0330 C   0  0  0  0  0  3  0  0  0  0  0  0
  186.2890  176.7430  147.2880 C   0  0  0  0  0  3  0  0  0  0  0  0
  187.9770  176.7130  141.6560 C   0  0  0  0  0  0  0  0  0  0  0  0
  187.2910  176.4110  140.4760 C   0  0  0  0  0  3  0  0  0  0  0  0
  190.4330  177.8870  144.9650 N   0  0  0  0  0  2  0  0  0  0  0  0
  188.3260  177.1990  146.0630 C   0  0  0  0  0  0  0  0  0  0  0  0
  187.6840  176.7340  147.2140 C   0  0  0  0  0  3  0  0  0  0  0  0
  191.1550  174.2320  144.9040 O   0  0  0  0  0  0  0  0  0  0  0  0
  191.8240  174.7710  143.9790 C   0  0  0  0  0  0  0  0  0  0  0  0
  191.2280  175.7550  143.1340 N   0  0  0  0  0  2  0  0  0  0  0  0
  193.3050  171.5330  144.0380 C   0  0  0  0  0  0  0  0  0  0  0  0
  193.4040  173.4540  142.5520 C   0  0  0  0  0  2  0  0  0  0  0  0
  194.3230  174.4640  145.8990 O   0  0  0  0  0  0  0  0  0  0  0  0
  192.9950  170.0990  144.2700 C   0  0  0  0  0  1  0  0  0  0  0  0
  193.0560  172.0670  142.8790 N   0  0  0  0  0  0  0  0  0  0  0  0
  193.8440  173.7530  144.9780 C   0  0  0  0  0  0  0  0  0  0  0  0
  193.2540  174.3910  143.7570 C   0  0  2  0  0  3  0  0  0  0  0  0
  193.8120  172.3320  145.1100 N   0  0  0  0  0  2  0  0  0  0  0  0
  1 14  1  0  0  0  0
  2  5  1  6  0  0  0
  2  3  1  0  0  0  0
  3  7  2  0  0  0  0
  3 19  1  0  0  0  0
  4 11  1  0  0  0  0
  4 15  2  0  0  0  0
  6 17  1  0  0  0  0
  6  1  2  0  0  0  0
  7  4  1  0  0  0  0
  8 23  1  6  0  0  0
  8 13  1  0  0  0  0
  9  1  1  0  0  0  0
 10 19  1  0  0  0  0
 12  8  1  0  0  0  0
 13  2  1  0  0  0  0
 13 18  1  1  0  0  0
 14  5  2  0  0  0  0
 16 12  1  0  0  0  0
 16  5  1  0  0  0  0
 17 16  2  0  0  0  0
 18 10  1  0  0  0  0
 19 20  2  0  0  0  0
 20 15  1  0  0  0  0
 22 21  2  0  0  0  0
 23 22  1  0  0  0  0
 24 27  1  0  0  0  0
 24 31  1  0  0  0  0
 25 28  1  0  0  0  0
 25 30  1  0  0  0  0
 28 24  2  0  0  0  0
 29 31  1  0  0  0  0
 29 26  2  0  0  0  0
 30 22  1  1  0  0  0
 30 29  1  0  0  0  0
M  END
>  <MODEL>
5

>  <REMARK>
 VINA RESULT:      -8.2      2.119      4.687
  Name = 
  2 active torsions:
  status: ('A' for Active; 'I' for Inactive)
    1  A    between atoms: C_5  and  C_30
    2  A    between atoms: C_10  and  N_16
                            x       y       z     vdW  Elec       q    Type
                         _______ _______ _______ _____ _____    ______ ____

>  <TORSDO>
F 2

$$$$
=
 OpenBabel11112417073D

 31 35  0  0  1  0  0  0  0  0999 V2000
  185.3110  177.5700  146.6260 C   0  0  0  0  0  0  0  0  0  0  0  0
  186.9500  175.8440  143.6570 C   0  0  2  0  0  3  0  0  0  0  0  0
  186.5650  176.5970  142.3980 C   0  0  0  0  0  0  0  0  0  0  0  0
  185.1180  178.1350  141.1940 C   0  0  0  0  0  0  0  0  0  0  0  0
  186.7680  176.6620  144.9120 C   0  0  0  0  0  0  0  0  0  0  0  0
  186.4020  178.2040  147.2240 C   0  0  0  0  0  3  0  0  0  0  0  0
  185.4650  177.4680  142.3710 C   0  0  0  0  0  3  0  0  0  0  0  0
  189.4340  176.3940  143.7570 C   0  0  2  0  0  3  0  0  0  0  0  0
  184.0730  177.7020  147.1620 F   0  0  0  0  0  0  0  0  0  0  0  0
  188.3800  175.4520  141.2200 N   0  0  0  0  0  2  0  0  0  0  0  0
  184.0620  178.9830  141.1810 F   0  0  0  0  0  0  0  0  0  0  0  0
  189.1870  177.1140  145.0030 N   0  0  0  0  0  2  0  0  0  0  0  0
  188.3890  175.2840  143.5660 C   0  0  2  0  0  3  0  0  0  0  0  0
  185.4930  176.7990  145.4750 C   0  0  0  0  0  3  0  0  0  0  0  0
  185.8620  177.9280  140.0280 C   0  0  0  0  0  3  0  0  0  0  0  0
  187.8670  177.3030  145.5200 C   0  0  0  0  0  0  0  0  0  0  0  0
  187.6800  178.0660  146.6760 C   0  0  0  0  0  3  0  0  0  0  0  0
  188.5900  174.5700  142.2990 N   0  0  0  0  0  2  0  0  0  0  0  0
  187.2810  176.3650  141.2110 C   0  0  0  0  0  0  0  0  0  0  0  0
  186.9430  177.0430  140.0370 C   0  0  0  0  0  3  0  0  0  0  0  0
  190.3310  174.3650  145.5470 O   0  0  0  0  0  0  0  0  0  0  0  0
  191.1570  174.8020  144.6970 C   0  0  0  0  0  0  0  0  0  0  0  0
  190.7740  175.8250  143.7780 N   0  0  0  0  0  2  0  0  0  0  0  0
  194.2230  176.4430  145.4630 C   0  0  0  0  0  0  0  0  0  0  0  0
  193.2220  174.2990  146.0210 C   0  0  0  0  0  2  0  0  0  0  0  0
  193.3600  174.6720  142.4280 O   0  0  0  0  0  0  0  0  0  0  0  0
  194.7870  177.7500  145.8850 C   0  0  0  0  0  1  0  0  0  0  0  0
  193.7260  175.6360  146.3530 N   0  0  0  0  0  0  0  0  0  0  0  0
  193.3840  174.9980  143.6430 C   0  0  0  0  0  0  0  0  0  0  0  0
  192.5490  174.2570  144.6430 C   0  0  2  0  0  3  0  0  0  0  0  0
  194.1700  176.1100  144.0720 N   0  0  0  0  0  2  0  0  0  0  0  0
  1  9  1  0  0  0  0
  1  6  1  0  0  0  0
  2  3  1  6  0  0  0
  2  5  1  0  0  0  0
  4  7  2  0  0  0  0
  5 14  1  0  0  0  0
  5 16  2  0  0  0  0
  7  3  1  0  0  0  0
  8 23  1  1  0  0  0
  8 12  1  0  0  0  0
 10 18  1  0  0  0  0
 11  4  1  0  0  0  0
 12 16  1  0  0  0  0
 13 18  1  6  0  0  0
 13  2  1  0  0  0  0
 13  8  1  0  0  0  0
 14  1  2  0  0  0  0
 15 20  2  0  0  0  0
 15  4  1  0  0  0  0
 16 17  1  0  0  0  0
 17  6  2  0  0  0  0
 19 10  1  0  0  0  0
 19  3  2  0  0  0  0
 20 19  1  0  0  0  0
 22 21  2  0  0  0  0
 23 22  1  0  0  0  0
 24 27  1  0  0  0  0
 24 28  2  0  0  0  0
 25 28  1  0  0  0  0
 26 29  2  0  0  0  0
 29 31  1  0  0  0  0
 29 30  1  0  0  0  0
 30 22  1  1  0  0  0
 30 25  1  0  0  0  0
 31 24  1  0  0  0  0
M  END
>  <MODEL>
6

>  <REMARK>
 VINA RESULT:      -8.0      1.689      2.094
  Name = 
  2 active torsions:
  status: ('A' for Active; 'I' for Inactive)
    1  A    between atoms: C_5  and  C_30
    2  A    between atoms: C_10  and  N_16
                            x       y       z     vdW  Elec       q    Type
                         _______ _______ _______ _____ _____    ______ ____

>  <TORSDO>
F 2

$$$$
=
 OpenBabel11112417073D

 31 35  0  0  1  0  0  0  0  0999 V2000
  186.4830  177.0650  142.2970 C   0  0  0  0  0  0  0  0  0  0  0  0
  189.2540  174.6460  143.2770 C   0  0  2  0  0  3  0  0  0  0  0  0
  189.4750  173.6850  142.1240 C   0  0  0  0  0  0  0  0  0  0  0  0
  188.7270  172.6000  140.0820 C   0  0  0  0  0  0  0  0  0  0  0  0
  188.5420  175.9110  142.8610 C   0  0  0  0  0  0  0  0  0  0  0  0
  187.2020  178.2390  142.0590 C   0  0  0  0  0  3  0  0  0  0  0  0
  188.5080  173.5070  141.1220 C   0  0  0  0  0  3  0  0  0  0  0  0
  191.4410  175.9470  143.1900 C   0  0  2  0  0  3  0  0  0  0  0  0
  185.1380  177.0500  142.1370 F   0  0  0  0  0  0  0  0  0  0  0  0
  191.6130  173.0490  143.1330 N   0  0  0  0  0  2  0  0  0  0  0  0
  187.7940  172.4450  139.1120 F   0  0  0  0  0  0  0  0  0  0  0  0
  190.6730  177.1430  142.8540 N   0  0  0  0  0  2  0  0  0  0  0  0
  190.5780  174.9720  144.0070 C   0  0  2  0  0  3  0  0  0  0  0  0
  187.1500  175.9040  142.6990 C   0  0  0  0  0  3  0  0  0  0  0  0
  189.9090  171.8540  140.0400 C   0  0  0  0  0  3  0  0  0  0  0  0
  189.2630  177.0970  142.6220 C   0  0  0  0  0  0  0  0  0  0  0  0
  188.5890  178.2570  142.2270 C   0  0  0  0  0  3  0  0  0  0  0  0
  191.3140  173.7420  144.3230 N   0  0  0  0  0  2  0  0  0  0  0  0
  190.6400  172.9010  142.0960 C   0  0  0  0  0  0  0  0  0  0  0  0
  190.8650  172.0050  141.0480 C   0  0  0  0  0  3  0  0  0  0  0  0
  194.1310  175.4700  142.3760 O   0  0  0  0  0  0  0  0  0  0  0  0
  193.9490  176.0620  143.4760 C   0  0  0  0  0  0  0  0  0  0  0  0
  192.6270  176.3230  143.9460 N   0  0  0  0  0  2  0  0  0  0  0  0
  196.1810  174.0640  145.4010 C   0  0  0  0  0  0  0  0  0  0  0  0
  196.4250  175.8760  143.8010 C   0  0  0  0  0  2  0  0  0  0  0  0
  194.2690  176.9310  146.5040 O   0  0  0  0  0  0  0  0  0  0  0  0
  196.4520  172.6620  145.8120 C   0  0  0  0  0  1  0  0  0  0  0  0
  196.5900  174.4880  144.2420 N   0  0  0  0  0  0  0  0  0  0  0  0
  194.9120  176.1550  145.7510 C   0  0  0  0  0  0  0  0  0  0  0  0
  195.1160  176.4960  144.3060 C   0  0  2  0  0  3  0  0  0  0  0  0
  195.4130  174.9170  146.2550 N   0  0  0  0  0  2  0  0  0  0  0  0
  1 14  1  0  0  0  0
  2  3  1  6  0  0  0
  2 13  1  0  0  0  0
  4  7  1  0  0  0  0
  5  2  1  0  0  0  0
  6 17  1  0  0  0  0
  6  1  2  0  0  0  0
  7  3  2  0  0  0  0
  8 23  1  1  0  0  0
  8 13  1  0  0  0  0
  9  1  1  0  0  0  0
 10 18  1  0  0  0  0
 11  4  1  0  0  0  0
 12  8  1  0  0  0  0
 13 18  1  6  0  0  0
 14  5  2  0  0  0  0
 15  4  2  0  0  0  0
 15 20  1  0  0  0  0
 16 12  1  0  0  0  0
 16  5  1  0  0  0  0
 17 16  2  0  0  0  0
 19  3  1  0  0  0  0
 19 10  1  0  0  0  0
 20 19  2  0  0  0  0
 21 22  2  0  0  0  0
 22 23  1  0  0  0  0
 24 27  1  0  0  0  0
 24 31  1  0  0  0  0
 25 28  1  0  0  0  0
 25 30  1  0  0  0  0
 28 24  2  0  0  0  0
 29 31  1  0  0  0  0
 29 26  2  0  0  0  0
 30 22  1  6  0  0  0
 30 29  1  0  0  0  0
M  END
>  <MODEL>
7

>  <REMARK>
 VINA RESULT:      -7.9      3.084      4.298
  Name = 
  2 active torsions:
  status: ('A' for Active; 'I' for Inactive)
    1  A    between atoms: C_5  and  C_30
    2  A    between atoms: C_10  and  N_16
                            x       y       z     vdW  Elec       q    Type
                         _______ _______ _______ _____ _____    ______ ____

>  <TORSDO>
F 2

$$$$
=
 OpenBabel11112417073D

 31 35  0  0  1  0  0  0  0  0999 V2000
  185.7840  179.1430  143.4210 C   0  0  0  0  0  0  0  0  0  0  0  0
  188.8800  176.9290  143.4460 C   0  0  2  0  0  3  0  0  0  0  0  0
  188.8760  176.1210  144.7300 C   0  0  0  0  0  0  0  0  0  0  0  0
  188.1260  175.7530  147.0120 C   0  0  0  0  0  0  0  0  0  0  0  0
  187.5200  177.4790  143.0910 C   0  0  0  0  0  0  0  0  0  0  0  0
  184.9830  178.5000  142.4730 C   0  0  0  0  0  3  0  0  0  0  0  0
  188.0960  176.5020  145.8330 C   0  0  0  0  0  3  0  0  0  0  0  0
  188.4760  175.0680  141.7550 C   0  0  2  0  0  3  0  0  0  0  0  0
  185.3340  180.2580  144.0440 F   0  0  0  0  0  0  0  0  0  0  0  0
  190.5510  174.6360  143.7400 N   0  0  0  0  0  2  0  0  0  0  0  0
  187.3600  176.1210  148.0670 F   0  0  0  0  0  0  0  0  0  0  0  0
  187.2010  175.6970  141.4220 N   0  0  0  0  0  2  0  0  0  0  0  0
  189.4720  176.1190  142.2680 C   0  0  2  0  0  3  0  0  0  0  0  0
  187.0490  178.6350  143.7280 C   0  0  0  0  0  3  0  0  0  0  0  0
  188.9440  174.6230  147.1030 C   0  0  0  0  0  3  0  0  0  0  0  0
  186.7090  176.8350  142.1350 C   0  0  0  0  0  0  0  0  0  0  0  0
  185.4470  177.3520  141.8270 C   0  0  0  0  0  3  0  0  0  0  0  0
  190.7500  175.5060  142.6490 N   0  0  0  0  0  2  0  0  0  0  0  0
  189.7260  175.0090  144.8460 C   0  0  0  0  0  0  0  0  0  0  0  0
  189.7440  174.2520  146.0200 C   0  0  0  0  0  3  0  0  0  0  0  0
  189.0820  172.2880  141.5790 O   0  0  0  0  0  0  0  0  0  0  0  0
  189.2860  172.9970  140.5550 C   0  0  0  0  0  0  0  0  0  0  0  0
  189.0130  174.3980  140.5790 N   0  0  0  0  0  2  0  0  0  0  0  0
  192.4490  173.5030  138.9980 C   0  0  0  0  0  0  0  0  0  0  0  0
  191.0940  171.5690  139.5740 C   0  0  0  0  0  2  0  0  0  0  0  0
  189.1710  173.8200  137.5000 O   0  0  0  0  0  0  0  0  0  0  0  0
  193.7140  174.2730  139.1210 C   0  0  0  0  0  1  0  0  0  0  0  0
  192.2820  172.4200  139.6980 N   0  0  0  0  0  0  0  0  0  0  0  0
  190.0940  173.4220  138.2570 C   0  0  0  0  0  0  0  0  0  0  0  0
  189.8220  172.3810  139.3010 C   0  0  2  0  0  3  0  0  0  0  0  0
  191.3980  173.9950  138.1620 N   0  0  0  0  0  2  0  0  0  0  0  0
  1 14  1  0  0  0  0
  1  9  1  0  0  0  0
  2  5  1  6  0  0  0
  2  3  1  0  0  0  0
  3 19  2  0  0  0  0
  3  7  1  0  0  0  0
  4 15  1  0  0  0  0
  4 11  1  0  0  0  0
  5 14  2  0  0  0  0
  6  1  2  0  0  0  0
  7  4  2  0  0  0  0
  8 23  1  6  0  0  0
  8 13  1  0  0  0  0
 10 19  1  0  0  0  0
 12  8  1  0  0  0  0
 12 16  1  0  0  0  0
 13 18  1  1  0  0  0
 13  2  1  0  0  0  0
 16  5  1  0  0  0  0
 17 16  2  0  0  0  0
 17  6  1  0  0  0  0
 18 10  1  0  0  0  0
 19 20  1  0  0  0  0
 20 15  2  0  0  0  0
 22 23  1  0  0  0  0
 22 21  2  0  0  0  0
 24 27  1  0  0  0  0
 24 28  2  0  0  0  0
 25 28  1  0  0  0  0
 26 29  2  0  0  0  0
 29 30  1  0  0  0  0
 30 25  1  0  0  0  0
 30 22  1  1  0  0  0
 31 29  1  0  0  0  0
 31 24  1  0  0  0  0
M  END
>  <MODEL>
8

>  <REMARK>
 VINA RESULT:      -7.9      3.692      5.866
  Name = 
  2 active torsions:
  status: ('A' for Active; 'I' for Inactive)
    1  A    between atoms: C_5  and  C_30
    2  A    between atoms: C_10  and  N_16
                            x       y       z     vdW  Elec       q    Type
                         _______ _______ _______ _____ _____    ______ ____

>  <TORSDO>
F 2

$$$$
=
 OpenBabel11112417073D

 31 35  0  0  1  0  0  0  0  0999 V2000
  186.4410  178.6930  142.7030 C   0  0  0  0  0  0  0  0  0  0  0  0
  189.5980  176.7740  143.6180 C   0  0  2  0  0  3  0  0  0  0  0  0
  189.3420  176.0300  144.9160 C   0  0  0  0  0  0  0  0  0  0  0  0
  188.0860  175.7010  146.9710 C   0  0  0  0  0  0  0  0  0  0  0  0
  188.3270  177.1810  142.9120 C   0  0  0  0  0  0  0  0  0  0  0  0
  185.9480  177.9370  141.6360 C   0  0  0  0  0  3  0  0  0  0  0  0
  188.2880  176.3880  145.7710 C   0  0  0  0  0  3  0  0  0  0  0  0
  189.7640  174.8070  142.0090 C   0  0  2  0  0  3  0  0  0  0  0  0
  185.7670  179.7900  143.1240 F   0  0  0  0  0  0  0  0  0  0  0  0
  191.3170  174.6590  144.4580 N   0  0  0  0  0  2  0  0  0  0  0  0
  187.0590  176.0450  147.7840 F   0  0  0  0  0  0  0  0  0  0  0  0
  188.5650  175.3020  141.3380 N   0  0  0  0  0  2  0  0  0  0  0  0
  190.5200  175.9680  142.6740 C   0  0  2  0  0  3  0  0  0  0  0  0
  187.6270  178.3180  143.3380 C   0  0  0  0  0  3  0  0  0  0  0  0
  188.9420  174.6550  147.3310 C   0  0  0  0  0  3  0  0  0  0  0  0
  187.8270  176.4220  141.8350 C   0  0  0  0  0  0  0  0  0  0  0  0
  186.6430  176.8070  141.1990 C   0  0  0  0  0  3  0  0  0  0  0  0
  191.7090  175.4920  143.3910 N   0  0  0  0  0  2  0  0  0  0  0  0
  190.2200  175.0060  145.3060 C   0  0  0  0  0  0  0  0  0  0  0  0
  190.0090  174.3090  146.4980 C   0  0  0  0  0  3  0  0  0  0  0  0
  189.5260  172.0810  141.2140 O   0  0  0  0  0  0  0  0  0  0  0  0
  190.4430  172.7660  140.6830 C   0  0  0  0  0  0  0  0  0  0  0  0
  190.6230  174.1360  141.0440 N   0  0  0  0  0  2  0  0  0  0  0  0
  190.3100  172.9950  137.1320 C   0  0  0  0  0  0  0  0  0  0  0  0
  192.0470  173.2270  138.8160 C   0  0  0  0  0  2  0  0  0  0  0  0
  190.4600  169.9970  139.1500 O   0  0  0  0  0  0  0  0  0  0  0  0
  189.5130  173.5670  136.0160 C   0  0  0  0  0  1  0  0  0  0  0  0
  191.1730  173.7410  137.7580 N   0  0  0  0  0  0  0  0  0  0  0  0
  190.6270  171.1890  138.7880 C   0  0  0  0  0  0  0  0  0  0  0  0
  191.3590  172.1540  139.6700 C   0  0  2  0  0  3  0  0  0  0  0  0
  190.0760  171.6490  137.5530 N   0  0  0  0  0  2  0  0  0  0  0  0
  1  9  1  0  0  0  0
  1 14  1  0  0  0  0
  2  5  1  6  0  0  0
  2  3  1  0  0  0  0
  3 19  2  0  0  0  0
  3  7  1  0  0  0  0
  4 15  1  0  0  0  0
  4 11  1  0  0  0  0
  5 14  2  0  0  0  0
  6  1  2  0  0  0  0
  7  4  2  0  0  0  0
  8 23  1  6  0  0  0
  8 13  1  0  0  0  0
 10 19  1  0  0  0  0
 12 16  1  0  0  0  0
 12  8  1  0  0  0  0
 13 18  1  1  0  0  0
 13  2  1  0  0  0  0
 16  5  1  0  0  0  0
 17  6  1  0  0  0  0
 17 16  2  0  0  0  0
 18 10  1  0  0  0  0
 19 20  1  0  0  0  0
 20 15  2  0  0  0  0
 22 23  1  0  0  0  0
 22 21  2  0  0  0  0
 24 31  1  0  0  0  0
 24 28  2  0  0  0  0
 25 30  1  0  0  0  0
 27 24  1  0  0  0  0
 28 25  1  0  0  0  0
 29 26  2  0  0  0  0
 29 30  1  0  0  0  0
 30 22  1  1  0  0  0
 31 29  1  0  0  0  0
M  END
>  <MODEL>
9

>  <REMARK>
 VINA RESULT:      -7.6      3.944      6.320
  Name = 
  2 active torsions:
  status: ('A' for Active; 'I' for Inactive)
    1  A    between atoms: C_5  and  C_30
    2  A    between atoms: C_10  and  N_16
                            x       y       z     vdW  Elec       q    Type
                         _______ _______ _______ _____ _____    ______ ____

>  <TORSDO>
F 2

$$$$
