=
 OpenBabel11112416203D

 30 35  0  0  1  0  0  0  0  0999 V2000
  186.2280  177.2650  143.5000 C   0  0  0  0  0  0  0  0  0  0  0  0
  184.5630  178.3410  144.9920 C   0  0  0  0  0  0  0  0  0  0  0  0
  188.4500  175.9530  146.7040 N   0  0  0  0  0  2  0  0  0  0  0  0
  187.3990  176.4790  143.3340 C   0  0  0  0  0  0  0  0  0  0  0  0
  185.5300  177.7020  142.3670 O   0  0  0  0  0  0  0  0  0  0  0  0
  187.4120  176.2380  139.7010 O   0  0  0  0  0  0  0  0  0  0  0  0
  190.0490  175.2260  142.2060 C   0  0  1  0  0  3  0  0  0  0  0  0
  187.1020  176.6060  140.8670 C   0  0  0  0  0  0  0  0  0  0  0  0
  190.3530  175.0990  143.6910 C   0  0  2  0  0  3  0  0  0  0  0  0
  189.4430  175.3780  145.9940 C   0  0  0  0  0  0  0  0  0  0  0  0
  186.1110  177.7180  141.0610 C   0  0  1  0  0  3  0  0  0  0  0  0
  187.7430  176.0180  142.0110 N   0  0  0  0  0  0  0  0  0  0  0  0
  184.1200  178.6310  146.2860 C   0  0  0  0  0  3  0  0  0  0  0  0
  190.8840  173.6930  143.8770 C   0  0  0  0  0  2  0  0  0  0  0  0
  191.0180  174.2800  141.5150 C   0  0  0  0  0  2  0  0  0  0  0  0
  183.8310  178.8010  143.9470 F   0  0  0  0  0  0  0  0  0  0  0  0
  187.6250  176.4060  145.7450 C   0  0  0  0  0  0  0  0  0  0  0  0
  184.8330  178.1840  147.3980 C   0  0  0  0  0  3  0  0  0  0  0  0
  185.7420  177.5850  144.7970 C   0  0  0  0  0  0  0  0  0  0  0  0
  188.1060  176.0970  144.4960 C   0  0  0  0  0  0  0  0  0  0  0  0
  190.4560  174.8730  146.5480 O   0  0  0  0  0  0  0  0  0  0  0  0
  189.2770  175.4270  144.6440 N   0  0  0  0  0  0  0  0  0  0  0  0
  191.6120  173.3770  142.5860 C   0  0  0  0  0  2  0  0  0  0  0  0
  188.0560  173.5940  142.3800 C   0  0  0  0  0  1  0  0  0  0  0  0
  185.9990  177.4390  147.2270 C   0  0  0  0  0  3  0  0  0  0  0  0
  186.4560  177.1360  145.9390 C   0  0  0  0  0  0  0  0  0  0  0  0
  188.6250  174.8830  141.7930 C   0  0  2  0  0  3  0  0  0  0  0  0
  185.1270  177.7720  140.0480 O   0  0  0  0  0  0  0  0  0  0  0  0
  182.7560  177.8210  140.2800 C   0  0  0  0  0  1  0  0  0  0  0  0
  184.0580  178.5600  140.5040 C   0  0  0  0  0  2  0  0  0  0  0  0
  1 19  1  0  0  0  0
  2 13  1  0  0  0  0
  4  1  2  0  0  0  0
  4 20  1  0  0  0  0
  5  1  1  0  0  0  0
  6  8  2  0  0  0  0
  7 15  1  6  0  0  0
  7  9  1  0  0  0  0
  8 11  1  0  0  0  0
  8 12  1  0  0  0  0
  9 14  1  6  0  0  0
  9 22  1  0  0  0  0
 10 21  2  0  0  0  0
 10  3  1  0  0  0  0
 11 28  1  6  0  0  0
 11  5  1  0  0  0  0
 12  4  1  0  0  0  0
 13 18  2  0  0  0  0
 15 23  1  0  0  0  0
 16  2  1  0  0  0  0
 17 26  1  0  0  0  0
 17  3  1  0  0  0  0
 19  2  2  0  0  0  0
 19 26  1  0  0  0  0
 20 22  1  0  0  0  0
 20 17  2  0  0  0  0
 22 10  1  0  0  0  0
 23 14  1  0  0  0  0
 25 18  1  0  0  0  0
 26 25  2  0  0  0  0
 27 12  1  0  0  0  0
 27  7  1  0  0  0  0
 27 24  1  1  0  0  0
 28 30  1  0  0  0  0
 29 30  1  0  0  0  0
M  END
>  <MODEL>
1

>  <REMARK>
 VINA RESULT:      -8.9      0.000      0.000
  Name = 
  2 active torsions:
  status: ('A' for Active; 'I' for Inactive)
    1  A    between atoms: C_11  and  O_28
    2  A    between atoms: O_28  and  C_30
                            x       y       z     vdW  Elec       q    Type
                         _______ _______ _______ _____ _____    ______ ____

>  <TORSDO>
F 2

$$$$
=
 OpenBabel11112416203D

 30 35  0  0  1  0  0  0  0  0999 V2000
  189.4680  175.5290  144.0290 C   0  0  0  0  0  0  0  0  0  0  0  0
  191.4750  174.8510  145.3190 C   0  0  0  0  0  0  0  0  0  0  0  0
  187.9020  177.5340  147.2620 N   0  0  0  0  0  2  0  0  0  0  0  0
  188.2420  176.2420  143.9520 C   0  0  0  0  0  0  0  0  0  0  0  0
  189.9340  174.8450  142.9000 O   0  0  0  0  0  0  0  0  0  0  0  0
  187.4410  175.6220  140.4550 O   0  0  0  0  0  0  0  0  0  0  0  0
  185.3400  177.1680  143.1840 C   0  0  1  0  0  3  0  0  0  0  0  0
  188.0140  175.5420  141.5760 C   0  0  0  0  0  0  0  0  0  0  0  0
  185.3520  177.6370  144.6320 C   0  0  2  0  0  3  0  0  0  0  0  0
  186.7470  177.9160  146.6770 C   0  0  0  0  0  0  0  0  0  0  0  0
  189.0910  174.5170  141.7930 C   0  0  1  0  0  3  0  0  0  0  0  0
  187.5970  176.3760  142.6690 N   0  0  0  0  0  0  0  0  0  0  0  0
  192.2000  174.8770  146.5150 C   0  0  0  0  0  3  0  0  0  0  0  0
  184.7870  179.0420  144.6060 C   0  0  0  0  0  2  0  0  0  0  0  0
  184.1900  177.9160  142.5280 C   0  0  0  0  0  2  0  0  0  0  0  0
  191.9940  174.1650  144.2710 F   0  0  0  0  0  0  0  0  0  0  0  0
  188.5300  176.8770  146.2720 C   0  0  0  0  0  0  0  0  0  0  0  0
  191.7140  175.5660  147.6260 C   0  0  0  0  0  3  0  0  0  0  0  0
  190.2370  175.5270  145.2240 C   0  0  0  0  0  0  0  0  0  0  0  0
  187.7760  176.8790  145.1240 C   0  0  0  0  0  0  0  0  0  0  0  0
  185.8460  178.5270  147.3120 O   0  0  0  0  0  0  0  0  0  0  0  0
  186.6250  177.5540  145.3720 N   0  0  0  0  0  0  0  0  0  0  0  0
  183.7840  179.0390  143.4710 C   0  0  0  0  0  2  0  0  0  0  0  0
  187.2210  178.8150  142.5380 C   0  0  0  0  0  1  0  0  0  0  0  0
  190.4940  176.2380  147.5520 C   0  0  0  0  0  3  0  0  0  0  0  0
  189.7560  176.2250  146.3630 C   0  0  0  0  0  0  0  0  0  0  0  0
  186.6210  177.4190  142.4000 C   0  0  2  0  0  3  0  0  0  0  0  0
  189.8380  174.2360  140.6270 O   0  0  0  0  0  0  0  0  0  0  0  0
  188.6360  172.6510  139.3140 C   0  0  0  0  0  1  0  0  0  0  0  0
  189.7260  172.8660  140.3420 C   0  0  0  0  0  2  0  0  0  0  0  0
  1 19  1  0  0  0  0
  2 13  1  0  0  0  0
  4  1  2  0  0  0  0
  4 20  1  0  0  0  0
  5  1  1  0  0  0  0
  6  8  2  0  0  0  0
  7 15  1  6  0  0  0
  7  9  1  0  0  0  0
  8 11  1  0  0  0  0
  8 12  1  0  0  0  0
  9 14  1  6  0  0  0
  9 22  1  0  0  0  0
 10  3  1  0  0  0  0
 10 21  2  0  0  0  0
 11 28  1  6  0  0  0
 11  5  1  0  0  0  0
 12  4  1  0  0  0  0
 13 18  2  0  0  0  0
 15 23  1  0  0  0  0
 16  2  1  0  0  0  0
 17 26  1  0  0  0  0
 17  3  1  0  0  0  0
 19  2  2  0  0  0  0
 19 26  1  0  0  0  0
 20 22  1  0  0  0  0
 20 17  2  0  0  0  0
 22 10  1  0  0  0  0
 23 14  1  0  0  0  0
 25 18  1  0  0  0  0
 26 25  2  0  0  0  0
 27 24  1  1  0  0  0
 27 12  1  0  0  0  0
 27  7  1  0  0  0  0
 29 30  1  0  0  0  0
 30 28  1  0  0  0  0
M  END
>  <MODEL>
2

>  <REMARK>
 VINA RESULT:      -8.1      2.665      5.642
  Name = 
  2 active torsions:
  status: ('A' for Active; 'I' for Inactive)
    1  A    between atoms: C_11  and  O_28
    2  A    between atoms: O_28  and  C_30
                            x       y       z     vdW  Elec       q    Type
                         _______ _______ _______ _____ _____    ______ ____

>  <TORSDO>
F 2

$$$$
=
 OpenBabel11112416203D

 30 35  0  0  1  0  0  0  0  0999 V2000
  187.4630  177.1120  144.2820 C   0  0  0  0  0  0  0  0  0  0  0  0
  185.3600  178.1250  145.1210 C   0  0  0  0  0  0  0  0  0  0  0  0
  189.2750  177.5050  147.9540 N   0  0  0  0  0  2  0  0  0  0  0  0
  188.7840  176.6500  144.5240 C   0  0  0  0  0  0  0  0  0  0  0  0
  186.9120  176.9710  143.0020 O   0  0  0  0  0  0  0  0  0  0  0  0
  189.5250  175.2910  141.2280 O   0  0  0  0  0  0  0  0  0  0  0  0
  191.8020  175.8480  144.1870 C   0  0  1  0  0  3  0  0  0  0  0  0
  188.9320  175.9120  142.1530 C   0  0  0  0  0  0  0  0  0  0  0  0
  191.8440  176.2790  145.6460 C   0  0  2  0  0  3  0  0  0  0  0  0
  190.4830  177.0180  147.5970 C   0  0  0  0  0  0  0  0  0  0  0  0
  187.7090  176.7280  141.8410 C   0  0  1  0  0  3  0  0  0  0  0  0
  189.4580  175.9030  143.4900 N   0  0  0  0  0  0  0  0  0  0  0  0
  184.6320  178.6800  146.1790 C   0  0  0  0  0  3  0  0  0  0  0  0
  192.6170  175.1930  146.3670 C   0  0  0  0  0  2  0  0  0  0  0  0
  193.0610  175.0210  143.9760 C   0  0  0  0  0  2  0  0  0  0  0  0
  184.7550  178.0240  143.9120 F   0  0  0  0  0  0  0  0  0  0  0  0
  188.5670  177.4000  146.8170 C   0  0  0  0  0  0  0  0  0  0  0  0
  185.2040  178.8090  147.4450 C   0  0  0  0  0  3  0  0  0  0  0  0
  186.6870  177.6840  145.3270 C   0  0  0  0  0  0  0  0  0  0  0  0
  189.3270  176.8520  145.8130 C   0  0  0  0  0  0  0  0  0  0  0  0
  191.4580  176.9980  148.3950 O   0  0  0  0  0  0  0  0  0  0  0  0
  190.5640  176.5940  146.3070 N   0  0  0  0  0  0  0  0  0  0  0  0
  193.6220  174.6900  145.3510 C   0  0  0  0  0  2  0  0  0  0  0  0
  190.2030  173.8910  144.7160 C   0  0  0  0  0  1  0  0  0  0  0  0
  186.5120  178.3820  147.6670 C   0  0  0  0  0  3  0  0  0  0  0  0
  187.2550  177.8210  146.6210 C   0  0  0  0  0  0  0  0  0  0  0  0
  190.5850  175.0310  143.7760 C   0  0  2  0  0  3  0  0  0  0  0  0
  186.9430  176.2000  140.7780 O   0  0  0  0  0  0  0  0  0  0  0  0
  185.4490  177.9940  140.2970 C   0  0  0  0  0  1  0  0  0  0  0  0
  186.6820  177.2310  139.8600 C   0  0  0  0  0  2  0  0  0  0  0  0
  1  4  2  0  0  0  0
  1 19  1  0  0  0  0
  2 19  2  0  0  0  0
  2 13  1  0  0  0  0
  4 20  1  0  0  0  0
  5  1  1  0  0  0  0
  6  8  2  0  0  0  0
  7 15  1  1  0  0  0
  7  9  1  0  0  0  0
  8 12  1  0  0  0  0
  9 22  1  0  0  0  0
  9 14  1  1  0  0  0
 10  3  1  0  0  0  0
 10 21  2  0  0  0  0
 11 28  1  6  0  0  0
 11  8  1  0  0  0  0
 11  5  1  0  0  0  0
 12 27  1  0  0  0  0
 12  4  1  0  0  0  0
 13 18  2  0  0  0  0
 15 23  1  0  0  0  0
 16  2  1  0  0  0  0
 17  3  1  0  0  0  0
 18 25  1  0  0  0  0
 19 26  1  0  0  0  0
 20 22  1  0  0  0  0
 20 17  2  0  0  0  0
 22 10  1  0  0  0  0
 23 14  1  0  0  0  0
 26 17  1  0  0  0  0
 26 25  2  0  0  0  0
 27  7  1  0  0  0  0
 27 24  1  1  0  0  0
 30 29  1  0  0  0  0
 30 28  1  0  0  0  0
M  END
>  <MODEL>
3

>  <REMARK>
 VINA RESULT:      -8.1      1.787      2.320
  Name = 
  2 active torsions:
  status: ('A' for Active; 'I' for Inactive)
    1  A    between atoms: C_11  and  O_28
    2  A    between atoms: O_28  and  C_30
                            x       y       z     vdW  Elec       q    Type
                         _______ _______ _______ _____ _____    ______ ____

>  <TORSDO>
F 2

$$$$
=
 OpenBabel11112416203D

 30 35  0  0  1  0  0  0  0  0999 V2000
  187.5490  176.3300  143.4410 C   0  0  0  0  0  0  0  0  0  0  0  0
  185.3710  177.4920  143.6830 C   0  0  0  0  0  0  0  0  0  0  0  0
  188.7920  177.6010  147.1510 N   0  0  0  0  0  2  0  0  0  0  0  0
  188.8060  175.9520  143.9860 C   0  0  0  0  0  0  0  0  0  0  0  0
  187.1970  175.8850  142.1610 O   0  0  0  0  0  0  0  0  0  0  0  0
  190.0020  173.8590  141.2580 O   0  0  0  0  0  0  0  0  0  0  0  0
  191.8170  175.1230  144.3170 C   0  0  1  0  0  3  0  0  0  0  0  0
  189.2930  174.6750  141.9080 C   0  0  0  0  0  0  0  0  0  0  0  0
  191.6480  175.8880  145.6220 C   0  0  2  0  0  3  0  0  0  0  0  0
  190.0260  177.0550  147.1100 C   0  0  0  0  0  0  0  0  0  0  0  0
  188.1540  175.3810  141.2270 C   0  0  1  0  0  3  0  0  0  0  0  0
  189.6090  174.9890  143.2740 N   0  0  0  0  0  0  0  0  0  0  0  0
  184.5060  178.2750  144.4540 C   0  0  0  0  0  3  0  0  0  0  0  0
  192.2720  175.0120  146.6880 C   0  0  0  0  0  2  0  0  0  0  0  0
  193.0710  174.2830  144.5040 C   0  0  0  0  0  2  0  0  0  0  0  0
  184.9550  177.1020  142.4530 F   0  0  0  0  0  0  0  0  0  0  0  0
  188.2620  177.2230  145.9760 C   0  0  0  0  0  0  0  0  0  0  0  0
  184.8820  178.7060  145.7270 C   0  0  0  0  0  3  0  0  0  0  0  0
  186.6400  177.1260  144.1890 C   0  0  0  0  0  0  0  0  0  0  0  0
  189.1510  176.4600  145.2590 C   0  0  0  0  0  0  0  0  0  0  0  0
  190.8670  177.2340  148.0300 O   0  0  0  0  0  0  0  0  0  0  0  0
  190.2920  176.3390  145.9840 N   0  0  0  0  0  0  0  0  0  0  0  0
  193.4070  174.2930  145.9880 C   0  0  0  0  0  2  0  0  0  0  0  0
  190.1040  173.3320  145.0390 C   0  0  0  0  0  1  0  0  0  0  0  0
  186.1290  178.3570  146.2420 C   0  0  0  0  0  3  0  0  0  0  0  0
  187.0070  177.5710  145.4860 C   0  0  0  0  0  0  0  0  0  0  0  0
  190.6550  174.2200  143.9280 C   0  0  2  0  0  3  0  0  0  0  0  0
  187.5450  174.6090  140.2130 O   0  0  0  0  0  0  0  0  0  0  0  0
  188.1870  174.1790  137.9580 C   0  0  0  0  0  1  0  0  0  0  0  0
  187.7850  175.2270  138.9750 C   0  0  0  0  0  2  0  0  0  0  0  0
  1  4  2  0  0  0  0
  1 19  1  0  0  0  0
  2 19  2  0  0  0  0
  2 13  1  0  0  0  0
  4 20  1  0  0  0  0
  5  1  1  0  0  0  0
  6  8  2  0  0  0  0
  7 15  1  1  0  0  0
  7  9  1  0  0  0  0
  8 12  1  0  0  0  0
  9 22  1  0  0  0  0
  9 14  1  1  0  0  0
 10  3  1  0  0  0  0
 10 21  2  0  0  0  0
 11 28  1  6  0  0  0
 11  8  1  0  0  0  0
 11  5  1  0  0  0  0
 12 27  1  0  0  0  0
 12  4  1  0  0  0  0
 13 18  2  0  0  0  0
 15 23  1  0  0  0  0
 16  2  1  0  0  0  0
 17  3  1  0  0  0  0
 18 25  1  0  0  0  0
 19 26  1  0  0  0  0
 20 17  2  0  0  0  0
 20 22  1  0  0  0  0
 22 10  1  0  0  0  0
 23 14  1  0  0  0  0
 26 17  1  0  0  0  0
 26 25  2  0  0  0  0
 27  7  1  0  0  0  0
 27 24  1  1  0  0  0
 29 30  1  0  0  0  0
 30 28  1  0  0  0  0
M  END
>  <MODEL>
4

>  <REMARK>
 VINA RESULT:      -7.9      1.986      2.941
  Name = 
  2 active torsions:
  status: ('A' for Active; 'I' for Inactive)
    1  A    between atoms: C_11  and  O_28
    2  A    between atoms: O_28  and  C_30
                            x       y       z     vdW  Elec       q    Type
                         _______ _______ _______ _____ _____    ______ ____

>  <TORSDO>
F 2

$$$$
=
 OpenBabel11112416203D

 30 35  0  0  1  0  0  0  0  0999 V2000
  190.1820  174.9810  143.5270 C   0  0  0  0  0  0  0  0  0  0  0  0
  192.2330  174.2200  144.6980 C   0  0  0  0  0  0  0  0  0  0  0  0
  188.8780  177.0190  146.8550 N   0  0  0  0  0  2  0  0  0  0  0  0
  188.9810  175.7390  143.5250 C   0  0  0  0  0  0  0  0  0  0  0  0
  190.5570  174.2880  142.3700 O   0  0  0  0  0  0  0  0  0  0  0  0
  187.9600  175.1750  140.0750 O   0  0  0  0  0  0  0  0  0  0  0  0
  186.0770  176.7770  142.9280 C   0  0  1  0  0  3  0  0  0  0  0  0
  188.5920  175.0660  141.1620 C   0  0  0  0  0  0  0  0  0  0  0  0
  186.1880  177.2350  144.3750 C   0  0  2  0  0  3  0  0  0  0  0  0
  187.7060  177.4480  146.3390 C   0  0  0  0  0  0  0  0  0  0  0  0
  189.6400  173.9990  141.3120 C   0  0  1  0  0  3  0  0  0  0  0  0
  188.2690  175.9060  142.2810 N   0  0  0  0  0  0  0  0  0  0  0  0
  193.0250  174.2110  145.8500 C   0  0  0  0  0  3  0  0  0  0  0  0
  185.6750  178.6600  144.3890 C   0  0  0  0  0  2  0  0  0  0  0  0
  184.9200  177.5710  142.3440 C   0  0  0  0  0  2  0  0  0  0  0  0
  192.6650  173.5230  143.6180 F   0  0  0  0  0  0  0  0  0  0  0  0
  189.4240  176.3460  145.8280 C   0  0  0  0  0  0  0  0  0  0  0  0
  192.6290  174.9090  146.9910 C   0  0  0  0  0  3  0  0  0  0  0  0
  191.0170  174.9420  144.6770 C   0  0  0  0  0  0  0  0  0  0  0  0
  188.6060  176.3850  144.7250 C   0  0  0  0  0  0  0  0  0  0  0  0
  186.8670  178.0860  147.0280 O   0  0  0  0  0  0  0  0  0  0  0  0
  187.4970  177.0990  145.0410 N   0  0  0  0  0  0  0  0  0  0  0  0
  184.6100  178.7020  143.3140 C   0  0  0  0  0  2  0  0  0  0  0  0
  187.9780  178.3580  142.1850 C   0  0  0  0  0  1  0  0  0  0  0  0
  191.4330  175.6260  146.9900 C   0  0  0  0  0  3  0  0  0  0  0  0
  190.6280  175.6490  145.8450 C   0  0  0  0  0  0  0  0  0  0  0  0
  187.3190  176.9860  142.0740 C   0  0  2  0  0  3  0  0  0  0  0  0
  190.3090  173.7000  140.1030 O   0  0  0  0  0  0  0  0  0  0  0  0
  192.4500  173.8800  139.0710 C   0  0  0  0  0  1  0  0  0  0  0  0
  191.6890  173.6420  140.3580 C   0  0  0  0  0  2  0  0  0  0  0  0
  1 19  1  0  0  0  0
  2 13  1  0  0  0  0
  4  1  2  0  0  0  0
  4 20  1  0  0  0  0
  5  1  1  0  0  0  0
  6  8  2  0  0  0  0
  7 15  1  6  0  0  0
  7  9  1  0  0  0  0
  8 11  1  0  0  0  0
  8 12  1  0  0  0  0
  9 14  1  6  0  0  0
  9 22  1  0  0  0  0
 10  3  1  0  0  0  0
 10 21  2  0  0  0  0
 11 28  1  6  0  0  0
 11  5  1  0  0  0  0
 12  4  1  0  0  0  0
 13 18  2  0  0  0  0
 15 23  1  0  0  0  0
 16  2  1  0  0  0  0
 17 26  1  0  0  0  0
 17  3  1  0  0  0  0
 19  2  2  0  0  0  0
 19 26  1  0  0  0  0
 20 22  1  0  0  0  0
 20 17  2  0  0  0  0
 22 10  1  0  0  0  0
 23 14  1  0  0  0  0
 25 18  1  0  0  0  0
 26 25  2  0  0  0  0
 27 24  1  1  0  0  0
 27 12  1  0  0  0  0
 27  7  1  0  0  0  0
 28 30  1  0  0  0  0
 29 30  1  0  0  0  0
M  END
>  <MODEL>
5

>  <REMARK>
 VINA RESULT:      -7.9      2.794      5.948
  Name = 
  2 active torsions:
  status: ('A' for Active; 'I' for Inactive)
    1  A    between atoms: C_11  and  O_28
    2  A    between atoms: O_28  and  C_30
                            x       y       z     vdW  Elec       q    Type
                         _______ _______ _______ _____ _____    ______ ____

>  <TORSDO>
F 2

$$$$
=
 OpenBabel11112416203D

 30 35  0  0  1  0  0  0  0  0999 V2000
  190.3320  175.6200  144.2590 C   0  0  0  0  0  0  0  0  0  0  0  0
  191.2780  174.3100  142.3770 C   0  0  0  0  0  0  0  0  0  0  0  0
  186.7010  175.9810  142.3580 N   0  0  0  0  0  2  0  0  0  0  0  0
  189.2280  176.2820  144.8600 C   0  0  0  0  0  0  0  0  0  0  0  0
  191.5490  175.5540  144.9480 O   0  0  0  0  0  0  0  0  0  0  0  0
  190.7700  177.1920  148.0310 O   0  0  0  0  0  0  0  0  0  0  0  0
  187.4520  178.2360  146.5620 C   0  0  1  0  0  3  0  0  0  0  0  0
  190.6420  176.7790  146.8460 C   0  0  0  0  0  0  0  0  0  0  0  0
  186.4970  178.0180  145.3980 C   0  0  2  0  0  3  0  0  0  0  0  0
  186.0970  176.7440  143.2950 C   0  0  0  0  0  0  0  0  0  0  0  0
  191.8610  176.4120  146.0480 C   0  0  1  0  0  3  0  0  0  0  0  0
  189.3460  176.7230  146.2290 N   0  0  0  0  0  0  0  0  0  0  0  0
  191.1090  173.7130  141.1240 C   0  0  0  0  0  3  0  0  0  0  0  0
  185.1450  177.7550  146.0270 C   0  0  0  0  0  2  0  0  0  0  0  0
  186.5950  178.7990  147.6850 C   0  0  0  0  0  2  0  0  0  0  0  0
  192.4880  174.2010  142.9790 F   0  0  0  0  0  0  0  0  0  0  0  0
  187.9160  175.7670  142.8900 C   0  0  0  0  0  0  0  0  0  0  0  0
  189.8860  173.7940  140.4580 C   0  0  0  0  0  3  0  0  0  0  0  0
  190.2050  175.0010  142.9860 C   0  0  0  0  0  0  0  0  0  0  0  0
  188.0300  176.3740  144.1170 C   0  0  0  0  0  0  0  0  0  0  0  0
  184.9350  177.2030  143.1350 O   0  0  0  0  0  0  0  0  0  0  0  0
  186.8590  177.0020  144.3920 N   0  0  0  0  0  0  0  0  0  0  0  0
  185.1400  178.5770  147.2990 C   0  0  0  0  0  2  0  0  0  0  0  0
  187.3190  175.7520  147.2550 C   0  0  0  0  0  1  0  0  0  0  0  0
  188.8160  174.4720  141.0410 C   0  0  0  0  0  3  0  0  0  0  0  0
  188.9660  175.0730  142.2960 C   0  0  0  0  0  0  0  0  0  0  0  0
  188.1820  176.9940  147.0570 C   0  0  2  0  0  3  0  0  0  0  0  0
  192.9110  175.8940  146.8380 O   0  0  0  0  0  0  0  0  0  0  0  0
  195.0560  175.3090  145.9810 C   0  0  0  0  0  1  0  0  0  0  0  0
  194.1240  176.4330  146.3810 C   0  0  0  0  0  2  0  0  0  0  0  0
  1  4  1  0  0  0  0
  1  5  1  0  0  0  0
  2 16  1  0  0  0  0
  2 19  1  0  0  0  0
  3 17  1  0  0  0  0
  3 10  1  0  0  0  0
  4 12  1  0  0  0  0
  5 11  1  0  0  0  0
  7 27  1  0  0  0  0
  7 15  1  1  0  0  0
  8  6  2  0  0  0  0
  9 14  1  1  0  0  0
  9  7  1  0  0  0  0
 10 22  1  0  0  0  0
 11 28  1  1  0  0  0
 11  8  1  0  0  0  0
 12  8  1  0  0  0  0
 12 27  1  0  0  0  0
 13  2  2  0  0  0  0
 14 23  1  0  0  0  0
 17 20  1  0  0  0  0
 18 25  2  0  0  0  0
 18 13  1  0  0  0  0
 19  1  2  0  0  0  0
 20 22  1  0  0  0  0
 20  4  2  0  0  0  0
 21 10  2  0  0  0  0
 22  9  1  0  0  0  0
 23 15  1  0  0  0  0
 25 26  1  0  0  0  0
 26 17  2  0  0  0  0
 26 19  1  0  0  0  0
 27 24  1  6  0  0  0
 29 30  1  0  0  0  0
 30 28  1  0  0  0  0
M  END
>  <MODEL>
6

>  <REMARK>
 VINA RESULT:      -7.8      2.642      7.402
  Name = 
  2 active torsions:
  status: ('A' for Active; 'I' for Inactive)
    1  A    between atoms: C_11  and  O_28
    2  A    between atoms: O_28  and  C_30
                            x       y       z     vdW  Elec       q    Type
                         _______ _______ _______ _____ _____    ______ ____

>  <TORSDO>
F 2

$$$$
=
 OpenBabel11112416203D

 30 35  0  0  1  0  0  0  0  0999 V2000
  186.0050  177.1710  144.0720 C   0  0  0  0  0  0  0  0  0  0  0  0
  184.1980  178.3460  142.8440 C   0  0  0  0  0  0  0  0  0  0  0  0
  187.7500  175.9080  140.5670 N   0  0  0  0  0  2  0  0  0  0  0  0
  187.2080  176.4160  144.0580 C   0  0  0  0  0  0  0  0  0  0  0  0
  185.4480  177.5480  145.3000 O   0  0  0  0  0  0  0  0  0  0  0  0
  187.8200  176.2540  147.6440 O   0  0  0  0  0  0  0  0  0  0  0  0
  189.5330  174.4430  144.8090 C   0  0  1  0  0  3  0  0  0  0  0  0
  187.2370  176.4650  146.5450 C   0  0  0  0  0  0  0  0  0  0  0  0
  189.6130  174.3200  143.2940 C   0  0  2  0  0  3  0  0  0  0  0  0
  188.7480  175.1920  141.1260 C   0  0  0  0  0  0  0  0  0  0  0  0
  185.8060  176.9230  146.5350 C   0  0  1  0  0  3  0  0  0  0  0  0
  187.9070  176.2020  145.3010 N   0  0  0  0  0  0  0  0  0  0  0  0
  183.6180  178.7190  141.6270 C   0  0  0  0  0  3  0  0  0  0  0  0
  191.0860  174.4270  142.9560 C   0  0  0  0  0  2  0  0  0  0  0  0
  190.8570  173.9020  145.3260 C   0  0  0  0  0  2  0  0  0  0  0  0
  183.5970  178.7510  143.9900 F   0  0  0  0  0  0  0  0  0  0  0  0
  187.1090  176.4060  141.6370 C   0  0  0  0  0  0  0  0  0  0  0  0
  184.1930  178.3300  140.4170 C   0  0  0  0  0  3  0  0  0  0  0  0
  185.3800  177.5700  142.8590 C   0  0  0  0  0  0  0  0  0  0  0  0
  187.7160  176.0100  142.8030 C   0  0  0  0  0  0  0  0  0  0  0  0
  189.5550  174.5160  140.4340 O   0  0  0  0  0  0  0  0  0  0  0  0
  188.7810  175.2300  142.4860 N   0  0  0  0  0  0  0  0  0  0  0  0
  191.8030  173.8060  144.1370 C   0  0  0  0  0  2  0  0  0  0  0  0
  190.1970  176.9370  144.7340 C   0  0  0  0  0  1  0  0  0  0  0  0
  185.3580  177.5630  140.4120 C   0  0  0  0  0  3  0  0  0  0  0  0
  185.9540  177.1830  141.6200 C   0  0  0  0  0  0  0  0  0  0  0  0
  189.3170  175.8510  145.3460 C   0  0  2  0  0  3  0  0  0  0  0  0
  185.4700  177.7270  147.6480 O   0  0  0  0  0  0  0  0  0  0  0  0
  186.6550  179.6830  148.3160 C   0  0  0  0  0  1  0  0  0  0  0  0
  185.6990  179.0710  147.3150 C   0  0  0  0  0  2  0  0  0  0  0  0
  1  5  1  0  0  0  0
  2 19  1  0  0  0  0
  2 16  1  0  0  0  0
  3 10  1  0  0  0  0
  3 17  1  0  0  0  0
  4  1  1  0  0  0  0
  4 12  1  0  0  0  0
  5 11  1  0  0  0  0
  7 15  1  1  0  0  0
  7 27  1  0  0  0  0
  8  6  2  0  0  0  0
  9 14  1  6  0  0  0
  9  7  1  0  0  0  0
 10 22  1  0  0  0  0
 11  8  1  0  0  0  0
 11 28  1  1  0  0  0
 12 27  1  0  0  0  0
 12  8  1  0  0  0  0
 13  2  2  0  0  0  0
 14 23  1  0  0  0  0
 17 20  1  0  0  0  0
 18 13  1  0  0  0  0
 19  1  2  0  0  0  0
 20  4  2  0  0  0  0
 21 10  2  0  0  0  0
 22 20  1  0  0  0  0
 22  9  1  0  0  0  0
 23 15  1  0  0  0  0
 25 18  2  0  0  0  0
 25 26  1  0  0  0  0
 26 17  2  0  0  0  0
 26 19  1  0  0  0  0
 27 24  1  6  0  0  0
 30 28  1  0  0  0  0
 30 29  1  0  0  0  0
M  END
>  <MODEL>
7

>  <REMARK>
 VINA RESULT:      -7.8      1.787      4.731
  Name = 
  2 active torsions:
  status: ('A' for Active; 'I' for Inactive)
    1  A    between atoms: C_11  and  O_28
    2  A    between atoms: O_28  and  C_30
                            x       y       z     vdW  Elec       q    Type
                         _______ _______ _______ _____ _____    ______ ____

>  <TORSDO>
F 2

$$$$
=
 OpenBabel11112416203D

 30 35  0  0  1  0  0  0  0  0999 V2000
  188.9150  176.2920  145.5700 C   0  0  0  0  0  0  0  0  0  0  0  0
  187.0750  177.7830  146.3080 C   0  0  0  0  0  0  0  0  0  0  0  0
  187.3580  176.0280  141.7710 N   0  0  0  0  0  2  0  0  0  0  0  0
  189.5600  175.5560  144.5400 C   0  0  0  0  0  0  0  0  0  0  0  0
  189.4830  176.3210  146.8490 O   0  0  0  0  0  0  0  0  0  0  0  0
  192.4680  174.4000  146.4020 O   0  0  0  0  0  0  0  0  0  0  0  0
  191.2460  173.4240  142.9660 C   0  0  1  0  0  3  0  0  0  0  0  0
  191.3430  174.9140  146.1510 C   0  0  0  0  0  0  0  0  0  0  0  0
  190.2050  173.7250  141.8960 C   0  0  2  0  0  3  0  0  0  0  0  0
  188.2760  175.1730  141.2730 C   0  0  0  0  0  0  0  0  0  0  0  0
  190.4640  175.3750  147.2800 C   0  0  1  0  0  3  0  0  0  0  0  0
  190.8640  174.9980  144.7990 N   0  0  0  0  0  0  0  0  0  0  0  0
  185.9030  178.4850  146.0070 C   0  0  0  0  0  3  0  0  0  0  0  0
  190.9870  173.9040  140.6110 C   0  0  0  0  0  2  0  0  0  0  0  0
  192.3920  172.7460  142.2320 C   0  0  0  0  0  2  0  0  0  0  0  0
  187.5620  177.8620  147.5710 F   0  0  0  0  0  0  0  0  0  0  0  0
  187.7840  176.2180  143.0310 C   0  0  0  0  0  0  0  0  0  0  0  0
  185.3570  178.4390  144.7240 C   0  0  0  0  0  3  0  0  0  0  0  0
  187.7220  177.0190  145.3090 C   0  0  0  0  0  0  0  0  0  0  0  0
  188.9330  175.5070  143.2740 C   0  0  0  0  0  0  0  0  0  0  0  0
  188.1910  174.7060  140.1060 O   0  0  0  0  0  0  0  0  0  0  0  0
  189.2650  174.8330  142.1440 N   0  0  0  0  0  0  0  0  0  0  0  0
  192.1740  172.9720  140.7430 C   0  0  0  0  0  2  0  0  0  0  0  0
  192.1700  175.8340  142.8740 C   0  0  0  0  0  1  0  0  0  0  0  0
  185.9790  177.6900  143.7270 C   0  0  0  0  0  3  0  0  0  0  0  0
  187.1540  176.9840  144.0080 C   0  0  0  0  0  0  0  0  0  0  0  0
  191.7750  174.6310  143.7270 C   0  0  2  0  0  3  0  0  0  0  0  0
  191.1910  175.8420  148.3980 O   0  0  0  0  0  0  0  0  0  0  0  0
  191.5660  177.9150  149.5130 C   0  0  0  0  0  1  0  0  0  0  0  0
  191.5230  177.1900  148.1840 C   0  0  0  0  0  2  0  0  0  0  0  0
  1  5  1  0  0  0  0
  2 16  1  0  0  0  0
  3 17  1  0  0  0  0
  4 12  1  0  0  0  0
  4  1  2  0  0  0  0
  5 11  1  0  0  0  0
  7 15  1  6  0  0  0
  7 27  1  0  0  0  0
  8  6  2  0  0  0  0
  8 11  1  0  0  0  0
  9 14  1  6  0  0  0
  9 22  1  0  0  0  0
  9  7  1  0  0  0  0
 10  3  1  0  0  0  0
 10 22  1  0  0  0  0
 11 28  1  1  0  0  0
 12  8  1  0  0  0  0
 13  2  1  0  0  0  0
 14 23  1  0  0  0  0
 17 20  2  0  0  0  0
 17 26  1  0  0  0  0
 18 13  2  0  0  0  0
 19  1  1  0  0  0  0
 19  2  2  0  0  0  0
 20  4  1  0  0  0  0
 21 10  2  0  0  0  0
 22 20  1  0  0  0  0
 23 15  1  0  0  0  0
 25 26  2  0  0  0  0
 25 18  1  0  0  0  0
 26 19  1  0  0  0  0
 27 24  1  6  0  0  0
 27 12  1  0  0  0  0
 30 28  1  0  0  0  0
 30 29  1  0  0  0  0
M  END
>  <MODEL>
8

>  <REMARK>
 VINA RESULT:      -7.8      2.316      5.469
  Name = 
  2 active torsions:
  status: ('A' for Active; 'I' for Inactive)
    1  A    between atoms: C_11  and  O_28
    2  A    between atoms: O_28  and  C_30
                            x       y       z     vdW  Elec       q    Type
                         _______ _______ _______ _____ _____    ______ ____

>  <TORSDO>
F 2

$$$$
=
 OpenBabel11112416203D

 30 35  0  0  1  0  0  0  0  0999 V2000
  188.3900  176.1300  143.9420 C   0  0  0  0  0  0  0  0  0  0  0  0
  186.0550  176.7520  144.5040 C   0  0  0  0  0  0  0  0  0  0  0  0
  189.7200  177.2120  147.6820 N   0  0  0  0  0  2  0  0  0  0  0  0
  189.7470  175.9770  144.3340 C   0  0  0  0  0  0  0  0  0  0  0  0
  188.0070  175.7670  142.6450 O   0  0  0  0  0  0  0  0  0  0  0  0
  191.0630  174.5200  141.2670 O   0  0  0  0  0  0  0  0  0  0  0  0
  192.8830  175.7950  144.3190 C   0  0  1  0  0  3  0  0  0  0  0  0
  190.2710  175.0820  142.0720 C   0  0  0  0  0  0  0  0  0  0  0  0
  192.6950  176.3510  145.7230 C   0  0  2  0  0  3  0  0  0  0  0  0
  191.0290  176.9570  147.4740 C   0  0  0  0  0  0  0  0  0  0  0  0
  188.9460  175.5940  141.5820 C   0  0  1  0  0  3  0  0  0  0  0  0
  190.6540  175.3000  143.4400 N   0  0  0  0  0  0  0  0  0  0  0  0
  185.1320  177.2340  145.4360 C   0  0  0  0  0  3  0  0  0  0  0  0
  193.5940  175.5170  146.6120 C   0  0  0  0  0  2  0  0  0  0  0  0
  194.2950  175.2330  144.2950 C   0  0  0  0  0  2  0  0  0  0  0  0
  185.6040  176.4230  143.2680 F   0  0  0  0  0  0  0  0  0  0  0  0
  189.1610  176.8630  146.5110 C   0  0  0  0  0  0  0  0  0  0  0  0
  185.5390  177.5900  146.7220 C   0  0  0  0  0  3  0  0  0  0  0  0
  187.4170  176.6170  144.8570 C   0  0  0  0  0  0  0  0  0  0  0  0
  190.1100  176.4000  145.6320 C   0  0  0  0  0  0  0  0  0  0  0  0
  191.9060  177.2100  148.3420 O   0  0  0  0  0  0  0  0  0  0  0  0
  191.3200  176.4490  146.2450 N   0  0  0  0  0  0  0  0  0  0  0  0
  194.7740  175.1480  145.7370 C   0  0  0  0  0  2  0  0  0  0  0  0
  191.6620  173.6010  144.9250 C   0  0  0  0  0  1  0  0  0  0  0  0
  186.8790  177.4650  147.0890 C   0  0  0  0  0  3  0  0  0  0  0  0
  187.8170  176.9820  146.1700 C   0  0  0  0  0  0  0  0  0  0  0  0
  191.8990  174.7090  143.9030 C   0  0  2  0  0  3  0  0  0  0  0  0
  188.4080  174.8280  140.5240 O   0  0  0  0  0  0  0  0  0  0  0  0
  188.2450  172.5600  139.8090 C   0  0  0  0  0  1  0  0  0  0  0  0
  188.2000  173.5170  140.9820 C   0  0  0  0  0  2  0  0  0  0  0  0
  1  4  2  0  0  0  0
  1 19  1  0  0  0  0
  2 19  2  0  0  0  0
  2 13  1  0  0  0  0
  4 20  1  0  0  0  0
  5  1  1  0  0  0  0
  6  8  2  0  0  0  0
  7 15  1  1  0  0  0
  7  9  1  0  0  0  0
  8 12  1  0  0  0  0
  9 22  1  0  0  0  0
  9 14  1  1  0  0  0
 10  3  1  0  0  0  0
 10 21  2  0  0  0  0
 11 28  1  6  0  0  0
 11  8  1  0  0  0  0
 11  5  1  0  0  0  0
 12 27  1  0  0  0  0
 12  4  1  0  0  0  0
 13 18  2  0  0  0  0
 15 23  1  0  0  0  0
 16  2  1  0  0  0  0
 17  3  1  0  0  0  0
 18 25  1  0  0  0  0
 19 26  1  0  0  0  0
 20 22  1  0  0  0  0
 20 17  2  0  0  0  0
 22 10  1  0  0  0  0
 23 14  1  0  0  0  0
 26 17  1  0  0  0  0
 26 25  2  0  0  0  0
 27  7  1  0  0  0  0
 27 24  1  1  0  0  0
 28 30  1  0  0  0  0
 29 30  1  0  0  0  0
M  END
>  <MODEL>
9

>  <REMARK>
 VINA RESULT:      -7.7      2.376      3.574
  Name = 
  2 active torsions:
  status: ('A' for Active; 'I' for Inactive)
    1  A    between atoms: C_11  and  O_28
    2  A    between atoms: O_28  and  C_30
                            x       y       z     vdW  Elec       q    Type
                         _______ _______ _______ _____ _____    ______ ____

>  <TORSDO>
F 2

$$$$
