=
 OpenBabel11112416583D

 31 35  0  0  1  0  0  0  0  0999 V2000
  185.3930  177.5250  145.9220 C   0  0  1  0  0  3  0  0  0  0  0  0
  188.0660  176.9800  143.7570 C   0  0  0  0  0  0  0  0  0  0  0  0
  187.3730  177.0830  142.5160 C   0  0  0  0  0  0  0  0  0  0  0  0
  191.8510  175.7150  147.2710 O   0  0  0  0  0  0  0  0  0  0  0  0
  192.1750  175.2810  146.1320 C   0  0  0  0  0  0  0  0  0  0  0  0
  185.5440  177.9140  141.1310 C   0  0  0  0  0  0  0  0  0  0  0  0
  187.6400  177.6290  144.9840 N   0  0  0  0  0  0  0  0  0  0  0  0
  186.0000  177.1750  147.2820 C   0  0  0  0  0  2  0  0  0  0  0  0
  186.2000  177.8390  142.3620 C   0  0  0  0  0  3  0  0  0  0  0  0
  190.0210  176.1210  145.0330 C   0  0  0  0  0  0  0  0  0  0  0  0
  184.1120  178.3060  146.1220 C   0  0  0  0  0  1  0  0  0  0  0  0
  189.0430  175.6530  141.4890 C   0  0  0  0  0  3  0  0  0  0  0  0
  184.3020  178.7190  140.9990 C   0  0  0  0  0  1  0  0  0  0  0  0
  189.5740  176.6570  146.1280 N   0  0  0  0  0  0  0  0  0  0  0  0
  189.2460  176.2130  143.7900 C   0  0  0  0  0  0  0  0  0  0  0  0
  191.2950  175.4600  145.0120 N   0  0  0  0  0  2  0  0  0  0  0  0
  186.3790  178.3590  145.1080 C   0  0  0  0  0  2  0  0  0  0  0  0
  186.0530  177.2310  140.0260 C   0  0  0  0  0  3  0  0  0  0  0  0
  188.2780  177.3200  146.2720 C   0  0  2  0  0  3  0  0  0  0  0  0
  187.3380  176.4570  147.1110 C   0  0  0  0  0  2  0  0  0  0  0  0
  189.6960  175.5800  142.6730 N   0  0  0  0  0  0  0  0  0  0  0  0
  187.8780  176.4010  141.3820 C   0  0  0  0  0  0  0  0  0  0  0  0
  187.2190  176.4760  140.1510 C   0  0  0  0  0  3  0  0  0  0  0  0
  195.8750  173.1810  145.5580 C   0  0  0  0  0  0  0  0  0  0  0  0
  193.4570  173.2180  145.6050 C   0  0  0  0  0  3  0  0  0  0  0  0
  194.7720  176.5550  146.4050 F   0  0  0  0  0  0  0  0  0  0  0  0
  197.0630  172.4910  145.3700 O   0  0  0  0  0  1  0  0  0  0  0  0
  194.6530  172.5210  145.4140 C   0  0  0  0  0  3  0  0  0  0  0  0
  194.7060  175.2400  146.0830 C   0  0  0  0  0  0  0  0  0  0  0  0
  193.4650  174.5800  145.9390 C   0  0  0  0  0  0  0  0  0  0  0  0
  195.9000  174.5370  145.8910 C   0  0  0  0  0  3  0  0  0  0  0  0
  1 11  1  1  0  0  0
  1  8  1  0  0  0  0
  2 15  1  0  0  0  0
  2  7  1  0  0  0  0
  3  2  2  0  0  0  0
  5  4  2  0  0  0  0
  6  9  2  0  0  0  0
  7 17  1  0  0  0  0
  7 19  1  0  0  0  0
  9  3  1  0  0  0  0
 10 14  2  0  0  0  0
 12 21  1  0  0  0  0
 13  6  1  0  0  0  0
 14 19  1  0  0  0  0
 15 10  1  0  0  0  0
 16 10  1  0  0  0  0
 16  5  1  0  0  0  0
 17  1  1  0  0  0  0
 18 23  2  0  0  0  0
 18  6  1  0  0  0  0
 19 20  1  1  0  0  0
 20  8  1  0  0  0  0
 21 15  2  0  0  0  0
 22 12  2  0  0  0  0
 22  3  1  0  0  0  0
 23 22  1  0  0  0  0
 24 31  1  0  0  0  0
 25 30  2  0  0  0  0
 27 24  1  0  0  0  0
 28 24  2  0  0  0  0
 28 25  1  0  0  0  0
 29 26  1  0  0  0  0
 30 29  1  0  0  0  0
 30  5  1  0  0  0  0
 31 29  2  0  0  0  0
M  END
>  <MODEL>
1

>  <REMARK>
 VINA RESULT:      -9.4      0.000      0.000
  Name = 
  1 active torsions:
  status: ('A' for Active; 'I' for Inactive)
    1  A    between atoms: C_5  and  C_30
                            x       y       z     vdW  Elec       q    Type
                         _______ _______ _______ _____ _____    ______ ____

>  <TORSDO>
F 1

$$$$
=
 OpenBabel11112416583D

 31 35  0  0  1  0  0  0  0  0999 V2000
  185.4070  177.3340  146.2350 C   0  0  1  0  0  3  0  0  0  0  0  0
  187.9170  177.3580  143.8200 C   0  0  0  0  0  0  0  0  0  0  0  0
  187.1040  177.4510  142.6540 C   0  0  0  0  0  0  0  0  0  0  0  0
  192.1530  176.4070  146.8900 O   0  0  0  0  0  0  0  0  0  0  0  0
  192.4280  176.1130  145.6940 C   0  0  0  0  0  0  0  0  0  0  0  0
  185.0540  178.1030  141.5010 C   0  0  0  0  0  0  0  0  0  0  0  0
  187.5200  177.8420  145.1310 N   0  0  0  0  0  0  0  0  0  0  0  0
  186.1810  176.9770  147.5060 C   0  0  0  0  0  2  0  0  0  0  0  0
  185.8260  178.0340  142.6640 C   0  0  0  0  0  3  0  0  0  0  0  0
  190.0840  176.7050  144.8520 C   0  0  0  0  0  0  0  0  0  0  0  0
  184.0530  177.9000  146.6070 C   0  0  0  0  0  1  0  0  0  0  0  0
  188.8560  176.3670  141.3720 C   0  0  0  0  0  3  0  0  0  0  0  0
  183.7040  178.7230  141.5420 C   0  0  0  0  0  1  0  0  0  0  0  0
  189.6700  177.0840  146.0230 N   0  0  0  0  0  0  0  0  0  0  0  0
  189.1910  176.7750  143.6900 C   0  0  0  0  0  0  0  0  0  0  0  0
  191.4300  176.2440  144.6700 N   0  0  0  0  0  2  0  0  0  0  0  0
  186.1860  178.3650  145.4210 C   0  0  0  0  0  2  0  0  0  0  0  0
  185.5490  177.5900  140.3020 C   0  0  0  0  0  3  0  0  0  0  0  0
  188.3120  177.5340  146.3300 C   0  0  2  0  0  3  0  0  0  0  0  0
  187.5860  176.4810  147.1630 C   0  0  0  0  0  2  0  0  0  0  0  0
  189.6200  176.3020  142.4890 N   0  0  0  0  0  0  0  0  0  0  0  0
  187.5920  176.9390  141.4260 C   0  0  0  0  0  0  0  0  0  0  0  0
  186.8170  177.0090  140.2650 C   0  0  0  0  0  3  0  0  0  0  0  0
  196.3660  174.7820  144.6250 C   0  0  0  0  0  0  0  0  0  0  0  0
  194.6750  176.5090  144.7090 C   0  0  0  0  0  3  0  0  0  0  0  0
  193.3750  173.4140  146.2070 F   0  0  0  0  0  0  0  0  0  0  0  0
  197.6410  174.3640  144.2740 O   0  0  0  0  0  1  0  0  0  0  0  0
  195.9610  176.0900  144.3560 C   0  0  0  0  0  3  0  0  0  0  0  0
  194.1990  174.3070  145.6040 C   0  0  0  0  0  0  0  0  0  0  0  0
  193.7800  175.6290  145.3360 C   0  0  0  0  0  0  0  0  0  0  0  0
  195.4870  173.8930  145.2470 C   0  0  0  0  0  3  0  0  0  0  0  0
  1 11  1  1  0  0  0
  1  8  1  0  0  0  0
  2  7  1  0  0  0  0
  3  9  1  0  0  0  0
  3  2  2  0  0  0  0
  5  4  2  0  0  0  0
  6 13  1  0  0  0  0
  6  9  2  0  0  0  0
  7 17  1  0  0  0  0
  7 19  1  0  0  0  0
 10 14  2  0  0  0  0
 12 22  2  0  0  0  0
 12 21  1  0  0  0  0
 14 19  1  0  0  0  0
 15  2  1  0  0  0  0
 15 10  1  0  0  0  0
 16 10  1  0  0  0  0
 16  5  1  0  0  0  0
 17  1  1  0  0  0  0
 18  6  1  0  0  0  0
 19 20  1  6  0  0  0
 20  8  1  0  0  0  0
 21 15  2  0  0  0  0
 22  3  1  0  0  0  0
 23 18  2  0  0  0  0
 23 22  1  0  0  0  0
 24 31  1  0  0  0  0
 25 30  2  0  0  0  0
 27 24  1  0  0  0  0
 28 24  2  0  0  0  0
 28 25  1  0  0  0  0
 29 26  1  0  0  0  0
 30 29  1  0  0  0  0
 30  5  1  0  0  0  0
 31 29  2  0  0  0  0
M  END
>  <MODEL>
2

>  <REMARK>
 VINA RESULT:      -8.9      1.115      1.410
  Name = 
  1 active torsions:
  status: ('A' for Active; 'I' for Inactive)
    1  A    between atoms: C_5  and  C_30
                            x       y       z     vdW  Elec       q    Type
                         _______ _______ _______ _____ _____    ______ ____

>  <TORSDO>
F 1

$$$$
=
 OpenBabel11112416583D

 31 35  0  0  1  0  0  0  0  0999 V2000
  186.0880  177.6550  141.8520 C   0  0  1  0  0  3  0  0  0  0  0  0
  187.7220  176.7300  144.7850 C   0  0  0  0  0  0  0  0  0  0  0  0
  186.8920  177.4060  145.7260 C   0  0  0  0  0  0  0  0  0  0  0  0
  191.9690  174.2740  142.7350 O   0  0  0  0  0  0  0  0  0  0  0  0
  192.2180  174.6200  143.9220 C   0  0  0  0  0  0  0  0  0  0  0  0
  184.7580  178.3670  146.4190 C   0  0  0  0  0  0  0  0  0  0  0  0
  187.2740  176.2820  143.4790 N   0  0  0  0  0  0  0  0  0  0  0  0
  187.0640  177.1840  140.7730 C   0  0  0  0  0  2  0  0  0  0  0  0
  185.5410  177.6990  145.4740 C   0  0  0  0  0  3  0  0  0  0  0  0
  189.9320  175.7290  144.2370 C   0  0  0  0  0  0  0  0  0  0  0  0
  184.7330  177.9220  141.2310 C   0  0  0  0  0  1  0  0  0  0  0  0
  188.7650  177.5210  147.2640 C   0  0  0  0  0  3  0  0  0  0  0  0
  183.3330  178.6660  146.1230 C   0  0  0  0  0  1  0  0  0  0  0  0
  189.5190  175.4040  143.0500 N   0  0  0  0  0  0  0  0  0  0  0  0
  189.0550  176.4680  145.1530 C   0  0  0  0  0  0  0  0  0  0  0  0
  191.2390  175.3410  144.6860 N   0  0  0  0  0  2  0  0  0  0  0  0
  185.9520  176.5890  142.9360 C   0  0  0  0  0  2  0  0  0  0  0  0
  185.3140  178.7550  147.6380 C   0  0  0  0  0  3  0  0  0  0  0  0
  188.2260  175.7780  142.4780 C   0  0  2  0  0  3  0  0  0  0  0  0
  188.4180  176.8270  141.3850 C   0  0  0  0  0  2  0  0  0  0  0  0
  189.5340  176.8640  146.3630 N   0  0  0  0  0  0  0  0  0  0  0  0
  187.4370  177.8040  146.9710 C   0  0  0  0  0  0  0  0  0  0  0  0
  186.6520  178.4730  147.9140 C   0  0  0  0  0  3  0  0  0  0  0  0
  195.9790  173.5800  145.7090 C   0  0  0  0  0  0  0  0  0  0  0  0
  193.8270  172.9460  144.8070 C   0  0  0  0  0  3  0  0  0  0  0  0
  194.2300  176.5950  144.6290 F   0  0  0  0  0  0  0  0  0  0  0  0
  197.1910  173.2300  146.2860 O   0  0  0  0  0  1  0  0  0  0  0  0
  195.0480  172.5920  145.3880 C   0  0  0  0  0  3  0  0  0  0  0  0
  194.4710  175.2820  144.8670 C   0  0  0  0  0  0  0  0  0  0  0  0
  193.5220  174.2890  144.5380 C   0  0  0  0  0  0  0  0  0  0  0  0
  195.6910  174.9210  145.4490 C   0  0  0  0  0  3  0  0  0  0  0  0
  1 11  1  6  0  0  0
  1 17  1  0  0  0  0
  2 15  2  0  0  0  0
  2  3  1  0  0  0  0
  3 22  1  0  0  0  0
  4  5  2  0  0  0  0
  5 30  1  0  0  0  0
  5 16  1  0  0  0  0
  6 18  2  0  0  0  0
  7  2  1  0  0  0  0
  8 20  1  0  0  0  0
  8  1  1  0  0  0  0
  9  3  2  0  0  0  0
  9  6  1  0  0  0  0
 10 16  1  0  0  0  0
 10 15  1  0  0  0  0
 13  6  1  0  0  0  0
 14 10  2  0  0  0  0
 15 21  1  0  0  0  0
 17  7  1  0  0  0  0
 18 23  1  0  0  0  0
 19 20  1  6  0  0  0
 19 14  1  0  0  0  0
 19  7  1  0  0  0  0
 21 12  2  0  0  0  0
 22 12  1  0  0  0  0
 22 23  2  0  0  0  0
 24 27  1  0  0  0  0
 25 28  1  0  0  0  0
 26 29  1  0  0  0  0
 28 24  2  0  0  0  0
 29 31  2  0  0  0  0
 30 25  2  0  0  0  0
 30 29  1  0  0  0  0
 31 24  1  0  0  0  0
M  END
>  <MODEL>
3

>  <REMARK>
 VINA RESULT:      -8.8      1.426      3.972
  Name = 
  1 active torsions:
  status: ('A' for Active; 'I' for Inactive)
    1  A    between atoms: C_5  and  C_30
                            x       y       z     vdW  Elec       q    Type
                         _______ _______ _______ _____ _____    ______ ____

>  <TORSDO>
F 1

$$$$
=
 OpenBabel11112416583D

 31 35  0  0  1  0  0  0  0  0999 V2000
  195.0370  174.0490  145.1850 C   0  0  1  0  0  3  0  0  0  0  0  0
  191.6880  173.2360  144.6850 C   0  0  0  0  0  0  0  0  0  0  0  0
  191.8590  172.0650  143.8910 C   0  0  0  0  0  0  0  0  0  0  0  0
  189.3740  177.5040  146.8540 O   0  0  0  0  0  0  0  0  0  0  0  0
  188.5620  176.9410  146.0700 C   0  0  0  0  0  0  0  0  0  0  0  0
  193.1380  170.1160  143.1700 C   0  0  0  0  0  0  0  0  0  0  0  0
  192.6670  173.7200  145.6420 N   0  0  0  0  0  0  0  0  0  0  0  0
  194.9450  175.4410  145.8130 C   0  0  0  0  0  2  0  0  0  0  0  0
  193.0040  171.2550  143.9680 C   0  0  0  0  0  3  0  0  0  0  0  0
  190.2470  175.1420  145.3760 C   0  0  0  0  0  0  0  0  0  0  0  0
  196.4200  173.4770  145.4160 C   0  0  0  0  0  1  0  0  0  0  0  0
  189.6840  172.4550  142.8860 C   0  0  0  0  0  3  0  0  0  0  0  0
  194.3630  169.2800  143.2710 C   0  0  0  0  0  1  0  0  0  0  0  0
  191.1720  175.5860  146.1720 N   0  0  0  0  0  0  0  0  0  0  0  0
  190.4890  173.9590  144.5420 C   0  0  0  0  0  0  0  0  0  0  0  0
  188.9630  175.7800  145.3250 N   0  0  0  0  0  2  0  0  0  0  0  0
  193.9920  173.1250  145.8040 C   0  0  0  0  0  2  0  0  0  0  0  0
  192.1260  169.7640  142.2780 C   0  0  0  0  0  3  0  0  0  0  0  0
  192.5250  175.0380  146.2770 C   0  0  2  0  0  3  0  0  0  0  0  0
  193.5330  176.0080  145.6660 C   0  0  0  0  0  2  0  0  0  0  0  0
  189.5340  173.5560  143.6610 N   0  0  0  0  0  0  0  0  0  0  0  0
  190.8380  171.6890  142.9820 C   0  0  0  0  0  0  0  0  0  0  0  0
  190.9760  170.5490  142.1850 C   0  0  0  0  0  3  0  0  0  0  0  0
  184.6060  178.5160  145.5330 C   0  0  0  0  0  0  0  0  0  0  0  0
  186.8950  178.2710  144.7940 C   0  0  0  0  0  3  0  0  0  0  0  0
  186.3940  176.4330  147.9370 F   0  0  0  0  0  0  0  0  0  0  0  0
  183.3310  179.0320  145.3480 O   0  0  0  0  0  1  0  0  0  0  0  0
  185.6120  178.7900  144.6050 C   0  0  0  0  0  3  0  0  0  0  0  0
  186.1660  177.1990  146.8420 C   0  0  0  0  0  0  0  0  0  0  0  0
  187.1900  177.4710  145.9080 C   0  0  0  0  0  0  0  0  0  0  0  0
  184.8830  177.7230  146.6480 C   0  0  0  0  0  3  0  0  0  0  0  0
  1 11  1  1  0  0  0
  1 17  1  0  0  0  0
  1  8  1  0  0  0  0
  2  7  1  0  0  0  0
  3  9  1  0  0  0  0
  3  2  2  0  0  0  0
  5  4  2  0  0  0  0
  6 13  1  0  0  0  0
  6  9  2  0  0  0  0
  7 17  1  0  0  0  0
  7 19  1  0  0  0  0
 10 14  2  0  0  0  0
 12 22  2  0  0  0  0
 12 21  1  0  0  0  0
 14 19  1  0  0  0  0
 15  2  1  0  0  0  0
 15 10  1  0  0  0  0
 16 10  1  0  0  0  0
 16  5  1  0  0  0  0
 18  6  1  0  0  0  0
 19 20  1  6  0  0  0
 20  8  1  0  0  0  0
 21 15  2  0  0  0  0
 22  3  1  0  0  0  0
 23 18  2  0  0  0  0
 23 22  1  0  0  0  0
 24 31  1  0  0  0  0
 25 30  2  0  0  0  0
 27 24  1  0  0  0  0
 28 25  1  0  0  0  0
 28 24  2  0  0  0  0
 29 26  1  0  0  0  0
 30  5  1  0  0  0  0
 30 29  1  0  0  0  0
 31 29  2  0  0  0  0
M  END
>  <MODEL>
4

>  <REMARK>
 VINA RESULT:      -8.6      3.221      8.415
  Name = 
  1 active torsions:
  status: ('A' for Active; 'I' for Inactive)
    1  A    between atoms: C_5  and  C_30
                            x       y       z     vdW  Elec       q    Type
                         _______ _______ _______ _____ _____    ______ ____

>  <TORSDO>
F 1

$$$$
=
 OpenBabel11112416583D

 31 35  0  0  1  0  0  0  0  0999 V2000
  185.2830  177.2740  146.3950 C   0  0  1  0  0  3  0  0  0  0  0  0
  187.2630  177.7000  143.5610 C   0  0  0  0  0  0  0  0  0  0  0  0
  186.2320  177.8400  142.5880 C   0  0  0  0  0  0  0  0  0  0  0  0
  192.0650  176.7780  145.6490 O   0  0  0  0  0  0  0  0  0  0  0  0
  192.1140  176.6160  144.3990 C   0  0  0  0  0  0  0  0  0  0  0  0
  183.9640  178.4470  141.9210 C   0  0  0  0  0  0  0  0  0  0  0  0
  187.1070  178.0310  144.9660 N   0  0  0  0  0  0  0  0  0  0  0  0
  186.3100  176.8580  147.4500 C   0  0  0  0  0  2  0  0  0  0  0  0
  184.9520  178.3260  142.9010 C   0  0  0  0  0  3  0  0  0  0  0  0
  189.6220  177.1120  144.0870 C   0  0  0  0  0  0  0  0  0  0  0  0
  184.0010  177.7040  147.0750 C   0  0  0  0  0  1  0  0  0  0  0  0
  187.7520  177.0080  140.8890 C   0  0  0  0  0  3  0  0  0  0  0  0
  182.6180  178.9620  142.2840 C   0  0  0  0  0  1  0  0  0  0  0  0
  189.4280  177.3520  145.3480 N   0  0  0  0  0  0  0  0  0  0  0  0
  188.5150  177.2240  143.1290 C   0  0  0  0  0  0  0  0  0  0  0  0
  190.9290  176.7680  143.6030 N   0  0  0  0  0  2  0  0  0  0  0  0
  185.8300  178.4280  145.5590 C   0  0  0  0  0  2  0  0  0  0  0  0
  184.2390  178.0820  140.6030 C   0  0  0  0  0  3  0  0  0  0  0  0
  188.1350  177.6720  145.9530 C   0  0  2  0  0  3  0  0  0  0  0  0
  187.6440  176.4970  146.7960 C   0  0  0  0  0  2  0  0  0  0  0  0
  188.7230  176.8960  141.8260 N   0  0  0  0  0  0  0  0  0  0  0  0
  186.4950  177.4800  141.2430 C   0  0  0  0  0  0  0  0  0  0  0  0
  185.5040  177.6000  140.2640 C   0  0  0  0  0  3  0  0  0  0  0  0
  195.8620  175.6250  142.5570 C   0  0  0  0  0  0  0  0  0  0  0  0
  194.5960  176.4880  144.4280 C   0  0  0  0  0  3  0  0  0  0  0  0
  192.3100  175.4790  141.7320 F   0  0  0  0  0  0  0  0  0  0  0  0
  197.0800  175.3100  141.9730 O   0  0  0  0  0  1  0  0  0  0  0  0
  195.8240  176.1690  143.8410 C   0  0  0  0  0  3  0  0  0  0  0  0
  193.4420  175.7140  142.4420 C   0  0  0  0  0  0  0  0  0  0  0  0
  193.3930  176.2650  143.7410 C   0  0  0  0  0  0  0  0  0  0  0  0
  194.6740  175.3990  141.8600 C   0  0  0  0  0  3  0  0  0  0  0  0
  1 11  1  1  0  0  0
  1  8  1  0  0  0  0
  2  7  1  0  0  0  0
  3  9  1  0  0  0  0
  3  2  2  0  0  0  0
  5  4  2  0  0  0  0
  6 13  1  0  0  0  0
  6  9  2  0  0  0  0
  7 17  1  0  0  0  0
  7 19  1  0  0  0  0
 10 14  2  0  0  0  0
 12 22  2  0  0  0  0
 12 21  1  0  0  0  0
 14 19  1  0  0  0  0
 15  2  1  0  0  0  0
 15 10  1  0  0  0  0
 16 10  1  0  0  0  0
 16  5  1  0  0  0  0
 17  1  1  0  0  0  0
 18  6  1  0  0  0  0
 19 20  1  6  0  0  0
 20  8  1  0  0  0  0
 21 15  2  0  0  0  0
 22  3  1  0  0  0  0
 23 18  2  0  0  0  0
 23 22  1  0  0  0  0
 24 28  1  0  0  0  0
 26 29  1  0  0  0  0
 27 24  1  0  0  0  0
 28 25  2  0  0  0  0
 29 30  2  0  0  0  0
 30  5  1  0  0  0  0
 30 25  1  0  0  0  0
 31 29  1  0  0  0  0
 31 24  2  0  0  0  0
M  END
>  <MODEL>
5

>  <REMARK>
 VINA RESULT:      -8.3      2.160      2.463
  Name = 
  1 active torsions:
  status: ('A' for Active; 'I' for Inactive)
    1  A    between atoms: C_5  and  C_30
                            x       y       z     vdW  Elec       q    Type
                         _______ _______ _______ _____ _____    ______ ____

>  <TORSDO>
F 1

$$$$
=
 OpenBabel11112416583D

 31 35  0  0  1  0  0  0  0  0999 V2000
  193.9830  174.9540  145.2040 C   0  0  1  0  0  3  0  0  0  0  0  0
  190.9810  173.7020  143.9600 C   0  0  0  0  0  0  0  0  0  0  0  0
  191.4090  172.3840  143.6300 C   0  0  0  0  0  0  0  0  0  0  0  0
  188.0540  178.1410  143.9860 O   0  0  0  0  0  0  0  0  0  0  0  0
  187.5430  177.3080  143.1880 C   0  0  0  0  0  0  0  0  0  0  0  0
  192.8700  170.4520  143.9300 C   0  0  0  0  0  0  0  0  0  0  0  0
  191.5940  174.5240  144.9880 N   0  0  0  0  0  0  0  0  0  0  0  0
  193.6800  176.4470  145.3440 C   0  0  0  0  0  2  0  0  0  0  0  0
  192.4750  171.7450  144.2840 C   0  0  0  0  0  3  0  0  0  0  0  0
  189.3780  175.5690  143.5950 C   0  0  0  0  0  0  0  0  0  0  0  0
  195.2220  174.6090  146.0030 C   0  0  0  0  0  1  0  0  0  0  0  0
  189.6710  172.2660  141.9400 C   0  0  0  0  0  3  0  0  0  0  0  0
  194.0030  169.8030  144.6390 C   0  0  0  0  0  1  0  0  0  0  0  0
  189.9930  176.3020  144.4720 N   0  0  0  0  0  0  0  0  0  0  0  0
  189.8860  174.2340  143.2540 C   0  0  0  0  0  0  0  0  0  0  0  0
  188.1730  176.0360  142.9710 N   0  0  0  0  0  2  0  0  0  0  0  0
  192.8020  174.1310  145.7130 C   0  0  0  0  0  2  0  0  0  0  0  0
  192.2020  169.7710  142.9130 C   0  0  0  0  0  3  0  0  0  0  0  0
  191.2440  175.9430  145.1400 C   0  0  2  0  0  3  0  0  0  0  0  0
  192.3870  176.8080  144.6140 C   0  0  0  0  0  2  0  0  0  0  0  0
  189.2700  173.5140  142.2790 N   0  0  0  0  0  0  0  0  0  0  0  0
  190.7390  171.6750  142.6020 C   0  0  0  0  0  0  0  0  0  0  0  0
  191.1360  170.3820  142.2500 C   0  0  0  0  0  3  0  0  0  0  0  0
  183.8730  178.2480  141.1710 C   0  0  0  0  0  0  0  0  0  0  0  0
  185.0960  177.7440  143.1960 C   0  0  0  0  0  3  0  0  0  0  0  0
  187.3850  177.7400  140.3190 F   0  0  0  0  0  0  0  0  0  0  0  0
  182.6800  178.5510  140.5310 O   0  0  0  0  0  1  0  0  0  0  0  0
  183.8940  178.0500  142.5530 C   0  0  0  0  0  3  0  0  0  0  0  0
  186.2610  177.8350  141.0710 C   0  0  0  0  0  0  0  0  0  0  0  0
  186.2920  177.6330  142.4690 C   0  0  0  0  0  0  0  0  0  0  0  0
  185.0540  178.1410  140.4330 C   0  0  0  0  0  3  0  0  0  0  0  0
  1  8  1  0  0  0  0
  1 17  1  0  0  0  0
  1 11  1  1  0  0  0
  2  7  1  0  0  0  0
  3  2  1  0  0  0  0
  3  9  1  0  0  0  0
  5  4  2  0  0  0  0
  6  9  2  0  0  0  0
  6 13  1  0  0  0  0
  7 19  1  0  0  0  0
  7 17  1  0  0  0  0
 10 14  2  0  0  0  0
 12 21  2  0  0  0  0
 12 22  1  0  0  0  0
 14 19  1  0  0  0  0
 15 10  1  0  0  0  0
 15  2  2  0  0  0  0
 16  5  1  0  0  0  0
 16 10  1  0  0  0  0
 18  6  1  0  0  0  0
 19 20  1  6  0  0  0
 20  8  1  0  0  0  0
 21 15  1  0  0  0  0
 22  3  2  0  0  0  0
 23 22  1  0  0  0  0
 23 18  2  0  0  0  0
 24 28  1  0  0  0  0
 26 29  1  0  0  0  0
 27 24  1  0  0  0  0
 28 25  2  0  0  0  0
 29 30  2  0  0  0  0
 30  5  1  0  0  0  0
 30 25  1  0  0  0  0
 31 29  1  0  0  0  0
 31 24  2  0  0  0  0
M  END
>  <MODEL>
6

>  <REMARK>
 VINA RESULT:      -8.2      3.643      8.588
  Name = 
  1 active torsions:
  status: ('A' for Active; 'I' for Inactive)
    1  A    between atoms: C_5  and  C_30
                            x       y       z     vdW  Elec       q    Type
                         _______ _______ _______ _____ _____    ______ ____

>  <TORSDO>
F 1

$$$$
=
 OpenBabel11112416583D

 31 35  0  0  1  0  0  0  0  0999 V2000
  193.0180  172.1410  141.2120 C   0  0  1  0  0  3  0  0  0  0  0  0
  192.4330  174.8050  143.3780 C   0  0  0  0  0  0  0  0  0  0  0  0
  193.6680  174.7910  144.0870 C   0  0  0  0  0  0  0  0  0  0  0  0
  187.3300  175.7950  142.2570 O   0  0  0  0  0  0  0  0  0  0  0  0
  187.6110  176.2770  143.3880 C   0  0  0  0  0  0  0  0  0  0  0  0
  196.0530  174.2990  144.2560 C   0  0  0  0  0  0  0  0  0  0  0  0
  192.2670  174.3140  142.0210 N   0  0  0  0  0  0  0  0  0  0  0  0
  191.6390  171.9200  140.5870 C   0  0  0  0  0  2  0  0  0  0  0  0
  194.8600  174.3010  143.5290 C   0  0  0  0  0  3  0  0  0  0  0  0
  190.0250  175.4240  143.3180 C   0  0  0  0  0  0  0  0  0  0  0  0
  194.0720  171.4420  140.3800 C   0  0  0  0  0  1  0  0  0  0  0  0
  192.5590  175.7990  145.9960 C   0  0  0  0  0  3  0  0  0  0  0  0
  197.2970  173.7700  143.6390 C   0  0  0  0  0  1  0  0  0  0  0  0
  189.8960  174.9130  142.1320 N   0  0  0  0  0  0  0  0  0  0  0  0
  191.3070  175.3420  144.0290 C   0  0  0  0  0  0  0  0  0  0  0  0
  188.9260  176.1080  143.9400 N   0  0  0  0  0  2  0  0  0  0  0  0
  193.3290  173.6340  141.2800 C   0  0  0  0  0  2  0  0  0  0  0  0
  196.0760  174.7920  145.5600 C   0  0  0  0  0  3  0  0  0  0  0  0
  190.9340  174.1650  141.4210 C   0  0  2  0  0  3  0  0  0  0  0  0
  190.5650  172.6840  141.3610 C   0  0  0  0  0  2  0  0  0  0  0  0
  191.3980  175.8170  145.3000 N   0  0  0  0  0  0  0  0  0  0  0  0
  193.7130  175.2920  145.4120 C   0  0  0  0  0  0  0  0  0  0  0  0
  194.9070  175.2890  146.1380 C   0  0  0  0  0  3  0  0  0  0  0  0
  184.6480  178.3730  145.6790 C   0  0  0  0  0  0  0  0  0  0  0  0
  186.1460  176.4980  145.3830 C   0  0  0  0  0  3  0  0  0  0  0  0
  186.4340  178.7890  142.5230 F   0  0  0  0  0  0  0  0  0  0  0  0
  183.6910  179.0410  146.4290 O   0  0  0  0  0  1  0  0  0  0  0  0
  185.1820  177.1690  146.1400 C   0  0  0  0  0  3  0  0  0  0  0  0
  186.0430  178.2390  143.7000 C   0  0  0  0  0  0  0  0  0  0  0  0
  186.5890  177.0200  144.1590 C   0  0  0  0  0  0  0  0  0  0  0  0
  185.0780  178.9060  144.4620 C   0  0  0  0  0  3  0  0  0  0  0  0
  1 11  1  6  0  0  0
  1 17  1  0  0  0  0
  2 15  2  0  0  0  0
  2  3  1  0  0  0  0
  3 22  1  0  0  0  0
  4  5  2  0  0  0  0
  5 16  1  0  0  0  0
  5 30  1  0  0  0  0
  6 18  2  0  0  0  0
  7  2  1  0  0  0  0
  8  1  1  0  0  0  0
  8 20  1  0  0  0  0
  9  3  2  0  0  0  0
  9  6  1  0  0  0  0
 10 16  1  0  0  0  0
 10 15  1  0  0  0  0
 13  6  1  0  0  0  0
 14 10  2  0  0  0  0
 15 21  1  0  0  0  0
 17  7  1  0  0  0  0
 18 23  1  0  0  0  0
 19 20  1  1  0  0  0
 19  7  1  0  0  0  0
 19 14  1  0  0  0  0
 21 12  2  0  0  0  0
 22 12  1  0  0  0  0
 22 23  2  0  0  0  0
 24 28  1  0  0  0  0
 24 27  1  0  0  0  0
 25 28  2  0  0  0  0
 26 29  1  0  0  0  0
 29 30  2  0  0  0  0
 29 31  1  0  0  0  0
 30 25  1  0  0  0  0
 31 24  2  0  0  0  0
M  END
>  <MODEL>
7

>  <REMARK>
 VINA RESULT:      -7.9      3.469      8.934
  Name = 
  1 active torsions:
  status: ('A' for Active; 'I' for Inactive)
    1  A    between atoms: C_5  and  C_30
                            x       y       z     vdW  Elec       q    Type
                         _______ _______ _______ _____ _____    ______ ____

>  <TORSDO>
F 1

$$$$
=
 OpenBabel11112416583D

 31 35  0  0  1  0  0  0  0  0999 V2000
  194.8320  174.6870  142.2790 C   0  0  1  0  0  3  0  0  0  0  0  0
  191.4190  174.0660  141.9640 C   0  0  0  0  0  0  0  0  0  0  0  0
  191.4420  173.2980  140.7640 C   0  0  0  0  0  0  0  0  0  0  0  0
  189.5640  177.1110  145.9080 O   0  0  0  0  0  0  0  0  0  0  0  0
  188.6360  176.8800  145.0860 C   0  0  0  0  0  0  0  0  0  0  0  0
  192.5460  171.8070  139.1780 C   0  0  0  0  0  0  0  0  0  0  0  0
  192.5330  174.1600  142.8920 N   0  0  0  0  0  0  0  0  0  0  0  0
  194.8720  175.7240  143.4030 C   0  0  0  0  0  2  0  0  0  0  0  0
  192.5580  172.5450  140.3650 C   0  0  0  0  0  3  0  0  0  0  0  0
  190.1510  175.5250  143.5280 C   0  0  0  0  0  0  0  0  0  0  0  0
  196.2120  174.0980  142.0810 C   0  0  0  0  0  1  0  0  0  0  0  0
  189.1680  174.0040  140.2950 C   0  0  0  0  0  3  0  0  0  0  0  0
  193.7430  171.0220  138.7810 C   0  0  0  0  0  1  0  0  0  0  0  0
  191.1880  175.6440  144.3000 N   0  0  0  0  0  0  0  0  0  0  0  0
  190.2380  174.7630  142.2770 C   0  0  0  0  0  0  0  0  0  0  0  0
  188.8940  176.1070  143.9030 N   0  0  0  0  0  2  0  0  0  0  0  0
  193.8460  173.5740  142.6280 C   0  0  0  0  0  2  0  0  0  0  0  0
  191.4120  171.8090  138.3670 C   0  0  0  0  0  3  0  0  0  0  0  0
  192.5230  175.1250  144.0000 C   0  0  2  0  0  3  0  0  0  0  0  0
  193.4740  176.2760  143.6810 C   0  0  0  0  0  2  0  0  0  0  0  0
  189.1610  174.7160  141.4480 N   0  0  0  0  0  0  0  0  0  0  0  0
  190.2970  173.2840  139.9290 C   0  0  0  0  0  0  0  0  0  0  0  0
  190.2880  172.5450  138.7420 C   0  0  0  0  0  3  0  0  0  0  0  0
  184.6930  178.4480  145.7300 C   0  0  0  0  0  0  0  0  0  0  0  0
  186.7410  178.3560  144.4470 C   0  0  0  0  0  3  0  0  0  0  0  0
  186.9570  176.0640  147.3130 F   0  0  0  0  0  0  0  0  0  0  0  0
  183.4200  178.9630  145.9270 O   0  0  0  0  0  1  0  0  0  0  0  0
  185.4580  178.8740  144.6430 C   0  0  0  0  0  3  0  0  0  0  0  0
  186.4920  176.9800  146.4270 C   0  0  0  0  0  0  0  0  0  0  0  0
  187.2740  177.4050  145.3310 C   0  0  0  0  0  0  0  0  0  0  0  0
  185.2090  177.5030  146.6190 C   0  0  0  0  0  3  0  0  0  0  0  0
  1 11  1  1  0  0  0
  1 17  1  0  0  0  0
  1  8  1  0  0  0  0
  2 15  1  0  0  0  0
  2  7  1  0  0  0  0
  3  2  2  0  0  0  0
  5 30  1  0  0  0  0
  5  4  2  0  0  0  0
  6  9  2  0  0  0  0
  7 19  1  0  0  0  0
  8 20  1  0  0  0  0
  9  3  1  0  0  0  0
 10 16  1  0  0  0  0
 10 14  2  0  0  0  0
 12 21  1  0  0  0  0
 13  6  1  0  0  0  0
 15 10  1  0  0  0  0
 16  5  1  0  0  0  0
 17  7  1  0  0  0  0
 18 23  2  0  0  0  0
 18  6  1  0  0  0  0
 19 20  1  6  0  0  0
 19 14  1  0  0  0  0
 21 15  2  0  0  0  0
 22 12  2  0  0  0  0
 22  3  1  0  0  0  0
 23 22  1  0  0  0  0
 24 27  1  0  0  0  0
 24 31  1  0  0  0  0
 25 28  1  0  0  0  0
 25 30  2  0  0  0  0
 28 24  2  0  0  0  0
 29 31  2  0  0  0  0
 29 26  1  0  0  0  0
 30 29  1  0  0  0  0
M  END
>  <MODEL>
8

>  <REMARK>
 VINA RESULT:      -7.8      3.688      8.041
  Name = 
  1 active torsions:
  status: ('A' for Active; 'I' for Inactive)
    1  A    between atoms: C_5  and  C_30
                            x       y       z     vdW  Elec       q    Type
                         _______ _______ _______ _____ _____    ______ ____

>  <TORSDO>
F 1

$$$$
=
 OpenBabel11112416583D

 31 35  0  0  1  0  0  0  0  0999 V2000
  186.7450  177.3300  145.5870 C   0  0  1  0  0  3  0  0  0  0  0  0
  189.1790  176.1660  143.3860 C   0  0  0  0  0  0  0  0  0  0  0  0
  188.4190  176.1870  142.1810 C   0  0  0  0  0  0  0  0  0  0  0  0
  193.0220  174.9200  146.8430 O   0  0  0  0  0  0  0  0  0  0  0  0
  193.2140  174.2980  145.7630 C   0  0  0  0  0  0  0  0  0  0  0  0
  186.6090  177.0470  140.7880 C   0  0  0  0  0  0  0  0  0  0  0  0
  188.9180  177.0230  144.5290 N   0  0  0  0  0  0  0  0  0  0  0  0
  187.3980  177.0940  146.9500 C   0  0  0  0  0  2  0  0  0  0  0  0
  187.3350  177.0570  141.9820 C   0  0  0  0  0  3  0  0  0  0  0  0
  191.1030  175.2470  144.6680 C   0  0  0  0  0  0  0  0  0  0  0  0
  185.5810  178.2870  145.7400 C   0  0  0  0  0  1  0  0  0  0  0  0
  189.8350  174.4330  141.2820 C   0  0  0  0  0  3  0  0  0  0  0  0
  185.4650  177.9780  140.6070 C   0  0  0  0  0  1  0  0  0  0  0  0
  190.7990  175.9780  145.6970 N   0  0  0  0  0  0  0  0  0  0  0  0
  190.2600  175.2680  143.4670 C   0  0  0  0  0  0  0  0  0  0  0  0
  192.2860  174.4350  144.6760 N   0  0  0  0  0  2  0  0  0  0  0  0
  187.7640  177.9160  144.6130 C   0  0  0  0  0  2  0  0  0  0  0  0
  186.9570  176.1630  139.7670 C   0  0  0  0  0  3  0  0  0  0  0  0
  189.6020  176.8120  145.8130 C   0  0  2  0  0  3  0  0  0  0  0  0
  188.6270  176.1960  146.8140 C   0  0  0  0  0  2  0  0  0  0  0  0
  190.5550  174.4380  142.4300 N   0  0  0  0  0  0  0  0  0  0  0  0
  188.7610  175.3000  141.1300 C   0  0  0  0  0  0  0  0  0  0  0  0
  188.0330  175.2910  139.9370 C   0  0  0  0  0  3  0  0  0  0  0  0
  196.6900  171.8190  145.3230 C   0  0  0  0  0  0  0  0  0  0  0  0
  195.6760  173.9600  145.8070 C   0  0  0  0  0  3  0  0  0  0  0  0
  193.0660  171.4850  145.0490 F   0  0  0  0  0  0  0  0  0  0  0  0
  197.8220  171.0290  145.1840 O   0  0  0  0  0  1  0  0  0  0  0  0
  196.8160  173.1650  145.6680 C   0  0  0  0  0  3  0  0  0  0  0  0
  194.2780  172.0580  145.2560 C   0  0  0  0  0  0  0  0  0  0  0  0
  194.3960  173.4210  145.6050 C   0  0  0  0  0  0  0  0  0  0  0  0
  195.4230  171.2680  145.1180 C   0  0  0  0  0  3  0  0  0  0  0  0
  1 11  1  1  0  0  0
  1  8  1  0  0  0  0
  2 15  1  0  0  0  0
  2  7  1  0  0  0  0
  3  2  2  0  0  0  0
  5  4  2  0  0  0  0
  6  9  2  0  0  0  0
  7 17  1  0  0  0  0
  7 19  1  0  0  0  0
  9  3  1  0  0  0  0
 10 16  1  0  0  0  0
 10 14  2  0  0  0  0
 12 21  1  0  0  0  0
 13  6  1  0  0  0  0
 14 19  1  0  0  0  0
 15 10  1  0  0  0  0
 16  5  1  0  0  0  0
 17  1  1  0  0  0  0
 18 23  2  0  0  0  0
 18  6  1  0  0  0  0
 19 20  1  1  0  0  0
 20  8  1  0  0  0  0
 21 15  2  0  0  0  0
 22 12  2  0  0  0  0
 22  3  1  0  0  0  0
 23 22  1  0  0  0  0
 24 28  1  0  0  0  0
 26 29  1  0  0  0  0
 27 24  1  0  0  0  0
 28 25  2  0  0  0  0
 29 30  2  0  0  0  0
 30  5  1  0  0  0  0
 30 25  1  0  0  0  0
 31 29  1  0  0  0  0
 31 24  2  0  0  0  0
M  END
>  <MODEL>
9

>  <REMARK>
 VINA RESULT:      -7.7      1.494      1.964
  Name = 
  1 active torsions:
  status: ('A' for Active; 'I' for Inactive)
    1  A    between atoms: C_5  and  C_30
                            x       y       z     vdW  Elec       q    Type
                         _______ _______ _______ _____ _____    ______ ____

>  <TORSDO>
F 1

$$$$
