=
 OpenBabel11112417573D

 34 40  0  0  1  0  0  0  0  0999 V2000
  187.3670  177.7890  145.6310 C   0  0  0  0  0  0  0  0  0  0  0  0
  184.9440  178.4070  145.4830 C   0  0  0  0  0  3  0  0  0  0  0  0
  191.2690  173.6860  143.8790 C   0  0  0  0  0  2  0  0  0  0  0  0
  189.7260  177.1510  145.5050 C   0  0  0  0  0  0  0  0  0  0  0  0
  190.7440  176.6540  143.3500 C   0  0  0  0  0  0  0  0  0  0  0  0
  191.7410  174.9940  141.7620 C   0  0  0  0  0  2  0  0  0  0  0  0
  192.0970  173.7620  142.5970 C   0  0  0  0  0  2  0  0  0  0  0  0
  192.9270  175.2460  145.0220 C   0  0  0  0  0  2  0  0  0  0  0  0
  186.0530  177.9000  143.6200 C   0  0  0  0  0  0  0  0  0  0  0  0
  184.7280  177.9270  140.8610 C   0  0  0  0  0  3  0  0  0  0  0  0
  189.5200  176.8900  142.7220 C   0  0  0  0  0  3  0  0  0  0  0  0
  192.1630  176.4960  145.4680 C   0  0  0  0  0  2  0  0  0  0  0  0
  187.1740  177.5120  142.7990 N   0  0  0  0  0  0  0  0  0  0  0  0
  184.0740  178.5140  144.4550 N   0  0  0  0  0  0  0  0  0  0  0  0
  190.8550  176.7610  144.7520 C   0  0  1  0  0  3  0  0  0  0  0  0
  192.1220  173.9500  145.1220 C   0  0  0  0  0  2  0  0  0  0  0  0
  184.1140  178.2240  142.0680 C   0  0  0  0  0  0  0  0  0  0  0  0
  188.4890  177.4060  144.8570 C   0  0  0  0  0  0  0  0  0  0  0  0
  191.8500  176.2090  142.5610 N   0  0  0  0  0  2  0  0  0  0  0  0
  188.3750  177.2730  143.4420 C   0  0  0  0  0  0  0  0  0  0  0  0
  188.6950  177.6660  147.6520 C   0  0  0  0  0  3  0  0  0  0  0  0
  186.0360  177.5550  140.5940 C   0  0  0  0  0  3  0  0  0  0  0  0
  189.8080  177.2850  146.9010 C   0  0  0  0  0  3  0  0  0  0  0  0
  187.1170  177.3700  141.4460 C   0  0  0  0  0  3  0  0  0  0  0  0
  184.7400  178.2080  143.3140 C   0  0  0  0  0  0  0  0  0  0  0  0
  187.4770  177.9180  147.0200 C   0  0  0  0  0  3  0  0  0  0  0  0
  186.1690  178.0290  144.9750 C   0  0  0  0  0  0  0  0  0  0  0  0
  182.6700  178.6060  141.9900 C   0  0  0  0  0  2  0  0  0  0  0  0
  182.1020  178.2350  140.6310 C   0  0  0  0  0  2  0  0  0  0  0  0
  178.7550  177.7730  141.0170 C   0  0  0  0  0  2  0  0  0  0  0  0
  180.3670  179.3490  141.7450 C   0  0  0  0  0  2  0  0  0  0  0  0
  180.8190  178.8910  140.4370 N   0  0  0  0  0  0  0  0  0  0  0  0
  178.9050  179.0000  141.8680 C   0  0  0  0  0  2  0  0  0  0  0  0
  179.8770  177.8640  140.0040 C   0  0  0  0  0  2  0  0  0  0  0  0
  1 26  1  0  0  0  0
  3 16  1  0  0  0  0
  4 23  2  0  0  0  0
  5 15  1  0  0  0  0
  6 19  1  0  0  0  0
  6  7  1  0  0  0  0
  7  3  1  0  0  0  0
  8 16  1  0  0  0  0
  8 12  1  0  0  0  0
  9 27  1  0  0  0  0
 10 17  2  0  0  0  0
 11  5  2  0  0  0  0
 11 20  1  0  0  0  0
 13 20  1  0  0  0  0
 13  9  1  0  0  0  0
 14  2  2  0  0  0  0
 15 12  1  6  0  0  0
 15  4  1  0  0  0  0
 17 25  1  0  0  0  0
 18  4  1  0  0  0  0
 18  1  1  0  0  0  0
 19  5  1  0  0  0  0
 20 18  2  0  0  0  0
 22 10  1  0  0  0  0
 22 24  2  0  0  0  0
 23 21  1  0  0  0  0
 24 13  1  0  0  0  0
 25  9  2  0  0  0  0
 25 14  1  0  0  0  0
 26 21  2  0  0  0  0
 27  2  1  0  0  0  0
 27  1  2  0  0  0  0
 28 17  1  0  0  0  0
 29 28  1  0  0  0  0
 30 33  1  0  0  0  0
 31 33  1  0  0  0  0
 32 29  1  0  0  0  0
 32 31  1  0  0  0  0
 34 32  1  0  0  0  0
 34 30  1  0  0  0  0
M  END
>  <MODEL>
1

>  <REMARK>
 VINA RESULT:      -9.0      0.000      0.000
  Name = 
  3 active torsions:
  status: ('A' for Active; 'I' for Inactive)
    1  A    between atoms: C_17  and  C_28
    2  A    between atoms: C_28  and  C_29
    3  A    between atoms: C_29  and  N_32
                            x       y       z     vdW  Elec       q    Type
                         _______ _______ _______ _____ _____    ______ ____

>  <TORSDO>
F 3

$$$$
=
 OpenBabel11112417573D

 34 40  0  0  1  0  0  0  0  0999 V2000
  191.2810  176.6730  146.0060 C   0  0  0  0  0  0  0  0  0  0  0  0
  193.7650  176.5550  146.3110 C   0  0  0  0  0  3  0  0  0  0  0  0
  187.1100  178.6680  142.2970 C   0  0  0  0  0  2  0  0  0  0  0  0
  188.8980  176.6980  145.4520 C   0  0  0  0  0  0  0  0  0  0  0  0
  188.1440  175.9530  143.2610 C   0  0  0  0  0  0  0  0  0  0  0  0
  187.1540  176.4800  141.0220 C   0  0  0  0  0  2  0  0  0  0  0  0
  186.4990  177.8570  141.1540 C   0  0  0  0  0  2  0  0  0  0  0  0
  185.5540  177.4950  143.9380 C   0  0  0  0  0  2  0  0  0  0  0  0
  192.8780  175.9320  144.3660 C   0  0  0  0  0  0  0  0  0  0  0  0
  194.5820  174.9270  142.0310 C   0  0  0  0  0  3  0  0  0  0  0  0
  189.4680  175.7100  142.8920 C   0  0  0  0  0  3  0  0  0  0  0  0
  186.4220  176.7630  144.9660 C   0  0  0  0  0  2  0  0  0  0  0  0
  191.8440  175.6740  143.3940 N   0  0  0  0  0  0  0  0  0  0  0  0
  194.7820  176.1720  145.5090 N   0  0  0  0  0  0  0  0  0  0  0  0
  187.8460  176.4720  144.5390 C   0  0  1  0  0  3  0  0  0  0  0  0
  186.1330  178.8280  143.4640 C   0  0  0  0  0  2  0  0  0  0  0  0
  195.0500  175.3380  143.2690 C   0  0  0  0  0  0  0  0  0  0  0  0
  190.2400  176.4330  145.0770 C   0  0  0  0  0  0  0  0  0  0  0  0
  187.1120  175.7620  142.2900 N   0  0  0  0  0  2  0  0  0  0  0  0
  190.5390  175.9320  143.7760 C   0  0  0  0  0  0  0  0  0  0  0  0
  189.6690  177.4270  147.6460 C   0  0  0  0  0  3  0  0  0  0  0  0
  193.2860  174.8690  141.5420 C   0  0  0  0  0  3  0  0  0  0  0  0
  188.6330  177.1960  146.7390 C   0  0  0  0  0  3  0  0  0  0  0  0
  192.0760  175.1980  142.1390 C   0  0  0  0  0  3  0  0  0  0  0  0
  194.2520  175.7890  144.3210 C   0  0  0  0  0  0  0  0  0  0  0  0
  190.9900  177.1660  147.2820 C   0  0  0  0  0  3  0  0  0  0  0  0
  192.5850  176.4090  145.6130 C   0  0  0  0  0  0  0  0  0  0  0  0
  196.5300  175.2600  143.4670 C   0  0  0  0  0  2  0  0  0  0  0  0
  197.0650  173.9510  142.9130 C   0  0  0  0  0  2  0  0  0  0  0  0
  196.9820  173.3900  146.2660 C   0  0  0  0  0  2  0  0  0  0  0  0
  196.8510  172.0750  144.3010 C   0  0  0  0  0  2  0  0  0  0  0  0
  197.7190  173.1980  143.9710 N   0  0  0  0  0  0  0  0  0  0  0  0
  196.7860  171.9760  145.8040 C   0  0  0  0  0  2  0  0  0  0  0  0
  197.7530  174.0600  145.1490 C   0  0  0  0  0  2  0  0  0  0  0  0
  1 26  1  0  0  0  0
  3 16  1  0  0  0  0
  4 23  2  0  0  0  0
  5 15  1  0  0  0  0
  6  7  1  0  0  0  0
  6 19  1  0  0  0  0
  7  3  1  0  0  0  0
  8 12  1  0  0  0  0
  9 27  1  0  0  0  0
 10 17  2  0  0  0  0
 11  5  2  0  0  0  0
 11 20  1  0  0  0  0
 13 20  1  0  0  0  0
 13  9  1  0  0  0  0
 14  2  2  0  0  0  0
 15 12  1  1  0  0  0
 15  4  1  0  0  0  0
 16  8  1  0  0  0  0
 17 28  1  0  0  0  0
 17 25  1  0  0  0  0
 18  4  1  0  0  0  0
 18  1  1  0  0  0  0
 19  5  1  0  0  0  0
 20 18  2  0  0  0  0
 22 10  1  0  0  0  0
 22 24  2  0  0  0  0
 23 21  1  0  0  0  0
 24 13  1  0  0  0  0
 25  9  2  0  0  0  0
 25 14  1  0  0  0  0
 26 21  2  0  0  0  0
 27  1  2  0  0  0  0
 27  2  1  0  0  0  0
 29 28  1  0  0  0  0
 29 32  1  0  0  0  0
 31 33  1  0  0  0  0
 32 31  1  0  0  0  0
 32 34  1  0  0  0  0
 33 30  1  0  0  0  0
 34 30  1  0  0  0  0
M  END
>  <MODEL>
2

>  <REMARK>
 VINA RESULT:      -8.8      3.173      9.921
  Name = 
  3 active torsions:
  status: ('A' for Active; 'I' for Inactive)
    1  A    between atoms: C_17  and  C_28
    2  A    between atoms: C_28  and  C_29
    3  A    between atoms: C_29  and  N_32
                            x       y       z     vdW  Elec       q    Type
                         _______ _______ _______ _____ _____    ______ ____

>  <TORSDO>
F 3

$$$$
=
 OpenBabel11112417573D

 34 40  0  0  1  0  0  0  0  0999 V2000
  190.0470  176.5490  146.2920 C   0  0  0  0  0  0  0  0  0  0  0  0
  187.6660  177.2650  146.6000 C   0  0  0  0  0  3  0  0  0  0  0  0
  193.5360  173.2690  142.7990 C   0  0  0  0  0  2  0  0  0  0  0  0
  192.3440  175.9200  145.7290 C   0  0  0  0  0  0  0  0  0  0  0  0
  193.1760  176.2350  143.4630 C   0  0  0  0  0  0  0  0  0  0  0  0
  193.9490  175.2600  141.2900 C   0  0  0  0  0  2  0  0  0  0  0  0
  194.2780  173.7920  141.5700 C   0  0  0  0  0  2  0  0  0  0  0  0
  195.3690  174.2220  144.2900 C   0  0  0  0  0  2  0  0  0  0  0  0
  188.6080  177.4580  144.5920 C   0  0  0  0  0  0  0  0  0  0  0  0
  187.1030  178.5710  142.1700 C   0  0  0  0  0  3  0  0  0  0  0  0
  191.9300  176.7340  143.0790 C   0  0  0  0  0  3  0  0  0  0  0  0
  194.7230  175.2380  145.2360 C   0  0  0  0  0  2  0  0  0  0  0  0
  189.6420  177.3670  143.5890 N   0  0  0  0  0  0  0  0  0  0  0  0
  186.7370  177.7830  145.7660 N   0  0  0  0  0  0  0  0  0  0  0  0
  193.3890  175.8010  144.7890 C   0  0  1  0  0  3  0  0  0  0  0  0
  194.4880  173.0140  143.9700 C   0  0  0  0  0  2  0  0  0  0  0  0
  186.5940  178.4130  143.4500 C   0  0  0  0  0  0  0  0  0  0  0  0
  191.0850  176.4440  145.3350 C   0  0  0  0  0  0  0  0  0  0  0  0
  194.1930  176.0800  142.4710 N   0  0  0  0  0  2  0  0  0  0  0  0
  190.8660  176.8590  143.9890 C   0  0  0  0  0  0  0  0  0  0  0  0
  191.4980  175.6250  147.9950 C   0  0  0  0  0  3  0  0  0  0  0  0
  188.3620  178.2790  141.6690 C   0  0  0  0  0  3  0  0  0  0  0  0
  192.5290  175.5150  147.0610 C   0  0  0  0  0  3  0  0  0  0  0  0
  189.4840  177.7470  142.2920 C   0  0  0  0  0  3  0  0  0  0  0  0
  187.3010  177.9050  144.5400 C   0  0  0  0  0  0  0  0  0  0  0  0
  190.2590  176.1410  147.6130 C   0  0  0  0  0  3  0  0  0  0  0  0
  188.8250  177.0620  145.8810 C   0  0  0  0  0  0  0  0  0  0  0  0
  185.1780  178.8480  143.6480 C   0  0  0  0  0  2  0  0  0  0  0  0
  184.2380  177.9560  142.8540 C   0  0  0  0  0  2  0  0  0  0  0  0
  182.4070  177.7170  140.0000 C   0  0  0  0  0  2  0  0  0  0  0  0
  182.0780  178.5690  142.1850 C   0  0  0  0  0  2  0  0  0  0  0  0
  183.4940  178.7550  141.8940 N   0  0  0  0  0  0  0  0  0  0  0  0
  181.3680  178.3590  140.8710 C   0  0  0  0  0  2  0  0  0  0  0  0
  183.7320  178.1680  140.5780 C   0  0  0  0  0  2  0  0  0  0  0  0
  1 26  1  0  0  0  0
  3 16  1  0  0  0  0
  4 23  2  0  0  0  0
  5 15  1  0  0  0  0
  6  7  1  0  0  0  0
  6 19  1  0  0  0  0
  7  3  1  0  0  0  0
  8 12  1  0  0  0  0
  9 27  1  0  0  0  0
 10 17  2  0  0  0  0
 11  5  2  0  0  0  0
 11 20  1  0  0  0  0
 13 20  1  0  0  0  0
 13  9  1  0  0  0  0
 14  2  2  0  0  0  0
 15 12  1  1  0  0  0
 15  4  1  0  0  0  0
 16  8  1  0  0  0  0
 17 28  1  0  0  0  0
 17 25  1  0  0  0  0
 18  4  1  0  0  0  0
 18  1  1  0  0  0  0
 19  5  1  0  0  0  0
 20 18  2  0  0  0  0
 22 10  1  0  0  0  0
 22 24  2  0  0  0  0
 23 21  1  0  0  0  0
 24 13  1  0  0  0  0
 25  9  2  0  0  0  0
 25 14  1  0  0  0  0
 26 21  2  0  0  0  0
 27  1  2  0  0  0  0
 27  2  1  0  0  0  0
 29 28  1  0  0  0  0
 30 34  1  0  0  0  0
 30 33  1  0  0  0  0
 32 31  1  0  0  0  0
 32 29  1  0  0  0  0
 33 31  1  0  0  0  0
 34 32  1  0  0  0  0
M  END
>  <MODEL>
3

>  <REMARK>
 VINA RESULT:      -8.6      1.658      2.875
  Name = 
  3 active torsions:
  status: ('A' for Active; 'I' for Inactive)
    1  A    between atoms: C_17  and  C_28
    2  A    between atoms: C_28  and  C_29
    3  A    between atoms: C_29  and  N_32
                            x       y       z     vdW  Elec       q    Type
                         _______ _______ _______ _____ _____    ______ ____

>  <TORSDO>
F 3

$$$$
=
 OpenBabel11112417573D

 34 40  0  0  1  0  0  0  0  0999 V2000
  190.7720  176.4080  145.7160 C   0  0  0  0  0  0  0  0  0  0  0  0
  193.1480  175.7170  145.3230 C   0  0  0  0  0  3  0  0  0  0  0  0
  186.2570  179.2980  143.1860 C   0  0  0  0  0  2  0  0  0  0  0  0
  188.3970  176.9830  145.8490 C   0  0  0  0  0  0  0  0  0  0  0  0
  186.8980  176.4220  144.0140 C   0  0  0  0  0  0  0  0  0  0  0  0
  185.4470  177.1540  142.1090 C   0  0  0  0  0  2  0  0  0  0  0  0
  185.1800  178.6450  142.3200 C   0  0  0  0  0  2  0  0  0  0  0  0
  185.0220  178.5270  145.2760 C   0  0  0  0  0  2  0  0  0  0  0  0
  191.6240  175.3080  143.7530 C   0  0  0  0  0  0  0  0  0  0  0  0
  192.3160  173.9240  141.1120 C   0  0  0  0  0  3  0  0  0  0  0  0
  187.9730  175.8770  143.3090 C   0  0  0  0  0  3  0  0  0  0  0  0
  185.9650  177.6180  146.0700 C   0  0  0  0  0  2  0  0  0  0  0  0
  190.3230  175.2920  143.1290 N   0  0  0  0  0  0  0  0  0  0  0  0
  193.7800  175.1050  144.2980 N   0  0  0  0  0  0  0  0  0  0  0  0
  187.1040  177.0020  145.2840 C   0  0  0  0  0  0  0  0  0  0  0  0
  185.7190  179.6860  144.5650 C   0  0  0  0  0  2  0  0  0  0  0  0
  193.2000  174.2210  142.1380 C   0  0  0  0  0  0  0  0  0  0  0  0
  189.4810  176.4110  145.1340 C   0  0  1  0  0  3  0  0  0  0  0  0
  185.6150  176.4710  143.3870 N   0  0  0  0  0  2  0  0  0  0  0  0
  189.2740  175.8480  143.8400 C   0  0  0  0  0  0  0  0  0  0  0  0
  189.9090  177.5230  147.6830 C   0  0  0  0  0  3  0  0  0  0  0  0
  190.9550  174.1660  141.0100 C   0  0  0  0  0  3  0  0  0  0  0  0
  188.6320  177.5340  147.1200 C   0  0  0  0  0  3  0  0  0  0  0  0
  190.0730  174.7690  141.8970 C   0  0  0  0  0  3  0  0  0  0  0  0
  192.8600  174.8500  143.3360 C   0  0  0  0  0  0  0  0  0  0  0  0
  190.9770  176.9610  146.9840 C   0  0  0  0  0  3  0  0  0  0  0  0
  191.8160  175.8460  144.9940 C   0  0  0  0  0  0  0  0  0  0  0  0
  194.6190  173.8020  141.9210 C   0  0  0  0  0  2  0  0  0  0  0  0
  195.2470  174.6340  140.8160 C   0  0  0  0  0  2  0  0  0  0  0  0
  196.7030  176.7480  143.0460 C   0  0  0  0  0  2  0  0  0  0  0  0
  196.8720  174.4510  142.4940 C   0  0  0  0  0  2  0  0  0  0  0  0
  196.5410  175.1360  141.2510 N   0  0  0  0  0  0  0  0  0  0  0  0
  197.4020  175.4850  143.4560 C   0  0  0  0  0  2  0  0  0  0  0  0
  196.3600  176.5460  141.5850 C   0  0  0  0  0  2  0  0  0  0  0  0
  1 26  1  0  0  0  0
  3 16  1  0  0  0  0
  4 23  2  0  0  0  0
  5 15  2  0  0  0  0
  6  7  1  0  0  0  0
  6 19  1  0  0  0  0
  7  3  1  0  0  0  0
  8 12  1  0  0  0  0
  9 27  1  0  0  0  0
 10 17  2  0  0  0  0
 11 20  2  0  0  0  0
 11  5  1  0  0  0  0
 13  9  1  0  0  0  0
 13 20  1  0  0  0  0
 14  2  2  0  0  0  0
 15  4  1  0  0  0  0
 15 12  1  0  0  0  0
 16  8  1  0  0  0  0
 17 25  1  0  0  0  0
 18 20  1  6  0  0  0
 18  1  1  0  0  0  0
 18  4  1  0  0  0  0
 19  5  1  0  0  0  0
 22 10  1  0  0  0  0
 22 24  2  0  0  0  0
 23 21  1  0  0  0  0
 24 13  1  0  0  0  0
 25  9  2  0  0  0  0
 25 14  1  0  0  0  0
 26 21  2  0  0  0  0
 27  2  1  0  0  0  0
 27  1  2  0  0  0  0
 28 17  1  0  0  0  0
 29 32  1  0  0  0  0
 29 28  1  0  0  0  0
 30 33  1  0  0  0  0
 31 33  1  0  0  0  0
 32 34  1  0  0  0  0
 32 31  1  0  0  0  0
 34 30  1  0  0  0  0
M  END
>  <MODEL>
4

>  <REMARK>
 VINA RESULT:      -8.5      2.727      9.255
  Name = 
  3 active torsions:
  status: ('A' for Active; 'I' for Inactive)
    1  A    between atoms: C_17  and  C_28
    2  A    between atoms: C_28  and  C_29
    3  A    between atoms: C_29  and  N_32
                            x       y       z     vdW  Elec       q    Type
                         _______ _______ _______ _____ _____    ______ ____

>  <TORSDO>
F 3

$$$$
=
 OpenBabel11112417573D

 34 40  0  0  0  0  0  0  0  0999 V2000
  194.1300  175.3630  145.5150 C   0  0  0  0  0  0  0  0  0  0  0  0
  192.3720  175.8280  147.2380 C   0  0  0  0  0  3  0  0  0  0  0  0
  194.9510  172.7920  140.2370 C   0  0  0  0  0  2  0  0  0  0  0  0
  195.6690  175.0040  143.6460 C   0  0  0  0  0  0  0  0  0  0  0  0
  195.0150  175.6280  141.3860 C   0  0  0  0  0  0  0  0  0  0  0  0
  194.3800  174.9600  139.0580 C   0  0  0  0  0  2  0  0  0  0  0  0
  194.8260  173.5060  138.8910 C   0  0  0  0  0  2  0  0  0  0  0  0
  197.2980  173.7430  140.5060 C   0  0  0  0  0  2  0  0  0  0  0  0
  191.9580  176.3130  145.1050 C   0  0  0  0  0  0  0  0  0  0  0  0
  189.3080  177.5360  144.1820 C   0  0  0  0  0  3  0  0  0  0  0  0
  193.7740  176.0520  141.8670 C   0  0  0  0  0  3  0  0  0  0  0  0
  197.3170  174.5930  141.7800 C   0  0  0  0  0  2  0  0  0  0  0  0
  192.2110  176.4210  143.6880 N   0  0  0  0  0  0  0  0  0  0  0  0
  191.1250  176.3450  147.1770 N   0  0  0  0  0  2  0  0  0  0  0  0
  195.9680  175.0780  142.2690 C   0  0  0  0  0  0  0  0  0  0  0  0
  196.4100  172.5020  140.5930 C   0  0  0  0  0  2  0  0  0  0  0  0
  189.6470  177.1990  145.4840 C   0  0  0  0  0  0  0  0  0  0  0  0
  194.4130  175.4530  144.1300 C   0  0  0  0  0  0  0  0  0  0  0  0
  195.2600  175.6700  139.9790 N   0  0  0  0  0  2  0  0  0  0  0  0
  193.4420  175.9850  143.2310 C   0  0  0  0  0  0  0  0  0  0  0  0
  196.3130  174.3990  145.9180 C   0  0  0  0  0  3  0  0  0  0  0  0
  190.0390  177.4110  143.0100 C   0  0  0  0  0  3  0  0  0  0  0  0
  196.6040  174.4800  144.5550 C   0  0  0  0  0  3  0  0  0  0  0  0
  191.3190  176.9190  142.7880 C   0  0  0  0  0  3  0  0  0  0  0  0
  190.8630  176.6460  145.8810 C   0  0  0  0  0  0  0  0  0  0  0  0
  195.0800  174.8390  146.3980 C   0  0  0  0  0  3  0  0  0  0  0  0
  192.8930  175.8050  145.9620 C   0  0  0  0  0  0  0  0  0  0  0  0
  188.6090  177.4830  146.5220 C   0  0  0  0  0  2  0  0  0  0  0  0
  187.5310  176.4140  146.4930 C   0  0  0  0  0  2  0  0  0  0  0  0
  185.4600  179.0790  146.9030 C   0  0  0  0  0  2  0  0  0  0  0  0
  185.2230  176.7900  146.3450 C   0  0  0  0  0  2  0  0  0  0  0  0
  186.3690  176.8640  147.2420 N   0  0  0  0  0  0  0  0  0  0  0  0
  184.4290  178.0600  146.5150 C   0  0  0  0  0  2  0  0  0  0  0  0
  186.5760  178.2790  147.5390 C   0  0  0  0  0  2  0  0  0  0  0  0
  1 27  1  0  0  0  0
  1 26  1  0  0  0  0
  3 16  1  0  0  0  0
  4 18  1  0  0  0  0
  4 23  2  0  0  0  0
  5 11  1  0  0  0  0
  5 15  2  0  0  0  0
  6 19  1  0  0  0  0
  7  6  1  0  0  0  0
  7  3  1  0  0  0  0
  8 16  1  0  0  0  0
  8 12  1  0  0  0  0
  9 25  2  0  0  0  0
  9 27  1  0  0  0  0
 10 17  2  0  0  0  0
 11 20  2  0  0  0  0
 12 15  1  0  0  0  0
 13  9  1  0  0  0  0
 14  2  1  0  0  0  0
 15  4  1  0  0  0  0
 17 25  1  0  0  0  0
 17 28  1  0  0  0  0
 18  1  2  0  0  0  0
 19  5  1  0  0  0  0
 20 13  1  0  0  0  0
 20 18  1  0  0  0  0
 21 26  2  0  0  0  0
 22 10  1  0  0  0  0
 23 21  1  0  0  0  0
 24 22  2  0  0  0  0
 24 13  1  0  0  0  0
 25 14  1  0  0  0  0
 27  2  2  0  0  0  0
 29 28  1  0  0  0  0
 29 32  1  0  0  0  0
 30 34  1  0  0  0  0
 31 33  1  0  0  0  0
 31 32  1  0  0  0  0
 32 34  1  0  0  0  0
 33 30  1  0  0  0  0
M  END
>  <MODEL>
5

>  <REMARK>
 VINA RESULT:      -8.5      4.027      6.748
  Name = 
  3 active torsions:
  status: ('A' for Active; 'I' for Inactive)
    1  A    between atoms: C_17  and  C_28
    2  A    between atoms: C_28  and  C_29
    3  A    between atoms: C_29  and  N_32
                            x       y       z     vdW  Elec       q    Type
                         _______ _______ _______ _____ _____    ______ ____

>  <TORSDO>
F 3

$$$$
=
 OpenBabel11112417573D

 34 40  0  0  1  0  0  0  0  0999 V2000
  192.3240  176.1060  145.0100 C   0  0  0  0  0  0  0  0  0  0  0  0
  190.2750  177.5460  144.9550 C   0  0  0  0  0  3  0  0  0  0  0  0
  194.0660  170.4410  145.0470 C   0  0  0  0  0  2  0  0  0  0  0  0
  194.2150  174.5600  144.8550 C   0  0  0  0  0  0  0  0  0  0  0  0
  194.2420  172.8300  143.1430 C   0  0  0  0  0  0  0  0  0  0  0  0
  194.1220  170.4090  142.5150 C   0  0  0  0  0  2  0  0  0  0  0  0
  194.3850  169.6190  143.7990 C   0  0  0  0  0  2  0  0  0  0  0  0
  196.3820  171.4930  144.9250 C   0  0  0  0  0  2  0  0  0  0  0  0
  190.4820  175.8930  143.4780 C   0  0  0  0  0  0  0  0  0  0  0  0
  188.3480  175.3030  141.3640 C   0  0  0  0  0  3  0  0  0  0  0  0
  192.9940  173.2630  142.6920 C   0  0  0  0  0  3  0  0  0  0  0  0
  196.2020  173.0070  144.7720 C   0  0  0  0  0  2  0  0  0  0  0  0
  191.0930  174.7700  142.8110 N   0  0  0  0  0  0  0  0  0  0  0  0
  189.1700  177.5600  144.1780 N   0  0  0  0  0  0  0  0  0  0  0  0
  194.8560  173.4610  144.2450 C   0  0  1  0  0  3  0  0  0  0  0  0
  195.3340  170.8240  145.8130 C   0  0  0  0  0  2  0  0  0  0  0  0
  188.2990  176.3040  142.3210 C   0  0  0  0  0  0  0  0  0  0  0  0
  192.9540  175.0060  144.3800 C   0  0  0  0  0  0  0  0  0  0  0  0
  194.8350  171.6810  142.5340 N   0  0  0  0  0  2  0  0  0  0  0  0
  192.3250  174.3500  143.2810 C   0  0  0  0  0  0  0  0  0  0  0  0
  194.1780  176.3080  146.5540 C   0  0  0  0  0  3  0  0  0  0  0  0
  189.3240  174.3470  141.1240 C   0  0  0  0  0  3  0  0  0  0  0  0
  194.8080  175.2230  145.9420 C   0  0  0  0  0  3  0  0  0  0  0  0
  190.5350  174.1090  141.7590 C   0  0  0  0  0  3  0  0  0  0  0  0
  189.2860  176.5570  143.2730 C   0  0  0  0  0  0  0  0  0  0  0  0
  192.9390  176.7490  146.0890 C   0  0  0  0  0  3  0  0  0  0  0  0
  191.0900  176.5200  144.5280 C   0  0  0  0  0  0  0  0  0  0  0  0
  187.0860  177.1780  142.2900 C   0  0  0  0  0  2  0  0  0  0  0  0
  185.9760  176.5650  143.1270 C   0  0  0  0  0  2  0  0  0  0  0  0
  185.6700  179.0880  145.3850 C   0  0  0  0  0  2  0  0  0  0  0  0
  185.5480  178.8670  143.0300 C   0  0  0  0  0  2  0  0  0  0  0  0
  185.0630  177.6050  143.5740 N   0  0  0  0  0  0  0  0  0  0  0  0
  185.4810  179.8930  144.1330 C   0  0  0  0  0  2  0  0  0  0  0  0
  185.2000  177.6940  145.0250 C   0  0  0  0  0  2  0  0  0  0  0  0
  1 26  1  0  0  0  0
  3 16  1  0  0  0  0
  4 23  2  0  0  0  0
  5 15  1  0  0  0  0
  6 19  1  0  0  0  0
  6  7  1  0  0  0  0
  7  3  1  0  0  0  0
  8 16  1  0  0  0  0
  9 27  1  0  0  0  0
 10 17  2  0  0  0  0
 11  5  2  0  0  0  0
 11 20  1  0  0  0  0
 12  8  1  0  0  0  0
 13 20  1  0  0  0  0
 13  9  1  0  0  0  0
 14  2  2  0  0  0  0
 15 12  1  6  0  0  0
 15  4  1  0  0  0  0
 17 25  1  0  0  0  0
 18  4  1  0  0  0  0
 18  1  1  0  0  0  0
 19  5  1  0  0  0  0
 20 18  2  0  0  0  0
 22 10  1  0  0  0  0
 22 24  2  0  0  0  0
 23 21  1  0  0  0  0
 24 13  1  0  0  0  0
 25  9  2  0  0  0  0
 25 14  1  0  0  0  0
 26 21  2  0  0  0  0
 27  2  1  0  0  0  0
 27  1  2  0  0  0  0
 28 17  1  0  0  0  0
 28 29  1  0  0  0  0
 29 32  1  0  0  0  0
 31 32  1  0  0  0  0
 31 33  1  0  0  0  0
 32 34  1  0  0  0  0
 33 30  1  0  0  0  0
 34 30  1  0  0  0  0
M  END
>  <MODEL>
6

>  <REMARK>
 VINA RESULT:      -8.5      2.946      5.339
  Name = 
  3 active torsions:
  status: ('A' for Active; 'I' for Inactive)
    1  A    between atoms: C_17  and  C_28
    2  A    between atoms: C_28  and  C_29
    3  A    between atoms: C_29  and  N_32
                            x       y       z     vdW  Elec       q    Type
                         _______ _______ _______ _____ _____    ______ ____

>  <TORSDO>
F 3

$$$$
=
 OpenBabel11112417573D

 34 40  0  0  1  0  0  0  0  0999 V2000
  187.4830  176.0680  140.8340 C   0  0  0  0  0  0  0  0  0  0  0  0
  188.2440  174.3040  139.2280 C   0  0  0  0  0  3  0  0  0  0  0  0
  185.1340  176.7910  146.2290 C   0  0  0  0  0  2  0  0  0  0  0  0
  186.8860  177.6600  142.5950 C   0  0  0  0  0  0  0  0  0  0  0  0
  187.7930  177.3980  144.8390 C   0  0  0  0  0  0  0  0  0  0  0  0
  187.4460  176.8600  147.2600 C   0  0  0  0  0  2  0  0  0  0  0  0
  185.9410  176.9710  147.5140 C   0  0  0  0  0  2  0  0  0  0  0  0
  185.4760  179.2560  145.6880 C   0  0  0  0  0  2  0  0  0  0  0  0
  188.9500  174.2290  141.3380 C   0  0  0  0  0  0  0  0  0  0  0  0
  190.8280  172.0420  142.3660 C   0  0  0  0  0  3  0  0  0  0  0  0
  188.4690  176.2480  144.4260 C   0  0  0  0  0  3  0  0  0  0  0  0
  186.2130  179.3450  144.3490 C   0  0  0  0  0  2  0  0  0  0  0  0
  189.0840  174.6400  142.7140 N   0  0  0  0  0  0  0  0  0  0  0  0
  189.0480  173.2240  139.3460 N   0  0  0  0  0  0  0  0  0  0  0  0
  186.9750  178.1040  143.9310 C   0  0  0  0  0  0  0  0  0  0  0  0
  184.4810  178.1000  145.7810 C   0  0  0  0  0  2  0  0  0  0  0  0
  190.3370  172.1610  141.0740 C   0  0  0  0  0  0  0  0  0  0  0  0
  187.5910  176.5010  142.1790 C   0  0  1  0  0  3  0  0  0  0  0  0
  187.8640  177.7850  146.2130 N   0  0  0  0  0  2  0  0  0  0  0  0
  188.3970  175.7760  143.1050 C   0  0  0  0  0  0  0  0  0  0  0  0
  186.0000  177.9160  140.3390 C   0  0  0  0  0  3  0  0  0  0  0  0
  190.6070  172.8370  143.4800 C   0  0  0  0  0  3  0  0  0  0  0  0
  186.0960  178.3520  141.6620 C   0  0  0  0  0  3  0  0  0  0  0  0
  189.8390  173.9830  143.6380 C   0  0  0  0  0  3  0  0  0  0  0  0
  189.4840  173.1700  140.6280 C   0  0  0  0  0  0  0  0  0  0  0  0
  186.6920  176.7780  139.9250 C   0  0  0  0  0  3  0  0  0  0  0  0
  188.1790  174.9300  140.4540 C   0  0  0  0  0  0  0  0  0  0  0  0
  190.7950  171.1200  140.1030 C   0  0  0  0  0  2  0  0  0  0  0  0
  192.0370  171.5970  139.3700 C   0  0  0  0  0  2  0  0  0  0  0  0
  189.9500  170.7390  136.8260 C   0  0  0  0  0  2  0  0  0  0  0  0
  191.7730  172.2210  137.1270 C   0  0  0  0  0  2  0  0  0  0  0  0
  192.0310  171.0890  138.0070 N   0  0  0  0  0  0  0  0  0  0  0  0
  190.7560  171.7800  136.1050 C   0  0  0  0  0  2  0  0  0  0  0  0
  190.8800  170.1970  137.8910 C   0  0  0  0  0  2  0  0  0  0  0  0
  2 14  2  0  0  0  0
  2 27  1  0  0  0  0
  3  7  1  0  0  0  0
  4 15  1  0  0  0  0
  5 19  1  0  0  0  0
  6  7  1  0  0  0  0
  8 16  1  0  0  0  0
  9 13  1  0  0  0  0
 10 22  1  0  0  0  0
 11  5  1  0  0  0  0
 12  8  1  0  0  0  0
 13 20  1  0  0  0  0
 13 24  1  0  0  0  0
 14 25  1  0  0  0  0
 15 12  1  0  0  0  0
 15  5  2  0  0  0  0
 16  3  1  0  0  0  0
 17 10  2  0  0  0  0
 18  1  1  1  0  0  0
 18  4  1  0  0  0  0
 18 20  1  0  0  0  0
 19  6  1  0  0  0  0
 20 11  2  0  0  0  0
 21 23  1  0  0  0  0
 22 24  2  0  0  0  0
 23  4  2  0  0  0  0
 25 17  1  0  0  0  0
 25  9  2  0  0  0  0
 26 21  2  0  0  0  0
 26  1  1  0  0  0  0
 27  1  2  0  0  0  0
 27  9  1  0  0  0  0
 28 17  1  0  0  0  0
 29 28  1  0  0  0  0
 30 34  1  0  0  0  0
 31 32  1  0  0  0  0
 32 29  1  0  0  0  0
 33 30  1  0  0  0  0
 33 31  1  0  0  0  0
 34 32  1  0  0  0  0
M  END
>  <MODEL>
7

>  <REMARK>
 VINA RESULT:      -8.4      3.504      8.422
  Name = 
  3 active torsions:
  status: ('A' for Active; 'I' for Inactive)
    1  A    between atoms: C_17  and  C_28
    2  A    between atoms: C_28  and  C_29
    3  A    between atoms: C_29  and  N_32
                            x       y       z     vdW  Elec       q    Type
                         _______ _______ _______ _____ _____    ______ ____

>  <TORSDO>
F 3

$$$$
=
 OpenBabel11112417573D

 34 40  0  0  0  0  0  0  0  0999 V2000
  191.8550  175.8920  145.2770 C   0  0  0  0  0  0  0  0  0  0  0  0
  190.0770  177.5660  145.8370 C   0  0  0  0  0  3  0  0  0  0  0  0
  192.6630  170.1440  144.0780 C   0  0  0  0  0  2  0  0  0  0  0  0
  193.4280  174.1740  144.5270 C   0  0  0  0  0  0  0  0  0  0  0  0
  192.9060  172.8040  142.5840 C   0  0  0  0  0  0  0  0  0  0  0  0
  192.3060  170.5770  141.6080 C   0  0  0  0  0  2  0  0  0  0  0  0
  192.6440  169.5350  142.6760 C   0  0  0  0  0  2  0  0  0  0  0  0
  195.0660  170.8980  143.6990 C   0  0  0  0  0  2  0  0  0  0  0  0
  189.7800  176.2040  144.1010 C   0  0  0  0  0  0  0  0  0  0  0  0
  187.2680  176.2940  142.3540 C   0  0  0  0  0  3  0  0  0  0  0  0
  191.6860  173.4690  142.4480 C   0  0  0  0  0  3  0  0  0  0  0  0
  195.1050  172.4230  143.8270 C   0  0  0  0  0  2  0  0  0  0  0  0
  190.0910  175.1560  143.1590 N   0  0  0  0  0  0  0  0  0  0  0  0
  188.8770  177.8650  145.2910 N   0  0  0  0  0  2  0  0  0  0  0  0
  193.7810  173.1350  143.6400 C   0  0  0  0  0  0  0  0  0  0  0  0
  194.0820  170.2130  144.6460 C   0  0  0  0  0  2  0  0  0  0  0  0
  187.5320  177.0980  143.4520 C   0  0  0  0  0  0  0  0  0  0  0  0
  192.1940  174.8570  144.3720 C   0  0  0  0  0  0  0  0  0  0  0  0
  193.2050  171.7220  141.6990 N   0  0  0  0  0  2  0  0  0  0  0  0
  191.3010  174.5030  143.3180 C   0  0  0  0  0  0  0  0  0  0  0  0
  193.9410  175.5650  146.4620 C   0  0  0  0  0  3  0  0  0  0  0  0
  188.0290  175.2840  141.7850 C   0  0  0  0  0  3  0  0  0  0  0  0
  194.2860  174.5420  145.5770 C   0  0  0  0  0  3  0  0  0  0  0  0
  189.2740  174.7790  142.1380 C   0  0  0  0  0  3  0  0  0  0  0  0
  188.6870  177.0410  144.2310 C   0  0  0  0  0  0  0  0  0  0  0  0
  192.7290  176.2400  146.3130 C   0  0  0  0  0  3  0  0  0  0  0  0
  190.6410  176.5420  145.1070 C   0  0  0  0  0  0  0  0  0  0  0  0
  186.4840  178.1090  143.7880 C   0  0  0  0  0  2  0  0  0  0  0  0
  185.1740  177.4160  144.1220 C   0  0  0  0  0  2  0  0  0  0  0  0
  186.0030  177.5110  147.4180 C   0  0  0  0  0  2  0  0  0  0  0  0
  185.4230  179.0850  145.7470 C   0  0  0  0  0  2  0  0  0  0  0  0
  184.6930  177.8680  145.4180 N   0  0  0  0  0  0  0  0  0  0  0  0
  185.8460  178.9860  147.1910 C   0  0  0  0  0  2  0  0  0  0  0  0
  185.0950  176.8610  146.3960 C   0  0  0  0  0  2  0  0  0  0  0  0
  1 26  1  0  0  0  0
  3 16  1  0  0  0  0
  4 23  2  0  0  0  0
  5 15  2  0  0  0  0
  6 19  1  0  0  0  0
  6  7  1  0  0  0  0
  7  3  1  0  0  0  0
  8 12  1  0  0  0  0
  8 16  1  0  0  0  0
  9 25  2  0  0  0  0
  9 27  1  0  0  0  0
 10 17  2  0  0  0  0
 11  5  1  0  0  0  0
 11 20  2  0  0  0  0
 13 20  1  0  0  0  0
 13  9  1  0  0  0  0
 14  2  1  0  0  0  0
 15 12  1  0  0  0  0
 15  4  1  0  0  0  0
 17 28  1  0  0  0  0
 17 25  1  0  0  0  0
 18  4  1  0  0  0  0
 18  1  2  0  0  0  0
 19  5  1  0  0  0  0
 20 18  1  0  0  0  0
 22 24  2  0  0  0  0
 22 10  1  0  0  0  0
 23 21  1  0  0  0  0
 24 13  1  0  0  0  0
 25 14  1  0  0  0  0
 26 21  2  0  0  0  0
 27  1  1  0  0  0  0
 27  2  2  0  0  0  0
 28 29  1  0  0  0  0
 29 32  1  0  0  0  0
 31 33  1  0  0  0  0
 32 31  1  0  0  0  0
 32 34  1  0  0  0  0
 33 30  1  0  0  0  0
 34 30  1  0  0  0  0
M  END
>  <MODEL>
8

>  <REMARK>
 VINA RESULT:      -8.3      3.078      5.193
  Name = 
  3 active torsions:
  status: ('A' for Active; 'I' for Inactive)
    1  A    between atoms: C_17  and  C_28
    2  A    between atoms: C_28  and  C_29
    3  A    between atoms: C_29  and  N_32
                            x       y       z     vdW  Elec       q    Type
                         _______ _______ _______ _____ _____    ______ ____

>  <TORSDO>
F 3

$$$$
=
 OpenBabel11112417573D

 34 40  0  0  1  0  0  0  0  0999 V2000
  187.7320  175.8920  141.0530 C   0  0  0  0  0  0  0  0  0  0  0  0
  188.5660  174.0180  139.6150 C   0  0  0  0  0  3  0  0  0  0  0  0
  184.9070  176.9830  146.1490 C   0  0  0  0  0  2  0  0  0  0  0  0
  187.0400  177.5940  142.6690 C   0  0  0  0  0  0  0  0  0  0  0  0
  187.7120  177.4120  145.0010 C   0  0  0  0  0  0  0  0  0  0  0  0
  187.1100  177.0140  147.3990 C   0  0  0  0  0  2  0  0  0  0  0  0
  185.5940  177.1970  147.4980 C   0  0  0  0  0  2  0  0  0  0  0  0
  185.4090  179.4020  145.5290 C   0  0  0  0  0  2  0  0  0  0  0  0
  189.0610  174.0250  141.7850 C   0  0  0  0  0  0  0  0  0  0  0  0
  190.7320  171.8210  143.0960 C   0  0  0  0  0  3  0  0  0  0  0  0
  188.3740  176.2170  144.7120 C   0  0  0  0  0  3  0  0  0  0  0  0
  186.2750  179.3920  144.2660 C   0  0  0  0  0  2  0  0  0  0  0  0
  189.0800  174.5000  143.1470 N   0  0  0  0  0  0  0  0  0  0  0  0
  189.3060  172.9150  139.8620 N   0  0  0  0  0  0  0  0  0  0  0  0
  187.0180  178.1020  143.9850 C   0  0  0  0  0  0  0  0  0  0  0  0
  184.3590  178.2920  145.5770 C   0  0  0  0  0  2  0  0  0  0  0  0
  190.3750  171.8930  141.7580 C   0  0  0  0  0  0  0  0  0  0  0  0
  187.7290  176.3880  142.3790 C   0  0  1  0  0  3  0  0  0  0  0  0
  187.6680  177.8660  146.3550 N   0  0  0  0  0  2  0  0  0  0  0  0
  188.4090  175.6800  143.4140 C   0  0  0  0  0  0  0  0  0  0  0  0
  186.3870  177.7690  140.3270 C   0  0  0  0  0  3  0  0  0  0  0  0
  190.4400  172.6800  144.1440 C   0  0  0  0  0  3  0  0  0  0  0  0
  186.3750  178.2680  141.6300 C   0  0  0  0  0  3  0  0  0  0  0  0
  189.7120  173.8620  144.1710 C   0  0  0  0  0  3  0  0  0  0  0  0
  189.6140  172.9100  141.1830 C   0  0  0  0  0  0  0  0  0  0  0  0
  187.0650  176.5840  140.0380 C   0  0  0  0  0  3  0  0  0  0  0  0
  188.4110  174.7090  140.7970 C   0  0  0  0  0  0  0  0  0  0  0  0
  190.8770  170.7860  140.8870 C   0  0  0  0  0  2  0  0  0  0  0  0
  190.8160  169.4630  141.6320 C   0  0  0  0  0  2  0  0  0  0  0  0
  194.1600  169.9860  141.9570 C   0  0  0  0  0  2  0  0  0  0  0  0
  192.5480  168.5360  142.9090 C   0  0  0  0  0  2  0  0  0  0  0  0
  192.1000  168.7880  141.5450 N   0  0  0  0  0  0  0  0  0  0  0  0
  194.0090  168.9030  142.9840 C   0  0  0  0  0  2  0  0  0  0  0  0
  193.0430  169.7390  140.9640 C   0  0  0  0  0  2  0  0  0  0  0  0
  2 14  2  0  0  0  0
  2 27  1  0  0  0  0
  3  7  1  0  0  0  0
  4 15  1  0  0  0  0
  5 19  1  0  0  0  0
  6  7  1  0  0  0  0
  8 16  1  0  0  0  0
  9 13  1  0  0  0  0
 10 22  1  0  0  0  0
 11  5  1  0  0  0  0
 12  8  1  0  0  0  0
 13 20  1  0  0  0  0
 13 24  1  0  0  0  0
 14 25  1  0  0  0  0
 15 12  1  0  0  0  0
 15  5  2  0  0  0  0
 16  3  1  0  0  0  0
 17 10  2  0  0  0  0
 18  1  1  1  0  0  0
 18  4  1  0  0  0  0
 18 20  1  0  0  0  0
 19  6  1  0  0  0  0
 20 11  2  0  0  0  0
 21 23  1  0  0  0  0
 22 24  2  0  0  0  0
 23  4  2  0  0  0  0
 25 17  1  0  0  0  0
 25  9  2  0  0  0  0
 26 21  2  0  0  0  0
 26  1  1  0  0  0  0
 27  1  2  0  0  0  0
 27  9  1  0  0  0  0
 28 29  1  0  0  0  0
 28 17  1  0  0  0  0
 30 33  1  0  0  0  0
 31 33  1  0  0  0  0
 32 29  1  0  0  0  0
 32 31  1  0  0  0  0
 34 32  1  0  0  0  0
 34 30  1  0  0  0  0
M  END
>  <MODEL>
9

>  <REMARK>
 VINA RESULT:      -8.2      3.550      9.121
  Name = 
  3 active torsions:
  status: ('A' for Active; 'I' for Inactive)
    1  A    between atoms: C_17  and  C_28
    2  A    between atoms: C_28  and  C_29
    3  A    between atoms: C_29  and  N_32
                            x       y       z     vdW  Elec       q    Type
                         _______ _______ _______ _____ _____    ______ ____

>  <TORSDO>
F 3

$$$$
