=
 OpenBabel11112418013D

 34 42  0  0  1  0  0  0  0  0999 V2000
  189.4610  175.2370  142.6610 C   0  0  0  0  0  0  0  0  0  0  0  0
  191.8340  174.3630  142.1620 C   0  0  0  0  0  3  0  0  0  0  0  0
  185.0360  178.6010  146.4580 C   0  0  1  0  0  0  0  0  0  0  0  0
  187.3330  176.2850  143.2490 C   0  0  0  0  0  0  0  0  0  0  0  0
  187.0900  177.4000  145.4950 C   0  0  0  0  0  0  0  0  0  0  0  0
  186.4730  178.4660  147.7750 C   0  0  1  0  0  3  0  0  0  0  0  0
  185.1390  178.8600  147.8590 O   0  0  0  0  0  0  0  0  0  0  0  0
  184.4010  178.5760  144.1470 C   0  0  0  0  0  3  0  0  0  0  0  0
  191.3520  175.1950  144.2740 C   0  0  0  0  0  0  0  0  0  0  0  0
  193.3470  175.5430  146.5610 C   0  0  0  0  0  3  0  0  0  0  0  0
  188.4180  176.9720  145.7980 N   0  0  0  0  0  2  0  0  0  0  0  0
  185.3760  177.8180  143.6110 C   0  0  0  0  0  3  0  0  0  0  0  0
  190.5810  175.9310  145.3270 C   0  0  1  0  0  3  0  0  0  0  0  0
  193.0480  174.5210  142.9540 N   0  0  0  0  0  0  0  0  0  0  0  0
  186.3740  176.8750  144.2700 C   0  0  1  0  0  3  0  0  0  0  0  0
  184.1490  178.8070  145.5440 N   0  0  0  0  0  2  0  0  0  0  0  0
  193.6430  175.5050  145.2550 C   0  0  0  0  0  0  0  0  0  0  0  0
  188.6290  175.8510  143.6200 C   0  0  0  0  0  0  0  0  0  0  0  0
  186.3980  178.0390  146.4170 C   0  0  0  0  0  0  0  0  0  0  0  0
  189.0610  175.8830  145.0760 C   0  0  2  0  0  3  0  0  0  0  0  0
  187.7360  175.4790  140.9830 C   0  0  0  0  0  3  0  0  0  0  0  0
  192.0660  175.2220  147.2170 C   0  0  0  0  0  3  0  0  0  0  0  0
  186.9010  176.0740  141.9280 C   0  0  0  0  0  3  0  0  0  0  0  0
  190.8530  175.3540  146.6790 C   0  0  0  0  0  3  0  0  0  0  0  0
  192.6670  175.0600  144.2200 C   0  0  0  0  0  0  0  0  0  0  0  0
  189.0140  175.0640  141.3480 C   0  0  0  0  0  3  0  0  0  0  0  0
  190.7680  174.8090  143.0470 N   0  0  0  0  0  0  0  0  0  0  0  0
  194.9490  175.8890  144.9180 O   0  0  0  0  0  0  0  0  0  0  0  0
  196.0580  175.0020  144.8260 C   0  0  0  0  0  2  0  0  0  0  0  0
  196.0240  175.2700  141.5740 O   0  0  0  0  0  0  0  0  0  0  0  0
  196.6150  176.8240  143.2490 C   0  0  0  0  0  2  0  0  0  0  0  0
  197.0030  175.4540  143.7250 C   0  0  2  0  0  3  0  0  0  0  0  0
  196.3120  176.6260  141.7840 C   0  0  0  0  0  2  0  0  0  0  0  0
  196.8120  174.5790  142.5060 C   0  0  0  0  0  2  0  0  0  0  0  0
  1 27  1  0  0  0  0
  1 18  1  0  0  0  0
  2 14  2  0  0  0  0
  2 27  1  0  0  0  0
  3 16  1  6  0  0  0
  3  6  1  0  0  0  0
  3  7  1  0  0  0  0
  4 18  2  0  0  0  0
  4 15  1  0  0  0  0
  5 11  1  0  0  0  0
  5 19  2  0  0  0  0
  6 19  1  1  0  0  0
  6  7  1  0  0  0  0
  8 16  1  0  0  0  0
  9 13  1  0  0  0  0
 10 22  1  0  0  0  0
 12  8  2  0  0  0  0
 13 24  1  1  0  0  0
 14 25  1  0  0  0  0
 15 12  1  6  0  0  0
 15  5  1  0  0  0  0
 17 10  2  0  0  0  0
 19  3  1  0  0  0  0
 20 18  1  6  0  0  0
 20 13  1  0  0  0  0
 20 11  1  0  0  0  0
 21 26  1  0  0  0  0
 21 23  2  0  0  0  0
 23  4  1  0  0  0  0
 24 22  2  0  0  0  0
 25  9  2  0  0  0  0
 25 17  1  0  0  0  0
 26  1  2  0  0  0  0
 27  9  1  0  0  0  0
 28 17  1  0  0  0  0
 29 28  1  0  0  0  0
 30 33  1  0  0  0  0
 30 34  1  0  0  0  0
 31 32  1  0  0  0  0
 32 29  1  1  0  0  0
 33 31  1  0  0  0  0
 34 32  1  0  0  0  0
M  END
>  <MODEL>
1

>  <REMARK>
 VINA RESULT:      -9.1      0.000      0.000
  Name = 
  3 active torsions:
  status: ('A' for Active; 'I' for Inactive)
    1  A    between atoms: C_17  and  O_28
    2  A    between atoms: O_28  and  C_29
    3  A    between atoms: C_29  and  C_32
                            x       y       z     vdW  Elec       q    Type
                         _______ _______ _______ _____ _____    ______ ____

>  <TORSDO>
F 3

$$$$
=
 OpenBabel11112418013D

 34 42  0  0  1  0  0  0  0  0999 V2000
  188.7710  177.5530  146.4820 C   0  0  0  0  0  0  0  0  0  0  0  0
  190.8060  176.7230  147.8260 C   0  0  0  0  0  3  0  0  0  0  0  0
  185.1830  178.0340  140.8060 C   0  0  1  0  0  0  0  0  0  0  0  0
  186.8590  178.1050  145.0640 C   0  0  0  0  0  0  0  0  0  0  0  0
  186.9730  177.6100  142.5960 C   0  0  0  0  0  0  0  0  0  0  0  0
  186.8490  177.3860  140.0170 C   0  0  1  0  0  3  0  0  0  0  0  0
  185.6770  177.9080  139.4730 O   0  0  0  0  0  0  0  0  0  0  0  0
  183.8040  178.2130  142.7590 C   0  0  0  0  0  3  0  0  0  0  0  0
  190.8420  176.5820  145.5100 C   0  0  0  0  0  0  0  0  0  0  0  0
  193.0510  175.3100  143.8250 C   0  0  0  0  0  3  0  0  0  0  0  0
  188.3110  177.1560  142.7980 N   0  0  0  0  0  2  0  0  0  0  0  0
  184.7230  178.1510  143.7400 C   0  0  0  0  0  3  0  0  0  0  0  0
  190.2920  176.5880  144.1160 C   0  0  1  0  0  3  0  0  0  0  0  0
  191.9410  175.9310  147.3640 N   0  0  0  0  0  0  0  0  0  0  0  0
  186.2340  178.3380  143.6970 C   0  0  1  0  0  3  0  0  0  0  0  0
  184.0480  178.3280  141.3470 N   0  0  0  0  0  2  0  0  0  0  0  0
  192.7720  175.0260  145.1050 C   0  0  0  0  0  0  0  0  0  0  0  0
  188.2030  177.6830  145.1970 C   0  0  0  0  0  0  0  0  0  0  0  0
  186.4810  177.6290  141.3740 C   0  0  0  0  0  0  0  0  0  0  0  0
  189.0860  177.5370  143.9700 C   0  0  2  0  0  3  0  0  0  0  0  0
  186.6890  178.2590  147.4920 C   0  0  0  0  0  3  0  0  0  0  0  0
  192.5290  176.4160  143.0010 C   0  0  0  0  0  3  0  0  0  0  0  0
  186.1240  178.4030  146.2250 C   0  0  0  0  0  3  0  0  0  0  0  0
  191.3420  177.0070  143.1370 C   0  0  0  0  0  3  0  0  0  0  0  0
  191.8720  175.8720  145.9400 C   0  0  0  0  0  0  0  0  0  0  0  0
  188.0080  177.8320  147.6200 C   0  0  0  0  0  3  0  0  0  0  0  0
  190.1270  177.1200  146.6030 N   0  0  0  0  0  0  0  0  0  0  0  0
  193.4030  173.8870  145.6250 O   0  0  0  0  0  0  0  0  0  0  0  0
  194.5770  173.2910  145.0830 C   0  0  0  0  0  2  0  0  0  0  0  0
  197.8050  172.8170  145.0120 O   0  0  0  0  0  0  0  0  0  0  0  0
  196.5240  174.7850  144.7780 C   0  0  0  0  0  2  0  0  0  0  0  0
  195.8150  173.8780  145.7410 C   0  0  2  0  0  3  0  0  0  0  0  0
  197.8930  174.1660  144.6380 C   0  0  0  0  0  2  0  0  0  0  0  0
  196.8160  172.7760  146.0060 C   0  0  0  0  0  2  0  0  0  0  0  0
  1 27  1  0  0  0  0
  1 26  1  0  0  0  0
  3  7  1  6  0  0  0
  3 16  1  0  0  0  0
  3 19  1  0  0  0  0
  4 18  1  0  0  0  0
  4 23  2  0  0  0  0
  5 11  1  0  0  0  0
  5 15  1  0  0  0  0
  6  7  1  6  0  0  0
  6  3  1  0  0  0  0
  6 19  1  0  0  0  0
  8 12  2  0  0  0  0
  9 25  2  0  0  0  0
  9 27  1  0  0  0  0
 10 17  2  0  0  0  0
 13 24  1  6  0  0  0
 13  9  1  0  0  0  0
 14  2  2  0  0  0  0
 15 12  1  1  0  0  0
 15  4  1  0  0  0  0
 16  8  1  0  0  0  0
 17 28  1  0  0  0  0
 17 25  1  0  0  0  0
 18  1  2  0  0  0  0
 19  5  2  0  0  0  0
 20 11  1  6  0  0  0
 20 13  1  0  0  0  0
 20 18  1  0  0  0  0
 21 26  2  0  0  0  0
 22 24  2  0  0  0  0
 22 10  1  0  0  0  0
 23 21  1  0  0  0  0
 25 14  1  0  0  0  0
 27  2  1  0  0  0  0
 29 28  1  0  0  0  0
 30 34  1  0  0  0  0
 31 32  1  0  0  0  0
 32 29  1  6  0  0  0
 32 34  1  0  0  0  0
 33 31  1  0  0  0  0
 33 30  1  0  0  0  0
M  END
>  <MODEL>
2

>  <REMARK>
 VINA RESULT:      -9.0      2.637      4.221
  Name = 
  3 active torsions:
  status: ('A' for Active; 'I' for Inactive)
    1  A    between atoms: C_17  and  O_28
    2  A    between atoms: O_28  and  C_29
    3  A    between atoms: C_29  and  C_32
                            x       y       z     vdW  Elec       q    Type
                         _______ _______ _______ _____ _____    ______ ____

>  <TORSDO>
F 3

$$$$
=
 OpenBabel11112418013D

 34 42  0  0  1  0  0  0  0  0999 V2000
  191.4250  176.0550  145.8090 C   0  0  0  0  0  0  0  0  0  0  0  0
  188.9940  176.3020  146.6280 C   0  0  0  0  0  3  0  0  0  0  0  0
  196.0590  175.7250  140.9370 C   0  0  1  0  0  0  0  0  0  0  0  0
  193.6610  175.9900  144.8260 C   0  0  0  0  0  0  0  0  0  0  0  0
  193.9000  175.8120  142.3250 C   0  0  0  0  0  0  0  0  0  0  0  0
  194.4760  175.4610  139.8220 C   0  0  1  0  0  3  0  0  0  0  0  0
  195.8430  175.3320  139.5820 O   0  0  0  0  0  0  0  0  0  0  0  0
  196.9710  176.5640  142.9890 C   0  0  0  0  0  3  0  0  0  0  0  0
  189.3980  175.8750  144.3830 C   0  0  0  0  0  0  0  0  0  0  0  0
  187.2890  175.7430  142.1760 C   0  0  0  0  0  3  0  0  0  0  0  0
  192.4780  175.7340  142.2420 N   0  0  0  0  0  2  0  0  0  0  0  0
  195.9040  176.4850  143.8070 C   0  0  0  0  0  3  0  0  0  0  0  0
  190.1940  175.7630  143.1190 C   0  0  1  0  0  3  0  0  0  0  0  0
  187.7780  176.4510  145.8370 N   0  0  0  0  0  0  0  0  0  0  0  0
  194.6000  175.7120  143.6630 C   0  0  1  0  0  3  0  0  0  0  0  0
  197.0840  176.0380  141.6570 N   0  0  0  0  0  2  0  0  0  0  0  0
  187.1760  176.4020  143.3370 C   0  0  0  0  0  0  0  0  0  0  0  0
  192.2580  175.8660  144.6870 C   0  0  0  0  0  0  0  0  0  0  0  0
  194.6130  175.7050  141.2210 C   0  0  0  0  0  0  0  0  0  0  0  0
  191.6580  175.3610  143.3860 C   0  0  2  0  0  3  0  0  0  0  0  0
  193.3610  176.4840  147.1950 C   0  0  0  0  0  3  0  0  0  0  0  0
  188.3260  174.7740  141.7740 C   0  0  0  0  0  3  0  0  0  0  0  0
  194.1930  176.2850  146.0940 C   0  0  0  0  0  3  0  0  0  0  0  0
  189.5880  174.7490  142.2020 C   0  0  0  0  0  3  0  0  0  0  0  0
  188.1190  176.2000  144.4740 C   0  0  0  0  0  0  0  0  0  0  0  0
  191.9800  176.3730  147.0530 C   0  0  0  0  0  3  0  0  0  0  0  0
  190.0110  175.9330  145.6550 N   0  0  0  0  0  0  0  0  0  0  0  0
  186.0910  177.2860  143.4290 O   0  0  0  0  0  0  0  0  0  0  0  0
  186.1050  178.6370  142.9820 C   0  0  0  0  0  2  0  0  0  0  0  0
  183.9870  178.3050  145.4420 O   0  0  0  0  0  0  0  0  0  0  0  0
  186.0700  179.4080  145.3320 C   0  0  0  0  0  2  0  0  0  0  0  0
  185.4050  179.5310  143.9930 C   0  0  2  0  0  3  0  0  0  0  0  0
  184.9710  178.9090  146.2380 C   0  0  0  0  0  2  0  0  0  0  0  0
  184.0030  179.0180  144.2350 C   0  0  0  0  0  2  0  0  0  0  0  0
  1 26  1  0  0  0  0
  3  7  1  1  0  0  0
  3 19  1  0  0  0  0
  3 16  1  0  0  0  0
  4 23  2  0  0  0  0
  5 15  1  0  0  0  0
  6  7  1  1  0  0  0
  6  3  1  0  0  0  0
  6 19  1  0  0  0  0
  8 12  2  0  0  0  0
  9 25  2  0  0  0  0
  9 27  1  0  0  0  0
 10 17  2  0  0  0  0
 11  5  1  0  0  0  0
 13 24  1  6  0  0  0
 13 20  1  0  0  0  0
 13  9  1  0  0  0  0
 14  2  2  0  0  0  0
 15 12  1  6  0  0  0
 15  4  1  0  0  0  0
 16  8  1  0  0  0  0
 17 28  1  0  0  0  0
 17 25  1  0  0  0  0
 18  4  1  0  0  0  0
 18  1  2  0  0  0  0
 19  5  2  0  0  0  0
 20 11  1  6  0  0  0
 20 18  1  0  0  0  0
 22 10  1  0  0  0  0
 22 24  2  0  0  0  0
 23 21  1  0  0  0  0
 25 14  1  0  0  0  0
 26 21  2  0  0  0  0
 27  1  1  0  0  0  0
 27  2  1  0  0  0  0
 29 28  1  0  0  0  0
 30 33  1  0  0  0  0
 31 33  1  0  0  0  0
 32 29  1  6  0  0  0
 32 34  1  0  0  0  0
 32 31  1  0  0  0  0
 34 30  1  0  0  0  0
M  END
>  <MODEL>
3

>  <REMARK>
 VINA RESULT:      -8.9      1.784      8.984
  Name = 
  3 active torsions:
  status: ('A' for Active; 'I' for Inactive)
    1  A    between atoms: C_17  and  O_28
    2  A    between atoms: O_28  and  C_29
    3  A    between atoms: C_29  and  C_32
                            x       y       z     vdW  Elec       q    Type
                         _______ _______ _______ _____ _____    ______ ____

>  <TORSDO>
F 3

$$$$
=
 OpenBabel11112418013D

 34 42  0  0  1  0  0  0  0  0999 V2000
  188.7600  177.5420  146.4010 C   0  0  0  0  0  0  0  0  0  0  0  0
  190.7990  176.7230  147.7480 C   0  0  0  0  0  3  0  0  0  0  0  0
  185.1780  178.0050  140.7200 C   0  0  1  0  0  0  0  0  0  0  0  0
  186.8470  178.0830  144.9800 C   0  0  0  0  0  0  0  0  0  0  0  0
  186.9680  177.5900  142.5130 C   0  0  0  0  0  0  0  0  0  0  0  0
  186.8500  177.3680  139.9330 C   0  0  1  0  0  3  0  0  0  0  0  0
  185.6760  177.8840  139.3870 O   0  0  0  0  0  0  0  0  0  0  0  0
  183.7950  178.1730  142.6700 C   0  0  0  0  0  3  0  0  0  0  0  0
  190.8400  176.5860  145.4310 C   0  0  0  0  0  0  0  0  0  0  0  0
  193.0590  175.3290  143.7490 C   0  0  0  0  0  3  0  0  0  0  0  0
  188.3090  177.1450  142.7160 N   0  0  0  0  0  2  0  0  0  0  0  0
  184.7130  178.1150  143.6540 C   0  0  0  0  0  3  0  0  0  0  0  0
  190.2920  176.5890  144.0370 C   0  0  1  0  0  3  0  0  0  0  0  0
  191.9390  175.9400  147.2870 N   0  0  0  0  0  0  0  0  0  0  0  0
  186.2230  178.3120  143.6130 C   0  0  1  0  0  3  0  0  0  0  0  0
  184.0410  178.2910  141.2590 N   0  0  0  0  0  2  0  0  0  0  0  0
  192.7800  175.0420  145.0280 C   0  0  0  0  0  0  0  0  0  0  0  0
  188.1940  177.6690  145.1150 C   0  0  0  0  0  0  0  0  0  0  0  0
  186.4780  177.6080  141.2890 C   0  0  0  0  0  0  0  0  0  0  0  0
  189.0800  177.5300  143.8900 C   0  0  2  0  0  3  0  0  0  0  0  0
  186.6720  178.2330  147.4080 C   0  0  0  0  0  3  0  0  0  0  0  0
  192.5310  176.4330  142.9250 C   0  0  0  0  0  3  0  0  0  0  0  0
  186.1080  178.3750  146.1410 C   0  0  0  0  0  3  0  0  0  0  0  0
  191.3400  177.0160  143.0600 C   0  0  0  0  0  3  0  0  0  0  0  0
  191.8730  175.8820  145.8630 C   0  0  0  0  0  0  0  0  0  0  0  0
  187.9940  177.8140  147.5380 C   0  0  0  0  0  3  0  0  0  0  0  0
  190.1180  177.1180  146.5240 N   0  0  0  0  0  0  0  0  0  0  0  0
  193.4180  173.9070  145.5480 O   0  0  0  0  0  0  0  0  0  0  0  0
  194.8270  173.7050  145.5650 C   0  0  0  0  0  2  0  0  0  0  0  0
  196.8180  171.1840  146.1370 O   0  0  0  0  0  0  0  0  0  0  0  0
  194.5090  171.2540  145.6570 C   0  0  0  0  0  2  0  0  0  0  0  0
  195.1740  172.3760  144.9150 C   0  0  2  0  0  3  0  0  0  0  0  0
  195.6590  170.3950  146.1220 C   0  0  0  0  0  2  0  0  0  0  0  0
  196.6510  172.1000  145.0890 C   0  0  0  0  0  2  0  0  0  0  0  0
  1 27  1  0  0  0  0
  1 26  1  0  0  0  0
  3  7  1  6  0  0  0
  3 16  1  0  0  0  0
  3 19  1  0  0  0  0
  4 18  1  0  0  0  0
  4 23  2  0  0  0  0
  5 11  1  0  0  0  0
  5 15  1  0  0  0  0
  6  7  1  6  0  0  0
  6  3  1  0  0  0  0
  6 19  1  0  0  0  0
  8 12  2  0  0  0  0
  9 25  2  0  0  0  0
  9 27  1  0  0  0  0
 10 17  2  0  0  0  0
 13 24  1  6  0  0  0
 13  9  1  0  0  0  0
 14  2  2  0  0  0  0
 15 12  1  1  0  0  0
 15  4  1  0  0  0  0
 16  8  1  0  0  0  0
 17 28  1  0  0  0  0
 17 25  1  0  0  0  0
 18  1  2  0  0  0  0
 19  5  2  0  0  0  0
 20 11  1  6  0  0  0
 20 13  1  0  0  0  0
 20 18  1  0  0  0  0
 21 26  2  0  0  0  0
 22 24  2  0  0  0  0
 22 10  1  0  0  0  0
 23 21  1  0  0  0  0
 25 14  1  0  0  0  0
 27  2  1  0  0  0  0
 28 29  1  0  0  0  0
 31 33  1  0  0  0  0
 32 34  1  0  0  0  0
 32 29  1  1  0  0  0
 32 31  1  0  0  0  0
 33 30  1  0  0  0  0
 34 30  1  0  0  0  0
M  END
>  <MODEL>
4

>  <REMARK>
 VINA RESULT:      -8.6      2.834      4.547
  Name = 
  3 active torsions:
  status: ('A' for Active; 'I' for Inactive)
    1  A    between atoms: C_17  and  O_28
    2  A    between atoms: O_28  and  C_29
    3  A    between atoms: C_29  and  C_32
                            x       y       z     vdW  Elec       q    Type
                         _______ _______ _______ _____ _____    ______ ____

>  <TORSDO>
F 3

$$$$
=
 OpenBabel11112418013D

 34 42  0  0  1  0  0  0  0  0999 V2000
  189.7070  174.8070  144.9030 C   0  0  0  0  0  0  0  0  0  0  0  0
  191.3030  172.9700  144.0550 C   0  0  0  0  0  3  0  0  0  0  0  0
  184.1690  178.5960  144.3570 C   0  0  1  0  0  0  0  0  0  0  0  0
  187.9890  176.4020  145.5950 C   0  0  0  0  0  0  0  0  0  0  0  0
  186.1360  176.9870  143.9920 C   0  0  0  0  0  0  0  0  0  0  0  0
  184.2140  177.9190  142.5240 C   0  0  1  0  0  3  0  0  0  0  0  0
  183.4730  178.9180  143.1520 O   0  0  0  0  0  0  0  0  0  0  0  0
  184.8310  178.2960  146.6410 C   0  0  0  0  0  3  0  0  0  0  0  0
  189.6870  173.8200  142.6220 C   0  0  0  0  0  0  0  0  0  0  0  0
  189.1080  172.8360  139.7880 C   0  0  0  0  0  3  0  0  0  0  0  0
  186.7700  176.1480  143.0280 N   0  0  0  0  0  2  0  0  0  0  0  0
  185.9610  177.5780  146.4990 C   0  0  0  0  0  3  0  0  0  0  0  0
  188.4500  174.5630  142.2190 C   0  0  1  0  0  3  0  0  0  0  0  0
  191.2090  172.1750  142.8360 N   0  0  0  0  0  0  0  0  0  0  0  0
  186.8440  177.3500  145.2790 C   0  0  1  0  0  3  0  0  0  0  0  0
  184.0670  178.9280  145.6000 N   0  0  0  0  0  2  0  0  0  0  0  0
  189.6800  172.1240  140.7690 C   0  0  0  0  0  0  0  0  0  0  0  0
  188.5960  175.6170  144.5860 C   0  0  0  0  0  0  0  0  0  0  0  0
  185.0530  177.6550  143.6470 C   0  0  0  0  0  0  0  0  0  0  0  0
  188.1730  175.7720  143.1350 C   0  0  2  0  0  3  0  0  0  0  0  0
  189.6150  175.5530  147.2030 C   0  0  0  0  0  3  0  0  0  0  0  0
  188.8220  174.2830  139.7580 C   0  0  0  0  0  3  0  0  0  0  0  0
  188.5250  176.3660  146.8950 C   0  0  0  0  0  3  0  0  0  0  0  0
  188.5660  175.0560  140.8130 C   0  0  0  0  0  3  0  0  0  0  0  0
  190.1800  172.7450  142.0290 C   0  0  0  0  0  0  0  0  0  0  0  0
  190.2020  174.7730  146.2100 C   0  0  0  0  0  3  0  0  0  0  0  0
  190.3070  174.0160  143.8770 N   0  0  0  0  0  0  0  0  0  0  0  0
  189.8040  170.7490  140.5270 O   0  0  0  0  0  0  0  0  0  0  0  0
  190.7630  170.1620  139.6550 C   0  0  0  0  0  2  0  0  0  0  0  0
  191.5190  169.7930  136.5020 O   0  0  0  0  0  0  0  0  0  0  0  0
  190.5700  168.2880  138.0520 C   0  0  0  0  0  2  0  0  0  0  0  0
  190.0870  169.6690  138.3860 C   0  0  2  0  0  3  0  0  0  0  0  0
  191.1910  168.4420  136.6850 C   0  0  0  0  0  2  0  0  0  0  0  0
  190.5440  170.5070  137.2130 C   0  0  0  0  0  2  0  0  0  0  0  0
  1 26  1  0  0  0  0
  3  7  1  6  0  0  0
  3 16  1  0  0  0  0
  4 23  2  0  0  0  0
  5 15  1  0  0  0  0
  6  7  1  6  0  0  0
  6 19  1  0  0  0  0
  6  3  1  0  0  0  0
  9 27  1  0  0  0  0
 10 17  2  0  0  0  0
 11  5  1  0  0  0  0
 12  8  2  0  0  0  0
 13 24  1  6  0  0  0
 13  9  1  0  0  0  0
 13 20  1  0  0  0  0
 14  2  2  0  0  0  0
 15  4  1  0  0  0  0
 15 12  1  1  0  0  0
 16  8  1  0  0  0  0
 17 25  1  0  0  0  0
 18  1  2  0  0  0  0
 18  4  1  0  0  0  0
 19  5  2  0  0  0  0
 19  3  1  0  0  0  0
 20 11  1  1  0  0  0
 20 18  1  0  0  0  0
 22 10  1  0  0  0  0
 22 24  2  0  0  0  0
 23 21  1  0  0  0  0
 25  9  2  0  0  0  0
 25 14  1  0  0  0  0
 26 21  2  0  0  0  0
 27  2  1  0  0  0  0
 27  1  1  0  0  0  0
 28 17  1  0  0  0  0
 29 28  1  0  0  0  0
 30 33  1  0  0  0  0
 30 34  1  0  0  0  0
 31 32  1  0  0  0  0
 32 29  1  1  0  0  0
 33 31  1  0  0  0  0
 34 32  1  0  0  0  0
M  END
>  <MODEL>
5

>  <REMARK>
 VINA RESULT:      -8.1      3.658      5.872
  Name = 
  3 active torsions:
  status: ('A' for Active; 'I' for Inactive)
    1  A    between atoms: C_17  and  O_28
    2  A    between atoms: O_28  and  C_29
    3  A    between atoms: C_29  and  C_32
                            x       y       z     vdW  Elec       q    Type
                         _______ _______ _______ _____ _____    ______ ____

>  <TORSDO>
F 3

$$$$
=
 OpenBabel11112418013D

 34 42  0  0  1  0  0  0  0  0999 V2000
  190.4320  172.9500  142.5730 C   0  0  0  0  0  0  0  0  0  0  0  0
  188.2670  174.2390  142.0310 C   0  0  0  0  0  3  0  0  0  0  0  0
  196.3510  172.3150  145.7170 C   0  0  1  0  0  0  0  0  0  0  0  0
  192.4700  171.8400  143.3390 C   0  0  0  0  0  0  0  0  0  0  0  0
  194.1250  173.1320  144.7320 C   0  0  0  0  0  0  0  0  0  0  0  0
  196.0870  174.2270  146.0230 C   0  0  1  0  0  3  0  0  0  0  0  0
  197.1750  173.3750  146.2030 O   0  0  0  0  0  0  0  0  0  0  0  0
  195.3580  170.1880  145.2330 C   0  0  0  0  0  3  0  0  0  0  0  0
  190.0120  175.3450  143.0890 C   0  0  0  0  0  0  0  0  0  0  0  0
  189.9540  178.2260  144.1060 C   0  0  0  0  0  3  0  0  0  0  0  0
  193.2880  174.2770  144.5780 N   0  0  0  0  0  2  0  0  0  0  0  0
  194.2460  170.5580  144.5700 C   0  0  0  0  0  3  0  0  0  0  0  0
  191.2980  175.4960  143.8430 C   0  0  1  0  0  3  0  0  0  0  0  0
  187.8470  175.5530  142.5050 N   0  0  0  0  0  0  0  0  0  0  0  0
  193.8760  171.8820  143.9160 C   0  0  1  0  0  3  0  0  0  0  0  0
  196.4510  171.0310  145.6320 N   0  0  0  0  0  2  0  0  0  0  0  0
  188.8890  177.4340  143.9150 C   0  0  0  0  0  0  0  0  0  0  0  0
  191.7010  173.0190  143.1840 C   0  0  0  0  0  0  0  0  0  0  0  0
  195.2640  173.2530  145.3850 C   0  0  0  0  0  0  0  0  0  0  0  0
  192.3030  174.3750  143.5100 C   0  0  2  0  0  3  0  0  0  0  0  0
  190.6880  170.5640  142.2700 C   0  0  0  0  0  3  0  0  0  0  0  0
  191.3490  177.9950  143.6850 C   0  0  0  0  0  3  0  0  0  0  0  0
  191.9500  170.6250  142.8600 C   0  0  0  0  0  3  0  0  0  0  0  0
  191.9400  176.8100  143.5340 C   0  0  0  0  0  3  0  0  0  0  0  0
  188.9650  176.1490  143.1630 C   0  0  0  0  0  0  0  0  0  0  0  0
  189.9290  171.7230  142.1300 C   0  0  0  0  0  3  0  0  0  0  0  0
  189.6640  174.1460  142.4280 N   0  0  0  0  0  0  0  0  0  0  0  0
  187.6820  177.9040  144.4500 O   0  0  0  0  0  0  0  0  0  0  0  0
  187.0160  177.3370  145.5730 C   0  0  0  0  0  2  0  0  0  0  0  0
  184.2390  179.0420  145.7580 O   0  0  0  0  0  0  0  0  0  0  0  0
  185.1900  177.8220  143.9760 C   0  0  0  0  0  2  0  0  0  0  0  0
  185.5440  177.1270  145.2590 C   0  0  2  0  0  3  0  0  0  0  0  0
  184.1220  178.8080  144.3810 C   0  0  0  0  0  2  0  0  0  0  0  0
  184.7010  177.8320  146.2980 C   0  0  0  0  0  2  0  0  0  0  0  0
  1 18  1  0  0  0  0
  2 27  1  0  0  0  0
  2 14  2  0  0  0  0
  3 19  1  6  0  0  0
  3  6  1  0  0  0  0
  3  7  1  0  0  0  0
  4 15  1  0  0  0  0
  5 19  2  0  0  0  0
  6 19  1  6  0  0  0
  6  7  1  0  0  0  0
  8 16  1  0  0  0  0
  9 25  2  0  0  0  0
  9 13  1  0  0  0  0
 11  5  1  0  0  0  0
 12  8  2  0  0  0  0
 13 24  1  6  0  0  0
 14 25  1  0  0  0  0
 15 12  1  1  0  0  0
 15  5  1  0  0  0  0
 16  3  1  0  0  0  0
 17 10  2  0  0  0  0
 17 28  1  0  0  0  0
 18  4  2  0  0  0  0
 20 18  1  1  0  0  0
 20 13  1  0  0  0  0
 20 11  1  0  0  0  0
 21 23  2  0  0  0  0
 22 10  1  0  0  0  0
 23  4  1  0  0  0  0
 24 22  2  0  0  0  0
 25 17  1  0  0  0  0
 26 21  1  0  0  0  0
 26  1  2  0  0  0  0
 27  1  1  0  0  0  0
 27  9  1  0  0  0  0
 28 29  1  0  0  0  0
 30 34  1  0  0  0  0
 31 33  1  0  0  0  0
 31 32  1  0  0  0  0
 32 29  1  1  0  0  0
 32 34  1  0  0  0  0
 33 30  1  0  0  0  0
M  END
>  <MODEL>
6

>  <REMARK>
 VINA RESULT:      -8.0      2.682      8.636
  Name = 
  3 active torsions:
  status: ('A' for Active; 'I' for Inactive)
    1  A    between atoms: C_17  and  O_28
    2  A    between atoms: O_28  and  C_29
    3  A    between atoms: C_29  and  C_32
                            x       y       z     vdW  Elec       q    Type
                         _______ _______ _______ _____ _____    ______ ____

>  <TORSDO>
F 3

$$$$
=
 OpenBabel11112418013D

 34 42  0  0  1  0  0  0  0  0999 V2000
  188.5310  174.6390  140.1410 C   0  0  0  0  0  0  0  0  0  0  0  0
  187.0620  176.7560  140.1960 C   0  0  0  0  0  3  0  0  0  0  0  0
  192.5070  170.0780  143.0900 C   0  0  1  0  0  0  0  0  0  0  0  0
  189.8370  172.5850  140.3460 C   0  0  0  0  0  0  0  0  0  0  0  0
  191.0550  172.1110  142.5000 C   0  0  0  0  0  0  0  0  0  0  0  0
  192.5490  171.4260  144.5040 C   0  0  1  0  0  3  0  0  0  0  0  0
  193.2810  170.2620  144.2760 O   0  0  0  0  0  0  0  0  0  0  0  0
  191.3600  169.1750  141.1890 C   0  0  0  0  0  3  0  0  0  0  0  0
  188.4520  176.2920  141.9960 C   0  0  0  0  0  0  0  0  0  0  0  0
  188.6050  177.8840  144.5990 C   0  0  0  0  0  3  0  0  0  0  0  0
  190.6000  173.3760  142.9800 N   0  0  0  0  0  2  0  0  0  0  0  0
  190.6920  170.2550  140.7430 C   0  0  0  0  0  3  0  0  0  0  0  0
  189.3480  175.4750  142.8760 C   0  0  1  0  0  3  0  0  0  0  0  0
  186.7740  177.6360  141.3230 N   0  0  0  0  0  0  0  0  0  0  0  0
  190.8870  171.7350  141.0440 C   0  0  1  0  0  3  0  0  0  0  0  0
  192.3640  169.1380  142.2170 N   0  0  0  0  0  2  0  0  0  0  0  0
  187.5570  177.8340  143.7650 C   0  0  0  0  0  0  0  0  0  0  0  0
  189.4510  173.8460  140.8580 C   0  0  0  0  0  0  0  0  0  0  0  0
  191.8530  171.3870  143.2600 C   0  0  0  0  0  0  0  0  0  0  0  0
  190.1470  174.4250  142.0780 C   0  0  2  0  0  3  0  0  0  0  0  0
  188.3830  172.9440  138.4220 C   0  0  0  0  0  3  0  0  0  0  0  0
  189.9740  177.3810  144.3760 C   0  0  0  0  0  3  0  0  0  0  0  0
  189.3020  172.1590  139.1170 C   0  0  0  0  0  3  0  0  0  0  0  0
  190.3170  176.3520  143.6010 C   0  0  0  0  0  3  0  0  0  0  0  0
  187.6480  177.2670  142.3890 C   0  0  0  0  0  0  0  0  0  0  0  0
  187.9950  174.1800  138.9340 C   0  0  0  0  0  3  0  0  0  0  0  0
  188.1450  175.9080  140.6710 N   0  0  0  0  0  0  0  0  0  0  0  0
  186.3630  178.3770  144.2600 O   0  0  0  0  0  0  0  0  0  0  0  0
  185.1810  177.6300  144.5260 C   0  0  0  0  0  2  0  0  0  0  0  0
  186.5420  177.1860  147.4590 O   0  0  0  0  0  0  0  0  0  0  0  0
  185.3840  179.0320  146.5540 C   0  0  0  0  0  2  0  0  0  0  0  0
  184.7830  177.7790  145.9850 C   0  0  2  0  0  3  0  0  0  0  0  0
  186.2470  178.5370  147.6890 C   0  0  0  0  0  2  0  0  0  0  0  0
  185.4170  176.6720  146.7970 C   0  0  0  0  0  2  0  0  0  0  0  0
  1 27  1  0  0  0  0
  1 18  1  0  0  0  0
  2 27  1  0  0  0  0
  2 14  2  0  0  0  0
  3 16  1  1  0  0  0
  3 19  1  0  0  0  0
  3  7  1  0  0  0  0
  3  6  1  0  0  0  0
  4 18  2  0  0  0  0
  4 15  1  0  0  0  0
  5 11  1  0  0  0  0
  5 19  2  0  0  0  0
  6 19  1  6  0  0  0
  7  6  1  0  0  0  0
  8 16  1  0  0  0  0
  9 25  2  0  0  0  0
  9 13  1  0  0  0  0
 12  8  2  0  0  0  0
 13 24  1  6  0  0  0
 14 25  1  0  0  0  0
 15 12  1  1  0  0  0
 15  5  1  0  0  0  0
 17 28  1  0  0  0  0
 17 10  2  0  0  0  0
 20 18  1  6  0  0  0
 20 13  1  0  0  0  0
 20 11  1  0  0  0  0
 21 26  1  0  0  0  0
 21 23  2  0  0  0  0
 22 10  1  0  0  0  0
 23  4  1  0  0  0  0
 24 22  2  0  0  0  0
 25 17  1  0  0  0  0
 26  1  2  0  0  0  0
 27  9  1  0  0  0  0
 28 29  1  0  0  0  0
 30 33  1  0  0  0  0
 31 33  1  0  0  0  0
 32 29  1  6  0  0  0
 32 31  1  0  0  0  0
 32 34  1  0  0  0  0
 34 30  1  0  0  0  0
M  END
>  <MODEL>
7

>  <REMARK>
 VINA RESULT:      -7.8      3.479      8.256
  Name = 
  3 active torsions:
  status: ('A' for Active; 'I' for Inactive)
    1  A    between atoms: C_17  and  O_28
    2  A    between atoms: O_28  and  C_29
    3  A    between atoms: C_29  and  C_32
                            x       y       z     vdW  Elec       q    Type
                         _______ _______ _______ _____ _____    ______ ____

>  <TORSDO>
F 3

$$$$
=
 OpenBabel11112418013D

 34 42  0  0  1  0  0  0  0  0999 V2000
  190.5260  173.8210  141.1620 C   0  0  0  0  0  0  0  0  0  0  0  0
  188.0450  174.4100  141.5360 C   0  0  0  0  0  3  0  0  0  0  0  0
  197.0350  174.1310  142.8500 C   0  0  1  0  0  0  0  0  0  0  0  0
  192.9040  173.2650  141.0820 C   0  0  0  0  0  0  0  0  0  0  0  0
  194.4960  174.4470  142.6360 C   0  0  0  0  0  0  0  0  0  0  0  0
  196.3960  175.5980  143.9720 C   0  0  1  0  0  3  0  0  0  0  0  0
  197.6690  175.1570  143.6140 O   0  0  0  0  0  0  0  0  0  0  0  0
  196.5110  172.1190  141.6580 C   0  0  0  0  0  3  0  0  0  0  0  0
  189.6770  175.5810  142.6990 C   0  0  0  0  0  0  0  0  0  0  0  0
  189.1790  177.7040  144.8380 C   0  0  0  0  0  3  0  0  0  0  0  0
  193.3910  175.2180  143.1050 N   0  0  0  0  0  2  0  0  0  0  0  0
  195.2060  172.3040  141.3830 C   0  0  0  0  0  3  0  0  0  0  0  0
  191.0380  175.8730  143.2520 C   0  0  1  0  0  3  0  0  0  0  0  0
  187.4540  175.2430  142.5770 N   0  0  0  0  0  0  0  0  0  0  0  0
  194.3570  173.5680  141.4130 C   0  0  1  0  0  3  0  0  0  0  0  0
  197.4260  173.0770  142.2150 N   0  0  0  0  0  2  0  0  0  0  0  0
  188.3340  176.7260  144.4860 C   0  0  0  0  0  0  0  0  0  0  0  0
  191.8540  174.0890  141.5540 C   0  0  0  0  0  0  0  0  0  0  0  0
  195.7010  174.7010  143.1070 C   0  0  0  0  0  0  0  0  0  0  0  0
  192.1630  175.3550  142.3340 C   0  0  2  0  0  3  0  0  0  0  0  0
  191.2770  171.9380  139.8420 C   0  0  0  0  0  3  0  0  0  0  0  0
  190.4220  178.1240  144.1630 C   0  0  0  0  0  3  0  0  0  0  0  0
  192.5940  172.2040  140.2130 C   0  0  0  0  0  3  0  0  0  0  0  0
  191.2260  177.3450  143.4400 C   0  0  0  0  0  3  0  0  0  0  0  0
  188.5220  175.9020  143.2570 C   0  0  0  0  0  0  0  0  0  0  0  0
  190.2440  172.7430  140.3180 C   0  0  0  0  0  3  0  0  0  0  0  0
  189.4740  174.6560  141.6500 N   0  0  0  0  0  0  0  0  0  0  0  0
  187.2360  176.5370  145.3380 O   0  0  0  0  0  0  0  0  0  0  0  0
  187.3110  176.4820  146.7580 C   0  0  0  0  0  2  0  0  0  0  0  0
  185.6240  179.2680  146.5650 O   0  0  0  0  0  0  0  0  0  0  0  0
  184.9260  177.0210  146.3920 C   0  0  0  0  0  2  0  0  0  0  0  0
  186.0590  177.0830  147.3740 C   0  0  2  0  0  3  0  0  0  0  0  0
  184.5350  178.4650  146.1970 C   0  0  0  0  0  2  0  0  0  0  0  0
  186.2660  178.5650  147.5950 C   0  0  0  0  0  2  0  0  0  0  0  0
  1 18  1  0  0  0  0
  1 27  1  0  0  0  0
  2 27  1  0  0  0  0
  2 14  2  0  0  0  0
  3 16  1  1  0  0  0
  3 19  1  0  0  0  0
  3  7  1  0  0  0  0
  3  6  1  0  0  0  0
  4 15  1  0  0  0  0
  4 18  2  0  0  0  0
  5 11  1  0  0  0  0
  5 19  2  0  0  0  0
  6 19  1  6  0  0  0
  7  6  1  0  0  0  0
  8 16  1  0  0  0  0
  9 13  1  0  0  0  0
  9 25  2  0  0  0  0
 12  8  2  0  0  0  0
 13 24  1  6  0  0  0
 14 25  1  0  0  0  0
 15 12  1  1  0  0  0
 15  5  1  0  0  0  0
 17 10  2  0  0  0  0
 17 28  1  0  0  0  0
 20 18  1  1  0  0  0
 20 11  1  0  0  0  0
 20 13  1  0  0  0  0
 21 23  2  0  0  0  0
 21 26  1  0  0  0  0
 22 10  1  0  0  0  0
 23  4  1  0  0  0  0
 24 22  2  0  0  0  0
 25 17  1  0  0  0  0
 26  1  2  0  0  0  0
 27  9  1  0  0  0  0
 28 29  1  0  0  0  0
 30 34  1  0  0  0  0
 31 32  1  0  0  0  0
 32 29  1  6  0  0  0
 32 34  1  0  0  0  0
 33 31  1  0  0  0  0
 33 30  1  0  0  0  0
M  END
>  <MODEL>
8

>  <REMARK>
 VINA RESULT:      -7.8      2.267      8.677
  Name = 
  3 active torsions:
  status: ('A' for Active; 'I' for Inactive)
    1  A    between atoms: C_17  and  O_28
    2  A    between atoms: O_28  and  C_29
    3  A    between atoms: C_29  and  C_32
                            x       y       z     vdW  Elec       q    Type
                         _______ _______ _______ _____ _____    ______ ____

>  <TORSDO>
F 3

$$$$
=
 OpenBabel11112418013D

 34 42  0  0  1  0  0  0  0  0999 V2000
  190.6960  175.0790  145.3760 C   0  0  0  0  0  0  0  0  0  0  0  0
  192.2890  173.1920  144.6390 C   0  0  0  0  0  3  0  0  0  0  0  0
  184.9330  178.5250  144.9030 C   0  0  1  0  0  0  0  0  0  0  0  0
  188.9790  176.6970  146.0110 C   0  0  0  0  0  0  0  0  0  0  0  0
  186.9340  176.9530  144.5620 C   0  0  0  0  0  0  0  0  0  0  0  0
  184.8160  177.5700  143.2020 C   0  0  1  0  0  3  0  0  0  0  0  0
  184.0940  178.6270  143.7520 O   0  0  0  0  0  0  0  0  0  0  0  0
  185.8540  178.6140  147.1140 C   0  0  0  0  0  3  0  0  0  0  0  0
  190.4840  173.7450  143.2900 C   0  0  0  0  0  0  0  0  0  0  0  0
  189.6570  172.3060  140.7250 C   0  0  0  0  0  3  0  0  0  0  0  0
  187.5050  175.9970  143.6700 N   0  0  0  0  0  2  0  0  0  0  0  0
  187.0000  177.9250  146.9530 C   0  0  0  0  0  3  0  0  0  0  0  0
  189.1720  174.3690  142.9240 C   0  0  1  0  0  3  0  0  0  0  0  0
  192.1080  172.2110  143.5750 N   0  0  0  0  0  0  0  0  0  0  0  0
  187.7560  177.5410  145.6890 C   0  0  1  0  0  3  0  0  0  0  0  0
  184.9480  179.0440  146.0840 N   0  0  0  0  0  2  0  0  0  0  0  0
  190.3690  171.7790  141.7300 C   0  0  0  0  0  0  0  0  0  0  0  0
  189.5160  175.7860  145.0700 C   0  0  0  0  0  0  0  0  0  0  0  0
  185.7850  177.5180  144.2470 C   0  0  0  0  0  0  0  0  0  0  0  0
  188.9290  175.6950  143.6710 C   0  0  2  0  0  3  0  0  0  0  0  0
  190.8130  176.1730  147.5310 C   0  0  0  0  0  3  0  0  0  0  0  0
  189.2900  173.7180  140.5080 C   0  0  0  0  0  3  0  0  0  0  0  0
  189.6540  176.8870  147.2310 C   0  0  0  0  0  3  0  0  0  0  0  0
  189.1080  174.6380  141.4550 C   0  0  0  0  0  3  0  0  0  0  0  0
  190.9680  172.6090  142.8140 C   0  0  0  0  0  0  0  0  0  0  0  0
  191.3320  175.2690  146.6070 C   0  0  0  0  0  3  0  0  0  0  0  0
  191.2240  174.1590  144.4200 N   0  0  0  0  0  0  0  0  0  0  0  0
  190.5410  170.3890  141.6870 O   0  0  0  0  0  0  0  0  0  0  0  0
  190.9440  169.6560  140.5360 C   0  0  0  0  0  2  0  0  0  0  0  0
  193.9080  169.7830  141.8950 O   0  0  0  0  0  0  0  0  0  0  0  0
  192.0460  168.4130  142.3680 C   0  0  0  0  0  2  0  0  0  0  0  0
  192.0600  168.6880  140.8930 C   0  0  2  0  0  3  0  0  0  0  0  0
  193.4050  168.8730  142.8360 C   0  0  0  0  0  2  0  0  0  0  0  0
  193.3980  169.3540  140.6610 C   0  0  0  0  0  2  0  0  0  0  0  0
  1 26  1  0  0  0  0
  3  7  1  6  0  0  0
  3 16  1  0  0  0  0
  4 23  2  0  0  0  0
  5 15  1  0  0  0  0
  6  7  1  6  0  0  0
  6 19  1  0  0  0  0
  6  3  1  0  0  0  0
  9 27  1  0  0  0  0
 10 17  2  0  0  0  0
 11  5  1  0  0  0  0
 12  8  2  0  0  0  0
 13 24  1  6  0  0  0
 13  9  1  0  0  0  0
 13 20  1  0  0  0  0
 14  2  2  0  0  0  0
 15  4  1  0  0  0  0
 15 12  1  1  0  0  0
 16  8  1  0  0  0  0
 17 25  1  0  0  0  0
 18  1  2  0  0  0  0
 18  4  1  0  0  0  0
 19  5  2  0  0  0  0
 19  3  1  0  0  0  0
 20 11  1  1  0  0  0
 20 18  1  0  0  0  0
 22 10  1  0  0  0  0
 22 24  2  0  0  0  0
 23 21  1  0  0  0  0
 25  9  2  0  0  0  0
 25 14  1  0  0  0  0
 26 21  2  0  0  0  0
 27  2  1  0  0  0  0
 27  1  1  0  0  0  0
 28 17  1  0  0  0  0
 29 28  1  0  0  0  0
 30 33  1  0  0  0  0
 31 33  1  0  0  0  0
 32 29  1  1  0  0  0
 32 31  1  0  0  0  0
 34 32  1  0  0  0  0
 34 30  1  0  0  0  0
M  END
>  <MODEL>
9

>  <REMARK>
 VINA RESULT:      -7.8      3.098      5.167
  Name = 
  3 active torsions:
  status: ('A' for Active; 'I' for Inactive)
    1  A    between atoms: C_17  and  O_28
    2  A    between atoms: O_28  and  C_29
    3  A    between atoms: C_29  and  C_32
                            x       y       z     vdW  Elec       q    Type
                         _______ _______ _______ _____ _____    ______ ____

>  <TORSDO>
F 3

$$$$
