=
 OpenBabel11112417243D

 37 42  0  0  1  0  0  0  0  0999 V2000
  194.9030  175.1880  142.6020 C   0  0  0  0  0  0  0  0  0  0  0  0
  192.0100  176.4200  145.3720 C   0  0  0  0  0  0  0  0  0  0  0  0
  189.2890  174.3170  145.0050 C   0  0  0  0  0  2  0  0  0  0  0  0
  194.3430  175.9410  144.9990 C   0  0  0  0  0  0  0  0  0  0  0  0
  190.7810  176.4630  144.5350 C   0  0  2  0  0  3  0  0  0  0  0  0
  193.0630  176.2150  144.5340 C   0  0  0  0  0  0  0  0  0  0  0  0
  189.5050  175.8290  145.1390 C   0  0  2  0  0  3  0  0  0  0  0  0
  194.5710  176.0180  146.3820 C   0  0  0  0  0  3  0  0  0  0  0  0
  192.6090  176.0920  143.1400 C   0  0  1  0  0  3  0  0  0  0  0  0
  195.6190  173.9830  142.0290 C   0  0  0  0  0  1  0  0  0  0  0  0
  191.0910  176.7470  147.7400 C   0  0  0  0  0  2  0  0  0  0  0  0
  193.5080  176.3320  147.2550 C   0  0  0  0  0  3  0  0  0  0  0  0
  193.3820  174.9470  142.4860 C   0  0  0  0  0  2  0  0  0  0  0  0
  188.6110  174.4860  142.4930 C   0  0  1  0  0  3  0  0  0  0  0  0
  189.4380  173.7690  143.5780 C   0  0  0  0  0  2  0  0  0  0  0  0
  192.2060  176.5360  146.7600 C   0  0  0  0  0  0  0  0  0  0  0  0
  191.1810  175.8040  143.2750 N   0  0  2  0  0  0  0  0  0  0  0  0
  195.3830  175.3840  144.0620 C   0  0  0  0  0  2  0  0  0  0  0  0
  188.9720  176.4000  146.4600 C   0  0  1  0  0  3  0  0  0  0  0  0
  195.3000  176.4030  141.7800 C   0  0  0  0  0  1  0  0  0  0  0  0
  188.9300  175.9820  142.2760 C   0  0  0  0  0  2  0  0  0  0  0  0
  190.4240  176.3330  142.1450 C   0  0  0  0  0  2  0  0  0  0  0  0
  189.8760  177.4310  147.1310 C   0  0  0  0  0  2  0  0  0  0  0  0
  186.5830  176.5970  147.1650 C   0  0  0  0  0  3  0  0  0  0  0  0
  187.5960  176.9510  146.2670 C   0  0  0  0  0  0  0  0  0  0  0  0
  187.3020  177.8080  145.1940 C   0  0  0  0  0  3  0  0  0  0  0  0
  185.7000  179.2090  143.8880 C   0  0  0  0  0  1  0  0  0  0  0  0
  184.9990  177.9470  145.9270 C   0  0  0  0  0  3  0  0  0  0  0  0
  186.0070  178.3030  145.0260 C   0  0  0  0  0  0  0  0  0  0  0  0
  185.2880  177.0940  146.9970 C   0  0  0  0  0  3  0  0  0  0  0  0
  188.7000  172.6210  138.5210 O   0  0  0  0  0  0  0  0  0  0  0  0
  188.3110  173.8070  138.6880 C   0  0  0  0  0  0  0  0  0  0  0  0
  188.6870  173.7380  141.2040 C   0  0  0  0  0  0  0  0  0  0  0  0
  188.2880  174.3950  139.9950 N   0  0  0  0  0  2  0  0  0  0  0  0
  189.1050  172.5480  141.1860 O   0  0  0  0  0  0  0  0  0  0  0  0
  187.1150  175.6240  137.7360 O   0  0  0  0  0  1  0  0  0  0  0  0
  187.8990  174.5480  137.5840 O   0  0  0  0  0  0  0  0  0  0  0  0
  1 18  1  0  0  0  0
  2 16  1  0  0  0  0
  4  8  2  0  0  0  0
  5  7  1  0  0  0  0
  5  2  1  1  0  0  0
  6  4  1  0  0  0  0
  6  2  2  0  0  0  0
  7  3  1  1  0  0  0
  7 19  1  0  0  0  0
  8 12  1  0  0  0  0
  9 13  1  1  0  0  0
  9 17  1  0  0  0  0
  9  6  1  0  0  0  0
 10  1  1  0  0  0  0
 13  1  1  0  0  0  0
 14 33  1  6  0  0  0
 14 15  1  0  0  0  0
 15  3  1  0  0  0  0
 16 12  2  0  0  0  0
 16 11  1  0  0  0  0
 17 22  1  6  0  0  0
 17  5  1  0  0  0  0
 18  4  1  0  0  0  0
 19 25  1  6  0  0  0
 19 23  1  0  0  0  0
 20  1  1  0  0  0  0
 21 14  1  0  0  0  0
 22 21  1  0  0  0  0
 23 11  1  0  0  0  0
 25 24  2  0  0  0  0
 26 25  1  0  0  0  0
 27 29  1  0  0  0  0
 28 30  2  0  0  0  0
 29 26  2  0  0  0  0
 29 28  1  0  0  0  0
 30 24  1  0  0  0  0
 31 32  2  0  0  0  0
 32 34  1  0  0  0  0
 34 33  1  0  0  0  0
 35 33  2  0  0  0  0
 37 36  1  0  0  0  0
 37 32  1  0  0  0  0
M  END
>  <MODEL>
1

>  <REMARK>
 VINA RESULT:      -9.8      0.000      0.000
  Name = 
  3 active torsions:
  status: ('A' for Active; 'I' for Inactive)
    1  A    between atoms: C_4  and  O_37
    2  A    between atoms: C_8  and  C_18
    3  A    between atoms: C_23  and  C_30
                            x       y       z     vdW  Elec       q    Type
                         _______ _______ _______ _____ _____    ______ ____

>  <TORSDO>
F 3

$$$$
=
 OpenBabel11112417243D

 37 42  0  0  1  0  0  0  0  0999 V2000
  195.0880  175.1350  142.7220 C   0  0  0  0  0  0  0  0  0  0  0  0
  192.0520  176.3330  145.3520 C   0  0  0  0  0  0  0  0  0  0  0  0
  189.5280  173.9780  145.1320 C   0  0  0  0  0  2  0  0  0  0  0  0
  194.4240  176.0290  145.0430 C   0  0  0  0  0  0  0  0  0  0  0  0
  190.8380  176.2000  144.5020 C   0  0  2  0  0  3  0  0  0  0  0  0
  193.1340  176.1530  144.5440 C   0  0  0  0  0  0  0  0  0  0  0  0
  189.6120  175.5100  145.1430 C   0  0  2  0  0  3  0  0  0  0  0  0
  194.6210  176.2390  146.4160 C   0  0  0  0  0  3  0  0  0  0  0  0
  192.7160  175.8770  143.1600 C   0  0  1  0  0  3  0  0  0  0  0  0
  195.9130  173.9540  142.2580 C   0  0  0  0  0  1  0  0  0  0  0  0
  191.0680  176.7710  147.6750 C   0  0  0  0  0  2  0  0  0  0  0  0
  193.5200  176.5300  147.2500 C   0  0  0  0  0  3  0  0  0  0  0  0
  193.5940  174.7540  142.6110 C   0  0  0  0  0  2  0  0  0  0  0  0
  188.8820  173.8830  142.6090 C   0  0  1  0  0  3  0  0  0  0  0  0
  189.7480  173.3300  143.7570 C   0  0  0  0  0  2  0  0  0  0  0  0
  192.2130  176.5780  146.7270 C   0  0  0  0  0  0  0  0  0  0  0  0
  191.3150  175.4780  143.3040 N   0  0  2  0  0  0  0  0  0  0  0  0
  195.5240  175.4910  144.1650 C   0  0  0  0  0  2  0  0  0  0  0  0
  189.0090  176.1380  146.4070 C   0  0  1  0  0  3  0  0  0  0  0  0
  195.3920  176.3090  141.8060 C   0  0  0  0  0  1  0  0  0  0  0  0
  189.0750  175.3770  142.2710 C   0  0  0  0  0  2  0  0  0  0  0  0
  190.5350  175.8450  142.1270 C   0  0  0  0  0  2  0  0  0  0  0  0
  189.8100  177.2950  147.0000 C   0  0  0  0  0  2  0  0  0  0  0  0
  186.7270  176.7220  147.2400 C   0  0  0  0  0  3  0  0  0  0  0  0
  187.5940  176.5500  146.1550 C   0  0  0  0  0  0  0  0  0  0  0  0
  187.1200  176.7550  144.8500 C   0  0  0  0  0  3  0  0  0  0  0  0
  185.2940  177.3440  143.2520 C   0  0  0  0  0  1  0  0  0  0  0  0
  184.9300  177.3010  145.7240 C   0  0  0  0  0  3  0  0  0  0  0  0
  185.7910  177.1300  144.6360 C   0  0  0  0  0  0  0  0  0  0  0  0
  185.3980  177.0980  147.0250 C   0  0  0  0  0  3  0  0  0  0  0  0
  189.6790  171.2460  139.1920 O   0  0  0  0  0  0  0  0  0  0  0  0
  190.4200  171.2550  140.2100 C   0  0  0  0  0  0  0  0  0  0  0  0
  189.0430  173.0410  141.3860 C   0  0  0  0  0  0  0  0  0  0  0  0
  190.1420  172.1260  141.3130 N   0  0  0  0  0  2  0  0  0  0  0  0
  188.2150  173.1350  140.4390 O   0  0  0  0  0  0  0  0  0  0  0  0
  191.3960  169.1040  139.9610 O   0  0  0  0  0  1  0  0  0  0  0  0
  191.5220  170.4050  140.2550 O   0  0  0  0  0  0  0  0  0  0  0  0
  1 18  1  0  0  0  0
  2 16  1  0  0  0  0
  4  8  2  0  0  0  0
  5  7  1  0  0  0  0
  5  2  1  1  0  0  0
  6  4  1  0  0  0  0
  6  2  2  0  0  0  0
  7  3  1  1  0  0  0
  7 19  1  0  0  0  0
  8 12  1  0  0  0  0
  9 13  1  1  0  0  0
  9 17  1  0  0  0  0
  9  6  1  0  0  0  0
 10  1  1  0  0  0  0
 13  1  1  0  0  0  0
 14 33  1  6  0  0  0
 14 15  1  0  0  0  0
 15  3  1  0  0  0  0
 16 12  2  0  0  0  0
 16 11  1  0  0  0  0
 17 22  1  6  0  0  0
 17  5  1  0  0  0  0
 18  4  1  0  0  0  0
 19 25  1  6  0  0  0
 19 23  1  0  0  0  0
 20  1  1  0  0  0  0
 21 14  1  0  0  0  0
 22 21  1  0  0  0  0
 23 11  1  0  0  0  0
 25 24  2  0  0  0  0
 26 25  1  0  0  0  0
 27 29  1  0  0  0  0
 28 30  2  0  0  0  0
 29 26  2  0  0  0  0
 29 28  1  0  0  0  0
 30 24  1  0  0  0  0
 31 32  2  0  0  0  0
 32 37  1  0  0  0  0
 32 34  1  0  0  0  0
 34 33  1  0  0  0  0
 35 33  2  0  0  0  0
 36 37  1  0  0  0  0
M  END
>  <MODEL>
2

>  <REMARK>
 VINA RESULT:      -9.6      1.337      1.963
  Name = 
  3 active torsions:
  status: ('A' for Active; 'I' for Inactive)
    1  A    between atoms: C_4  and  O_37
    2  A    between atoms: C_8  and  C_18
    3  A    between atoms: C_23  and  C_30
                            x       y       z     vdW  Elec       q    Type
                         _______ _______ _______ _____ _____    ______ ____

>  <TORSDO>
F 3

$$$$
=
 OpenBabel11112417243D

 37 42  0  0  1  0  0  0  0  0999 V2000
  191.6010  172.0350  140.8650 C   0  0  0  0  0  0  0  0  0  0  0  0
  188.5580  174.9000  141.1800 C   0  0  0  0  0  0  0  0  0  0  0  0
  189.9200  177.6610  142.7570 C   0  0  0  0  0  2  0  0  0  0  0  0
  189.6490  173.2920  139.7520 C   0  0  0  0  0  0  0  0  0  0  0  0
  188.6770  175.3190  142.6030 C   0  0  2  0  0  3  0  0  0  0  0  0
  189.3760  173.8250  141.0060 C   0  0  0  0  0  0  0  0  0  0  0  0
  188.6310  176.8400  142.8860 C   0  0  2  0  0  3  0  0  0  0  0  0
  188.9410  173.8020  138.6530 C   0  0  0  0  0  3  0  0  0  0  0  0
  190.0800  173.4920  142.2550 C   0  0  1  0  0  3  0  0  0  0  0  0
  193.0520  171.8230  140.4890 C   0  0  0  0  0  1  0  0  0  0  0  0
  186.9010  176.6040  140.2270 C   0  0  0  0  0  2  0  0  0  0  0  0
  188.0110  174.8480  138.8360 C   0  0  0  0  0  3  0  0  0  0  0  0
  191.5330  173.1690  141.9110 C   0  0  0  0  0  2  0  0  0  0  0  0
  190.8900  176.7710  145.0070 C   0  0  1  0  0  3  0  0  0  0  0  0
  191.1270  177.0910  143.5180 C   0  0  0  0  0  2  0  0  0  0  0  0
  187.8090  175.4160  140.1080 C   0  0  0  0  0  0  0  0  0  0  0  0
  189.9460  174.7120  143.0520 N   0  0  2  0  0  0  0  0  0  0  0  0
  190.8080  172.3470  139.5700 C   0  0  0  0  0  2  0  0  0  0  0  0
  187.3770  177.6160  142.4620 C   0  0  1  0  0  3  0  0  0  0  0  0
  191.0780  170.7410  141.4670 C   0  0  0  0  0  1  0  0  0  0  0  0
  189.8140  175.7050  145.3080 C   0  0  0  0  0  2  0  0  0  0  0  0
  189.9060  174.4110  144.4800 C   0  0  0  0  0  2  0  0  0  0  0  0
  186.3710  176.8170  141.6360 C   0  0  0  0  0  2  0  0  0  0  0  0
  185.9110  179.3540  143.4960 C   0  0  0  0  0  3  0  0  0  0  0  0
  186.7150  178.2210  143.6590 C   0  0  0  0  0  0  0  0  0  0  0  0
  186.8980  177.6790  144.9410 C   0  0  0  0  0  3  0  0  0  0  0  0
  186.4760  177.6900  147.4010 C   0  0  0  0  0  1  0  0  0  0  0  0
  185.4750  179.3980  145.8780 C   0  0  0  0  0  3  0  0  0  0  0  0
  186.2790  178.2670  146.0460 C   0  0  0  0  0  0  0  0  0  0  0  0
  185.2900  179.9410  144.6030 C   0  0  0  0  0  3  0  0  0  0  0  0
  194.8490  175.7470  146.6020 O   0  0  0  0  0  0  0  0  0  0  0  0
  194.6510  175.9050  145.3680 C   0  0  0  0  0  0  0  0  0  0  0  0
  192.1790  176.4210  145.6740 C   0  0  0  0  0  0  0  0  0  0  0  0
  193.3490  176.2370  144.8700 N   0  0  0  0  0  2  0  0  0  0  0  0
  192.2300  176.3000  146.9280 O   0  0  0  0  0  0  0  0  0  0  0  0
  196.2330  176.8100  143.8450 O   0  0  0  0  0  1  0  0  0  0  0  0
  195.7170  175.7520  144.4850 O   0  0  0  0  0  0  0  0  0  0  0  0
  1 20  1  0  0  0  0
  1 13  1  0  0  0  0
  3 15  1  0  0  0  0
  4  6  2  0  0  0  0
  5  2  1  6  0  0  0
  5  7  1  0  0  0  0
  5 17  1  0  0  0  0
  6  2  1  0  0  0  0
  6  9  1  0  0  0  0
  7  3  1  6  0  0  0
  8 12  2  0  0  0  0
  8  4  1  0  0  0  0
  9 13  1  6  0  0  0
  9 17  1  0  0  0  0
 10  1  1  0  0  0  0
 11 23  1  0  0  0  0
 12 16  1  0  0  0  0
 14 21  1  0  0  0  0
 14 33  1  6  0  0  0
 15 14  1  0  0  0  0
 16 11  1  0  0  0  0
 16  2  2  0  0  0  0
 17 22  1  1  0  0  0
 18  4  1  0  0  0  0
 18  1  1  0  0  0  0
 19  7  1  0  0  0  0
 19 25  1  1  0  0  0
 22 21  1  0  0  0  0
 23 19  1  0  0  0  0
 24 25  2  0  0  0  0
 24 30  1  0  0  0  0
 25 26  1  0  0  0  0
 26 29  2  0  0  0  0
 28 29  1  0  0  0  0
 29 27  1  0  0  0  0
 30 28  2  0  0  0  0
 32 31  2  0  0  0  0
 33 35  2  0  0  0  0
 34 32  1  0  0  0  0
 34 33  1  0  0  0  0
 36 37  1  0  0  0  0
 37 32  1  0  0  0  0
M  END
>  <MODEL>
3

>  <REMARK>
 VINA RESULT:      -9.3      3.581      6.179
  Name = 
  3 active torsions:
  status: ('A' for Active; 'I' for Inactive)
    1  A    between atoms: C_4  and  O_37
    2  A    between atoms: C_8  and  C_18
    3  A    between atoms: C_23  and  C_30
                            x       y       z     vdW  Elec       q    Type
                         _______ _______ _______ _____ _____    ______ ____

>  <TORSDO>
F 3

$$$$
=
 OpenBabel11112417243D

 37 42  0  0  1  0  0  0  0  0999 V2000
  190.1990  172.9420  138.7930 C   0  0  0  0  0  0  0  0  0  0  0  0
  187.5160  175.7760  140.3210 C   0  0  0  0  0  0  0  0  0  0  0  0
  189.3350  177.9070  142.3500 C   0  0  0  0  0  2  0  0  0  0  0  0
  188.2500  174.5690  138.3670 C   0  0  0  0  0  0  0  0  0  0  0  0
  187.8600  175.7770  141.7680 C   0  0  2  0  0  3  0  0  0  0  0  0
  188.1970  174.7470  139.7430 C   0  0  0  0  0  0  0  0  0  0  0  0
  188.0000  177.1580  142.4500 C   0  0  2  0  0  3  0  0  0  0  0  0
  187.4570  175.4040  137.5640 C   0  0  0  0  0  3  0  0  0  0  0  0
  189.0220  174.0400  140.7360 C   0  0  1  0  0  3  0  0  0  0  0  0
  191.5610  172.7600  138.1570 C   0  0  0  0  0  1  0  0  0  0  0  0
  185.9220  177.7700  140.1200 C   0  0  0  0  0  2  0  0  0  0  0  0
  186.6650  176.4090  138.1590 C   0  0  0  0  0  3  0  0  0  0  0  0
  190.3800  173.7430  140.1020 C   0  0  0  0  0  2  0  0  0  0  0  0
  190.4990  176.3730  144.1060 C   0  0  1  0  0  3  0  0  0  0  0  0
  190.5690  177.0800  142.7390 C   0  0  0  0  0  2  0  0  0  0  0  0
  186.6870  176.6130  139.5520 C   0  0  0  0  0  0  0  0  0  0  0  0
  189.1130  174.9960  141.8410 N   0  0  2  0  0  0  0  0  0  0  0  0
  189.2790  173.6470  137.7650 C   0  0  0  0  0  2  0  0  0  0  0  0
  186.7820  178.0920  142.4450 C   0  0  1  0  0  3  0  0  0  0  0  0
  189.6370  171.5640  139.1010 C   0  0  0  0  0  1  0  0  0  0  0  0
  189.3730  175.3290  144.2730 C   0  0  0  0  0  2  0  0  0  0  0  0
  189.2300  174.3130  143.1250 C   0  0  0  0  0  2  0  0  0  0  0  0
  185.6040  177.6140  141.5990 C   0  0  0  0  0  2  0  0  0  0  0  0
  185.6250  179.5480  144.1130 C   0  0  0  0  0  3  0  0  0  0  0  0
  186.3440  178.3780  143.8460 C   0  0  0  0  0  0  0  0  0  0  0  0
  186.6540  177.4990  144.8960 C   0  0  0  0  0  3  0  0  0  0  0  0
  186.5740  176.8580  147.3070 C   0  0  0  0  0  1  0  0  0  0  0  0
  185.5240  178.9610  146.4600 C   0  0  0  0  0  3  0  0  0  0  0  0
  186.2430  177.7910  146.1990 C   0  0  0  0  0  0  0  0  0  0  0  0
  185.2140  179.8390  145.4170 C   0  0  0  0  0  3  0  0  0  0  0  0
  194.5500  174.8440  144.8210 O   0  0  0  0  0  0  0  0  0  0  0  0
  194.3040  175.6620  143.8970 C   0  0  0  0  0  0  0  0  0  0  0  0
  191.8240  175.7780  144.4510 C   0  0  0  0  0  0  0  0  0  0  0  0
  192.9730  176.1470  143.6800 N   0  0  0  0  0  2  0  0  0  0  0  0
  191.9230  174.9700  145.4150 O   0  0  0  0  0  0  0  0  0  0  0  0
  196.3520  176.8210  143.5790 O   0  0  0  0  0  1  0  0  0  0  0  0
  195.3440  176.0960  143.0790 O   0  0  0  0  0  0  0  0  0  0  0  0
  1 20  1  0  0  0  0
  1 13  1  0  0  0  0
  3 15  1  0  0  0  0
  4  6  2  0  0  0  0
  5  2  1  6  0  0  0
  5 17  1  0  0  0  0
  5  7  1  0  0  0  0
  6  2  1  0  0  0  0
  6  9  1  0  0  0  0
  7  3  1  6  0  0  0
  8 12  2  0  0  0  0
  8  4  1  0  0  0  0
  9 13  1  6  0  0  0
  9 17  1  0  0  0  0
 10  1  1  0  0  0  0
 11 23  1  0  0  0  0
 12 16  1  0  0  0  0
 14 21  1  0  0  0  0
 14 33  1  6  0  0  0
 15 14  1  0  0  0  0
 16 11  1  0  0  0  0
 16  2  2  0  0  0  0
 17 22  1  1  0  0  0
 18  4  1  0  0  0  0
 18  1  1  0  0  0  0
 19  7  1  0  0  0  0
 19 25  1  1  0  0  0
 22 21  1  0  0  0  0
 23 19  1  0  0  0  0
 24 30  1  0  0  0  0
 25 24  2  0  0  0  0
 25 26  1  0  0  0  0
 26 29  2  0  0  0  0
 29 28  1  0  0  0  0
 29 27  1  0  0  0  0
 30 28  2  0  0  0  0
 32 31  2  0  0  0  0
 33 35  2  0  0  0  0
 34 32  1  0  0  0  0
 34 33  1  0  0  0  0
 37 36  1  0  0  0  0
 37 32  1  0  0  0  0
M  END
>  <MODEL>
4

>  <REMARK>
 VINA RESULT:      -9.2      3.113      6.433
  Name = 
  3 active torsions:
  status: ('A' for Active; 'I' for Inactive)
    1  A    between atoms: C_4  and  O_37
    2  A    between atoms: C_8  and  C_18
    3  A    between atoms: C_23  and  C_30
                            x       y       z     vdW  Elec       q    Type
                         _______ _______ _______ _____ _____    ______ ____

>  <TORSDO>
F 3

$$$$
=
 OpenBabel11112417243D

 37 42  0  0  1  0  0  0  0  0999 V2000
  195.5790  174.1800  143.1900 C   0  0  0  0  0  0  0  0  0  0  0  0
  192.2910  175.9270  145.1140 C   0  0  0  0  0  0  0  0  0  0  0  0
  189.6910  173.6510  144.9510 C   0  0  0  0  0  2  0  0  0  0  0  0
  194.6610  175.4990  145.2030 C   0  0  0  0  0  0  0  0  0  0  0  0
  191.1960  175.6810  144.1360 C   0  0  2  0  0  3  0  0  0  0  0  0
  193.4590  175.5700  144.5110 C   0  0  0  0  0  0  0  0  0  0  0  0
  189.8580  175.1570  144.7080 C   0  0  2  0  0  3  0  0  0  0  0  0
  194.6840  175.9450  146.5320 C   0  0  0  0  0  3  0  0  0  0  0  0
  193.2150  175.0630  143.1510 C   0  0  1  0  0  3  0  0  0  0  0  0
  196.3920  172.9100  143.0610 C   0  0  0  0  0  1  0  0  0  0  0  0
  191.0300  176.8070  147.1620 C   0  0  0  0  0  2  0  0  0  0  0  0
  193.4990  176.4160  147.1380 C   0  0  0  0  0  3  0  0  0  0  0  0
  194.0950  173.8330  142.9370 C   0  0  0  0  0  2  0  0  0  0  0  0
  189.3840  173.1230  142.4170 C   0  0  1  0  0  3  0  0  0  0  0  0
  190.0570  172.7600  143.7550 C   0  0  0  0  0  2  0  0  0  0  0  0
  192.2790  176.4100  146.4340 C   0  0  0  0  0  0  0  0  0  0  0  0
  191.7880  174.7410  143.1630 N   0  0  2  0  0  0  0  0  0  0  0  0
  195.8370  174.7770  144.5970 C   0  0  0  0  0  2  0  0  0  0  0  0
  189.1270  176.0200  145.7440 C   0  0  1  0  0  3  0  0  0  0  0  0
  196.0690  175.1600  142.1370 C   0  0  0  0  0  1  0  0  0  0  0  0
  189.7050  174.5260  141.8560 C   0  0  0  0  0  2  0  0  0  0  0  0
  191.1940  174.9140  141.8400 C   0  0  0  0  0  2  0  0  0  0  0  0
  189.9050  177.2400  146.2340 C   0  0  0  0  0  2  0  0  0  0  0  0
  187.5460  176.3980  143.8480 C   0  0  0  0  0  3  0  0  0  0  0  0
  187.7840  176.4250  145.2260 C   0  0  0  0  0  0  0  0  0  0  0  0
  186.7650  176.8410  146.0980 C   0  0  0  0  0  3  0  0  0  0  0  0
  184.4470  177.6660  146.5180 C   0  0  0  0  0  1  0  0  0  0  0  0
  185.2880  177.1950  144.2130 C   0  0  0  0  0  3  0  0  0  0  0  0
  185.5210  177.2250  145.5910 C   0  0  0  0  0  0  0  0  0  0  0  0
  186.3000  176.7810  143.3420 C   0  0  0  0  0  3  0  0  0  0  0  0
  190.0980  170.3000  139.1330 O   0  0  0  0  0  0  0  0  0  0  0  0
  189.6970  171.4750  138.9220 C   0  0  0  0  0  0  0  0  0  0  0  0
  189.6610  172.0710  141.3950 C   0  0  0  0  0  0  0  0  0  0  0  0
  189.4680  172.3790  140.0100 N   0  0  0  0  0  2  0  0  0  0  0  0
  190.0670  170.9320  141.7540 O   0  0  0  0  0  0  0  0  0  0  0  0
  188.7640  172.9990  137.3570 O   0  0  0  0  0  1  0  0  0  0  0  0
  189.4740  171.8920  137.6120 O   0  0  0  0  0  0  0  0  0  0  0  0
  1 18  1  0  0  0  0
  2 16  1  0  0  0  0
  4  8  2  0  0  0  0
  5  7  1  0  0  0  0
  5  2  1  1  0  0  0
  6  2  2  0  0  0  0
  6  4  1  0  0  0  0
  7  3  1  1  0  0  0
  7 19  1  0  0  0  0
  8 12  1  0  0  0  0
  9 13  1  1  0  0  0
  9 17  1  0  0  0  0
  9  6  1  0  0  0  0
 10  1  1  0  0  0  0
 13  1  1  0  0  0  0
 14 33  1  6  0  0  0
 14 15  1  0  0  0  0
 15  3  1  0  0  0  0
 16 12  2  0  0  0  0
 16 11  1  0  0  0  0
 17 22  1  6  0  0  0
 17  5  1  0  0  0  0
 18  4  1  0  0  0  0
 19 25  1  6  0  0  0
 19 23  1  0  0  0  0
 20  1  1  0  0  0  0
 21 14  1  0  0  0  0
 22 21  1  0  0  0  0
 23 11  1  0  0  0  0
 24 25  1  0  0  0  0
 25 26  2  0  0  0  0
 28 29  2  0  0  0  0
 29 26  1  0  0  0  0
 29 27  1  0  0  0  0
 30 24  2  0  0  0  0
 30 28  1  0  0  0  0
 32 31  2  0  0  0  0
 32 34  1  0  0  0  0
 33 35  2  0  0  0  0
 34 33  1  0  0  0  0
 36 37  1  0  0  0  0
 37 32  1  0  0  0  0
M  END
>  <MODEL>
5

>  <REMARK>
 VINA RESULT:      -9.1      1.381      1.811
  Name = 
  3 active torsions:
  status: ('A' for Active; 'I' for Inactive)
    1  A    between atoms: C_4  and  O_37
    2  A    between atoms: C_8  and  C_18
    3  A    between atoms: C_23  and  C_30
                            x       y       z     vdW  Elec       q    Type
                         _______ _______ _______ _____ _____    ______ ____

>  <TORSDO>
F 3

$$$$
=
 OpenBabel11112417243D

 37 42  0  0  1  0  0  0  0  0999 V2000
  190.1130  172.8470  138.3180 C   0  0  0  0  0  0  0  0  0  0  0  0
  187.7810  175.4730  140.6050 C   0  0  0  0  0  0  0  0  0  0  0  0
  189.9420  177.2240  142.6610 C   0  0  0  0  0  2  0  0  0  0  0  0
  188.1980  174.5650  138.4110 C   0  0  0  0  0  0  0  0  0  0  0  0
  188.3130  175.2420  141.9750 C   0  0  2  0  0  3  0  0  0  0  0  0
  188.3340  174.5300  139.7930 C   0  0  0  0  0  0  0  0  0  0  0  0
  188.6010  176.4990  142.8300 C   0  0  2  0  0  3  0  0  0  0  0  0
  187.3430  175.5310  137.8580 C   0  0  0  0  0  3  0  0  0  0  0  0
  189.2510  173.6600  140.5460 C   0  0  1  0  0  3  0  0  0  0  0  0
  191.3700  172.7330  137.4820 C   0  0  0  0  0  1  0  0  0  0  0  0
  186.2630  177.5100  140.9250 C   0  0  0  0  0  2  0  0  0  0  0  0
  186.6810  176.4510  138.6990 C   0  0  0  0  0  3  0  0  0  0  0  0
  190.4990  173.4320  139.6950 C   0  0  0  0  0  2  0  0  0  0  0  0
  191.2600  175.4110  143.9930 C   0  0  1  0  0  3  0  0  0  0  0  0
  191.1800  176.3180  142.7500 C   0  0  0  0  0  2  0  0  0  0  0  0
  186.8950  176.4360  140.0910 C   0  0  0  0  0  0  0  0  0  0  0  0
  189.5290  174.4320  141.7580 N   0  0  2  0  0  0  0  0  0  0  0  0
  189.0970  173.7230  137.5430 C   0  0  0  0  0  2  0  0  0  0  0  0
  187.4350  177.4510  143.1320 C   0  0  1  0  0  3  0  0  0  0  0  0
  189.5370  171.4510  138.4910 C   0  0  0  0  0  1  0  0  0  0  0  0
  190.1210  174.3800  144.1540 C   0  0  0  0  0  2  0  0  0  0  0  0
  189.7840  173.5560  142.8980 C   0  0  0  0  0  2  0  0  0  0  0  0
  186.1360  177.1360  142.3930 C   0  0  0  0  0  2  0  0  0  0  0  0
  188.2070  177.1150  145.4840 C   0  0  0  0  0  3  0  0  0  0  0  0
  187.1990  177.5280  144.6060 C   0  0  0  0  0  0  0  0  0  0  0  0
  185.9790  177.9950  145.1220 C   0  0  0  0  0  3  0  0  0  0  0  0
  184.4830  178.5430  147.0430 C   0  0  0  0  0  1  0  0  0  0  0  0
  186.7870  177.6360  147.3750 C   0  0  0  0  0  3  0  0  0  0  0  0
  185.7760  178.0480  146.5020 C   0  0  0  0  0  0  0  0  0  0  0  0
  188.0030  177.1700  146.8660 C   0  0  0  0  0  3  0  0  0  0  0  0
  194.9860  173.1170  144.3410 O   0  0  0  0  0  0  0  0  0  0  0  0
  193.8780  172.6410  144.7030 C   0  0  0  0  0  0  0  0  0  0  0  0
  192.5920  174.7400  144.0600 C   0  0  0  0  0  0  0  0  0  0  0  0
  192.6740  173.4090  144.5820 N   0  0  0  0  0  2  0  0  0  0  0  0
  193.6240  175.3400  143.6530 O   0  0  0  0  0  0  0  0  0  0  0  0
  194.7920  170.9120  146.0500 O   0  0  0  0  0  1  0  0  0  0  0  0
  193.8310  171.3520  145.2270 O   0  0  0  0  0  0  0  0  0  0  0  0
  1 20  1  0  0  0  0
  1 13  1  0  0  0  0
  3 15  1  0  0  0  0
  4  6  1  0  0  0  0
  5  2  1  6  0  0  0
  5  7  1  0  0  0  0
  6  9  1  0  0  0  0
  6  2  2  0  0  0  0
  7  3  1  6  0  0  0
  7 19  1  0  0  0  0
  8  4  2  0  0  0  0
  8 12  1  0  0  0  0
  9 13  1  6  0  0  0
  9 17  1  0  0  0  0
 10  1  1  0  0  0  0
 11 23  1  0  0  0  0
 12 16  2  0  0  0  0
 14 33  1  6  0  0  0
 14 21  1  0  0  0  0
 15 14  1  0  0  0  0
 16  2  1  0  0  0  0
 16 11  1  0  0  0  0
 17  5  1  0  0  0  0
 17 22  1  1  0  0  0
 18  1  1  0  0  0  0
 18  4  1  0  0  0  0
 19 25  1  1  0  0  0
 22 21  1  0  0  0  0
 23 19  1  0  0  0  0
 24 30  1  0  0  0  0
 25 26  1  0  0  0  0
 25 24  2  0  0  0  0
 26 29  2  0  0  0  0
 29 27  1  0  0  0  0
 29 28  1  0  0  0  0
 30 28  2  0  0  0  0
 31 32  2  0  0  0  0
 32 37  1  0  0  0  0
 33 34  1  0  0  0  0
 34 32  1  0  0  0  0
 35 33  2  0  0  0  0
 37 36  1  0  0  0  0
M  END
>  <MODEL>
6

>  <REMARK>
 VINA RESULT:      -8.2      3.207      6.381
  Name = 
  3 active torsions:
  status: ('A' for Active; 'I' for Inactive)
    1  A    between atoms: C_4  and  O_37
    2  A    between atoms: C_8  and  C_18
    3  A    between atoms: C_23  and  C_30
                            x       y       z     vdW  Elec       q    Type
                         _______ _______ _______ _____ _____    ______ ____

>  <TORSDO>
F 3

$$$$
=
 OpenBabel11112417243D

 37 42  0  0  1  0  0  0  0  0999 V2000
  195.4460  173.3310  144.1440 C   0  0  0  0  0  0  0  0  0  0  0  0
  192.0860  175.7790  144.6750 C   0  0  0  0  0  0  0  0  0  0  0  0
  189.3010  173.8500  143.9760 C   0  0  0  0  0  2  0  0  0  0  0  0
  194.2130  175.0820  145.5730 C   0  0  0  0  0  0  0  0  0  0  0  0
  191.3070  175.5050  143.4370 C   0  0  2  0  0  3  0  0  0  0  0  0
  193.3010  175.1810  144.5290 C   0  0  0  0  0  0  0  0  0  0  0  0
  189.7900  175.2580  143.6110 C   0  0  2  0  0  3  0  0  0  0  0  0
  193.9150  175.7470  146.7720 C   0  0  0  0  0  3  0  0  0  0  0  0
  193.3900  174.4800  143.2380 C   0  0  1  0  0  3  0  0  0  0  0  0
  196.0290  171.9660  144.4440 C   0  0  0  0  0  1  0  0  0  0  0  0
  190.4440  177.1510  146.0820 C   0  0  0  0  0  2  0  0  0  0  0  0
  192.7030  176.4590  146.9010 C   0  0  0  0  0  3  0  0  0  0  0  0
  194.0680  173.1310  143.4750 C   0  0  0  0  0  2  0  0  0  0  0  0
  189.6770  172.9320  141.5660 C   0  0  1  0  0  3  0  0  0  0  0  0
  189.8480  172.7260  143.0830 C   0  0  0  0  0  2  0  0  0  0  0  0
  191.7660  176.4820  145.8500 C   0  0  0  0  0  0  0  0  0  0  0  0
  191.9900  174.3440  142.8320 N   0  0  2  0  0  0  0  0  0  0  0  0
  195.3730  174.1260  145.4720 C   0  0  0  0  0  2  0  0  0  0  0  0
  188.9440  176.3720  144.2410 C   0  0  1  0  0  3  0  0  0  0  0  0
  196.3880  174.0440  143.1890 C   0  0  0  0  0  1  0  0  0  0  0  0
  190.3860  174.1650  140.9640 C   0  0  0  0  0  2  0  0  0  0  0  0
  191.8570  174.3570  141.3790 C   0  0  0  0  0  2  0  0  0  0  0  0
  189.7390  177.5520  144.7960 C   0  0  0  0  0  2  0  0  0  0  0  0
  188.1840  176.8100  141.9020 C   0  0  0  0  0  3  0  0  0  0  0  0
  187.9070  176.8440  143.2730 C   0  0  0  0  0  0  0  0  0  0  0  0
  186.6670  177.3300  143.7180 C   0  0  0  0  0  3  0  0  0  0  0  0
  184.4050  178.2890  143.2720 C   0  0  0  0  0  1  0  0  0  0  0  0
  185.9980  177.7380  141.4270 C   0  0  0  0  0  3  0  0  0  0  0  0
  185.7160  177.7750  142.7960 C   0  0  0  0  0  0  0  0  0  0  0  0
  187.2310  177.2550  140.9810 C   0  0  0  0  0  3  0  0  0  0  0  0
  190.9800  169.1620  139.7350 O   0  0  0  0  0  0  0  0  0  0  0  0
  191.2610  169.4520  140.9280 C   0  0  0  0  0  0  0  0  0  0  0  0
  190.0590  171.6920  140.8280 C   0  0  0  0  0  0  0  0  0  0  0  0
  190.8270  170.6900  141.5040 N   0  0  0  0  0  2  0  0  0  0  0  0
  189.7010  171.5330  139.6290 O   0  0  0  0  0  0  0  0  0  0  0  0
  192.1630  168.7380  143.0050 O   0  0  0  0  0  1  0  0  0  0  0  0
  192.0040  168.5530  141.6880 O   0  0  0  0  0  0  0  0  0  0  0  0
  1 10  1  0  0  0  0
  1 18  1  0  0  0  0
  2 16  1  0  0  0  0
  4  8  2  0  0  0  0
  5  7  1  0  0  0  0
  5  2  1  1  0  0  0
  6  2  2  0  0  0  0
  6  4  1  0  0  0  0
  7  3  1  1  0  0  0
  7 19  1  0  0  0  0
  8 12  1  0  0  0  0
  9 13  1  1  0  0  0
  9  6  1  0  0  0  0
 13  1  1  0  0  0  0
 14 33  1  6  0  0  0
 14 15  1  0  0  0  0
 15  3  1  0  0  0  0
 16 11  1  0  0  0  0
 16 12  2  0  0  0  0
 17 22  1  6  0  0  0
 17  9  1  0  0  0  0
 17  5  1  0  0  0  0
 18  4  1  0  0  0  0
 19 25  1  6  0  0  0
 19 23  1  0  0  0  0
 20  1  1  0  0  0  0
 21 22  1  0  0  0  0
 21 14  1  0  0  0  0
 23 11  1  0  0  0  0
 24 25  1  0  0  0  0
 25 26  2  0  0  0  0
 28 29  2  0  0  0  0
 29 27  1  0  0  0  0
 29 26  1  0  0  0  0
 30 28  1  0  0  0  0
 30 24  2  0  0  0  0
 31 32  2  0  0  0  0
 32 34  1  0  0  0  0
 32 37  1  0  0  0  0
 33 34  1  0  0  0  0
 35 33  2  0  0  0  0
 37 36  1  0  0  0  0
M  END
>  <MODEL>
7

>  <REMARK>
 VINA RESULT:      -8.1      2.362      3.490
  Name = 
  3 active torsions:
  status: ('A' for Active; 'I' for Inactive)
    1  A    between atoms: C_4  and  O_37
    2  A    between atoms: C_8  and  C_18
    3  A    between atoms: C_23  and  C_30
                            x       y       z     vdW  Elec       q    Type
                         _______ _______ _______ _____ _____    ______ ____

>  <TORSDO>
F 3

$$$$
=
 OpenBabel11112417243D

 37 42  0  0  1  0  0  0  0  0999 V2000
  195.1220  174.5330  144.7170 C   0  0  0  0  0  0  0  0  0  0  0  0
  191.4260  176.3750  145.4340 C   0  0  0  0  0  0  0  0  0  0  0  0
  188.9700  174.1220  144.5070 C   0  0  0  0  0  2  0  0  0  0  0  0
  193.6340  175.9250  146.2910 C   0  0  0  0  0  0  0  0  0  0  0  0
  190.6980  176.1090  144.1640 C   0  0  2  0  0  3  0  0  0  0  0  0
  192.7180  175.9870  145.2490 C   0  0  0  0  0  0  0  0  0  0  0  0
  189.2370  175.6170  144.2890 C   0  0  2  0  0  3  0  0  0  0  0  0
  193.2370  176.4150  147.5450 C   0  0  0  0  0  3  0  0  0  0  0  0
  192.9140  175.4380  143.8970 C   0  0  1  0  0  3  0  0  0  0  0  0
  195.9070  173.2500  144.8910 C   0  0  0  0  0  1  0  0  0  0  0  0
  189.5930  177.3340  146.9430 C   0  0  0  0  0  2  0  0  0  0  0  0
  191.9310  176.9170  147.7250 C   0  0  0  0  0  3  0  0  0  0  0  0
  193.7910  174.1930  144.0100 C   0  0  0  0  0  2  0  0  0  0  0  0
  189.4820  173.5150  142.0240 C   0  0  1  0  0  3  0  0  0  0  0  0
  189.6820  173.1890  143.5170 C   0  0  0  0  0  2  0  0  0  0  0  0
  191.0010  176.9010  146.6670 C   0  0  0  0  0  0  0  0  0  0  0  0
  191.5510  175.1310  143.4580 N   0  0  2  0  0  0  0  0  0  0  0  0
  194.9270  175.1720  146.1150 C   0  0  0  0  0  2  0  0  0  0  0  0
  188.2300  176.5220  145.0120 C   0  0  1  0  0  3  0  0  0  0  0  0
  195.9430  175.4730  143.8510 C   0  0  0  0  0  1  0  0  0  0  0  0
  189.9940  174.8960  141.5570 C   0  0  0  0  0  2  0  0  0  0  0  0
  191.4170  175.2680  142.0110 C   0  0  0  0  0  2  0  0  0  0  0  0
  188.8340  177.7480  145.6920 C   0  0  0  0  0  2  0  0  0  0  0  0
  185.8630  177.2030  144.5950 C   0  0  0  0  0  3  0  0  0  0  0  0
  187.1330  176.9230  144.0790 C   0  0  0  0  0  0  0  0  0  0  0  0
  187.3530  177.0100  142.6950 C   0  0  0  0  0  3  0  0  0  0  0  0
  186.5490  177.4670  140.3760 C   0  0  0  0  0  1  0  0  0  0  0  0
  185.0440  177.6570  142.3620 C   0  0  0  0  0  3  0  0  0  0  0  0
  186.3110  177.3770  141.8400 C   0  0  0  0  0  0  0  0  0  0  0  0
  184.8210  177.5710  143.7390 C   0  0  0  0  0  3  0  0  0  0  0  0
  191.1300  170.5720  139.2160 O   0  0  0  0  0  0  0  0  0  0  0  0
  190.7820  171.7230  138.8420 C   0  0  0  0  0  0  0  0  0  0  0  0
  190.0500  172.4280  141.1750 C   0  0  0  0  0  0  0  0  0  0  0  0
  190.2440  172.6670  139.7760 N   0  0  0  0  0  2  0  0  0  0  0  0
  190.3610  171.3190  141.6910 O   0  0  0  0  0  0  0  0  0  0  0  0
  190.2280  173.0930  136.9830 O   0  0  0  0  0  1  0  0  0  0  0  0
  190.9250  172.0740  137.5020 O   0  0  0  0  0  0  0  0  0  0  0  0
  1 10  1  0  0  0  0
  1 18  1  0  0  0  0
  2 16  1  0  0  0  0
  4  8  2  0  0  0  0
  5  7  1  0  0  0  0
  5  2  1  1  0  0  0
  6  2  2  0  0  0  0
  6  4  1  0  0  0  0
  7  3  1  1  0  0  0
  7 19  1  0  0  0  0
  8 12  1  0  0  0  0
  9 13  1  1  0  0  0
  9  6  1  0  0  0  0
 13  1  1  0  0  0  0
 14 33  1  6  0  0  0
 14 15  1  0  0  0  0
 15  3  1  0  0  0  0
 16 11  1  0  0  0  0
 16 12  2  0  0  0  0
 17 22  1  6  0  0  0
 17  9  1  0  0  0  0
 17  5  1  0  0  0  0
 18  4  1  0  0  0  0
 19 25  1  6  0  0  0
 19 23  1  0  0  0  0
 20  1  1  0  0  0  0
 21 22  1  0  0  0  0
 21 14  1  0  0  0  0
 23 11  1  0  0  0  0
 25 24  1  0  0  0  0
 26 25  2  0  0  0  0
 27 29  1  0  0  0  0
 28 30  1  0  0  0  0
 29 28  2  0  0  0  0
 29 26  1  0  0  0  0
 30 24  2  0  0  0  0
 32 31  2  0  0  0  0
 32 34  1  0  0  0  0
 33 35  2  0  0  0  0
 34 33  1  0  0  0  0
 36 37  1  0  0  0  0
 37 32  1  0  0  0  0
M  END
>  <MODEL>
8

>  <REMARK>
 VINA RESULT:      -7.9      1.741      2.295
  Name = 
  3 active torsions:
  status: ('A' for Active; 'I' for Inactive)
    1  A    between atoms: C_4  and  O_37
    2  A    between atoms: C_8  and  C_18
    3  A    between atoms: C_23  and  C_30
                            x       y       z     vdW  Elec       q    Type
                         _______ _______ _______ _____ _____    ______ ____

>  <TORSDO>
F 3

$$$$
=
 OpenBabel11112417243D

 37 42  0  0  1  0  0  0  0  0999 V2000
  186.6600  178.1140  147.3740 C   0  0  0  0  0  0  0  0  0  0  0  0
  190.0000  176.3330  145.5740 C   0  0  0  0  0  0  0  0  0  0  0  0
  190.1290  177.4800  142.3130 C   0  0  0  0  0  2  0  0  0  0  0  0
  189.1440  177.4530  147.5290 C   0  0  0  0  0  0  0  0  0  0  0  0
  189.4320  175.8460  144.2870 C   0  0  2  0  0  3  0  0  0  0  0  0
  188.9580  176.7660  146.3370 C   0  0  0  0  0  0  0  0  0  0  0  0
  190.2640  176.1210  143.0120 C   0  0  2  0  0  3  0  0  0  0  0  0
  190.4520  177.5760  148.0210 C   0  0  0  0  0  3  0  0  0  0  0  0
  187.6820  176.6170  145.6180 C   0  0  1  0  0  3  0  0  0  0  0  0
  185.9160  179.4190  147.5590 C   0  0  0  0  0  1  0  0  0  0  0  0
  192.5140  175.9660  145.2550 C   0  0  0  0  0  2  0  0  0  0  0  0
  191.5340  177.0390  147.2890 C   0  0  0  0  0  3  0  0  0  0  0  0
  186.8500  177.8750  145.8600 C   0  0  0  0  0  2  0  0  0  0  0  0
  187.8150  176.8830  141.2710 C   0  0  1  0  0  3  0  0  0  0  0  0
  188.6850  177.9130  142.0180 C   0  0  0  0  0  2  0  0  0  0  0  0
  191.3210  176.4100  146.0470 C   0  0  0  0  0  0  0  0  0  0  0  0
  188.0970  176.4750  144.2210 N   0  0  2  0  0  0  0  0  0  0  0  0
  187.9970  178.2060  148.1520 C   0  0  0  0  0  2  0  0  0  0  0  0
  191.6830  175.5420  142.9360 C   0  0  1  0  0  3  0  0  0  0  0  0
  185.8130  177.0020  147.9720 C   0  0  0  0  0  1  0  0  0  0  0  0
  187.5840  175.5390  141.9960 C   0  0  0  0  0  2  0  0  0  0  0  0
  187.1620  175.6410  143.4730 C   0  0  0  0  0  2  0  0  0  0  0  0
  192.1870  174.8960  144.2250 C   0  0  0  0  0  2  0  0  0  0  0  0
  193.0120  174.4610  141.1180 C   0  0  0  0  0  3  0  0  0  0  0  0
  191.7920  174.5880  141.7900 C   0  0  0  0  0  0  0  0  0  0  0  0
  190.6870  173.8290  141.3710 C   0  0  0  0  0  3  0  0  0  0  0  0
  189.6360  172.1500  139.8520 C   0  0  0  0  0  1  0  0  0  0  0  0
  192.0310  172.8260  139.6250 C   0  0  0  0  0  3  0  0  0  0  0  0
  190.8080  172.9510  140.2920 C   0  0  0  0  0  0  0  0  0  0  0  0
  193.1320  173.5810  140.0380 C   0  0  0  0  0  3  0  0  0  0  0  0
  183.8830  178.6650  140.4800 O   0  0  0  0  0  0  0  0  0  0  0  0
  184.2240  178.2990  141.6350 C   0  0  0  0  0  0  0  0  0  0  0  0
  186.5150  177.4970  140.8710 C   0  0  0  0  0  0  0  0  0  0  0  0
  185.5130  177.7170  141.8700 N   0  0  0  0  0  2  0  0  0  0  0  0
  186.3120  177.8210  139.6680 O   0  0  0  0  0  0  0  0  0  0  0  0
  183.7420  178.9730  143.8600 O   0  0  0  0  0  1  0  0  0  0  0  0
  183.3330  178.4640  142.6910 O   0  0  0  0  0  0  0  0  0  0  0  0
  1 10  1  0  0  0  0
  1 20  1  0  0  0  0
  1 18  1  0  0  0  0
  2 16  2  0  0  0  0
  2  6  1  0  0  0  0
  4  8  1  0  0  0  0
  4 18  1  0  0  0  0
  5  2  1  1  0  0  0
  6  4  2  0  0  0  0
  7  3  1  1  0  0  0
  7  5  1  0  0  0  0
  9 13  1  6  0  0  0
  9  6  1  0  0  0  0
 11 16  1  0  0  0  0
 12  8  2  0  0  0  0
 13  1  1  0  0  0  0
 14 33  1  1  0  0  0
 14 21  1  0  0  0  0
 14 15  1  0  0  0  0
 15  3  1  0  0  0  0
 16 12  1  0  0  0  0
 17 22  1  6  0  0  0
 17  5  1  0  0  0  0
 17  9  1  0  0  0  0
 19 25  1  6  0  0  0
 19  7  1  0  0  0  0
 19 23  1  0  0  0  0
 21 22  1  0  0  0  0
 23 11  1  0  0  0  0
 24 25  1  0  0  0  0
 26 25  2  0  0  0  0
 27 29  1  0  0  0  0
 28 30  1  0  0  0  0
 28 29  2  0  0  0  0
 29 26  1  0  0  0  0
 30 24  2  0  0  0  0
 31 32  2  0  0  0  0
 32 34  1  0  0  0  0
 32 37  1  0  0  0  0
 33 34  1  0  0  0  0
 35 33  2  0  0  0  0
 37 36  1  0  0  0  0
M  END
>  <MODEL>
9

>  <REMARK>
 VINA RESULT:      -7.9      2.742      6.664
  Name = 
  3 active torsions:
  status: ('A' for Active; 'I' for Inactive)
    1  A    between atoms: C_4  and  O_37
    2  A    between atoms: C_8  and  C_18
    3  A    between atoms: C_23  and  C_30
                            x       y       z     vdW  Elec       q    Type
                         _______ _______ _______ _____ _____    ______ ____

>  <TORSDO>
F 3

$$$$
