=
 OpenBabel11112417593D

 34 40  0  0  1  0  0  0  0  0999 V2000
  187.3190  177.4180  145.5850 C   0  0  2  0  0  3  0  0  0  0  0  0
  184.9520  178.4330  145.4620 C   0  0  0  0  0  3  0  0  0  0  0  0
  190.0650  172.5580  143.4270 C   0  0  0  0  0  2  0  0  0  0  0  0
  189.3180  175.8330  145.2380 C   0  0  0  0  0  0  0  0  0  0  0  0
  190.3350  175.6430  142.9820 C   0  0  0  0  0  0  0  0  0  0  0  0
  190.6620  173.8140  141.3240 C   0  0  0  0  0  2  0  0  0  0  0  0
  190.8270  172.5140  142.1070 C   0  0  0  0  0  2  0  0  0  0  0  0
  192.1020  173.5540  144.5490 C   0  0  0  0  0  2  0  0  0  0  0  0
  186.1130  178.0670  143.5050 C   0  0  0  0  0  0  0  0  0  0  0  0
  184.7480  178.3620  140.7640 C   0  0  0  0  0  2  0  0  0  0  0  0
  189.3190  176.3540  142.4730 C   0  0  0  0  0  3  0  0  0  0  0  0
  191.6400  174.9180  145.0560 C   0  0  0  0  0  2  0  0  0  0  0  0
  187.1490  177.7160  142.7240 C   0  0  0  0  0  0  0  0  0  0  0  0
  184.1290  178.9580  144.3600 N   0  0  0  0  0  0  0  0  0  0  0  0
  190.4140  175.4010  144.4100 N   0  0  0  0  0  0  0  0  0  0  0  0
  191.0180  172.4800  144.6160 C   0  0  0  0  0  2  0  0  0  0  0  0
  184.1520  178.1090  142.0780 N   0  0  0  0  0  0  0  0  0  0  0  0
  188.2890  176.7170  144.6580 C   0  0  0  0  0  0  0  0  0  0  0  0
  191.3010  175.0140  142.0260 C   0  0  0  0  0  2  0  0  0  0  0  0
  188.2660  176.9420  143.3300 C   0  0  0  0  0  0  0  0  0  0  0  0
  187.9420  175.7090  147.2720 C   0  0  0  0  0  3  0  0  0  0  0  0
  185.9770  177.4920  140.5330 C   0  0  0  0  0  2  0  0  0  0  0  0
  189.1450  175.3630  146.4830 C   0  0  0  0  0  3  0  0  0  0  0  0
  187.1770  178.0730  141.2680 C   0  0  0  0  0  2  0  0  0  0  0  0
  184.9100  178.8370  143.1130 C   0  0  2  0  0  3  0  0  0  0  0  0
  187.0620  176.6200  146.8380 C   0  0  0  0  0  3  0  0  0  0  0  0
  186.0870  177.7530  144.8750 N   0  0  0  0  0  0  0  0  0  0  0  0
  182.7440  178.5370  142.0180 C   0  0  0  0  0  2  0  0  0  0  0  0
  182.0640  178.1960  140.6880 C   0  0  0  0  0  2  0  0  0  0  0  0
  178.5620  178.0840  140.8670 C   0  0  0  0  0  2  0  0  0  0  0  0
  180.3720  179.2060  141.9500 C   0  0  0  0  0  2  0  0  0  0  0  0
  180.7960  178.8980  140.5880 N   0  0  0  0  0  0  0  0  0  0  0  0
  179.0540  178.5100  142.2200 C   0  0  0  0  0  2  0  0  0  0  0  0
  179.8220  177.9560  140.0490 C   0  0  0  0  0  2  0  0  0  0  0  0
  1 26  1  1  0  0  0
  3 16  1  0  0  0  0
  4 23  2  0  0  0  0
  5 15  1  0  0  0  0
  6 19  1  0  0  0  0
  6  7  1  0  0  0  0
  7  3  1  0  0  0  0
  8 16  1  0  0  0  0
  8 12  1  0  0  0  0
  9 27  1  0  0  0  0
 10 17  1  0  0  0  0
 11  5  2  0  0  0  0
 11 20  1  0  0  0  0
 13 20  1  0  0  0  0
 13  9  2  0  0  0  0
 14  2  2  0  0  0  0
 15 12  1  0  0  0  0
 15  4  1  0  0  0  0
 17 25  1  0  0  0  0
 18  4  1  0  0  0  0
 18  1  1  0  0  0  0
 19  5  1  0  0  0  0
 20 18  2  0  0  0  0
 22 10  1  0  0  0  0
 22 24  1  0  0  0  0
 23 21  1  0  0  0  0
 24 13  1  0  0  0  0
 25  9  1  1  0  0  0
 25 14  1  0  0  0  0
 26 21  2  0  0  0  0
 27  2  1  0  0  0  0
 27  1  1  0  0  0  0
 28 17  1  0  0  0  0
 29 28  1  0  0  0  0
 30 33  1  0  0  0  0
 31 33  1  0  0  0  0
 32 29  1  0  0  0  0
 32 31  1  0  0  0  0
 34 32  1  0  0  0  0
 34 30  1  0  0  0  0
M  END
>  <MODEL>
1

>  <REMARK>
 VINA RESULT:      -9.1      0.000      0.000
  Name = 
  3 active torsions:
  status: ('A' for Active; 'I' for Inactive)
    1  A    between atoms: N_17  and  C_28
    2  A    between atoms: C_28  and  C_29
    3  A    between atoms: C_29  and  N_32
                            x       y       z     vdW  Elec       q    Type
                         _______ _______ _______ _____ _____    ______ ____

>  <TORSDO>
F 3

$$$$
=
 OpenBabel11112417593D

 34 40  0  0  1  0  0  0  0  0999 V2000
  190.4330  176.2900  146.7620 C   0  0  2  0  0  3  0  0  0  0  0  0
  192.9970  176.0660  146.9250 C   0  0  0  0  0  3  0  0  0  0  0  0
  186.5550  179.1770  143.2340 C   0  0  0  0  0  2  0  0  0  0  0  0
  188.0890  177.0010  145.9680 C   0  0  0  0  0  0  0  0  0  0  0  0
  187.2510  176.1770  143.7810 C   0  0  0  0  0  0  0  0  0  0  0  0
  186.5330  177.2240  141.6390 C   0  0  0  0  0  2  0  0  0  0  0  0
  185.9250  178.5830  141.9790 C   0  0  0  0  0  2  0  0  0  0  0  0
  184.8210  177.9920  144.6430 C   0  0  0  0  0  2  0  0  0  0  0  0
  191.9440  175.4470  144.9710 C   0  0  0  0  0  0  0  0  0  0  0  0
  193.5560  174.7720  142.4380 C   0  0  0  0  0  2  0  0  0  0  0  0
  188.4710  175.6940  143.5040 C   0  0  0  0  0  3  0  0  0  0  0  0
  185.6230  177.0560  145.5440 C   0  0  0  0  0  2  0  0  0  0  0  0
  190.9190  175.2090  144.1350 C   0  0  0  0  0  0  0  0  0  0  0  0
  194.0260  175.5120  146.0300 N   0  0  0  0  0  0  0  0  0  0  0  0
  186.9870  176.8020  145.0630 N   0  0  0  0  0  0  0  0  0  0  0  0
  185.5270  179.3140  144.3540 C   0  0  0  0  0  2  0  0  0  0  0  0
  193.9400  175.5810  143.5970 N   0  0  0  0  0  0  0  0  0  0  0  0
  189.3790  176.3450  145.6770 C   0  0  0  0  0  0  0  0  0  0  0  0
  186.2230  176.1580  142.6920 C   0  0  0  0  0  2  0  0  0  0  0  0
  189.5760  175.7470  144.4850 C   0  0  0  0  0  0  0  0  0  0  0  0
  189.1940  178.1500  147.8380 C   0  0  0  0  0  3  0  0  0  0  0  0
  192.1470  175.1090  141.9660 C   0  0  0  0  0  2  0  0  0  0  0  0
  188.0110  177.8540  147.0000 C   0  0  0  0  0  3  0  0  0  0  0  0
  191.1180  174.4380  142.8640 C   0  0  0  0  0  2  0  0  0  0  0  0
  193.3500  175.0040  144.8200 C   0  0  2  0  0  3  0  0  0  0  0  0
  190.3370  177.4680  147.6970 C   0  0  0  0  0  3  0  0  0  0  0  0
  191.7630  176.1530  146.1730 N   0  0  0  0  0  0  0  0  0  0  0  0
  195.4110  175.6100  143.6520 C   0  0  0  0  0  2  0  0  0  0  0  0
  196.0700  174.5320  142.7850 C   0  0  0  0  0  2  0  0  0  0  0  0
  197.0090  173.4400  145.9840 C   0  0  0  0  0  2  0  0  0  0  0  0
  196.1620  172.5070  143.9550 C   0  0  0  0  0  2  0  0  0  0  0  0
  196.9310  173.6970  143.6060 N   0  0  0  0  0  0  0  0  0  0  0  0
  196.0120  172.4470  145.4610 C   0  0  0  0  0  2  0  0  0  0  0  0
  197.1740  174.4180  144.8500 C   0  0  0  0  0  2  0  0  0  0  0  0
  1 26  1  6  0  0  0
  3 16  1  0  0  0  0
  4 23  2  0  0  0  0
  5 15  1  0  0  0  0
  6  7  1  0  0  0  0
  6 19  1  0  0  0  0
  7  3  1  0  0  0  0
  8 12  1  0  0  0  0
  9 27  1  0  0  0  0
 10 17  1  0  0  0  0
 11  5  2  0  0  0  0
 11 20  1  0  0  0  0
 13 20  1  0  0  0  0
 13  9  2  0  0  0  0
 14  2  2  0  0  0  0
 15 12  1  0  0  0  0
 15  4  1  0  0  0  0
 16  8  1  0  0  0  0
 17 28  1  0  0  0  0
 17 25  1  0  0  0  0
 18  4  1  0  0  0  0
 18  1  1  0  0  0  0
 19  5  1  0  0  0  0
 20 18  2  0  0  0  0
 22 10  1  0  0  0  0
 22 24  1  0  0  0  0
 23 21  1  0  0  0  0
 24 13  1  0  0  0  0
 25  9  1  1  0  0  0
 25 14  1  0  0  0  0
 26 21  2  0  0  0  0
 27  1  1  0  0  0  0
 27  2  1  0  0  0  0
 29 32  1  0  0  0  0
 29 28  1  0  0  0  0
 31 33  1  0  0  0  0
 32 31  1  0  0  0  0
 32 34  1  0  0  0  0
 33 30  1  0  0  0  0
 34 30  1  0  0  0  0
M  END
>  <MODEL>
2

>  <REMARK>
 VINA RESULT:      -8.4      3.179      9.598
  Name = 
  3 active torsions:
  status: ('A' for Active; 'I' for Inactive)
    1  A    between atoms: N_17  and  C_28
    2  A    between atoms: C_28  and  C_29
    3  A    between atoms: C_29  and  N_32
                            x       y       z     vdW  Elec       q    Type
                         _______ _______ _______ _____ _____    ______ ____

>  <TORSDO>
F 3

$$$$
=
 OpenBabel11112417593D

 34 40  0  0  1  0  0  0  0  0999 V2000
  190.7180  176.2630  146.7530 C   0  0  2  0  0  3  0  0  0  0  0  0
  193.2890  176.1630  146.9220 C   0  0  0  0  0  3  0  0  0  0  0  0
  186.7110  179.0400  143.2800 C   0  0  0  0  0  2  0  0  0  0  0  0
  188.3440  176.8750  145.9670 C   0  0  0  0  0  0  0  0  0  0  0  0
  187.5540  176.0650  143.7570 C   0  0  0  0  0  0  0  0  0  0  0  0
  186.7910  177.1280  141.6380 C   0  0  0  0  0  2  0  0  0  0  0  0
  186.1150  178.4460  142.0090 C   0  0  0  0  0  2  0  0  0  0  0  0
  185.0340  177.7350  144.6530 C   0  0  0  0  0  2  0  0  0  0  0  0
  192.2740  175.5410  144.9480 C   0  0  0  0  0  0  0  0  0  0  0  0
  193.9250  175.0100  142.4070 C   0  0  0  0  0  2  0  0  0  0  0  0
  188.7970  175.6510  143.4730 C   0  0  0  0  0  3  0  0  0  0  0  0
  185.8790  176.8180  145.5340 C   0  0  0  0  0  2  0  0  0  0  0  0
  191.2650  175.2730  144.1030 C   0  0  0  0  0  0  0  0  0  0  0  0
  194.3480  175.6840  146.0180 N   0  0  0  0  0  0  0  0  0  0  0  0
  187.2550  176.6450  145.0530 N   0  0  0  0  0  0  0  0  0  0  0  0
  185.6740  179.0980  144.3990 C   0  0  0  0  0  2  0  0  0  0  0  0
  194.2650  175.8080  143.5870 N   0  0  0  0  0  0  0  0  0  0  0  0
  189.6650  176.2920  145.6650 C   0  0  0  0  0  0  0  0  0  0  0  0
  186.5320  176.0220  142.6630 C   0  0  0  0  0  2  0  0  0  0  0  0
  189.8950  175.7340  144.4610 C   0  0  0  0  0  0  0  0  0  0  0  0
  189.3840  178.0330  147.8690 C   0  0  0  0  0  3  0  0  0  0  0  0
  192.5030  175.2870  141.9370 C   0  0  0  0  0  2  0  0  0  0  0  0
  188.2200  177.6980  147.0190 C   0  0  0  0  0  3  0  0  0  0  0  0
  191.5050  174.5440  142.8140 C   0  0  0  0  0  2  0  0  0  0  0  0
  193.7010  175.1720  144.7930 C   0  0  2  0  0  3  0  0  0  0  0  0
  190.5610  177.4110  147.7170 C   0  0  0  0  0  3  0  0  0  0  0  0
  192.0550  176.2070  146.1670 N   0  0  0  0  0  0  0  0  0  0  0  0
  195.7330  175.9080  143.6490 C   0  0  0  0  0  2  0  0  0  0  0  0
  196.3530  176.4960  142.3770 C   0  0  0  0  0  2  0  0  0  0  0  0
  197.9330  173.4150  141.8120 C   0  0  0  0  0  2  0  0  0  0  0  0
  197.4780  175.4350  140.6200 C   0  0  0  0  0  2  0  0  0  0  0  0
  197.5650  175.7690  142.0390 N   0  0  0  0  0  0  0  0  0  0  0  0
  197.4870  173.9280  140.4730 C   0  0  0  0  0  2  0  0  0  0  0  0
  197.5310  174.5070  142.7680 C   0  0  0  0  0  2  0  0  0  0  0  0
  1 26  1  6  0  0  0
  3 16  1  0  0  0  0
  4 23  2  0  0  0  0
  5 15  1  0  0  0  0
  6  7  1  0  0  0  0
  6 19  1  0  0  0  0
  7  3  1  0  0  0  0
  8 12  1  0  0  0  0
  9 27  1  0  0  0  0
 10 17  1  0  0  0  0
 11  5  2  0  0  0  0
 11 20  1  0  0  0  0
 13 20  1  0  0  0  0
 13  9  2  0  0  0  0
 14  2  2  0  0  0  0
 15 12  1  0  0  0  0
 15  4  1  0  0  0  0
 16  8  1  0  0  0  0
 17 28  1  0  0  0  0
 17 25  1  0  0  0  0
 18  4  1  0  0  0  0
 18  1  1  0  0  0  0
 19  5  1  0  0  0  0
 20 18  2  0  0  0  0
 22 10  1  0  0  0  0
 22 24  1  0  0  0  0
 23 21  1  0  0  0  0
 24 13  1  0  0  0  0
 25  9  1  1  0  0  0
 25 14  1  0  0  0  0
 26 21  2  0  0  0  0
 27  1  1  0  0  0  0
 27  2  1  0  0  0  0
 29 28  1  0  0  0  0
 30 34  1  0  0  0  0
 31 32  1  0  0  0  0
 32 29  1  0  0  0  0
 32 34  1  0  0  0  0
 33 31  1  0  0  0  0
 33 30  1  0  0  0  0
M  END
>  <MODEL>
3

>  <REMARK>
 VINA RESULT:      -8.1      3.313      9.683
  Name = 
  3 active torsions:
  status: ('A' for Active; 'I' for Inactive)
    1  A    between atoms: N_17  and  C_28
    2  A    between atoms: C_28  and  C_29
    3  A    between atoms: C_29  and  N_32
                            x       y       z     vdW  Elec       q    Type
                         _______ _______ _______ _____ _____    ______ ____

>  <TORSDO>
F 3

$$$$
=
 OpenBabel11112417593D

 34 40  0  0  1  0  0  0  0  0999 V2000
  192.8910  176.4800  144.6560 C   0  0  2  0  0  3  0  0  0  0  0  0
  190.7030  177.8100  144.9600 C   0  0  0  0  0  3  0  0  0  0  0  0
  194.6730  170.8260  145.4830 C   0  0  0  0  0  2  0  0  0  0  0  0
  194.5920  174.5470  144.6350 C   0  0  0  0  0  0  0  0  0  0  0  0
  194.3030  172.6980  143.0040 C   0  0  0  0  0  0  0  0  0  0  0  0
  193.9370  170.2390  143.1440 C   0  0  0  0  0  2  0  0  0  0  0  0
  194.6380  169.7460  144.4070 C   0  0  0  0  0  2  0  0  0  0  0  0
  196.8610  171.6730  144.5350 C   0  0  0  0  0  2  0  0  0  0  0  0
  190.7130  175.9820  143.5560 C   0  0  0  0  0  0  0  0  0  0  0  0
  188.0990  174.8560  142.3870 C   0  0  0  0  0  2  0  0  0  0  0  0
  193.0940  173.1800  142.6830 C   0  0  0  0  0  3  0  0  0  0  0  0
  196.5710  173.1090  144.1060 C   0  0  0  0  0  2  0  0  0  0  0  0
  191.2250  174.9410  142.8780 C   0  0  0  0  0  0  0  0  0  0  0  0
  189.3710  177.7290  144.3370 N   0  0  0  0  0  0  0  0  0  0  0  0
  195.1400  173.4000  143.9570 N   0  0  0  0  0  0  0  0  0  0  0  0
  196.1080  171.2480  145.7940 C   0  0  0  0  0  2  0  0  0  0  0  0
  188.3070  175.6710  143.5870 N   0  0  0  0  0  0  0  0  0  0  0  0
  193.3140  175.1120  144.1620 C   0  0  0  0  0  0  0  0  0  0  0  0
  194.6990  171.3660  142.4450 C   0  0  0  0  0  2  0  0  0  0  0  0
  192.5780  174.4450  143.2510 C   0  0  0  0  0  0  0  0  0  0  0  0
  194.4990  176.1300  146.5130 C   0  0  0  0  0  3  0  0  0  0  0  0
  189.1230  173.7320  142.2930 C   0  0  0  0  0  2  0  0  0  0  0  0
  195.1480  175.0400  145.7510 C   0  0  0  0  0  3  0  0  0  0  0  0
  190.4500  174.2730  141.7810 C   0  0  0  0  0  2  0  0  0  0  0  0
  189.3990  176.6340  143.3470 C   0  0  2  0  0  3  0  0  0  0  0  0
  193.4200  176.7660  146.0380 C   0  0  0  0  0  3  0  0  0  0  0  0
  191.4400  176.6250  144.5730 N   0  0  0  0  0  0  0  0  0  0  0  0
  187.0340  176.3440  143.8940 C   0  0  0  0  0  2  0  0  0  0  0  0
  186.2780  176.8090  142.6450 C   0  0  0  0  0  2  0  0  0  0  0  0
  184.8190  178.9290  145.0300 C   0  0  0  0  0  2  0  0  0  0  0  0
  185.5650  179.0350  142.7630 C   0  0  0  0  0  2  0  0  0  0  0  0
  185.1630  177.6580  143.0310 N   0  0  0  0  0  0  0  0  0  0  0  0
  185.5660  179.8060  144.0670 C   0  0  0  0  0  2  0  0  0  0  0  0
  185.0110  177.5410  144.4760 C   0  0  0  0  0  2  0  0  0  0  0  0
  1 26  1  1  0  0  0
  3 16  1  0  0  0  0
  4 23  2  0  0  0  0
  5 15  1  0  0  0  0
  6  7  1  0  0  0  0
  7  3  1  0  0  0  0
  8 16  1  0  0  0  0
  9 27  1  0  0  0  0
 10 17  1  0  0  0  0
 11  5  2  0  0  0  0
 11 20  1  0  0  0  0
 12  8  1  0  0  0  0
 13 20  1  0  0  0  0
 13  9  2  0  0  0  0
 14  2  2  0  0  0  0
 15 12  1  0  0  0  0
 15  4  1  0  0  0  0
 17 28  1  0  0  0  0
 18  4  1  0  0  0  0
 18  1  1  0  0  0  0
 19  5  1  0  0  0  0
 19  6  1  0  0  0  0
 20 18  2  0  0  0  0
 22 10  1  0  0  0  0
 23 21  1  0  0  0  0
 24 22  1  0  0  0  0
 24 13  1  0  0  0  0
 25  9  1  1  0  0  0
 25 17  1  0  0  0  0
 25 14  1  0  0  0  0
 26 21  2  0  0  0  0
 27  1  1  0  0  0  0
 27  2  1  0  0  0  0
 29 32  1  0  0  0  0
 29 28  1  0  0  0  0
 31 32  1  0  0  0  0
 31 33  1  0  0  0  0
 32 34  1  0  0  0  0
 33 30  1  0  0  0  0
 34 30  1  0  0  0  0
M  END
>  <MODEL>
4

>  <REMARK>
 VINA RESULT:      -7.8      3.054      5.508
  Name = 
  3 active torsions:
  status: ('A' for Active; 'I' for Inactive)
    1  A    between atoms: N_17  and  C_28
    2  A    between atoms: C_28  and  C_29
    3  A    between atoms: C_29  and  N_32
                            x       y       z     vdW  Elec       q    Type
                         _______ _______ _______ _____ _____    ______ ____

>  <TORSDO>
F 3

$$$$
=
 OpenBabel11112417593D

 34 40  0  0  1  0  0  0  0  0999 V2000
  194.5550  175.8830  145.5520 C   0  0  2  0  0  3  0  0  0  0  0  0
  192.6060  176.0150  147.2350 C   0  0  0  0  0  3  0  0  0  0  0  0
  195.8150  172.7290  140.6230 C   0  0  0  0  0  2  0  0  0  0  0  0
  196.0060  175.1770  143.5450 C   0  0  0  0  0  0  0  0  0  0  0  0
  195.2530  175.7430  141.2490 C   0  0  0  0  0  0  0  0  0  0  0  0
  194.6460  174.4560  139.2050 C   0  0  0  0  0  2  0  0  0  0  0  0
  195.4860  173.1810  139.2040 C   0  0  0  0  0  2  0  0  0  0  0  0
  197.8980  174.1640  140.5760 C   0  0  0  0  0  2  0  0  0  0  0  0
  192.1850  176.4170  145.0050 C   0  0  0  0  0  0  0  0  0  0  0  0
  189.3070  176.6840  143.9500 C   0  0  0  0  0  2  0  0  0  0  0  0
  194.0680  176.1310  141.7410 C   0  0  0  0  0  3  0  0  0  0  0  0
  197.7020  175.1740  141.7050 C   0  0  0  0  0  2  0  0  0  0  0  0
  192.4620  176.5880  143.7010 C   0  0  0  0  0  0  0  0  0  0  0  0
  191.1900  176.4010  147.1190 N   0  0  0  0  0  0  0  0  0  0  0  0
  196.3070  175.3020  142.1430 N   0  0  0  0  0  0  0  0  0  0  0  0
  197.3180  172.7850  140.8840 C   0  0  0  0  0  2  0  0  0  0  0  0
  189.7970  176.0180  145.1590 N   0  0  0  0  0  0  0  0  0  0  0  0
  194.7380  175.7320  144.0560 C   0  0  0  0  0  0  0  0  0  0  0  0
  195.4030  175.6630  139.7610 C   0  0  0  0  0  2  0  0  0  0  0  0
  193.7950  176.1600  143.1950 C   0  0  0  0  0  0  0  0  0  0  0  0
  196.3960  174.2350  145.7820 C   0  0  0  0  0  3  0  0  0  0  0  0
  190.1720  176.3500  142.7410 C   0  0  0  0  0  2  0  0  0  0  0  0
  196.7880  174.4710  144.3750 C   0  0  0  0  0  3  0  0  0  0  0  0
  191.4500  177.1760  142.7640 C   0  0  0  0  0  2  0  0  0  0  0  0
  190.9350  176.7750  145.7150 C   0  0  2  0  0  3  0  0  0  0  0  0
  195.3310  174.8430  146.3200 C   0  0  0  0  0  3  0  0  0  0  0  0
  193.1350  175.8840  145.8940 N   0  0  0  0  0  0  0  0  0  0  0  0
  188.6730  175.9330  146.1060 C   0  0  0  0  0  2  0  0  0  0  0  0
  187.4610  176.7690  145.6840 C   0  0  0  0  0  2  0  0  0  0  0  0
  185.2440  178.6610  147.6370 C   0  0  0  0  0  2  0  0  0  0  0  0
  185.1680  176.7930  146.1490 C   0  0  0  0  0  2  0  0  0  0  0  0
  186.4910  176.8130  146.7650 N   0  0  0  0  0  0  0  0  0  0  0  0
  184.4400  178.0700  146.5140 C   0  0  0  0  0  2  0  0  0  0  0  0
  186.6290  178.1100  147.4170 C   0  0  0  0  0  2  0  0  0  0  0  0
  1 27  1  0  0  0  0
  1 26  1  1  0  0  0
  3 16  1  0  0  0  0
  4 18  1  0  0  0  0
  4 23  2  0  0  0  0
  5 11  2  0  0  0  0
  5 15  1  0  0  0  0
  6 19  1  0  0  0  0
  7  6  1  0  0  0  0
  7  3  1  0  0  0  0
  8 16  1  0  0  0  0
  8 12  1  0  0  0  0
  9 27  1  0  0  0  0
 10 17  1  0  0  0  0
 11 20  1  0  0  0  0
 12 15  1  0  0  0  0
 13  9  2  0  0  0  0
 14  2  2  0  0  0  0
 15  4  1  0  0  0  0
 17 25  1  0  0  0  0
 17 28  1  0  0  0  0
 18  1  1  0  0  0  0
 19  5  1  0  0  0  0
 20 13  1  0  0  0  0
 20 18  2  0  0  0  0
 21 26  2  0  0  0  0
 22 24  1  0  0  0  0
 22 10  1  0  0  0  0
 23 21  1  0  0  0  0
 24 13  1  0  0  0  0
 25  9  1  6  0  0  0
 25 14  1  0  0  0  0
 27  2  1  0  0  0  0
 29 28  1  0  0  0  0
 29 32  1  0  0  0  0
 31 33  1  0  0  0  0
 31 32  1  0  0  0  0
 32 34  1  0  0  0  0
 33 30  1  0  0  0  0
 34 30  1  0  0  0  0
M  END
>  <MODEL>
5

>  <REMARK>
 VINA RESULT:      -7.8      4.143      6.966
  Name = 
  3 active torsions:
  status: ('A' for Active; 'I' for Inactive)
    1  A    between atoms: N_17  and  C_28
    2  A    between atoms: C_28  and  C_29
    3  A    between atoms: C_29  and  N_32
                            x       y       z     vdW  Elec       q    Type
                         _______ _______ _______ _____ _____    ______ ____

>  <TORSDO>
F 3

$$$$
=
 OpenBabel11112417593D

 34 40  0  0  1  0  0  0  0  0999 V2000
  190.9910  173.1320  142.3260 C   0  0  2  0  0  3  0  0  0  0  0  0
  188.5610  173.8630  141.8690 C   0  0  0  0  0  3  0  0  0  0  0  0
  196.4360  175.5110  141.6060 C   0  0  0  0  0  2  0  0  0  0  0  0
  193.5620  173.1500  142.4620 C   0  0  0  0  0  0  0  0  0  0  0  0
  194.6790  174.6860  144.0600 C   0  0  0  0  0  0  0  0  0  0  0  0
  196.2820  176.5850  143.8820 C   0  0  0  0  0  2  0  0  0  0  0  0
  197.1720  176.3160  142.6710 C   0  0  0  0  0  2  0  0  0  0  0  0
  197.2100  173.3720  142.7150 C   0  0  0  0  0  2  0  0  0  0  0  0
  189.8710  175.1500  143.2610 C   0  0  0  0  0  0  0  0  0  0  0  0
  188.9270  177.9140  144.2300 C   0  0  0  0  0  2  0  0  0  0  0  0
  193.5030  175.2870  144.2930 C   0  0  0  0  0  3  0  0  0  0  0  0
  195.9250  172.6600  143.1280 C   0  0  0  0  0  2  0  0  0  0  0  0
  190.9580  175.4990  143.9700 C   0  0  0  0  0  0  0  0  0  0  0  0
  187.7110  174.9450  142.3920 N   0  0  0  0  0  0  0  0  0  0  0  0
  194.7520  173.5410  143.1730 N   0  0  0  0  0  0  0  0  0  0  0  0
  197.0850  174.1440  141.4030 C   0  0  0  0  0  2  0  0  0  0  0  0
  188.5100  177.1480  143.0530 N   0  0  0  0  0  0  0  0  0  0  0  0
  192.2710  173.7540  142.8440 C   0  0  0  0  0  0  0  0  0  0  0  0
  195.9130  175.3080  144.6400 C   0  0  0  0  0  2  0  0  0  0  0  0
  192.2420  174.7980  143.6950 C   0  0  0  0  0  0  0  0  0  0  0  0
  192.4020  172.0600  140.5900 C   0  0  0  0  0  3  0  0  0  0  0  0
  190.4420  177.9020  144.3950 C   0  0  0  0  0  2  0  0  0  0  0  0
  193.6120  172.3430  141.3920 C   0  0  0  0  0  3  0  0  0  0  0  0
  190.8940  176.5830  145.0040 C   0  0  0  0  0  2  0  0  0  0  0  0
  188.5030  175.7090  143.3760 C   0  0  2  0  0  3  0  0  0  0  0  0
  191.1900  172.4690  140.9870 C   0  0  0  0  0  3  0  0  0  0  0  0
  189.9170  174.1230  142.3030 N   0  0  0  0  0  0  0  0  0  0  0  0
  187.1780  177.6330  142.6560 C   0  0  0  0  0  2  0  0  0  0  0  0
  186.4920  178.4720  143.7400 C   0  0  0  0  0  2  0  0  0  0  0  0
  184.6610  177.3480  146.5140 C   0  0  0  0  0  2  0  0  0  0  0  0
  184.3440  178.7700  144.6200 C   0  0  0  0  0  2  0  0  0  0  0  0
  185.3330  177.7610  144.2540 N   0  0  0  0  0  0  0  0  0  0  0  0
  184.0690  178.6660  146.1060 C   0  0  0  0  0  2  0  0  0  0  0  0
  185.7410  177.1070  145.4910 C   0  0  0  0  0  2  0  0  0  0  0  0
  1 26  1  6  0  0  0
  1 18  1  0  0  0  0
  2 27  1  0  0  0  0
  2 14  2  0  0  0  0
  3  7  1  0  0  0  0
  4 18  1  0  0  0  0
  4 15  1  0  0  0  0
  5 11  2  0  0  0  0
  5 19  1  0  0  0  0
  6 19  1  0  0  0  0
  7  6  1  0  0  0  0
  8 12  1  0  0  0  0
  9 25  1  0  0  0  0
  9 13  2  0  0  0  0
 10 22  1  0  0  0  0
 12 15  1  0  0  0  0
 13 24  1  0  0  0  0
 15  5  1  0  0  0  0
 16  3  1  0  0  0  0
 16  8  1  0  0  0  0
 17 25  1  0  0  0  0
 17 10  1  0  0  0  0
 18 20  2  0  0  0  0
 20 13  1  0  0  0  0
 20 11  1  0  0  0  0
 21 26  2  0  0  0  0
 21 23  1  0  0  0  0
 22 24  1  0  0  0  0
 23  4  2  0  0  0  0
 25 14  1  6  0  0  0
 27  1  1  0  0  0  0
 27  9  1  0  0  0  0
 28 17  1  0  0  0  0
 28 29  1  0  0  0  0
 29 32  1  0  0  0  0
 31 33  1  0  0  0  0
 32 31  1  0  0  0  0
 32 34  1  0  0  0  0
 33 30  1  0  0  0  0
 34 30  1  0  0  0  0
M  END
>  <MODEL>
6

>  <REMARK>
 VINA RESULT:      -7.8      2.999      6.087
  Name = 
  3 active torsions:
  status: ('A' for Active; 'I' for Inactive)
    1  A    between atoms: N_17  and  C_28
    2  A    between atoms: C_28  and  C_29
    3  A    between atoms: C_29  and  N_32
                            x       y       z     vdW  Elec       q    Type
                         _______ _______ _______ _____ _____    ______ ____

>  <TORSDO>
F 3

$$$$
=
 OpenBabel11112417593D

 34 40  0  0  1  0  0  0  0  0999 V2000
  192.9580  175.5740  142.4560 C   0  0  2  0  0  3  0  0  0  0  0  0
  191.2810  177.4720  142.9430 C   0  0  0  0  0  3  0  0  0  0  0  0
  196.5860  172.0680  145.6760 C   0  0  0  0  0  2  0  0  0  0  0  0
  194.7080  173.7160  142.7900 C   0  0  0  0  0  0  0  0  0  0  0  0
  194.0380  171.6100  143.9190 C   0  0  0  0  0  0  0  0  0  0  0  0
  194.7190  170.4020  145.9880 C   0  0  0  0  0  2  0  0  0  0  0  0
  196.1990  170.6980  146.2210 C   0  0  0  0  0  2  0  0  0  0  0  0
  197.0950  171.0120  143.4340 C   0  0  0  0  0  2  0  0  0  0  0  0
  190.9530  175.4130  143.9250 C   0  0  0  0  0  0  0  0  0  0  0  0
  188.8270  175.0120  146.1120 C   0  0  0  0  0  2  0  0  0  0  0  0
  192.8660  172.1700  144.2520 C   0  0  0  0  0  3  0  0  0  0  0  0
  196.1320  171.6850  142.4580 C   0  0  0  0  0  2  0  0  0  0  0  0
  191.1810  174.1160  144.1940 C   0  0  0  0  0  0  0  0  0  0  0  0
  190.0140  177.5400  143.6890 N   0  0  0  0  0  0  0  0  0  0  0  0
  194.9950  172.3420  143.1130 N   0  0  0  0  0  0  0  0  0  0  0  0
  197.5940  171.9430  144.5370 C   0  0  0  0  0  2  0  0  0  0  0  0
  189.5000  176.2400  145.6830 N   0  0  0  0  0  0  0  0  0  0  0  0
  193.3600  174.2480  143.0670 C   0  0  0  0  0  0  0  0  0  0  0  0
  194.3680  170.2710  144.5050 C   0  0  0  0  0  2  0  0  0  0  0  0
  192.4870  173.5250  143.7940 C   0  0  0  0  0  0  0  0  0  0  0  0
  195.3850  175.9930  142.1590 C   0  0  0  0  0  3  0  0  0  0  0  0
  189.8120  173.8600  146.2640 C   0  0  0  0  0  2  0  0  0  0  0  0
  195.6620  174.5530  142.3550 C   0  0  0  0  0  3  0  0  0  0  0  0
  190.1560  173.2790  144.8990 C   0  0  0  0  0  2  0  0  0  0  0  0
  189.7310  176.1940  144.2270 C   0  0  2  0  0  3  0  0  0  0  0  0
  194.1430  176.4840  142.2570 C   0  0  0  0  0  3  0  0  0  0  0  0
  191.9010  176.1990  143.2470 N   0  0  0  0  0  0  0  0  0  0  0  0
  188.6470  177.3740  146.0730 C   0  0  0  0  0  2  0  0  0  0  0  0
  187.2770  176.9460  146.6090 C   0  0  0  0  0  2  0  0  0  0  0  0
  184.3100  178.5490  145.6430 C   0  0  0  0  0  2  0  0  0  0  0  0
  186.5870  178.4210  144.9280 C   0  0  0  0  0  2  0  0  0  0  0  0
  186.2610  177.1630  145.5930 N   0  0  0  0  0  0  0  0  0  0  0  0
  185.4450  179.3940  145.1400 C   0  0  0  0  0  2  0  0  0  0  0  0
  184.9950  177.3710  146.2860 C   0  0  0  0  0  2  0  0  0  0  0  0
  1 26  1  1  0  0  0
  1 18  1  0  0  0  0
  1 27  1  0  0  0  0
  2 27  1  0  0  0  0
  2 14  2  0  0  0  0
  3  7  1  0  0  0  0
  4 18  1  0  0  0  0
  4 15  1  0  0  0  0
  5 11  2  0  0  0  0
  5 19  1  0  0  0  0
  6  7  1  0  0  0  0
  8 16  1  0  0  0  0
  9 13  2  0  0  0  0
  9 25  1  0  0  0  0
 10 22  1  0  0  0  0
 12 15  1  0  0  0  0
 12  8  1  0  0  0  0
 13 24  1  0  0  0  0
 15  5  1  0  0  0  0
 16  3  1  0  0  0  0
 17 28  1  0  0  0  0
 17 10  1  0  0  0  0
 18 20  2  0  0  0  0
 19  6  1  0  0  0  0
 20 13  1  0  0  0  0
 20 11  1  0  0  0  0
 21 26  2  0  0  0  0
 21 23  1  0  0  0  0
 23  4  2  0  0  0  0
 24 22  1  0  0  0  0
 25 14  1  1  0  0  0
 25 17  1  0  0  0  0
 27  9  1  0  0  0  0
 28 29  1  0  0  0  0
 30 34  1  0  0  0  0
 31 33  1  0  0  0  0
 31 32  1  0  0  0  0
 32 34  1  0  0  0  0
 32 29  1  0  0  0  0
 33 30  1  0  0  0  0
M  END
>  <MODEL>
7

>  <REMARK>
 VINA RESULT:      -7.6      3.517      6.806
  Name = 
  3 active torsions:
  status: ('A' for Active; 'I' for Inactive)
    1  A    between atoms: N_17  and  C_28
    2  A    between atoms: C_28  and  C_29
    3  A    between atoms: C_29  and  N_32
                            x       y       z     vdW  Elec       q    Type
                         _______ _______ _______ _____ _____    ______ ____

>  <TORSDO>
F 3

$$$$
=
 OpenBabel11112417593D

 34 40  0  0  1  0  0  0  0  0999 V2000
  192.4920  173.1220  144.8990 C   0  0  2  0  0  3  0  0  0  0  0  0
  189.9710  173.3480  145.3930 C   0  0  0  0  0  3  0  0  0  0  0  0
  196.1400  174.4060  140.3310 C   0  0  0  0  0  2  0  0  0  0  0  0
  194.7630  173.2330  143.6920 C   0  0  0  0  0  0  0  0  0  0  0  0
  195.7990  175.4470  143.2610 C   0  0  0  0  0  0  0  0  0  0  0  0
  196.4800  176.7330  141.2400 C   0  0  0  0  0  2  0  0  0  0  0  0
  196.8970  175.7200  140.1760 C   0  0  0  0  0  2  0  0  0  0  0  0
  197.9410  173.5760  141.9020 C   0  0  0  0  0  2  0  0  0  0  0  0
  191.1820  175.2400  144.8800 C   0  0  0  0  0  0  0  0  0  0  0  0
  189.7860  177.9330  144.3610 C   0  0  0  0  0  2  0  0  0  0  0  0
  194.6620  176.0450  143.6480 C   0  0  0  0  0  3  0  0  0  0  0  0
  197.2200  173.3250  143.2240 C   0  0  0  0  0  2  0  0  0  0  0  0
  192.2670  175.9780  144.5880 C   0  0  0  0  0  0  0  0  0  0  0  0
  189.0610  174.4980  145.5220 N   0  0  0  0  0  0  0  0  0  0  0  0
  195.9230  174.0040  143.3250 N   0  0  0  0  0  0  0  0  0  0  0  0
  197.0900  173.2610  140.6740 C   0  0  0  0  0  2  0  0  0  0  0  0
  189.2510  176.5730  144.2610 N   0  0  0  0  0  0  0  0  0  0  0  0
  193.5810  173.9330  144.2280 C   0  0  0  0  0  0  0  0  0  0  0  0
  196.8700  176.3000  142.6540 C   0  0  0  0  0  2  0  0  0  0  0  0
  193.5150  175.2780  144.1790 C   0  0  0  0  0  0  0  0  0  0  0  0
  193.4380  171.1630  143.7080 C   0  0  0  0  0  3  0  0  0  0  0  0
  191.1630  178.0380  143.7160 C   0  0  0  0  0  2  0  0  0  0  0  0
  194.6860  171.9150  143.4520 C   0  0  0  0  0  3  0  0  0  0  0  0
  192.2250  177.4760  144.6500 C   0  0  0  0  0  2  0  0  0  0  0  0
  189.8510  175.7270  145.3110 C   0  0  2  0  0  3  0  0  0  0  0  0
  192.3970  171.7300  144.3280 C   0  0  0  0  0  3  0  0  0  0  0  0
  191.2180  173.8360  144.8430 N   0  0  0  0  0  0  0  0  0  0  0  0
  187.7870  176.6600  144.3900 C   0  0  0  0  0  2  0  0  0  0  0  0
  187.0720  176.8420  143.0470 C   0  0  0  0  0  2  0  0  0  0  0  0
  184.9600  178.7750  145.0750 C   0  0  0  0  0  2  0  0  0  0  0  0
  185.8560  178.8330  142.8610 C   0  0  0  0  0  2  0  0  0  0  0  0
  185.7620  177.4330  143.2620 N   0  0  0  0  0  0  0  0  0  0  0  0
  185.5650  179.7060  144.0640 C   0  0  0  0  0  2  0  0  0  0  0  0
  185.5150  177.4250  144.6990 C   0  0  0  0  0  2  0  0  0  0  0  0
  1 26  1  6  0  0  0
  2 14  2  0  0  0  0
  3 16  1  0  0  0  0
  4 18  1  0  0  0  0
  5 15  1  0  0  0  0
  5 11  2  0  0  0  0
  6 19  1  0  0  0  0
  7  3  1  0  0  0  0
  7  6  1  0  0  0  0
  8 12  1  0  0  0  0
 11 20  1  0  0  0  0
 12 15  1  0  0  0  0
 13 24  1  0  0  0  0
 13  9  2  0  0  0  0
 15  4  1  0  0  0  0
 16  8  1  0  0  0  0
 17 10  1  0  0  0  0
 17 28  1  0  0  0  0
 17 25  1  0  0  0  0
 18  1  1  0  0  0  0
 19  5  1  0  0  0  0
 20 18  2  0  0  0  0
 20 13  1  0  0  0  0
 21 26  2  0  0  0  0
 22 10  1  0  0  0  0
 22 24  1  0  0  0  0
 23  4  2  0  0  0  0
 23 21  1  0  0  0  0
 25  9  1  6  0  0  0
 25 14  1  0  0  0  0
 27  9  1  0  0  0  0
 27  1  1  0  0  0  0
 27  2  1  0  0  0  0
 29 32  1  0  0  0  0
 29 28  1  0  0  0  0
 31 32  1  0  0  0  0
 31 33  1  0  0  0  0
 32 34  1  0  0  0  0
 33 30  1  0  0  0  0
 34 30  1  0  0  0  0
M  END
>  <MODEL>
8

>  <REMARK>
 VINA RESULT:      -7.5      3.326      6.442
  Name = 
  3 active torsions:
  status: ('A' for Active; 'I' for Inactive)
    1  A    between atoms: N_17  and  C_28
    2  A    between atoms: C_28  and  C_29
    3  A    between atoms: C_29  and  N_32
                            x       y       z     vdW  Elec       q    Type
                         _______ _______ _______ _____ _____    ______ ____

>  <TORSDO>
F 3

$$$$
=
 OpenBabel11112417593D

 34 40  0  0  1  0  0  0  0  0999 V2000
  194.4610  174.7900  144.2130 C   0  0  2  0  0  3  0  0  0  0  0  0
  192.8700  176.8190  144.1920 C   0  0  0  0  0  3  0  0  0  0  0  0
  194.6390  169.4530  146.9180 C   0  0  0  0  0  2  0  0  0  0  0  0
  195.4780  172.4890  144.7610 C   0  0  0  0  0  0  0  0  0  0  0  0
  194.3310  170.4370  143.9640 C   0  0  0  0  0  0  0  0  0  0  0  0
  193.2970  168.4420  145.0380 C   0  0  0  0  0  2  0  0  0  0  0  0
  194.0680  168.1690  146.3270 C   0  0  0  0  0  2  0  0  0  0  0  0
  196.7340  169.1360  145.5360 C   0  0  0  0  0  2  0  0  0  0  0  0
  192.0550  174.7550  143.5720 C   0  0  0  0  0  0  0  0  0  0  0  0
  189.0430  174.2960  143.1370 C   0  0  0  0  0  2  0  0  0  0  0  0
  193.2770  171.1790  143.5950 C   0  0  0  0  0  3  0  0  0  0  0  0
  196.7960  170.3650  144.6320 C   0  0  0  0  0  2  0  0  0  0  0  0
  192.0880  173.4420  143.2860 C   0  0  0  0  0  0  0  0  0  0  0  0
  191.4750  177.0110  143.7630 N   0  0  0  0  0  0  0  0  0  0  0  0
  195.5150  171.0710  144.5120 N   0  0  0  0  0  0  0  0  0  0  0  0
  196.1650  169.4260  146.9230 C   0  0  0  0  0  2  0  0  0  0  0  0
  189.7240  175.3260  143.9260 N   0  0  0  0  0  0  0  0  0  0  0  0
  194.3530  173.2790  144.2260 C   0  0  0  0  0  0  0  0  0  0  0  0
  194.1950  168.9460  143.9070 C   0  0  0  0  0  2  0  0  0  0  0  0
  193.2830  172.6550  143.6960 C   0  0  0  0  0  0  0  0  0  0  0  0
  196.2420  174.5180  145.9190 C   0  0  0  0  0  3  0  0  0  0  0  0
  189.6510  172.9200  143.3770 C   0  0  0  0  0  2  0  0  0  0  0  0
  196.3720  173.0880  145.5620 C   0  0  0  0  0  3  0  0  0  0  0  0
  190.9430  172.7710  142.5870 C   0  0  0  0  0  2  0  0  0  0  0  0
  190.9760  175.7190  143.2520 C   0  0  2  0  0  3  0  0  0  0  0  0
  195.3230  175.3010  145.3390 C   0  0  0  0  0  3  0  0  0  0  0  0
  193.1310  175.3950  144.2090 N   0  0  0  0  0  0  0  0  0  0  0  0
  188.7950  176.4600  144.0720 C   0  0  0  0  0  2  0  0  0  0  0  0
  188.0050  176.4290  145.3850 C   0  0  0  0  0  2  0  0  0  0  0  0
  185.0880  178.0210  146.5090 C   0  0  0  0  0  2  0  0  0  0  0  0
  186.6280  178.1890  144.6900 C   0  0  0  0  0  2  0  0  0  0  0  0
  186.6220  176.7990  145.1370 N   0  0  0  0  0  0  0  0  0  0  0  0
  185.8380  179.0220  145.6780 C   0  0  0  0  0  2  0  0  0  0  0  0
  185.9310  176.7750  146.4210 C   0  0  0  0  0  2  0  0  0  0  0  0
  1 18  1  0  0  0  0
  1 26  1  1  0  0  0
  2 27  1  0  0  0  0
  3 16  1  0  0  0  0
  4 23  2  0  0  0  0
  5 15  1  0  0  0  0
  6  7  1  0  0  0  0
  7  3  1  0  0  0  0
  8 16  1  0  0  0  0
  9 27  1  0  0  0  0
 10 22  1  0  0  0  0
 10 17  1  0  0  0  0
 11 20  1  0  0  0  0
 11  5  2  0  0  0  0
 12  8  1  0  0  0  0
 13  9  2  0  0  0  0
 13 20  1  0  0  0  0
 14  2  2  0  0  0  0
 15 12  1  0  0  0  0
 15  4  1  0  0  0  0
 17 28  1  0  0  0  0
 18  4  1  0  0  0  0
 19  5  1  0  0  0  0
 19  6  1  0  0  0  0
 20 18  2  0  0  0  0
 23 21  1  0  0  0  0
 24 13  1  0  0  0  0
 24 22  1  0  0  0  0
 25  9  1  1  0  0  0
 25 14  1  0  0  0  0
 25 17  1  0  0  0  0
 26 21  2  0  0  0  0
 27  1  1  0  0  0  0
 28 29  1  0  0  0  0
 31 32  1  0  0  0  0
 31 33  1  0  0  0  0
 32 29  1  0  0  0  0
 32 34  1  0  0  0  0
 33 30  1  0  0  0  0
 34 30  1  0  0  0  0
M  END
>  <MODEL>
9

>  <REMARK>
 VINA RESULT:      -7.4      3.770      7.206
  Name = 
  3 active torsions:
  status: ('A' for Active; 'I' for Inactive)
    1  A    between atoms: N_17  and  C_28
    2  A    between atoms: C_28  and  C_29
    3  A    between atoms: C_29  and  N_32
                            x       y       z     vdW  Elec       q    Type
                         _______ _______ _______ _____ _____    ______ ____

>  <TORSDO>
F 3

$$$$
