=
 OpenBabel11112416203D

 30 35  0  0  1  0  0  0  0  0999 V2000
  186.3070  177.3100  143.7090 C   0  0  0  0  0  0  0  0  0  0  0  0
  184.6630  178.4860  145.2160 C   0  0  0  0  0  0  0  0  0  0  0  0
  188.6420  176.0100  147.0230 C   0  0  0  0  0  2  0  0  0  0  0  0
  187.4970  176.5390  143.5800 C   0  0  0  0  0  0  0  0  0  0  0  0
  185.6240  177.6500  142.5820 N   0  0  0  0  0  0  0  0  0  0  0  0
  187.6010  176.1790  139.8890 O   0  0  0  0  0  1  0  0  0  0  0  0
  190.4410  176.0230  142.7020 C   0  0  1  0  0  3  0  0  0  0  0  0
  187.1910  176.5410  141.1700 C   0  0  0  0  0  0  0  0  0  0  0  0
  190.5590  175.9730  144.1800 N   0  0  2  0  0  0  0  0  0  0  0  0
  189.6860  175.2530  146.3230 N   0  0  0  0  0  0  0  0  0  0  0  0
  186.0260  177.2900  141.3350 C   0  0  0  0  0  0  0  0  0  0  0  0
  187.9410  176.1630  142.2900 C   0  0  0  0  0  0  0  0  0  0  0  0
  184.2780  178.8260  146.5160 C   0  0  0  0  0  3  0  0  0  0  0  0
  191.7620  175.1900  144.4490 C   0  0  0  0  0  2  0  0  0  0  0  0
  191.7030  175.4430  142.0930 C   0  0  0  0  0  2  0  0  0  0  0  0
  183.6040  179.0810  143.9420 Cl  0  0  0  0  0  0  0  0  0  0  0  0
  187.7540  176.5550  145.9740 C   0  0  0  0  0  0  0  0  0  0  0  0
  185.0260  178.4220  147.6180 C   0  0  0  0  0  3  0  0  0  0  0  0
  185.8420  177.7110  145.0020 C   0  0  0  0  0  0  0  0  0  0  0  0
  188.1960  176.1880  144.7440 C   0  0  0  0  0  0  0  0  0  0  0  0
  189.5170  173.8580  146.6950 C   0  0  0  0  0  1  0  0  0  0  0  0
  189.4180  175.3500  144.8750 C   0  0  1  0  0  3  0  0  0  0  0  0
  192.6590  175.3070  143.2430 C   0  0  0  0  0  2  0  0  0  0  0  0
  189.0420  174.0320  142.4330 O   0  0  0  0  0  1  0  0  0  0  0  0
  186.1790  177.6690  147.4330 C   0  0  0  0  0  3  0  0  0  0  0  0
  186.5940  177.3130  146.1460 C   0  0  0  0  0  0  0  0  0  0  0  0
  189.2000  175.3710  142.0660 C   0  0  2  0  0  3  0  0  0  0  0  0
  185.2800  177.6660  140.2190 O   0  0  0  0  0  0  0  0  0  0  0  0
  183.0320  177.9610  140.3130 C   0  0  0  0  0  1  0  0  0  0  0  0
  184.3130  178.6430  140.3080 N   0  0  0  0  0  2  0  0  0  0  0  0
  1 19  1  0  0  0  0
  2 13  1  0  0  0  0
  4  1  2  0  0  0  0
  4 20  1  0  0  0  0
  5  1  1  0  0  0  0
  6  8  1  0  0  0  0
  7 15  1  6  0  0  0
  7  9  1  0  0  0  0
  8 11  1  0  0  0  0
  8 12  2  0  0  0  0
  9 14  1  6  0  0  0
  9 22  1  0  0  0  0
 10 21  1  0  0  0  0
 10  3  1  0  0  0  0
 11  5  2  0  0  0  0
 12  4  1  0  0  0  0
 13 18  2  0  0  0  0
 15 23  1  0  0  0  0
 16  2  1  0  0  0  0
 17 26  1  0  0  0  0
 17  3  1  0  0  0  0
 19  2  2  0  0  0  0
 19 26  1  0  0  0  0
 20 17  2  0  0  0  0
 22 20  1  1  0  0  0
 22 10  1  0  0  0  0
 23 14  1  0  0  0  0
 25 18  1  0  0  0  0
 26 25  2  0  0  0  0
 27 12  1  0  0  0  0
 27 24  1  1  0  0  0
 27  7  1  0  0  0  0
 28 30  1  0  0  0  0
 28 11  1  0  0  0  0
 30 29  1  0  0  0  0
M  END
>  <MODEL>
1

>  <REMARK>
 VINA RESULT:      -8.6      0.000      0.000
  Name = 
  2 active torsions:
  status: ('A' for Active; 'I' for Inactive)
    1  A    between atoms: C_11  and  O_28
    2  A    between atoms: O_28  and  N_30
                            x       y       z     vdW  Elec       q    Type
                         _______ _______ _______ _____ _____    ______ ____

>  <TORSDO>
F 2

$$$$
=
 OpenBabel11112416203D

 30 35  0  0  1  0  0  0  0  0999 V2000
  187.9830  177.4790  145.8120 C   0  0  0  0  0  0  0  0  0  0  0  0
  185.9930  178.4940  146.9810 C   0  0  0  0  0  0  0  0  0  0  0  0
  185.8390  177.1210  142.1520 C   0  0  0  0  0  2  0  0  0  0  0  0
  188.5400  176.9260  144.6240 C   0  0  0  0  0  0  0  0  0  0  0  0
  188.7680  177.5680  146.9210 N   0  0  0  0  0  0  0  0  0  0  0  0
  191.9620  176.1700  145.8410 O   0  0  0  0  0  1  0  0  0  0  0  0
  189.7530  174.6570  142.8680 C   0  0  1  0  0  3  0  0  0  0  0  0
  190.6380  176.5990  145.8060 C   0  0  0  0  0  0  0  0  0  0  0  0
  188.4850  174.9410  142.1520 N   0  0  2  0  0  0  0  0  0  0  0  0
  186.8820  176.5430  141.2960 N   0  0  0  0  0  0  0  0  0  0  0  0
  190.0610  177.1520  146.9480 C   0  0  0  0  0  0  0  0  0  0  0  0
  189.8810  176.4760  144.6330 C   0  0  0  0  0  0  0  0  0  0  0  0
  184.6630  178.9200  146.9080 C   0  0  0  0  0  3  0  0  0  0  0  0
  188.6990  174.4790  140.7840 C   0  0  0  0  0  2  0  0  0  0  0  0
  190.6460  173.8280  141.9660 C   0  0  0  0  0  2  0  0  0  0  0  0
  186.7620  178.7070  148.5510 Cl  0  0  0  0  0  0  0  0  0  0  0  0
  186.4450  177.2800  143.4910 C   0  0  0  0  0  0  0  0  0  0  0  0
  183.9360  178.8080  145.7280 C   0  0  0  0  0  3  0  0  0  0  0  0
  186.6260  177.9330  145.8330 C   0  0  0  0  0  0  0  0  0  0  0  0
  187.7290  176.8400  143.4830 C   0  0  0  0  0  0  0  0  0  0  0  0
  187.2010  177.5400  140.2880 C   0  0  0  0  0  1  0  0  0  0  0  0
  188.0920  176.3600  142.1220 C   0  0  1  0  0  3  0  0  0  0  0  0
  189.7640  173.4140  140.8250 C   0  0  0  0  0  2  0  0  0  0  0  0
  190.8350  176.8140  142.4530 O   0  0  0  0  0  1  0  0  0  0  0  0
  184.5310  178.2630  144.5960 C   0  0  0  0  0  3  0  0  0  0  0  0
  185.8590  177.8250  144.6350 C   0  0  0  0  0  0  0  0  0  0  0  0
  190.5370  175.8580  143.4290 C   0  0  2  0  0  3  0  0  0  0  0  0
  190.8150  177.2740  148.1150 O   0  0  0  0  0  0  0  0  0  0  0  0
  191.5650  178.1570  150.0660 C   0  0  0  0  0  1  0  0  0  0  0  0
  190.6770  178.3690  148.9390 N   0  0  0  0  0  2  0  0  0  0  0  0
  1 19  1  0  0  0  0
  1  5  1  0  0  0  0
  2 16  1  0  0  0  0
  3 17  1  0  0  0  0
  4 12  1  0  0  0  0
  4  1  2  0  0  0  0
  5 11  2  0  0  0  0
  7 15  1  6  0  0  0
  7 27  1  0  0  0  0
  8  6  1  0  0  0  0
  8 11  1  0  0  0  0
  9 14  1  6  0  0  0
  9  7  1  0  0  0  0
 10 22  1  0  0  0  0
 10  3  1  0  0  0  0
 11 28  1  0  0  0  0
 12  8  2  0  0  0  0
 13  2  1  0  0  0  0
 14 23  1  0  0  0  0
 17 26  1  0  0  0  0
 18 13  2  0  0  0  0
 19  2  2  0  0  0  0
 20 17  2  0  0  0  0
 20  4  1  0  0  0  0
 21 10  1  0  0  0  0
 22  9  1  0  0  0  0
 22 20  1  1  0  0  0
 23 15  1  0  0  0  0
 25 26  2  0  0  0  0
 25 18  1  0  0  0  0
 26 19  1  0  0  0  0
 27 24  1  6  0  0  0
 27 12  1  0  0  0  0
 28 30  1  0  0  0  0
 30 29  1  0  0  0  0
M  END
>  <MODEL>
2

>  <REMARK>
 VINA RESULT:      -8.6      2.607      5.281
  Name = 
  2 active torsions:
  status: ('A' for Active; 'I' for Inactive)
    1  A    between atoms: C_11  and  O_28
    2  A    between atoms: O_28  and  N_30
                            x       y       z     vdW  Elec       q    Type
                         _______ _______ _______ _____ _____    ______ ____

>  <TORSDO>
F 2

$$$$
=
 OpenBabel11112416203D

 30 35  0  0  1  0  0  0  0  0999 V2000
  188.0720  175.7140  141.7460 C   0  0  0  0  0  0  0  0  0  0  0  0
  189.6680  173.8530  141.1560 C   0  0  0  0  0  0  0  0  0  0  0  0
  189.0590  175.4510  145.8790 C   0  0  0  0  0  2  0  0  0  0  0  0
  187.4840  176.5350  142.7500 C   0  0  0  0  0  0  0  0  0  0  0  0
  187.7000  175.9010  140.4500 N   0  0  0  0  0  0  0  0  0  0  0  0
  185.2540  178.6040  140.6270 O   0  0  0  0  0  1  0  0  0  0  0  0
  185.1420  177.6100  144.5000 C   0  0  1  0  0  3  0  0  0  0  0  0
  186.1890  177.6520  141.0240 C   0  0  0  0  0  0  0  0  0  0  0  0
  186.0030  176.9630  145.5210 N   0  0  2  0  0  0  0  0  0  0  0  0
  188.2090  176.5210  146.4170 N   0  0  0  0  0  0  0  0  0  0  0  0
  186.7910  176.8350  140.0680 C   0  0  0  0  0  0  0  0  0  0  0  0
  186.5260  177.5060  142.3760 C   0  0  0  0  0  0  0  0  0  0  0  0
  190.6060  172.9120  141.5900 C   0  0  0  0  0  3  0  0  0  0  0  0
  185.6580  177.6070  146.7850 C   0  0  0  0  0  2  0  0  0  0  0  0
  184.1320  178.4940  145.2050 C   0  0  0  0  0  2  0  0  0  0  0  0
  189.3600  173.8590  139.4230 Cl  0  0  0  0  0  0  0  0  0  0  0  0
  188.7960  175.4070  144.4250 C   0  0  0  0  0  0  0  0  0  0  0  0
  190.9430  172.7980  142.9350 C   0  0  0  0  0  3  0  0  0  0  0  0
  189.0360  174.7170  142.1000 C   0  0  0  0  0  0  0  0  0  0  0  0
  187.8730  176.3420  144.0840 C   0  0  0  0  0  0  0  0  0  0  0  0
  189.0990  177.5580  146.9120 C   0  0  0  0  0  1  0  0  0  0  0  0
  187.4510  177.1020  145.2920 C   0  0  1  0  0  3  0  0  0  0  0  0
  184.2530  178.1370  146.6570 C   0  0  0  0  0  2  0  0  0  0  0  0
  186.6990  179.3880  143.8610 O   0  0  0  0  0  1  0  0  0  0  0  0
  190.3390  173.6280  143.8730 C   0  0  0  0  0  3  0  0  0  0  0  0
  189.3940  174.5790  143.4730 C   0  0  0  0  0  0  0  0  0  0  0  0
  185.8410  178.3960  143.3760 C   0  0  2  0  0  3  0  0  0  0  0  0
  186.4550  176.9800  138.7220 O   0  0  0  0  0  0  0  0  0  0  0  0
  185.8820  176.0550  136.7300 C   0  0  0  0  0  1  0  0  0  0  0  0
  186.8830  176.0700  137.7810 N   0  0  0  0  0  2  0  0  0  0  0  0
  1 19  2  0  0  0  0
  1  4  1  0  0  0  0
  2 13  2  0  0  0  0
  2 19  1  0  0  0  0
  3 10  1  0  0  0  0
  4 20  2  0  0  0  0
  5  1  1  0  0  0  0
  6  8  1  0  0  0  0
  7 15  1  1  0  0  0
  7  9  1  0  0  0  0
  8 12  2  0  0  0  0
  9 14  1  1  0  0  0
 10 21  1  0  0  0  0
 11  5  2  0  0  0  0
 11  8  1  0  0  0  0
 12  4  1  0  0  0  0
 12 27  1  0  0  0  0
 13 18  1  0  0  0  0
 15 23  1  0  0  0  0
 16  2  1  0  0  0  0
 17  3  1  0  0  0  0
 18 25  2  0  0  0  0
 19 26  1  0  0  0  0
 20 17  1  0  0  0  0
 22 20  1  6  0  0  0
 22  9  1  0  0  0  0
 22 10  1  0  0  0  0
 23 14  1  0  0  0  0
 26 25  1  0  0  0  0
 26 17  2  0  0  0  0
 27 24  1  1  0  0  0
 27  7  1  0  0  0  0
 28 11  1  0  0  0  0
 29 30  1  0  0  0  0
 30 28  1  0  0  0  0
M  END
>  <MODEL>
3

>  <REMARK>
 VINA RESULT:      -8.3      2.649      5.421
  Name = 
  2 active torsions:
  status: ('A' for Active; 'I' for Inactive)
    1  A    between atoms: C_11  and  O_28
    2  A    between atoms: O_28  and  N_30
                            x       y       z     vdW  Elec       q    Type
                         _______ _______ _______ _____ _____    ______ ____

>  <TORSDO>
F 2

$$$$
=
 OpenBabel11112416203D

 30 35  0  0  1  0  0  0  0  0999 V2000
  187.3570  176.6340  142.6610 C   0  0  0  0  0  0  0  0  0  0  0  0
  185.5760  178.3880  142.9910 C   0  0  0  0  0  0  0  0  0  0  0  0
  188.3950  176.7010  146.7890 C   0  0  0  0  0  2  0  0  0  0  0  0
  188.3860  175.8290  143.2280 C   0  0  0  0  0  0  0  0  0  0  0  0
  187.0910  176.5140  141.3320 N   0  0  0  0  0  0  0  0  0  0  0  0
  189.4740  173.9940  140.1930 O   0  0  0  0  0  1  0  0  0  0  0  0
  191.3250  174.8790  143.6270 C   0  0  1  0  0  3  0  0  0  0  0  0
  188.7830  174.8620  141.0350 C   0  0  0  0  0  0  0  0  0  0  0  0
  191.0060  175.4300  144.9670 N   0  0  2  0  0  0  0  0  0  0  0  0
  189.4510  175.6810  146.8070 N   0  0  0  0  0  0  0  0  0  0  0  0
  187.7650  175.6610  140.5160 C   0  0  0  0  0  0  0  0  0  0  0  0
  189.1080  174.9430  142.3950 C   0  0  0  0  0  0  0  0  0  0  0  0
  184.9000  179.2440  143.8650 C   0  0  0  0  0  3  0  0  0  0  0  0
  191.9330  174.7760  145.8870 C   0  0  0  0  0  2  0  0  0  0  0  0
  192.5910  174.0500  143.7300 C   0  0  0  0  0  2  0  0  0  0  0  0
  185.0410  178.4560  141.3140 Cl  0  0  0  0  0  0  0  0  0  0  0  0
  187.9480  176.8070  145.3840 C   0  0  0  0  0  0  0  0  0  0  0  0
  185.2230  179.2930  145.2180 C   0  0  0  0  0  3  0  0  0  0  0  0
  186.6180  177.5460  143.4800 C   0  0  0  0  0  0  0  0  0  0  0  0
  188.6530  175.9530  144.5990 C   0  0  0  0  0  0  0  0  0  0  0  0
  188.9490  174.5670  147.5940 C   0  0  0  0  0  1  0  0  0  0  0  0
  189.6270  175.1910  145.4260 C   0  0  1  0  0  3  0  0  0  0  0  0
  193.1420  174.3540  145.0920 C   0  0  0  0  0  2  0  0  0  0  0  0
  189.7440  173.0100  143.6750 O   0  0  0  0  0  1  0  0  0  0  0  0
  186.2360  178.4830  145.7170 C   0  0  0  0  0  3  0  0  0  0  0  0
  186.9340  177.6170  144.8690 C   0  0  0  0  0  0  0  0  0  0  0  0
  190.2250  174.0770  142.9090 C   0  0  2  0  0  3  0  0  0  0  0  0
  187.4430  175.5810  139.1620 O   0  0  0  0  0  0  0  0  0  0  0  0
  186.4310  176.1060  137.2000 C   0  0  0  0  0  1  0  0  0  0  0  0
  186.7000  176.5660  138.5490 N   0  0  0  0  0  2  0  0  0  0  0  0
  1  4  2  0  0  0  0
  1 19  1  0  0  0  0
  2 19  2  0  0  0  0
  2 13  1  0  0  0  0
  3 10  1  0  0  0  0
  4 20  1  0  0  0  0
  5  1  1  0  0  0  0
  6  8  1  0  0  0  0
  7 15  1  1  0  0  0
  7  9  1  0  0  0  0
  8 12  2  0  0  0  0
  9 22  1  0  0  0  0
  9 14  1  1  0  0  0
 10 21  1  0  0  0  0
 11  8  1  0  0  0  0
 11  5  2  0  0  0  0
 12 27  1  0  0  0  0
 12  4  1  0  0  0  0
 13 18  2  0  0  0  0
 15 23  1  0  0  0  0
 16  2  1  0  0  0  0
 17  3  1  0  0  0  0
 18 25  1  0  0  0  0
 19 26  1  0  0  0  0
 20 17  2  0  0  0  0
 22 20  1  6  0  0  0
 22 10  1  0  0  0  0
 23 14  1  0  0  0  0
 26 17  1  0  0  0  0
 26 25  2  0  0  0  0
 27  7  1  0  0  0  0
 27 24  1  1  0  0  0
 28 11  1  0  0  0  0
 29 30  1  0  0  0  0
 30 28  1  0  0  0  0
M  END
>  <MODEL>
4

>  <REMARK>
 VINA RESULT:      -8.2      1.749      2.193
  Name = 
  2 active torsions:
  status: ('A' for Active; 'I' for Inactive)
    1  A    between atoms: C_11  and  O_28
    2  A    between atoms: O_28  and  N_30
                            x       y       z     vdW  Elec       q    Type
                         _______ _______ _______ _____ _____    ______ ____

>  <TORSDO>
F 2

$$$$
=
 OpenBabel11112416203D

 30 35  0  0  1  0  0  0  0  0999 V2000
  188.5340  176.1690  143.7440 C   0  0  0  0  0  0  0  0  0  0  0  0
  186.2870  177.1710  144.2960 C   0  0  0  0  0  0  0  0  0  0  0  0
  190.1040  177.2160  147.5600 C   0  0  0  0  0  2  0  0  0  0  0  0
  189.8710  175.8920  144.1480 C   0  0  0  0  0  0  0  0  0  0  0  0
  188.1290  175.7660  142.5090 N   0  0  0  0  0  0  0  0  0  0  0  0
  191.0920  174.1660  141.1010 O   0  0  0  0  0  1  0  0  0  0  0  0
  192.9710  176.1630  144.0150 C   0  0  1  0  0  3  0  0  0  0  0  0
  190.2610  174.8310  141.9980 C   0  0  0  0  0  0  0  0  0  0  0  0
  192.6790  176.7470  145.3470 N   0  0  2  0  0  0  0  0  0  0  0  0
  191.4620  176.6720  147.4400 N   0  0  0  0  0  0  0  0  0  0  0  0
  188.9430  175.1130  141.6390 C   0  0  0  0  0  0  0  0  0  0  0  0
  190.7400  175.2230  143.2550 C   0  0  0  0  0  0  0  0  0  0  0  0
  185.4790  177.8350  145.2230 C   0  0  0  0  0  3  0  0  0  0  0  0
  193.9200  176.6220  146.1060 C   0  0  0  0  0  2  0  0  0  0  0  0
  194.4580  175.8840  143.9200 C   0  0  0  0  0  2  0  0  0  0  0  0
  185.5090  176.7910  142.7620 Cl  0  0  0  0  0  0  0  0  0  0  0  0
  189.4340  176.9430  146.2710 C   0  0  0  0  0  0  0  0  0  0  0  0
  185.9670  178.1960  146.4750 C   0  0  0  0  0  3  0  0  0  0  0  0
  187.6380  176.8530  144.6260 C   0  0  0  0  0  0  0  0  0  0  0  0
  190.2820  176.3050  145.4240 C   0  0  0  0  0  0  0  0  0  0  0  0
  191.5650  175.5790  148.3920 C   0  0  0  0  0  1  0  0  0  0  0  0
  191.5940  176.0860  146.0920 C   0  0  1  0  0  3  0  0  0  0  0  0
  195.0560  176.5650  145.1170 C   0  0  0  0  0  2  0  0  0  0  0  0
  192.2720  173.8710  144.5190 O   0  0  0  0  0  1  0  0  0  0  0  0
  187.2810  177.8990  146.8180 C   0  0  0  0  0  3  0  0  0  0  0  0
  188.1170  177.2370  145.9130 C   0  0  0  0  0  0  0  0  0  0  0  0
  192.1720  174.9160  143.5950 C   0  0  2  0  0  3  0  0  0  0  0  0
  188.4680  174.7230  140.3870 O   0  0  0  0  0  0  0  0  0  0  0  0
  188.3360  173.2350  138.6790 C   0  0  0  0  0  1  0  0  0  0  0  0
  188.1910  173.4020  140.1130 N   0  0  0  0  0  2  0  0  0  0  0  0
  1  4  2  0  0  0  0
  1 19  1  0  0  0  0
  2 19  2  0  0  0  0
  2 13  1  0  0  0  0
  4 20  1  0  0  0  0
  5  1  1  0  0  0  0
  6  8  1  0  0  0  0
  7 15  1  1  0  0  0
  7  9  1  0  0  0  0
  8 12  2  0  0  0  0
  9 22  1  0  0  0  0
  9 14  1  1  0  0  0
 10  3  1  0  0  0  0
 10 21  1  0  0  0  0
 11  8  1  0  0  0  0
 11  5  2  0  0  0  0
 12 27  1  0  0  0  0
 12  4  1  0  0  0  0
 13 18  2  0  0  0  0
 15 23  1  0  0  0  0
 16  2  1  0  0  0  0
 17  3  1  0  0  0  0
 18 25  1  0  0  0  0
 19 26  1  0  0  0  0
 20 17  2  0  0  0  0
 22 20  1  6  0  0  0
 22 10  1  0  0  0  0
 23 14  1  0  0  0  0
 26 17  1  0  0  0  0
 26 25  2  0  0  0  0
 27  7  1  0  0  0  0
 27 24  1  1  0  0  0
 28 11  1  0  0  0  0
 29 30  1  0  0  0  0
 30 28  1  0  0  0  0
M  END
>  <MODEL>
5

>  <REMARK>
 VINA RESULT:      -7.8      2.310      3.306
  Name = 
  2 active torsions:
  status: ('A' for Active; 'I' for Inactive)
    1  A    between atoms: C_11  and  O_28
    2  A    between atoms: O_28  and  N_30
                            x       y       z     vdW  Elec       q    Type
                         _______ _______ _______ _____ _____    ______ ____

>  <TORSDO>
F 2

$$$$
=
 OpenBabel11112416203D

 30 35  0  0  1  0  0  0  0  0999 V2000
  188.1840  175.9230  142.1810 C   0  0  0  0  0  0  0  0  0  0  0  0
  186.5480  177.0290  140.6130 C   0  0  0  0  0  0  0  0  0  0  0  0
  186.6770  178.0910  145.5200 C   0  0  0  0  0  2  0  0  0  0  0  0
  188.6990  175.7920  143.5020 C   0  0  0  0  0  0  0  0  0  0  0  0
  188.7250  175.1610  141.1910 N   0  0  0  0  0  0  0  0  0  0  0  0
  191.3120  173.2300  142.8940 O   0  0  0  0  0  1  0  0  0  0  0  0
  190.8760  176.0320  145.7180 C   0  0  1  0  0  3  0  0  0  0  0  0
  190.2710  174.1310  142.6830 C   0  0  0  0  0  0  0  0  0  0  0  0
  189.8520  176.9900  146.2010 N   0  0  2  0  0  0  0  0  0  0  0  0
  187.5260  177.5460  146.5870 N   0  0  0  0  0  0  0  0  0  0  0  0
  189.7370  174.2810  141.4040 C   0  0  0  0  0  0  0  0  0  0  0  0
  189.7610  174.8900  143.7440 C   0  0  0  0  0  0  0  0  0  0  0  0
  185.4990  177.9370  140.4390 C   0  0  0  0  0  3  0  0  0  0  0  0
  190.0820  177.1110  147.6390 C   0  0  0  0  0  2  0  0  0  0  0  0
  191.8490  175.7480  146.8440 C   0  0  0  0  0  2  0  0  0  0  0  0
  187.0670  176.1960  139.1520 Cl  0  0  0  0  0  0  0  0  0  0  0  0
  187.1140  177.4350  144.2700 C   0  0  0  0  0  0  0  0  0  0  0  0
  184.9920  178.6660  141.5100 C   0  0  0  0  0  3  0  0  0  0  0  0
  187.1160  176.8360  141.9070 C   0  0  0  0  0  0  0  0  0  0  0  0
  188.1360  176.5760  144.5200 C   0  0  0  0  0  0  0  0  0  0  0  0
  186.6560  176.7950  147.4770 C   0  0  0  0  0  1  0  0  0  0  0  0
  188.4560  176.5790  145.9730 C   0  0  1  0  0  3  0  0  0  0  0  0
  191.5250  176.7650  147.9000 C   0  0  0  0  0  2  0  0  0  0  0  0
  189.5370  173.9960  145.9640 O   0  0  0  0  0  1  0  0  0  0  0  0
  185.5320  178.4960  142.7800 C   0  0  0  0  0  3  0  0  0  0  0  0
  186.5820  177.5970  142.9890 C   0  0  0  0  0  0  0  0  0  0  0  0
  190.3770  174.7100  145.1040 C   0  0  2  0  0  3  0  0  0  0  0  0
  190.2460  173.5260  140.3480 O   0  0  0  0  0  0  0  0  0  0  0  0
  188.9260  172.2890  138.9780 C   0  0  0  0  0  1  0  0  0  0  0  0
  189.6460  173.5420  139.1090 N   0  0  0  0  0  2  0  0  0  0  0  0
  1  4  1  0  0  0  0
  2 19  1  0  0  0  0
  3 10  1  0  0  0  0
  4 12  1  0  0  0  0
  4 20  2  0  0  0  0
  5 11  2  0  0  0  0
  5  1  1  0  0  0  0
  7  9  1  0  0  0  0
  7 15  1  1  0  0  0
  8  6  1  0  0  0  0
  8 12  2  0  0  0  0
  9 14  1  1  0  0  0
 10 21  1  0  0  0  0
 11  8  1  0  0  0  0
 12 27  1  0  0  0  0
 13  2  2  0  0  0  0
 13 18  1  0  0  0  0
 14 23  1  0  0  0  0
 15 23  1  0  0  0  0
 16  2  1  0  0  0  0
 17 20  1  0  0  0  0
 17  3  1  0  0  0  0
 18 25  2  0  0  0  0
 19  1  2  0  0  0  0
 19 26  1  0  0  0  0
 22 20  1  6  0  0  0
 22  9  1  0  0  0  0
 22 10  1  0  0  0  0
 25 26  1  0  0  0  0
 26 17  2  0  0  0  0
 27  7  1  0  0  0  0
 27 24  1  1  0  0  0
 28 11  1  0  0  0  0
 29 30  1  0  0  0  0
 30 28  1  0  0  0  0
M  END
>  <MODEL>
6

>  <REMARK>
 VINA RESULT:      -7.8      2.704      4.522
  Name = 
  2 active torsions:
  status: ('A' for Active; 'I' for Inactive)
    1  A    between atoms: C_11  and  O_28
    2  A    between atoms: O_28  and  N_30
                            x       y       z     vdW  Elec       q    Type
                         _______ _______ _______ _____ _____    ______ ____

>  <TORSDO>
F 2

$$$$
=
 OpenBabel11112416203D

 30 35  0  0  1  0  0  0  0  0999 V2000
  187.8410  175.9470  140.7710 C   0  0  0  0  0  0  0  0  0  0  0  0
  187.9090  174.7450  138.5560 C   0  0  0  0  0  0  0  0  0  0  0  0
  190.8970  173.4600  142.3830 C   0  0  0  0  0  2  0  0  0  0  0  0
  188.3360  176.0690  142.1010 C   0  0  0  0  0  0  0  0  0  0  0  0
  186.8790  176.8130  140.3510 N   0  0  0  0  0  0  0  0  0  0  0  0
  186.2860  178.9340  143.2620 O   0  0  0  0  0  1  0  0  0  0  0  0
  188.1300  175.9650  145.2080 C   0  0  1  0  0  3  0  0  0  0  0  0
  186.8200  177.9350  142.4530 C   0  0  0  0  0  0  0  0  0  0  0  0
  189.0990  174.8740  144.9370 N   0  0  2  0  0  0  0  0  0  0  0  0
  191.0250  174.0430  143.7250 N   0  0  0  0  0  0  0  0  0  0  0  0
  186.3640  177.7900  141.1430 C   0  0  0  0  0  0  0  0  0  0  0  0
  187.8060  177.0720  142.9470 C   0  0  0  0  0  0  0  0  0  0  0  0
  188.4710  173.7350  137.7710 C   0  0  0  0  0  3  0  0  0  0  0  0
  189.8540  174.7080  146.1760 C   0  0  0  0  0  2  0  0  0  0  0  0
  188.1730  176.2990  146.6850 C   0  0  0  0  0  2  0  0  0  0  0  0
  186.6620  175.7030  137.7630 Cl  0  0  0  0  0  0  0  0  0  0  0  0
  189.8290  174.2230  141.7020 C   0  0  0  0  0  0  0  0  0  0  0  0
  189.4660  172.9020  138.2730 C   0  0  0  0  0  3  0  0  0  0  0  0
  188.3530  174.9350  139.8980 C   0  0  0  0  0  0  0  0  0  0  0  0
  189.3300  175.1770  142.5280 C   0  0  0  0  0  0  0  0  0  0  0  0
  192.3440  174.6470  143.7990 C   0  0  0  0  0  1  0  0  0  0  0  0
  190.0410  175.1370  143.8350 C   0  0  1  0  0  3  0  0  0  0  0  0
  188.9870  175.2010  147.3060 C   0  0  0  0  0  2  0  0  0  0  0  0
  189.5300  177.8220  144.4440 O   0  0  0  0  0  1  0  0  0  0  0  0
  189.9130  173.0670  139.5790 C   0  0  0  0  0  3  0  0  0  0  0  0
  189.3710  174.0670  140.3930 C   0  0  0  0  0  0  0  0  0  0  0  0
  188.2570  177.2510  144.3710 C   0  0  2  0  0  3  0  0  0  0  0  0
  185.3820  178.6490  140.6530 O   0  0  0  0  0  0  0  0  0  0  0  0
  183.2850  178.2270  141.4120 C   0  0  0  0  0  1  0  0  0  0  0  0
  184.1540  178.1690  140.2520 N   0  0  0  0  0  2  0  0  0  0  0  0
  1  4  1  0  0  0  0
  2 19  1  0  0  0  0
  3 10  1  0  0  0  0
  4 20  2  0  0  0  0
  4 12  1  0  0  0  0
  5  1  1  0  0  0  0
  5 11  2  0  0  0  0
  7 15  1  1  0  0  0
  8 12  2  0  0  0  0
  8  6  1  0  0  0  0
  9  7  1  0  0  0  0
  9 14  1  1  0  0  0
 10 21  1  0  0  0  0
 10 22  1  0  0  0  0
 11  8  1  0  0  0  0
 12 27  1  0  0  0  0
 13 18  1  0  0  0  0
 13  2  2  0  0  0  0
 14 23  1  0  0  0  0
 15 23  1  0  0  0  0
 16  2  1  0  0  0  0
 17  3  1  0  0  0  0
 17 20  1  0  0  0  0
 18 25  2  0  0  0  0
 19 26  1  0  0  0  0
 19  1  2  0  0  0  0
 22 20  1  6  0  0  0
 22  9  1  0  0  0  0
 25 26  1  0  0  0  0
 26 17  2  0  0  0  0
 27 24  1  6  0  0  0
 27  7  1  0  0  0  0
 28 11  1  0  0  0  0
 30 28  1  0  0  0  0
 30 29  1  0  0  0  0
M  END
>  <MODEL>
7

>  <REMARK>
 VINA RESULT:      -7.5      2.569      5.284
  Name = 
  2 active torsions:
  status: ('A' for Active; 'I' for Inactive)
    1  A    between atoms: C_11  and  O_28
    2  A    between atoms: O_28  and  N_30
                            x       y       z     vdW  Elec       q    Type
                         _______ _______ _______ _____ _____    ______ ____

>  <TORSDO>
F 2

$$$$
=
 OpenBabel11112416203D

 30 35  0  0  1  0  0  0  0  0999 V2000
  188.8280  174.9100  142.3500 C   0  0  0  0  0  0  0  0  0  0  0  0
  190.4820  173.0230  142.1080 C   0  0  0  0  0  0  0  0  0  0  0  0
  189.5800  175.2300  146.5280 C   0  0  0  0  0  2  0  0  0  0  0  0
  188.1720  175.8460  143.1990 C   0  0  0  0  0  0  0  0  0  0  0  0
  188.5300  174.9120  141.0220 N   0  0  0  0  0  0  0  0  0  0  0  0
  186.0390  177.5600  140.6940 O   0  0  0  0  0  1  0  0  0  0  0  0
  185.7180  177.0960  144.6550 C   0  0  1  0  0  3  0  0  0  0  0  0
  186.9630  176.6910  141.2680 C   0  0  0  0  0  0  0  0  0  0  0  0
  186.5280  176.6120  145.8000 N   0  0  2  0  0  0  0  0  0  0  0  0
  188.6850  176.3440  146.8680 N   0  0  0  0  0  0  0  0  0  0  0  0
  187.6300  175.7650  140.4670 C   0  0  0  0  0  0  0  0  0  0  0  0
  187.2230  176.7370  142.6440 C   0  0  0  0  0  0  0  0  0  0  0  0
  191.4080  172.1700  142.7170 C   0  0  0  0  0  3  0  0  0  0  0  0
  186.1020  177.4140  146.9440 C   0  0  0  0  0  2  0  0  0  0  0  0
  184.6570  178.0450  145.1750 C   0  0  0  0  0  2  0  0  0  0  0  0
  190.2750  172.7880  140.3760 Cl  0  0  0  0  0  0  0  0  0  0  0  0
  189.4020  174.9840  145.0810 C   0  0  0  0  0  0  0  0  0  0  0  0
  191.6680  172.2460  144.0820 C   0  0  0  0  0  3  0  0  0  0  0  0
  189.7850  173.9920  142.8890 C   0  0  0  0  0  0  0  0  0  0  0  0
  188.4860  175.8440  144.5660 C   0  0  0  0  0  0  0  0  0  0  0  0
  189.5300  177.4580  147.2650 C   0  0  0  0  0  1  0  0  0  0  0  0
  187.9850  176.7510  145.6340 C   0  0  1  0  0  3  0  0  0  0  0  0
  184.6990  177.8910  146.6680 C   0  0  0  0  0  2  0  0  0  0  0  0
  187.2830  178.8050  143.8660 O   0  0  0  0  0  1  0  0  0  0  0  0
  190.9990  173.1820  144.8630 C   0  0  0  0  0  3  0  0  0  0  0  0
  190.0660  174.0490  144.2860 C   0  0  0  0  0  0  0  0  0  0  0  0
  186.4690  177.7380  143.4740 C   0  0  2  0  0  3  0  0  0  0  0  0
  187.3700  175.7200  139.0980 O   0  0  0  0  0  0  0  0  0  0  0  0
  187.7510  175.1150  136.9440 C   0  0  0  0  0  1  0  0  0  0  0  0
  187.8180  174.6720  138.3240 N   0  0  0  0  0  2  0  0  0  0  0  0
  1 19  2  0  0  0  0
  1  4  1  0  0  0  0
  2 13  2  0  0  0  0
  2 19  1  0  0  0  0
  3 10  1  0  0  0  0
  4 20  2  0  0  0  0
  5  1  1  0  0  0  0
  6  8  1  0  0  0  0
  7 15  1  1  0  0  0
  7  9  1  0  0  0  0
  8 12  2  0  0  0  0
  9 14  1  1  0  0  0
 10 21  1  0  0  0  0
 11  5  2  0  0  0  0
 11  8  1  0  0  0  0
 12  4  1  0  0  0  0
 12 27  1  0  0  0  0
 13 18  1  0  0  0  0
 15 23  1  0  0  0  0
 16  2  1  0  0  0  0
 17  3  1  0  0  0  0
 18 25  2  0  0  0  0
 19 26  1  0  0  0  0
 20 17  1  0  0  0  0
 22 20  1  6  0  0  0
 22  9  1  0  0  0  0
 22 10  1  0  0  0  0
 23 14  1  0  0  0  0
 26 25  1  0  0  0  0
 26 17  2  0  0  0  0
 27 24  1  1  0  0  0
 27  7  1  0  0  0  0
 28 11  1  0  0  0  0
 29 30  1  0  0  0  0
 30 28  1  0  0  0  0
M  END
>  <MODEL>
8

>  <REMARK>
 VINA RESULT:      -7.5      2.873      5.542
  Name = 
  2 active torsions:
  status: ('A' for Active; 'I' for Inactive)
    1  A    between atoms: C_11  and  O_28
    2  A    between atoms: O_28  and  N_30
                            x       y       z     vdW  Elec       q    Type
                         _______ _______ _______ _____ _____    ______ ____

>  <TORSDO>
F 2

$$$$
=
 OpenBabel11112416203D

 30 35  0  0  1  0  0  0  0  0999 V2000
  189.1640  176.1900  144.9480 C   0  0  0  0  0  0  0  0  0  0  0  0
  190.6110  176.7610  146.9320 C   0  0  0  0  0  0  0  0  0  0  0  0
  191.8660  173.1620  143.6620 C   0  0  0  0  0  2  0  0  0  0  0  0
  188.9630  175.3990  143.7810 C   0  0  0  0  0  0  0  0  0  0  0  0
  188.2220  177.1140  145.2800 N   0  0  0  0  0  0  0  0  0  0  0  0
  185.7160  176.7880  142.6460 O   0  0  0  0  0  1  0  0  0  0  0  0
  188.6780  174.9130  140.7170 C   0  0  1  0  0  3  0  0  0  0  0  0
  186.8690  176.5690  143.3950 C   0  0  0  0  0  0  0  0  0  0  0  0
  189.9220  174.1640  141.0220 N   0  0  2  0  0  0  0  0  0  0  0  0
  191.1580  172.6700  142.4740 N   0  0  0  0  0  0  0  0  0  0  0  0
  187.0960  177.3200  144.5480 C   0  0  0  0  0  0  0  0  0  0  0  0
  187.8040  175.6040  142.9970 C   0  0  0  0  0  0  0  0  0  0  0  0
  191.7760  176.5100  147.6630 C   0  0  0  0  0  3  0  0  0  0  0  0
  190.0510  173.1750  139.9550 C   0  0  0  0  0  2  0  0  0  0  0  0
  188.1860  174.5020  139.3440 C   0  0  0  0  0  2  0  0  0  0  0  0
  189.5800  178.0330  147.5800 Cl  0  0  0  0  0  0  0  0  0  0  0  0
  191.0400  174.2590  144.2100 C   0  0  0  0  0  0  0  0  0  0  0  0
  192.6810  175.5330  147.2630 C   0  0  0  0  0  3  0  0  0  0  0  0
  190.3340  176.0080  145.7530 C   0  0  0  0  0  0  0  0  0  0  0  0
  189.9350  174.4450  143.4450 C   0  0  0  0  0  0  0  0  0  0  0  0
  190.7470  171.3060  142.7620 C   0  0  0  0  0  1  0  0  0  0  0  0
  189.9270  173.4690  142.3210 C   0  0  1  0  0  3  0  0  0  0  0  0
  189.3110  173.7040  138.7530 C   0  0  0  0  0  2  0  0  0  0  0  0
  187.1440  173.5130  142.0130 O   0  0  0  0  0  1  0  0  0  0  0  0
  192.4330  174.7880  146.1160 C   0  0  0  0  0  3  0  0  0  0  0  0
  191.2780  175.0140  145.3600 C   0  0  0  0  0  0  0  0  0  0  0  0
  187.5290  174.8290  141.7380 C   0  0  2  0  0  3  0  0  0  0  0  0
  186.1660  178.2810  144.9430 O   0  0  0  0  0  0  0  0  0  0  0  0
  184.4560  178.0170  146.4120 C   0  0  0  0  0  1  0  0  0  0  0  0
  185.8350  178.4460  146.2700 N   0  0  0  0  0  2  0  0  0  0  0  0
  1  5  1  0  0  0  0
  1 19  1  0  0  0  0
  2 16  1  0  0  0  0
  2 13  1  0  0  0  0
  3 17  1  0  0  0  0
  4  1  2  0  0  0  0
  6  8  1  0  0  0  0
  7 15  1  6  0  0  0
  7  9  1  0  0  0  0
  7 27  1  0  0  0  0
  8 11  1  0  0  0  0
  9 14  1  6  0  0  0
  9 22  1  0  0  0  0
 10 21  1  0  0  0  0
 10  3  1  0  0  0  0
 11 28  1  0  0  0  0
 11  5  2  0  0  0  0
 12  8  2  0  0  0  0
 12  4  1  0  0  0  0
 17 26  1  0  0  0  0
 18 13  2  0  0  0  0
 19  2  2  0  0  0  0
 20  4  1  0  0  0  0
 20 17  2  0  0  0  0
 22 10  1  0  0  0  0
 22 20  1  1  0  0  0
 23 15  1  0  0  0  0
 23 14  1  0  0  0  0
 25 18  1  0  0  0  0
 26 19  1  0  0  0  0
 26 25  2  0  0  0  0
 27 24  1  1  0  0  0
 27 12  1  0  0  0  0
 28 30  1  0  0  0  0
 30 29  1  0  0  0  0
M  END
>  <MODEL>
9

>  <REMARK>
 VINA RESULT:      -7.2      2.816      4.849
  Name = 
  2 active torsions:
  status: ('A' for Active; 'I' for Inactive)
    1  A    between atoms: C_11  and  O_28
    2  A    between atoms: O_28  and  N_30
                            x       y       z     vdW  Elec       q    Type
                         _______ _______ _______ _____ _____    ______ ____

>  <TORSDO>
F 2

$$$$
