=
 OpenBabel11112417363D

 28 32  0  0  1  0  0  0  0  0999 V2000
  188.1830  175.8940  141.2170 C   0  0  0  0  0  0  0  0  0  0  0  0
  191.8440  177.3390  142.3950 F   0  0  0  0  0  0  0  0  0  0  0  0
  187.4300  177.0520  147.1760 O   0  0  0  0  0  0  0  0  0  0  0  0
  189.4970  173.5890  140.2730 C   0  0  0  0  0  3  0  0  0  0  0  0
  189.2370  175.4690  146.8730 C   0  0  2  0  0  3  0  0  0  0  0  0
  187.4790  177.0820  141.6230 N   0  0  0  0  0  2  0  0  0  0  0  0
  191.0130  177.9260  144.4060 F   0  0  0  0  0  0  0  0  0  0  0  0
  191.7110  176.9510  143.7120 C   0  0  0  0  0  0  0  0  0  0  0  0
  193.0390  176.1230  145.6820 C   0  0  0  0  0  0  0  0  0  0  0  0
  190.9740  175.6170  143.7780 C   0  0  1  0  0  3  0  0  0  0  0  0
  185.8050  178.9040  143.5280 C   0  0  0  0  0  1  0  0  0  0  0  0
  188.6710  175.0980  144.4830 C   0  0  1  0  0  3  0  0  0  0  0  0
  192.0420  175.3660  146.0200 N   0  0  0  0  0  0  0  0  0  0  0  0
  193.1000  176.7790  144.3270 C   0  0  0  0  0  2  0  0  0  0  0  0
  187.0410  178.0890  143.8470 C   0  0  1  0  0  3  0  0  0  0  0  0
  189.1670  175.2540  142.0200 C   0  0  0  0  0  0  0  0  0  0  0  0
  188.0860  176.2830  146.4240 C   0  0  0  0  0  0  0  0  0  0  0  0
  194.1570  176.3190  146.6330 C   0  0  0  0  0  1  0  0  0  0  0  0
  186.6550  176.7060  144.3790 C   0  0  0  0  0  2  0  0  0  0  0  0
  189.8090  174.1000  141.5340 C   0  0  0  0  0  3  0  0  0  0  0  0
  187.8670  175.3530  139.9660 C   0  0  0  0  0  3  0  0  0  0  0  0
  188.5230  174.2110  139.4930 C   0  0  0  0  0  3  0  0  0  0  0  0
  187.9630  178.0200  142.6340 C   0  0  0  0  0  2  0  0  0  0  0  0
  189.6550  174.7080  145.6060 C   0  0  1  0  0  3  0  0  0  0  0  0
  187.7780  176.0850  145.0650 N   0  0  0  0  0  0  0  0  0  0  0  0
  190.9660  175.1320  145.1450 N   0  0  0  0  0  0  0  0  0  0  0  0
  188.8050  174.5530  147.8340 O   0  0  0  0  0  1  0  0  0  0  0  0
  189.5090  175.7590  143.3930 C   0  0  2  0  0  3  0  0  0  0  0  0
  1  6  1  0  0  0  0
  1 16  1  0  0  0  0
  2  8  1  0  0  0  0
  4 20  1  0  0  0  0
  5 27  1  1  0  0  0
  6 23  1  0  0  0  0
  8 14  1  0  0  0  0
  8  7  1  0  0  0  0
  9 13  2  0  0  0  0
  9 18  1  0  0  0  0
 10  8  1  1  0  0  0
 10 26  1  0  0  0  0
 12 25  1  1  0  0  0
 12 24  1  0  0  0  0
 14  9  1  0  0  0  0
 15 11  1  6  0  0  0
 15 19  1  0  0  0  0
 17  5  1  0  0  0  0
 17  3  2  0  0  0  0
 19 25  1  0  0  0  0
 20 16  2  0  0  0  0
 21  1  2  0  0  0  0
 22 21  1  0  0  0  0
 22  4  2  0  0  0  0
 23 15  1  0  0  0  0
 24 26  1  6  0  0  0
 24  5  1  0  0  0  0
 25 17  1  0  0  0  0
 26 13  1  0  0  0  0
 28 16  1  6  0  0  0
 28 10  1  0  0  0  0
 28 12  1  0  0  0  0
M  END
>  <MODEL>
1

>  <REMARK>
 VINA RESULT:      -8.1      0.000      0.000
  Name = 
  0 active torsions:
  status: ('A' for Active; 'I' for Inactive)
                            x       y       z     vdW  Elec       q    Type
                         _______ _______ _______ _____ _____    ______ ____

>  <TORSDO>
F 0

$$$$
=
 OpenBabel11112417363D

 28 32  0  0  1  0  0  0  0  0999 V2000
  191.8030  175.5060  145.5870 C   0  0  0  0  0  0  0  0  0  0  0  0
  189.3950  178.4530  144.0380 F   0  0  0  0  0  0  0  0  0  0  0  0
  191.0000  173.8030  139.7680 O   0  0  0  0  0  0  0  0  0  0  0  0
  189.8540  175.0840  147.5750 C   0  0  0  0  0  3  0  0  0  0  0  0
  188.8520  173.9760  140.8720 C   0  0  2  0  0  3  0  0  0  0  0  0
  192.8550  175.7340  144.6320 N   0  0  0  0  0  2  0  0  0  0  0  0
  189.6730  177.6420  141.9520 F   0  0  0  0  0  0  0  0  0  0  0  0
  188.8390  177.6550  143.0590 C   0  0  0  0  0  0  0  0  0  0  0  0
  186.7040  177.2710  141.7860 C   0  0  0  0  0  0  0  0  0  0  0  0
  188.6500  176.2410  143.6020 C   0  0  1  0  0  3  0  0  0  0  0  0
  194.4910  175.2680  142.0120 C   0  0  0  0  0  1  0  0  0  0  0  0
  189.8900  174.1680  143.1210 C   0  0  1  0  0  3  0  0  0  0  0  0
  186.9380  175.9950  141.8030 N   0  0  0  0  0  0  0  0  0  0  0  0
  187.4740  178.2200  142.6660 C   0  0  0  0  0  2  0  0  0  0  0  0
  192.9910  175.3930  142.1790 C   0  0  1  0  0  3  0  0  0  0  0  0
  190.4280  175.4270  145.2330 C   0  0  0  0  0  0  0  0  0  0  0  0
  190.3310  173.9500  140.8240 C   0  0  0  0  0  0  0  0  0  0  0  0
  185.6340  177.8020  140.9100 C   0  0  0  0  0  1  0  0  0  0  0  0
  192.3480  174.0140  142.3520 C   0  0  0  0  0  2  0  0  0  0  0  0
  189.4690  175.2100  146.2390 C   0  0  0  0  0  3  0  0  0  0  0  0
  192.1720  175.3550  146.9290 C   0  0  0  0  0  3  0  0  0  0  0  0
  191.2040  175.1510  147.9190 C   0  0  0  0  0  3  0  0  0  0  0  0
  192.6580  176.3480  143.3200 C   0  0  0  0  0  2  0  0  0  0  0  0
  188.5440  174.1500  142.3670 C   0  0  1  0  0  3  0  0  0  0  0  0
  190.9170  174.0760  142.0980 N   0  0  0  0  0  0  0  0  0  0  0  0
  187.9290  175.4400  142.6320 N   0  0  0  0  0  0  0  0  0  0  0  0
  188.3560  172.7440  140.4440 O   0  0  0  0  0  1  0  0  0  0  0  0
  189.9790  175.5290  143.8030 C   0  0  2  0  0  3  0  0  0  0  0  0
  1 21  1  0  0  0  0
  3 17  2  0  0  0  0
  4 22  1  0  0  0  0
  5 27  1  1  0  0  0
  5 24  1  0  0  0  0
  6  1  1  0  0  0  0
  7  8  1  0  0  0  0
  8 10  1  0  0  0  0
  8  2  1  0  0  0  0
  9 13  2  0  0  0  0
  9 14  1  0  0  0  0
 10 26  1  6  0  0  0
 10 28  1  0  0  0  0
 12 25  1  6  0  0  0
 12 28  1  0  0  0  0
 13 26  1  0  0  0  0
 14  8  1  0  0  0  0
 15 11  1  1  0  0  0
 15 19  1  0  0  0  0
 15 23  1  0  0  0  0
 16  1  2  0  0  0  0
 16 20  1  0  0  0  0
 17  5  1  0  0  0  0
 17 25  1  0  0  0  0
 18  9  1  0  0  0  0
 20  4  2  0  0  0  0
 21 22  2  0  0  0  0
 23  6  1  0  0  0  0
 24 26  1  6  0  0  0
 24 12  1  0  0  0  0
 25 19  1  0  0  0  0
 28 16  1  1  0  0  0
M  END
>  <MODEL>
2

>  <REMARK>
 VINA RESULT:      -7.9      2.748      6.165
  Name = 
  0 active torsions:
  status: ('A' for Active; 'I' for Inactive)
                            x       y       z     vdW  Elec       q    Type
                         _______ _______ _______ _____ _____    ______ ____

>  <TORSDO>
F 0

$$$$
=
 OpenBabel11112417363D

 28 32  0  0  1  0  0  0  0  0999 V2000
  192.6930  173.4390  144.9910 C   0  0  0  0  0  0  0  0  0  0  0  0
  189.7290  174.5030  147.6300 F   0  0  0  0  0  0  0  0  0  0  0  0
  191.4850  179.2570  143.5370 O   0  0  0  0  0  0  0  0  0  0  0  0
  191.0620  171.2980  144.1630 C   0  0  0  0  0  3  0  0  0  0  0  0
  189.4740  177.9250  143.3200 C   0  0  2  0  0  3  0  0  0  0  0  0
  193.5860  174.4790  145.4310 N   0  0  0  0  0  2  0  0  0  0  0  0
  189.8800  176.6610  146.9970 F   0  0  0  0  0  0  0  0  0  0  0  0
  189.1850  175.4760  146.8170 C   0  0  0  0  0  0  0  0  0  0  0  0
  186.9950  176.5470  146.1940 C   0  0  0  0  0  0  0  0  0  0  0  0
  189.2620  175.0260  145.3620 C   0  0  1  0  0  3  0  0  0  0  0  0
  194.9630  177.2810  145.3730 C   0  0  0  0  0  1  0  0  0  0  0  0
  190.7220  175.7880  143.5300 C   0  0  1  0  0  3  0  0  0  0  0  0
  187.4090  176.6510  144.9690 N   0  0  0  0  0  0  0  0  0  0  0  0
  187.7170  175.6820  147.1930 C   0  0  0  0  0  2  0  0  0  0  0  0
  193.4900  176.9510  145.2610 C   0  0  1  0  0  3  0  0  0  0  0  0
  191.3120  173.6540  144.7270 C   0  0  0  0  0  0  0  0  0  0  0  0
  190.9260  178.1280  143.5190 C   0  0  0  0  0  0  0  0  0  0  0  0
  185.7680  177.2640  146.6100 C   0  0  0  0  0  1  0  0  0  0  0  0
  193.0740  176.8170  143.7930 C   0  0  0  0  0  2  0  0  0  0  0  0
  190.5140  172.5740  144.3090 C   0  0  0  0  0  3  0  0  0  0  0  0
  193.2290  172.1590  144.8170 C   0  0  0  0  0  3  0  0  0  0  0  0
  192.4200  171.0920  144.4100 C   0  0  0  0  0  3  0  0  0  0  0  0
  193.1550  175.7120  146.0850 C   0  0  0  0  0  2  0  0  0  0  0  0
  189.3150  176.3980  143.3560 C   0  0  1  0  0  3  0  0  0  0  0  0
  191.6290  176.9170  143.6550 N   0  0  0  0  0  0  0  0  0  0  0  0
  188.5570  175.9740  144.5210 N   0  0  0  0  0  0  0  0  0  0  0  0
  189.1130  178.3920  142.0550 O   0  0  0  0  0  1  0  0  0  0  0  0
  190.6930  175.0180  144.8460 C   0  0  2  0  0  3  0  0  0  0  0  0
  1  6  1  0  0  0  0
  4 20  2  0  0  0  0
  4 22  1  0  0  0  0
  5 27  1  6  0  0  0
  5 24  1  0  0  0  0
  5 17  1  0  0  0  0
  6 23  1  0  0  0  0
  8  7  1  0  0  0  0
  8 14  1  0  0  0  0
  8  2  1  0  0  0  0
  9 18  1  0  0  0  0
  9 14  1  0  0  0  0
 10 26  1  6  0  0  0
 10  8  1  0  0  0  0
 12 25  1  1  0  0  0
 12 28  1  0  0  0  0
 13  9  2  0  0  0  0
 15 11  1  6  0  0  0
 15 23  1  0  0  0  0
 16  1  2  0  0  0  0
 17  3  2  0  0  0  0
 17 25  1  0  0  0  0
 19 15  1  0  0  0  0
 20 16  1  0  0  0  0
 21  1  1  0  0  0  0
 22 21  2  0  0  0  0
 24 12  1  0  0  0  0
 24 26  1  1  0  0  0
 25 19  1  0  0  0  0
 26 13  1  0  0  0  0
 28 16  1  6  0  0  0
 28 10  1  0  0  0  0
M  END
>  <MODEL>
3

>  <REMARK>
 VINA RESULT:      -7.5      2.898      5.628
  Name = 
  0 active torsions:
  status: ('A' for Active; 'I' for Inactive)
                            x       y       z     vdW  Elec       q    Type
                         _______ _______ _______ _____ _____    ______ ____

>  <TORSDO>
F 0

$$$$
=
 OpenBabel11112417363D

 28 32  0  0  1  0  0  0  0  0999 V2000
  190.9880  176.3550  146.6240 C   0  0  0  0  0  0  0  0  0  0  0  0
  190.4920  172.8500  144.5390 F   0  0  0  0  0  0  0  0  0  0  0  0
  185.9360  177.3430  143.3200 O   0  0  0  0  0  0  0  0  0  0  0  0
  193.5760  176.5350  145.5300 C   0  0  0  0  0  3  0  0  0  0  0  0
  187.7870  176.8240  141.8480 C   0  0  2  0  0  3  0  0  0  0  0  0
  189.6990  176.2680  147.2600 N   0  0  0  0  0  2  0  0  0  0  0  0
  188.4630  173.5160  143.8180 F   0  0  0  0  0  0  0  0  0  0  0  0
  189.8060  173.4270  143.4900 C   0  0  0  0  0  0  0  0  0  0  0  0
  189.4610  173.2480  141.0050 C   0  0  0  0  0  0  0  0  0  0  0  0
  190.3800  174.8120  143.2080 C   0  0  1  0  0  3  0  0  0  0  0  0
  186.6510  176.8340  147.6340 C   0  0  0  0  0  1  0  0  0  0  0  0
  189.4570  177.0480  143.6730 C   0  0  1  0  0  3  0  0  0  0  0  0
  189.3860  174.5410  140.9340 N   0  0  0  0  0  0  0  0  0  0  0  0
  189.9730  172.5600  142.2430 C   0  0  0  0  0  2  0  0  0  0  0  0
  187.3860  176.4160  146.3780 C   0  0  1  0  0  3  0  0  0  0  0  0
  191.1950  176.1160  145.2380 C   0  0  0  0  0  0  0  0  0  0  0  0
  187.1690  177.1520  143.1520 C   0  0  0  0  0  0  0  0  0  0  0  0
  189.0680  172.4330  139.8320 C   0  0  0  0  0  1  0  0  0  0  0  0
  187.7950  177.6410  145.5560 C   0  0  0  0  0  2  0  0  0  0  0  0
  192.4940  176.2160  144.7070 C   0  0  0  0  0  3  0  0  0  0  0  0
  192.0820  176.6950  147.4280 C   0  0  0  0  0  3  0  0  0  0  0  0
  193.3690  176.7800  146.8880 C   0  0  0  0  0  3  0  0  0  0  0  0
  188.5660  175.5150  146.7240 C   0  0  0  0  0  2  0  0  0  0  0  0
  189.2840  176.7210  142.1750 C   0  0  1  0  0  3  0  0  0  0  0  0
  188.1160  177.2620  144.1880 N   0  0  0  0  0  0  0  0  0  0  0  0
  189.7660  175.3590  142.0130 N   0  0  0  0  0  0  0  0  0  0  0  0
  187.5850  177.8850  140.9640 O   0  0  0  0  0  1  0  0  0  0  0  0
  190.0510  175.7990  144.3170 C   0  0  2  0  0  3  0  0  0  0  0  0
  1  6  1  0  0  0  0
  1 21  1  0  0  0  0
  4 22  1  0  0  0  0
  5 27  1  6  0  0  0
  5 24  1  0  0  0  0
  5 17  1  0  0  0  0
  8  7  1  0  0  0  0
  8  2  1  0  0  0  0
  9 14  1  0  0  0  0
 10 26  1  6  0  0  0
 10  8  1  0  0  0  0
 10 28  1  0  0  0  0
 12 25  1  1  0  0  0
 12 28  1  0  0  0  0
 13  9  2  0  0  0  0
 13 26  1  0  0  0  0
 14  8  1  0  0  0  0
 15 23  1  0  0  0  0
 15 11  1  1  0  0  0
 16  1  2  0  0  0  0
 17  3  2  0  0  0  0
 17 25  1  0  0  0  0
 18  9  1  0  0  0  0
 19 15  1  0  0  0  0
 20 16  1  0  0  0  0
 20  4  2  0  0  0  0
 22 21  2  0  0  0  0
 23  6  1  0  0  0  0
 24 26  1  1  0  0  0
 24 12  1  0  0  0  0
 25 19  1  0  0  0  0
 28 16  1  6  0  0  0
M  END
>  <MODEL>
4

>  <REMARK>
 VINA RESULT:      -7.5      2.511      5.355
  Name = 
  0 active torsions:
  status: ('A' for Active; 'I' for Inactive)
                            x       y       z     vdW  Elec       q    Type
                         _______ _______ _______ _____ _____    ______ ____

>  <TORSDO>
F 0

$$$$
=
 OpenBabel11112417363D

 28 32  0  0  1  0  0  0  0  0999 V2000
  188.2930  177.3430  145.9980 C   0  0  0  0  0  0  0  0  0  0  0  0
  187.3120  179.0410  142.3880 F   0  0  0  0  0  0  0  0  0  0  0  0
  191.7470  174.2870  141.9790 O   0  0  0  0  0  0  0  0  0  0  0  0
  185.5590  176.7890  146.3790 C   0  0  0  0  0  3  0  0  0  0  0  0
  189.4080  174.0430  141.3990 C   0  0  2  0  0  3  0  0  0  0  0  0
  189.6910  177.6660  145.8760 N   0  0  0  0  0  2  0  0  0  0  0  0
  188.9830  177.9280  141.3620 F   0  0  0  0  0  0  0  0  0  0  0  0
  187.6250  177.9250  141.6380 C   0  0  0  0  0  0  0  0  0  0  0  0
  186.9370  176.6630  139.5740 C   0  0  0  0  0  0  0  0  0  0  0  0
  187.2400  176.6680  142.4120 C   0  0  1  0  0  3  0  0  0  0  0  0
  192.6920  177.1660  145.1720 C   0  0  0  0  0  1  0  0  0  0  0  0
  188.6490  175.0050  143.5600 C   0  0  1  0  0  3  0  0  0  0  0  0
  187.2050  175.5480  140.1820 N   0  0  0  0  0  0  0  0  0  0  0  0
  186.8350  177.9610  140.3300 C   0  0  0  0  0  2  0  0  0  0  0  0
  191.4640  176.8700  144.3360 C   0  0  1  0  0  3  0  0  0  0  0  0
  187.5240  176.7840  144.9400 C   0  0  0  0  0  0  0  0  0  0  0  0
  190.5320  174.4480  142.2720 C   0  0  0  0  0  0  0  0  0  0  0  0
  186.6910  176.6530  138.1140 C   0  0  0  0  0  1  0  0  0  0  0  0
  190.9900  175.4310  144.5590 C   0  0  0  0  0  2  0  0  0  0  0  0
  186.1610  176.5090  145.1510 C   0  0  0  0  0  3  0  0  0  0  0  0
  187.6780  177.5950  147.2290 C   0  0  0  0  0  3  0  0  0  0  0  0
  186.3180  177.3260  147.4190 C   0  0  0  0  0  3  0  0  0  0  0  0
  190.3730  177.9010  144.6050 C   0  0  0  0  0  2  0  0  0  0  0  0
  188.1640  174.4280  142.2130 C   0  0  1  0  0  3  0  0  0  0  0  0
  190.1000  175.0090  143.4880 N   0  0  0  0  0  0  0  0  0  0  0  0
  187.4250  175.5020  141.5690 N   0  0  0  0  0  0  0  0  0  0  0  0
  189.4320  172.6570  141.2320 O   0  0  0  0  0  1  0  0  0  0  0  0
  188.1440  176.4430  143.6150 C   0  0  2  0  0  3  0  0  0  0  0  0
  1 21  1  0  0  0  0
  3 17  2  0  0  0  0
  4 22  1  0  0  0  0
  5 27  1  1  0  0  0
  5 24  1  0  0  0  0
  5 17  1  0  0  0  0
  6  1  1  0  0  0  0
  7  8  1  0  0  0  0
  8  2  1  0  0  0  0
  8 10  1  0  0  0  0
  9 13  2  0  0  0  0
  9 14  1  0  0  0  0
 10 26  1  6  0  0  0
 10 28  1  0  0  0  0
 12 25  1  6  0  0  0
 12 28  1  0  0  0  0
 13 26  1  0  0  0  0
 14  8  1  0  0  0  0
 15 19  1  0  0  0  0
 15 23  1  0  0  0  0
 15 11  1  1  0  0  0
 16 20  1  0  0  0  0
 16  1  2  0  0  0  0
 17 25  1  0  0  0  0
 18  9  1  0  0  0  0
 20  4  2  0  0  0  0
 21 22  2  0  0  0  0
 23  6  1  0  0  0  0
 24 26  1  6  0  0  0
 24 12  1  0  0  0  0
 25 19  1  0  0  0  0
 28 16  1  1  0  0  0
M  END
>  <MODEL>
5

>  <REMARK>
 VINA RESULT:      -7.4      2.602      5.979
  Name = 
  0 active torsions:
  status: ('A' for Active; 'I' for Inactive)
                            x       y       z     vdW  Elec       q    Type
                         _______ _______ _______ _____ _____    ______ ____

>  <TORSDO>
F 0

$$$$
=
 OpenBabel11112417363D

 28 32  0  0  1  0  0  0  0  0999 V2000
  189.1970  174.3040  142.3780 C   0  0  0  0  0  0  0  0  0  0  0  0
  192.1030  176.1460  144.6240 F   0  0  0  0  0  0  0  0  0  0  0  0
  186.2080  178.8670  145.1470 O   0  0  0  0  0  0  0  0  0  0  0  0
  189.8390  171.8960  143.6880 C   0  0  0  0  0  3  0  0  0  0  0  0
  187.2090  177.4180  146.8090 C   0  0  2  0  0  3  0  0  0  0  0  0
  188.8830  175.4970  141.6360 N   0  0  0  0  0  2  0  0  0  0  0  0
  190.7060  177.8460  145.1160 F   0  0  0  0  0  0  0  0  0  0  0  0
  191.2310  176.6450  145.5690 C   0  0  0  0  0  0  0  0  0  0  0  0
  191.0540  177.1860  148.0190 C   0  0  0  0  0  0  0  0  0  0  0  0
  190.1150  175.6340  145.8150 C   0  0  1  0  0  3  0  0  0  0  0  0
  187.3200  178.1140  140.9550 C   0  0  0  0  0  1  0  0  0  0  0  0
  187.7490  175.6680  145.1310 C   0  0  1  0  0  3  0  0  0  0  0  0
  189.8160  176.7990  148.0020 N   0  0  0  0  0  0  0  0  0  0  0  0
  191.9860  176.8770  146.8770 C   0  0  0  0  0  2  0  0  0  0  0  0
  187.8550  177.6560  142.2950 C   0  0  1  0  0  3  0  0  0  0  0  0
  189.3680  174.2830  143.7900 C   0  0  0  0  0  0  0  0  0  0  0  0
  186.8030  177.7960  145.4370 C   0  0  0  0  0  0  0  0  0  0  0  0
  191.5710  177.9150  149.1990 C   0  0  0  0  0  1  0  0  0  0  0  0
  186.7820  176.8880  143.0740 C   0  0  0  0  0  2  0  0  0  0  0  0
  189.6820  173.0690  144.4280 C   0  0  0  0  0  3  0  0  0  0  0  0
  189.3360  173.1140  141.6570 C   0  0  0  0  0  3  0  0  0  0  0  0
  189.6600  171.9170  142.3050 C   0  0  0  0  0  3  0  0  0  0  0  0
  189.1390  176.8550  142.1130 C   0  0  0  0  0  2  0  0  0  0  0  0
  187.8590  176.0390  146.6250 C   0  0  1  0  0  3  0  0  0  0  0  0
  187.1260  176.8100  144.4850 N   0  0  0  0  0  0  0  0  0  0  0  0
  189.2830  176.0860  146.9140 N   0  0  0  0  0  0  0  0  0  0  0  0
  186.0700  177.2830  147.6050 O   0  0  0  0  0  1  0  0  0  0  0  0
  189.1790  175.5200  144.6220 C   0  0  2  0  0  3  0  0  0  0  0  0
  1 16  1  0  0  0  0
  2  8  1  0  0  0  0
  3 17  2  0  0  0  0
  4 20  1  0  0  0  0
  5 27  1  1  0  0  0
  6 23  1  0  0  0  0
  6  1  1  0  0  0  0
  7  8  1  0  0  0  0
  8 14  1  0  0  0  0
  9 18  1  0  0  0  0
 10  8  1  6  0  0  0
 10 26  1  0  0  0  0
 12 25  1  6  0  0  0
 12 24  1  0  0  0  0
 13  9  2  0  0  0  0
 14  9  1  0  0  0  0
 15 11  1  6  0  0  0
 15 19  1  0  0  0  0
 16 20  2  0  0  0  0
 17  5  1  0  0  0  0
 19 25  1  0  0  0  0
 21 22  1  0  0  0  0
 21  1  2  0  0  0  0
 22  4  2  0  0  0  0
 23 15  1  0  0  0  0
 24  5  1  0  0  0  0
 24 26  1  6  0  0  0
 25 17  1  0  0  0  0
 26 13  1  0  0  0  0
 28 16  1  1  0  0  0
 28 12  1  0  0  0  0
 28 10  1  0  0  0  0
M  END
>  <MODEL>
6

>  <REMARK>
 VINA RESULT:      -7.1      1.954      2.636
  Name = 
  0 active torsions:
  status: ('A' for Active; 'I' for Inactive)
                            x       y       z     vdW  Elec       q    Type
                         _______ _______ _______ _____ _____    ______ ____

>  <TORSDO>
F 0

$$$$
=
 OpenBabel11112417363D

 28 32  0  0  1  0  0  0  0  0999 V2000
  193.7070  176.3070  144.5470 C   0  0  0  0  0  0  0  0  0  0  0  0
  190.4440  178.5580  143.4670 F   0  0  0  0  0  0  0  0  0  0  0  0
  190.6120  172.6390  140.7540 O   0  0  0  0  0  0  0  0  0  0  0  0
  192.9630  176.6840  147.2370 C   0  0  0  0  0  3  0  0  0  0  0  0
  189.2030  173.2570  142.6240 C   0  0  2  0  0  3  0  0  0  0  0  0
  194.1620  176.1460  143.1900 N   0  0  0  0  0  2  0  0  0  0  0  0
  189.8620  177.0420  141.9030 F   0  0  0  0  0  0  0  0  0  0  0  0
  189.6310  177.4760  143.1990 C   0  0  0  0  0  0  0  0  0  0  0  0
  187.2360  176.7160  143.3110 C   0  0  0  0  0  0  0  0  0  0  0  0
  189.9260  176.3600  144.1970 C   0  0  1  0  0  3  0  0  0  0  0  0
  194.4770  174.7220  140.4290 C   0  0  0  0  0  1  0  0  0  0  0  0
  191.1080  174.2200  143.8950 C   0  0  1  0  0  3  0  0  0  0  0  0
  187.6410  175.5260  143.6320 N   0  0  0  0  0  0  0  0  0  0  0  0
  188.1690  177.8970  143.3460 C   0  0  0  0  0  2  0  0  0  0  0  0
  193.2170  174.9390  141.2420 C   0  0  1  0  0  3  0  0  0  0  0  0
  192.3510  176.1420  144.9430 C   0  0  0  0  0  0  0  0  0  0  0  0
  190.4830  173.1750  141.8860 C   0  0  0  0  0  0  0  0  0  0  0  0
  185.8190  176.9230  142.9350 C   0  0  0  0  0  1  0  0  0  0  0  0
  192.9400  173.7320  142.1440 C   0  0  0  0  0  2  0  0  0  0  0  0
  191.9990  176.3280  146.2920 C   0  0  0  0  0  3  0  0  0  0  0  0
  194.6630  176.6400  145.5120 C   0  0  0  0  0  3  0  0  0  0  0  0
  194.2950  176.8330  146.8490 C   0  0  0  0  0  3  0  0  0  0  0  0
  193.2990  176.2490  142.0150 C   0  0  0  0  0  2  0  0  0  0  0  0
  189.5860  173.9670  143.9310 C   0  0  1  0  0  3  0  0  0  0  0  0
  191.5580  173.7370  142.6010 N   0  0  0  0  0  0  0  0  0  0  0  0
  188.9720  175.2820  144.0160 N   0  0  0  0  0  0  0  0  0  0  0  0
  188.7590  171.9670  142.9180 O   0  0  0  0  0  1  0  0  0  0  0  0
  191.2910  175.7330  143.9590 C   0  0  2  0  0  3  0  0  0  0  0  0
  1 16  2  0  0  0  0
  1 21  1  0  0  0  0
  3 17  2  0  0  0  0
  5 27  1  1  0  0  0
  5 24  1  0  0  0  0
  6  1  1  0  0  0  0
  7  8  1  0  0  0  0
  8 14  1  0  0  0  0
  8  2  1  0  0  0  0
  9 14  1  0  0  0  0
  9 13  2  0  0  0  0
 10  8  1  6  0  0  0
 12 25  1  6  0  0  0
 12 24  1  0  0  0  0
 12 28  1  0  0  0  0
 13 26  1  0  0  0  0
 15 11  1  1  0  0  0
 15 23  1  0  0  0  0
 15 19  1  0  0  0  0
 16 20  1  0  0  0  0
 17 25  1  0  0  0  0
 17  5  1  0  0  0  0
 18  9  1  0  0  0  0
 19 25  1  0  0  0  0
 20  4  2  0  0  0  0
 21 22  2  0  0  0  0
 22  4  1  0  0  0  0
 23  6  1  0  0  0  0
 24 26  1  6  0  0  0
 26 10  1  0  0  0  0
 28 10  1  0  0  0  0
 28 16  1  1  0  0  0
M  END
>  <MODEL>
7

>  <REMARK>
 VINA RESULT:      -7.0      2.636      6.057
  Name = 
  0 active torsions:
  status: ('A' for Active; 'I' for Inactive)
                            x       y       z     vdW  Elec       q    Type
                         _______ _______ _______ _____ _____    ______ ____

>  <TORSDO>
F 0

$$$$
=
 OpenBabel11112417363D

 28 32  0  0  1  0  0  0  0  0999 V2000
  188.3140  175.5560  141.4150 C   0  0  0  0  0  0  0  0  0  0  0  0
  188.0630  175.5180  145.5150 F   0  0  0  0  0  0  0  0  0  0  0  0
  193.7080  173.2660  143.1710 O   0  0  0  0  0  0  0  0  0  0  0  0
  187.7370  178.3110  141.4950 C   0  0  0  0  0  3  0  0  0  0  0  0
  193.3980  175.4630  144.1410 C   0  0  2  0  0  3  0  0  0  0  0  0
  188.5450  174.1370  141.3230 N   0  0  0  0  0  2  0  0  0  0  0  0
  189.9780  174.3380  145.6650 F   0  0  0  0  0  0  0  0  0  0  0  0
  189.4240  175.6070  145.7230 C   0  0  0  0  0  0  0  0  0  0  0  0
  191.1340  176.5710  147.2960 C   0  0  0  0  0  0  0  0  0  0  0  0
  190.0420  176.5090  144.6590 C   0  0  1  0  0  3  0  0  0  0  0  0
  190.2380  171.5230  141.0970 C   0  0  0  0  0  1  0  0  0  0  0  0
  191.4320  175.9510  142.7030 C   0  0  1  0  0  3  0  0  0  0  0  0
  191.9130  176.8050  146.2850 N   0  0  0  0  0  0  0  0  0  0  0  0
  189.6830  176.2170  147.1000 C   0  0  0  0  0  2  0  0  0  0  0  0
  190.4390  172.7010  142.0270 C   0  0  1  0  0  3  0  0  0  0  0  0
  188.9800  176.3980  142.3470 C   0  0  0  0  0  0  0  0  0  0  0  0
  193.0540  174.3400  143.2400 C   0  0  0  0  0  0  0  0  0  0  0  0
  191.6720  176.6870  148.6700 C   0  0  0  0  0  1  0  0  0  0  0  0
  191.4130  173.7140  141.4180 C   0  0  0  0  0  2  0  0  0  0  0  0
  188.6830  177.7730  142.3690 C   0  0  0  0  0  3  0  0  0  0  0  0
  187.3860  176.1170  140.5310 C   0  0  0  0  0  3  0  0  0  0  0  0
  187.0940  177.4850  140.5730 C   0  0  0  0  0  3  0  0  0  0  0  0
  189.0980  173.3220  142.4020 C   0  0  0  0  0  2  0  0  0  0  0  0
  192.3260  176.5170  143.8260 C   0  0  1  0  0  3  0  0  0  0  0  0
  191.9300  174.6120  142.4390 N   0  0  0  0  0  0  0  0  0  0  0  0
  191.4440  176.7280  144.9620 N   0  0  0  0  0  0  0  0  0  0  0  0
  194.6510  175.9670  143.7900 O   0  0  0  0  0  1  0  0  0  0  0  0
  190.0240  175.8600  143.2840 C   0  0  2  0  0  3  0  0  0  0  0  0
  1 16  1  0  0  0  0
  2  8  1  0  0  0  0
  3 17  2  0  0  0  0
  4 20  1  0  0  0  0
  5 27  1  6  0  0  0
  6  1  1  0  0  0  0
  6 23  1  0  0  0  0
  7  8  1  0  0  0  0
  8 14  1  0  0  0  0
  9 18  1  0  0  0  0
 10 26  1  1  0  0  0
 10  8  1  0  0  0  0
 12 25  1  1  0  0  0
 12 28  1  0  0  0  0
 12 24  1  0  0  0  0
 13  9  2  0  0  0  0
 14  9  1  0  0  0  0
 15 11  1  6  0  0  0
 15 23  1  0  0  0  0
 16 20  2  0  0  0  0
 17  5  1  0  0  0  0
 19 15  1  0  0  0  0
 19 25  1  0  0  0  0
 21 22  1  0  0  0  0
 21  1  2  0  0  0  0
 22  4  2  0  0  0  0
 24  5  1  0  0  0  0
 24 26  1  1  0  0  0
 25 17  1  0  0  0  0
 26 13  1  0  0  0  0
 28 16  1  6  0  0  0
 28 10  1  0  0  0  0
M  END
>  <MODEL>
8

>  <REMARK>
 VINA RESULT:      -6.9      2.914      4.598
  Name = 
  0 active torsions:
  status: ('A' for Active; 'I' for Inactive)
                            x       y       z     vdW  Elec       q    Type
                         _______ _______ _______ _____ _____    ______ ____

>  <TORSDO>
F 0

$$$$
=
 OpenBabel11112417363D

 28 32  0  0  1  0  0  0  0  0999 V2000
  192.3690  176.0280  145.6720 C   0  0  0  0  0  0  0  0  0  0  0  0
  192.3640  171.9720  145.0130 F   0  0  0  0  0  0  0  0  0  0  0  0
  187.0790  175.0450  142.7630 O   0  0  0  0  0  0  0  0  0  0  0  0
  194.8400  176.1520  144.3270 C   0  0  0  0  0  3  0  0  0  0  0  0
  188.9210  174.2870  141.3870 C   0  0  2  0  0  3  0  0  0  0  0  0
  191.1420  176.0010  146.4250 N   0  0  0  0  0  2  0  0  0  0  0  0
  190.2220  172.0460  144.3140 F   0  0  0  0  0  0  0  0  0  0  0  0
  191.5450  172.0300  143.9030 C   0  0  0  0  0  0  0  0  0  0  0  0
  191.1220  170.9150  141.6890 C   0  0  0  0  0  0  0  0  0  0  0  0
  191.8700  173.2820  143.0960 C   0  0  1  0  0  3  0  0  0  0  0  0
  188.0620  176.2390  146.8840 C   0  0  0  0  0  1  0  0  0  0  0  0
  190.6130  175.3850  142.8370 C   0  0  1  0  0  3  0  0  0  0  0  0
  190.8320  172.0710  141.1760 N   0  0  0  0  0  0  0  0  0  0  0  0
  191.7960  170.8000  143.0310 C   0  0  0  0  0  2  0  0  0  0  0  0
  188.7990  175.4990  145.7870 C   0  0  1  0  0  3  0  0  0  0  0  0
  192.5490  175.3330  144.4440 C   0  0  0  0  0  0  0  0  0  0  0  0
  188.3180  174.9780  142.5480 C   0  0  0  0  0  0  0  0  0  0  0  0
  190.8160  169.6840  140.9240 C   0  0  0  0  0  1  0  0  0  0  0  0
  188.9630  176.3870  144.5500 C   0  0  0  0  0  2  0  0  0  0  0  0
  193.7890  175.4110  143.7840 C   0  0  0  0  0  3  0  0  0  0  0  0
  193.4270  176.7840  146.1900 C   0  0  0  0  0  3  0  0  0  0  0  0
  194.6580  176.8420  145.5260 C   0  0  0  0  0  3  0  0  0  0  0  0
  190.1260  174.9570  146.3060 C   0  0  0  0  0  2  0  0  0  0  0  0
  190.4280  174.5160  141.5760 C   0  0  1  0  0  3  0  0  0  0  0  0
  189.2790  175.5850  143.3780 N   0  0  0  0  0  0  0  0  0  0  0  0
  191.1200  173.2680  141.8540 N   0  0  0  0  0  0  0  0  0  0  0  0
  188.5080  174.9160  140.2110 O   0  0  0  0  0  1  0  0  0  0  0  0
  191.4330  174.5490  143.8150 C   0  0  2  0  0  3  0  0  0  0  0  0
  1 21  1  0  0  0  0
  1  6  1  0  0  0  0
  4 22  1  0  0  0  0
  5 27  1  6  0  0  0
  5 24  1  0  0  0  0
  5 17  1  0  0  0  0
  8  7  1  0  0  0  0
  8  2  1  0  0  0  0
  9 14  1  0  0  0  0
 10 26  1  6  0  0  0
 10 28  1  0  0  0  0
 10  8  1  0  0  0  0
 12 25  1  1  0  0  0
 12 28  1  0  0  0  0
 13  9  2  0  0  0  0
 13 26  1  0  0  0  0
 14  8  1  0  0  0  0
 15 23  1  0  0  0  0
 15 11  1  1  0  0  0
 16  1  2  0  0  0  0
 17  3  2  0  0  0  0
 17 25  1  0  0  0  0
 18  9  1  0  0  0  0
 19 15  1  0  0  0  0
 20  4  2  0  0  0  0
 20 16  1  0  0  0  0
 22 21  2  0  0  0  0
 23  6  1  0  0  0  0
 24 26  1  1  0  0  0
 24 12  1  0  0  0  0
 25 19  1  0  0  0  0
 28 16  1  6  0  0  0
M  END
>  <MODEL>
9

>  <REMARK>
 VINA RESULT:      -6.9      3.166      5.605
  Name = 
  0 active torsions:
  status: ('A' for Active; 'I' for Inactive)
                            x       y       z     vdW  Elec       q    Type
                         _______ _______ _______ _____ _____    ______ ____

>  <TORSDO>
F 0

$$$$
