=
 OpenBabel11112417323D

 37 41  0  0  1  0  0  0  0  0999 V2000
  191.0930  173.9330  143.2510 C   0  0  1  0  0  3  0  0  0  0  0  0
  192.2970  174.9250  146.7460 C   0  0  0  0  0  2  0  0  0  0  0  0
  189.1010  174.3520  141.7220 C   0  0  2  0  0  3  0  0  0  0  0  0
  191.1330  174.8350  144.4330 C   0  0  2  0  0  3  0  0  0  0  0  0
  189.6060  173.7530  143.0460 C   0  0  2  0  0  3  0  0  0  0  0  0
  192.2780  174.3300  145.3380 C   0  0  1  0  0  3  0  0  0  0  0  0
  189.9720  173.8680  140.5540 C   0  0  0  0  0  2  0  0  0  0  0  0
  188.9070  174.2840  144.1500 O   0  0  0  0  0  0  0  0  0  0  0  0
  193.2310  174.3960  142.2780 C   0  0  0  0  0  2  0  0  0  0  0  0
  191.4610  173.7790  140.9070 C   0  0  0  0  0  2  0  0  0  0  0  0
  191.4660  177.0890  145.9700 O   0  0  0  0  0  0  0  0  0  0  0  0
  192.4370  176.4540  146.7630 C   0  0  0  0  0  2  0  0  0  0  0  0
  191.7850  174.5500  142.1060 N   0  0  1  0  0  0  0  0  0  0  0  0
  189.8140  174.7470  145.0730 N   0  0  2  0  0  0  0  0  0  0  0  0
  193.6030  174.4460  144.6980 N   0  0  0  0  0  0  0  0  0  0  0  0
  190.2240  176.7580  146.5240 C   0  0  0  0  0  2  0  0  0  0  0  0
  189.3290  176.0840  145.4770 C   0  0  2  0  0  3  0  0  0  0  0  0
  193.7590  175.2120  143.4570 C   0  0  0  0  0  2  0  0  0  0  0  0
  195.8890  174.2760  145.6380 C   0  0  0  0  0  3  0  0  0  0  0  0
  194.7130  173.6580  145.1800 C   0  0  0  0  0  0  0  0  0  0  0  0
  194.6350  172.2540  145.2030 C   0  0  0  0  0  3  0  0  0  0  0  0
  195.6070  170.0060  145.6890 C   0  0  0  0  0  1  0  0  0  0  0  0
  196.8690  172.1170  146.1230 C   0  0  0  0  0  3  0  0  0  0  0  0
  195.7060  171.4890  145.6720 C   0  0  0  0  0  0  0  0  0  0  0  0
  196.9600  173.5110  146.1070 C   0  0  0  0  0  3  0  0  0  0  0  0
  188.0410  175.9540  146.0420 O   0  0  0  0  0  0  0  0  0  0  0  0
  187.2510  177.0880  145.7360 C   0  0  1  0  0  3  0  0  0  0  0  0
  186.6700  178.4970  143.8920 O   0  0  0  0  0  1  0  0  0  0  0  0
  187.7460  177.8700  144.5200 C   0  0  0  0  0  2  0  0  0  0  0  0
  185.7600  176.7720  145.6750 C   0  0  0  0  0  2  0  0  0  0  0  0
  184.9890  177.5410  146.7360 C   0  0  0  0  0  2  0  0  0  0  0  0
  184.0450  178.4490  146.1100 N   0  0  0  0  0  1  0  0  0  0  0  0
  189.1050  175.7600  141.7800 O   0  0  0  0  0  0  0  0  0  0  0  0
  187.8930  176.2430  141.2370 C   0  0  0  0  0  0  0  0  0  0  0  0
  187.9020  177.6260  141.1780 F   0  0  0  0  0  0  0  0  0  0  0  0
  187.6600  175.7250  139.9710 F   0  0  0  0  0  0  0  0  0  0  0  0
  186.8560  175.8540  142.0630 F   0  0  0  0  0  0  0  0  0  0  0  0
  1  4  1  0  0  0  0
  2 12  1  0  0  0  0
  3 33  1  0  0  0  0
  3  5  1  0  0  0  0
  4 14  1  0  0  0  0
  4  6  1  0  0  0  0
  5  1  1  0  0  0  0
  5  8  1  0  0  0  0
  6  2  1  0  0  0  0
  7 10  1  0  0  0  0
  7  3  1  0  0  0  0
  8 14  1  0  0  0  0
  9 18  1  0  0  0  0
 10 13  1  0  0  0  0
 11 16  1  0  0  0  0
 11 12  1  0  0  0  0
 13  9  1  0  0  0  0
 13  1  1  0  0  0  0
 14 17  1  0  0  0  0
 15 20  1  0  0  0  0
 15  6  1  0  0  0  0
 17 26  1  0  0  0  0
 17 16  1  0  0  0  0
 18 15  1  0  0  0  0
 19 25  1  0  0  0  0
 20 21  1  0  0  0  0
 20 19  2  0  0  0  0
 21 24  2  0  0  0  0
 24 22  1  0  0  0  0
 24 23  1  0  0  0  0
 25 23  2  0  0  0  0
 27 26  1  0  0  0  0
 28 29  1  0  0  0  0
 29 27  1  0  0  0  0
 30 27  1  0  0  0  0
 30 31  1  0  0  0  0
 32 31  1  0  0  0  0
 34 33  1  0  0  0  0
 34 37  1  0  0  0  0
 35 34  1  0  0  0  0
 36 34  1  0  0  0  0
M  END
>  <MODEL>
1

>  <REMARK>
 VINA RESULT:      -7.5      0.000      0.000
  Name = 
  8 active torsions:
  status: ('A' for Active; 'I' for Inactive)
    1  A    between atoms: O_1  and  C_4
    2  A    between atoms: O_1  and  C_27
    3  A    between atoms: C_2  and  O_22
    4  A    between atoms: C_4  and  C_12
    5  A    between atoms: C_4  and  C_37
    6  A    between atoms: C_6  and  O_22
    7  A    between atoms: C_8  and  C_12
    8  A    between atoms: N_23  and  C_30
                            x       y       z     vdW  Elec       q    Type
                         _______ _______ _______ _____ _____    ______ ____

>  <TORSDO>
F 8

$$$$
=
 OpenBabel11112417323D

 37 41  0  0  1  0  0  0  0  0999 V2000
  185.9350  177.2230  143.9420 C   0  0  1  0  0  3  0  0  0  0  0  0
  189.3260  176.0080  142.6490 C   0  0  0  0  0  2  0  0  0  0  0  0
  184.9220  178.1390  146.0920 C   0  0  2  0  0  3  0  0  0  0  0  0
  187.4220  177.1760  143.9620 C   0  0  2  0  0  3  0  0  0  0  0  0
  185.5950  176.9470  145.3900 C   0  0  2  0  0  3  0  0  0  0  0  0
  187.8580  176.4340  142.6790 C   0  0  1  0  0  3  0  0  0  0  0  0
  183.7510  178.6600  145.2470 C   0  0  0  0  0  2  0  0  0  0  0  0
  186.7550  176.5330  146.0780 O   0  0  0  0  0  0  0  0  0  0  0  0
  185.5680  178.5700  141.9970 C   0  0  0  0  0  2  0  0  0  0  0  0
  184.0360  178.6400  143.7410 C   0  0  0  0  0  2  0  0  0  0  0  0
  190.0470  177.9850  143.8910 O   0  0  0  0  0  0  0  0  0  0  0  0
  190.3070  177.1820  142.7680 C   0  0  0  0  0  2  0  0  0  0  0  0
  185.4660  178.5330  143.4570 N   0  0  1  0  0  0  0  0  0  0  0  0
  187.8030  176.4700  145.1920 N   0  0  2  0  0  0  0  0  0  0  0  0
  187.4940  177.1610  141.4480 N   0  0  0  0  0  0  0  0  0  0  0  0
  190.2130  177.1640  145.0130 C   0  0  0  0  0  2  0  0  0  0  0  0
  188.9360  177.1450  145.8610 C   0  0  2  0  0  3  0  0  0  0  0  0
  187.0200  178.5470  141.5220 C   0  0  0  0  0  2  0  0  0  0  0  0
  186.7690  177.0350  139.0820 C   0  0  0  0  0  3  0  0  0  0  0  0
  187.4220  176.4620  140.1870 C   0  0  0  0  0  0  0  0  0  0  0  0
  188.0110  175.1930  140.0390 C   0  0  0  0  0  3  0  0  0  0  0  0
  188.5720  173.1750  138.6790 C   0  0  0  0  0  1  0  0  0  0  0  0
  187.2910  175.0970  137.7300 C   0  0  0  0  0  3  0  0  0  0  0  0
  187.9450  174.5150  138.8190 C   0  0  0  0  0  0  0  0  0  0  0  0
  186.7040  176.3570  137.8620 C   0  0  0  0  0  3  0  0  0  0  0  0
  189.2350  176.4600  147.0600 O   0  0  0  0  0  0  0  0  0  0  0  0
  190.2000  175.4510  146.8250 C   0  0  1  0  0  3  0  0  0  0  0  0
  191.4850  176.6600  148.4420 O   0  0  0  0  0  1  0  0  0  0  0  0
  191.2980  175.3940  147.8860 C   0  0  0  0  0  2  0  0  0  0  0  0
  189.5760  174.0890  146.5410 C   0  0  0  0  0  2  0  0  0  0  0  0
  190.0900  173.5090  145.2330 C   0  0  0  0  0  2  0  0  0  0  0  0
  189.5620  172.1710  145.0360 N   0  0  0  0  0  1  0  0  0  0  0  0
  185.8530  179.1720  146.3200 O   0  0  0  0  0  0  0  0  0  0  0  0
  186.0400  179.3180  147.7130 C   0  0  0  0  0  0  0  0  0  0  0  0
  187.2120  178.6980  148.1150 F   0  0  0  0  0  0  0  0  0  0  0  0
  186.0690  180.6540  148.0860 F   0  0  0  0  0  0  0  0  0  0  0  0
  184.9860  178.7070  148.3640 F   0  0  0  0  0  0  0  0  0  0  0  0
  1  4  1  0  0  0  0
  1  5  1  0  0  0  0
  2  6  1  0  0  0  0
  2 12  1  0  0  0  0
  3 33  1  0  0  0  0
  4 14  1  0  0  0  0
  5  8  1  0  0  0  0
  5  3  1  0  0  0  0
  6  4  1  0  0  0  0
  7  3  1  0  0  0  0
  9 13  1  0  0  0  0
 10  7  1  0  0  0  0
 11 16  1  0  0  0  0
 12 11  1  0  0  0  0
 13 10  1  0  0  0  0
 13  1  1  0  0  0  0
 14 17  1  0  0  0  0
 14  8  1  0  0  0  0
 15 18  1  0  0  0  0
 15  6  1  0  0  0  0
 16 17  1  0  0  0  0
 17 26  1  0  0  0  0
 18  9  1  0  0  0  0
 19 20  1  0  0  0  0
 20 15  1  0  0  0  0
 21 20  2  0  0  0  0
 22 24  1  0  0  0  0
 23 25  1  0  0  0  0
 23 24  2  0  0  0  0
 24 21  1  0  0  0  0
 25 19  2  0  0  0  0
 27 26  1  0  0  0  0
 27 29  1  0  0  0  0
 29 28  1  0  0  0  0
 30 27  1  0  0  0  0
 31 30  1  0  0  0  0
 32 31  1  0  0  0  0
 33 34  1  0  0  0  0
 34 36  1  0  0  0  0
 34 35  1  0  0  0  0
 34 37  1  0  0  0  0
M  END
>  <MODEL>
2

>  <REMARK>
 VINA RESULT:      -7.4      3.988      7.477
  Name = 
  8 active torsions:
  status: ('A' for Active; 'I' for Inactive)
    1  A    between atoms: O_1  and  C_4
    2  A    between atoms: O_1  and  C_27
    3  A    between atoms: C_2  and  O_22
    4  A    between atoms: C_4  and  C_12
    5  A    between atoms: C_4  and  C_37
    6  A    between atoms: C_6  and  O_22
    7  A    between atoms: C_8  and  C_12
    8  A    between atoms: N_23  and  C_30
                            x       y       z     vdW  Elec       q    Type
                         _______ _______ _______ _____ _____    ______ ____

>  <TORSDO>
F 8

$$$$
=
 OpenBabel11112417323D

 37 41  0  0  1  0  0  0  0  0999 V2000
  189.3500  176.3560  144.9610 C   0  0  1  0  0  3  0  0  0  0  0  0
  190.8660  174.4080  142.0360 C   0  0  0  0  0  2  0  0  0  0  0  0
  187.3750  177.9000  145.4160 C   0  0  2  0  0  3  0  0  0  0  0  0
  189.2720  175.6670  143.6450 C   0  0  2  0  0  3  0  0  0  0  0  0
  188.6960  177.6860  144.6560 C   0  0  2  0  0  3  0  0  0  0  0  0
  190.6150  174.9300  143.4520 C   0  0  1  0  0  3  0  0  0  0  0  0
  187.5700  177.6090  146.9110 C   0  0  0  0  0  2  0  0  0  0  0  0
  188.5150  177.8160  143.2640 O   0  0  0  0  0  0  0  0  0  0  0  0
  189.5200  174.4730  146.4290 C   0  0  0  0  0  2  0  0  0  0  0  0
  188.4950  176.4170  147.1790 C   0  0  0  0  0  2  0  0  0  0  0  0
  188.4990  173.9190  141.6700 O   0  0  0  0  0  0  0  0  0  0  0  0
  189.8040  173.4110  141.5540 C   0  0  0  0  0  2  0  0  0  0  0  0
  188.6540  175.5720  145.9970 N   0  0  1  0  0  0  0  0  0  0  0  0
  189.0390  176.7100  142.6380 N   0  0  2  0  0  0  0  0  0  0  0  0
  190.8300  173.8650  144.4510 N   0  0  0  0  0  0  0  0  0  0  0  0
  188.4390  175.0500  140.8480 C   0  0  0  0  0  2  0  0  0  0  0  0
  188.0190  176.2830  141.6570 C   0  0  2  0  0  3  0  0  0  0  0  0
  189.7300  173.4390  145.3240 C   0  0  0  0  0  2  0  0  0  0  0  0
  192.4790  172.0170  144.4900 C   0  0  0  0  0  3  0  0  0  0  0  0
  192.1610  173.3690  144.7070 C   0  0  0  0  0  0  0  0  0  0  0  0
  193.1680  174.2320  145.1750 C   0  0  0  0  0  3  0  0  0  0  0  0
  195.5100  174.6810  145.9140 C   0  0  0  0  0  1  0  0  0  0  0  0
  194.7590  172.4090  145.2020 C   0  0  0  0  0  3  0  0  0  0  0  0
  194.4580  173.7550  145.4210 C   0  0  0  0  0  0  0  0  0  0  0  0
  193.7690  171.5400  144.7360 C   0  0  0  0  0  3  0  0  0  0  0  0
  187.7950  177.3340  140.7400 O   0  0  0  0  0  0  0  0  0  0  0  0
  186.5010  177.2300  140.1760 C   0  0  1  0  0  3  0  0  0  0  0  0
  184.2500  178.0420  140.1780 O   0  0  0  0  0  1  0  0  0  0  0  0
  185.4530  178.0880  140.8830 C   0  0  0  0  0  2  0  0  0  0  0  0
  186.4970  177.4120  138.6620 C   0  0  0  0  0  2  0  0  0  0  0  0
  186.6030  176.0760  137.9450 C   0  0  0  0  0  2  0  0  0  0  0  0
  186.7560  176.2840  136.5160 N   0  0  0  0  0  1  0  0  0  0  0  0
  186.3600  177.0760  144.8890 O   0  0  0  0  0  0  0  0  0  0  0  0
  185.1380  177.7830  144.9180 C   0  0  0  0  0  0  0  0  0  0  0  0
  184.4040  177.5350  143.7700 F   0  0  0  0  0  0  0  0  0  0  0  0
  184.3830  177.4510  146.0330 F   0  0  0  0  0  0  0  0  0  0  0  0
  185.4150  179.1360  144.9670 F   0  0  0  0  0  0  0  0  0  0  0  0
  1 13  1  0  0  0  0
  2  6  1  0  0  0  0
  3  7  1  0  0  0  0
  4  1  1  0  0  0  0
  5  1  1  0  0  0  0
  5  3  1  0  0  0  0
  6  4  1  0  0  0  0
  6 15  1  0  0  0  0
  7 10  1  0  0  0  0
  8  5  1  0  0  0  0
 12 11  1  0  0  0  0
 12  2  1  0  0  0  0
 13  9  1  0  0  0  0
 13 10  1  0  0  0  0
 14  8  1  0  0  0  0
 14  4  1  0  0  0  0
 15 20  1  0  0  0  0
 15 18  1  0  0  0  0
 16 17  1  0  0  0  0
 16 11  1  0  0  0  0
 17 14  1  0  0  0  0
 18  9  1  0  0  0  0
 19 20  2  0  0  0  0
 19 25  1  0  0  0  0
 20 21  1  0  0  0  0
 21 24  2  0  0  0  0
 23 24  1  0  0  0  0
 24 22  1  0  0  0  0
 25 23  2  0  0  0  0
 26 17  1  0  0  0  0
 27 26  1  0  0  0  0
 27 29  1  0  0  0  0
 28 29  1  0  0  0  0
 30 27  1  0  0  0  0
 31 30  1  0  0  0  0
 32 31  1  0  0  0  0
 33 34  1  0  0  0  0
 33  3  1  0  0  0  0
 34 37  1  0  0  0  0
 34 36  1  0  0  0  0
 35 34  1  0  0  0  0
M  END
>  <MODEL>
3

>  <REMARK>
 VINA RESULT:      -7.3      2.554      5.221
  Name = 
  8 active torsions:
  status: ('A' for Active; 'I' for Inactive)
    1  A    between atoms: O_1  and  C_4
    2  A    between atoms: O_1  and  C_27
    3  A    between atoms: C_2  and  O_22
    4  A    between atoms: C_4  and  C_12
    5  A    between atoms: C_4  and  C_37
    6  A    between atoms: C_6  and  O_22
    7  A    between atoms: C_8  and  C_12
    8  A    between atoms: N_23  and  C_30
                            x       y       z     vdW  Elec       q    Type
                         _______ _______ _______ _____ _____    ______ ____

>  <TORSDO>
F 8

$$$$
=
 OpenBabel11112417323D

 37 41  0  0  1  0  0  0  0  0999 V2000
  190.4250  175.2440  144.8890 C   0  0  1  0  0  3  0  0  0  0  0  0
  187.5070  175.0520  142.4200 C   0  0  0  0  0  2  0  0  0  0  0  0
  192.5790  173.9890  145.4090 C   0  0  2  0  0  3  0  0  0  0  0  0
  189.8080  174.8500  143.5940 C   0  0  2  0  0  3  0  0  0  0  0  0
  191.0430  173.9420  145.3500 C   0  0  2  0  0  3  0  0  0  0  0  0
  188.4360  175.5570  143.5250 C   0  0  1  0  0  3  0  0  0  0  0  0
  193.0420  175.2290  146.1870 C   0  0  0  0  0  2  0  0  0  0  0  0
  190.5920  172.8880  144.5290 O   0  0  0  0  0  0  0  0  0  0  0  0
  190.6830  177.6000  144.5500 C   0  0  0  0  0  2  0  0  0  0  0  0
  192.1870  176.4710  145.9110 C   0  0  0  0  0  2  0  0  0  0  0  0
  189.3640  174.6190  140.8920 O   0  0  0  0  0  0  0  0  0  0  0  0
  188.0920  175.2040  141.0100 C   0  0  0  0  0  2  0  0  0  0  0  0
  191.4000  176.3300  144.6870 N   0  0  1  0  0  0  0  0  0  0  0  0
  189.6990  173.3860  143.6100 N   0  0  2  0  0  0  0  0  0  0  0  0
  188.5540  177.0270  143.4830 N   0  0  0  0  0  0  0  0  0  0  0  0
  189.1990  173.2540  141.1500 C   0  0  0  0  0  2  0  0  0  0  0  0
  190.1000  172.8100  142.3080 C   0  0  2  0  0  3  0  0  0  0  0  0
  189.8600  177.6570  143.2630 C   0  0  0  0  0  2  0  0  0  0  0  0
  186.7110  178.5620  142.8630 C   0  0  0  0  0  3  0  0  0  0  0  0
  187.4280  177.8550  143.8440 C   0  0  0  0  0  0  0  0  0  0  0  0
  187.0240  177.9670  145.1860 C   0  0  0  0  0  3  0  0  0  0  0  0
  185.5190  178.8730  146.9610 C   0  0  0  0  0  1  0  0  0  0  0  0
  185.2300  179.4630  144.5520 C   0  0  0  0  0  3  0  0  0  0  0  0
  185.9330  178.7660  145.5380 C   0  0  0  0  0  0  0  0  0  0  0  0
  185.6190  179.3600  143.2140 C   0  0  0  0  0  3  0  0  0  0  0  0
  190.0250  171.4010  142.3860 O   0  0  0  0  0  0  0  0  0  0  0  0
  191.1920  170.8140  141.8400 C   0  0  1  0  0  3  0  0  0  0  0  0
  193.2130  169.6090  142.2690 O   0  0  0  0  0  1  0  0  0  0  0  0
  192.0390  170.0640  142.8670 C   0  0  0  0  0  2  0  0  0  0  0  0
  190.9110  169.9930  140.5860 C   0  0  0  0  0  2  0  0  0  0  0  0
  191.3050  170.7530  139.3290 C   0  0  0  0  0  2  0  0  0  0  0  0
  192.3440  171.7200  139.6340 N   0  0  0  0  0  1  0  0  0  0  0  0
  193.1270  173.9990  144.1110 O   0  0  0  0  0  0  0  0  0  0  0  0
  194.1620  173.0390  144.0450 C   0  0  0  0  0  0  0  0  0  0  0  0
  194.2680  172.5230  142.7640 F   0  0  0  0  0  0  0  0  0  0  0  0
  195.3810  173.5770  144.4320 F   0  0  0  0  0  0  0  0  0  0  0  0
  193.8520  172.0000  144.9030 F   0  0  0  0  0  0  0  0  0  0  0  0
  1  5  1  0  0  0  0
  2  6  1  0  0  0  0
  3  7  1  0  0  0  0
  4 14  1  0  0  0  0
  4  1  1  0  0  0  0
  5  3  1  0  0  0  0
  6  4  1  0  0  0  0
  8  5  1  0  0  0  0
  9 13  1  0  0  0  0
 10  7  1  0  0  0  0
 11 12  1  0  0  0  0
 11 16  1  0  0  0  0
 12  2  1  0  0  0  0
 13  1  1  0  0  0  0
 13 10  1  0  0  0  0
 14  8  1  0  0  0  0
 15  6  1  0  0  0  0
 15 20  1  0  0  0  0
 16 17  1  0  0  0  0
 17 26  1  0  0  0  0
 17 14  1  0  0  0  0
 18 15  1  0  0  0  0
 18  9  1  0  0  0  0
 19 25  2  0  0  0  0
 19 20  1  0  0  0  0
 20 21  2  0  0  0  0
 21 24  1  0  0  0  0
 23 24  2  0  0  0  0
 24 22  1  0  0  0  0
 25 23  1  0  0  0  0
 27 26  1  0  0  0  0
 27 29  1  0  0  0  0
 28 29  1  0  0  0  0
 30 27  1  0  0  0  0
 31 32  1  0  0  0  0
 31 30  1  0  0  0  0
 33  3  1  0  0  0  0
 34 33  1  0  0  0  0
 34 36  1  0  0  0  0
 34 37  1  0  0  0  0
 35 34  1  0  0  0  0
M  END
>  <MODEL>
4

>  <REMARK>
 VINA RESULT:      -7.1      3.451      8.072
  Name = 
  8 active torsions:
  status: ('A' for Active; 'I' for Inactive)
    1  A    between atoms: O_1  and  C_4
    2  A    between atoms: O_1  and  C_27
    3  A    between atoms: C_2  and  O_22
    4  A    between atoms: C_4  and  C_12
    5  A    between atoms: C_4  and  C_37
    6  A    between atoms: C_6  and  O_22
    7  A    between atoms: C_8  and  C_12
    8  A    between atoms: N_23  and  C_30
                            x       y       z     vdW  Elec       q    Type
                         _______ _______ _______ _____ _____    ______ ____

>  <TORSDO>
F 8

$$$$
=
 OpenBabel11112417323D

 37 41  0  0  1  0  0  0  0  0999 V2000
  191.0090  175.5010  142.3970 C   0  0  1  0  0  3  0  0  0  0  0  0
  190.4850  177.6950  145.4890 C   0  0  0  0  0  2  0  0  0  0  0  0
  192.7640  173.9200  141.4460 C   0  0  2  0  0  3  0  0  0  0  0  0
  191.2510  175.8680  143.8180 C   0  0  2  0  0  3  0  0  0  0  0  0
  192.4180  175.3580  141.8670 C   0  0  2  0  0  3  0  0  0  0  0  0
  190.2190  176.9600  144.1740 C   0  0  1  0  0  3  0  0  0  0  0  0
  191.6730  173.3610  140.5220 C   0  0  0  0  0  2  0  0  0  0  0  0
  193.3350  175.8490  142.8210 O   0  0  0  0  0  0  0  0  0  0  0  0
  188.8020  174.5870  142.5530 C   0  0  0  0  0  2  0  0  0  0  0  0
  190.2580  173.7860  140.9310 C   0  0  0  0  0  2  0  0  0  0  0  0
  191.3980  175.6940  146.5560 O   0  0  0  0  0  0  0  0  0  0  0  0
  190.5070  176.7690  146.7130 C   0  0  0  0  0  2  0  0  0  0  0  0
  190.2100  174.2660  142.3110 N   0  0  1  0  0  0  0  0  0  0  0  0
  192.6390  176.3410  143.8990 N   0  0  2  0  0  0  0  0  0  0  0  0
  188.8270  176.4720  144.1160 N   0  0  0  0  0  0  0  0  0  0  0  0
  192.6730  176.2540  146.4110 C   0  0  0  0  0  2  0  0  0  0  0  0
  193.3160  175.7980  145.0960 C   0  0  2  0  0  3  0  0  0  0  0  0
  188.5550  175.0350  143.9920 C   0  0  0  0  0  2  0  0  0  0  0  0
  187.4450  178.0140  142.7570 C   0  0  0  0  0  3  0  0  0  0  0  0
  187.7340  177.4060  143.9910 C   0  0  0  0  0  0  0  0  0  0  0  0
  186.9350  177.7240  145.1040 C   0  0  0  0  0  3  0  0  0  0  0  0
  185.0400  178.9500  146.1710 C   0  0  0  0  0  1  0  0  0  0  0  0
  185.5990  179.2230  143.7530 C   0  0  0  0  0  3  0  0  0  0  0  0
  185.8740  178.6260  144.9860 C   0  0  0  0  0  0  0  0  0  0  0  0
  186.3840  178.9160  142.6390 C   0  0  0  0  0  3  0  0  0  0  0  0
  194.6570  176.2390  145.1060 O   0  0  0  0  0  0  0  0  0  0  0  0
  195.5330  175.1660  144.8170 C   0  0  1  0  0  3  0  0  0  0  0  0
  196.5810  176.8920  143.5330 O   0  0  0  0  0  1  0  0  0  0  0  0
  196.6970  175.5530  143.9060 C   0  0  0  0  0  2  0  0  0  0  0  0
  195.9790  174.4120  146.0650 C   0  0  0  0  0  2  0  0  0  0  0  0
  197.2180  173.5750  145.7900 C   0  0  0  0  0  2  0  0  0  0  0  0
  196.9380  172.1710  146.0290 N   0  0  0  0  0  1  0  0  0  0  0  0
  192.9130  173.0920  142.5770 O   0  0  0  0  0  0  0  0  0  0  0  0
  194.1790  172.4690  142.5230 C   0  0  0  0  0  0  0  0  0  0  0  0
  195.1090  173.3030  141.9250 F   0  0  0  0  0  0  0  0  0  0  0  0
  194.6240  172.1090  143.7870 F   0  0  0  0  0  0  0  0  0  0  0  0
  194.0730  171.3240  141.7570 F   0  0  0  0  0  0  0  0  0  0  0  0
  1  4  1  0  0  0  0
  2 12  1  0  0  0  0
  3  5  1  0  0  0  0
  3 33  1  0  0  0  0
  4 14  1  0  0  0  0
  4  6  1  0  0  0  0
  5  1  1  0  0  0  0
  5  8  1  0  0  0  0
  6  2  1  0  0  0  0
  7 10  1  0  0  0  0
  7  3  1  0  0  0  0
  8 14  1  0  0  0  0
  9 18  1  0  0  0  0
 10 13  1  0  0  0  0
 11 12  1  0  0  0  0
 13  1  1  0  0  0  0
 13  9  1  0  0  0  0
 14 17  1  0  0  0  0
 15  6  1  0  0  0  0
 16 11  1  0  0  0  0
 17 26  1  0  0  0  0
 17 16  1  0  0  0  0
 18 15  1  0  0  0  0
 19 20  1  0  0  0  0
 20 15  1  0  0  0  0
 20 21  2  0  0  0  0
 23 24  2  0  0  0  0
 24 21  1  0  0  0  0
 24 22  1  0  0  0  0
 25 19  2  0  0  0  0
 25 23  1  0  0  0  0
 27 26  1  0  0  0  0
 27 30  1  0  0  0  0
 28 29  1  0  0  0  0
 29 27  1  0  0  0  0
 31 32  1  0  0  0  0
 31 30  1  0  0  0  0
 34 33  1  0  0  0  0
 34 36  1  0  0  0  0
 35 34  1  0  0  0  0
 37 34  1  0  0  0  0
M  END
>  <MODEL>
5

>  <REMARK>
 VINA RESULT:      -6.9      3.299      7.726
  Name = 
  8 active torsions:
  status: ('A' for Active; 'I' for Inactive)
    1  A    between atoms: O_1  and  C_4
    2  A    between atoms: O_1  and  C_27
    3  A    between atoms: C_2  and  O_22
    4  A    between atoms: C_4  and  C_12
    5  A    between atoms: C_4  and  C_37
    6  A    between atoms: C_6  and  O_22
    7  A    between atoms: C_8  and  C_12
    8  A    between atoms: N_23  and  C_30
                            x       y       z     vdW  Elec       q    Type
                         _______ _______ _______ _____ _____    ______ ____

>  <TORSDO>
F 8

$$$$
=
 OpenBabel11112417323D

 37 41  0  0  1  0  0  0  0  0999 V2000
  191.1810  175.4280  142.9680 C   0  0  1  0  0  3  0  0  0  0  0  0
  191.2150  176.9030  146.4990 C   0  0  0  0  0  2  0  0  0  0  0  0
  192.8070  174.3680  141.3190 C   0  0  2  0  0  3  0  0  0  0  0  0
  191.7360  175.5680  144.3410 C   0  0  2  0  0  3  0  0  0  0  0  0
  192.4110  175.6260  142.1110 C   0  0  2  0  0  3  0  0  0  0  0  0
  190.7080  176.3850  145.1530 C   0  0  1  0  0  3  0  0  0  0  0  0
  191.5890  173.8080  140.5710 C   0  0  0  0  0  2  0  0  0  0  0  0
  193.4770  176.0850  142.9130 O   0  0  0  0  0  0  0  0  0  0  0  0
  189.2160  174.1370  143.4220 C   0  0  0  0  0  2  0  0  0  0  0  0
  190.2880  173.9040  141.3760 C   0  0  0  0  0  2  0  0  0  0  0  0
  192.6070  174.9290  146.8670 O   0  0  0  0  0  0  0  0  0  0  0  0
  191.6650  175.7890  147.4540 C   0  0  0  0  0  2  0  0  0  0  0  0
  190.5420  174.1100  142.8010 N   0  0  1  0  0  0  0  0  0  0  0  0
  193.0300  176.2480  144.2020 N   0  0  2  0  0  0  0  0  0  0  0  0
  189.4180  175.6840  145.3100 N   0  0  0  0  0  0  0  0  0  0  0  0
  193.7240  175.7150  146.5590 C   0  0  0  0  0  2  0  0  0  0  0  0
  194.0540  175.6210  145.0650 C   0  0  2  0  0  3  0  0  0  0  0  0
  189.2980  174.2690  144.9420 C   0  0  0  0  0  2  0  0  0  0  0  0
  187.5870  176.2390  146.8830 C   0  0  0  0  0  3  0  0  0  0  0  0
  188.2260  176.4250  145.6450 C   0  0  0  0  0  0  0  0  0  0  0  0
  187.6830  177.3540  144.7390 C   0  0  0  0  0  3  0  0  0  0  0  0
  185.9700  179.0520  144.0920 C   0  0  0  0  0  1  0  0  0  0  0  0
  185.9050  177.8780  146.2950 C   0  0  0  0  0  3  0  0  0  0  0  0
  186.5300  178.0750  145.0620 C   0  0  0  0  0  0  0  0  0  0  0  0
  186.4340  176.9600  147.2060 C   0  0  0  0  0  3  0  0  0  0  0  0
  195.2890  176.2760  144.8630 O   0  0  0  0  0  0  0  0  0  0  0  0
  196.3330  175.3310  144.7230 C   0  0  1  0  0  3  0  0  0  0  0  0
  196.8550  173.4650  146.1270 O   0  0  0  0  0  1  0  0  0  0  0  0
  195.9480  173.9210  145.1700 C   0  0  0  0  0  2  0  0  0  0  0  0
  196.9800  175.3610  143.3420 C   0  0  0  0  0  2  0  0  0  0  0  0
  196.9930  176.7700  142.7700 C   0  0  0  0  0  2  0  0  0  0  0  0
  196.4040  176.7770  141.4430 N   0  0  0  0  0  1  0  0  0  0  0  0
  193.3420  173.3880  142.1780 O   0  0  0  0  0  0  0  0  0  0  0  0
  194.4960  172.8360  141.5780 C   0  0  0  0  0  0  0  0  0  0  0  0
  195.3360  172.2990  142.5390 F   0  0  0  0  0  0  0  0  0  0  0  0
  194.1690  171.8590  140.6490 F   0  0  0  0  0  0  0  0  0  0  0  0
  195.1780  173.8460  140.9270 F   0  0  0  0  0  0  0  0  0  0  0  0
  1  4  1  0  0  0  0
  2 12  1  0  0  0  0
  3  5  1  0  0  0  0
  3 33  1  0  0  0  0
  4  6  1  0  0  0  0
  5  8  1  0  0  0  0
  5  1  1  0  0  0  0
  6 15  1  0  0  0  0
  6  2  1  0  0  0  0
  7  3  1  0  0  0  0
  7 10  1  0  0  0  0
  8 14  1  0  0  0  0
  9 18  1  0  0  0  0
 10 13  1  0  0  0  0
 11 12  1  0  0  0  0
 13  1  1  0  0  0  0
 13  9  1  0  0  0  0
 14  4  1  0  0  0  0
 14 17  1  0  0  0  0
 15 20  1  0  0  0  0
 16 11  1  0  0  0  0
 17 16  1  0  0  0  0
 18 15  1  0  0  0  0
 19 25  1  0  0  0  0
 20 19  2  0  0  0  0
 21 24  2  0  0  0  0
 21 20  1  0  0  0  0
 22 24  1  0  0  0  0
 23 25  2  0  0  0  0
 24 23  1  0  0  0  0
 26 17  1  0  0  0  0
 27 26  1  0  0  0  0
 27 29  1  0  0  0  0
 29 28  1  0  0  0  0
 30 27  1  0  0  0  0
 31 30  1  0  0  0  0
 32 31  1  0  0  0  0
 34 33  1  0  0  0  0
 34 35  1  0  0  0  0
 36 34  1  0  0  0  0
 37 34  1  0  0  0  0
M  END
>  <MODEL>
6

>  <REMARK>
 VINA RESULT:      -6.8      3.427      7.531
  Name = 
  8 active torsions:
  status: ('A' for Active; 'I' for Inactive)
    1  A    between atoms: O_1  and  C_4
    2  A    between atoms: O_1  and  C_27
    3  A    between atoms: C_2  and  O_22
    4  A    between atoms: C_4  and  C_12
    5  A    between atoms: C_4  and  C_37
    6  A    between atoms: C_6  and  O_22
    7  A    between atoms: C_8  and  C_12
    8  A    between atoms: N_23  and  C_30
                            x       y       z     vdW  Elec       q    Type
                         _______ _______ _______ _____ _____    ______ ____

>  <TORSDO>
F 8

$$$$
=
 OpenBabel11112417323D

 37 41  0  0  1  0  0  0  0  0999 V2000
  191.5400  176.3610  144.9650 C   0  0  1  0  0  3  0  0  0  0  0  0
  192.1090  174.6760  141.5770 C   0  0  0  0  0  2  0  0  0  0  0  0
  189.6820  177.5810  146.2100 C   0  0  2  0  0  3  0  0  0  0  0  0
  191.0730  175.6700  143.7330 C   0  0  2  0  0  3  0  0  0  0  0  0
  190.6380  177.5750  145.0040 C   0  0  2  0  0  3  0  0  0  0  0  0
  192.3360  175.1490  143.0130 C   0  0  1  0  0  3  0  0  0  0  0  0
  190.4630  177.3210  147.5060 C   0  0  0  0  0  2  0  0  0  0  0  0
  189.9310  177.6780  143.7870 O   0  0  0  0  0  0  0  0  0  0  0  0
  192.5150  174.5240  146.1510 C   0  0  0  0  0  2  0  0  0  0  0  0
  191.5810  176.2850  147.3410 C   0  0  0  0  0  2  0  0  0  0  0  0
  189.8740  173.8280  142.0850 O   0  0  0  0  0  0  0  0  0  0  0  0
  191.0970  173.5270  141.4630 C   0  0  0  0  0  2  0  0  0  0  0  0
  191.4030  175.4770  146.1360 N   0  0  1  0  0  0  0  0  0  0  0  0
  190.3340  176.6670  142.9480 N   0  0  2  0  0  0  0  0  0  0  0  0
  193.0590  174.1290  143.7960 N   0  0  0  0  0  0  0  0  0  0  0  0
  189.3490  174.9380  141.4120 C   0  0  0  0  0  2  0  0  0  0  0  0
  189.0920  176.0900  142.3910 C   0  0  2  0  0  3  0  0  0  0  0  0
  192.4400  173.5370  144.9870 C   0  0  0  0  0  2  0  0  0  0  0  0
  194.9030  172.5180  143.4210 C   0  0  0  0  0  3  0  0  0  0  0  0
  194.4450  173.8430  143.5110 C   0  0  0  0  0  0  0  0  0  0  0  0
  195.3640  174.8900  143.3130 C   0  0  0  0  0  3  0  0  0  0  0  0
  197.6640  175.7330  142.8270 C   0  0  0  0  0  1  0  0  0  0  0  0
  197.1470  173.2940  142.9490 C   0  0  0  0  0  3  0  0  0  0  0  0
  196.7060  174.6160  143.0330 C   0  0  0  0  0  0  0  0  0  0  0  0
  196.2450  172.2440  143.1420 C   0  0  0  0  0  3  0  0  0  0  0  0
  188.3930  177.0940  141.6860 O   0  0  0  0  0  0  0  0  0  0  0  0
  186.9960  176.9140  141.8230 C   0  0  1  0  0  3  0  0  0  0  0  0
  185.3920  176.4990  143.5500 O   0  0  0  0  0  1  0  0  0  0  0  0
  186.6040  176.0520  143.0230 C   0  0  0  0  0  2  0  0  0  0  0  0
  186.2180  178.2240  141.7510 C   0  0  0  0  0  2  0  0  0  0  0  0
  185.3750  178.2960  140.4890 C   0  0  0  0  0  2  0  0  0  0  0  0
  183.9710  178.1250  140.8130 N   0  0  0  0  0  1  0  0  0  0  0  0
  188.6720  176.6120  146.0480 O   0  0  0  0  0  0  0  0  0  0  0  0
  187.4250  177.1940  146.3670 C   0  0  0  0  0  0  0  0  0  0  0  0
  187.4550  177.7480  147.6360 F   0  0  0  0  0  0  0  0  0  0  0  0
  187.0670  178.1660  145.4440 F   0  0  0  0  0  0  0  0  0  0  0  0
  186.4620  176.2040  146.3530 F   0  0  0  0  0  0  0  0  0  0  0  0
  1  5  1  0  0  0  0
  1 13  1  0  0  0  0
  2  6  1  0  0  0  0
  3  7  1  0  0  0  0
  4  1  1  0  0  0  0
  5  3  1  0  0  0  0
  6  4  1  0  0  0  0
  6 15  1  0  0  0  0
  8  5  1  0  0  0  0
 10  7  1  0  0  0  0
 12  2  1  0  0  0  0
 12 11  1  0  0  0  0
 13  9  1  0  0  0  0
 13 10  1  0  0  0  0
 14  4  1  0  0  0  0
 14  8  1  0  0  0  0
 15 18  1  0  0  0  0
 16 11  1  0  0  0  0
 16 17  1  0  0  0  0
 17 14  1  0  0  0  0
 18  9  1  0  0  0  0
 19 20  1  0  0  0  0
 20 15  1  0  0  0  0
 21 20  2  0  0  0  0
 22 24  1  0  0  0  0
 23 24  2  0  0  0  0
 23 25  1  0  0  0  0
 24 21  1  0  0  0  0
 25 19  2  0  0  0  0
 26 27  1  0  0  0  0
 26 17  1  0  0  0  0
 27 29  1  0  0  0  0
 29 28  1  0  0  0  0
 30 27  1  0  0  0  0
 31 32  1  0  0  0  0
 31 30  1  0  0  0  0
 33  3  1  0  0  0  0
 33 34  1  0  0  0  0
 34 35  1  0  0  0  0
 36 34  1  0  0  0  0
 37 34  1  0  0  0  0
M  END
>  <MODEL>
7

>  <REMARK>
 VINA RESULT:      -6.7      2.451      4.520
  Name = 
  8 active torsions:
  status: ('A' for Active; 'I' for Inactive)
    1  A    between atoms: O_1  and  C_4
    2  A    between atoms: O_1  and  C_27
    3  A    between atoms: C_2  and  O_22
    4  A    between atoms: C_4  and  C_12
    5  A    between atoms: C_4  and  C_37
    6  A    between atoms: C_6  and  O_22
    7  A    between atoms: C_8  and  C_12
    8  A    between atoms: N_23  and  C_30
                            x       y       z     vdW  Elec       q    Type
                         _______ _______ _______ _____ _____    ______ ____

>  <TORSDO>
F 8

$$$$
=
 OpenBabel11112417323D

 37 41  0  0  1  0  0  0  0  0999 V2000
  191.6460  174.2320  143.3020 C   0  0  1  0  0  3  0  0  0  0  0  0
  189.0730  174.1710  140.4690 C   0  0  0  0  0  2  0  0  0  0  0  0
  191.8750  175.1630  145.6610 C   0  0  2  0  0  3  0  0  0  0  0  0
  190.2590  174.3030  142.7690 C   0  0  2  0  0  3  0  0  0  0  0  0
  191.7140  175.4730  144.1630 C   0  0  2  0  0  3  0  0  0  0  0  0
  190.3320  173.8780  141.2860 C   0  0  1  0  0  3  0  0  0  0  0  0
  193.0260  174.1700  145.8770 C   0  0  0  0  0  2  0  0  0  0  0  0
  190.5810  176.2780  143.9240 O   0  0  0  0  0  0  0  0  0  0  0  0
  192.0710  171.8850  143.0950 C   0  0  0  0  0  2  0  0  0  0  0  0
  193.1000  173.0860  144.7940 C   0  0  0  0  0  2  0  0  0  0  0  0
  187.5980  173.7440  142.3700 O   0  0  0  0  0  0  0  0  0  0  0  0
  187.8170  173.4740  141.0090 C   0  0  0  0  0  2  0  0  0  0  0  0
  191.8490  172.9760  144.0460 N   0  0  1  0  0  0  0  0  0  0  0  0
  189.8120  175.6900  142.9480 N   0  0  2  0  0  0  0  0  0  0  0  0
  190.7570  172.4760  141.1150 N   0  0  0  0  0  0  0  0  0  0  0  0
  187.4080  175.1270  142.4750 C   0  0  0  0  0  2  0  0  0  0  0  0
  188.4210  175.7390  143.4490 C   0  0  2  0  0  3  0  0  0  0  0  0
  190.8210  171.5770  142.2730 C   0  0  0  0  0  2  0  0  0  0  0  0
  192.4500  172.6120  139.3120 C   0  0  0  0  0  3  0  0  0  0  0  0
  191.2910  172.0280  139.8500 C   0  0  0  0  0  0  0  0  0  0  0  0
  190.6600  170.9950  139.1340 C   0  0  0  0  0  3  0  0  0  0  0  0
  190.4970  169.4650  137.1670 C   0  0  0  0  0  1  0  0  0  0  0  0
  192.3280  171.1480  137.3880 C   0  0  0  0  0  3  0  0  0  0  0  0
  191.1760  170.5580  137.9110 C   0  0  0  0  0  0  0  0  0  0  0  0
  192.9660  172.1750  138.0890 C   0  0  0  0  0  3  0  0  0  0  0  0
  188.0520  177.0880  143.6500 O   0  0  0  0  0  0  0  0  0  0  0  0
  186.9470  177.1720  144.5300 C   0  0  1  0  0  3  0  0  0  0  0  0
  187.2900  177.6330  146.8520 O   0  0  0  0  0  1  0  0  0  0  0  0
  187.2230  176.5980  145.9190 C   0  0  0  0  0  2  0  0  0  0  0  0
  186.3270  178.5640  144.5730 C   0  0  0  0  0  2  0  0  0  0  0  0
  184.8200  178.5040  144.3870 C   0  0  0  0  0  2  0  0  0  0  0  0
  184.1510  178.6540  145.6670 N   0  0  0  0  0  1  0  0  0  0  0  0
  190.6780  174.6410  146.1920 O   0  0  0  0  0  0  0  0  0  0  0  0
  190.4010  175.2900  147.4160 C   0  0  0  0  0  0  0  0  0  0  0  0
  189.1690  174.8950  147.9100 F   0  0  0  0  0  0  0  0  0  0  0  0
  191.3840  175.0360  148.3610 F   0  0  0  0  0  0  0  0  0  0  0  0
  190.3560  176.6530  147.1900 F   0  0  0  0  0  0  0  0  0  0  0  0
  1 13  1  0  0  0  0
  1  5  1  0  0  0  0
  2 12  1  0  0  0  0
  2  6  1  0  0  0  0
  3  7  1  0  0  0  0
  3 33  1  0  0  0  0
  4 14  1  0  0  0  0
  4  1  1  0  0  0  0
  5  3  1  0  0  0  0
  6  4  1  0  0  0  0
  8  5  1  0  0  0  0
  9 13  1  0  0  0  0
 10  7  1  0  0  0  0
 11 16  1  0  0  0  0
 12 11  1  0  0  0  0
 13 10  1  0  0  0  0
 14 17  1  0  0  0  0
 14  8  1  0  0  0  0
 15  6  1  0  0  0  0
 15 18  1  0  0  0  0
 16 17  1  0  0  0  0
 17 26  1  0  0  0  0
 18  9  1  0  0  0  0
 19 20  1  0  0  0  0
 20 15  1  0  0  0  0
 21 20  2  0  0  0  0
 22 24  1  0  0  0  0
 23 24  2  0  0  0  0
 23 25  1  0  0  0  0
 24 21  1  0  0  0  0
 25 19  2  0  0  0  0
 26 27  1  0  0  0  0
 27 30  1  0  0  0  0
 27 29  1  0  0  0  0
 29 28  1  0  0  0  0
 31 30  1  0  0  0  0
 31 32  1  0  0  0  0
 33 34  1  0  0  0  0
 34 35  1  0  0  0  0
 34 36  1  0  0  0  0
 37 34  1  0  0  0  0
M  END
>  <MODEL>
8

>  <REMARK>
 VINA RESULT:      -6.6      2.986      5.613
  Name = 
  8 active torsions:
  status: ('A' for Active; 'I' for Inactive)
    1  A    between atoms: O_1  and  C_4
    2  A    between atoms: O_1  and  C_27
    3  A    between atoms: C_2  and  O_22
    4  A    between atoms: C_4  and  C_12
    5  A    between atoms: C_4  and  C_37
    6  A    between atoms: C_6  and  O_22
    7  A    between atoms: C_8  and  C_12
    8  A    between atoms: N_23  and  C_30
                            x       y       z     vdW  Elec       q    Type
                         _______ _______ _______ _____ _____    ______ ____

>  <TORSDO>
F 8

$$$$
=
 OpenBabel11112417323D

 37 41  0  0  1  0  0  0  0  0999 V2000
  190.9580  174.9020  144.9830 C   0  0  1  0  0  3  0  0  0  0  0  0
  187.8370  174.8490  142.7690 C   0  0  0  0  0  2  0  0  0  0  0  0
  193.3050  173.9130  145.0100 C   0  0  2  0  0  3  0  0  0  0  0  0
  190.2600  174.7360  143.6800 C   0  0  2  0  0  3  0  0  0  0  0  0
  191.7910  173.6420  145.0550 C   0  0  2  0  0  3  0  0  0  0  0  0
  188.8070  175.2160  143.8920 C   0  0  1  0  0  3  0  0  0  0  0  0
  193.6810  174.9890  146.0390 C   0  0  0  0  0  2  0  0  0  0  0  0
  191.3970  172.7560  144.0300 O   0  0  0  0  0  0  0  0  0  0  0  0
  190.8610  177.2820  145.2290 C   0  0  0  0  0  2  0  0  0  0  0  0
  192.6420  176.1110  146.1480 C   0  0  0  0  0  2  0  0  0  0  0  0
  189.5560  175.0890  141.0480 O   0  0  0  0  0  0  0  0  0  0  0  0
  188.2380  175.4220  141.4020 C   0  0  0  0  0  2  0  0  0  0  0  0
  191.7510  176.1440  144.9900 N   0  0  1  0  0  0  0  0  0  0  0  0
  190.3500  173.3120  143.3350 N   0  0  2  0  0  0  0  0  0  0  0  0
  188.7220  176.6540  144.2140 N   0  0  0  0  0  0  0  0  0  0  0  0
  189.6030  173.6920  140.9650 C   0  0  0  0  0  2  0  0  0  0  0  0
  190.6780  173.1320  141.9050 C   0  0  2  0  0  3  0  0  0  0  0  0
  189.9010  177.5140  144.0630 C   0  0  0  0  0  2  0  0  0  0  0  0
  187.0720  176.6430  146.0610 C   0  0  0  0  0  3  0  0  0  0  0  0
  187.5430  177.1860  144.8530 C   0  0  0  0  0  0  0  0  0  0  0  0
  186.8430  178.2630  144.2790 C   0  0  0  0  0  3  0  0  0  0  0  0
  184.9760  179.9200  144.2780 C   0  0  0  0  0  1  0  0  0  0  0  0
  185.2460  178.2320  146.0970 C   0  0  0  0  0  3  0  0  0  0  0  0
  185.7030  178.7820  144.8970 C   0  0  0  0  0  0  0  0  0  0  0  0
  185.9310  177.1630  146.6790 C   0  0  0  0  0  3  0  0  0  0  0  0
  190.8010  171.7520  141.6310 O   0  0  0  0  0  0  0  0  0  0  0  0
  191.4690  171.5500  140.4000 C   0  0  1  0  0  3  0  0  0  0  0  0
  193.5100  172.0860  139.2710 O   0  0  0  0  0  1  0  0  0  0  0  0
  192.9890  171.6790  140.4990 C   0  0  0  0  0  2  0  0  0  0  0  0
  191.0250  170.2780  139.6850 C   0  0  0  0  0  2  0  0  0  0  0  0
  190.0110  170.5840  138.5940 C   0  0  0  0  0  2  0  0  0  0  0  0
  190.3040  171.8680  137.9830 N   0  0  0  0  0  1  0  0  0  0  0  0
  193.7000  174.3160  143.7190 O   0  0  0  0  0  0  0  0  0  0  0  0
  194.7700  173.4990  143.2930 C   0  0  0  0  0  0  0  0  0  0  0  0
  194.4840  172.1630  143.5180 F   0  0  0  0  0  0  0  0  0  0  0  0
  195.0550  173.6930  141.9490 F   0  0  0  0  0  0  0  0  0  0  0  0
  195.8930  173.8280  144.0280 F   0  0  0  0  0  0  0  0  0  0  0  0
  1 13  1  0  0  0  0
  1  5  1  0  0  0  0
  2  6  1  0  0  0  0
  3  5  1  0  0  0  0
  3  7  1  0  0  0  0
  4  6  1  0  0  0  0
  4  1  1  0  0  0  0
  6 15  1  0  0  0  0
  7 10  1  0  0  0  0
  8  5  1  0  0  0  0
 11 12  1  0  0  0  0
 12  2  1  0  0  0  0
 13  9  1  0  0  0  0
 13 10  1  0  0  0  0
 14  4  1  0  0  0  0
 14  8  1  0  0  0  0
 15 20  1  0  0  0  0
 16 11  1  0  0  0  0
 16 17  1  0  0  0  0
 17 14  1  0  0  0  0
 18 15  1  0  0  0  0
 18  9  1  0  0  0  0
 19 25  1  0  0  0  0
 20 19  2  0  0  0  0
 21 20  1  0  0  0  0
 21 24  2  0  0  0  0
 22 24  1  0  0  0  0
 23 25  2  0  0  0  0
 24 23  1  0  0  0  0
 26 17  1  0  0  0  0
 27 29  1  0  0  0  0
 27 26  1  0  0  0  0
 28 29  1  0  0  0  0
 30 27  1  0  0  0  0
 31 30  1  0  0  0  0
 32 31  1  0  0  0  0
 33  3  1  0  0  0  0
 34 35  1  0  0  0  0
 34 33  1  0  0  0  0
 34 37  1  0  0  0  0
 36 34  1  0  0  0  0
M  END
>  <MODEL>
9

>  <REMARK>
 VINA RESULT:      -6.5      3.427      7.982
  Name = 
  8 active torsions:
  status: ('A' for Active; 'I' for Inactive)
    1  A    between atoms: O_1  and  C_4
    2  A    between atoms: O_1  and  C_27
    3  A    between atoms: C_2  and  O_22
    4  A    between atoms: C_4  and  C_12
    5  A    between atoms: C_4  and  C_37
    6  A    between atoms: C_6  and  O_22
    7  A    between atoms: C_8  and  C_12
    8  A    between atoms: N_23  and  C_30
                            x       y       z     vdW  Elec       q    Type
                         _______ _______ _______ _____ _____    ______ ____

>  <TORSDO>
F 8

$$$$
