=
 OpenBabel11112417443D

 34 40  0  0  1  0  0  0  0  0999 V2000
  189.8450  174.7800  143.2440 C   0  0  0  0  0  0  0  0  0  0  0  0
  192.1280  173.7330  143.6760 C   0  0  0  0  0  2  0  0  0  0  0  0
  185.5150  179.5370  144.1460 C   0  0  0  0  0  0  0  0  0  0  0  0
  187.8630  176.1290  142.8450 C   0  0  0  0  0  0  0  0  0  0  0  0
  186.8230  177.4070  144.7970 C   0  0  2  0  0  3  0  0  0  0  0  0
  184.9470  178.2730  146.2040 C   0  0  0  0  0  1  0  0  0  0  0  0
  185.8020  180.7620  144.1590 O   0  0  0  0  0  0  0  0  0  0  0  0
  184.4800  177.6790  142.7340 C   0  0  0  0  0  3  0  0  0  0  0  0
  190.8900  174.6420  145.5400 C   0  0  2  0  0  3  0  0  0  0  0  0
  192.7570  176.5470  147.3780 C   0  0  0  0  0  3  0  0  0  0  0  0
  188.2320  177.4460  145.3670 C   0  0  0  0  0  2  0  0  0  0  0  0
  185.4790  176.7990  142.7990 C   0  0  0  0  0  3  0  0  0  0  0  0
  190.2780  176.0270  145.7940 C   0  0  1  0  0  3  0  0  0  0  0  0
  192.9710  173.5690  144.9290 C   0  0  0  0  0  2  0  0  0  0  0  0
  186.8490  177.1660  143.2770 C   0  0  2  0  0  3  0  0  0  0  0  0
  184.6040  179.0450  143.1530 N   0  0  0  0  0  2  0  0  0  0  0  0
  193.0910  175.8050  146.1090 C   0  0  2  0  0  3  0  0  0  0  0  0
  188.8690  175.6720  143.7260 C   0  0  0  0  0  0  0  0  0  0  0  0
  186.0530  178.6570  145.2410 C   0  0  2  0  0  3  0  0  0  0  0  0
  188.8680  176.0720  145.1890 C   0  0  2  0  0  3  0  0  0  0  0  0
  188.8210  174.8710  141.0630 C   0  0  0  0  0  3  0  0  0  0  0  0
  191.5250  176.7760  147.8640 C   0  0  0  0  0  3  0  0  0  0  0  0
  187.8830  175.7290  141.5430 N   0  0  0  0  0  0  0  0  0  0  0  0
  190.2270  176.2620  147.2980 C   0  0  0  0  0  2  0  0  0  0  0  0
  192.3430  174.4620  146.0030 C   0  0  1  0  0  3  0  0  0  0  0  0
  189.8200  174.3840  141.9030 C   0  0  0  0  0  3  0  0  0  0  0  0
  190.8870  174.3320  144.1230 N   0  0  0  0  0  0  0  0  0  0  0  0
  194.4760  175.6130  146.0540 O   0  0  0  0  0  0  0  0  0  0  0  0
  194.9200  176.5030  145.0710 C   0  0  0  0  0  2  0  0  0  0  0  0
  197.5830  176.4680  143.1900 O   0  0  0  0  0  0  0  0  0  0  0  0
  196.4550  174.7220  144.3070 C   0  0  0  0  0  2  0  0  0  0  0  0
  195.4350  175.7310  143.8680 C   0  0  2  0  0  3  0  0  0  0  0  0
  197.7050  175.1220  143.5610 C   0  0  0  0  0  2  0  0  0  0  0  0
  196.2120  176.6640  142.9670 C   0  0  0  0  0  2  0  0  0  0  0  0
  1 18  1  0  0  0  0
  1 27  1  0  0  0  0
  2 27  1  0  0  0  0
  2 14  1  0  0  0  0
  3  7  2  0  0  0  0
  3 19  1  0  0  0  0
  4 15  1  0  0  0  0
  4 18  2  0  0  0  0
  5 19  1  0  0  0  0
  5 11  1  6  0  0  0
  8 12  2  0  0  0  0
  8 16  1  0  0  0  0
  9 27  1  6  0  0  0
  9 13  1  0  0  0  0
  9 25  1  0  0  0  0
 10 22  2  0  0  0  0
 13 24  1  1  0  0  0
 15 12  1  1  0  0  0
 15  5  1  0  0  0  0
 16  3  1  0  0  0  0
 17 28  1  1  0  0  0
 17 10  1  0  0  0  0
 18 20  1  0  0  0  0
 19  6  1  6  0  0  0
 20 11  1  6  0  0  0
 20 13  1  0  0  0  0
 21 23  2  0  0  0  0
 21 26  1  0  0  0  0
 23  4  1  0  0  0  0
 24 22  1  0  0  0  0
 25 14  1  6  0  0  0
 25 17  1  0  0  0  0
 26  1  2  0  0  0  0
 29 28  1  0  0  0  0
 30 33  1  0  0  0  0
 32 31  1  0  0  0  0
 32 29  1  1  0  0  0
 33 31  1  0  0  0  0
 34 30  1  0  0  0  0
 34 32  1  0  0  0  0
M  END
>  <MODEL>
1

>  <REMARK>
 VINA RESULT:      -9.1      0.000      0.000
  Name = 
  3 active torsions:
  status: ('A' for Active; 'I' for Inactive)
    1  A    between atoms: C_17  and  O_28
    2  A    between atoms: O_28  and  C_29
    3  A    between atoms: C_29  and  C_32
                            x       y       z     vdW  Elec       q    Type
                         _______ _______ _______ _____ _____    ______ ____

>  <TORSDO>
F 3

$$$$
=
 OpenBabel11112417443D

 34 40  0  0  1  0  0  0  0  0999 V2000
  191.2980  174.7260  142.7340 C   0  0  0  0  0  0  0  0  0  0  0  0
  189.5600  176.5820  142.9000 C   0  0  0  0  0  2  0  0  0  0  0  0
  195.0750  170.2180  145.4920 C   0  0  0  0  0  0  0  0  0  0  0  0
  192.7510  172.7830  142.8770 C   0  0  0  0  0  0  0  0  0  0  0  0
  194.4120  172.6200  144.8100 C   0  0  2  0  0  3  0  0  0  0  0  0
  196.6190  172.1230  145.8740 C   0  0  0  0  0  1  0  0  0  0  0  0
  194.7010  169.4510  146.4170 O   0  0  0  0  0  0  0  0  0  0  0  0
  195.5610  170.3430  142.9890 C   0  0  0  0  0  3  0  0  0  0  0  0
  191.3960  176.5600  144.4700 C   0  0  2  0  0  3  0  0  0  0  0  0
  190.3530  176.9610  147.5100 C   0  0  0  0  0  3  0  0  0  0  0  0
  193.4050  173.4510  145.5890 C   0  0  0  0  0  2  0  0  0  0  0  0
  194.7880  171.3860  142.6880 C   0  0  0  0  0  3  0  0  0  0  0  0
  191.9140  175.4830  145.4350 C   0  0  1  0  0  3  0  0  0  0  0  0
  189.3800  177.7490  143.8570 C   0  0  0  0  0  2  0  0  0  0  0  0
  193.7420  171.9120  143.6200 C   0  0  2  0  0  3  0  0  0  0  0  0
  195.4970  169.6520  144.2430 N   0  0  0  0  0  2  0  0  0  0  0  0
  189.5690  176.8760  146.2250 C   0  0  2  0  0  3  0  0  0  0  0  0
  192.2910  174.0030  143.4210 C   0  0  0  0  0  0  0  0  0  0  0  0
  195.1680  171.6940  145.7700 C   0  0  2  0  0  3  0  0  0  0  0  0
  192.8980  174.5720  144.6890 C   0  0  2  0  0  3  0  0  0  0  0  0
  191.2370  173.0010  141.0510 C   0  0  0  0  0  3  0  0  0  0  0  0
  191.6420  176.6210  147.6780 C   0  0  0  0  0  3  0  0  0  0  0  0
  192.1990  172.3160  141.7230 N   0  0  0  0  0  0  0  0  0  0  0  0
  192.6010  176.1770  146.6050 C   0  0  0  0  0  2  0  0  0  0  0  0
  190.3240  177.5020  145.0370 C   0  0  1  0  0  3  0  0  0  0  0  0
  190.7670  174.2160  141.5460 C   0  0  0  0  0  3  0  0  0  0  0  0
  190.8030  175.9520  143.2930 N   0  0  0  0  0  0  0  0  0  0  0  0
  188.3300  177.4960  146.4140 O   0  0  0  0  0  0  0  0  0  0  0  0
  187.4330  176.4460  146.6290 C   0  0  0  0  0  2  0  0  0  0  0  0
  185.6740  179.1870  146.7870 O   0  0  0  0  0  0  0  0  0  0  0  0
  185.0170  176.9450  146.4570 C   0  0  0  0  0  2  0  0  0  0  0  0
  186.2080  176.9530  147.3710 C   0  0  2  0  0  3  0  0  0  0  0  0
  184.5840  178.3900  146.4140 C   0  0  0  0  0  2  0  0  0  0  0  0
  186.3940  178.4140  147.7110 C   0  0  0  0  0  2  0  0  0  0  0  0
  1 27  1  0  0  0  0
  1 18  1  0  0  0  0
  2 27  1  0  0  0  0
  2 14  1  0  0  0  0
  3 19  1  0  0  0  0
  3  7  2  0  0  0  0
  4 18  2  0  0  0  0
  4 15  1  0  0  0  0
  5 11  1  1  0  0  0
  5 19  1  0  0  0  0
  8 16  1  0  0  0  0
  9 27  1  6  0  0  0
  9 25  1  0  0  0  0
  9 13  1  0  0  0  0
 10 22  2  0  0  0  0
 12  8  2  0  0  0  0
 13 24  1  1  0  0  0
 15 12  1  6  0  0  0
 15  5  1  0  0  0  0
 16  3  1  0  0  0  0
 17 28  1  1  0  0  0
 17 10  1  0  0  0  0
 18 20  1  0  0  0  0
 19  6  1  6  0  0  0
 20 13  1  0  0  0  0
 20 11  1  1  0  0  0
 21 26  1  0  0  0  0
 21 23  2  0  0  0  0
 23  4  1  0  0  0  0
 24 22  1  0  0  0  0
 25 14  1  6  0  0  0
 25 17  1  0  0  0  0
 26  1  2  0  0  0  0
 28 29  1  0  0  0  0
 30 34  1  0  0  0  0
 31 32  1  0  0  0  0
 32 29  1  6  0  0  0
 32 34  1  0  0  0  0
 33 31  1  0  0  0  0
 33 30  1  0  0  0  0
M  END
>  <MODEL>
2

>  <REMARK>
 VINA RESULT:      -8.5      3.037      8.439
  Name = 
  3 active torsions:
  status: ('A' for Active; 'I' for Inactive)
    1  A    between atoms: C_17  and  O_28
    2  A    between atoms: O_28  and  C_29
    3  A    between atoms: C_29  and  C_32
                            x       y       z     vdW  Elec       q    Type
                         _______ _______ _______ _____ _____    ______ ____

>  <TORSDO>
F 3

$$$$
=
 OpenBabel11112417443D

 34 40  0  0  1  0  0  0  0  0999 V2000
  189.4780  175.0340  141.9850 C   0  0  0  0  0  0  0  0  0  0  0  0
  187.1110  175.8040  142.5320 C   0  0  0  0  0  2  0  0  0  0  0  0
  195.4550  173.2930  143.8370 C   0  0  0  0  0  0  0  0  0  0  0  0
  191.7070  174.0850  141.8010 C   0  0  0  0  0  0  0  0  0  0  0  0
  193.5580  174.9690  143.3220 C   0  0  2  0  0  3  0  0  0  0  0  0
  195.8720  175.7390  143.8750 C   0  0  0  0  0  1  0  0  0  0  0  0
  195.7020  172.5470  144.8200 O   0  0  0  0  0  0  0  0  0  0  0  0
  195.3250  173.3670  141.2890 C   0  0  0  0  0  3  0  0  0  0  0  0
  188.9690  176.8560  143.6600 C   0  0  2  0  0  3  0  0  0  0  0  0
  188.4680  177.0210  146.8560 C   0  0  0  0  0  3  0  0  0  0  0  0
  192.4400  175.2770  144.3050 C   0  0  0  0  0  2  0  0  0  0  0  0
  194.0900  173.8570  141.1670 C   0  0  0  0  0  3  0  0  0  0  0  0
  190.1310  176.2850  144.4860 C   0  0  1  0  0  3  0  0  0  0  0  0
  186.5550  176.8280  143.5070 C   0  0  0  0  0  2  0  0  0  0  0  0
  193.1220  173.8990  142.3060 C   0  0  2  0  0  3  0  0  0  0  0  0
  195.8580  172.8750  142.5250 N   0  0  0  0  0  2  0  0  0  0  0  0
  187.6050  176.4230  145.7740 C   0  0  2  0  0  3  0  0  0  0  0  0
  190.8090  174.9720  142.4360 C   0  0  0  0  0  0  0  0  0  0  0  0
  194.8450  174.6440  144.0910 C   0  0  2  0  0  3  0  0  0  0  0  0
  191.2770  175.8990  143.5410 C   0  0  2  0  0  3  0  0  0  0  0  0
  189.9730  173.3310  140.3520 C   0  0  0  0  0  3  0  0  0  0  0  0
  189.7570  177.3790  146.7360 C   0  0  0  0  0  3  0  0  0  0  0  0
  191.2560  173.2840  140.7960 N   0  0  0  0  0  0  0  0  0  0  0  0
  190.5840  177.3490  145.4780 C   0  0  0  0  0  2  0  0  0  0  0  0
  187.7000  177.2060  144.4500 C   0  0  1  0  0  3  0  0  0  0  0  0
  189.0600  174.2040  140.9410 C   0  0  0  0  0  3  0  0  0  0  0  0
  188.5510  175.9120  142.6410 N   0  0  0  0  0  0  0  0  0  0  0  0
  186.2840  176.3710  146.2320 O   0  0  0  0  0  0  0  0  0  0  0  0
  186.2910  177.1020  147.4240 C   0  0  0  0  0  2  0  0  0  0  0  0
  185.4760  179.6170  145.5150 O   0  0  0  0  0  0  0  0  0  0  0  0
  184.1850  177.8260  146.3480 C   0  0  0  0  0  2  0  0  0  0  0  0
  185.2180  178.1770  147.3790 C   0  0  2  0  0  3  0  0  0  0  0  0
  184.2350  178.9820  145.3780 C   0  0  0  0  0  2  0  0  0  0  0  0
  185.8190  179.4660  146.8670 C   0  0  0  0  0  2  0  0  0  0  0  0
  1 18  1  0  0  0  0
  1 27  1  0  0  0  0
  2 27  1  0  0  0  0
  2 14  1  0  0  0  0
  3 19  1  0  0  0  0
  3  7  2  0  0  0  0
  4 15  1  0  0  0  0
  4 18  2  0  0  0  0
  5 19  1  0  0  0  0
  5 11  1  1  0  0  0
  8 16  1  0  0  0  0
  9 27  1  6  0  0  0
  9 25  1  0  0  0  0
  9 13  1  0  0  0  0
 12  8  2  0  0  0  0
 13 24  1  1  0  0  0
 15 12  1  6  0  0  0
 15  5  1  0  0  0  0
 16  3  1  0  0  0  0
 17 28  1  1  0  0  0
 17 10  1  0  0  0  0
 18 20  1  0  0  0  0
 19  6  1  6  0  0  0
 20 11  1  1  0  0  0
 20 13  1  0  0  0  0
 21 23  2  0  0  0  0
 21 26  1  0  0  0  0
 22 10  2  0  0  0  0
 23  4  1  0  0  0  0
 24 22  1  0  0  0  0
 25 14  1  6  0  0  0
 25 17  1  0  0  0  0
 26  1  2  0  0  0  0
 28 29  1  0  0  0  0
 30 34  1  0  0  0  0
 31 32  1  0  0  0  0
 32 29  1  6  0  0  0
 33 30  1  0  0  0  0
 33 31  1  0  0  0  0
 34 32  1  0  0  0  0
M  END
>  <MODEL>
3

>  <REMARK>
 VINA RESULT:      -8.4      2.150      8.105
  Name = 
  3 active torsions:
  status: ('A' for Active; 'I' for Inactive)
    1  A    between atoms: C_17  and  O_28
    2  A    between atoms: O_28  and  C_29
    3  A    between atoms: C_29  and  C_32
                            x       y       z     vdW  Elec       q    Type
                         _______ _______ _______ _____ _____    ______ ____

>  <TORSDO>
F 3

$$$$
=
 OpenBabel11112417443D

 34 40  0  0  1  0  0  0  0  0999 V2000
  189.7080  174.7320  142.5750 C   0  0  0  0  0  0  0  0  0  0  0  0
  192.0020  173.6280  142.6810 C   0  0  0  0  0  2  0  0  0  0  0  0
  185.6090  179.4850  144.2490 C   0  0  0  0  0  0  0  0  0  0  0  0
  187.7230  176.1310  142.4870 C   0  0  0  0  0  0  0  0  0  0  0  0
  186.9370  177.3000  144.6180 C   0  0  2  0  0  3  0  0  0  0  0  0
  185.2500  178.1030  146.2790 C   0  0  0  0  0  1  0  0  0  0  0  0
  185.9210  180.7020  144.3030 O   0  0  0  0  0  0  0  0  0  0  0  0
  184.3820  177.7330  142.8550 C   0  0  0  0  0  3  0  0  0  0  0  0
  191.0020  174.4370  144.7260 C   0  0  2  0  0  3  0  0  0  0  0  0
  193.1040  176.1970  146.4510 C   0  0  0  0  0  3  0  0  0  0  0  0
  188.4010  177.2830  145.0250 C   0  0  0  0  0  2  0  0  0  0  0  0
  185.3640  176.8370  142.7530 C   0  0  0  0  0  3  0  0  0  0  0  0
  190.4510  175.8120  145.1310 C   0  0  1  0  0  3  0  0  0  0  0  0
  192.9770  173.3740  143.8190 C   0  0  0  0  0  2  0  0  0  0  0  0
  186.7860  177.1540  143.0930 C   0  0  2  0  0  3  0  0  0  0  0  0
  184.5820  179.0680  143.3380 N   0  0  0  0  0  2  0  0  0  0  0  0
  193.2770  175.5300  145.1100 C   0  0  2  0  0  3  0  0  0  0  0  0
  188.8120  175.6060  143.2180 C   0  0  0  0  0  0  0  0  0  0  0  0
  186.2480  178.5300  145.2200 C   0  0  2  0  0  3  0  0  0  0  0  0
  188.9840  175.9140  144.6930 C   0  0  2  0  0  3  0  0  0  0  0  0
  188.4470  174.9730  140.5350 C   0  0  0  0  0  3  0  0  0  0  0  0
  191.9400  176.4130  147.0860 C   0  0  0  0  0  3  0  0  0  0  0  0
  187.5870  175.8130  141.1700 N   0  0  0  0  0  0  0  0  0  0  0  0
  190.5760  175.9540  146.6420 C   0  0  0  0  0  2  0  0  0  0  0  0
  192.4930  174.2070  145.0090 C   0  0  1  0  0  3  0  0  0  0  0  0
  189.5240  174.4200  141.2250 C   0  0  0  0  0  3  0  0  0  0  0  0
  190.8330  174.2150  143.3020 N   0  0  0  0  0  0  0  0  0  0  0  0
  194.6420  175.3230  144.8860 O   0  0  0  0  0  0  0  0  0  0  0  0
  195.1520  174.9310  146.1270 C   0  0  0  0  0  2  0  0  0  0  0  0
  196.2020  172.3690  144.4050 O   0  0  0  0  0  0  0  0  0  0  0  0
  197.0830  174.5460  144.6300 C   0  0  0  0  0  2  0  0  0  0  0  0
  196.4480  174.1610  145.9350 C   0  0  2  0  0  3  0  0  0  0  0  0
  197.1490  173.2480  143.8630 C   0  0  0  0  0  2  0  0  0  0  0  0
  196.1400  172.6910  145.7690 C   0  0  0  0  0  2  0  0  0  0  0  0
  1 18  1  0  0  0  0
  1 27  1  0  0  0  0
  2 27  1  0  0  0  0
  2 14  1  0  0  0  0
  3  7  2  0  0  0  0
  3 19  1  0  0  0  0
  4 15  1  0  0  0  0
  4 18  2  0  0  0  0
  5 11  1  6  0  0  0
  5 19  1  0  0  0  0
  8 16  1  0  0  0  0
  9 27  1  6  0  0  0
  9 25  1  0  0  0  0
  9 13  1  0  0  0  0
 10 22  2  0  0  0  0
 12  8  2  0  0  0  0
 13 24  1  1  0  0  0
 15 12  1  1  0  0  0
 15  5  1  0  0  0  0
 16  3  1  0  0  0  0
 17 28  1  1  0  0  0
 17 10  1  0  0  0  0
 18 20  1  0  0  0  0
 19  6  1  1  0  0  0
 20 11  1  6  0  0  0
 20 13  1  0  0  0  0
 21 23  2  0  0  0  0
 21 26  1  0  0  0  0
 23  4  1  0  0  0  0
 24 22  1  0  0  0  0
 25 14  1  6  0  0  0
 25 17  1  0  0  0  0
 26  1  2  0  0  0  0
 28 29  1  0  0  0  0
 30 34  1  0  0  0  0
 31 32  1  0  0  0  0
 32 29  1  6  0  0  0
 33 30  1  0  0  0  0
 33 31  1  0  0  0  0
 34 32  1  0  0  0  0
M  END
>  <MODEL>
4

>  <REMARK>
 VINA RESULT:      -8.3      1.141      1.467
  Name = 
  3 active torsions:
  status: ('A' for Active; 'I' for Inactive)
    1  A    between atoms: C_17  and  O_28
    2  A    between atoms: O_28  and  C_29
    3  A    between atoms: C_29  and  C_32
                            x       y       z     vdW  Elec       q    Type
                         _______ _______ _______ _____ _____    ______ ____

>  <TORSDO>
F 3

$$$$
=
 OpenBabel11112417443D

 34 40  0  0  1  0  0  0  0  0999 V2000
  189.3160  175.8590  142.9240 C   0  0  0  0  0  0  0  0  0  0  0  0
  191.5450  174.9190  142.1220 C   0  0  0  0  0  2  0  0  0  0  0  0
  185.7590  179.1080  147.2810 C   0  0  0  0  0  0  0  0  0  0  0  0
  187.4090  177.0620  143.8290 C   0  0  0  0  0  0  0  0  0  0  0  0
  187.0280  177.0580  146.3550 C   0  0  2  0  0  3  0  0  0  0  0  0
  185.6670  176.9200  148.4480 C   0  0  0  0  0  1  0  0  0  0  0  0
  186.1320  180.1660  147.8510 O   0  0  0  0  0  0  0  0  0  0  0  0
  184.2460  178.1790  145.4470 C   0  0  0  0  0  3  0  0  0  0  0  0
  190.9230  174.6310  144.4380 C   0  0  2  0  0  3  0  0  0  0  0  0
  193.3520  175.4420  146.4210 C   0  0  0  0  0  3  0  0  0  0  0  0
  188.5370  176.9030  146.4620 C   0  0  0  0  0  2  0  0  0  0  0  0
  185.1570  177.4730  144.7760 C   0  0  0  0  0  3  0  0  0  0  0  0
  190.5080  175.6310  145.5270 C   0  0  1  0  0  3  0  0  0  0  0  0
  192.6770  174.1930  142.8300 C   0  0  0  0  0  2  0  0  0  0  0  0
  186.6280  177.6430  144.9890 C   0  0  2  0  0  3  0  0  0  0  0  0
  184.5820  179.1340  146.4620 N   0  0  0  0  0  2  0  0  0  0  0  0
  193.2780  175.4940  144.9160 C   0  0  2  0  0  3  0  0  0  0  0  0
  188.5750  176.2930  144.0380 C   0  0  0  0  0  0  0  0  0  0  0  0
  186.5020  177.8320  147.5690 C   0  0  2  0  0  3  0  0  0  0  0  0
  188.9950  175.8750  145.4350 C   0  0  2  0  0  3  0  0  0  0  0  0
  187.7570  176.9890  141.4730 C   0  0  0  0  0  3  0  0  0  0  0  0
  192.3160  175.2910  147.2630 C   0  0  0  0  0  3  0  0  0  0  0  0
  187.0490  177.3980  142.5590 N   0  0  0  0  0  0  0  0  0  0  0  0
  190.8790  175.0470  146.8840 C   0  0  0  0  0  2  0  0  0  0  0  0
  192.4280  174.3480  144.3330 C   0  0  1  0  0  3  0  0  0  0  0  0
  188.9040  176.2150  141.6360 C   0  0  0  0  0  3  0  0  0  0  0  0
  190.5180  175.1010  143.1260 N   0  0  0  0  0  0  0  0  0  0  0  0
  194.5780  175.4670  144.4020 O   0  0  0  0  0  0  0  0  0  0  0  0
  195.3860  175.1270  145.4910 C   0  0  0  0  0  2  0  0  0  0  0  0
  196.7710  172.2470  146.1370 O   0  0  0  0  0  0  0  0  0  0  0  0
  196.1380  173.2340  144.0900 C   0  0  0  0  0  2  0  0  0  0  0  0
  196.5870  174.3260  145.0170 C   0  0  2  0  0  3  0  0  0  0  0  0
  196.5920  171.9680  144.7760 C   0  0  0  0  0  2  0  0  0  0  0  0
  197.1910  173.5840  146.1860 C   0  0  0  0  0  2  0  0  0  0  0  0
  1 27  1  0  0  0  0
  1 18  1  0  0  0  0
  2 14  1  0  0  0  0
  2 27  1  0  0  0  0
  3 19  1  0  0  0  0
  3  7  2  0  0  0  0
  4 18  2  0  0  0  0
  4 15  1  0  0  0  0
  5 11  1  6  0  0  0
  5 19  1  0  0  0  0
  8 16  1  0  0  0  0
  9 27  1  6  0  0  0
  9 13  1  0  0  0  0
 10 22  2  0  0  0  0
 12  8  2  0  0  0  0
 13 24  1  1  0  0  0
 15 12  1  6  0  0  0
 15  5  1  0  0  0  0
 16  3  1  0  0  0  0
 17 28  1  6  0  0  0
 17 10  1  0  0  0  0
 18 20  1  0  0  0  0
 19  6  1  6  0  0  0
 20 13  1  0  0  0  0
 20 11  1  1  0  0  0
 21 26  1  0  0  0  0
 21 23  2  0  0  0  0
 23  4  1  0  0  0  0
 24 22  1  0  0  0  0
 25 14  1  6  0  0  0
 25  9  1  0  0  0  0
 25 17  1  0  0  0  0
 26  1  2  0  0  0  0
 28 29  1  0  0  0  0
 30 34  1  0  0  0  0
 31 33  1  0  0  0  0
 31 32  1  0  0  0  0
 32 29  1  1  0  0  0
 32 34  1  0  0  0  0
 33 30  1  0  0  0  0
M  END
>  <MODEL>
5

>  <REMARK>
 VINA RESULT:      -8.3      1.805      2.328
  Name = 
  3 active torsions:
  status: ('A' for Active; 'I' for Inactive)
    1  A    between atoms: C_17  and  O_28
    2  A    between atoms: O_28  and  C_29
    3  A    between atoms: C_29  and  C_32
                            x       y       z     vdW  Elec       q    Type
                         _______ _______ _______ _____ _____    ______ ____

>  <TORSDO>
F 3

$$$$
=
 OpenBabel11112417443D

 34 40  0  0  1  0  0  0  0  0999 V2000
  192.1920  176.1870  145.7660 C   0  0  0  0  0  0  0  0  0  0  0  0
  190.0900  177.1190  146.8640 C   0  0  0  0  0  2  0  0  0  0  0  0
  195.6040  174.5850  140.4760 C   0  0  0  0  0  0  0  0  0  0  0  0
  194.1310  175.5740  144.4350 C   0  0  0  0  0  0  0  0  0  0  0  0
  193.7830  174.2530  142.2770 C   0  0  2  0  0  3  0  0  0  0  0  0
  194.2940  172.4810  140.5900 C   0  0  0  0  0  1  0  0  0  0  0  0
  195.6690  175.2900  139.4360 O   0  0  0  0  0  0  0  0  0  0  0  0
  196.8810  173.8880  142.5740 C   0  0  0  0  0  3  0  0  0  0  0  0
  189.8560  175.5550  145.0390 C   0  0  2  0  0  3  0  0  0  0  0  0
  187.7230  176.6150  142.8430 C   0  0  0  0  0  3  0  0  0  0  0  0
  192.4270  174.9390  142.2160 C   0  0  0  0  0  2  0  0  0  0  0  0
  195.9530  174.1930  143.4820 C   0  0  0  0  0  3  0  0  0  0  0  0
  190.4090  175.5520  143.6060 C   0  0  1  0  0  3  0  0  0  0  0  0
  188.6080  176.9300  146.5900 C   0  0  0  0  0  2  0  0  0  0  0  0
  194.7610  175.0400  143.1660 C   0  0  2  0  0  3  0  0  0  0  0  0
  196.8080  174.3050  141.2040 N   0  0  0  0  0  2  0  0  0  0  0  0
  188.2050  177.2690  144.1140 C   0  0  2  0  0  3  0  0  0  0  0  0
  192.7290  175.5920  144.6100 C   0  0  0  0  0  0  0  0  0  0  0  0
  194.2830  173.9740  140.8540 C   0  0  2  0  0  3  0  0  0  0  0  0
  191.8080  174.9200  143.6090 C   0  0  2  0  0  3  0  0  0  0  0  0
  194.4240  176.7480  146.4870 C   0  0  0  0  0  3  0  0  0  0  0  0
  188.2870  175.5620  142.2290 C   0  0  0  0  0  3  0  0  0  0  0  0
  194.9280  176.1660  145.3670 N   0  0  0  0  0  0  0  0  0  0  0  0
  189.4580  174.7540  142.7250 C   0  0  0  0  0  2  0  0  0  0  0  0
  188.4970  176.2420  145.2260 C   0  0  1  0  0  3  0  0  0  0  0  0
  193.0470  176.7720  146.7050 C   0  0  0  0  0  3  0  0  0  0  0  0
  190.7690  176.2350  145.9400 N   0  0  0  0  0  0  0  0  0  0  0  0
  187.2480  178.2000  144.5290 O   0  0  0  0  0  0  0  0  0  0  0  0
  186.0230  177.5450  144.3790 C   0  0  0  0  0  2  0  0  0  0  0  0
  185.5640  177.6460  147.6050 O   0  0  0  0  0  0  0  0  0  0  0  0
  185.5500  179.3630  145.9870 C   0  0  0  0  0  2  0  0  0  0  0  0
  185.0050  178.1170  145.3520 C   0  0  2  0  0  3  0  0  0  0  0  0
  185.5660  179.0400  147.4610 C   0  0  0  0  0  2  0  0  0  0  0  0
  184.8280  177.1650  146.5120 C   0  0  0  0  0  2  0  0  0  0  0  0
  1 27  1  0  0  0  0
  1 26  1  0  0  0  0
  3 19  1  0  0  0  0
  3 16  1  0  0  0  0
  4 18  1  0  0  0  0
  4 23  2  0  0  0  0
  5 11  1  6  0  0  0
  5 15  1  0  0  0  0
  7  3  2  0  0  0  0
  8 12  2  0  0  0  0
  9 25  1  0  0  0  0
  9 27  1  1  0  0  0
 10 17  1  0  0  0  0
 13 24  1  6  0  0  0
 13 20  1  0  0  0  0
 13  9  1  0  0  0  0
 14  2  1  0  0  0  0
 15 12  1  1  0  0  0
 15  4  1  0  0  0  0
 16  8  1  0  0  0  0
 17 28  1  1  0  0  0
 17 25  1  0  0  0  0
 18  1  2  0  0  0  0
 19  6  1  1  0  0  0
 19  5  1  0  0  0  0
 20 11  1  6  0  0  0
 20 18  1  0  0  0  0
 21 26  2  0  0  0  0
 22 24  1  0  0  0  0
 22 10  2  0  0  0  0
 23 21  1  0  0  0  0
 25 14  1  1  0  0  0
 27  2  1  0  0  0  0
 29 28  1  0  0  0  0
 31 33  1  0  0  0  0
 32 29  1  6  0  0  0
 32 31  1  0  0  0  0
 32 34  1  0  0  0  0
 33 30  1  0  0  0  0
 34 30  1  0  0  0  0
M  END
>  <MODEL>
6

>  <REMARK>
 VINA RESULT:      -8.2      2.518      8.662
  Name = 
  3 active torsions:
  status: ('A' for Active; 'I' for Inactive)
    1  A    between atoms: C_17  and  O_28
    2  A    between atoms: O_28  and  C_29
    3  A    between atoms: C_29  and  C_32
                            x       y       z     vdW  Elec       q    Type
                         _______ _______ _______ _____ _____    ______ ____

>  <TORSDO>
F 3

$$$$
=
 OpenBabel11112417443D

 34 40  0  0  1  0  0  0  0  0999 V2000
  189.1520  175.5660  142.8650 C   0  0  0  0  0  0  0  0  0  0  0  0
  191.3080  174.4610  142.0740 C   0  0  0  0  0  2  0  0  0  0  0  0
  185.8740  179.2360  147.1050 C   0  0  0  0  0  0  0  0  0  0  0  0
  187.3340  176.9200  143.7390 C   0  0  0  0  0  0  0  0  0  0  0  0
  187.0080  177.0720  146.2680 C   0  0  2  0  0  3  0  0  0  0  0  0
  185.6880  177.1220  148.3900 C   0  0  0  0  0  1  0  0  0  0  0  0
  186.3170  180.3010  147.6090 O   0  0  0  0  0  0  0  0  0  0  0  0
  184.2730  178.2970  145.3520 C   0  0  0  0  0  3  0  0  0  0  0  0
  190.7220  174.3310  144.4130 C   0  0  2  0  0  3  0  0  0  0  0  0
  193.2340  175.1100  146.3040 C   0  0  0  0  0  3  0  0  0  0  0  0
  188.5080  176.8380  146.3550 C   0  0  0  0  0  2  0  0  0  0  0  0
  185.1290  177.5070  144.7040 C   0  0  0  0  0  3  0  0  0  0  0  0
  190.3860  175.4100  145.4540 C   0  0  1  0  0  3  0  0  0  0  0  0
  192.4140  173.7120  142.7990 C   0  0  0  0  0  2  0  0  0  0  0  0
  186.6120  177.6050  144.8800 C   0  0  2  0  0  3  0  0  0  0  0  0
  184.6830  179.2850  146.3080 N   0  0  0  0  0  2  0  0  0  0  0  0
  193.1300  175.0860  144.8000 C   0  0  2  0  0  3  0  0  0  0  0  0
  188.4610  176.0990  143.9680 C   0  0  0  0  0  0  0  0  0  0  0  0
  186.5520  177.9380  147.4480 C   0  0  2  0  0  3  0  0  0  0  0  0
  188.8870  175.7330  145.3770 C   0  0  2  0  0  3  0  0  0  0  0  0
  187.6260  176.7030  141.3850 C   0  0  0  0  0  3  0  0  0  0  0  0
  192.2100  175.0620  147.1720 C   0  0  0  0  0  3  0  0  0  0  0  0
  186.9660  177.2080  142.4600 N   0  0  0  0  0  0  0  0  0  0  0  0
  190.7540  174.8790  146.8330 C   0  0  0  0  0  2  0  0  0  0  0  0
  192.2060  173.9600  144.2950 C   0  0  1  0  0  3  0  0  0  0  0  0
  188.7330  175.8760  141.5680 C   0  0  0  0  0  3  0  0  0  0  0  0
  190.3150  174.7540  143.0860 N   0  0  0  0  0  0  0  0  0  0  0  0
  194.4160  174.9580  144.2640 O   0  0  0  0  0  0  0  0  0  0  0  0
  194.8530  176.2710  144.0680 C   0  0  0  0  0  2  0  0  0  0  0  0
  197.9200  175.6660  143.1390 O   0  0  0  0  0  0  0  0  0  0  0  0
  195.8600  174.9880  142.2090 C   0  0  0  0  0  2  0  0  0  0  0  0
  195.6800  176.3580  142.7960 C   0  0  2  0  0  3  0  0  0  0  0  0
  197.3560  174.7930  142.1990 C   0  0  0  0  0  2  0  0  0  0  0  0
  197.0860  176.7940  143.1380 C   0  0  0  0  0  2  0  0  0  0  0  0
  1 27  1  0  0  0  0
  1 18  1  0  0  0  0
  2 14  1  0  0  0  0
  2 27  1  0  0  0  0
  3 19  1  0  0  0  0
  3  7  2  0  0  0  0
  4 18  2  0  0  0  0
  4 15  1  0  0  0  0
  5 11  1  6  0  0  0
  5 19  1  0  0  0  0
  8 16  1  0  0  0  0
  9 27  1  6  0  0  0
  9 13  1  0  0  0  0
 10 22  2  0  0  0  0
 12  8  2  0  0  0  0
 13 24  1  1  0  0  0
 15 12  1  6  0  0  0
 15  5  1  0  0  0  0
 16  3  1  0  0  0  0
 17 28  1  6  0  0  0
 17 10  1  0  0  0  0
 18 20  1  0  0  0  0
 19  6  1  6  0  0  0
 20 13  1  0  0  0  0
 20 11  1  1  0  0  0
 21 26  1  0  0  0  0
 21 23  2  0  0  0  0
 23  4  1  0  0  0  0
 24 22  1  0  0  0  0
 25 14  1  6  0  0  0
 25  9  1  0  0  0  0
 25 17  1  0  0  0  0
 26  1  2  0  0  0  0
 29 28  1  0  0  0  0
 31 32  1  0  0  0  0
 32 34  1  0  0  0  0
 32 29  1  1  0  0  0
 33 31  1  0  0  0  0
 33 30  1  0  0  0  0
 34 30  1  0  0  0  0
M  END
>  <MODEL>
7

>  <REMARK>
 VINA RESULT:      -8.2      1.526      1.875
  Name = 
  3 active torsions:
  status: ('A' for Active; 'I' for Inactive)
    1  A    between atoms: C_17  and  O_28
    2  A    between atoms: O_28  and  C_29
    3  A    between atoms: C_29  and  C_32
                            x       y       z     vdW  Elec       q    Type
                         _______ _______ _______ _____ _____    ______ ____

>  <TORSDO>
F 3

$$$$
=
 OpenBabel11112417443D

 34 40  0  0  1  0  0  0  0  0999 V2000
  190.2170  176.4430  146.4670 C   0  0  0  0  0  0  0  0  0  0  0  0
  187.7540  177.0550  146.6850 C   0  0  0  0  0  2  0  0  0  0  0  0
  195.6430  175.8960  142.9370 C   0  0  0  0  0  0  0  0  0  0  0  0
  192.5880  176.1700  146.0050 C   0  0  0  0  0  0  0  0  0  0  0  0
  193.3060  175.1730  143.7650 C   0  0  2  0  0  3  0  0  0  0  0  0
  194.6690  173.7170  142.2590 C   0  0  0  0  0  1  0  0  0  0  0  0
  196.0340  176.7530  142.1030 O   0  0  0  0  0  0  0  0  0  0  0  0
  196.0390  174.9740  145.2840 C   0  0  0  0  0  3  0  0  0  0  0  0
  188.4710  175.7750  144.7660 C   0  0  2  0  0  3  0  0  0  0  0  0
  187.2920  177.0140  142.0150 C   0  0  0  0  0  3  0  0  0  0  0  0
  192.0160  175.7690  143.2220 C   0  0  0  0  0  2  0  0  0  0  0  0
  194.7940  175.0740  145.7500 C   0  0  0  0  0  3  0  0  0  0  0  0
  189.5510  176.0270  143.7040 C   0  0  1  0  0  3  0  0  0  0  0  0
  186.5440  176.8110  145.7980 C   0  0  0  0  0  2  0  0  0  0  0  0
  193.7370  175.8780  145.0630 C   0  0  2  0  0  3  0  0  0  0  0  0
  196.4750  175.5880  144.0640 N   0  0  0  0  0  2  0  0  0  0  0  0
  187.1360  177.4970  143.4350 C   0  0  2  0  0  3  0  0  0  0  0  0
  191.2440  176.0670  145.5800 C   0  0  0  0  0  0  0  0  0  0  0  0
  194.3670  175.1480  142.6590 C   0  0  2  0  0  3  0  0  0  0  0  0
  190.8960  175.4970  144.2190 C   0  0  2  0  0  3  0  0  0  0  0  0
  191.8800  177.0340  148.1090 C   0  0  0  0  0  3  0  0  0  0  0  0
  188.1810  176.1060  141.5790 C   0  0  0  0  0  3  0  0  0  0  0  0
  192.8610  176.6640  147.2440 N   0  0  0  0  0  0  0  0  0  0  0  0
  189.1420  175.3110  142.4230 C   0  0  0  0  0  2  0  0  0  0  0  0
  187.0780  176.3340  144.4450 C   0  0  1  0  0  3  0  0  0  0  0  0
  190.5410  176.9330  147.7350 C   0  0  0  0  0  3  0  0  0  0  0  0
  188.8510  176.3690  146.0350 N   0  0  0  0  0  0  0  0  0  0  0  0
  185.9850  178.2880  143.5150 O   0  0  0  0  0  0  0  0  0  0  0  0
  185.0460  177.6360  142.7110 C   0  0  0  0  0  2  0  0  0  0  0  0
  182.9450  177.6620  140.2170 O   0  0  0  0  0  0  0  0  0  0  0  0
  182.7780  178.5660  142.3910 C   0  0  0  0  0  2  0  0  0  0  0  0
  184.2110  178.6560  141.9560 C   0  0  2  0  0  3  0  0  0  0  0  0
  182.0350  178.2270  141.1210 C   0  0  0  0  0  2  0  0  0  0  0  0
  184.1700  178.2890  140.4900 C   0  0  0  0  0  2  0  0  0  0  0  0
  1 26  1  0  0  0  0
  3 16  1  0  0  0  0
  4 23  2  0  0  0  0
  5 11  1  6  0  0  0
  5 15  1  0  0  0  0
  7  3  2  0  0  0  0
  8 12  2  0  0  0  0
  9 27  1  1  0  0  0
 10 17  1  0  0  0  0
 13 24  1  6  0  0  0
 13 20  1  0  0  0  0
 13  9  1  0  0  0  0
 14  2  1  0  0  0  0
 15 12  1  1  0  0  0
 15  4  1  0  0  0  0
 16  8  1  0  0  0  0
 17 28  1  6  0  0  0
 17 25  1  0  0  0  0
 18  4  1  0  0  0  0
 18  1  2  0  0  0  0
 19  6  1  1  0  0  0
 19  3  1  0  0  0  0
 19  5  1  0  0  0  0
 20 11  1  6  0  0  0
 20 18  1  0  0  0  0
 22 10  2  0  0  0  0
 22 24  1  0  0  0  0
 23 21  1  0  0  0  0
 25  9  1  0  0  0  0
 25 14  1  1  0  0  0
 26 21  2  0  0  0  0
 27  1  1  0  0  0  0
 27  2  1  0  0  0  0
 29 28  1  0  0  0  0
 30 34  1  0  0  0  0
 30 33  1  0  0  0  0
 32 31  1  0  0  0  0
 32 29  1  1  0  0  0
 33 31  1  0  0  0  0
 34 32  1  0  0  0  0
M  END
>  <MODEL>
8

>  <REMARK>
 VINA RESULT:      -8.1      2.224      8.929
  Name = 
  3 active torsions:
  status: ('A' for Active; 'I' for Inactive)
    1  A    between atoms: C_17  and  O_28
    2  A    between atoms: O_28  and  C_29
    3  A    between atoms: C_29  and  C_32
                            x       y       z     vdW  Elec       q    Type
                         _______ _______ _______ _____ _____    ______ ____

>  <TORSDO>
F 3

$$$$
=
 OpenBabel11112417443D

 34 40  0  0  1  0  0  0  0  0999 V2000
  192.0520  175.8400  145.9800 C   0  0  0  0  0  0  0  0  0  0  0  0
  189.9440  177.2660  146.1000 C   0  0  0  0  0  2  0  0  0  0  0  0
  195.9390  171.7040  142.8210 C   0  0  0  0  0  0  0  0  0  0  0  0
  194.0680  174.5800  145.4760 C   0  0  0  0  0  0  0  0  0  0  0  0
  193.8630  172.3740  144.2040 C   0  0  2  0  0  3  0  0  0  0  0  0
  194.3880  169.9810  143.7060 C   0  0  0  0  0  1  0  0  0  0  0  0
  196.2260  171.7960  141.5990 O   0  0  0  0  0  0  0  0  0  0  0  0
  196.8280  172.0980  145.1810 C   0  0  0  0  0  3  0  0  0  0  0  0
  189.7780  175.0110  145.2510 C   0  0  2  0  0  3  0  0  0  0  0  0
  188.1020  174.9130  142.4820 C   0  0  0  0  0  3  0  0  0  0  0  0
  192.6180  172.9850  143.5820 C   0  0  0  0  0  2  0  0  0  0  0  0
  195.8280  172.8460  145.6480 C   0  0  0  0  0  3  0  0  0  0  0  0
  190.5160  174.2770  144.1220 C   0  0  1  0  0  3  0  0  0  0  0  0
  188.5000  177.0170  145.6960 C   0  0  0  0  0  2  0  0  0  0  0  0
  194.7970  173.4640  144.7580 C   0  0  2  0  0  3  0  0  0  0  0  0
  196.9920  171.7810  143.7920 N   0  0  0  0  0  2  0  0  0  0  0  0
  188.4800  176.0950  143.3390 C   0  0  2  0  0  3  0  0  0  0  0  0
  192.6670  174.7300  145.3710 C   0  0  0  0  0  0  0  0  0  0  0  0
  194.5160  171.4080  143.2080 C   0  0  2  0  0  3  0  0  0  0  0  0
  191.8180  173.6820  144.6760 C   0  0  2  0  0  3  0  0  0  0  0  0
  194.2150  176.6070  146.7180 C   0  0  0  0  0  3  0  0  0  0  0  0
  188.6160  173.6750  142.5640 C   0  0  0  0  0  3  0  0  0  0  0  0
  194.7950  175.5290  146.1290 N   0  0  0  0  0  0  0  0  0  0  0  0
  189.6060  173.1800  143.5860 C   0  0  0  0  0  2  0  0  0  0  0  0
  188.4960  175.7470  144.8400 C   0  0  1  0  0  3  0  0  0  0  0  0
  192.8340  176.7840  146.6520 C   0  0  0  0  0  3  0  0  0  0  0  0
  190.6330  176.0170  145.8550 N   0  0  0  0  0  0  0  0  0  0  0  0
  187.5910  177.1420  143.0760 O   0  0  0  0  0  0  0  0  0  0  0  0
  186.3240  176.5510  143.1040 C   0  0  0  0  0  2  0  0  0  0  0  0
  185.5510  178.9040  145.2250 O   0  0  0  0  0  0  0  0  0  0  0  0
  185.8190  178.9610  142.8810 C   0  0  0  0  0  2  0  0  0  0  0  0
  185.2560  177.6210  143.2550 C   0  0  2  0  0  3  0  0  0  0  0  0
  185.6640  179.7820  144.1380 C   0  0  0  0  0  2  0  0  0  0  0  0
  184.8970  177.7720  144.7150 C   0  0  0  0  0  2  0  0  0  0  0  0
  1 26  1  0  0  0  0
  3 19  1  0  0  0  0
  3 16  1  0  0  0  0
  4 23  2  0  0  0  0
  5 11  1  6  0  0  0
  5 15  1  0  0  0  0
  7  3  2  0  0  0  0
  8 12  2  0  0  0  0
  9 27  1  6  0  0  0
 10 22  2  0  0  0  0
 10 17  1  0  0  0  0
 13 24  1  1  0  0  0
 13 20  1  0  0  0  0
 13  9  1  0  0  0  0
 14  2  1  0  0  0  0
 15  4  1  0  0  0  0
 15 12  1  1  0  0  0
 16  8  1  0  0  0  0
 17 28  1  1  0  0  0
 17 25  1  0  0  0  0
 18  4  1  0  0  0  0
 18  1  2  0  0  0  0
 19  6  1  1  0  0  0
 19  5  1  0  0  0  0
 20 11  1  6  0  0  0
 20 18  1  0  0  0  0
 22 24  1  0  0  0  0
 23 21  1  0  0  0  0
 25  9  1  0  0  0  0
 25 14  1  1  0  0  0
 26 21  2  0  0  0  0
 27  1  1  0  0  0  0
 27  2  1  0  0  0  0
 28 29  1  0  0  0  0
 31 32  1  0  0  0  0
 31 33  1  0  0  0  0
 32 29  1  1  0  0  0
 32 34  1  0  0  0  0
 33 30  1  0  0  0  0
 34 30  1  0  0  0  0
M  END
>  <MODEL>
9

>  <REMARK>
 VINA RESULT:      -8.0      2.585      8.933
  Name = 
  3 active torsions:
  status: ('A' for Active; 'I' for Inactive)
    1  A    between atoms: C_17  and  O_28
    2  A    between atoms: O_28  and  C_29
    3  A    between atoms: C_29  and  C_32
                            x       y       z     vdW  Elec       q    Type
                         _______ _______ _______ _____ _____    ______ ____

>  <TORSDO>
F 3

$$$$
