=
 OpenBabel11112417033D

 31 35  0  0  1  0  0  0  0  0999 V2000
  191.6230  173.0780  141.5140 C   0  0  0  0  0  0  0  0  0  0  0  0
  191.1930  174.1420  145.1450 C   0  0  2  0  0  3  0  0  0  0  0  0
  192.3350  175.0820  145.5010 C   0  0  0  0  0  0  0  0  0  0  0  0
  194.5990  175.8780  145.0860 C   0  0  0  0  0  0  0  0  0  0  0  0
  190.9670  174.0080  143.6560 C   0  0  0  0  0  0  0  0  0  0  0  0
  190.5770  173.7650  140.8910 C   0  0  0  0  0  3  0  0  0  0  0  0
  193.5080  175.0850  144.7280 C   0  0  0  0  0  3  0  0  0  0  0  0
  189.1780  175.6880  145.2300 C   0  0  2  0  0  3  0  0  0  0  0  0
  192.5310  172.2210  140.7100 C   0  0  0  0  0  1  0  0  0  0  0  0
  191.0800  175.9220  147.5590 C   0  0  0  0  0  2  0  0  0  0  0  0
  195.7430  175.8790  144.2990 O   0  0  0  0  0  1  0  0  0  0  0  0
  188.9860  175.4610  143.8010 N   0  0  0  0  0  2  0  0  0  0  0  0
  189.8790  174.4840  145.8780 C   0  0  2  0  0  3  0  0  0  0  0  0
  191.8140  173.1970  142.8930 C   0  0  0  0  0  3  0  0  0  0  0  0
  194.5430  176.6660  146.2350 C   0  0  0  0  0  3  0  0  0  0  0  0
  189.9110  174.6950  143.0260 C   0  0  0  0  0  0  0  0  0  0  0  0
  189.7180  174.5680  141.6480 C   0  0  0  0  0  3  0  0  0  0  0  0
  190.1600  174.7190  147.3620 C   0  0  0  0  0  2  0  0  0  0  0  0
  192.3000  175.8560  146.6870 C   0  0  0  0  0  0  0  0  0  0  0  0
  193.3960  176.6550  147.0310 C   0  0  0  0  0  3  0  0  0  0  0  0
  188.5630  177.8820  146.9420 O   0  0  0  0  0  0  0  0  0  0  0  0
  187.6440  177.0500  146.7070 C   0  0  0  0  0  0  0  0  0  0  0  0
  187.8890  175.9240  145.8640 N   0  0  0  0  0  2  0  0  0  0  0  0
  184.5170  178.9140  145.6620 C   0  0  1  0  0  3  0  0  0  0  0  0
  185.1800  176.6210  146.4360 C   0  0  0  0  0  2  0  0  0  0  0  0
  186.9930  179.2460  148.4360 O   0  0  0  0  0  1  0  0  0  0  0  0
  184.2600  179.7000  144.5400 O   0  0  0  0  0  1  0  0  0  0  0  0
  184.8840  177.5010  145.2210 C   0  0  0  0  0  2  0  0  0  0  0  0
  185.9550  178.6790  147.6930 C   0  0  2  0  0  3  0  0  0  0  0  0
  186.2820  177.2240  147.3150 C   0  0  2  0  0  3  0  0  0  0  0  0
  185.6600  179.5310  146.4620 C   0  0  0  0  0  2  0  0  0  0  0  0
  1 14  1  0  0  0  0
  2  5  1  6  0  0  0
  2  3  1  0  0  0  0
  2 13  1  0  0  0  0
  3 19  1  0  0  0  0
  4 15  2  0  0  0  0
  6  1  2  0  0  0  0
  6 17  1  0  0  0  0
  7  4  1  0  0  0  0
  7  3  2  0  0  0  0
  8 23  1  1  0  0  0
  8 13  1  0  0  0  0
  9  1  1  0  0  0  0
 11  4  1  0  0  0  0
 12  8  1  0  0  0  0
 13 18  1  1  0  0  0
 14  5  2  0  0  0  0
 15 20  1  0  0  0  0
 16  5  1  0  0  0  0
 16 12  1  0  0  0  0
 17 16  2  0  0  0  0
 18 10  1  0  0  0  0
 19 20  2  0  0  0  0
 19 10  1  0  0  0  0
 22 21  2  0  0  0  0
 23 22  1  0  0  0  0
 24 27  1  6  0  0  0
 24 31  1  0  0  0  0
 25 30  1  0  0  0  0
 28 24  1  0  0  0  0
 28 25  1  0  0  0  0
 29 26  1  6  0  0  0
 30 22  1  6  0  0  0
 30 29  1  0  0  0  0
 31 29  1  0  0  0  0
M  END
>  <MODEL>
1

>  <REMARK>
 VINA RESULT:      -9.0      0.000      0.000
  Name = 
  2 active torsions:
  status: ('A' for Active; 'I' for Inactive)
    1  A    between atoms: C_5  and  C_30
    2  A    between atoms: C_10  and  N_16
                            x       y       z     vdW  Elec       q    Type
                         _______ _______ _______ _____ _____    ______ ____

>  <TORSDO>
F 2

$$$$
=
 OpenBabel11112417033D

 31 35  0  0  1  0  0  0  0  0999 V2000
  187.3480  176.8580  140.8880 C   0  0  0  0  0  0  0  0  0  0  0  0
  188.5200  177.6920  144.4140 C   0  0  2  0  0  3  0  0  0  0  0  0
  187.2900  177.8710  145.2920 C   0  0  0  0  0  0  0  0  0  0  0  0
  184.9190  178.3890  145.4930 C   0  0  0  0  0  0  0  0  0  0  0  0
  188.2440  176.9240  143.1420 C   0  0  0  0  0  0  0  0  0  0  0  0
  187.7040  175.5100  140.7820 C   0  0  0  0  0  3  0  0  0  0  0  0
  186.0420  178.1390  144.7040 C   0  0  0  0  0  3  0  0  0  0  0  0
  189.5600  175.5790  145.3680 C   0  0  2  0  0  3  0  0  0  0  0  0
  186.6800  177.5410  139.7510 C   0  0  0  0  0  1  0  0  0  0  0  0
  188.6930  177.6240  147.4100 C   0  0  0  0  0  2  0  0  0  0  0  0
  183.6910  178.6360  144.8930 O   0  0  0  0  0  1  0  0  0  0  0  0
  189.3160  174.9220  144.0880 N   0  0  0  0  0  2  0  0  0  0  0  0
  189.7230  177.0950  145.1740 C   0  0  2  0  0  3  0  0  0  0  0  0
  187.6210  177.5630  142.0630 C   0  0  0  0  0  3  0  0  0  0  0  0
  185.0290  178.3940  146.8840 C   0  0  0  0  0  3  0  0  0  0  0  0
  188.6050  175.5670  143.0300 C   0  0  0  0  0  0  0  0  0  0  0  0
  188.3370  174.8670  141.8500 C   0  0  0  0  0  3  0  0  0  0  0  0
  189.9080  177.8230  146.5050 C   0  0  0  0  0  2  0  0  0  0  0  0
  187.4020  177.9160  146.7030 C   0  0  0  0  0  0  0  0  0  0  0  0
  186.2670  178.1570  147.4850 C   0  0  0  0  0  3  0  0  0  0  0  0
  192.1930  175.7240  144.2890 O   0  0  0  0  0  0  0  0  0  0  0  0
  192.0470  175.1330  145.3940 C   0  0  0  0  0  0  0  0  0  0  0  0
  190.7530  175.0180  145.9860 N   0  0  0  0  0  2  0  0  0  0  0  0
  195.7480  174.9190  144.6140 C   0  0  1  0  0  3  0  0  0  0  0  0
  194.2530  175.5970  146.5130 C   0  0  0  0  0  2  0  0  0  0  0  0
  192.9550  172.4580  144.8890 O   0  0  0  0  0  1  0  0  0  0  0  0
  196.4750  175.3900  143.5220 O   0  0  0  0  0  1  0  0  0  0  0  0
  195.0650  176.0890  145.3140 C   0  0  0  0  0  2  0  0  0  0  0  0
  193.9000  173.3900  145.3210 C   0  0  2  0  0  3  0  0  0  0  0  0
  193.2280  174.5330  146.1010 C   0  0  2  0  0  3  0  0  0  0  0  0
  194.7080  173.9110  144.1350 C   0  0  0  0  0  2  0  0  0  0  0  0
  1 14  1  0  0  0  0
  2  5  1  6  0  0  0
  2 13  1  0  0  0  0
  2  3  1  0  0  0  0
  3 19  1  0  0  0  0
  4 15  2  0  0  0  0
  6  1  2  0  0  0  0
  6 17  1  0  0  0  0
  7  3  2  0  0  0  0
  7  4  1  0  0  0  0
  8 23  1  6  0  0  0
  9  1  1  0  0  0  0
 11  4  1  0  0  0  0
 12  8  1  0  0  0  0
 13  8  1  0  0  0  0
 13 18  1  1  0  0  0
 14  5  2  0  0  0  0
 15 20  1  0  0  0  0
 16  5  1  0  0  0  0
 16 12  1  0  0  0  0
 17 16  2  0  0  0  0
 18 10  1  0  0  0  0
 19 10  1  0  0  0  0
 19 20  2  0  0  0  0
 21 22  2  0  0  0  0
 22 23  1  0  0  0  0
 24 27  1  6  0  0  0
 24 28  1  0  0  0  0
 28 25  1  0  0  0  0
 29 26  1  6  0  0  0
 29 30  1  0  0  0  0
 30 22  1  6  0  0  0
 30 25  1  0  0  0  0
 31 24  1  0  0  0  0
 31 29  1  0  0  0  0
M  END
>  <MODEL>
2

>  <REMARK>
 VINA RESULT:      -8.8      2.205      7.332
  Name = 
  2 active torsions:
  status: ('A' for Active; 'I' for Inactive)
    1  A    between atoms: C_5  and  C_30
    2  A    between atoms: C_10  and  N_16
                            x       y       z     vdW  Elec       q    Type
                         _______ _______ _______ _____ _____    ______ ____

>  <TORSDO>
F 2

$$$$
=
 OpenBabel11112417033D

 31 35  0  0  1  0  0  0  0  0999 V2000
  194.1680  176.6080  145.0010 C   0  0  0  0  0  0  0  0  0  0  0  0
  190.7840  176.7030  143.2580 C   0  0  2  0  0  3  0  0  0  0  0  0
  190.6280  175.4180  142.4580 C   0  0  0  0  0  0  0  0  0  0  0  0
  191.6490  173.5290  141.3100 C   0  0  0  0  0  0  0  0  0  0  0  0
  191.8330  176.6120  144.3420 C   0  0  0  0  0  0  0  0  0  0  0  0
  193.7950  176.4230  146.3360 C   0  0  0  0  0  3  0  0  0  0  0  0
  191.7620  174.6640  142.1140 C   0  0  0  0  0  3  0  0  0  0  0  0
  189.0140  176.4330  145.0610 C   0  0  2  0  0  3  0  0  0  0  0  0
  195.6060  176.7010  144.6390 C   0  0  0  0  0  1  0  0  0  0  0  0
  188.1090  175.7800  142.2590 C   0  0  0  0  0  2  0  0  0  0  0  0
  192.7800  172.7880  140.9950 O   0  0  0  0  0  1  0  0  0  0  0  0
  190.0810  176.4160  146.0580 N   0  0  0  0  0  2  0  0  0  0  0  0
  189.4480  177.2300  143.8210 C   0  0  2  0  0  3  0  0  0  0  0  0
  193.1900  176.7060  144.0090 C   0  0  0  0  0  3  0  0  0  0  0  0
  190.4020  173.1400  140.8210 C   0  0  0  0  0  3  0  0  0  0  0  0
  191.4610  176.4300  145.6880 C   0  0  0  0  0  0  0  0  0  0  0  0
  192.4420  176.3400  146.6790 C   0  0  0  0  0  3  0  0  0  0  0  0
  188.3800  177.2080  142.7270 C   0  0  0  0  0  2  0  0  0  0  0  0
  189.3710  175.0390  141.9260 C   0  0  0  0  0  0  0  0  0  0  0  0
  189.2680  173.8930  141.1300 C   0  0  0  0  0  3  0  0  0  0  0  0
  187.7400  175.5370  147.4470 O   0  0  0  0  0  0  0  0  0  0  0  0
  187.2290  176.5220  146.8480 C   0  0  0  0  0  0  0  0  0  0  0  0
  187.8130  177.0160  145.6420 N   0  0  0  0  0  2  0  0  0  0  0  0
  184.8940  179.1950  145.5240 C   0  0  1  0  0  3  0  0  0  0  0  0
  184.7630  176.8950  146.5190 C   0  0  0  0  0  2  0  0  0  0  0  0
  187.3180  178.9630  148.3540 O   0  0  0  0  0  1  0  0  0  0  0  0
  184.9190  179.9120  144.3290 O   0  0  0  0  0  1  0  0  0  0  0  0
  184.7820  177.7040  145.2220 C   0  0  0  0  0  2  0  0  0  0  0  0
  186.1580  178.6970  147.6230 C   0  0  2  0  0  3  0  0  0  0  0  0
  185.9940  177.1860  147.3850 C   0  0  2  0  0  3  0  0  0  0  0  0
  186.1690  179.4790  146.3120 C   0  0  0  0  0  2  0  0  0  0  0  0
  1  6  1  0  0  0  0
  2  3  1  1  0  0  0
  2 13  1  0  0  0  0
  2  5  1  0  0  0  0
  4  7  2  0  0  0  0
  5 16  2  0  0  0  0
  6 17  2  0  0  0  0
  7  3  1  0  0  0  0
  8 23  1  1  0  0  0
  8 12  1  0  0  0  0
  9  1  1  0  0  0  0
 10 18  1  0  0  0  0
 11  4  1  0  0  0  0
 13 18  1  6  0  0  0
 13  8  1  0  0  0  0
 14  5  1  0  0  0  0
 14  1  2  0  0  0  0
 15 20  2  0  0  0  0
 15  4  1  0  0  0  0
 16 12  1  0  0  0  0
 16 17  1  0  0  0  0
 19 10  1  0  0  0  0
 19  3  2  0  0  0  0
 20 19  1  0  0  0  0
 22 21  2  0  0  0  0
 23 22  1  0  0  0  0
 24 27  1  6  0  0  0
 24 31  1  0  0  0  0
 25 30  1  0  0  0  0
 28 24  1  0  0  0  0
 28 25  1  0  0  0  0
 29 26  1  6  0  0  0
 30 22  1  6  0  0  0
 30 29  1  0  0  0  0
 31 29  1  0  0  0  0
M  END
>  <MODEL>
3

>  <REMARK>
 VINA RESULT:      -8.6      1.666      4.147
  Name = 
  2 active torsions:
  status: ('A' for Active; 'I' for Inactive)
    1  A    between atoms: C_5  and  C_30
    2  A    between atoms: C_10  and  N_16
                            x       y       z     vdW  Elec       q    Type
                         _______ _______ _______ _____ _____    ______ ____

>  <TORSDO>
F 2

$$$$
=
 OpenBabel11112417033D

 31 35  0  0  1  0  0  0  0  0999 V2000
  184.8090  178.1120  146.8290 C   0  0  0  0  0  0  0  0  0  0  0  0
  187.3330  175.9830  144.9320 C   0  0  2  0  0  3  0  0  0  0  0  0
  187.3630  176.4600  143.4880 C   0  0  0  0  0  0  0  0  0  0  0  0
  186.2570  177.5740  141.6260 C   0  0  0  0  0  0  0  0  0  0  0  0
  186.7470  176.9970  145.8880 C   0  0  0  0  0  0  0  0  0  0  0  0
  185.6440  178.8890  147.6380 C   0  0  0  0  0  3  0  0  0  0  0  0
  186.2870  177.1990  142.9700 C   0  0  0  0  0  3  0  0  0  0  0  0
  189.6390  176.6470  145.7670 C   0  0  2  0  0  3  0  0  0  0  0  0
  183.3360  178.2910  146.8950 C   0  0  0  0  0  1  0  0  0  0  0  0
  189.5870  175.2740  143.0820 C   0  0  0  0  0  2  0  0  0  0  0  0
  185.1910  178.3180  141.1380 O   0  0  0  0  0  1  0  0  0  0  0  0
  188.9970  177.5610  146.7080 N   0  0  0  0  0  2  0  0  0  0  0  0
  188.7020  175.4760  145.4300 C   0  0  2  0  0  3  0  0  0  0  0  0
  185.3590  177.1670  145.9600 C   0  0  0  0  0  3  0  0  0  0  0  0
  187.2940  177.1980  140.7730 C   0  0  0  0  0  3  0  0  0  0  0  0
  187.5850  177.7780  146.7070 C   0  0  0  0  0  0  0  0  0  0  0  0
  187.0300  178.7180  147.5810 C   0  0  0  0  0  3  0  0  0  0  0  0
  189.3160  174.5370  144.3920 C   0  0  0  0  0  2  0  0  0  0  0  0
  188.3940  176.0500  142.6060 C   0  0  0  0  0  0  0  0  0  0  0  0
  188.3590  176.4400  141.2630 C   0  0  0  0  0  3  0  0  0  0  0  0
  192.2290  177.0040  144.6350 O   0  0  0  0  0  0  0  0  0  0  0  0
  192.1510  176.3720  145.7240 C   0  0  0  0  0  0  0  0  0  0  0  0
  190.8820  176.1510  146.3400 N   0  0  0  0  0  2  0  0  0  0  0  0
  195.7320  175.8730  144.5940 C   0  0  1  0  0  3  0  0  0  0  0  0
  194.4810  176.9010  146.5130 C   0  0  0  0  0  2  0  0  0  0  0  0
  192.9190  173.6130  145.5510 O   0  0  0  0  0  1  0  0  0  0  0  0
  196.3430  176.1380  143.3700 O   0  0  0  0  0  1  0  0  0  0  0  0
  195.1660  177.1670  145.1710 C   0  0  0  0  0  2  0  0  0  0  0  0
  193.9330  174.5560  145.7270 C   0  0  2  0  0  3  0  0  0  0  0  0
  193.3860  175.8340  146.3860 C   0  0  2  0  0  3  0  0  0  0  0  0
  194.6160  174.8520  144.3940 C   0  0  0  0  0  2  0  0  0  0  0  0
  1  9  1  0  0  0  0
  1  6  1  0  0  0  0
  2  3  1  6  0  0  0
  2 13  1  0  0  0  0
  2  5  1  0  0  0  0
  4  7  2  0  0  0  0
  5 14  1  0  0  0  0
  5 16  2  0  0  0  0
  7  3  1  0  0  0  0
  8 23  1  1  0  0  0
  8 12  1  0  0  0  0
 10 18  1  0  0  0  0
 11  4  1  0  0  0  0
 13 18  1  6  0  0  0
 13  8  1  0  0  0  0
 14  1  2  0  0  0  0
 15 20  2  0  0  0  0
 15  4  1  0  0  0  0
 16 12  1  0  0  0  0
 16 17  1  0  0  0  0
 17  6  2  0  0  0  0
 19 10  1  0  0  0  0
 19  3  2  0  0  0  0
 20 19  1  0  0  0  0
 21 22  2  0  0  0  0
 22 23  1  0  0  0  0
 24 27  1  6  0  0  0
 24 28  1  0  0  0  0
 28 25  1  0  0  0  0
 29 26  1  6  0  0  0
 29 30  1  0  0  0  0
 30 22  1  6  0  0  0
 30 25  1  0  0  0  0
 31 24  1  0  0  0  0
 31 29  1  0  0  0  0
M  END
>  <MODEL>
4

>  <REMARK>
 VINA RESULT:      -8.5      2.474      7.919
  Name = 
  2 active torsions:
  status: ('A' for Active; 'I' for Inactive)
    1  A    between atoms: C_5  and  C_30
    2  A    between atoms: C_10  and  N_16
                            x       y       z     vdW  Elec       q    Type
                         _______ _______ _______ _____ _____    ______ ____

>  <TORSDO>
F 2

$$$$
=
 OpenBabel11112417033D

 31 35  0  0  1  0  0  0  0  0999 V2000
  186.2650  177.8600  140.9880 C   0  0  0  0  0  0  0  0  0  0  0  0
  188.4930  177.9080  144.0760 C   0  0  2  0  0  3  0  0  0  0  0  0
  187.6390  177.5450  145.2820 C   0  0  0  0  0  0  0  0  0  0  0  0
  185.4470  177.4300  146.3360 C   0  0  0  0  0  0  0  0  0  0  0  0
  187.8820  177.4890  142.7590 C   0  0  0  0  0  0  0  0  0  0  0  0
  186.7210  176.7160  140.3270 C   0  0  0  0  0  3  0  0  0  0  0  0
  186.2420  177.6760  145.2170 C   0  0  0  0  0  3  0  0  0  0  0  0
  190.0490  175.9060  143.8980 C   0  0  2  0  0  3  0  0  0  0  0  0
  185.1620  178.6660  140.4040 C   0  0  0  0  0  1  0  0  0  0  0  0
  189.7170  177.0370  146.6750 C   0  0  0  0  0  2  0  0  0  0  0  0
  184.0660  177.5500  146.2460 O   0  0  0  0  0  1  0  0  0  0  0  0
  189.4520  175.6000  142.6020 N   0  0  0  0  0  2  0  0  0  0  0  0
  189.9490  177.4110  144.1960 C   0  0  2  0  0  3  0  0  0  0  0  0
  186.8470  178.2470  142.1980 C   0  0  0  0  0  3  0  0  0  0  0  0
  186.0380  177.0670  147.5460 C   0  0  0  0  0  3  0  0  0  0  0  0
  188.3410  176.3390  142.0880 C   0  0  0  0  0  0  0  0  0  0  0  0
  187.7620  175.9590  140.8740 C   0  0  0  0  0  3  0  0  0  0  0  0
  190.5020  177.7550  145.5790 C   0  0  0  0  0  2  0  0  0  0  0  0
  188.2340  177.2130  146.5240 C   0  0  0  0  0  0  0  0  0  0  0  0
  187.4270  176.9580  147.6380 C   0  0  0  0  0  3  0  0  0  0  0  0
  191.0070  173.4320  144.9380 O   0  0  0  0  0  0  0  0  0  0  0  0
  191.8540  174.2210  144.4370 C   0  0  0  0  0  0  0  0  0  0  0  0
  191.4410  175.4810  143.9060 N   0  0  0  0  0  2  0  0  0  0  0  0
  195.0660  176.1590  144.9600 C   0  0  1  0  0  3  0  0  0  0  0  0
  193.9840  174.0410  145.7630 C   0  0  0  0  0  2  0  0  0  0  0  0
  193.4450  174.4570  142.0600 O   0  0  0  0  0  1  0  0  0  0  0  0
  195.2770  177.5050  145.2550 O   0  0  0  0  0  1  0  0  0  0  0  0
  194.2380  175.5190  146.0680 C   0  0  0  0  0  2  0  0  0  0  0  0
  194.0980  174.5710  143.2880 C   0  0  2  0  0  3  0  0  0  0  0  0
  193.3100  173.8550  144.3980 C   0  0  2  0  0  3  0  0  0  0  0  0
  194.3400  176.0410  143.6230 C   0  0  0  0  0  2  0  0  0  0  0  0
  1 14  1  0  0  0  0
  2  5  1  6  0  0  0
  2 13  1  0  0  0  0
  2  3  1  0  0  0  0
  3 19  1  0  0  0  0
  4 15  2  0  0  0  0
  6 17  1  0  0  0  0
  6  1  2  0  0  0  0
  7  3  2  0  0  0  0
  7  4  1  0  0  0  0
  8 23  1  6  0  0  0
  8 13  1  0  0  0  0
  9  1  1  0  0  0  0
 11  4  1  0  0  0  0
 12  8  1  0  0  0  0
 13 18  1  1  0  0  0
 14  5  2  0  0  0  0
 15 20  1  0  0  0  0
 16 12  1  0  0  0  0
 16  5  1  0  0  0  0
 17 16  2  0  0  0  0
 18 10  1  0  0  0  0
 19 10  1  0  0  0  0
 19 20  2  0  0  0  0
 22 21  2  0  0  0  0
 23 22  1  0  0  0  0
 24 27  1  1  0  0  0
 24 28  1  0  0  0  0
 25 28  1  0  0  0  0
 29 26  1  6  0  0  0
 29 31  1  0  0  0  0
 29 30  1  0  0  0  0
 30 22  1  1  0  0  0
 30 25  1  0  0  0  0
 31 24  1  0  0  0  0
M  END
>  <MODEL>
5

>  <REMARK>
 VINA RESULT:      -8.5      2.526      7.256
  Name = 
  2 active torsions:
  status: ('A' for Active; 'I' for Inactive)
    1  A    between atoms: C_5  and  C_30
    2  A    between atoms: C_10  and  N_16
                            x       y       z     vdW  Elec       q    Type
                         _______ _______ _______ _____ _____    ______ ____

>  <TORSDO>
F 2

$$$$
=
 OpenBabel11112417033D

 31 35  0  0  1  0  0  0  0  0999 V2000
  193.2420  172.2770  141.2950 C   0  0  0  0  0  0  0  0  0  0  0  0
  191.4180  173.5060  144.4030 C   0  0  2  0  0  3  0  0  0  0  0  0
  192.3230  174.4940  145.1230 C   0  0  0  0  0  0  0  0  0  0  0  0
  194.5640  175.3320  145.5810 C   0  0  0  0  0  0  0  0  0  0  0  0
  191.7930  173.2930  142.9550 C   0  0  0  0  0  0  0  0  0  0  0  0
  192.5190  172.9020  140.2750 C   0  0  0  0  0  3  0  0  0  0  0  0
  193.7050  174.4930  144.8710 C   0  0  0  0  0  3  0  0  0  0  0  0
  189.5200  174.9960  143.6070 C   0  0  2  0  0  3  0  0  0  0  0  0
  194.3990  171.4070  140.9580 C   0  0  0  0  0  1  0  0  0  0  0  0
  190.3570  175.3980  146.4780 C   0  0  0  0  0  2  0  0  0  0  0  0
  195.9250  175.3270  145.3050 O   0  0  0  0  0  1  0  0  0  0  0  0
  189.9040  174.6940  142.2320 N   0  0  0  0  0  2  0  0  0  0  0  0
  189.9200  173.8450  144.5440 C   0  0  2  0  0  3  0  0  0  0  0  0
  192.8780  172.4690  142.6290 C   0  0  0  0  0  3  0  0  0  0  0  0
  194.0560  176.1740  146.5710 C   0  0  0  0  0  3  0  0  0  0  0  0
  191.0640  173.9180  141.9240 C   0  0  0  0  0  0  0  0  0  0  0  0
  191.4270  173.7170  140.5900 C   0  0  0  0  0  3  0  0  0  0  0  0
  189.5960  174.1620  146.0040 C   0  0  0  0  0  2  0  0  0  0  0  0
  191.8210  175.3240  146.1560 C   0  0  0  0  0  0  0  0  0  0  0  0
  192.6890  176.1700  146.8550 C   0  0  0  0  0  3  0  0  0  0  0  0
  188.2790  177.4360  144.4020 O   0  0  0  0  0  0  0  0  0  0  0  0
  187.5260  176.4780  144.0730 C   0  0  0  0  0  0  0  0  0  0  0  0
  188.0840  175.2260  143.6730 N   0  0  0  0  0  2  0  0  0  0  0  0
  185.1980  179.4650  144.1620 C   0  0  1  0  0  3  0  0  0  0  0  0
  185.5030  177.3440  142.8540 C   0  0  0  0  0  2  0  0  0  0  0  0
  186.0490  176.7010  146.5230 O   0  0  0  0  0  1  0  0  0  0  0  0
  185.4730  180.8310  144.1840 O   0  0  0  0  0  1  0  0  0  0  0  0
  185.7840  178.8470  142.8970 C   0  0  0  0  0  2  0  0  0  0  0  0
  185.5100  177.3070  145.3870 C   0  0  2  0  0  3  0  0  0  0  0  0
  186.0330  176.6350  144.1060 C   0  0  2  0  0  3  0  0  0  0  0  0
  185.8000  178.8060  145.4000 C   0  0  0  0  0  2  0  0  0  0  0  0
  1 14  1  0  0  0  0
  2  5  1  6  0  0  0
  2 13  1  0  0  0  0
  2  3  1  0  0  0  0
  3 19  1  0  0  0  0
  4 15  2  0  0  0  0
  6 17  1  0  0  0  0
  6  1  2  0  0  0  0
  7  3  2  0  0  0  0
  7  4  1  0  0  0  0
  8 23  1  6  0  0  0
  8 13  1  0  0  0  0
  9  1  1  0  0  0  0
 11  4  1  0  0  0  0
 12  8  1  0  0  0  0
 13 18  1  1  0  0  0
 14  5  2  0  0  0  0
 15 20  1  0  0  0  0
 16 12  1  0  0  0  0
 16  5  1  0  0  0  0
 17 16  2  0  0  0  0
 18 10  1  0  0  0  0
 19 10  1  0  0  0  0
 19 20  2  0  0  0  0
 22 21  2  0  0  0  0
 23 22  1  0  0  0  0
 24 27  1  1  0  0  0
 24 31  1  0  0  0  0
 25 28  1  0  0  0  0
 25 30  1  0  0  0  0
 28 24  1  0  0  0  0
 29 31  1  0  0  0  0
 29 26  1  1  0  0  0
 30 22  1  1  0  0  0
 30 29  1  0  0  0  0
M  END
>  <MODEL>
6

>  <REMARK>
 VINA RESULT:      -8.5      1.485      1.975
  Name = 
  2 active torsions:
  status: ('A' for Active; 'I' for Inactive)
    1  A    between atoms: C_5  and  C_30
    2  A    between atoms: C_10  and  N_16
                            x       y       z     vdW  Elec       q    Type
                         _______ _______ _______ _____ _____    ______ ____

>  <TORSDO>
F 2

$$$$
=
 OpenBabel11112417033D

 31 35  0  0  1  0  0  0  0  0999 V2000
  185.2380  177.7850  146.7050 C   0  0  0  0  0  0  0  0  0  0  0  0
  187.2100  175.9400  144.0200 C   0  0  2  0  0  3  0  0  0  0  0  0
  186.8830  176.5710  142.6750 C   0  0  0  0  0  0  0  0  0  0  0  0
  185.3520  177.8500  141.2790 C   0  0  0  0  0  0  0  0  0  0  0  0
  186.8810  176.8290  145.1970 C   0  0  0  0  0  0  0  0  0  0  0  0
  186.2480  178.4910  147.3640 C   0  0  0  0  0  3  0  0  0  0  0  0
  185.7130  177.3330  142.5230 C   0  0  0  0  0  3  0  0  0  0  0  0
  189.6520  176.5700  144.3310 C   0  0  2  0  0  3  0  0  0  0  0  0
  183.8270  177.9180  147.1500 C   0  0  0  0  0  1  0  0  0  0  0  0
  188.9360  175.4940  141.6050 C   0  0  0  0  0  2  0  0  0  0  0  0
  184.2000  178.6150  141.1540 O   0  0  0  0  0  1  0  0  0  0  0  0
  189.2650  177.3600  145.4950 N   0  0  0  0  0  2  0  0  0  0  0  0
  188.6600  175.4180  144.1060 C   0  0  2  0  0  3  0  0  0  0  0  0
  185.5550  176.9540  145.6270 C   0  0  0  0  0  3  0  0  0  0  0  0
  186.1450  177.5960  140.1600 C   0  0  0  0  0  3  0  0  0  0  0  0
  187.8970  177.5390  145.8670 C   0  0  0  0  0  0  0  0  0  0  0  0
  187.5770  178.3640  146.9490 C   0  0  0  0  0  3  0  0  0  0  0  0
  188.9960  174.6130  142.8510 C   0  0  0  0  0  2  0  0  0  0  0  0
  187.6630  176.2850  141.5270 C   0  0  0  0  0  0  0  0  0  0  0  0
  187.2970  176.8180  140.2860 C   0  0  0  0  0  3  0  0  0  0  0  0
  192.0610  178.0060  143.8260 O   0  0  0  0  0  0  0  0  0  0  0  0
  192.1660  176.8250  144.2560 C   0  0  0  0  0  0  0  0  0  0  0  0
  190.9980  176.0470  144.5210 N   0  0  0  0  0  2  0  0  0  0  0  0
  193.3960  173.2750  144.7430 C   0  0  1  0  0  3  0  0  0  0  0  0
  193.9320  175.2860  143.3390 C   0  0  0  0  0  2  0  0  0  0  0  0
  193.2090  176.3290  146.8830 O   0  0  0  0  0  1  0  0  0  0  0  0
  192.6990  172.0690  144.7730 O   0  0  0  0  0  1  0  0  0  0  0  0
  193.1830  173.9530  143.3930 C   0  0  0  0  0  2  0  0  0  0  0  0
  193.6510  175.5050  145.8460 C   0  0  2  0  0  3  0  0  0  0  0  0
  193.5170  176.2130  144.4870 C   0  0  2  0  0  3  0  0  0  0  0  0
  192.8990  174.1770  145.8700 C   0  0  0  0  0  2  0  0  0  0  0  0
  1  9  1  0  0  0  0
  1  6  1  0  0  0  0
  2  3  1  6  0  0  0
  2 13  1  0  0  0  0
  2  5  1  0  0  0  0
  4  7  2  0  0  0  0
  5 14  1  0  0  0  0
  5 16  2  0  0  0  0
  7  3  1  0  0  0  0
  8 23  1  1  0  0  0
  8 12  1  0  0  0  0
 10 18  1  0  0  0  0
 11  4  1  0  0  0  0
 12 16  1  0  0  0  0
 13 18  1  6  0  0  0
 13  8  1  0  0  0  0
 14  1  2  0  0  0  0
 15 20  2  0  0  0  0
 15  4  1  0  0  0  0
 16 17  1  0  0  0  0
 17  6  2  0  0  0  0
 19 10  1  0  0  0  0
 19  3  2  0  0  0  0
 20 19  1  0  0  0  0
 21 22  2  0  0  0  0
 22 23  1  0  0  0  0
 24 27  1  6  0  0  0
 24 31  1  0  0  0  0
 25 28  1  0  0  0  0
 25 30  1  0  0  0  0
 28 24  1  0  0  0  0
 29 31  1  0  0  0  0
 29 26  1  1  0  0  0
 30 22  1  6  0  0  0
 30 29  1  0  0  0  0
M  END
>  <MODEL>
7

>  <REMARK>
 VINA RESULT:      -8.4      2.518      7.864
  Name = 
  2 active torsions:
  status: ('A' for Active; 'I' for Inactive)
    1  A    between atoms: C_5  and  C_30
    2  A    between atoms: C_10  and  N_16
                            x       y       z     vdW  Elec       q    Type
                         _______ _______ _______ _____ _____    ______ ____

>  <TORSDO>
F 2

$$$$
=
 OpenBabel11112417033D

 31 35  0  0  1  0  0  0  0  0999 V2000
  185.8500  178.0050  140.7780 C   0  0  0  0  0  0  0  0  0  0  0  0
  188.4870  177.9950  143.5240 C   0  0  2  0  0  3  0  0  0  0  0  0
  187.8300  177.5160  144.8110 C   0  0  0  0  0  0  0  0  0  0  0  0
  185.8170  177.2200  146.1480 C   0  0  0  0  0  0  0  0  0  0  0  0
  187.7160  177.6200  142.2800 C   0  0  0  0  0  0  0  0  0  0  0  0
  186.2600  176.9270  139.9870 C   0  0  0  0  0  3  0  0  0  0  0  0
  186.4330  177.5740  144.9480 C   0  0  0  0  0  3  0  0  0  0  0  0
  190.0930  176.0960  143.0030 C   0  0  2  0  0  3  0  0  0  0  0  0
  184.6390  178.7810  140.4050 C   0  0  0  0  0  1  0  0  0  0  0  0
  190.1050  177.0430  145.8670 C   0  0  0  0  0  2  0  0  0  0  0  0
  184.4330  177.2690  146.2580 O   0  0  0  0  0  1  0  0  0  0  0  0
  189.3330  175.8330  141.7840 N   0  0  0  0  0  2  0  0  0  0  0  0
  189.9670  177.5730  143.4090 C   0  0  2  0  0  3  0  0  0  0  0  0
  186.5780  178.3520  141.9180 C   0  0  0  0  0  3  0  0  0  0  0  0
  186.5890  176.8200  147.2380 C   0  0  0  0  0  3  0  0  0  0  0  0
  188.1290  176.5380  141.4780 C   0  0  0  0  0  0  0  0  0  0  0  0
  187.4010  176.1990  140.3340 C   0  0  0  0  0  3  0  0  0  0  0  0
  190.6930  177.8650  144.7220 C   0  0  0  0  0  2  0  0  0  0  0  0
  188.6090  177.1460  145.9340 C   0  0  0  0  0  0  0  0  0  0  0  0
  187.9800  176.7830  147.1300 C   0  0  0  0  0  3  0  0  0  0  0  0
  191.5320  174.1080  144.4520 O   0  0  0  0  0  0  0  0  0  0  0  0
  192.1510  174.7330  143.5480 C   0  0  0  0  0  0  0  0  0  0  0  0
  191.4910  175.7480  142.7900 N   0  0  0  0  0  2  0  0  0  0  0  0
  194.6360  172.2290  144.9260 C   0  0  1  0  0  3  0  0  0  0  0  0
  193.7810  173.0150  142.7010 C   0  0  0  0  0  2  0  0  0  0  0  0
  194.3070  175.9470  145.0030 O   0  0  0  0  0  1  0  0  0  0  0  0
  194.4930  171.2570  145.9150 O   0  0  0  0  0  1  0  0  0  0  0  0
  193.6500  171.9550  143.7960 C   0  0  0  0  0  2  0  0  0  0  0  0
  194.5290  174.6820  144.4550 C   0  0  2  0  0  3  0  0  0  0  0  0
  193.5930  174.4300  143.2600 C   0  0  2  0  0  3  0  0  0  0  0  0
  194.3800  173.6070  145.5280 C   0  0  0  0  0  2  0  0  0  0  0  0
  1 14  1  0  0  0  0
  2  5  1  6  0  0  0
  2  3  1  0  0  0  0
  3  7  2  0  0  0  0
  3 19  1  0  0  0  0
  4 11  1  0  0  0  0
  4 15  2  0  0  0  0
  6 17  1  0  0  0  0
  6  1  2  0  0  0  0
  7  4  1  0  0  0  0
  8 23  1  6  0  0  0
  8 13  1  0  0  0  0
  9  1  1  0  0  0  0
 10 19  1  0  0  0  0
 12  8  1  0  0  0  0
 13  2  1  0  0  0  0
 13 18  1  1  0  0  0
 14  5  2  0  0  0  0
 16 12  1  0  0  0  0
 16  5  1  0  0  0  0
 17 16  2  0  0  0  0
 18 10  1  0  0  0  0
 19 20  2  0  0  0  0
 20 15  1  0  0  0  0
 22 21  2  0  0  0  0
 23 22  1  0  0  0  0
 24 31  1  0  0  0  0
 24 27  1  1  0  0  0
 25 30  1  0  0  0  0
 25 28  1  0  0  0  0
 28 24  1  0  0  0  0
 29 26  1  1  0  0  0
 29 31  1  0  0  0  0
 30 22  1  1  0  0  0
 30 29  1  0  0  0  0
M  END
>  <MODEL>
8

>  <REMARK>
 VINA RESULT:      -8.3      2.820      7.536
  Name = 
  2 active torsions:
  status: ('A' for Active; 'I' for Inactive)
    1  A    between atoms: C_5  and  C_30
    2  A    between atoms: C_10  and  N_16
                            x       y       z     vdW  Elec       q    Type
                         _______ _______ _______ _____ _____    ______ ____

>  <TORSDO>
F 2

$$$$
=
 OpenBabel11112417033D

 31 35  0  0  1  0  0  0  0  0999 V2000
  190.2980  171.9100  142.1050 C   0  0  0  0  0  0  0  0  0  0  0  0
  189.5260  174.4210  144.8610 C   0  0  2  0  0  3  0  0  0  0  0  0
  190.8440  174.9880  145.3680 C   0  0  0  0  0  0  0  0  0  0  0  0
  193.2490  174.7490  145.6670 C   0  0  0  0  0  0  0  0  0  0  0  0
  189.6310  173.7830  143.4950 C   0  0  0  0  0  0  0  0  0  0  0  0
  189.8570  172.5920  140.9670 C   0  0  0  0  0  3  0  0  0  0  0  0
  192.0410  174.2910  145.1390 C   0  0  0  0  0  3  0  0  0  0  0  0
  188.4650  176.4430  143.7450 C   0  0  2  0  0  3  0  0  0  0  0  0
  190.8900  170.5540  141.9740 C   0  0  0  0  0  1  0  0  0  0  0  0
  189.6410  176.9490  146.4760 C   0  0  0  0  0  2  0  0  0  0  0  0
  194.4240  174.0540  145.4150 O   0  0  0  0  0  1  0  0  0  0  0  0
  188.5440  175.7370  142.4690 N   0  0  0  0  0  2  0  0  0  0  0  0
  188.3700  175.4430  144.9090 C   0  0  2  0  0  3  0  0  0  0  0  0
  190.1820  172.5020  143.3640 C   0  0  0  0  0  3  0  0  0  0  0  0
  193.2750  175.9030  146.4500 C   0  0  0  0  0  3  0  0  0  0  0  0
  189.1840  174.4660  142.3470 C   0  0  0  0  0  0  0  0  0  0  0  0
  189.2950  173.8660  141.0890 C   0  0  0  0  0  3  0  0  0  0  0  0
  188.3580  176.1480  146.2650 C   0  0  0  0  0  2  0  0  0  0  0  0
  190.8730  176.1370  146.1960 C   0  0  0  0  0  0  0  0  0  0  0  0
  192.0900  176.5940  146.7110 C   0  0  0  0  0  3  0  0  0  0  0  0
  188.0380  178.5890  141.9200 O   0  0  0  0  0  0  0  0  0  0  0  0
  187.1510  178.3810  142.7930 C   0  0  0  0  0  0  0  0  0  0  0  0
  187.3070  177.3260  143.7430 N   0  0  0  0  0  2  0  0  0  0  0  0
  184.2920  178.7080  145.2560 C   0  0  1  0  0  3  0  0  0  0  0  0
  185.9400  180.1810  144.0660 C   0  0  0  0  0  2  0  0  0  0  0  0
  184.6230  177.5440  141.7250 O   0  0  0  0  0  1  0  0  0  0  0  0
  184.0340  178.0280  146.4440 O   0  0  0  0  0  1  0  0  0  0  0  0
  185.6300  179.4330  145.3630 C   0  0  0  0  0  2  0  0  0  0  0  0
  184.6070  178.4470  142.7890 C   0  0  2  0  0  3  0  0  0  0  0  0
  185.9220  179.2410  142.8540 C   0  0  2  0  0  3  0  0  0  0  0  0
  184.3210  177.7150  144.0980 C   0  0  0  0  0  2  0  0  0  0  0  0
  1 14  1  0  0  0  0
  2  5  1  6  0  0  0
  2 13  1  0  0  0  0
  2  3  1  0  0  0  0
  3 19  1  0  0  0  0
  4 15  2  0  0  0  0
  6 17  1  0  0  0  0
  6  1  2  0  0  0  0
  7  3  2  0  0  0  0
  7  4  1  0  0  0  0
  8 23  1  6  0  0  0
  8 13  1  0  0  0  0
  9  1  1  0  0  0  0
 11  4  1  0  0  0  0
 12  8  1  0  0  0  0
 13 18  1  1  0  0  0
 14  5  2  0  0  0  0
 15 20  1  0  0  0  0
 16 12  1  0  0  0  0
 16  5  1  0  0  0  0
 17 16  2  0  0  0  0
 18 10  1  0  0  0  0
 19 10  1  0  0  0  0
 19 20  2  0  0  0  0
 21 22  2  0  0  0  0
 22 23  1  0  0  0  0
 24 28  1  0  0  0  0
 24 27  1  1  0  0  0
 25 28  1  0  0  0  0
 29 26  1  6  0  0  0
 29 30  1  0  0  0  0
 29 31  1  0  0  0  0
 30 22  1  1  0  0  0
 30 25  1  0  0  0  0
 31 24  1  0  0  0  0
M  END
>  <MODEL>
9

>  <REMARK>
 VINA RESULT:      -8.1      2.035      2.888
  Name = 
  2 active torsions:
  status: ('A' for Active; 'I' for Inactive)
    1  A    between atoms: C_5  and  C_30
    2  A    between atoms: C_10  and  N_16
                            x       y       z     vdW  Elec       q    Type
                         _______ _______ _______ _____ _____    ______ ____

>  <TORSDO>
F 2

$$$$
