=
 OpenBabel11112416203D

 30 35  0  0  1  0  0  0  0  0999 V2000
  186.5140  176.9000  143.7540 C   0  0  2  0  0  3  0  0  0  0  0  0
  184.9430  178.3080  145.2120 C   0  0  0  0  0  0  0  0  0  0  0  0
  189.0210  176.5440  147.1030 N   0  0  0  0  0  2  0  0  0  0  0  0
  188.0310  176.6560  143.6760 C   0  0  2  0  0  3  0  0  0  0  0  0
  186.1770  177.7560  142.6880 O   0  0  0  0  0  0  0  0  0  0  0  0
  187.7970  175.9470  140.0860 O   0  0  0  0  0  0  0  0  0  0  0  0
  190.8180  175.7180  142.6200 C   0  0  1  0  0  3  0  0  0  0  0  0
  187.4930  176.3420  141.2470 C   0  0  0  0  0  0  0  0  0  0  0  0
  191.1010  175.6950  144.1180 C   0  0  2  0  0  3  0  0  0  0  0  0
  190.2040  176.4710  146.3450 C   0  0  0  0  0  0  0  0  0  0  0  0
  186.1530  176.9820  141.5100 C   0  0  2  0  0  3  0  0  0  0  0  0
  188.3580  176.0640  142.3630 N   0  0  0  0  0  0  0  0  0  0  0  0
  184.5680  178.8090  146.4620 C   0  0  0  0  0  3  0  0  0  0  0  0
  191.6990  174.3430  144.4240 C   0  0  0  0  0  2  0  0  0  0  0  0
  191.9490  174.8830  142.0420 C   0  0  0  0  0  2  0  0  0  0  0  0
  184.1120  178.6070  144.0940 N   0  0  0  0  0  1  0  0  0  0  0  0
  187.9300  176.1250  146.2270 C   0  0  2  0  0  3  0  0  0  0  0  0
  185.2980  178.4830  147.6010 C   0  0  0  0  0  3  0  0  0  0  0  0
  186.0980  177.4920  145.0830 C   0  0  0  0  0  0  0  0  0  0  0  0
  188.5670  175.8100  144.8380 C   0  0  2  0  0  3  0  0  0  0  0  0
  191.3390  176.7420  146.8210 O   0  0  0  0  0  0  0  0  0  0  0  0
  189.9980  176.0550  145.0120 N   0  0  0  0  0  0  0  0  0  0  0  0
  192.4360  173.9540  143.1530 C   0  0  0  0  0  2  0  0  0  0  0  0
  189.1390  173.7350  142.6750 C   0  0  0  0  0  1  0  0  0  0  0  0
  186.3980  177.6350  147.4960 C   0  0  0  0  0  3  0  0  0  0  0  0
  186.8090  177.1350  146.2520 C   0  0  0  0  0  0  0  0  0  0  0  0
  189.4700  175.1350  142.1630 C   0  0  2  0  0  3  0  0  0  0  0  0
  185.6520  177.8250  140.3320 C   0  0  0  0  0  2  0  0  0  0  0  0
  183.1500  177.8040  140.2580 C   0  0  0  0  0  1  0  0  0  0  0  0
  184.3800  178.6020  140.6530 C   0  0  0  0  0  2  0  0  0  0  0  0
  1  5  1  6  0  0  0
  1 19  1  0  0  0  0
  2 13  1  0  0  0  0
  4 12  1  6  0  0  0
  4  1  1  0  0  0  0
  4 20  1  0  0  0  0
  6  8  2  0  0  0  0
  7 15  1  6  0  0  0
  7  9  1  0  0  0  0
  8 11  1  0  0  0  0
  8 12  1  0  0  0  0
  9 14  1  1  0  0  0
  9 22  1  0  0  0  0
 10 21  2  0  0  0  0
 10  3  1  0  0  0  0
 11 28  1  6  0  0  0
 11  5  1  0  0  0  0
 13 18  2  0  0  0  0
 15 23  1  0  0  0  0
 16  2  1  0  0  0  0
 17 26  1  6  0  0  0
 17  3  1  0  0  0  0
 19  2  2  0  0  0  0
 19 26  1  0  0  0  0
 20 22  1  1  0  0  0
 20 17  1  0  0  0  0
 22 10  1  0  0  0  0
 23 14  1  0  0  0  0
 25 18  1  0  0  0  0
 26 25  2  0  0  0  0
 27 12  1  0  0  0  0
 27  7  1  0  0  0  0
 27 24  1  1  0  0  0
 28 30  1  0  0  0  0
 29 30  1  0  0  0  0
M  END
>  <MODEL>
1

>  <REMARK>
 VINA RESULT:      -8.6      0.000      0.000
  Name = 
  2 active torsions:
  status: ('A' for Active; 'I' for Inactive)
    1  A    between atoms: C_11  and  C_28
    2  A    between atoms: C_28  and  C_30
                            x       y       z     vdW  Elec       q    Type
                         _______ _______ _______ _____ _____    ______ ____

>  <TORSDO>
F 2

$$$$
=
 OpenBabel11112416203D

 30 35  0  0  1  0  0  0  0  0999 V2000
  189.7700  175.3240  144.0610 C   0  0  2  0  0  3  0  0  0  0  0  0
  191.5430  174.0180  142.7470 C   0  0  0  0  0  0  0  0  0  0  0  0
  187.6200  175.6780  140.4720 N   0  0  0  0  0  2  0  0  0  0  0  0
  188.7790  176.4600  143.7550 C   0  0  2  0  0  3  0  0  0  0  0  0
  190.8320  175.8860  144.7950 O   0  0  0  0  0  0  0  0  0  0  0  0
  188.8800  177.5720  147.2480 O   0  0  0  0  0  0  0  0  0  0  0  0
  186.6930  178.7490  144.1760 C   0  0  1  0  0  3  0  0  0  0  0  0
  189.1850  176.9810  146.1740 C   0  0  0  0  0  0  0  0  0  0  0  0
  186.2880  178.2990  142.7770 C   0  0  2  0  0  3  0  0  0  0  0  0
  187.0550  176.9220  140.8060 C   0  0  0  0  0  0  0  0  0  0  0  0
  190.3850  176.0680  146.1200 C   0  0  2  0  0  3  0  0  0  0  0  0
  188.3210  177.0560  145.0270 N   0  0  0  0  0  0  0  0  0  0  0  0
  191.9610  173.3750  141.5780 C   0  0  0  0  0  3  0  0  0  0  0  0
  184.7950  178.0730  142.8110 C   0  0  0  0  0  2  0  0  0  0  0  0
  185.4920  179.5550  144.6410 C   0  0  0  0  0  2  0  0  0  0  0  0
  192.4080  173.9790  143.8780 N   0  0  0  0  0  1  0  0  0  0  0  0
  187.9850  175.0260  141.7270 C   0  0  2  0  0  3  0  0  0  0  0  0
  191.1230  173.3120  140.4690 C   0  0  0  0  0  3  0  0  0  0  0  0
  190.2730  174.6510  142.8020 C   0  0  0  0  0  0  0  0  0  0  0  0
  187.6060  176.0170  142.8720 C   0  0  2  0  0  3  0  0  0  0  0  0
  186.6080  177.7240  139.9440 O   0  0  0  0  0  0  0  0  0  0  0  0
  187.0280  177.1770  142.1940 N   0  0  0  0  0  0  0  0  0  0  0  0
  184.2830  179.0600  143.8480 C   0  0  0  0  0  2  0  0  0  0  0  0
  185.9160  176.5660  145.3520 C   0  0  0  0  0  1  0  0  0  0  0  0
  189.8520  173.8770  140.5310 C   0  0  0  0  0  3  0  0  0  0  0  0
  189.4150  174.5470  141.6830 C   0  0  0  0  0  0  0  0  0  0  0  0
  186.9900  177.6390  145.1980 C   0  0  2  0  0  3  0  0  0  0  0  0
  191.5390  176.5450  147.0080 C   0  0  0  0  0  2  0  0  0  0  0  0
  193.9950  176.5260  146.5240 C   0  0  0  0  0  1  0  0  0  0  0  0
  192.7870  175.6780  146.8810 C   0  0  0  0  0  2  0  0  0  0  0  0
  1 19  1  6  0  0  0
  1  5  1  0  0  0  0
  2 19  1  0  0  0  0
  2 16  1  0  0  0  0
  3 10  1  0  0  0  0
  4  1  1  0  0  0  0
  4 12  1  1  0  0  0
  5 11  1  0  0  0  0
  7 15  1  1  0  0  0
  7 27  1  0  0  0  0
  8  6  2  0  0  0  0
  9 14  1  1  0  0  0
  9  7  1  0  0  0  0
 10 22  1  0  0  0  0
 11  8  1  0  0  0  0
 11 28  1  1  0  0  0
 12 27  1  0  0  0  0
 12  8  1  0  0  0  0
 13  2  2  0  0  0  0
 14 23  1  0  0  0  0
 17  3  1  6  0  0  0
 17 20  1  0  0  0  0
 18 25  2  0  0  0  0
 18 13  1  0  0  0  0
 20 22  1  6  0  0  0
 20  4  1  0  0  0  0
 21 10  2  0  0  0  0
 22  9  1  0  0  0  0
 23 15  1  0  0  0  0
 25 26  1  0  0  0  0
 26 17  1  0  0  0  0
 26 19  2  0  0  0  0
 27 24  1  6  0  0  0
 29 30  1  0  0  0  0
 30 28  1  0  0  0  0
M  END
>  <MODEL>
2

>  <REMARK>
 VINA RESULT:      -8.5      1.874      7.272
  Name = 
  2 active torsions:
  status: ('A' for Active; 'I' for Inactive)
    1  A    between atoms: C_11  and  C_28
    2  A    between atoms: C_28  and  C_30
                            x       y       z     vdW  Elec       q    Type
                         _______ _______ _______ _____ _____    ______ ____

>  <TORSDO>
F 2

$$$$
=
 OpenBabel11112416203D

 30 35  0  0  1  0  0  0  0  0999 V2000
  190.1590  175.5620  143.5770 C   0  0  2  0  0  3  0  0  0  0  0  0
  192.0450  174.5360  144.9800 C   0  0  0  0  0  0  0  0  0  0  0  0
  188.8500  177.4960  147.0660 N   0  0  0  0  0  2  0  0  0  0  0  0
  188.7070  176.0030  143.8280 C   0  0  2  0  0  3  0  0  0  0  0  0
  190.1070  174.3370  142.8840 O   0  0  0  0  0  0  0  0  0  0  0  0
  187.8320  175.3280  140.3310 O   0  0  0  0  0  0  0  0  0  0  0  0
  185.7730  176.9370  143.2940 C   0  0  1  0  0  3  0  0  0  0  0  0
  188.4670  175.3330  141.4230 C   0  0  0  0  0  0  0  0  0  0  0  0
  185.9770  177.5410  144.6790 C   0  0  2  0  0  3  0  0  0  0  0  0
  187.4930  177.4820  146.6950 C   0  0  0  0  0  0  0  0  0  0  0  0
  189.7930  174.6220  141.5390 C   0  0  2  0  0  3  0  0  0  0  0  0
  188.0100  176.1290  142.5320 N   0  0  0  0  0  0  0  0  0  0  0  0
  192.7710  174.4640  146.1720 C   0  0  0  0  0  3  0  0  0  0  0  0
  185.5660  178.9910  144.5820 C   0  0  0  0  0  2  0  0  0  0  0  0
  184.5560  177.6800  142.7680 C   0  0  0  0  0  2  0  0  0  0  0  0
  192.4690  173.7260  143.8880 N   0  0  0  0  0  1  0  0  0  0  0  0
  189.6280  177.3910  145.8350 C   0  0  2  0  0  3  0  0  0  0  0  0
  192.4520  175.2910  147.2450 C   0  0  0  0  0  3  0  0  0  0  0  0
  190.9460  175.4270  144.8640 C   0  0  0  0  0  0  0  0  0  0  0  0
  188.6020  177.2840  144.6640 C   0  0  2  0  0  3  0  0  0  0  0  0
  186.5550  177.5870  147.5280 O   0  0  0  0  0  0  0  0  0  0  0  0
  187.2880  177.3530  145.3040 N   0  0  0  0  0  0  0  0  0  0  0  0
  184.4840  179.0110  143.5140 C   0  0  0  0  0  2  0  0  0  0  0  0
  187.4710  178.5080  142.1080 C   0  0  0  0  0  1  0  0  0  0  0  0
  191.4130  176.2100  147.1220 C   0  0  0  0  0  3  0  0  0  0  0  0
  190.6550  176.2900  145.9450 C   0  0  0  0  0  0  0  0  0  0  0  0
  186.9340  177.0910  142.2960 C   0  0  2  0  0  3  0  0  0  0  0  0
  189.8600  173.3440  140.6960 C   0  0  0  0  0  2  0  0  0  0  0  0
  190.7460  171.1250  141.4430 C   0  0  0  0  0  1  0  0  0  0  0  0
  189.5700  172.0830  141.5030 C   0  0  0  0  0  2  0  0  0  0  0  0
  1  5  1  1  0  0  0
  1  4  1  0  0  0  0
  1 19  1  0  0  0  0
  2 13  1  0  0  0  0
  4 12  1  6  0  0  0
  4 20  1  0  0  0  0
  6  8  2  0  0  0  0
  7 15  1  6  0  0  0
  7  9  1  0  0  0  0
  8 11  1  0  0  0  0
  8 12  1  0  0  0  0
  9 14  1  6  0  0  0
  9 22  1  0  0  0  0
 10  3  1  0  0  0  0
 10 21  2  0  0  0  0
 11 28  1  6  0  0  0
 11  5  1  0  0  0  0
 13 18  2  0  0  0  0
 15 23  1  0  0  0  0
 16  2  1  0  0  0  0
 17 26  1  1  0  0  0
 17  3  1  0  0  0  0
 19  2  2  0  0  0  0
 19 26  1  0  0  0  0
 20 22  1  1  0  0  0
 20 17  1  0  0  0  0
 22 10  1  0  0  0  0
 23 14  1  0  0  0  0
 25 18  1  0  0  0  0
 26 25  2  0  0  0  0
 27 24  1  1  0  0  0
 27 12  1  0  0  0  0
 27  7  1  0  0  0  0
 28 30  1  0  0  0  0
 29 30  1  0  0  0  0
M  END
>  <MODEL>
3

>  <REMARK>
 VINA RESULT:      -8.4      1.999      5.795
  Name = 
  2 active torsions:
  status: ('A' for Active; 'I' for Inactive)
    1  A    between atoms: C_11  and  C_28
    2  A    between atoms: C_28  and  C_30
                            x       y       z     vdW  Elec       q    Type
                         _______ _______ _______ _____ _____    ______ ____

>  <TORSDO>
F 2

$$$$
=
 OpenBabel11112416203D

 30 35  0  0  1  0  0  0  0  0999 V2000
  186.9400  177.1580  144.0200 C   0  0  2  0  0  3  0  0  0  0  0  0
  184.7870  178.1380  143.0300 C   0  0  0  0  0  0  0  0  0  0  0  0
  187.8160  175.6700  140.1930 N   0  0  0  0  0  2  0  0  0  0  0  0
  187.8200  175.9250  143.7520 C   0  0  2  0  0  3  0  0  0  0  0  0
  186.1970  176.8920  145.1860 O   0  0  0  0  0  0  0  0  0  0  0  0
  188.9050  175.8620  147.2550 O   0  0  0  0  0  0  0  0  0  0  0  0
  190.0150  173.7310  144.1190 C   0  0  1  0  0  3  0  0  0  0  0  0
  188.2440  176.1400  146.2150 C   0  0  0  0  0  0  0  0  0  0  0  0
  189.9250  173.7400  142.5970 C   0  0  2  0  0  3  0  0  0  0  0  0
  188.5060  174.5400  140.6710 C   0  0  0  0  0  0  0  0  0  0  0  0
  187.0580  177.0700  146.2890 C   0  0  2  0  0  3  0  0  0  0  0  0
  188.6900  175.6900  144.9230 N   0  0  0  0  0  0  0  0  0  0  0  0
  183.9870  178.4460  141.9250 C   0  0  0  0  0  3  0  0  0  0  0  0
  191.3380  173.8760  142.0820 C   0  0  0  0  0  2  0  0  0  0  0  0
  191.3330  173.0220  144.3840 C   0  0  0  0  0  2  0  0  0  0  0  0
  184.3370  178.5490  144.3170 N   0  0  0  0  0  1  0  0  0  0  0  0
  187.8550  176.6720  141.2540 C   0  0  2  0  0  3  0  0  0  0  0  0
  184.4150  178.1400  140.6370 C   0  0  0  0  0  3  0  0  0  0  0  0
  186.0290  177.4730  142.8530 C   0  0  0  0  0  0  0  0  0  0  0  0
  188.6240  176.0280  142.4500 C   0  0  2  0  0  3  0  0  0  0  0  0
  188.6790  173.5010  139.9810 O   0  0  0  0  0  0  0  0  0  0  0  0
  188.9930  174.6910  141.9870 N   0  0  0  0  0  0  0  0  0  0  0  0
  192.1970  173.1970  143.1360 C   0  0  0  0  0  2  0  0  0  0  0  0
  191.0490  176.1090  144.2990 C   0  0  0  0  0  1  0  0  0  0  0  0
  185.6580  177.5420  140.4460 C   0  0  0  0  0  3  0  0  0  0  0  0
  186.4720  177.2030  141.5380 C   0  0  0  0  0  0  0  0  0  0  0  0
  190.0250  175.1020  144.8170 C   0  0  2  0  0  3  0  0  0  0  0  0
  186.2750  176.9340  147.5990 C   0  0  0  0  0  2  0  0  0  0  0  0
  185.9420  179.4150  147.6340 C   0  0  0  0  0  1  0  0  0  0  0  0
  185.2730  178.0640  147.8150 C   0  0  0  0  0  2  0  0  0  0  0  0
  1 19  1  6  0  0  0
  1  5  1  0  0  0  0
  2 16  1  0  0  0  0
  3 10  1  0  0  0  0
  4  1  1  0  0  0  0
  4 12  1  1  0  0  0
  5 11  1  0  0  0  0
  7 15  1  6  0  0  0
  7 27  1  0  0  0  0
  8 11  1  0  0  0  0
  8  6  2  0  0  0  0
  9 14  1  6  0  0  0
  9  7  1  0  0  0  0
 10 22  1  0  0  0  0
 11 28  1  1  0  0  0
 12  8  1  0  0  0  0
 13  2  2  0  0  0  0
 14 23  1  0  0  0  0
 17  3  1  6  0  0  0
 17 26  1  0  0  0  0
 17 20  1  0  0  0  0
 18 13  1  0  0  0  0
 19  2  1  0  0  0  0
 20 22  1  6  0  0  0
 20  4  1  0  0  0  0
 21 10  2  0  0  0  0
 22  9  1  0  0  0  0
 23 15  1  0  0  0  0
 25 18  2  0  0  0  0
 25 26  1  0  0  0  0
 26 19  2  0  0  0  0
 27 24  1  6  0  0  0
 27 12  1  0  0  0  0
 28 30  1  0  0  0  0
 29 30  1  0  0  0  0
M  END
>  <MODEL>
4

>  <REMARK>
 VINA RESULT:      -8.3      1.411      4.781
  Name = 
  2 active torsions:
  status: ('A' for Active; 'I' for Inactive)
    1  A    between atoms: C_11  and  C_28
    2  A    between atoms: C_28  and  C_30
                            x       y       z     vdW  Elec       q    Type
                         _______ _______ _______ _____ _____    ______ ____

>  <TORSDO>
F 2

$$$$
=
 OpenBabel11112416203D

 30 35  0  0  1  0  0  0  0  0999 V2000
  187.0070  176.4420  143.7330 C   0  0  2  0  0  3  0  0  0  0  0  0
  184.9070  177.9120  143.7470 C   0  0  0  0  0  0  0  0  0  0  0  0
  187.8220  177.8700  147.5960 N   0  0  0  0  0  2  0  0  0  0  0  0
  188.4160  176.5170  144.3470 C   0  0  2  0  0  3  0  0  0  0  0  0
  187.1340  176.7600  142.3670 O   0  0  0  0  0  0  0  0  0  0  0  0
  189.7910  174.5210  141.5960 O   0  0  0  0  0  0  0  0  0  0  0  0
  191.4190  175.8790  144.9290 C   0  0  1  0  0  3  0  0  0  0  0  0
  188.9990  175.2360  142.2720 C   0  0  0  0  0  0  0  0  0  0  0  0
  191.0230  176.4620  146.2810 C   0  0  2  0  0  3  0  0  0  0  0  0
  189.2200  177.7820  147.4510 C   0  0  0  0  0  0  0  0  0  0  0  0
  187.6530  175.6250  141.7110 C   0  0  2  0  0  3  0  0  0  0  0  0
  189.3030  175.5740  143.6370 N   0  0  0  0  0  0  0  0  0  0  0  0
  184.0070  178.7400  144.4250 C   0  0  0  0  0  3  0  0  0  0  0  0
  191.4800  175.4750  147.3280 C   0  0  0  0  0  2  0  0  0  0  0  0
  192.7200  175.1540  145.2320 C   0  0  0  0  0  2  0  0  0  0  0  0
  184.6320  177.6000  142.3850 N   0  0  0  0  0  1  0  0  0  0  0  0
  187.2370  176.9390  146.6350 C   0  0  2  0  0  3  0  0  0  0  0  0
  184.1810  179.0130  145.7780 C   0  0  0  0  0  3  0  0  0  0  0  0
  186.0330  177.3720  144.4220 C   0  0  0  0  0  0  0  0  0  0  0  0
  188.4260  176.2860  145.8630 C   0  0  2  0  0  3  0  0  0  0  0  0
  190.0230  178.4430  148.1610 O   0  0  0  0  0  0  0  0  0  0  0  0
  189.6290  176.8770  146.4480 N   0  0  0  0  0  0  0  0  0  0  0  0
  192.7110  174.8180  146.7230 C   0  0  0  0  0  2  0  0  0  0  0  0
  189.9590  173.7410  145.1680 C   0  0  0  0  0  1  0  0  0  0  0  0
  185.2490  178.4420  146.4660 C   0  0  0  0  0  3  0  0  0  0  0  0
  186.1780  177.6240  145.8060 C   0  0  0  0  0  0  0  0  0  0  0  0
  190.4260  174.8960  144.2850 C   0  0  2  0  0  3  0  0  0  0  0  0
  187.6820  175.8550  140.1960 C   0  0  0  0  0  2  0  0  0  0  0  0
  186.3120  176.8880  138.3740 C   0  0  0  0  0  1  0  0  0  0  0  0
  186.8890  177.0840  139.7650 C   0  0  0  0  0  2  0  0  0  0  0  0
  1  5  1  6  0  0  0
  1  4  1  0  0  0  0
  1 19  1  0  0  0  0
  2 19  2  0  0  0  0
  2 13  1  0  0  0  0
  4 12  1  6  0  0  0
  4 20  1  0  0  0  0
  6  8  2  0  0  0  0
  7 15  1  1  0  0  0
  7  9  1  0  0  0  0
  8 12  1  0  0  0  0
  9 22  1  0  0  0  0
  9 14  1  1  0  0  0
 10  3  1  0  0  0  0
 10 21  2  0  0  0  0
 11 28  1  6  0  0  0
 11  8  1  0  0  0  0
 11  5  1  0  0  0  0
 12 27  1  0  0  0  0
 13 18  2  0  0  0  0
 15 23  1  0  0  0  0
 16  2  1  0  0  0  0
 17 26  1  6  0  0  0
 17  3  1  0  0  0  0
 18 25  1  0  0  0  0
 19 26  1  0  0  0  0
 20 22  1  1  0  0  0
 20 17  1  0  0  0  0
 22 10  1  0  0  0  0
 23 14  1  0  0  0  0
 26 25  2  0  0  0  0
 27  7  1  0  0  0  0
 27 24  1  1  0  0  0
 29 30  1  0  0  0  0
 30 28  1  0  0  0  0
M  END
>  <MODEL>
5

>  <REMARK>
 VINA RESULT:      -8.3      1.702      2.248
  Name = 
  2 active torsions:
  status: ('A' for Active; 'I' for Inactive)
    1  A    between atoms: C_11  and  C_28
    2  A    between atoms: C_28  and  C_30
                            x       y       z     vdW  Elec       q    Type
                         _______ _______ _______ _____ _____    ______ ____

>  <TORSDO>
F 2

$$$$
=
 OpenBabel11112416203D

 30 35  0  0  1  0  0  0  0  0999 V2000
  191.4750  174.9800  144.0880 C   0  0  2  0  0  3  0  0  0  0  0  0
  192.5870  174.2330  141.9020 C   0  0  0  0  0  0  0  0  0  0  0  0
  187.8250  175.0200  142.0130 N   0  0  0  0  0  2  0  0  0  0  0  0
  190.2700  175.8560  144.4740 C   0  0  2  0  0  3  0  0  0  0  0  0
  192.6350  175.7390  144.3360 O   0  0  0  0  0  0  0  0  0  0  0  0
  191.8540  176.7400  147.6610 O   0  0  0  0  0  0  0  0  0  0  0  0
  188.2730  177.5340  146.1950 C   0  0  1  0  0  3  0  0  0  0  0  0
  191.7000  176.3090  146.4840 C   0  0  0  0  0  0  0  0  0  0  0  0
  187.3280  177.0860  145.0850 C   0  0  2  0  0  3  0  0  0  0  0  0
  187.2760  176.0650  142.7790 C   0  0  0  0  0  0  0  0  0  0  0  0
  192.8660  175.7230  145.7270 C   0  0  2  0  0  3  0  0  0  0  0  0
  190.3890  176.2420  145.8950 N   0  0  0  0  0  0  0  0  0  0  0  0
  192.4930  173.7850  140.5810 C   0  0  0  0  0  3  0  0  0  0  0  0
  186.1120  176.5010  145.7630 C   0  0  0  0  0  2  0  0  0  0  0  0
  187.3260  177.9910  147.2930 C   0  0  0  0  0  2  0  0  0  0  0  0
  193.8840  174.3360  142.4830 N   0  0  0  0  0  1  0  0  0  0  0  0
  188.8680  174.4010  142.8260 C   0  0  2  0  0  3  0  0  0  0  0  0
  191.2490  173.5880  139.9900 C   0  0  0  0  0  3  0  0  0  0  0  0
  191.4140  174.5310  142.6440 C   0  0  0  0  0  0  0  0  0  0  0  0
  188.9200  175.1950  144.1680 C   0  0  2  0  0  3  0  0  0  0  0  0
  186.3260  176.7850  142.3720 O   0  0  0  0  0  0  0  0  0  0  0  0
  187.8830  176.2190  144.0440 N   0  0  0  0  0  0  0  0  0  0  0  0
  185.9990  177.2660  147.0720 C   0  0  0  0  0  2  0  0  0  0  0  0
  188.5850  175.1580  147.2010 C   0  0  0  0  0  1  0  0  0  0  0  0
  190.0900  173.8200  140.7270 C   0  0  0  0  0  3  0  0  0  0  0  0
  190.1560  174.2900  142.0470 C   0  0  0  0  0  0  0  0  0  0  0  0
  189.2290  176.4700  146.7580 C   0  0  2  0  0  3  0  0  0  0  0  0
  194.1960  176.4110  146.0510 C   0  0  0  0  0  2  0  0  0  0  0  0
  195.7270  174.4460  145.8060 C   0  0  0  0  0  1  0  0  0  0  0  0
  195.3740  175.8260  145.2800 C   0  0  0  0  0  2  0  0  0  0  0  0
  1 19  1  6  0  0  0
  1  5  1  0  0  0  0
  1  4  1  0  0  0  0
  2 16  1  0  0  0  0
  2 19  1  0  0  0  0
  3 10  1  0  0  0  0
  4 12  1  1  0  0  0
  5 11  1  0  0  0  0
  7 27  1  0  0  0  0
  7 15  1  1  0  0  0
  8  6  2  0  0  0  0
  9 14  1  1  0  0  0
  9  7  1  0  0  0  0
 10 22  1  0  0  0  0
 11 28  1  6  0  0  0
 11  8  1  0  0  0  0
 12  8  1  0  0  0  0
 12 27  1  0  0  0  0
 13  2  2  0  0  0  0
 14 23  1  0  0  0  0
 17  3  1  6  0  0  0
 17 20  1  0  0  0  0
 18 13  1  0  0  0  0
 18 25  2  0  0  0  0
 20 22  1  6  0  0  0
 20  4  1  0  0  0  0
 21 10  2  0  0  0  0
 22  9  1  0  0  0  0
 23 15  1  0  0  0  0
 25 26  1  0  0  0  0
 26 19  2  0  0  0  0
 26 17  1  0  0  0  0
 27 24  1  6  0  0  0
 30 29  1  0  0  0  0
 30 28  1  0  0  0  0
M  END
>  <MODEL>
6

>  <REMARK>
 VINA RESULT:      -7.9      2.081      7.539
  Name = 
  2 active torsions:
  status: ('A' for Active; 'I' for Inactive)
    1  A    between atoms: C_11  and  C_28
    2  A    between atoms: C_28  and  C_30
                            x       y       z     vdW  Elec       q    Type
                         _______ _______ _______ _____ _____    ______ ____

>  <TORSDO>
F 2

$$$$
=
 OpenBabel11112416203D

 30 35  0  0  1  0  0  0  0  0999 V2000
  189.1880  175.7540  144.8060 C   0  0  2  0  0  3  0  0  0  0  0  0
  190.5900  176.6460  146.7600 C   0  0  0  0  0  0  0  0  0  0  0  0
  192.4970  173.4030  143.7340 N   0  0  0  0  0  2  0  0  0  0  0  0
  189.4700  175.2590  143.3770 C   0  0  2  0  0  3  0  0  0  0  0  0
  188.6470  177.0500  144.6960 O   0  0  0  0  0  0  0  0  0  0  0  0
  186.1340  176.3180  142.2850 O   0  0  0  0  0  0  0  0  0  0  0  0
  189.0020  174.3370  140.4280 C   0  0  1  0  0  3  0  0  0  0  0  0
  187.1790  176.1990  142.9850 C   0  0  0  0  0  0  0  0  0  0  0  0
  190.2930  173.5800  140.7230 C   0  0  2  0  0  3  0  0  0  0  0  0
  192.2100  173.4330  142.3560 C   0  0  0  0  0  0  0  0  0  0  0  0
  187.2990  176.9170  144.3060 C   0  0  2  0  0  3  0  0  0  0  0  0
  188.2110  175.2710  142.6050 N   0  0  0  0  0  0  0  0  0  0  0  0
  191.7380  176.5940  147.5560 C   0  0  0  0  0  3  0  0  0  0  0  0
  190.0520  172.1430  140.3240 C   0  0  0  0  0  2  0  0  0  0  0  0
  188.4660  173.6360  139.1910 C   0  0  0  0  0  2  0  0  0  0  0  0
  189.5760  177.5860  147.1070 N   0  0  0  0  0  1  0  0  0  0  0  0
  191.2440  173.6660  144.4340 C   0  0  2  0  0  3  0  0  0  0  0  0
  192.7230  175.6420  147.3120 C   0  0  0  0  0  3  0  0  0  0  0  0
  190.4340  175.7540  145.6670 C   0  0  0  0  0  0  0  0  0  0  0  0
  190.1550  173.8880  143.3380 C   0  0  2  0  0  3  0  0  0  0  0  0
  193.0790  173.2140  141.4710 O   0  0  0  0  0  0  0  0  0  0  0  0
  190.8580  173.7190  142.0670 N   0  0  0  0  0  0  0  0  0  0  0  0
  189.0530  172.2260  139.1810 C   0  0  0  0  0  2  0  0  0  0  0  0
  187.5440  172.9470  142.0710 C   0  0  0  0  0  1  0  0  0  0  0  0
  192.5540  174.7230  146.2790 C   0  0  0  0  0  3  0  0  0  0  0  0
  191.4220  174.7660  145.4520 C   0  0  0  0  0  0  0  0  0  0  0  0
  187.9280  174.3220  141.5280 C   0  0  2  0  0  3  0  0  0  0  0  0
  186.6090  178.2850  144.3060 C   0  0  0  0  0  2  0  0  0  0  0  0
  185.3600  177.3530  146.2650 C   0  0  0  0  0  1  0  0  0  0  0  0
  185.9300  178.6100  145.6330 C   0  0  0  0  0  2  0  0  0  0  0  0
  1  5  1  6  0  0  0
  1 19  1  0  0  0  0
  2 16  1  0  0  0  0
  2 13  1  0  0  0  0
  4 12  1  6  0  0  0
  4  1  1  0  0  0  0
  6  8  2  0  0  0  0
  7 15  1  6  0  0  0
  7  9  1  0  0  0  0
  7 27  1  0  0  0  0
  8 11  1  0  0  0  0
  9 14  1  1  0  0  0
  9 22  1  0  0  0  0
 10  3  1  0  0  0  0
 11 28  1  6  0  0  0
 11  5  1  0  0  0  0
 12  8  1  0  0  0  0
 17  3  1  6  0  0  0
 17 26  1  0  0  0  0
 18 13  2  0  0  0  0
 19  2  2  0  0  0  0
 20 22  1  6  0  0  0
 20  4  1  0  0  0  0
 20 17  1  0  0  0  0
 21 10  2  0  0  0  0
 22 10  1  0  0  0  0
 23 15  1  0  0  0  0
 23 14  1  0  0  0  0
 25 18  1  0  0  0  0
 26 19  1  0  0  0  0
 26 25  2  0  0  0  0
 27 24  1  1  0  0  0
 27 12  1  0  0  0  0
 28 30  1  0  0  0  0
 30 29  1  0  0  0  0
M  END
>  <MODEL>
7

>  <REMARK>
 VINA RESULT:      -7.5      2.317      4.781
  Name = 
  2 active torsions:
  status: ('A' for Active; 'I' for Inactive)
    1  A    between atoms: C_11  and  C_28
    2  A    between atoms: C_28  and  C_30
                            x       y       z     vdW  Elec       q    Type
                         _______ _______ _______ _____ _____    ______ ____

>  <TORSDO>
F 2

$$$$
=
 OpenBabel11112416203D

 30 35  0  0  1  0  0  0  0  0999 V2000
  189.4040  176.7460  145.2650 C   0  0  2  0  0  3  0  0  0  0  0  0
  187.0510  177.4520  146.0010 C   0  0  0  0  0  0  0  0  0  0  0  0
  187.6390  175.0430  141.8580 N   0  0  0  0  0  2  0  0  0  0  0  0
  190.0120  175.5790  144.4680 C   0  0  2  0  0  3  0  0  0  0  0  0
  189.6810  176.5090  146.6240 O   0  0  0  0  0  0  0  0  0  0  0  0
  193.1720  175.8890  146.3030 O   0  0  0  0  0  0  0  0  0  0  0  0
  192.1190  173.6230  143.2430 C   0  0  1  0  0  3  0  0  0  0  0  0
  191.9560  176.0240  145.9890 C   0  0  0  0  0  0  0  0  0  0  0  0
  191.0260  173.5030  142.1870 C   0  0  2  0  0  3  0  0  0  0  0  0
  188.5980  174.0200  141.7380 C   0  0  0  0  0  0  0  0  0  0  0  0
  191.0310  176.8490  146.8500 C   0  0  2  0  0  3  0  0  0  0  0  0
  191.4630  175.5150  144.7360 N   0  0  0  0  0  0  0  0  0  0  0  0
  185.6870  177.5990  145.7340 C   0  0  0  0  0  3  0  0  0  0  0  0
  191.6920  173.7220  140.8500 C   0  0  0  0  0  2  0  0  0  0  0  0
  193.3420  173.0560  142.5420 C   0  0  0  0  0  2  0  0  0  0  0  0
  187.5430  177.9220  147.2530 N   0  0  0  0  0  1  0  0  0  0  0  0
  188.2640  176.1250  142.6120 C   0  0  2  0  0  3  0  0  0  0  0  0
  185.1670  177.2310  144.4970 C   0  0  0  0  0  3  0  0  0  0  0  0
  187.9160  176.8870  145.0270 C   0  0  0  0  0  0  0  0  0  0  0  0
  189.7070  175.6480  142.9670 C   0  0  2  0  0  3  0  0  0  0  0  0
  188.3810  172.9490  141.1120 O   0  0  0  0  0  0  0  0  0  0  0  0
  189.8230  174.3170  142.3740 N   0  0  0  0  0  0  0  0  0  0  0  0
  193.1090  173.2070  141.0390 C   0  0  0  0  0  2  0  0  0  0  0  0
  192.7120  176.0890  142.6770 C   0  0  0  0  0  1  0  0  0  0  0  0
  186.0150  176.7310  143.5130 C   0  0  0  0  0  3  0  0  0  0  0  0
  187.3840  176.5540  143.7600 C   0  0  0  0  0  0  0  0  0  0  0  0
  192.4340  175.0400  143.7510 C   0  0  2  0  0  3  0  0  0  0  0  0
  191.3600  176.7490  148.3430 C   0  0  0  0  0  2  0  0  0  0  0  0
  191.5990  177.9320  150.5370 C   0  0  0  0  0  1  0  0  0  0  0  0
  191.2050  178.0770  149.0780 C   0  0  0  0  0  2  0  0  0  0  0  0
  1 19  1  1  0  0  0
  1  5  1  0  0  0  0
  2 16  1  0  0  0  0
  4 12  1  6  0  0  0
  4  1  1  0  0  0  0
  5 11  1  0  0  0  0
  7 15  1  6  0  0  0
  7 27  1  0  0  0  0
  8  6  2  0  0  0  0
  8 11  1  0  0  0  0
  9 14  1  6  0  0  0
  9 22  1  0  0  0  0
  9  7  1  0  0  0  0
 10  3  1  0  0  0  0
 10 22  1  0  0  0  0
 11 28  1  1  0  0  0
 12  8  1  0  0  0  0
 13  2  1  0  0  0  0
 14 23  1  0  0  0  0
 17  3  1  1  0  0  0
 17 20  1  0  0  0  0
 17 26  1  0  0  0  0
 18 13  2  0  0  0  0
 19  2  2  0  0  0  0
 20 22  1  1  0  0  0
 20  4  1  0  0  0  0
 21 10  2  0  0  0  0
 23 15  1  0  0  0  0
 25 26  2  0  0  0  0
 25 18  1  0  0  0  0
 26 19  1  0  0  0  0
 27 24  1  6  0  0  0
 27 12  1  0  0  0  0
 28 30  1  0  0  0  0
 30 29  1  0  0  0  0
M  END
>  <MODEL>
8

>  <REMARK>
 VINA RESULT:      -7.2      2.255      5.478
  Name = 
  2 active torsions:
  status: ('A' for Active; 'I' for Inactive)
    1  A    between atoms: C_11  and  C_28
    2  A    between atoms: C_28  and  C_30
                            x       y       z     vdW  Elec       q    Type
                         _______ _______ _______ _____ _____    ______ ____

>  <TORSDO>
F 2

$$$$
=
 OpenBabel11112416203D

 30 35  0  0  1  0  0  0  0  0999 V2000
  188.8500  175.9730  144.3290 C   0  0  2  0  0  3  0  0  0  0  0  0
  189.6290  177.0700  146.5120 C   0  0  0  0  0  0  0  0  0  0  0  0
  191.9320  173.1690  144.8420 N   0  0  0  0  0  2  0  0  0  0  0  0
  189.5180  175.2020  143.1770 C   0  0  2  0  0  3  0  0  0  0  0  0
  188.5790  177.2720  143.8570 O   0  0  0  0  0  0  0  0  0  0  0  0
  186.9430  176.3510  140.8320 O   0  0  0  0  0  0  0  0  0  0  0  0
  189.9360  173.8080  140.4120 C   0  0  1  0  0  3  0  0  0  0  0  0
  187.6610  176.2650  141.8680 C   0  0  0  0  0  0  0  0  0  0  0  0
  190.9230  173.0000  141.2490 C   0  0  2  0  0  3  0  0  0  0  0  0
  192.1330  172.9750  143.4620 C   0  0  0  0  0  0  0  0  0  0  0  0
  187.4370  177.1960  143.0330 C   0  0  2  0  0  3  0  0  0  0  0  0
  188.6090  175.1910  142.0130 N   0  0  0  0  0  0  0  0  0  0  0  0
  190.4210  177.0570  147.6640 C   0  0  0  0  0  3  0  0  0  0  0  0
  190.6160  171.5440  140.9920 C   0  0  0  0  0  2  0  0  0  0  0  0
  189.7480  172.9480  139.1740 C   0  0  0  0  0  2  0  0  0  0  0  0
  188.7120  178.1470  146.3420 N   0  0  0  0  0  1  0  0  0  0  0  0
  190.5710  173.6700  145.0060 C   0  0  2  0  0  3  0  0  0  0  0  0
  191.2750  175.9890  147.9210 C   0  0  0  0  0  3  0  0  0  0  0  0
  189.7180  176.0130  145.5690 C   0  0  0  0  0  0  0  0  0  0  0  0
  189.9610  173.7890  143.5740 C   0  0  2  0  0  3  0  0  0  0  0  0
  193.2050  172.5190  142.9850 O   0  0  0  0  0  0  0  0  0  0  0  0
  191.0170  173.3290  142.6730 N   0  0  0  0  0  0  0  0  0  0  0  0
  190.0850  171.5110  139.5680 C   0  0  0  0  0  2  0  0  0  0  0  0
  187.8190  172.8820  141.6010 C   0  0  0  0  0  1  0  0  0  0  0  0
  191.3270  174.9180  147.0330 C   0  0  0  0  0  3  0  0  0  0  0  0
  190.5590  174.9150  145.8590 C   0  0  0  0  0  0  0  0  0  0  0  0
  188.5650  174.0930  141.0480 C   0  0  2  0  0  3  0  0  0  0  0  0
  187.0020  178.6000  142.6000 C   0  0  0  0  0  2  0  0  0  0  0  0
  185.5680  179.7940  144.2680 C   0  0  0  0  0  1  0  0  0  0  0  0
  185.5740  178.9370  143.0150 C   0  0  0  0  0  2  0  0  0  0  0  0
  1  5  1  6  0  0  0
  1 19  1  0  0  0  0
  2 13  1  0  0  0  0
  4 12  1  6  0  0  0
  4 20  1  0  0  0  0
  4  1  1  0  0  0  0
  6  8  2  0  0  0  0
  7 15  1  6  0  0  0
  7 27  1  0  0  0  0
  7  9  1  0  0  0  0
  8 12  1  0  0  0  0
  8 11  1  0  0  0  0
  9 14  1  1  0  0  0
  9 22  1  0  0  0  0
 10  3  1  0  0  0  0
 11 28  1  6  0  0  0
 11  5  1  0  0  0  0
 13 18  2  0  0  0  0
 15 23  1  0  0  0  0
 16  2  1  0  0  0  0
 17  3  1  6  0  0  0
 17 26  1  0  0  0  0
 19 26  1  0  0  0  0
 19  2  2  0  0  0  0
 20 22  1  6  0  0  0
 20 17  1  0  0  0  0
 21 10  2  0  0  0  0
 22 10  1  0  0  0  0
 23 14  1  0  0  0  0
 25 18  1  0  0  0  0
 26 25  2  0  0  0  0
 27 24  1  1  0  0  0
 27 12  1  0  0  0  0
 28 30  1  0  0  0  0
 30 29  1  0  0  0  0
M  END
>  <MODEL>
9

>  <REMARK>
 VINA RESULT:      -7.0      2.370      3.999
  Name = 
  2 active torsions:
  status: ('A' for Active; 'I' for Inactive)
    1  A    between atoms: C_11  and  C_28
    2  A    between atoms: C_28  and  C_30
                            x       y       z     vdW  Elec       q    Type
                         _______ _______ _______ _____ _____    ______ ____

>  <TORSDO>
F 2

$$$$
