=
 OpenBabel11112416143D

 30 35  0  0  1  0  0  0  0  0999 V2000
  187.0180  177.0340  143.9750 C   0  0  1  0  0  3  0  0  0  0  0  0
  185.1130  178.2510  145.1580 C   0  0  0  0  0  0  0  0  0  0  0  0
  189.3960  177.3290  147.5890 C   0  0  0  0  0  2  0  0  0  0  0  0
  188.2670  176.1620  144.2200 C   0  0  1  0  0  3  0  0  0  0  0  0
  186.1180  176.3240  143.1570 O   0  0  0  0  0  0  0  0  0  0  0  0
  188.5230  175.4050  140.6650 O   0  0  0  0  0  0  0  0  0  0  0  0
  191.3230  176.5450  143.1660 C   0  0  1  0  0  3  0  0  0  0  0  0
  188.0700  175.8330  141.7600 C   0  0  0  0  0  0  0  0  0  0  0  0
  191.5690  176.7880  144.6630 C   0  0  2  0  0  3  0  0  0  0  0  0
  190.6400  176.7530  147.0080 C   0  0  0  0  0  0  0  0  0  0  0  0
  186.6360  176.3040  141.8350 C   0  0  2  0  0  3  0  0  0  0  0  0
  188.9190  175.9160  142.9220 N   0  0  0  0  0  0  0  0  0  0  0  0
  184.5680  178.8560  146.2940 C   0  0  0  0  0  3  0  0  0  0  0  0
  192.9100  176.1500  144.9580 C   0  0  0  0  0  2  0  0  0  0  0  0
  192.6760  176.2140  142.5540 C   0  0  0  0  0  2  0  0  0  0  0  0
  184.4030  178.3090  143.9650 O   0  0  0  0  0  1  0  0  0  0  0  0
  188.3820  176.8960  146.5490 C   0  0  2  0  0  3  0  0  0  0  0  0
  185.2630  178.8420  147.5040 C   0  0  0  0  0  3  0  0  0  0  0  0
  186.3640  177.6050  145.2280 C   0  0  0  0  0  0  0  0  0  0  0  0
  189.1360  176.8930  145.2360 C   0  0  1  0  0  3  0  0  0  0  0  0
  191.6750  176.6400  147.6460 O   0  0  0  0  0  0  0  0  0  0  0  0
  190.4720  176.2680  145.5970 C   0  0  1  0  0  3  0  0  0  0  0  0
  193.6960  176.2890  143.6740 C   0  0  0  0  0  2  0  0  0  0  0  0
  190.5230  174.0990  143.4660 C   0  0  0  0  0  1  0  0  0  0  0  0
  186.5150  178.2340  147.5820 C   0  0  0  0  0  3  0  0  0  0  0  0
  187.0870  177.6470  146.4480 C   0  0  0  0  0  0  0  0  0  0  0  0
  190.3030  175.4530  142.7980 C   0  0  2  0  0  3  0  0  0  0  0  0
  186.4600  177.6490  141.1360 C   0  0  0  0  0  2  0  0  0  0  0  0
  184.4520  178.2870  140.4900 C   0  0  0  0  0  1  0  0  0  0  0  0
  185.5470  177.5240  140.0890 O   0  0  0  0  0  0  0  0  0  0  0  0
  1  5  1  1  0  0  0
  1  4  1  0  0  0  0
  1 19  1  0  0  0  0
  2 19  2  0  0  0  0
  2 13  1  0  0  0  0
  4 12  1  6  0  0  0
  4 20  1  0  0  0  0
  6  8  2  0  0  0  0
  7 15  1  6  0  0  0
  7  9  1  0  0  0  0
  8 11  1  0  0  0  0
  8 12  1  0  0  0  0
  9 14  1  1  0  0  0
  9 22  1  0  0  0  0
 10  3  1  0  0  0  0
 10 21  2  0  0  0  0
 11 28  1  1  0  0  0
 11  5  1  0  0  0  0
 13 18  2  0  0  0  0
 15 23  1  0  0  0  0
 16  2  1  0  0  0  0
 17  3  1  1  0  0  0
 18 25  1  0  0  0  0
 19 26  1  0  0  0  0
 20 22  1  0  0  0  0
 20 17  1  0  0  0  0
 22 10  1  0  0  0  0
 23 14  1  0  0  0  0
 26 17  1  0  0  0  0
 26 25  2  0  0  0  0
 27 12  1  0  0  0  0
 27  7  1  0  0  0  0
 27 24  1  0  0  0  0
 30 29  1  0  0  0  0
 30 28  1  0  0  0  0
M  END
>  <MODEL>
1

>  <REMARK>
 VINA RESULT:      -9.0      0.000      0.000
  Name = 
  2 active torsions:
  status: ('A' for Active; 'I' for Inactive)
    1  A    between atoms: C_11  and  C_28
    2  A    between atoms: C_28  and  O_30
                            x       y       z     vdW  Elec       q    Type
                         _______ _______ _______ _____ _____    ______ ____

>  <TORSDO>
F 2

$$$$
=
 OpenBabel11112416143D

 30 35  0  0  1  0  0  0  0  0999 V2000
  190.5070  174.7400  143.6720 C   0  0  1  0  0  3  0  0  0  0  0  0
  192.7230  173.4930  143.8860 C   0  0  0  0  0  0  0  0  0  0  0  0
  191.3720  176.8320  147.3700 C   0  0  0  0  0  2  0  0  0  0  0  0
  189.7710  176.0310  144.0870 C   0  0  1  0  0  3  0  0  0  0  0  0
  190.5510  174.6710  142.2660 O   0  0  0  0  0  0  0  0  0  0  0  0
  187.0660  175.3260  141.7490 O   0  0  0  0  0  0  0  0  0  0  0  0
  186.8710  176.4180  145.5120 C   0  0  1  0  0  3  0  0  0  0  0  0
  188.1700  175.2420  142.3520 C   0  0  0  0  0  0  0  0  0  0  0  0
  187.7570  176.9100  146.6670 C   0  0  2  0  0  3  0  0  0  0  0  0
  190.0660  177.5410  147.4610 C   0  0  0  0  0  0  0  0  0  0  0  0
  189.2530  174.3460  141.7930 C   0  0  2  0  0  3  0  0  0  0  0  0
  188.3890  175.9550  143.5850 N   0  0  0  0  0  0  0  0  0  0  0  0
  193.9250  173.2440  144.5540 C   0  0  0  0  0  3  0  0  0  0  0  0
  186.9960  178.0590  147.2950 C   0  0  0  0  0  2  0  0  0  0  0  0
  185.4720  176.9500  145.7850 C   0  0  0  0  0  2  0  0  0  0  0  0
  192.3870  172.7000  142.7960 O   0  0  0  0  0  1  0  0  0  0  0  0
  191.3490  176.3990  145.9180 C   0  0  2  0  0  3  0  0  0  0  0  0
  194.2840  174.0000  145.6710 C   0  0  0  0  0  3  0  0  0  0  0  0
  191.8680  174.5260  144.3240 C   0  0  0  0  0  0  0  0  0  0  0  0
  189.8900  176.1520  145.6010 C   0  0  1  0  0  3  0  0  0  0  0  0
  189.7780  178.2750  148.3920 O   0  0  0  0  0  0  0  0  0  0  0  0
  189.1800  177.3150  146.2710 C   0  0  1  0  0  3  0  0  0  0  0  0
  185.5390  177.7170  147.0920 C   0  0  0  0  0  2  0  0  0  0  0  0
  187.5870  178.2890  143.8700 C   0  0  0  0  0  1  0  0  0  0  0  0
  193.4350  175.0050  146.1340 C   0  0  0  0  0  3  0  0  0  0  0  0
  192.2150  175.2500  145.4930 C   0  0  0  0  0  0  0  0  0  0  0  0
  187.3070  176.8060  144.0890 C   0  0  2  0  0  3  0  0  0  0  0  0
  188.9190  172.8740  142.0160 C   0  0  0  0  0  2  0  0  0  0  0  0
  188.8440  172.6660  139.8220 C   0  0  0  0  0  1  0  0  0  0  0  0
  189.4220  172.1100  140.9630 O   0  0  0  0  0  0  0  0  0  0  0  0
  1  5  1  6  0  0  0
  1  4  1  0  0  0  0
  1 19  1  0  0  0  0
  2 19  2  0  0  0  0
  2 13  1  0  0  0  0
  3 10  1  0  0  0  0
  4 12  1  1  0  0  0
  4 20  1  0  0  0  0
  6  8  2  0  0  0  0
  7 15  1  1  0  0  0
  7  9  1  0  0  0  0
  8 12  1  0  0  0  0
  9 14  1  6  0  0  0
 10 21  2  0  0  0  0
 11 28  1  1  0  0  0
 11  5  1  0  0  0  0
 11  8  1  0  0  0  0
 12 27  1  0  0  0  0
 13 18  2  0  0  0  0
 15 23  1  0  0  0  0
 16  2  1  0  0  0  0
 17  3  1  1  0  0  0
 18 25  1  0  0  0  0
 19 26  1  0  0  0  0
 20 17  1  0  0  0  0
 20 22  1  0  0  0  0
 22  9  1  0  0  0  0
 22 10  1  0  0  0  0
 23 14  1  0  0  0  0
 24 27  1  0  0  0  0
 26 17  1  0  0  0  0
 26 25  2  0  0  0  0
 27  7  1  0  0  0  0
 29 30  1  0  0  0  0
 30 28  1  0  0  0  0
M  END
>  <MODEL>
2

>  <REMARK>
 VINA RESULT:      -7.7      2.034      5.841
  Name = 
  2 active torsions:
  status: ('A' for Active; 'I' for Inactive)
    1  A    between atoms: C_11  and  C_28
    2  A    between atoms: C_28  and  O_30
                            x       y       z     vdW  Elec       q    Type
                         _______ _______ _______ _____ _____    ______ ____

>  <TORSDO>
F 2

$$$$
=
 OpenBabel11112416143D

 30 35  0  0  1  0  0  0  0  0999 V2000
  186.9840  177.0860  143.9660 C   0  0  1  0  0  3  0  0  0  0  0  0
  184.9830  178.3310  142.9870 C   0  0  0  0  0  0  0  0  0  0  0  0
  187.8160  175.4260  140.0470 C   0  0  0  0  0  2  0  0  0  0  0  0
  188.3460  176.4580  143.6030 C   0  0  1  0  0  3  0  0  0  0  0  0
  187.1860  178.0820  144.9410 O   0  0  0  0  0  0  0  0  0  0  0  0
  189.1860  176.0670  147.1270 O   0  0  0  0  0  0  0  0  0  0  0  0
  189.4970  173.4720  144.2000 C   0  0  1  0  0  3  0  0  0  0  0  0
  188.5760  176.4180  146.0810 C   0  0  0  0  0  0  0  0  0  0  0  0
  189.3800  173.3670  142.6720 C   0  0  2  0  0  3  0  0  0  0  0  0
  188.9280  174.5380  140.4840 C   0  0  0  0  0  0  0  0  0  0  0  0
  187.4720  177.4460  146.1770 C   0  0  2  0  0  3  0  0  0  0  0  0
  188.8940  175.8180  144.8100 N   0  0  0  0  0  0  0  0  0  0  0  0
  184.1740  178.6830  141.9030 C   0  0  0  0  0  3  0  0  0  0  0  0
  190.5800  172.5540  142.2330 C   0  0  0  0  0  2  0  0  0  0  0  0
  190.4470  172.3680  144.6380 C   0  0  0  0  0  2  0  0  0  0  0  0
  184.6080  178.7390  144.2620 O   0  0  0  0  0  1  0  0  0  0  0  0
  187.7230  176.3550  141.2400 C   0  0  2  0  0  3  0  0  0  0  0  0
  184.5020  178.2680  140.6120 C   0  0  0  0  0  3  0  0  0  0  0  0
  186.1510  177.5670  142.7830 C   0  0  0  0  0  0  0  0  0  0  0  0
  188.1080  175.5090  142.4350 C   0  0  1  0  0  3  0  0  0  0  0  0
  189.5150  173.7910  139.7170 O   0  0  0  0  0  0  0  0  0  0  0  0
  189.2930  174.7040  141.9310 C   0  0  1  0  0  3  0  0  0  0  0  0
  190.8550  171.6170  143.3850 C   0  0  0  0  0  2  0  0  0  0  0  0
  191.2510  175.3780  144.1580 C   0  0  0  0  0  1  0  0  0  0  0  0
  185.6370  177.4860  140.3980 C   0  0  0  0  0  3  0  0  0  0  0  0
  186.4430  177.1030  141.4750 C   0  0  0  0  0  0  0  0  0  0  0  0
  189.9690  174.8220  144.7690 C   0  0  2  0  0  3  0  0  0  0  0  0
  186.2190  176.8510  146.8130 C   0  0  0  0  0  2  0  0  0  0  0  0
  185.1910  178.6180  147.6380 C   0  0  0  0  0  1  0  0  0  0  0  0
  185.9410  177.5040  148.0140 O   0  0  0  0  0  0  0  0  0  0  0  0
  1 19  1  6  0  0  0
  1  5  1  0  0  0  0
  2 16  1  0  0  0  0
  3 10  1  0  0  0  0
  4  1  1  0  0  0  0
  4 12  1  1  0  0  0
  5 11  1  0  0  0  0
  7 15  1  6  0  0  0
  7 27  1  0  0  0  0
  8 11  1  0  0  0  0
  8  6  2  0  0  0  0
  9 14  1  6  0  0  0
  9  7  1  0  0  0  0
 10 22  1  0  0  0  0
 11 28  1  6  0  0  0
 12  8  1  0  0  0  0
 13  2  2  0  0  0  0
 14 23  1  0  0  0  0
 17  3  1  6  0  0  0
 17 26  1  0  0  0  0
 17 20  1  0  0  0  0
 18 13  1  0  0  0  0
 19  2  1  0  0  0  0
 20  4  1  0  0  0  0
 21 10  2  0  0  0  0
 22 20  1  0  0  0  0
 22  9  1  0  0  0  0
 23 15  1  0  0  0  0
 24 27  1  0  0  0  0
 25 18  2  0  0  0  0
 25 26  1  0  0  0  0
 26 19  2  0  0  0  0
 27 12  1  0  0  0  0
 28 30  1  0  0  0  0
 29 30  1  0  0  0  0
M  END
>  <MODEL>
3

>  <REMARK>
 VINA RESULT:      -7.6      1.780      5.055
  Name = 
  2 active torsions:
  status: ('A' for Active; 'I' for Inactive)
    1  A    between atoms: C_11  and  C_28
    2  A    between atoms: C_28  and  O_30
                            x       y       z     vdW  Elec       q    Type
                         _______ _______ _______ _____ _____    ______ ____

>  <TORSDO>
F 2

$$$$
=
 OpenBabel11112416143D

 30 35  0  0  1  0  0  0  0  0999 V2000
  188.1890  175.8820  143.7450 C   0  0  1  0  0  3  0  0  0  0  0  0
  186.0240  176.9010  144.6330 C   0  0  0  0  0  0  0  0  0  0  0  0
  190.1930  177.0480  147.4090 C   0  0  0  0  0  2  0  0  0  0  0  0
  189.5380  175.2750  144.1820 C   0  0  1  0  0  3  0  0  0  0  0  0
  187.4830  174.9280  142.9860 O   0  0  0  0  0  0  0  0  0  0  0  0
  190.1950  174.1140  140.7910 O   0  0  0  0  0  0  0  0  0  0  0  0
  192.5670  176.0310  143.2590 C   0  0  1  0  0  3  0  0  0  0  0  0
  189.5930  174.5980  141.7870 C   0  0  0  0  0  0  0  0  0  0  0  0
  192.6500  176.5060  144.7170 C   0  0  2  0  0  3  0  0  0  0  0  0
  191.5560  176.6210  146.9870 C   0  0  0  0  0  0  0  0  0  0  0  0
  188.1000  174.8240  141.7120 C   0  0  2  0  0  3  0  0  0  0  0  0
  190.3220  174.9760  142.9710 N   0  0  0  0  0  0  0  0  0  0  0  0
  185.3000  177.5470  145.6390 C   0  0  0  0  0  3  0  0  0  0  0  0
  194.0490  176.1510  145.1750 C   0  0  0  0  0  2  0  0  0  0  0  0
  193.9990  175.8580  142.7780 C   0  0  0  0  0  2  0  0  0  0  0  0
  185.4120  176.6810  143.4050 O   0  0  0  0  0  1  0  0  0  0  0  0
  189.3480  176.3170  146.3860 C   0  0  2  0  0  3  0  0  0  0  0  0
  185.8900  177.8110  146.8760 C   0  0  0  0  0  3  0  0  0  0  0  0
  187.3530  176.4920  144.8650 C   0  0  0  0  0  0  0  0  0  0  0  0
  190.1940  176.2690  145.1320 C   0  0  1  0  0  3  0  0  0  0  0  0
  192.5410  176.7710  147.6920 O   0  0  0  0  0  0  0  0  0  0  0  0
  191.5800  175.9340  145.6520 C   0  0  1  0  0  3  0  0  0  0  0  0
  194.9010  176.2520  143.9320 C   0  0  0  0  0  2  0  0  0  0  0  0
  192.1500  173.5450  143.8580 C   0  0  0  0  0  1  0  0  0  0  0  0
  187.2140  177.4400  147.1100 C   0  0  0  0  0  3  0  0  0  0  0  0
  187.9610  176.8150  146.1050 C   0  0  0  0  0  0  0  0  0  0  0  0
  191.7680  174.7430  142.9930 C   0  0  2  0  0  3  0  0  0  0  0  0
  187.7670  176.0160  140.8200 C   0  0  0  0  0  2  0  0  0  0  0  0
  187.4070  178.1740  141.0870 C   0  0  0  0  0  1  0  0  0  0  0  0
  188.3440  177.1740  141.3430 O   0  0  0  0  0  0  0  0  0  0  0  0
  1  5  1  1  0  0  0
  1  4  1  0  0  0  0
  1 19  1  0  0  0  0
  2 19  2  0  0  0  0
  2 13  1  0  0  0  0
  4 12  1  6  0  0  0
  4 20  1  0  0  0  0
  6  8  2  0  0  0  0
  7 15  1  1  0  0  0
  7  9  1  0  0  0  0
  8 12  1  0  0  0  0
  9 14  1  1  0  0  0
  9 22  1  0  0  0  0
 10  3  1  0  0  0  0
 10 21  2  0  0  0  0
 11 28  1  6  0  0  0
 11  8  1  0  0  0  0
 11  5  1  0  0  0  0
 12 27  1  0  0  0  0
 13 18  2  0  0  0  0
 15 23  1  0  0  0  0
 16  2  1  0  0  0  0
 17  3  1  1  0  0  0
 18 25  1  0  0  0  0
 19 26  1  0  0  0  0
 20 22  1  0  0  0  0
 20 17  1  0  0  0  0
 22 10  1  0  0  0  0
 23 14  1  0  0  0  0
 26 17  1  0  0  0  0
 26 25  2  0  0  0  0
 27  7  1  0  0  0  0
 27 24  1  0  0  0  0
 28 30  1  0  0  0  0
 29 30  1  0  0  0  0
M  END
>  <MODEL>
4

>  <REMARK>
 VINA RESULT:      -7.4      1.381      1.678
  Name = 
  2 active torsions:
  status: ('A' for Active; 'I' for Inactive)
    1  A    between atoms: C_11  and  C_28
    2  A    between atoms: C_28  and  O_30
                            x       y       z     vdW  Elec       q    Type
                         _______ _______ _______ _____ _____    ______ ____

>  <TORSDO>
F 2

$$$$
=
 OpenBabel11112416143D

 30 35  0  0  1  0  0  0  0  0999 V2000
  188.5260  175.0140  141.4910 C   0  0  1  0  0  3  0  0  0  0  0  0
  187.0330  176.4490  140.0000 C   0  0  0  0  0  0  0  0  0  0  0  0
  187.7010  177.6770  144.8120 C   0  0  0  0  0  2  0  0  0  0  0  0
  188.7900  174.6170  142.9580 C   0  0  1  0  0  3  0  0  0  0  0  0
  188.2290  173.8540  140.7500 O   0  0  0  0  0  0  0  0  0  0  0  0
  191.0310  171.9430  141.9070 O   0  0  0  0  0  0  0  0  0  0  0  0
  191.5550  174.6740  144.6740 C   0  0  1  0  0  3  0  0  0  0  0  0
  190.1860  172.8770  141.8540 C   0  0  0  0  0  0  0  0  0  0  0  0
  190.8010  175.7830  145.4240 C   0  0  2  0  0  3  0  0  0  0  0  0
  188.6340  177.0280  145.7720 C   0  0  0  0  0  0  0  0  0  0  0  0
  189.4310  173.1200  140.5670 C   0  0  2  0  0  3  0  0  0  0  0  0
  189.9680  173.7340  142.9920 N   0  0  0  0  0  0  0  0  0  0  0  0
  186.1740  177.5360  139.8140 C   0  0  0  0  0  3  0  0  0  0  0  0
  191.1830  175.6140  146.8800 C   0  0  0  0  0  2  0  0  0  0  0  0
  192.6750  174.2150  145.5950 C   0  0  0  0  0  2  0  0  0  0  0  0
  187.4160  175.7030  138.8910 O   0  0  0  0  0  1  0  0  0  0  0  0
  187.5930  176.5930  143.7580 C   0  0  2  0  0  3  0  0  0  0  0  0
  185.7900  178.3260  140.8990 C   0  0  0  0  0  3  0  0  0  0  0  0
  187.5060  176.1290  141.2890 C   0  0  0  0  0  0  0  0  0  0  0  0
  188.9420  175.9070  143.7540 C   0  0  1  0  0  3  0  0  0  0  0  0
  188.8060  177.4420  146.9070 O   0  0  0  0  0  0  0  0  0  0  0  0
  189.2820  175.7860  145.2290 C   0  0  1  0  0  3  0  0  0  0  0  0
  192.5890  175.0620  146.8500 C   0  0  0  0  0  2  0  0  0  0  0  0
  189.8730  172.8040  145.2930 C   0  0  0  0  0  1  0  0  0  0  0  0
  186.2740  178.0410  142.1750 C   0  0  0  0  0  3  0  0  0  0  0  0
  187.1550  176.9720  142.3740 C   0  0  0  0  0  0  0  0  0  0  0  0
  190.7280  173.4610  144.2140 C   0  0  2  0  0  3  0  0  0  0  0  0
  190.3310  173.7580  139.5130 C   0  0  0  0  0  2  0  0  0  0  0  0
  190.2830  172.1770  137.9770 C   0  0  0  0  0  1  0  0  0  0  0  0
  189.8410  173.4740  138.2380 O   0  0  0  0  0  0  0  0  0  0  0  0
  1  5  1  6  0  0  0
  1  4  1  0  0  0  0
  2 19  1  0  0  0  0
  3 10  1  0  0  0  0
  4 12  1  6  0  0  0
  4 20  1  0  0  0  0
  7  9  1  0  0  0  0
  7 15  1  1  0  0  0
  8  6  2  0  0  0  0
  8 12  1  0  0  0  0
  9 14  1  1  0  0  0
 10 21  2  0  0  0  0
 11 28  1  6  0  0  0
 11  5  1  0  0  0  0
 11  8  1  0  0  0  0
 12 27  1  0  0  0  0
 13  2  2  0  0  0  0
 13 18  1  0  0  0  0
 15 23  1  0  0  0  0
 16  2  1  0  0  0  0
 17  3  1  1  0  0  0
 18 25  2  0  0  0  0
 19  1  1  0  0  0  0
 19 26  2  0  0  0  0
 20 17  1  0  0  0  0
 20 22  1  0  0  0  0
 22  9  1  0  0  0  0
 22 10  1  0  0  0  0
 23 14  1  0  0  0  0
 25 26  1  0  0  0  0
 26 17  1  0  0  0  0
 27  7  1  0  0  0  0
 27 24  1  0  0  0  0
 29 30  1  0  0  0  0
 30 28  1  0  0  0  0
M  END
>  <MODEL>
5

>  <REMARK>
 VINA RESULT:      -7.3      2.352      4.333
  Name = 
  2 active torsions:
  status: ('A' for Active; 'I' for Inactive)
    1  A    between atoms: C_11  and  C_28
    2  A    between atoms: C_28  and  O_30
                            x       y       z     vdW  Elec       q    Type
                         _______ _______ _______ _____ _____    ______ ____

>  <TORSDO>
F 2

$$$$
=
 OpenBabel11112416143D

 30 35  0  0  1  0  0  0  0  0999 V2000
  189.0270  175.1150  143.4800 C   0  0  1  0  0  3  0  0  0  0  0  0
  186.8030  176.3630  143.5630 C   0  0  0  0  0  0  0  0  0  0  0  0
  190.2310  177.1000  147.1420 C   0  0  0  0  0  2  0  0  0  0  0  0
  190.1910  174.6070  144.3550 C   0  0  1  0  0  3  0  0  0  0  0  0
  188.4410  174.0190  142.8180 O   0  0  0  0  0  0  0  0  0  0  0  0
  191.5090  172.6400  141.5860 O   0  0  0  0  0  0  0  0  0  0  0  0
  193.3990  175.0540  144.0340 C   0  0  1  0  0  3  0  0  0  0  0  0
  190.7370  173.3650  142.2680 C   0  0  0  0  0  0  0  0  0  0  0  0
  193.1860  175.8690  145.3180 C   0  0  2  0  0  3  0  0  0  0  0  0
  191.6160  176.5570  147.1700 C   0  0  0  0  0  0  0  0  0  0  0  0
  189.3210  173.5950  141.7880 C   0  0  2  0  0  3  0  0  0  0  0  0
  191.2040  174.0060  143.4710 N   0  0  0  0  0  0  0  0  0  0  0  0
  185.9210  177.2490  144.1880 C   0  0  0  0  0  3  0  0  0  0  0  0
  194.4120  175.6090  146.1670 C   0  0  0  0  0  2  0  0  0  0  0  0
  194.8860  174.7410  143.9630 C   0  0  0  0  0  2  0  0  0  0  0  0
  186.4700  175.8620  142.3100 O   0  0  0  0  0  1  0  0  0  0  0  0
  189.5860  176.1580  146.1450 C   0  0  2  0  0  3  0  0  0  0  0  0
  186.2330  177.7950  145.4340 C   0  0  0  0  0  3  0  0  0  0  0  0
  188.0090  175.9970  144.1950 C   0  0  0  0  0  0  0  0  0  0  0  0
  190.6890  175.7900  145.1770 C   0  0  1  0  0  3  0  0  0  0  0  0
  192.4240  176.8540  148.0350 O   0  0  0  0  0  0  0  0  0  0  0  0
  191.8900  175.5640  146.0770 C   0  0  1  0  0  3  0  0  0  0  0  0
  195.5300  175.3860  145.1760 C   0  0  0  0  0  2  0  0  0  0  0  0
  192.6660  172.7990  145.0770 C   0  0  0  0  0  1  0  0  0  0  0  0
  187.4360  177.4670  146.0570 C   0  0  0  0  0  3  0  0  0  0  0  0
  188.3420  176.6010  145.4330 C   0  0  0  0  0  0  0  0  0  0  0  0
  192.5850  173.7560  143.8920 C   0  0  2  0  0  3  0  0  0  0  0  0
  189.2920  174.5400  140.5910 C   0  0  0  0  0  2  0  0  0  0  0  0
  188.3220  172.9530  139.4090 C   0  0  0  0  0  1  0  0  0  0  0  0
  189.4210  173.8100  139.4090 O   0  0  0  0  0  0  0  0  0  0  0  0
  1  5  1  1  0  0  0
  1 19  1  0  0  0  0
  1  4  1  0  0  0  0
  2 13  2  0  0  0  0
  2 19  1  0  0  0  0
  3 10  1  0  0  0  0
  4 12  1  6  0  0  0
  4 20  1  0  0  0  0
  6  8  2  0  0  0  0
  7 15  1  1  0  0  0
  7  9  1  0  0  0  0
  8 12  1  0  0  0  0
  9 22  1  0  0  0  0
  9 14  1  1  0  0  0
 10 21  2  0  0  0  0
 11 28  1  6  0  0  0
 11  8  1  0  0  0  0
 11  5  1  0  0  0  0
 12 27  1  0  0  0  0
 13 18  1  0  0  0  0
 15 23  1  0  0  0  0
 16  2  1  0  0  0  0
 17  3  1  1  0  0  0
 18 25  2  0  0  0  0
 19 26  2  0  0  0  0
 20 22  1  0  0  0  0
 20 17  1  0  0  0  0
 22 10  1  0  0  0  0
 23 14  1  0  0  0  0
 26 25  1  0  0  0  0
 26 17  1  0  0  0  0
 27  7  1  0  0  0  0
 27 24  1  0  0  0  0
 30 29  1  0  0  0  0
 30 28  1  0  0  0  0
M  END
>  <MODEL>
6

>  <REMARK>
 VINA RESULT:      -7.3      1.890      3.068
  Name = 
  2 active torsions:
  status: ('A' for Active; 'I' for Inactive)
    1  A    between atoms: C_11  and  C_28
    2  A    between atoms: C_28  and  O_30
                            x       y       z     vdW  Elec       q    Type
                         _______ _______ _______ _____ _____    ______ ____

>  <TORSDO>
F 2

$$$$
=
 OpenBabel11112416143D

 30 35  0  0  1  0  0  0  0  0999 V2000
  188.9480  175.6080  143.5690 C   0  0  1  0  0  3  0  0  0  0  0  0
  190.5850  174.3420  145.0620 C   0  0  0  0  0  0  0  0  0  0  0  0
  187.5810  177.8380  147.0270 C   0  0  0  0  0  2  0  0  0  0  0  0
  188.1540  176.9240  143.4460 C   0  0  1  0  0  3  0  0  0  0  0  0
  189.7970  175.4810  142.4520 O   0  0  0  0  0  0  0  0  0  0  0  0
  187.2830  176.1600  139.9910 O   0  0  0  0  0  0  0  0  0  0  0  0
  184.9800  177.4080  142.9120 C   0  0  1  0  0  3  0  0  0  0  0  0
  187.8290  176.0860  141.1250 C   0  0  0  0  0  0  0  0  0  0  0  0
  185.0480  177.9350  144.3530 C   0  0  2  0  0  3  0  0  0  0  0  0
  186.4890  178.5670  146.3250 C   0  0  0  0  0  0  0  0  0  0  0  0
  189.0030  175.1540  141.3220 C   0  0  2  0  0  3  0  0  0  0  0  0
  187.3170  176.8460  142.2370 N   0  0  0  0  0  0  0  0  0  0  0  0
  191.1680  174.1040  146.3110 C   0  0  0  0  0  3  0  0  0  0  0  0
  184.1050  179.1190  144.3930 C   0  0  0  0  0  2  0  0  0  0  0  0
  183.7010  177.9690  142.3080 C   0  0  0  0  0  2  0  0  0  0  0  0
  190.9160  173.5090  144.0010 O   0  0  0  0  0  1  0  0  0  0  0  0
  188.3890  177.3460  145.8430 C   0  0  2  0  0  3  0  0  0  0  0  0
  190.8390  174.9010  147.4080 C   0  0  0  0  0  3  0  0  0  0  0  0
  189.6710  175.4030  144.8960 C   0  0  0  0  0  0  0  0  0  0  0  0
  187.3760  177.1060  144.7440 C   0  0  1  0  0  3  0  0  0  0  0  0
  185.7410  179.3430  146.8960 O   0  0  0  0  0  0  0  0  0  0  0  0
  186.4500  178.3040  144.8470 C   0  0  1  0  0  3  0  0  0  0  0  0
  183.0250  178.7880  143.3900 C   0  0  0  0  0  2  0  0  0  0  0  0
  186.5800  179.2010  141.9430 C   0  0  0  0  0  1  0  0  0  0  0  0
  189.9130  175.9350  147.2660 C   0  0  0  0  0  3  0  0  0  0  0  0
  189.3010  176.1700  146.0300 C   0  0  0  0  0  0  0  0  0  0  0  0
  186.1740  177.7310  141.9970 C   0  0  2  0  0  3  0  0  0  0  0  0
  188.5520  173.6970  141.3470 C   0  0  0  0  0  2  0  0  0  0  0  0
  188.3760  172.8280  139.3290 C   0  0  0  0  0  1  0  0  0  0  0  0
  189.2620  172.9640  140.3960 O   0  0  0  0  0  0  0  0  0  0  0  0
  1  5  1  6  0  0  0
  1 19  1  0  0  0  0
  2 13  1  0  0  0  0
  4 12  1  6  0  0  0
  4  1  1  0  0  0  0
  4 20  1  0  0  0  0
  6  8  2  0  0  0  0
  7 15  1  6  0  0  0
  7  9  1  0  0  0  0
  8 11  1  0  0  0  0
  8 12  1  0  0  0  0
  9 14  1  6  0  0  0
  9 22  1  0  0  0  0
 10 21  2  0  0  0  0
 10  3  1  0  0  0  0
 11 28  1  1  0  0  0
 11  5  1  0  0  0  0
 13 18  2  0  0  0  0
 15 23  1  0  0  0  0
 16  2  1  0  0  0  0
 17 26  1  0  0  0  0
 17  3  1  1  0  0  0
 19  2  2  0  0  0  0
 19 26  1  0  0  0  0
 20 22  1  0  0  0  0
 20 17  1  0  0  0  0
 22 10  1  0  0  0  0
 23 14  1  0  0  0  0
 24 27  1  0  0  0  0
 25 18  1  0  0  0  0
 26 25  2  0  0  0  0
 27 12  1  0  0  0  0
 27  7  1  0  0  0  0
 29 30  1  0  0  0  0
 30 28  1  0  0  0  0
M  END
>  <MODEL>
7

>  <REMARK>
 VINA RESULT:      -7.2      2.160      5.586
  Name = 
  2 active torsions:
  status: ('A' for Active; 'I' for Inactive)
    1  A    between atoms: C_11  and  C_28
    2  A    between atoms: C_28  and  O_30
                            x       y       z     vdW  Elec       q    Type
                         _______ _______ _______ _____ _____    ______ ____

>  <TORSDO>
F 2

$$$$
=
 OpenBabel11112416143D

 30 35  0  0  1  0  0  0  0  0999 V2000
  189.9570  174.1180  142.0580 C   0  0  1  0  0  3  0  0  0  0  0  0
  191.6980  172.3300  142.5910 C   0  0  0  0  0  0  0  0  0  0  0  0
  190.4680  175.7470  146.0440 C   0  0  0  0  0  2  0  0  0  0  0  0
  189.4860  175.5350  142.4420 C   0  0  1  0  0  3  0  0  0  0  0  0
  190.2920  174.1020  140.6900 O   0  0  0  0  0  0  0  0  0  0  0  0
  187.2760  175.6610  139.5470 O   0  0  0  0  0  0  0  0  0  0  0  0
  186.5260  176.5990  143.2830 C   0  0  1  0  0  3  0  0  0  0  0  0
  188.1640  175.2670  140.3490 C   0  0  0  0  0  0  0  0  0  0  0  0
  187.2280  176.7910  144.6360 C   0  0  2  0  0  3  0  0  0  0  0  0
  189.3870  176.7650  145.9390 C   0  0  0  0  0  0  0  0  0  0  0  0
  189.0910  174.1460  139.9350 C   0  0  2  0  0  3  0  0  0  0  0  0
  188.2720  175.8430  141.6650 N   0  0  0  0  0  0  0  0  0  0  0  0
  192.6250  171.7470  143.4600 C   0  0  0  0  0  3  0  0  0  0  0  0
  186.6520  178.0690  145.2080 C   0  0  0  0  0  2  0  0  0  0  0  0
  185.2750  177.4620  143.3180 C   0  0  0  0  0  2  0  0  0  0  0  0
  191.4280  171.7000  141.3820 O   0  0  0  0  0  1  0  0  0  0  0  0
  190.6610  175.3990  144.5810 C   0  0  2  0  0  3  0  0  0  0  0  0
  192.9020  172.3350  144.6950 C   0  0  0  0  0  3  0  0  0  0  0  0
  191.0460  173.5280  142.9470 C   0  0  0  0  0  0  0  0  0  0  0  0
  189.2920  175.5540  143.9530 C   0  0  1  0  0  3  0  0  0  0  0  0
  189.0890  177.5070  146.8610 O   0  0  0  0  0  0  0  0  0  0  0  0
  188.7580  176.8300  144.5780 C   0  0  1  0  0  3  0  0  0  0  0  0
  185.2370  178.1270  144.6810 C   0  0  0  0  0  2  0  0  0  0  0  0
  188.0220  178.2910  142.0130 C   0  0  0  0  0  1  0  0  0  0  0  0
  192.2430  173.5040  145.0750 C   0  0  0  0  0  3  0  0  0  0  0  0
  191.2930  174.0850  144.2280 C   0  0  0  0  0  0  0  0  0  0  0  0
  187.3470  176.9220  142.0220 C   0  0  2  0  0  3  0  0  0  0  0  0
  188.3680  172.8030  139.9380 C   0  0  0  0  0  2  0  0  0  0  0  0
  188.9410  172.6770  137.8130 C   0  0  0  0  0  1  0  0  0  0  0  0
  188.9510  171.9490  139.0020 O   0  0  0  0  0  0  0  0  0  0  0  0
  1  5  1  6  0  0  0
  1  4  1  0  0  0  0
  1 19  1  0  0  0  0
  2 19  2  0  0  0  0
  2 13  1  0  0  0  0
  4 12  1  6  0  0  0
  4 20  1  0  0  0  0
  6  8  2  0  0  0  0
  7 15  1  1  0  0  0
  7  9  1  0  0  0  0
  8 12  1  0  0  0  0
  9 14  1  6  0  0  0
 10  3  1  0  0  0  0
 10 21  2  0  0  0  0
 11 28  1  1  0  0  0
 11  8  1  0  0  0  0
 11  5  1  0  0  0  0
 12 27  1  0  0  0  0
 13 18  2  0  0  0  0
 15 23  1  0  0  0  0
 16  2  1  0  0  0  0
 17  3  1  1  0  0  0
 18 25  1  0  0  0  0
 19 26  1  0  0  0  0
 20 22  1  0  0  0  0
 20 17  1  0  0  0  0
 22  9  1  0  0  0  0
 22 10  1  0  0  0  0
 23 14  1  0  0  0  0
 24 27  1  0  0  0  0
 26 17  1  0  0  0  0
 26 25  2  0  0  0  0
 27  7  1  0  0  0  0
 29 30  1  0  0  0  0
 30 28  1  0  0  0  0
M  END
>  <MODEL>
8

>  <REMARK>
 VINA RESULT:      -7.1      2.276      5.931
  Name = 
  2 active torsions:
  status: ('A' for Active; 'I' for Inactive)
    1  A    between atoms: C_11  and  C_28
    2  A    between atoms: C_28  and  O_30
                            x       y       z     vdW  Elec       q    Type
                         _______ _______ _______ _____ _____    ______ ____

>  <TORSDO>
F 2

$$$$
=
 OpenBabel11112416143D

 30 35  0  0  1  0  0  0  0  0999 V2000
  188.9890  176.9560  145.3980 C   0  0  1  0  0  3  0  0  0  0  0  0
  186.7840  177.9160  146.2520 C   0  0  0  0  0  0  0  0  0  0  0  0
  187.0670  176.0010  141.6300 C   0  0  0  0  0  2  0  0  0  0  0  0
  189.7860  176.6490  144.1140 C   0  0  1  0  0  3  0  0  0  0  0  0
  189.7370  177.8380  146.2000 O   0  0  0  0  0  0  0  0  0  0  0  0
  192.7930  175.9740  146.0580 O   0  0  0  0  0  0  0  0  0  0  0  0
  191.2020  173.8830  143.1440 C   0  0  1  0  0  3  0  0  0  0  0  0
  191.6220  176.3340  145.7660 C   0  0  0  0  0  0  0  0  0  0  0  0
  190.0970  173.9540  142.0800 C   0  0  2  0  0  3  0  0  0  0  0  0
  188.2300  175.2900  141.0330 C   0  0  0  0  0  0  0  0  0  0  0  0
  190.8130  177.1140  146.7780 C   0  0  2  0  0  3  0  0  0  0  0  0
  191.0370  175.9740  144.4990 N   0  0  0  0  0  0  0  0  0  0  0  0
  185.4390  178.2460  146.0610 C   0  0  0  0  0  3  0  0  0  0  0  0
  190.7340  173.4460  140.8040 C   0  0  0  0  0  2  0  0  0  0  0  0
  192.2590  172.9310  142.6050 C   0  0  0  0  0  2  0  0  0  0  0  0
  187.3390  178.0780  147.5150 O   0  0  0  0  0  1  0  0  0  0  0  0
  187.7470  176.7350  142.7680 C   0  0  2  0  0  3  0  0  0  0  0  0
  184.8380  178.0700  144.8140 C   0  0  0  0  0  3  0  0  0  0  0  0
  187.5520  177.4190  145.1790 C   0  0  0  0  0  0  0  0  0  0  0  0
  188.8790  175.8300  143.2030 C   0  0  1  0  0  3  0  0  0  0  0  0
  188.1910  174.7730  139.9290 O   0  0  0  0  0  0  0  0  0  0  0  0
  189.4620  175.3350  141.8910 C   0  0  1  0  0  3  0  0  0  0  0  0
  191.7620  172.4370  141.2600 C   0  0  0  0  0  2  0  0  0  0  0  0
  192.3670  176.0750  142.4030 C   0  0  0  0  0  1  0  0  0  0  0  0
  185.5770  177.5500  143.7510 C   0  0  0  0  0  3  0  0  0  0  0  0
  186.9170  177.1910  143.9320 C   0  0  0  0  0  0  0  0  0  0  0  0
  191.8590  175.2120  143.5540 C   0  0  2  0  0  3  0  0  0  0  0  0
  190.3460  176.2160  147.9190 C   0  0  0  0  0  2  0  0  0  0  0  0
  188.9420  174.5410  147.6380 C   0  0  0  0  0  1  0  0  0  0  0  0
  190.2820  174.8930  147.4850 O   0  0  0  0  0  0  0  0  0  0  0  0
  1 19  1  6  0  0  0
  1  5  1  0  0  0  0
  2 16  1  0  0  0  0
  4 12  1  1  0  0  0
  4  1  1  0  0  0  0
  5 11  1  0  0  0  0
  7 15  1  6  0  0  0
  7 27  1  0  0  0  0
  8  6  2  0  0  0  0
  8 11  1  0  0  0  0
  9 14  1  6  0  0  0
  9  7  1  0  0  0  0
 10  3  1  0  0  0  0
 10 22  1  0  0  0  0
 11 28  1  1  0  0  0
 12  8  1  0  0  0  0
 13  2  1  0  0  0  0
 14 23  1  0  0  0  0
 17  3  1  6  0  0  0
 17 20  1  0  0  0  0
 17 26  1  0  0  0  0
 18 13  2  0  0  0  0
 19  2  2  0  0  0  0
 20  4  1  0  0  0  0
 21 10  2  0  0  0  0
 22  9  1  0  0  0  0
 22 20  1  0  0  0  0
 23 15  1  0  0  0  0
 24 27  1  0  0  0  0
 25 26  2  0  0  0  0
 25 18  1  0  0  0  0
 26 19  1  0  0  0  0
 27 12  1  0  0  0  0
 30 29  1  0  0  0  0
 30 28  1  0  0  0  0
M  END
>  <MODEL>
9

>  <REMARK>
 VINA RESULT:      -7.0      1.898      4.992
  Name = 
  2 active torsions:
  status: ('A' for Active; 'I' for Inactive)
    1  A    between atoms: C_11  and  C_28
    2  A    between atoms: C_28  and  O_30
                            x       y       z     vdW  Elec       q    Type
                         _______ _______ _______ _____ _____    ______ ____

>  <TORSDO>
F 2

$$$$
