=
 OpenBabel11112416193D

 30 35  0  0  1  0  0  0  0  0999 V2000
  186.2430  177.4060  143.7050 C   0  0  0  0  0  0  0  0  0  0  0  0
  184.5570  178.5760  145.2000 C   0  0  0  0  0  0  0  0  0  0  0  0
  188.4640  176.2500  147.0730 N   0  0  0  0  0  2  0  0  0  0  0  0
  187.4580  176.6590  143.6050 C   0  0  0  0  0  0  0  0  0  0  0  0
  185.5560  177.7050  142.5240 C   0  0  0  0  0  3  0  0  0  0  0  0
  187.6850  176.1980  139.9230 O   0  0  0  0  0  1  0  0  0  0  0  0
  190.4420  176.2270  142.8360 C   0  0  1  0  0  3  0  0  0  0  0  0
  187.2190  176.5890  141.1760 C   0  0  0  0  0  0  0  0  0  0  0  0
  190.5380  176.1140  144.3100 N   0  0  2  0  0  0  0  0  0  0  0  0
  189.5580  175.4730  146.5020 C   0  0  1  0  0  3  0  0  0  0  0  0
  186.0250  177.3080  141.2760 C   0  0  0  0  0  0  0  0  0  0  0  0
  187.9490  176.2660  142.3310 C   0  0  0  0  0  0  0  0  0  0  0  0
  184.1680  178.9160  146.4970 C   0  0  0  0  0  3  0  0  0  0  0  0
  191.6950  175.2650  144.5300 C   0  0  0  0  0  2  0  0  0  0  0  0
  191.6910  175.7850  142.2230 N   0  0  0  0  0  2  0  0  0  0  0  0
  183.4740  179.1520  143.9350 Cl  0  0  0  0  0  0  0  0  0  0  0  0
  187.6660  176.7240  146.0070 C   0  0  0  0  0  0  0  0  0  0  0  0
  184.9380  178.5250  147.5860 C   0  0  0  0  0  3  0  0  0  0  0  0
  185.7510  177.8220  144.9890 C   0  0  0  0  0  0  0  0  0  0  0  0
  188.1420  176.3410  144.7890 C   0  0  0  0  0  0  0  0  0  0  0  0
  189.4780  174.0430  146.9990 C   0  0  0  0  0  1  0  0  0  0  0  0
  189.3710  175.5020  144.9650 C   0  0  1  0  0  3  0  0  0  0  0  0
  192.5690  175.4250  143.3200 C   0  0  0  0  0  2  0  0  0  0  0  0
  189.1390  174.0340  142.4000 C   0  0  0  0  0  1  0  0  0  0  0  0
  186.0730  177.8130  147.3910 N   0  0  0  0  0  0  0  0  0  0  0  0
  186.4960  177.4590  146.1480 C   0  0  0  0  0  0  0  0  0  0  0  0
  189.2500  175.5320  142.1520 C   0  0  2  0  0  3  0  0  0  0  0  0
  185.2250  177.6460  140.0610 C   0  0  0  0  0  2  0  0  0  0  0  0
  182.7700  177.8710  140.2550 C   0  0  0  0  0  1  0  0  0  0  0  0
  184.0930  178.5860  140.4260 C   0  0  0  0  0  2  0  0  0  0  0  0
  1 19  1  0  0  0  0
  2 13  1  0  0  0  0
  4  1  1  0  0  0  0
  4 20  1  0  0  0  0
  5  1  2  0  0  0  0
  6  8  1  0  0  0  0
  7 15  1  6  0  0  0
  7  9  1  0  0  0  0
  8 11  2  0  0  0  0
  8 12  1  0  0  0  0
  9 14  1  6  0  0  0
  9 22  1  0  0  0  0
 10 21  1  1  0  0  0
 10  3  1  0  0  0  0
 11  5  1  0  0  0  0
 12  4  2  0  0  0  0
 13 18  2  0  0  0  0
 15 23  1  0  0  0  0
 16  2  1  0  0  0  0
 17 26  1  0  0  0  0
 17  3  1  0  0  0  0
 19  2  2  0  0  0  0
 19 26  1  0  0  0  0
 20 17  2  0  0  0  0
 22 20  1  1  0  0  0
 22 10  1  0  0  0  0
 23 14  1  0  0  0  0
 25 18  1  0  0  0  0
 26 25  2  0  0  0  0
 27 12  1  0  0  0  0
 27 24  1  1  0  0  0
 27  7  1  0  0  0  0
 28 30  1  0  0  0  0
 28 11  1  0  0  0  0
 29 30  1  0  0  0  0
M  END
>  <MODEL>
1

>  <REMARK>
 VINA RESULT:      -8.3      0.000      0.000
  Name = 
  2 active torsions:
  status: ('A' for Active; 'I' for Inactive)
    1  A    between atoms: C_11  and  C_28
    2  A    between atoms: C_28  and  C_30
                            x       y       z     vdW  Elec       q    Type
                         _______ _______ _______ _____ _____    ______ ____

>  <TORSDO>
F 2

$$$$
=
 OpenBabel11112416193D

 30 35  0  0  1  0  0  0  0  0999 V2000
  188.2090  177.2120  145.8860 C   0  0  0  0  0  0  0  0  0  0  0  0
  186.3250  178.4800  147.0230 C   0  0  0  0  0  0  0  0  0  0  0  0
  185.9240  176.9120  142.3800 N   0  0  0  0  0  2  0  0  0  0  0  0
  188.6810  176.5370  144.7170 C   0  0  0  0  0  0  0  0  0  0  0  0
  189.0650  177.2940  146.9890 C   0  0  0  0  0  3  0  0  0  0  0  0
  192.0690  175.4990  145.8380 O   0  0  0  0  0  1  0  0  0  0  0  0
  189.5600  174.0530  143.0630 C   0  0  1  0  0  3  0  0  0  0  0  0
  190.7960  176.0620  145.8410 C   0  0  0  0  0  0  0  0  0  0  0  0
  188.3570  174.4570  142.2990 N   0  0  2  0  0  0  0  0  0  0  0  0
  186.8130  176.2140  141.4590 C   0  0  1  0  0  3  0  0  0  0  0  0
  190.3390  176.7330  146.9780 C   0  0  0  0  0  0  0  0  0  0  0  0
  189.9740  175.9500  144.7080 C   0  0  0  0  0  0  0  0  0  0  0  0
  185.0390  179.0150  146.9280 C   0  0  0  0  0  3  0  0  0  0  0  0
  188.6070  173.9720  140.9540 C   0  0  0  0  0  2  0  0  0  0  0  0
  190.3120  173.0540  142.3100 N   0  0  0  0  0  2  0  0  0  0  0  0
  187.1100  178.7310  148.5810 Cl  0  0  0  0  0  0  0  0  0  0  0  0
  186.5910  177.0340  143.6190 C   0  0  0  0  0  0  0  0  0  0  0  0
  184.3100  178.8840  145.7530 C   0  0  0  0  0  3  0  0  0  0  0  0
  186.8950  177.7930  145.9080 C   0  0  0  0  0  0  0  0  0  0  0  0
  187.8310  176.4690  143.6020 C   0  0  0  0  0  0  0  0  0  0  0  0
  187.1280  177.1120  140.2780 C   0  0  0  0  0  1  0  0  0  0  0  0
  188.1140  175.9070  142.2420 C   0  0  1  0  0  3  0  0  0  0  0  0
  189.5600  172.8210  141.0930 C   0  0  0  0  0  2  0  0  0  0  0  0
  191.0690  176.0580  142.4290 C   0  0  0  0  0  1  0  0  0  0  0  0
  184.8440  178.2310  144.6940 N   0  0  0  0  0  0  0  0  0  0  0  0
  186.0910  177.6890  144.7380 C   0  0  0  0  0  0  0  0  0  0  0  0
  190.5060  175.1740  143.5340 C   0  0  2  0  0  3  0  0  0  0  0  0
  191.2040  176.8780  148.1860 C   0  0  0  0  0  2  0  0  0  0  0  0
  191.5740  178.1690  150.2640 C   0  0  0  0  0  1  0  0  0  0  0  0
  190.8430  178.1450  148.9380 C   0  0  0  0  0  2  0  0  0  0  0  0
  1 19  1  0  0  0  0
  1  5  1  0  0  0  0
  2 16  1  0  0  0  0
  3 17  1  0  0  0  0
  4  1  2  0  0  0  0
  6  8  1  0  0  0  0
  7 15  1  6  0  0  0
  7 27  1  0  0  0  0
  8 11  1  0  0  0  0
  9 14  1  6  0  0  0
  9  7  1  0  0  0  0
 10 21  1  6  0  0  0
 10 22  1  0  0  0  0
 10  3  1  0  0  0  0
 11  5  2  0  0  0  0
 11 28  1  0  0  0  0
 12  4  1  0  0  0  0
 12  8  2  0  0  0  0
 13  2  1  0  0  0  0
 14 23  1  0  0  0  0
 17 26  1  0  0  0  0
 18 13  2  0  0  0  0
 19  2  2  0  0  0  0
 20 17  2  0  0  0  0
 20  4  1  0  0  0  0
 22  9  1  0  0  0  0
 22 20  1  1  0  0  0
 23 15  1  0  0  0  0
 25 26  2  0  0  0  0
 25 18  1  0  0  0  0
 26 19  1  0  0  0  0
 27 24  1  6  0  0  0
 27 12  1  0  0  0  0
 28 30  1  0  0  0  0
 30 29  1  0  0  0  0
M  END
>  <MODEL>
2

>  <REMARK>
 VINA RESULT:      -8.2      2.687      5.402
  Name = 
  2 active torsions:
  status: ('A' for Active; 'I' for Inactive)
    1  A    between atoms: C_11  and  C_28
    2  A    between atoms: C_28  and  C_30
                            x       y       z     vdW  Elec       q    Type
                         _______ _______ _______ _____ _____    ______ ____

>  <TORSDO>
F 2

$$$$
=
 OpenBabel11112416193D

 30 35  0  0  1  0  0  0  0  0999 V2000
  188.1090  175.8250  141.8090 C   0  0  0  0  0  0  0  0  0  0  0  0
  186.4300  177.0790  140.3750 C   0  0  0  0  0  0  0  0  0  0  0  0
  186.8650  177.9740  145.1910 N   0  0  0  0  0  2  0  0  0  0  0  0
  188.6960  175.6340  143.0990 C   0  0  0  0  0  0  0  0  0  0  0  0
  188.5670  175.0280  140.7540 C   0  0  0  0  0  3  0  0  0  0  0  0
  191.1570  172.9510  142.3500 O   0  0  0  0  0  1  0  0  0  0  0  0
  190.9900  175.7720  145.1970 C   0  0  1  0  0  3  0  0  0  0  0  0
  190.1520  173.9000  142.1850 C   0  0  0  0  0  0  0  0  0  0  0  0
  190.0190  176.7040  145.8160 N   0  0  2  0  0  0  0  0  0  0  0  0
  187.6800  177.4140  146.2630 C   0  0  1  0  0  3  0  0  0  0  0  0
  189.5690  174.0780  140.9270 C   0  0  0  0  0  0  0  0  0  0  0  0
  189.7310  174.6770  143.2760 C   0  0  0  0  0  0  0  0  0  0  0  0
  185.4270  178.0480  140.3110 C   0  0  0  0  0  3  0  0  0  0  0  0
  190.3160  176.6390  147.2360 C   0  0  0  0  0  2  0  0  0  0  0  0
  192.0530  175.4600  146.1470 N   0  0  0  0  0  2  0  0  0  0  0  0
  186.7870  176.2900  138.8410 Cl  0  0  0  0  0  0  0  0  0  0  0  0
  187.2360  177.3380  143.9860 C   0  0  0  0  0  0  0  0  0  0  0  0
  185.0520  178.7470  141.4520 C   0  0  0  0  0  3  0  0  0  0  0  0
  187.0750  176.8040  141.6190 C   0  0  0  0  0  0  0  0  0  0  0  0
  188.2280  176.4200  144.1640 C   0  0  0  0  0  0  0  0  0  0  0  0
  186.7820  176.7480  147.2870 C   0  0  0  0  0  1  0  0  0  0  0  0
  188.6040  176.3540  145.6130 C   0  0  1  0  0  3  0  0  0  0  0  0
  191.7530  176.2190  147.3460 C   0  0  0  0  0  2  0  0  0  0  0  0
  189.6570  173.5830  145.5570 C   0  0  0  0  0  1  0  0  0  0  0  0
  185.6630  178.4920  142.6330 N   0  0  0  0  0  0  0  0  0  0  0  0
  186.6470  177.5610  142.7470 C   0  0  0  0  0  0  0  0  0  0  0  0
  190.4310  174.4710  144.5910 C   0  0  2  0  0  3  0  0  0  0  0  0
  189.9910  173.2490  139.7590 C   0  0  0  0  0  2  0  0  0  0  0  0
  188.8640  173.2080  137.5570 C   0  0  0  0  0  1  0  0  0  0  0  0
  188.7720  172.7590  139.0000 C   0  0  0  0  0  2  0  0  0  0  0  0
  1  4  1  0  0  0  0
  2 19  1  0  0  0  0
  3 10  1  0  0  0  0
  4 12  1  0  0  0  0
  4 20  2  0  0  0  0
  5 11  2  0  0  0  0
  5  1  1  0  0  0  0
  7  9  1  0  0  0  0
  7 15  1  1  0  0  0
  8  6  1  0  0  0  0
  8 12  2  0  0  0  0
  9 14  1  1  0  0  0
 10 21  1  1  0  0  0
 11  8  1  0  0  0  0
 12 27  1  0  0  0  0
 13  2  2  0  0  0  0
 13 18  1  0  0  0  0
 14 23  1  0  0  0  0
 15 23  1  0  0  0  0
 16  2  1  0  0  0  0
 17 20  1  0  0  0  0
 17  3  1  0  0  0  0
 18 25  2  0  0  0  0
 19  1  2  0  0  0  0
 19 26  1  0  0  0  0
 22 20  1  6  0  0  0
 22  9  1  0  0  0  0
 22 10  1  0  0  0  0
 25 26  1  0  0  0  0
 26 17  2  0  0  0  0
 27  7  1  0  0  0  0
 27 24  1  1  0  0  0
 28 11  1  0  0  0  0
 29 30  1  0  0  0  0
 30 28  1  0  0  0  0
M  END
>  <MODEL>
3

>  <REMARK>
 VINA RESULT:      -7.6      2.516      4.414
  Name = 
  2 active torsions:
  status: ('A' for Active; 'I' for Inactive)
    1  A    between atoms: C_11  and  C_28
    2  A    between atoms: C_28  and  C_30
                            x       y       z     vdW  Elec       q    Type
                         _______ _______ _______ _____ _____    ______ ____

>  <TORSDO>
F 2

$$$$
=
 OpenBabel11112416193D

 30 35  0  0  1  0  0  0  0  0999 V2000
  188.6120  176.1190  143.7260 C   0  0  0  0  0  0  0  0  0  0  0  0
  186.3620  177.1580  144.2810 C   0  0  0  0  0  0  0  0  0  0  0  0
  190.0730  177.2020  147.5080 N   0  0  0  0  0  2  0  0  0  0  0  0
  189.9520  175.8410  144.1410 C   0  0  0  0  0  0  0  0  0  0  0  0
  188.2100  175.6780  142.4610 C   0  0  0  0  0  3  0  0  0  0  0  0
  191.2470  174.0580  141.1470 O   0  0  0  0  0  1  0  0  0  0  0  0
  193.0470  176.1520  144.0560 C   0  0  1  0  0  3  0  0  0  0  0  0
  190.3870  174.7360  142.0070 C   0  0  0  0  0  0  0  0  0  0  0  0
  192.7740  176.6730  145.4150 N   0  0  2  0  0  0  0  0  0  0  0  0
  191.4320  176.6720  147.5070 C   0  0  1  0  0  3  0  0  0  0  0  0
  189.0730  174.9970  141.6080 C   0  0  0  0  0  0  0  0  0  0  0  0
  190.8400  175.1610  143.2660 C   0  0  0  0  0  0  0  0  0  0  0  0
  185.5760  177.8360  145.2140 C   0  0  0  0  0  3  0  0  0  0  0  0
  193.9990  176.4160  146.1510 C   0  0  0  0  0  2  0  0  0  0  0  0
  194.4810  175.9430  143.8840 N   0  0  0  0  0  2  0  0  0  0  0  0
  185.5470  176.7900  142.7630 Cl  0  0  0  0  0  0  0  0  0  0  0  0
  189.4960  176.9210  146.2490 C   0  0  0  0  0  0  0  0  0  0  0  0
  186.1010  178.1890  146.4510 C   0  0  0  0  0  3  0  0  0  0  0  0
  187.7140  176.8240  144.5990 C   0  0  0  0  0  0  0  0  0  0  0  0
  190.3540  176.2660  145.4170 C   0  0  0  0  0  0  0  0  0  0  0  0
  191.5660  175.6190  148.5890 C   0  0  0  0  0  1  0  0  0  0  0  0
  191.6560  176.0230  146.1180 C   0  0  1  0  0  3  0  0  0  0  0  0
  195.0980  176.3600  145.1290 C   0  0  0  0  0  2  0  0  0  0  0  0
  192.4660  173.6700  144.5080 C   0  0  0  0  0  1  0  0  0  0  0  0
  187.3820  177.8770  146.7560 N   0  0  0  0  0  0  0  0  0  0  0  0
  188.1900  177.2190  145.8820 C   0  0  0  0  0  0  0  0  0  0  0  0
  192.2790  174.8910  143.6170 C   0  0  2  0  0  3  0  0  0  0  0  0
  188.5670  174.5390  140.2800 C   0  0  0  0  0  2  0  0  0  0  0  0
  188.5630  172.4000  139.0380 C   0  0  0  0  0  1  0  0  0  0  0  0
  188.1910  173.0710  140.3430 C   0  0  0  0  0  2  0  0  0  0  0  0
  1  4  1  0  0  0  0
  1 19  1  0  0  0  0
  2 19  2  0  0  0  0
  2 13  1  0  0  0  0
  4 20  1  0  0  0  0
  5  1  2  0  0  0  0
  6  8  1  0  0  0  0
  7 15  1  1  0  0  0
  7  9  1  0  0  0  0
  8 12  1  0  0  0  0
  9 22  1  0  0  0  0
  9 14  1  1  0  0  0
 10  3  1  0  0  0  0
 10 21  1  1  0  0  0
 11  8  2  0  0  0  0
 11  5  1  0  0  0  0
 12 27  1  0  0  0  0
 12  4  2  0  0  0  0
 13 18  2  0  0  0  0
 15 23  1  0  0  0  0
 16  2  1  0  0  0  0
 17  3  1  0  0  0  0
 18 25  1  0  0  0  0
 19 26  1  0  0  0  0
 20 17  2  0  0  0  0
 22 20  1  6  0  0  0
 22 10  1  0  0  0  0
 23 14  1  0  0  0  0
 26 17  1  0  0  0  0
 26 25  2  0  0  0  0
 27  7  1  0  0  0  0
 27 24  1  1  0  0  0
 28 30  1  0  0  0  0
 28 11  1  0  0  0  0
 29 30  1  0  0  0  0
M  END
>  <MODEL>
4

>  <REMARK>
 VINA RESULT:      -7.5      2.372      3.459
  Name = 
  2 active torsions:
  status: ('A' for Active; 'I' for Inactive)
    1  A    between atoms: C_11  and  C_28
    2  A    between atoms: C_28  and  C_30
                            x       y       z     vdW  Elec       q    Type
                         _______ _______ _______ _____ _____    ______ ____

>  <TORSDO>
F 2

$$$$
=
 OpenBabel11112416193D

 30 35  0  0  1  0  0  0  0  0999 V2000
  188.0220  175.6960  141.6850 C   0  0  0  0  0  0  0  0  0  0  0  0
  186.3550  177.5940  141.4290 C   0  0  0  0  0  0  0  0  0  0  0  0
  188.6380  176.7470  145.7010 N   0  0  0  0  0  2  0  0  0  0  0  0
  188.9410  174.9980  142.5300 C   0  0  0  0  0  0  0  0  0  0  0  0
  187.8590  175.2400  140.3730 C   0  0  0  0  0  3  0  0  0  0  0  0
  190.1820  172.3860  140.1940 O   0  0  0  0  0  1  0  0  0  0  0  0
  191.7630  174.0800  143.4680 C   0  0  1  0  0  3  0  0  0  0  0  0
  189.4740  173.4740  140.6980 C   0  0  0  0  0  0  0  0  0  0  0  0
  191.3500  174.8840  144.6420 N   0  0  2  0  0  0  0  0  0  0  0  0
  189.5880  175.7440  146.1680 C   0  0  1  0  0  3  0  0  0  0  0  0
  188.5660  174.1490  139.8770 C   0  0  0  0  0  0  0  0  0  0  0  0
  189.6770  173.8950  142.0220 C   0  0  0  0  0  0  0  0  0  0  0  0
  185.6900  178.6670  142.0250 C   0  0  0  0  0  3  0  0  0  0  0  0
  192.0870  174.3030  145.7510 C   0  0  0  0  0  2  0  0  0  0  0  0
  192.9620  173.3120  143.7890 N   0  0  0  0  0  2  0  0  0  0  0  0
  185.9390  177.3210  139.7380 Cl  0  0  0  0  0  0  0  0  0  0  0  0
  188.3870  176.5030  144.3320 C   0  0  0  0  0  0  0  0  0  0  0  0
  185.9310  178.9910  143.3540 C   0  0  0  0  0  3  0  0  0  0  0  0
  187.2890  176.8250  142.1870 C   0  0  0  0  0  0  0  0  0  0  0  0
  189.0950  175.4420  143.8530 C   0  0  0  0  0  0  0  0  0  0  0  0
  188.9520  174.9150  147.2670 C   0  0  0  0  0  1  0  0  0  0  0  0
  189.9130  174.8390  144.9540 C   0  0  1  0  0  3  0  0  0  0  0  0
  193.3060  173.6620  145.1540 C   0  0  0  0  0  2  0  0  0  0  0  0
  190.0980  172.1230  143.7800 C   0  0  0  0  0  1  0  0  0  0  0  0
  186.8170  178.2660  144.0770 N   0  0  0  0  0  0  0  0  0  0  0  0
  187.4930  177.2150  143.5420 C   0  0  0  0  0  0  0  0  0  0  0  0
  190.7030  173.1570  142.8390 C   0  0  2  0  0  3  0  0  0  0  0  0
  188.3230  173.7070  138.4720 C   0  0  0  0  0  2  0  0  0  0  0  0
  188.5620  174.9080  136.3220 C   0  0  0  0  0  1  0  0  0  0  0  0
  187.8160  174.8690  137.6400 C   0  0  0  0  0  2  0  0  0  0  0  0
  1 19  2  0  0  0  0
  1  4  1  0  0  0  0
  2 13  2  0  0  0  0
  2 19  1  0  0  0  0
  3 10  1  0  0  0  0
  4 20  2  0  0  0  0
  5  1  1  0  0  0  0
  6  8  1  0  0  0  0
  7 15  1  1  0  0  0
  7  9  1  0  0  0  0
  8 12  2  0  0  0  0
  9 22  1  0  0  0  0
  9 14  1  1  0  0  0
 10 21  1  1  0  0  0
 11  5  2  0  0  0  0
 11  8  1  0  0  0  0
 12  4  1  0  0  0  0
 12 27  1  0  0  0  0
 13 18  1  0  0  0  0
 15 23  1  0  0  0  0
 16  2  1  0  0  0  0
 17  3  1  0  0  0  0
 18 25  2  0  0  0  0
 19 26  1  0  0  0  0
 20 17  1  0  0  0  0
 22 20  1  6  0  0  0
 22 10  1  0  0  0  0
 23 14  1  0  0  0  0
 26 25  1  0  0  0  0
 26 17  2  0  0  0  0
 27  7  1  0  0  0  0
 27 24  1  1  0  0  0
 28 11  1  0  0  0  0
 29 30  1  0  0  0  0
 30 28  1  0  0  0  0
M  END
>  <MODEL>
5

>  <REMARK>
 VINA RESULT:      -7.4      2.437      3.594
  Name = 
  2 active torsions:
  status: ('A' for Active; 'I' for Inactive)
    1  A    between atoms: C_11  and  C_28
    2  A    between atoms: C_28  and  C_30
                            x       y       z     vdW  Elec       q    Type
                         _______ _______ _______ _____ _____    ______ ____

>  <TORSDO>
F 2

$$$$
=
 OpenBabel11112416193D

 30 35  0  0  1  0  0  0  0  0999 V2000
  189.7570  175.7940  144.7040 C   0  0  0  0  0  0  0  0  0  0  0  0
  191.4170  176.4420  146.5130 C   0  0  0  0  0  0  0  0  0  0  0  0
  192.5080  173.0470  143.1270 N   0  0  0  0  0  2  0  0  0  0  0  0
  189.4750  175.0030  143.5460 C   0  0  0  0  0  0  0  0  0  0  0  0
  188.7550  176.6500  145.1750 C   0  0  0  0  0  3  0  0  0  0  0  0
  186.0080  176.1050  142.7820 O   0  0  0  0  0  1  0  0  0  0  0  0
  188.9260  174.5410  140.5190 C   0  0  1  0  0  3  0  0  0  0  0  0
  187.2460  175.9920  143.4090 C   0  0  0  0  0  0  0  0  0  0  0  0
  190.2050  173.8080  140.6630 N   0  0  2  0  0  0  0  0  0  0  0  0
  191.7800  172.4430  142.0170 C   0  0  1  0  0  3  0  0  0  0  0  0
  187.5180  176.7550  144.5480 C   0  0  0  0  0  0  0  0  0  0  0  0
  188.2190  175.1200  142.8930 C   0  0  0  0  0  0  0  0  0  0  0  0
  192.6820  176.2550  147.0730 C   0  0  0  0  0  3  0  0  0  0  0  0
  190.1600  172.7990  139.6190 C   0  0  0  0  0  2  0  0  0  0  0  0
  188.3230  174.2350  139.2250 N   0  0  0  0  0  2  0  0  0  0  0  0
  190.4180  177.6340  147.3400 Cl  0  0  0  0  0  0  0  0  0  0  0  0
  191.6740  174.0260  143.7120 C   0  0  0  0  0  0  0  0  0  0  0  0
  193.5700  175.3440  146.5130 C   0  0  0  0  0  3  0  0  0  0  0  0
  191.0310  175.6950  145.3580 C   0  0  0  0  0  0  0  0  0  0  0  0
  190.4700  174.1300  143.0810 C   0  0  0  0  0  0  0  0  0  0  0  0
  191.5950  170.9610  142.2780 C   0  0  0  0  0  1  0  0  0  0  0  0
  190.3970  173.1390  141.9590 C   0  0  1  0  0  3  0  0  0  0  0  0
  189.2430  173.3340  138.5580 C   0  0  0  0  0  2  0  0  0  0  0  0
  187.4410  172.9290  141.8950 C   0  0  0  0  0  1  0  0  0  0  0  0
  193.2100  174.6350  145.4170 N   0  0  0  0  0  0  0  0  0  0  0  0
  191.9910  174.7830  144.8330 C   0  0  0  0  0  0  0  0  0  0  0  0
  187.8820  174.3630  141.6380 C   0  0  2  0  0  3  0  0  0  0  0  0
  186.4910  177.6750  145.1210 C   0  0  0  0  0  2  0  0  0  0  0  0
  184.4480  177.7750  146.5130 C   0  0  0  0  0  1  0  0  0  0  0  0
  185.6740  176.9530  146.1750 C   0  0  0  0  0  2  0  0  0  0  0  0
  1  5  1  0  0  0  0
  1 19  1  0  0  0  0
  2 13  1  0  0  0  0
  2 16  1  0  0  0  0
  3 17  1  0  0  0  0
  4  1  2  0  0  0  0
  6  8  1  0  0  0  0
  7 15  1  6  0  0  0
  7  9  1  0  0  0  0
  7 27  1  0  0  0  0
  8 11  1  0  0  0  0
  9 14  1  6  0  0  0
  9 22  1  0  0  0  0
 10 21  1  1  0  0  0
 10  3  1  0  0  0  0
 11 28  1  0  0  0  0
 11  5  2  0  0  0  0
 12  8  2  0  0  0  0
 12  4  1  0  0  0  0
 17 26  1  0  0  0  0
 18 13  2  0  0  0  0
 19  2  2  0  0  0  0
 20  4  1  0  0  0  0
 20 17  2  0  0  0  0
 22 10  1  0  0  0  0
 22 20  1  1  0  0  0
 23 15  1  0  0  0  0
 23 14  1  0  0  0  0
 25 18  1  0  0  0  0
 26 19  1  0  0  0  0
 26 25  2  0  0  0  0
 27 24  1  1  0  0  0
 27 12  1  0  0  0  0
 28 30  1  0  0  0  0
 30 29  1  0  0  0  0
M  END
>  <MODEL>
6

>  <REMARK>
 VINA RESULT:      -7.3      3.254      5.472
  Name = 
  2 active torsions:
  status: ('A' for Active; 'I' for Inactive)
    1  A    between atoms: C_11  and  C_28
    2  A    between atoms: C_28  and  C_30
                            x       y       z     vdW  Elec       q    Type
                         _______ _______ _______ _____ _____    ______ ____

>  <TORSDO>
F 2

$$$$
=
 OpenBabel11112416193D

 30 35  0  0  1  0  0  0  0  0999 V2000
  190.9030  175.9660  144.8710 C   0  0  0  0  0  0  0  0  0  0  0  0
  193.2340  174.9750  145.0490 C   0  0  0  0  0  0  0  0  0  0  0  0
  190.3980  174.1680  141.1140 N   0  0  0  0  0  2  0  0  0  0  0  0
  189.7120  176.1280  144.0960 C   0  0  0  0  0  0  0  0  0  0  0  0
  190.9550  176.5720  146.1310 C   0  0  0  0  0  3  0  0  0  0  0  0
  187.6850  178.2520  146.3750 O   0  0  0  0  0  1  0  0  0  0  0  0
  187.6540  177.7290  142.3990 C   0  0  1  0  0  3  0  0  0  0  0  0
  188.7380  177.4940  145.8700 C   0  0  0  0  0  0  0  0  0  0  0  0
  188.1480  176.7800  141.3750 N   0  0  2  0  0  0  0  0  0  0  0  0
  189.0420  174.5500  140.7390 C   0  0  1  0  0  3  0  0  0  0  0  0
  189.8970  177.3250  146.6320 C   0  0  0  0  0  0  0  0  0  0  0  0
  188.6370  176.9090  144.5980 C   0  0  0  0  0  0  0  0  0  0  0  0
  194.2300  174.1940  144.4610 C   0  0  0  0  0  3  0  0  0  0  0  0
  187.0420  176.6510  140.4430 C   0  0  0  0  0  2  0  0  0  0  0  0
  186.4670  178.4190  141.9040 N   0  0  0  0  0  2  0  0  0  0  0  0
  193.6500  175.6230  146.6340 Cl  0  0  0  0  0  0  0  0  0  0  0  0
  190.6860  174.7600  142.3640 C   0  0  0  0  0  0  0  0  0  0  0  0
  194.0300  173.6260  143.2090 C   0  0  0  0  0  3  0  0  0  0  0  0
  192.0010  175.1930  144.3620 C   0  0  0  0  0  0  0  0  0  0  0  0
  189.6490  175.5060  142.8390 C   0  0  0  0  0  0  0  0  0  0  0  0
  188.1820  173.3080  140.6100 C   0  0  0  0  0  1  0  0  0  0  0  0
  188.4980  175.4440  141.8820 C   0  0  1  0  0  3  0  0  0  0  0  0
  186.2430  177.9150  140.5620 C   0  0  0  0  0  2  0  0  0  0  0  0
  186.3800  176.0250  143.8720 C   0  0  0  0  0  1  0  0  0  0  0  0
  192.8640  173.8320  142.5520 N   0  0  0  0  0  0  0  0  0  0  0  0
  191.8640  174.5870  143.0810 C   0  0  0  0  0  0  0  0  0  0  0  0
  187.3840  177.1690  143.8070 C   0  0  2  0  0  3  0  0  0  0  0  0
  190.0170  177.9250  147.9940 C   0  0  0  0  0  2  0  0  0  0  0  0
  191.5660  178.2910  149.8880 C   0  0  0  0  0  1  0  0  0  0  0  0
  191.2840  177.4360  148.6700 C   0  0  0  0  0  2  0  0  0  0  0  0
  1  5  1  0  0  0  0
  2 16  1  0  0  0  0
  3 17  1  0  0  0  0
  4 12  1  0  0  0  0
  4  1  2  0  0  0  0
  5 11  2  0  0  0  0
  7 15  1  6  0  0  0
  7 27  1  0  0  0  0
  8  6  1  0  0  0  0
  8 11  1  0  0  0  0
  9 14  1  6  0  0  0
  9 22  1  0  0  0  0
  9  7  1  0  0  0  0
 10 21  1  1  0  0  0
 10  3  1  0  0  0  0
 10 22  1  0  0  0  0
 11 28  1  0  0  0  0
 12  8  2  0  0  0  0
 13  2  1  0  0  0  0
 14 23  1  0  0  0  0
 17 20  2  0  0  0  0
 17 26  1  0  0  0  0
 18 13  2  0  0  0  0
 19  1  1  0  0  0  0
 19  2  2  0  0  0  0
 20  4  1  0  0  0  0
 22 20  1  1  0  0  0
 23 15  1  0  0  0  0
 25 26  2  0  0  0  0
 25 18  1  0  0  0  0
 26 19  1  0  0  0  0
 27 24  1  6  0  0  0
 27 12  1  0  0  0  0
 28 30  1  0  0  0  0
 30 29  1  0  0  0  0
M  END
>  <MODEL>
7

>  <REMARK>
 VINA RESULT:      -7.2      3.468      7.202
  Name = 
  2 active torsions:
  status: ('A' for Active; 'I' for Inactive)
    1  A    between atoms: C_11  and  C_28
    2  A    between atoms: C_28  and  C_30
                            x       y       z     vdW  Elec       q    Type
                         _______ _______ _______ _____ _____    ______ ____

>  <TORSDO>
F 2

$$$$
=
 OpenBabel11112416193D

 30 35  0  0  1  0  0  0  0  0999 V2000
  187.6500  176.6430  143.3540 C   0  0  0  0  0  0  0  0  0  0  0  0
  185.9790  178.0230  142.0310 C   0  0  0  0  0  0  0  0  0  0  0  0
  188.7090  174.5460  139.8770 N   0  0  0  0  0  2  0  0  0  0  0  0
  188.6210  175.5930  143.3550 C   0  0  0  0  0  0  0  0  0  0  0  0
  187.4000  177.3090  144.5590 C   0  0  0  0  0  3  0  0  0  0  0  0
  189.6420  175.5990  146.9300 O   0  0  0  0  0  1  0  0  0  0  0  0
  189.7170  172.7730  144.0840 C   0  0  1  0  0  3  0  0  0  0  0  0
  188.9940  175.9350  145.7440 C   0  0  0  0  0  0  0  0  0  0  0  0
  189.6320  172.6430  142.6110 N   0  0  2  0  0  0  0  0  0  0  0  0
  189.7530  173.6380  140.3380 C   0  0  1  0  0  3  0  0  0  0  0  0
  188.0550  176.9700  145.7390 C   0  0  0  0  0  0  0  0  0  0  0  0
  189.2790  175.2340  144.5620 C   0  0  0  0  0  0  0  0  0  0  0  0
  185.3880  178.2910  140.7950 C   0  0  0  0  0  3  0  0  0  0  0  0
  190.6440  171.6550  142.2790 C   0  0  0  0  0  2  0  0  0  0  0  0
  190.4710  171.6530  144.6380 N   0  0  0  0  0  2  0  0  0  0  0  0
  185.3970  179.0290  143.3560 Cl  0  0  0  0  0  0  0  0  0  0  0  0
  188.2510  175.2830  140.9920 C   0  0  0  0  0  0  0  0  0  0  0  0
  185.7570  177.5650  139.6690 C   0  0  0  0  0  3  0  0  0  0  0  0
  186.9680  176.9980  142.1410 C   0  0  0  0  0  0  0  0  0  0  0  0
  188.8880  174.9340  142.1450 C   0  0  0  0  0  0  0  0  0  0  0  0
  191.0550  173.9630  139.6320 C   0  0  0  0  0  1  0  0  0  0  0  0
  189.9110  173.8770  141.8600 C   0  0  1  0  0  3  0  0  0  0  0  0
  190.8290  170.8150  143.5100 C   0  0  0  0  0  2  0  0  0  0  0  0
  191.6630  174.4770  144.1740 C   0  0  0  0  0  1  0  0  0  0  0  0
  186.6920  176.5910  139.7680 N   0  0  0  0  0  0  0  0  0  0  0  0
  187.2950  176.2900  140.9490 C   0  0  0  0  0  0  0  0  0  0  0  0
  190.2640  174.0990  144.6440 C   0  0  2  0  0  3  0  0  0  0  0  0
  187.7500  177.7400  146.9820 C   0  0  0  0  0  2  0  0  0  0  0  0
  185.5800  178.8940  147.2620 C   0  0  0  0  0  1  0  0  0  0  0  0
  186.2930  177.5610  147.3620 C   0  0  0  0  0  2  0  0  0  0  0  0
  1  4  1  0  0  0  0
  1  5  2  0  0  0  0
  2 19  1  0  0  0  0
  2 16  1  0  0  0  0
  3 10  1  0  0  0  0
  3 17  1  0  0  0  0
  4 12  2  0  0  0  0
  5 11  1  0  0  0  0
  7 15  1  6  0  0  0
  7 27  1  0  0  0  0
  8  6  1  0  0  0  0
  9 14  1  6  0  0  0
  9  7  1  0  0  0  0
 10 21  1  6  0  0  0
 10 22  1  0  0  0  0
 11  8  2  0  0  0  0
 11 28  1  0  0  0  0
 12 27  1  0  0  0  0
 12  8  1  0  0  0  0
 13  2  2  0  0  0  0
 14 23  1  0  0  0  0
 17 20  2  0  0  0  0
 18 25  2  0  0  0  0
 18 13  1  0  0  0  0
 19  1  1  0  0  0  0
 20  4  1  0  0  0  0
 22 20  1  1  0  0  0
 22  9  1  0  0  0  0
 23 15  1  0  0  0  0
 25 26  1  0  0  0  0
 26 17  1  0  0  0  0
 26 19  2  0  0  0  0
 27 24  1  6  0  0  0
 28 30  1  0  0  0  0
 29 30  1  0  0  0  0
M  END
>  <MODEL>
8

>  <REMARK>
 VINA RESULT:      -7.2      2.730      5.236
  Name = 
  2 active torsions:
  status: ('A' for Active; 'I' for Inactive)
    1  A    between atoms: C_11  and  C_28
    2  A    between atoms: C_28  and  C_30
                            x       y       z     vdW  Elec       q    Type
                         _______ _______ _______ _____ _____    ______ ____

>  <TORSDO>
F 2

$$$$
=
 OpenBabel11112416193D

 30 35  0  0  1  0  0  0  0  0999 V2000
  189.5190  175.5000  142.7370 C   0  0  0  0  0  0  0  0  0  0  0  0
  187.4050  176.9010  142.6180 C   0  0  0  0  0  0  0  0  0  0  0  0
  190.3170  176.9840  146.5800 N   0  0  0  0  0  2  0  0  0  0  0  0
  190.6790  175.1200  143.4820 C   0  0  0  0  0  0  0  0  0  0  0  0
  189.3230  174.9150  141.4810 C   0  0  0  0  0  3  0  0  0  0  0  0
  192.2600  172.7190  141.1240 O   0  0  0  0  0  1  0  0  0  0  0  0
  193.7320  175.0040  144.0730 C   0  0  1  0  0  3  0  0  0  0  0  0
  191.3620  173.6350  141.6670 C   0  0  0  0  0  0  0  0  0  0  0  0
  193.2700  175.7720  145.2540 N   0  0  2  0  0  0  0  0  0  0  0  0
  191.5400  176.2870  146.9610 C   0  0  1  0  0  3  0  0  0  0  0  0
  190.2220  173.9970  140.9460 C   0  0  0  0  0  0  0  0  0  0  0  0
  191.6070  174.1960  142.9310 C   0  0  0  0  0  0  0  0  0  0  0  0
  186.5630  177.8190  143.2480 C   0  0  0  0  0  3  0  0  0  0  0  0
  194.2570  175.4800  146.2790 C   0  0  0  0  0  2  0  0  0  0  0  0
  195.1160  174.5840  144.2660 N   0  0  0  0  0  2  0  0  0  0  0  0
  186.8750  176.4010  141.0140 Cl  0  0  0  0  0  0  0  0  0  0  0  0
  189.9770  176.5790  145.2700 C   0  0  0  0  0  0  0  0  0  0  0  0
  186.8690  178.2970  144.5170 C   0  0  0  0  0  3  0  0  0  0  0  0
  188.5870  176.4480  143.2800 C   0  0  0  0  0  0  0  0  0  0  0  0
  190.8700  175.6910  144.7500 C   0  0  0  0  0  0  0  0  0  0  0  0
  191.2710  175.4160  148.1730 C   0  0  0  0  0  1  0  0  0  0  0  0
  191.9400  175.3970  145.7580 C   0  0  1  0  0  3  0  0  0  0  0  0
  195.5200  175.1150  145.5540 C   0  0  0  0  0  2  0  0  0  0  0  0
  192.6710  172.7280  144.6970 C   0  0  0  0  0  1  0  0  0  0  0  0
  187.9900  177.8730  145.1470 N   0  0  0  0  0  0  0  0  0  0  0  0
  188.8430  176.9820  144.5750 C   0  0  0  0  0  0  0  0  0  0  0  0
  192.8760  173.8010  143.6360 C   0  0  2  0  0  3  0  0  0  0  0  0
  189.9350  173.3990  139.6080 C   0  0  0  0  0  2  0  0  0  0  0  0
  188.2290  174.1570  137.9850 C   0  0  0  0  0  1  0  0  0  0  0  0
  188.4490  173.4660  139.3140 C   0  0  0  0  0  2  0  0  0  0  0  0
  1 19  2  0  0  0  0
  1  4  1  0  0  0  0
  2 13  2  0  0  0  0
  2 19  1  0  0  0  0
  3 10  1  0  0  0  0
  4 20  2  0  0  0  0
  5  1  1  0  0  0  0
  6  8  1  0  0  0  0
  7 15  1  1  0  0  0
  7  9  1  0  0  0  0
  8 12  2  0  0  0  0
  9 22  1  0  0  0  0
  9 14  1  1  0  0  0
 10 21  1  1  0  0  0
 11  5  2  0  0  0  0
 11  8  1  0  0  0  0
 12  4  1  0  0  0  0
 12 27  1  0  0  0  0
 13 18  1  0  0  0  0
 15 23  1  0  0  0  0
 16  2  1  0  0  0  0
 17  3  1  0  0  0  0
 18 25  2  0  0  0  0
 19 26  1  0  0  0  0
 20 17  1  0  0  0  0
 22 20  1  6  0  0  0
 22 10  1  0  0  0  0
 23 14  1  0  0  0  0
 26 25  1  0  0  0  0
 26 17  2  0  0  0  0
 27  7  1  0  0  0  0
 27 24  1  1  0  0  0
 28 11  1  0  0  0  0
 29 30  1  0  0  0  0
 30 28  1  0  0  0  0
M  END
>  <MODEL>
9

>  <REMARK>
 VINA RESULT:      -7.0      2.648      4.232
  Name = 
  2 active torsions:
  status: ('A' for Active; 'I' for Inactive)
    1  A    between atoms: C_11  and  C_28
    2  A    between atoms: C_28  and  C_30
                            x       y       z     vdW  Elec       q    Type
                         _______ _______ _______ _____ _____    ______ ____

>  <TORSDO>
F 2

$$$$
