=
 OpenBabel11112416143D

 30 35  0  0  1  0  0  0  0  0999 V2000
  187.7240  176.9190  145.6930 C   0  0  0  0  0  0  0  0  0  0  0  0
  185.9100  177.9670  147.0700 C   0  0  0  0  0  0  0  0  0  0  0  0
  185.2680  177.4950  141.8640 S   0  0  0  0  0  0  0  0  0  0  0  0
  188.1990  176.5030  144.4220 C   0  0  0  0  0  0  0  0  0  0  0  0
  188.6120  176.7030  146.8780 C   0  0  0  0  0  2  0  0  0  0  0  0
  191.8020  176.6130  145.0050 O   0  0  0  0  0  1  0  0  0  0  0  0
  188.6690  174.2010  142.6600 C   0  0  1  0  0  3  0  0  0  0  0  0
  190.5650  176.1590  145.4680 C   0  0  1  0  0  3  0  0  0  0  0  0
  188.6930  175.2810  141.6390 C   0  0  1  0  0  3  0  0  0  0  0  0
  186.6810  176.7390  140.9740 C   0  0  1  0  0  3  0  0  0  0  0  0
  190.0290  177.1150  146.5270 C   0  0  2  0  0  3  0  0  0  0  0  0
  189.6170  175.9420  144.2660 C   0  0  1  0  0  3  0  0  0  0  0  0
  184.6540  178.5750  147.1270 C   0  0  0  0  0  3  0  0  0  0  0  0
  188.4100  174.4930  140.3810 C   0  0  0  0  0  2  0  0  0  0  0  0
  188.9230  172.9760  141.9310 N   0  0  0  0  0  2  0  0  0  0  0  0
  186.5980  177.8020  148.2670 O   0  0  0  0  0  1  0  0  0  0  0  0
  186.1520  177.3330  143.4110 C   0  0  0  0  0  0  0  0  0  0  0  0
  183.9060  178.7730  145.9690 C   0  0  0  0  0  3  0  0  0  0  0  0
  186.4450  177.5370  145.8240 C   0  0  0  0  0  0  0  0  0  0  0  0
  187.3740  176.7130  143.2910 C   0  0  0  0  0  0  0  0  0  0  0  0
  187.3130  177.7770  140.0660 C   0  0  0  0  0  1  0  0  0  0  0  0
  187.6610  176.2760  141.9560 N   0  0  0  0  0  0  0  0  0  0  0  0
  188.3330  173.1220  140.7080 O   0  0  0  0  0  0  0  0  0  0  0  0
  191.0950  174.1190  143.3450 C   0  0  0  0  0  1  0  0  0  0  0  0
  184.4090  178.3590  144.7400 C   0  0  0  0  0  3  0  0  0  0  0  0
  185.6650  177.7470  144.6530 C   0  0  0  0  0  0  0  0  0  0  0  0
  189.6760  174.4720  143.7860 C   0  0  2  0  0  3  0  0  0  0  0  0
  190.9040  177.0530  147.7690 C   0  0  0  0  0  2  0  0  0  0  0  0
  191.5060  178.1780  149.8900 C   0  0  0  0  0  1  0  0  0  0  0  0
  190.5240  178.1570  148.7380 C   0  0  0  0  0  2  0  0  0  0  0  0
  1 19  1  0  0  0  0
  1  5  1  0  0  0  0
  2 13  1  0  0  0  0
  2 16  1  0  0  0  0
  3 17  1  0  0  0  0
  4  1  2  0  0  0  0
  7 15  1  6  0  0  0
  7 27  1  0  0  0  0
  8  6  1  6  0  0  0
  8 11  1  0  0  0  0
  9 14  1  6  0  0  0
  9 22  1  0  0  0  0
  9  7  1  0  0  0  0
 10 21  1  6  0  0  0
 10  3  1  0  0  0  0
 10 22  1  0  0  0  0
 11  5  1  0  0  0  0
 11 28  1  1  0  0  0
 12  4  1  1  0  0  0
 12  8  1  0  0  0  0
 14 23  1  0  0  0  0
 17 26  1  0  0  0  0
 18 13  2  0  0  0  0
 19  2  2  0  0  0  0
 20 17  2  0  0  0  0
 20  4  1  0  0  0  0
 22 20  1  0  0  0  0
 23 15  1  0  0  0  0
 25 18  1  0  0  0  0
 26 25  2  0  0  0  0
 26 19  1  0  0  0  0
 27 24  1  6  0  0  0
 27 12  1  0  0  0  0
 28 30  1  0  0  0  0
 30 29  1  0  0  0  0
M  END
>  <MODEL>
1

>  <REMARK>
 VINA RESULT:      -8.6      0.000      0.000
  Name = 
  2 active torsions:
  status: ('A' for Active; 'I' for Inactive)
    1  A    between atoms: C_11  and  C_28
    2  A    between atoms: C_28  and  C_30
                            x       y       z     vdW  Elec       q    Type
                         _______ _______ _______ _____ _____    ______ ____

>  <TORSDO>
F 2

$$$$
=
 OpenBabel11112416143D

 30 35  0  0  1  0  0  0  0  0999 V2000
  189.1110  176.6760  145.6550 C   0  0  0  0  0  0  0  0  0  0  0  0
  191.2650  176.4670  146.9200 C   0  0  0  0  0  0  0  0  0  0  0  0
  190.8350  174.2690  142.1530 S   0  0  0  0  0  0  0  0  0  0  0  0
  188.3560  176.3970  144.4860 C   0  0  0  0  0  0  0  0  0  0  0  0
  188.4480  177.4540  146.7480 C   0  0  0  0  0  2  0  0  0  0  0  0
  184.9700  176.5800  145.8400 O   0  0  0  0  0  1  0  0  0  0  0  0
  187.2930  177.5050  141.9830 C   0  0  1  0  0  3  0  0  0  0  0  0
  186.2120  177.2100  145.7310 C   0  0  1  0  0  3  0  0  0  0  0  0
  187.1980  176.0590  141.6520 C   0  0  1  0  0  3  0  0  0  0  0  0
  189.2000  174.4720  141.3500 C   0  0  1  0  0  3  0  0  0  0  0  0
  187.0480  176.9150  146.9710 C   0  0  2  0  0  3  0  0  0  0  0  0
  186.8790  176.7990  144.3990 C   0  0  1  0  0  3  0  0  0  0  0  0
  192.5700  175.9730  146.9830 C   0  0  0  0  0  3  0  0  0  0  0  0
  187.1410  176.1120  140.1430 C   0  0  0  0  0  2  0  0  0  0  0  0
  186.7630  178.2000  140.8260 N   0  0  0  0  0  2  0  0  0  0  0  0
  190.8060  177.2060  148.0040 O   0  0  0  0  0  1  0  0  0  0  0  0
  190.2520  175.1810  143.5770 C   0  0  0  0  0  0  0  0  0  0  0  0
  193.0990  175.2250  145.9340 C   0  0  0  0  0  3  0  0  0  0  0  0
  190.4550  176.2120  145.7790 C   0  0  0  0  0  0  0  0  0  0  0  0
  188.9670  175.6520  143.4480 C   0  0  0  0  0  0  0  0  0  0  0  0
  188.5290  173.1160  141.2320 C   0  0  0  0  0  1  0  0  0  0  0  0
  188.3800  175.3610  142.1730 N   0  0  0  0  0  0  0  0  0  0  0  0
  187.1200  177.4630  139.7340 O   0  0  0  0  0  0  0  0  0  0  0  0
  185.0510  177.9100  143.0640 C   0  0  0  0  0  1  0  0  0  0  0  0
  192.3250  174.9650  144.8090 C   0  0  0  0  0  3  0  0  0  0  0  0
  191.0140  175.4460  144.7180 C   0  0  0  0  0  0  0  0  0  0  0  0
  186.5590  177.8310  143.2900 C   0  0  2  0  0  3  0  0  0  0  0  0
  186.4270  177.5880  148.1850 C   0  0  0  0  0  2  0  0  0  0  0  0
  186.2020  180.0500  148.0630 C   0  0  0  0  0  1  0  0  0  0  0  0
  187.1150  178.9110  148.4650 C   0  0  0  0  0  2  0  0  0  0  0  0
  1 19  1  0  0  0  0
  1  5  1  0  0  0  0
  2 13  1  0  0  0  0
  2 16  1  0  0  0  0
  3 17  1  0  0  0  0
  4  1  2  0  0  0  0
  5 11  1  0  0  0  0
  7 15  1  6  0  0  0
  7 27  1  0  0  0  0
  8  6  1  1  0  0  0
  8 11  1  0  0  0  0
  9 14  1  6  0  0  0
  9  7  1  0  0  0  0
  9 22  1  0  0  0  0
 10 21  1  1  0  0  0
 10  3  1  0  0  0  0
 10 22  1  0  0  0  0
 11 28  1  1  0  0  0
 12  4  1  1  0  0  0
 12  8  1  0  0  0  0
 17 26  1  0  0  0  0
 18 13  2  0  0  0  0
 19  2  2  0  0  0  0
 20 17  2  0  0  0  0
 20  4  1  0  0  0  0
 22 20  1  0  0  0  0
 23 14  1  0  0  0  0
 23 15  1  0  0  0  0
 25 18  1  0  0  0  0
 26 25  2  0  0  0  0
 26 19  1  0  0  0  0
 27 24  1  6  0  0  0
 27 12  1  0  0  0  0
 28 30  1  0  0  0  0
 29 30  1  0  0  0  0
M  END
>  <MODEL>
2

>  <REMARK>
 VINA RESULT:      -8.1      2.229      4.994
  Name = 
  2 active torsions:
  status: ('A' for Active; 'I' for Inactive)
    1  A    between atoms: C_11  and  C_28
    2  A    between atoms: C_28  and  C_30
                            x       y       z     vdW  Elec       q    Type
                         _______ _______ _______ _____ _____    ______ ____

>  <TORSDO>
F 2

$$$$
=
 OpenBabel11112416143D

 30 35  0  0  1  0  0  0  0  0999 V2000
  188.2680  175.6730  141.9880 C   0  0  0  0  0  0  0  0  0  0  0  0
  186.4690  177.3280  141.4320 C   0  0  0  0  0  0  0  0  0  0  0  0
  188.2810  177.0280  146.3690 S   0  0  0  0  0  0  0  0  0  0  0  0
  189.1370  175.1000  142.9520 C   0  0  0  0  0  0  0  0  0  0  0  0
  188.3300  175.1460  140.5890 C   0  0  0  0  0  2  0  0  0  0  0  0
  189.7080  171.8220  141.4500 O   0  0  0  0  0  1  0  0  0  0  0  0
  191.8970  174.9980  143.9500 C   0  0  1  0  0  3  0  0  0  0  0  0
  189.7040  173.2050  141.2520 C   0  0  1  0  0  3  0  0  0  0  0  0
  191.2010  174.4490  145.1440 C   0  0  1  0  0  3  0  0  0  0  0  0
  189.5730  175.7580  146.6440 C   0  0  1  0  0  3  0  0  0  0  0  0
  188.3820  173.6300  140.6240 C   0  0  2  0  0  3  0  0  0  0  0  0
  190.0350  173.9140  142.5850 C   0  0  1  0  0  3  0  0  0  0  0  0
  185.5940  178.3300  141.8600 C   0  0  0  0  0  3  0  0  0  0  0  0
  192.2330  174.6970  146.2190 C   0  0  0  0  0  2  0  0  0  0  0  0
  193.3060  174.9810  144.2860 N   0  0  0  0  0  2  0  0  0  0  0  0
  186.4330  176.9750  140.0880 O   0  0  0  0  0  1  0  0  0  0  0  0
  188.1850  176.5610  144.6440 C   0  0  0  0  0  0  0  0  0  0  0  0
  185.5750  178.7370  143.1910 C   0  0  0  0  0  3  0  0  0  0  0  0
  187.3580  176.7090  142.3540 C   0  0  0  0  0  0  0  0  0  0  0  0
  189.0800  175.5820  144.2830 C   0  0  0  0  0  0  0  0  0  0  0  0
  189.0240  174.6760  147.5560 C   0  0  0  0  0  1  0  0  0  0  0  0
  189.9440  175.1780  145.3540 N   0  0  0  0  0  0  0  0  0  0  0  0
  193.3910  175.2440  145.6230 O   0  0  0  0  0  0  0  0  0  0  0  0
  192.3410  172.8950  142.6300 C   0  0  0  0  0  1  0  0  0  0  0  0
  186.4360  178.1460  144.1090 C   0  0  0  0  0  3  0  0  0  0  0  0
  187.3230  177.1400  143.7100 C   0  0  0  0  0  0  0  0  0  0  0  0
  191.5530  174.2020  142.6850 C   0  0  2  0  0  3  0  0  0  0  0  0
  188.2800  173.0810  139.2100 C   0  0  0  0  0  2  0  0  0  0  0  0
  189.0430  173.8850  136.9970 C   0  0  0  0  0  1  0  0  0  0  0  0
  188.1950  174.2160  138.2070 C   0  0  0  0  0  2  0  0  0  0  0  0
  1 19  2  0  0  0  0
  1  4  1  0  0  0  0
  2 13  2  0  0  0  0
  2 19  1  0  0  0  0
  3 10  1  0  0  0  0
  4 20  2  0  0  0  0
  5 11  1  0  0  0  0
  5  1  1  0  0  0  0
  7 15  1  1  0  0  0
  7  9  1  0  0  0  0
  8  6  1  1  0  0  0
  8 12  1  0  0  0  0
  9 22  1  0  0  0  0
  9 14  1  1  0  0  0
 10 21  1  1  0  0  0
 11 28  1  6  0  0  0
 11  8  1  0  0  0  0
 12 27  1  0  0  0  0
 12  4  1  6  0  0  0
 13 18  1  0  0  0  0
 15 23  1  0  0  0  0
 16  2  1  0  0  0  0
 17  3  1  0  0  0  0
 18 25  2  0  0  0  0
 19 26  1  0  0  0  0
 20 17  1  0  0  0  0
 20 22  1  0  0  0  0
 22 10  1  0  0  0  0
 23 14  1  0  0  0  0
 26 25  1  0  0  0  0
 26 17  2  0  0  0  0
 27 24  1  1  0  0  0
 27  7  1  0  0  0  0
 29 30  1  0  0  0  0
 30 28  1  0  0  0  0
M  END
>  <MODEL>
3

>  <REMARK>
 VINA RESULT:      -7.9      2.751      6.077
  Name = 
  2 active torsions:
  status: ('A' for Active; 'I' for Inactive)
    1  A    between atoms: C_11  and  C_28
    2  A    between atoms: C_28  and  C_30
                            x       y       z     vdW  Elec       q    Type
                         _______ _______ _______ _____ _____    ______ ____

>  <TORSDO>
F 2

$$$$
=
 OpenBabel11112416143D

 30 35  0  0  1  0  0  0  0  0999 V2000
  188.6050  175.9520  142.9140 C   0  0  0  0  0  0  0  0  0  0  0  0
  186.4990  177.3120  142.9120 C   0  0  0  0  0  0  0  0  0  0  0  0
  189.6900  177.4790  147.1000 S   0  0  0  0  0  0  0  0  0  0  0  0
  189.7910  175.5490  143.5800 C   0  0  0  0  0  0  0  0  0  0  0  0
  188.3340  175.3810  141.5570 C   0  0  0  0  0  2  0  0  0  0  0  0
  190.3770  172.3240  141.9720 O   0  0  0  0  0  1  0  0  0  0  0  0
  192.7060  175.8790  143.7230 C   0  0  1  0  0  3  0  0  0  0  0  0
  190.1120  173.6820  141.7860 C   0  0  1  0  0  3  0  0  0  0  0  0
  192.4750  175.2870  145.0680 C   0  0  1  0  0  3  0  0  0  0  0  0
  191.1790  176.4160  146.9820 C   0  0  1  0  0  3  0  0  0  0  0  0
  188.6170  173.8910  141.5740 C   0  0  2  0  0  3  0  0  0  0  0  0
  190.7080  174.4860  142.9630 C   0  0  1  0  0  3  0  0  0  0  0  0
  185.6490  178.1970  143.5790 C   0  0  0  0  0  3  0  0  0  0  0  0
  193.7270  175.7240  145.7930 C   0  0  0  0  0  2  0  0  0  0  0  0
  194.1380  176.0750  143.6300 N   0  0  0  0  0  2  0  0  0  0  0  0
  186.1260  176.9010  141.6380 O   0  0  0  0  0  1  0  0  0  0  0  0
  189.1680  176.9300  145.4790 C   0  0  0  0  0  0  0  0  0  0  0  0
  185.9580  178.6540  144.8580 C   0  0  0  0  0  3  0  0  0  0  0  0
  187.6990  176.8640  143.5320 C   0  0  0  0  0  0  0  0  0  0  0  0
  190.0540  176.0730  144.8690 C   0  0  0  0  0  0  0  0  0  0  0  0
  191.0850  175.3070  148.0130 C   0  0  0  0  0  1  0  0  0  0  0  0
  191.2410  175.8400  145.6390 N   0  0  0  0  0  0  0  0  0  0  0  0
  194.5680  176.4030  144.8840 O   0  0  0  0  0  0  0  0  0  0  0  0
  193.0510  173.8060  142.3290 C   0  0  0  0  0  1  0  0  0  0  0  0
  187.1250  178.2290  145.4830 C   0  0  0  0  0  3  0  0  0  0  0  0
  187.9960  177.3420  144.8390 C   0  0  0  0  0  0  0  0  0  0  0  0
  192.1300  174.9900  142.6140 C   0  0  2  0  0  3  0  0  0  0  0  0
  188.1910  173.2730  140.2510 C   0  0  0  0  0  2  0  0  0  0  0  0
  188.1910  174.1650  137.9420 C   0  0  0  0  0  1  0  0  0  0  0  0
  189.0630  173.7900  139.1220 C   0  0  0  0  0  2  0  0  0  0  0  0
  1 19  2  0  0  0  0
  1  4  1  0  0  0  0
  2 19  1  0  0  0  0
  2 13  2  0  0  0  0
  4 20  2  0  0  0  0
  5 11  1  0  0  0  0
  5  1  1  0  0  0  0
  7 15  1  6  0  0  0
  7  9  1  0  0  0  0
  8  6  1  1  0  0  0
  8 12  1  0  0  0  0
  9 22  1  0  0  0  0
  9 14  1  1  0  0  0
 10  3  1  0  0  0  0
 10 21  1  1  0  0  0
 11 28  1  6  0  0  0
 11  8  1  0  0  0  0
 12  4  1  6  0  0  0
 13 18  1  0  0  0  0
 15 23  1  0  0  0  0
 16  2  1  0  0  0  0
 17  3  1  0  0  0  0
 18 25  2  0  0  0  0
 19 26  1  0  0  0  0
 20 17  1  0  0  0  0
 20 22  1  0  0  0  0
 22 10  1  0  0  0  0
 23 14  1  0  0  0  0
 26 17  2  0  0  0  0
 26 25  1  0  0  0  0
 27 24  1  1  0  0  0
 27 12  1  0  0  0  0
 27  7  1  0  0  0  0
 29 30  1  0  0  0  0
 30 28  1  0  0  0  0
M  END
>  <MODEL>
4

>  <REMARK>
 VINA RESULT:      -7.8      2.743      5.949
  Name = 
  2 active torsions:
  status: ('A' for Active; 'I' for Inactive)
    1  A    between atoms: C_11  and  C_28
    2  A    between atoms: C_28  and  C_30
                            x       y       z     vdW  Elec       q    Type
                         _______ _______ _______ _____ _____    ______ ____

>  <TORSDO>
F 2

$$$$
=
 OpenBabel11112416143D

 30 35  0  0  1  0  0  0  0  0999 V2000
  189.9210  176.5740  144.9520 C   0  0  0  0  0  0  0  0  0  0  0  0
  188.9000  177.5420  147.0270 C   0  0  0  0  0  0  0  0  0  0  0  0
  185.9850  177.1110  142.6600 S   0  0  0  0  0  0  0  0  0  0  0  0
  189.7800  176.1890  143.5930 C   0  0  0  0  0  0  0  0  0  0  0  0
  191.2540  176.3730  145.6020 C   0  0  0  0  0  2  0  0  0  0  0  0
  193.2530  176.4140  142.4900 O   0  0  0  0  0  1  0  0  0  0  0  0
  189.4600  173.9260  141.7500 C   0  0  1  0  0  3  0  0  0  0  0  0
  192.3700  175.9130  143.4490 C   0  0  1  0  0  3  0  0  0  0  0  0
  188.9920  175.0180  140.8560 C   0  0  1  0  0  3  0  0  0  0  0  0
  186.8620  176.4140  141.2090 C   0  0  1  0  0  3  0  0  0  0  0  0
  192.3480  176.8370  144.6600 C   0  0  2  0  0  3  0  0  0  0  0  0
  190.9880  175.6780  142.7990 C   0  0  1  0  0  3  0  0  0  0  0  0
  187.7910  178.1070  147.6600 C   0  0  0  0  0  3  0  0  0  0  0  0
  188.1910  174.2360  139.8410 C   0  0  0  0  0  2  0  0  0  0  0  0
  189.3870  172.7180  140.9520 N   0  0  0  0  0  2  0  0  0  0  0  0
  190.0580  177.3860  147.7790 O   0  0  0  0  0  1  0  0  0  0  0  0
  187.4770  176.9610  143.6370 C   0  0  0  0  0  0  0  0  0  0  0  0
  186.5960  178.2930  146.9700 C   0  0  0  0  0  3  0  0  0  0  0  0
  188.8240  177.1450  145.6630 C   0  0  0  0  0  0  0  0  0  0  0  0
  188.5280  176.3850  142.9620 C   0  0  0  0  0  0  0  0  0  0  0  0
  186.9890  177.4840  140.1410 C   0  0  0  0  0  1  0  0  0  0  0  0
  188.1910  175.9730  141.6310 N   0  0  0  0  0  0  0  0  0  0  0  0
  188.3050  172.8590  140.1320 O   0  0  0  0  0  0  0  0  0  0  0  0
  191.9350  173.9180  141.2630 C   0  0  0  0  0  1  0  0  0  0  0  0
  186.4980  177.9120  145.6360 C   0  0  0  0  0  3  0  0  0  0  0  0
  187.5940  177.3440  144.9750 C   0  0  0  0  0  0  0  0  0  0  0  0
  190.8600  174.2170  142.3060 C   0  0  2  0  0  3  0  0  0  0  0  0
  193.6910  176.7900  145.3720 C   0  0  0  0  0  2  0  0  0  0  0  0
  195.2880  174.9410  145.7650 C   0  0  0  0  0  1  0  0  0  0  0  0
  193.8870  175.4430  146.0410 C   0  0  0  0  0  2  0  0  0  0  0  0
  1  5  1  0  0  0  0
  1 19  1  0  0  0  0
  2 13  1  0  0  0  0
  2 16  1  0  0  0  0
  3 17  1  0  0  0  0
  4  1  2  0  0  0  0
  7 15  1  6  0  0  0
  7 27  1  0  0  0  0
  8  6  1  6  0  0  0
  8 11  1  0  0  0  0
  9 14  1  6  0  0  0
  9 22  1  0  0  0  0
  9  7  1  0  0  0  0
 10 21  1  6  0  0  0
 10 22  1  0  0  0  0
 10  3  1  0  0  0  0
 11 28  1  1  0  0  0
 11  5  1  0  0  0  0
 12  8  1  0  0  0  0
 12  4  1  1  0  0  0
 14 23  1  0  0  0  0
 17 26  1  0  0  0  0
 18 13  2  0  0  0  0
 19  2  2  0  0  0  0
 20  4  1  0  0  0  0
 20 17  2  0  0  0  0
 22 20  1  0  0  0  0
 23 15  1  0  0  0  0
 25 18  1  0  0  0  0
 26 25  2  0  0  0  0
 26 19  1  0  0  0  0
 27 24  1  6  0  0  0
 27 12  1  0  0  0  0
 28 30  1  0  0  0  0
 29 30  1  0  0  0  0
M  END
>  <MODEL>
5

>  <REMARK>
 VINA RESULT:      -7.6      1.833      2.595
  Name = 
  2 active torsions:
  status: ('A' for Active; 'I' for Inactive)
    1  A    between atoms: C_11  and  C_28
    2  A    between atoms: C_28  and  C_30
                            x       y       z     vdW  Elec       q    Type
                         _______ _______ _______ _____ _____    ______ ____

>  <TORSDO>
F 2

$$$$
=
 OpenBabel11112416143D

 30 35  0  0  1  0  0  0  0  0999 V2000
  189.0320  176.4570  143.2230 C   0  0  0  0  0  0  0  0  0  0  0  0
  186.8240  177.6430  143.2160 C   0  0  0  0  0  0  0  0  0  0  0  0
  189.6860  177.5170  147.6360 S   0  0  0  0  0  0  0  0  0  0  0  0
  190.1980  176.0630  143.9290 C   0  0  0  0  0  0  0  0  0  0  0  0
  188.9080  176.0430  141.7900 C   0  0  0  0  0  2  0  0  0  0  0  0
  191.1680  173.1210  141.9960 O   0  0  0  0  0  1  0  0  0  0  0  0
  193.0570  176.5900  144.3460 C   0  0  1  0  0  3  0  0  0  0  0  0
  190.8030  174.4680  141.9540 C   0  0  1  0  0  3  0  0  0  0  0  0
  192.7830  175.8180  145.5860 C   0  0  1  0  0  3  0  0  0  0  0  0
  191.2640  176.5930  147.5110 C   0  0  1  0  0  3  0  0  0  0  0  0
  189.3140  174.5880  141.6490 C   0  0  2  0  0  3  0  0  0  0  0  0
  191.2430  175.1590  143.2650 C   0  0  1  0  0  3  0  0  0  0  0  0
  185.8570  178.3700  143.9150 C   0  0  0  0  0  3  0  0  0  0  0  0
  193.9390  176.2520  146.4570 C   0  0  0  0  0  2  0  0  0  0  0  0
  194.4710  176.9040  144.3930 N   0  0  0  0  0  2  0  0  0  0  0  0
  186.5780  177.3700  141.8760 O   0  0  0  0  0  1  0  0  0  0  0  0
  189.3280  177.1410  145.9240 C   0  0  0  0  0  0  0  0  0  0  0  0
  186.0340  178.6820  145.2600 C   0  0  0  0  0  3  0  0  0  0  0  0
  188.0100  177.2110  143.8720 C   0  0  0  0  0  0  0  0  0  0  0  0
  190.3240  176.4370  145.2890 C   0  0  0  0  0  0  0  0  0  0  0  0
  191.1910  175.3580  148.3900 C   0  0  0  0  0  1  0  0  0  0  0  0
  191.4690  176.1990  146.1180 N   0  0  0  0  0  0  0  0  0  0  0  0
  194.7810  177.1020  145.7070 O   0  0  0  0  0  0  0  0  0  0  0  0
  193.6750  174.7430  142.7430 C   0  0  0  0  0  1  0  0  0  0  0  0
  187.1870  178.2710  145.9210 C   0  0  0  0  0  3  0  0  0  0  0  0
  188.1730  177.5410  145.2470 C   0  0  0  0  0  0  0  0  0  0  0  0
  192.6380  175.8090  143.0940 C   0  0  2  0  0  3  0  0  0  0  0  0
  189.0360  174.1140  140.2320 C   0  0  0  0  0  2  0  0  0  0  0  0
  187.6000  172.6660  141.6350 C   0  0  0  0  0  1  0  0  0  0  0  0
  188.1910  172.8540  140.2530 C   0  0  0  0  0  2  0  0  0  0  0  0
  1 19  2  0  0  0  0
  1  4  1  0  0  0  0
  2 19  1  0  0  0  0
  2 13  2  0  0  0  0
  4 20  2  0  0  0  0
  5  1  1  0  0  0  0
  7 15  1  6  0  0  0
  7  9  1  0  0  0  0
  8  6  1  1  0  0  0
  8 12  1  0  0  0  0
  9 22  1  0  0  0  0
  9 14  1  1  0  0  0
 10  3  1  0  0  0  0
 10 21  1  1  0  0  0
 11 28  1  6  0  0  0
 11  5  1  0  0  0  0
 11  8  1  0  0  0  0
 12  4  1  6  0  0  0
 13 18  1  0  0  0  0
 15 23  1  0  0  0  0
 16  2  1  0  0  0  0
 17  3  1  0  0  0  0
 18 25  2  0  0  0  0
 19 26  1  0  0  0  0
 20 17  1  0  0  0  0
 20 22  1  0  0  0  0
 22 10  1  0  0  0  0
 23 14  1  0  0  0  0
 26 25  1  0  0  0  0
 26 17  2  0  0  0  0
 27 24  1  1  0  0  0
 27 12  1  0  0  0  0
 27  7  1  0  0  0  0
 28 30  1  0  0  0  0
 30 29  1  0  0  0  0
M  END
>  <MODEL>
6

>  <REMARK>
 VINA RESULT:      -7.4      2.834      5.907
  Name = 
  2 active torsions:
  status: ('A' for Active; 'I' for Inactive)
    1  A    between atoms: C_11  and  C_28
    2  A    between atoms: C_28  and  C_30
                            x       y       z     vdW  Elec       q    Type
                         _______ _______ _______ _____ _____    ______ ____

>  <TORSDO>
F 2

$$$$
=
 OpenBabel11112416143D

 30 35  0  0  1  0  0  0  0  0999 V2000
  191.9370  174.8640  144.5840 C   0  0  0  0  0  0  0  0  0  0  0  0
  194.1960  173.7870  144.4410 C   0  0  0  0  0  0  0  0  0  0  0  0
  190.7860  173.1970  140.4700 S   0  0  0  0  0  0  0  0  0  0  0  0
  190.6730  175.1200  143.9930 C   0  0  0  0  0  0  0  0  0  0  0  0
  192.2070  175.4400  145.9390 C   0  0  0  0  0  2  0  0  0  0  0  0
  188.6690  175.7360  146.9830 O   0  0  0  0  0  1  0  0  0  0  0  0
  189.0170  177.1130  142.6110 C   0  0  1  0  0  3  0  0  0  0  0  0
  189.8380  176.0470  146.2850 C   0  0  1  0  0  3  0  0  0  0  0  0
  188.2670  175.8870  142.2300 C   0  0  1  0  0  3  0  0  0  0  0  0
  189.1620  174.0110  140.7160 C   0  0  1  0  0  3  0  0  0  0  0  0
  190.9980  175.2200  146.8280 C   0  0  2  0  0  3  0  0  0  0  0  0
  189.5900  175.8780  144.7680 C   0  0  1  0  0  3  0  0  0  0  0  0
  195.0970  172.9920  143.7280 C   0  0  0  0  0  3  0  0  0  0  0  0
  187.5170  176.3760  141.0120 C   0  0  0  0  0  2  0  0  0  0  0  0
  188.2860  178.2130  142.0140 N   0  0  0  0  0  2  0  0  0  0  0  0
  194.6100  174.2800  145.6720 O   0  0  0  0  0  1  0  0  0  0  0  0
  191.3250  173.7840  142.0720 C   0  0  0  0  0  0  0  0  0  0  0  0
  194.7530  172.4650  142.4860 C   0  0  0  0  0  3  0  0  0  0  0  0
  192.9090  174.0710  143.9050 C   0  0  0  0  0  0  0  0  0  0  0  0
  190.4000  174.5720  142.7160 C   0  0  0  0  0  0  0  0  0  0  0  0
  188.0840  172.9500  140.8350 C   0  0  0  0  0  1  0  0  0  0  0  0
  189.2150  174.8040  141.9440 N   0  0  0  0  0  0  0  0  0  0  0  0
  187.7870  177.7500  140.8310 O   0  0  0  0  0  0  0  0  0  0  0  0
  187.8800  177.7310  144.7760 C   0  0  0  0  0  1  0  0  0  0  0  0
  193.5010  172.7300  141.9430 C   0  0  0  0  0  3  0  0  0  0  0  0
  192.5770  173.5220  142.6350 C   0  0  0  0  0  0  0  0  0  0  0  0
  189.1700  177.2260  144.1330 C   0  0  2  0  0  3  0  0  0  0  0  0
  191.3210  175.6530  148.2490 C   0  0  0  0  0  2  0  0  0  0  0  0
  191.3930  177.8390  149.4080 C   0  0  0  0  0  1  0  0  0  0  0  0
  191.9460  177.0350  148.2500 C   0  0  0  0  0  2  0  0  0  0  0  0
  1  5  1  0  0  0  0
  2 16  1  0  0  0  0
  3 10  1  0  0  0  0
  3 17  1  0  0  0  0
  4  1  1  0  0  0  0
  5 11  1  0  0  0  0
  7 15  1  1  0  0  0
  7 27  1  0  0  0  0
  8 11  1  0  0  0  0
  8  6  1  1  0  0  0
  9 14  1  6  0  0  0
  9  7  1  0  0  0  0
 10 21  1  1  0  0  0
 10 22  1  0  0  0  0
 11 28  1  1  0  0  0
 12  4  1  6  0  0  0
 12  8  1  0  0  0  0
 13  2  2  0  0  0  0
 17 26  2  0  0  0  0
 17 20  1  0  0  0  0
 18 13  1  0  0  0  0
 19  2  1  0  0  0  0
 19  1  2  0  0  0  0
 20  4  2  0  0  0  0
 22  9  1  0  0  0  0
 22 20  1  0  0  0  0
 23 14  1  0  0  0  0
 23 15  1  0  0  0  0
 25 18  2  0  0  0  0
 25 26  1  0  0  0  0
 26 19  1  0  0  0  0
 27 12  1  0  0  0  0
 27 24  1  1  0  0  0
 28 30  1  0  0  0  0
 30 29  1  0  0  0  0
M  END
>  <MODEL>
7

>  <REMARK>
 VINA RESULT:      -7.3      2.574      5.963
  Name = 
  2 active torsions:
  status: ('A' for Active; 'I' for Inactive)
    1  A    between atoms: C_11  and  C_28
    2  A    between atoms: C_28  and  C_30
                            x       y       z     vdW  Elec       q    Type
                         _______ _______ _______ _____ _____    ______ ____

>  <TORSDO>
F 2

$$$$
=
 OpenBabel11112416143D

 30 35  0  0  1  0  0  0  0  0999 V2000
  189.1940  175.0480  142.3160 C   0  0  0  0  0  0  0  0  0  0  0  0
  189.5260  173.7970  140.1690 C   0  0  0  0  0  0  0  0  0  0  0  0
  193.6320  174.5840  143.3720 S   0  0  0  0  0  0  0  0  0  0  0  0
  189.7420  175.5680  143.5170 C   0  0  0  0  0  0  0  0  0  0  0  0
  187.7370  175.2710  142.0570 C   0  0  0  0  0  2  0  0  0  0  0  0
  187.3810  178.2700  144.1940 O   0  0  0  0  0  1  0  0  0  0  0  0
  189.9730  175.1950  146.4200 C   0  0  1  0  0  3  0  0  0  0  0  0
  187.5390  176.9160  143.8870 C   0  0  1  0  0  3  0  0  0  0  0  0
  191.1270  176.1100  146.2140 C   0  0  1  0  0  3  0  0  0  0  0  0
  193.2570  175.5360  144.8930 C   0  0  1  0  0  3  0  0  0  0  0  0
  187.3810  176.7080  142.3850 C   0  0  2  0  0  3  0  0  0  0  0  0
  188.8830  176.4140  144.4630 C   0  0  1  0  0  3  0  0  0  0  0  0
  190.3900  173.1340  139.2950 C   0  0  0  0  0  3  0  0  0  0  0  0
  191.9410  175.8300  147.4560 C   0  0  0  0  0  2  0  0  0  0  0  0
  189.9370  174.9370  147.8460 N   0  0  0  0  0  2  0  0  0  0  0  0
  188.1880  173.8880  139.8030 O   0  0  0  0  0  1  0  0  0  0  0  0
  191.9240  174.7250  142.8600 C   0  0  0  0  0  0  0  0  0  0  0  0
  191.7430  173.0020  139.5950 C   0  0  0  0  0  3  0  0  0  0  0  0
  190.0180  174.3490  141.3840 C   0  0  0  0  0  0  0  0  0  0  0  0
  191.1220  175.3750  143.7690 C   0  0  0  0  0  0  0  0  0  0  0  0
  193.9780  176.8700  144.8370 C   0  0  0  0  0  1  0  0  0  0  0  0
  191.8130  175.7560  144.9660 N   0  0  0  0  0  0  0  0  0  0  0  0
  191.2340  174.9190  148.2710 O   0  0  0  0  0  0  0  0  0  0  0  0
  188.1060  176.8410  146.8230 C   0  0  0  0  0  1  0  0  0  0  0  0
  192.2450  173.5330  140.7780 C   0  0  0  0  0  3  0  0  0  0  0  0
  191.4040  174.2040  141.6730 C   0  0  0  0  0  0  0  0  0  0  0  0
  188.6750  175.7950  145.8670 C   0  0  2  0  0  3  0  0  0  0  0  0
  185.9450  176.9890  141.9730 C   0  0  0  0  0  2  0  0  0  0  0  0
  184.4790  178.3040  140.4730 C   0  0  0  0  0  1  0  0  0  0  0  0
  185.9120  177.9150  140.7720 C   0  0  0  0  0  2  0  0  0  0  0  0
  1  4  1  0  0  0  0
  2 19  1  0  0  0  0
  3 10  1  0  0  0  0
  4 20  2  0  0  0  0
  5  1  1  0  0  0  0
  5 11  1  0  0  0  0
  7 15  1  1  0  0  0
  8  6  1  6  0  0  0
  8 12  1  0  0  0  0
  9  7  1  0  0  0  0
  9 14  1  1  0  0  0
 10 21  1  6  0  0  0
 10 22  1  0  0  0  0
 11 28  1  1  0  0  0
 11  8  1  0  0  0  0
 12  4  1  6  0  0  0
 12 27  1  0  0  0  0
 13 18  1  0  0  0  0
 13  2  2  0  0  0  0
 14 23  1  0  0  0  0
 15 23  1  0  0  0  0
 16  2  1  0  0  0  0
 17  3  1  0  0  0  0
 17 20  1  0  0  0  0
 18 25  2  0  0  0  0
 19 26  1  0  0  0  0
 19  1  2  0  0  0  0
 20 22  1  0  0  0  0
 22  9  1  0  0  0  0
 25 26  1  0  0  0  0
 26 17  2  0  0  0  0
 27  7  1  0  0  0  0
 27 24  1  1  0  0  0
 29 30  1  0  0  0  0
 30 28  1  0  0  0  0
M  END
>  <MODEL>
8

>  <REMARK>
 VINA RESULT:      -7.3      3.004      7.205
  Name = 
  2 active torsions:
  status: ('A' for Active; 'I' for Inactive)
    1  A    between atoms: C_11  and  C_28
    2  A    between atoms: C_28  and  C_30
                            x       y       z     vdW  Elec       q    Type
                         _______ _______ _______ _____ _____    ______ ____

>  <TORSDO>
F 2

$$$$
=
 OpenBabel11112416143D

 30 35  0  0  1  0  0  0  0  0999 V2000
  188.0500  175.2290  142.4480 C   0  0  0  0  0  0  0  0  0  0  0  0
  189.3060  173.2420  141.5790 C   0  0  0  0  0  0  0  0  0  0  0  0
  190.1720  174.9080  146.5010 S   0  0  0  0  0  0  0  0  0  0  0  0
  187.7820  176.1270  143.5140 C   0  0  0  0  0  0  0  0  0  0  0  0
  187.3170  175.4330  141.1590 C   0  0  0  0  0  2  0  0  0  0  0  0
  186.6110  179.0330  141.6390 O   0  0  0  0  0  1  0  0  0  0  0  0
  185.8760  176.8630  145.6240 C   0  0  1  0  0  3  0  0  0  0  0  0
  186.4890  177.6570  141.8420 C   0  0  1  0  0  3  0  0  0  0  0  0
  187.0820  177.5550  146.1520 C   0  0  1  0  0  3  0  0  0  0  0  0
  189.2100  176.3870  146.9980 C   0  0  1  0  0  3  0  0  0  0  0  0
  187.3200  176.9080  140.8060 C   0  0  2  0  0  3  0  0  0  0  0  0
  186.8440  177.3220  143.3090 C   0  0  1  0  0  3  0  0  0  0  0  0
  190.2570  172.2420  141.7960 C   0  0  0  0  0  3  0  0  0  0  0  0
  186.7090  177.7120  147.6070 C   0  0  0  0  0  2  0  0  0  0  0  0
  184.8160  177.1660  146.5640 N   0  0  0  0  0  2  0  0  0  0  0  0
  188.6820  173.2750  140.3380 O   0  0  0  0  0  1  0  0  0  0  0  0
  189.4140  174.9580  144.8810 C   0  0  0  0  0  0  0  0  0  0  0  0
  190.9220  172.1450  143.0160 C   0  0  0  0  0  3  0  0  0  0  0  0
  189.0010  174.1780  142.6060 C   0  0  0  0  0  0  0  0  0  0  0  0
  188.4770  175.9540  144.7350 C   0  0  0  0  0  0  0  0  0  0  0  0
  190.1590  177.5500  147.2160 C   0  0  0  0  0  1  0  0  0  0  0  0
  188.2630  176.7120  145.9330 N   0  0  0  0  0  0  0  0  0  0  0  0
  185.3970  177.2250  147.7980 O   0  0  0  0  0  0  0  0  0  0  0  0
  184.8820  178.6590  144.1580 C   0  0  0  0  0  1  0  0  0  0  0  0
  190.6390  173.0490  144.0340 C   0  0  0  0  0  3  0  0  0  0  0  0
  189.6910  174.0620  143.8450 C   0  0  0  0  0  0  0  0  0  0  0  0
  185.5670  177.2950  144.1840 C   0  0  2  0  0  3  0  0  0  0  0  0
  186.7220  177.1050  139.4220 C   0  0  0  0  0  2  0  0  0  0  0  0
  186.3170  176.0570  137.2170 C   0  0  0  0  0  1  0  0  0  0  0  0
  187.0680  175.9320  138.5260 C   0  0  0  0  0  2  0  0  0  0  0  0
  1 19  2  0  0  0  0
  1  4  1  0  0  0  0
  2 13  2  0  0  0  0
  2 19  1  0  0  0  0
  3 10  1  0  0  0  0
  4 20  2  0  0  0  0
  5  1  1  0  0  0  0
  7  9  1  0  0  0  0
  7 15  1  1  0  0  0
  8  6  1  1  0  0  0
  8 12  1  0  0  0  0
  9 14  1  1  0  0  0
 10 21  1  6  0  0  0
 11 28  1  6  0  0  0
 11  5  1  0  0  0  0
 11  8  1  0  0  0  0
 12  4  1  6  0  0  0
 12 27  1  0  0  0  0
 13 18  1  0  0  0  0
 14 23  1  0  0  0  0
 15 23  1  0  0  0  0
 16  2  1  0  0  0  0
 17  3  1  0  0  0  0
 18 25  2  0  0  0  0
 19 26  1  0  0  0  0
 20 17  1  0  0  0  0
 20 22  1  0  0  0  0
 22  9  1  0  0  0  0
 22 10  1  0  0  0  0
 26 25  1  0  0  0  0
 26 17  2  0  0  0  0
 27 24  1  1  0  0  0
 27  7  1  0  0  0  0
 29 30  1  0  0  0  0
 30 28  1  0  0  0  0
M  END
>  <MODEL>
9

>  <REMARK>
 VINA RESULT:      -7.2      2.496      7.267
  Name = 
  2 active torsions:
  status: ('A' for Active; 'I' for Inactive)
    1  A    between atoms: C_11  and  C_28
    2  A    between atoms: C_28  and  C_30
                            x       y       z     vdW  Elec       q    Type
                         _______ _______ _______ _____ _____    ______ ____

>  <TORSDO>
F 2

$$$$
