=
 OpenBabel11112416223D

 30 35  0  0  1  0  0  0  0  0999 V2000
  187.1900  176.6210  144.1940 C   0  0  0  0  0  0  0  0  0  0  0  0
  185.2400  177.6700  145.3630 C   0  0  0  0  0  0  0  0  0  0  0  0
  189.6640  177.3840  147.5150 N   0  0  0  0  0  2  0  0  0  0  0  0
  188.5670  176.2480  144.2130 C   0  0  0  0  0  0  0  0  0  0  0  0
  186.3220  176.2190  143.0210 C   0  0  0  0  0  2  0  0  0  0  0  0
  187.9270  173.8940  142.2830 O   0  0  0  0  0  1  0  0  0  0  0  0
  191.7540  175.9060  143.3540 C   0  0  1  0  0  3  0  0  0  0  0  0
  188.3070  175.1820  141.8930 C   0  0  1  0  0  3  0  0  0  0  0  0
  191.6790  176.7730  144.6150 C   0  0  2  0  0  3  0  0  0  0  0  0
  190.8720  176.8070  147.0390 C   0  0  0  0  0  0  0  0  0  0  0  0
  187.0710  176.0530  141.6990 C   0  0  2  0  0  3  0  0  0  0  0  0
  189.2490  175.8050  142.9220 C   0  0  2  0  0  3  0  0  0  0  0  0
  184.7240  178.3130  146.4910 C   0  0  0  0  0  3  0  0  0  0  0  0
  193.1120  176.7900  145.0810 C   0  0  0  0  0  2  0  0  0  0  0  0
  192.9360  175.1540  143.3860 O   0  0  0  0  0  0  0  0  0  0  0  0
  184.3950  177.4660  144.3240 F   0  0  0  0  0  0  0  0  0  0  0  0
  188.7460  177.1600  146.4570 C   0  0  0  0  0  0  0  0  0  0  0  0
  185.5320  178.5740  147.5950 C   0  0  0  0  0  3  0  0  0  0  0  0
  186.6030  177.2700  145.3250 C   0  0  0  0  0  0  0  0  0  0  0  0
  189.3120  176.5170  145.3780 C   0  0  0  0  0  0  0  0  0  0  0  0
  191.9160  176.7650  147.7400 O   0  0  0  0  0  0  0  0  0  0  0  0
  190.7440  176.1780  145.6790 C   0  0  1  0  0  3  0  0  0  0  0  0
  193.8590  175.9670  144.0560 C   0  0  0  0  0  2  0  0  0  0  0  0
  190.4310  173.9440  143.9420 O   0  0  0  0  0  1  0  0  0  0  0  0
  186.8710  178.1930  147.5800 C   0  0  0  0  0  3  0  0  0  0  0  0
  187.4110  177.5480  146.4620 C   0  0  0  0  0  0  0  0  0  0  0  0
  190.5500  175.0090  143.0440 C   0  0  2  0  0  3  0  0  0  0  0  0
  187.4350  177.4020  141.0820 C   0  0  0  0  0  2  0  0  0  0  0  0
  185.1960  178.2110  140.3350 C   0  0  0  0  0  1  0  0  0  0  0  0
  186.3380  178.4300  141.3090 C   0  0  0  0  0  2  0  0  0  0  0  0
  1  4  2  0  0  0  0
  1 19  1  0  0  0  0
  2 13  1  0  0  0  0
  4 20  1  0  0  0  0
  5  1  1  0  0  0  0
  7 15  1  1  0  0  0
  7  9  1  0  0  0  0
  8  6  1  1  0  0  0
  8 12  1  0  0  0  0
  9 14  1  1  0  0  0
  9 22  1  0  0  0  0
 10  3  1  0  0  0  0
 10 21  2  0  0  0  0
 11 28  1  1  0  0  0
 11  8  1  0  0  0  0
 11  5  1  0  0  0  0
 12 27  1  0  0  0  0
 12  4  1  1  0  0  0
 13 18  2  0  0  0  0
 15 23  1  0  0  0  0
 16  2  1  0  0  0  0
 17 26  1  0  0  0  0
 17  3  1  0  0  0  0
 19  2  2  0  0  0  0
 19 26  1  0  0  0  0
 20 17  2  0  0  0  0
 22 20  1  6  0  0  0
 22 10  1  0  0  0  0
 23 14  1  0  0  0  0
 25 18  1  0  0  0  0
 26 25  2  0  0  0  0
 27  7  1  0  0  0  0
 27 24  1  1  0  0  0
 28 30  1  0  0  0  0
 29 30  1  0  0  0  0
M  END
>  <MODEL>
1

>  <REMARK>
 VINA RESULT:      -9.2      0.000      0.000
  Name = 
  2 active torsions:
  status: ('A' for Active; 'I' for Inactive)
    1  A    between atoms: C_11  and  C_28
    2  A    between atoms: C_28  and  C_30
                            x       y       z     vdW  Elec       q    Type
                         _______ _______ _______ _____ _____    ______ ____

>  <TORSDO>
F 2

$$$$
=
 OpenBabel11112416223D

 30 35  0  0  1  0  0  0  0  0999 V2000
  188.1960  176.9430  143.8560 C   0  0  0  0  0  0  0  0  0  0  0  0
  186.4790  178.4220  142.7920 C   0  0  0  0  0  0  0  0  0  0  0  0
  188.4850  174.6510  140.3350 N   0  0  0  0  0  2  0  0  0  0  0  0
  189.0760  175.8240  143.7520 C   0  0  0  0  0  0  0  0  0  0  0  0
  188.2180  177.7980  145.1050 C   0  0  0  0  0  2  0  0  0  0  0  0
  190.9790  177.1650  145.8150 O   0  0  0  0  0  1  0  0  0  0  0  0
  190.6260  172.9600  144.3870 C   0  0  1  0  0  3  0  0  0  0  0  0
  189.9380  176.2850  146.1250 C   0  0  1  0  0  3  0  0  0  0  0  0
  189.8090  172.7970  143.1020 C   0  0  2  0  0  3  0  0  0  0  0  0
  189.4840  173.7260  140.7440 C   0  0  0  0  0  0  0  0  0  0  0  0
  188.6520  177.0650  146.3740 C   0  0  2  0  0  3  0  0  0  0  0  0
  189.7390  175.2630  145.0050 C   0  0  2  0  0  3  0  0  0  0  0  0
  185.6950  178.7400  141.6800 C   0  0  0  0  0  3  0  0  0  0  0  0
  190.3560  171.5140  142.5320 C   0  0  0  0  0  2  0  0  0  0  0  0
  191.7800  172.1690  144.2990 O   0  0  0  0  0  0  0  0  0  0  0  0
  186.3290  179.1910  143.8980 F   0  0  0  0  0  0  0  0  0  0  0  0
  188.3240  175.4920  141.4660 C   0  0  0  0  0  0  0  0  0  0  0  0
  185.7790  177.9890  140.5110 C   0  0  0  0  0  3  0  0  0  0  0  0
  187.3790  177.3230  142.7470 C   0  0  0  0  0  0  0  0  0  0  0  0
  189.1290  175.1330  142.5260 C   0  0  0  0  0  0  0  0  0  0  0  0
  189.9340  172.8420  139.9700 O   0  0  0  0  0  0  0  0  0  0  0  0
  190.0010  173.9740  142.1340 C   0  0  1  0  0  3  0  0  0  0  0  0
  191.3960  171.0620  143.5310 C   0  0  0  0  0  2  0  0  0  0  0  0
  191.9220  174.9840  143.9770 O   0  0  0  0  0  1  0  0  0  0  0  0
  186.6520  176.9070  140.4420 C   0  0  0  0  0  3  0  0  0  0  0  0
  187.4470  176.5680  141.5430 C   0  0  0  0  0  0  0  0  0  0  0  0
  190.9810  174.3880  144.8210 C   0  0  2  0  0  3  0  0  0  0  0  0
  187.5470  176.1560  146.9090 C   0  0  0  0  0  2  0  0  0  0  0  0
  185.1940  176.7520  146.3320 C   0  0  0  0  0  1  0  0  0  0  0  0
  186.3220  176.9570  147.3240 C   0  0  0  0  0  2  0  0  0  0  0  0
  1  5  1  0  0  0  0
  2 16  1  0  0  0  0
  3 10  1  0  0  0  0
  3 17  1  0  0  0  0
  4  1  1  0  0  0  0
  5 11  1  0  0  0  0
  7 15  1  6  0  0  0
  7 27  1  0  0  0  0
  8  6  1  6  0  0  0
  8 11  1  0  0  0  0
  9 14  1  6  0  0  0
  9  7  1  0  0  0  0
 11 28  1  6  0  0  0
 12  4  1  6  0  0  0
 12  8  1  0  0  0  0
 13  2  2  0  0  0  0
 14 23  1  0  0  0  0
 17 26  2  0  0  0  0
 17 20  1  0  0  0  0
 18 13  1  0  0  0  0
 19  2  1  0  0  0  0
 19  1  2  0  0  0  0
 20  4  2  0  0  0  0
 21 10  2  0  0  0  0
 22 10  1  6  0  0  0
 22 20  1  0  0  0  0
 22  9  1  0  0  0  0
 23 15  1  0  0  0  0
 25 18  2  0  0  0  0
 25 26  1  0  0  0  0
 26 19  1  0  0  0  0
 27 24  1  6  0  0  0
 27 12  1  0  0  0  0
 28 30  1  0  0  0  0
 29 30  1  0  0  0  0
M  END
>  <MODEL>
2

>  <REMARK>
 VINA RESULT:      -8.5      2.318      5.015
  Name = 
  2 active torsions:
  status: ('A' for Active; 'I' for Inactive)
    1  A    between atoms: C_11  and  C_28
    2  A    between atoms: C_28  and  C_30
                            x       y       z     vdW  Elec       q    Type
                         _______ _______ _______ _____ _____    ______ ____

>  <TORSDO>
F 2

$$$$
=
 OpenBabel11112416223D

 30 35  0  0  1  0  0  0  0  0999 V2000
  189.8150  175.7270  143.4640 C   0  0  0  0  0  0  0  0  0  0  0  0
  192.1700  174.9610  143.8300 C   0  0  0  0  0  0  0  0  0  0  0  0
  189.7160  177.4450  147.3070 N   0  0  0  0  0  2  0  0  0  0  0  0
  188.6590  176.3980  143.9620 C   0  0  0  0  0  0  0  0  0  0  0  0
  189.8320  175.2290  142.0340 C   0  0  0  0  0  2  0  0  0  0  0  0
  187.8860  177.1710  141.0500 O   0  0  0  0  0  1  0  0  0  0  0  0
  185.5240  177.0640  144.8260 C   0  0  1  0  0  3  0  0  0  0  0  0
  187.4720  176.0150  141.7190 C   0  0  1  0  0  3  0  0  0  0  0  0
  186.3730  176.9810  146.0980 C   0  0  2  0  0  3  0  0  0  0  0  0
  188.4020  177.9860  147.2830 C   0  0  0  0  0  0  0  0  0  0  0  0
  188.4580  174.8820  141.4610 C   0  0  2  0  0  3  0  0  0  0  0  0
  187.3320  176.2760  143.2190 C   0  0  2  0  0  3  0  0  0  0  0  0
  193.2870  174.8790  144.6650 C   0  0  0  0  0  3  0  0  0  0  0  0
  185.4590  177.5770  147.1370 C   0  0  0  0  0  2  0  0  0  0  0  0
  184.5020  178.0020  145.0190 O   0  0  0  0  0  0  0  0  0  0  0  0
  192.2630  174.3770  142.6100 F   0  0  0  0  0  0  0  0  0  0  0  0
  189.8550  176.8470  146.0280 C   0  0  0  0  0  0  0  0  0  0  0  0
  193.2660  175.4400  145.9400 C   0  0  0  0  0  3  0  0  0  0  0  0
  190.9910  175.6220  144.2690 C   0  0  0  0  0  0  0  0  0  0  0  0
  188.7250  176.9680  145.2480 C   0  0  0  0  0  0  0  0  0  0  0  0
  187.9340  178.6500  148.2440 O   0  0  0  0  0  0  0  0  0  0  0  0
  187.6850  177.7710  145.9780 C   0  0  1  0  0  3  0  0  0  0  0  0
  184.1940  177.9190  146.3830 C   0  0  0  0  0  2  0  0  0  0  0  0
  186.7630  178.6290  143.4250 O   0  0  0  0  0  1  0  0  0  0  0  0
  192.1230  176.0920  146.3930 C   0  0  0  0  0  3  0  0  0  0  0  0
  190.9920  176.1860  145.5740 C   0  0  0  0  0  0  0  0  0  0  0  0
  186.2580  177.3270  143.5050 C   0  0  2  0  0  3  0  0  0  0  0  0
  187.9350  173.5560  142.0090 C   0  0  0  0  0  2  0  0  0  0  0  0
  189.2720  171.9940  143.4240 C   0  0  0  0  0  1  0  0  0  0  0  0
  189.0210  172.4900  142.0120 C   0  0  0  0  0  2  0  0  0  0  0  0
  1  4  2  0  0  0  0
  1 19  1  0  0  0  0
  2 19  2  0  0  0  0
  2 13  1  0  0  0  0
  4 20  1  0  0  0  0
  5  1  1  0  0  0  0
  7 15  1  1  0  0  0
  7  9  1  0  0  0  0
  8  6  1  6  0  0  0
  8 12  1  0  0  0  0
  9 14  1  1  0  0  0
 10  3  1  0  0  0  0
 10 21  2  0  0  0  0
 11  8  1  0  0  0  0
 11 28  1  1  0  0  0
 11  5  1  0  0  0  0
 12 27  1  0  0  0  0
 12  4  1  6  0  0  0
 13 18  2  0  0  0  0
 15 23  1  0  0  0  0
 16  2  1  0  0  0  0
 17  3  1  0  0  0  0
 18 25  1  0  0  0  0
 19 26  1  0  0  0  0
 20 17  2  0  0  0  0
 22 20  1  6  0  0  0
 22  9  1  0  0  0  0
 22 10  1  0  0  0  0
 23 14  1  0  0  0  0
 26 17  1  0  0  0  0
 26 25  2  0  0  0  0
 27 24  1  1  0  0  0
 27  7  1  0  0  0  0
 28 30  1  0  0  0  0
 30 29  1  0  0  0  0
M  END
>  <MODEL>
3

>  <REMARK>
 VINA RESULT:      -8.4      2.647      5.639
  Name = 
  2 active torsions:
  status: ('A' for Active; 'I' for Inactive)
    1  A    between atoms: C_11  and  C_28
    2  A    between atoms: C_28  and  C_30
                            x       y       z     vdW  Elec       q    Type
                         _______ _______ _______ _____ _____    ______ ____

>  <TORSDO>
F 2

$$$$
=
 OpenBabel11112416223D

 30 35  0  0  1  0  0  0  0  0999 V2000
  189.9530  174.8000  144.5270 C   0  0  0  0  0  0  0  0  0  0  0  0
  191.3280  173.3950  142.9750 C   0  0  0  0  0  0  0  0  0  0  0  0
  187.4540  175.9690  141.3450 N   0  0  0  0  0  2  0  0  0  0  0  0
  188.8510  175.6850  144.7170 C   0  0  0  0  0  0  0  0  0  0  0  0
  190.7460  174.3240  145.7250 C   0  0  0  0  0  2  0  0  0  0  0  0
  188.5660  174.6560  147.6390 O   0  0  0  0  0  1  0  0  0  0  0  0
  187.0330  178.3140  145.6100 C   0  0  1  0  0  3  0  0  0  0  0  0
  189.3400  175.7480  147.2360 C   0  0  1  0  0  3  0  0  0  0  0  0
  187.0880  178.2560  144.0810 C   0  0  2  0  0  3  0  0  0  0  0  0
  186.5410  176.7900  142.0600 C   0  0  0  0  0  0  0  0  0  0  0  0
  190.7570  175.2910  146.9090 C   0  0  2  0  0  3  0  0  0  0  0  0
  188.7090  176.4470  146.0310 C   0  0  2  0  0  3  0  0  0  0  0  0
  191.5680  172.9220  141.6830 C   0  0  0  0  0  3  0  0  0  0  0  0
  186.0070  179.2270  143.6820 C   0  0  0  0  0  2  0  0  0  0  0  0
  185.7990  178.8470  146.0040 O   0  0  0  0  0  0  0  0  0  0  0  0
  192.1760  172.9910  143.9520 F   0  0  0  0  0  0  0  0  0  0  0  0
  188.3440  175.5050  142.3480 C   0  0  0  0  0  0  0  0  0  0  0  0
  190.7510  173.3040  140.6210 C   0  0  0  0  0  3  0  0  0  0  0  0
  190.2410  174.2740  143.2290 C   0  0  0  0  0  0  0  0  0  0  0  0
  188.0510  175.9990  143.6020 C   0  0  0  0  0  0  0  0  0  0  0  0
  185.5590  177.3430  141.5010 O   0  0  0  0  0  0  0  0  0  0  0  0
  186.8110  176.8460  143.5390 C   0  0  1  0  0  3  0  0  0  0  0  0
  185.4610  179.7520  144.9900 C   0  0  0  0  0  2  0  0  0  0  0  0
  186.3180  176.0680  146.2330 O   0  0  0  0  0  1  0  0  0  0  0  0
  189.6810  174.1650  140.8440 C   0  0  0  0  0  3  0  0  0  0  0  0
  189.4200  174.6520  142.1300 C   0  0  0  0  0  0  0  0  0  0  0  0
  187.3330  177.0190  146.3760 C   0  0  2  0  0  3  0  0  0  0  0  0
  191.6810  176.4810  146.6590 C   0  0  0  0  0  2  0  0  0  0  0  0
  193.3230  176.6840  144.7910 C   0  0  0  0  0  1  0  0  0  0  0  0
  193.0340  176.0320  146.1300 C   0  0  0  0  0  2  0  0  0  0  0  0
  1  4  1  0  0  0  0
  1  5  1  0  0  0  0
  2 19  1  0  0  0  0
  2 16  1  0  0  0  0
  3 10  1  0  0  0  0
  3 17  1  0  0  0  0
  5 11  1  0  0  0  0
  7 15  1  6  0  0  0
  7 27  1  0  0  0  0
  8  6  1  6  0  0  0
  9 14  1  6  0  0  0
  9  7  1  0  0  0  0
 11 28  1  6  0  0  0
 11  8  1  0  0  0  0
 12  4  1  6  0  0  0
 12 27  1  0  0  0  0
 12  8  1  0  0  0  0
 13  2  2  0  0  0  0
 14 23  1  0  0  0  0
 17 20  1  0  0  0  0
 18 25  2  0  0  0  0
 18 13  1  0  0  0  0
 19  1  2  0  0  0  0
 20  4  2  0  0  0  0
 21 10  2  0  0  0  0
 22 10  1  6  0  0  0
 22 20  1  0  0  0  0
 22  9  1  0  0  0  0
 23 15  1  0  0  0  0
 25 26  1  0  0  0  0
 26 17  2  0  0  0  0
 26 19  1  0  0  0  0
 27 24  1  6  0  0  0
 29 30  1  0  0  0  0
 30 28  1  0  0  0  0
M  END
>  <MODEL>
4

>  <REMARK>
 VINA RESULT:      -8.2      3.074      6.770
  Name = 
  2 active torsions:
  status: ('A' for Active; 'I' for Inactive)
    1  A    between atoms: C_11  and  C_28
    2  A    between atoms: C_28  and  C_30
                            x       y       z     vdW  Elec       q    Type
                         _______ _______ _______ _____ _____    ______ ____

>  <TORSDO>
F 2

$$$$
=
 OpenBabel11112416223D

 30 35  0  0  1  0  0  0  0  0999 V2000
  189.9420  176.2490  144.2500 C   0  0  0  0  0  0  0  0  0  0  0  0
  187.7540  177.3260  144.8170 C   0  0  0  0  0  0  0  0  0  0  0  0
  188.2170  174.3790  140.8940 N   0  0  0  0  0  2  0  0  0  0  0  0
  190.6960  175.4000  143.3870 C   0  0  0  0  0  0  0  0  0  0  0  0
  190.6410  176.9850  145.3730 C   0  0  0  0  0  2  0  0  0  0  0  0
  193.2610  177.0150  144.0860 O   0  0  0  0  0  1  0  0  0  0  0  0
  192.6830  172.9770  142.2930 C   0  0  1  0  0  3  0  0  0  0  0  0
  192.8080  175.8800  144.7650 C   0  0  1  0  0  3  0  0  0  0  0  0
  191.2640  172.7130  141.7810 C   0  0  2  0  0  3  0  0  0  0  0  0
  189.3640  173.7070  140.3920 C   0  0  0  0  0  0  0  0  0  0  0  0
  191.8920  176.2900  145.9110 C   0  0  2  0  0  3  0  0  0  0  0  0
  192.0840  174.9290  143.8110 C   0  0  2  0  0  3  0  0  0  0  0  0
  186.4020  177.5210  144.5210 C   0  0  0  0  0  3  0  0  0  0  0  0
  191.4920  171.6550  140.7310 C   0  0  0  0  0  2  0  0  0  0  0  0
  193.6060  172.5120  141.3470 O   0  0  0  0  0  0  0  0  0  0  0  0
  188.2440  177.9460  145.9180 F   0  0  0  0  0  0  0  0  0  0  0  0
  188.7050  175.0640  142.0370 C   0  0  0  0  0  0  0  0  0  0  0  0
  185.8190  176.9050  143.4160 C   0  0  0  0  0  3  0  0  0  0  0  0
  188.5580  176.4960  143.9910 C   0  0  0  0  0  0  0  0  0  0  0  0
  190.0440  174.8400  142.2720 C   0  0  0  0  0  0  0  0  0  0  0  0
  189.3300  173.0260  139.3340 O   0  0  0  0  0  0  0  0  0  0  0  0
  190.6130  173.9710  141.1860 C   0  0  1  0  0  3  0  0  0  0  0  0
  192.9820  171.4060  140.7550 C   0  0  0  0  0  2  0  0  0  0  0  0
  193.0970  175.2880  141.6330 O   0  0  0  0  0  1  0  0  0  0  0  0
  186.5850  176.0860  142.5930 C   0  0  0  0  0  3  0  0  0  0  0  0
  187.9410  175.8760  142.8690 C   0  0  0  0  0  0  0  0  0  0  0  0
  193.0220  174.4120  142.7190 C   0  0  2  0  0  3  0  0  0  0  0  0
  191.5390  175.0950  146.7950 C   0  0  0  0  0  2  0  0  0  0  0  0
  189.1720  174.5500  147.3650 C   0  0  0  0  0  1  0  0  0  0  0  0
  190.3710  175.4100  147.7160 C   0  0  0  0  0  2  0  0  0  0  0  0
  1  5  1  0  0  0  0
  2 16  1  0  0  0  0
  3 17  1  0  0  0  0
  4  1  2  0  0  0  0
  5 11  1  0  0  0  0
  7 15  1  6  0  0  0
  7 27  1  0  0  0  0
  8  6  1  6  0  0  0
  8 11  1  0  0  0  0
  9 14  1  6  0  0  0
  9  7  1  0  0  0  0
 10  3  1  0  0  0  0
 11 28  1  6  0  0  0
 12  4  1  6  0  0  0
 12  8  1  0  0  0  0
 13  2  1  0  0  0  0
 14 23  1  0  0  0  0
 17 20  2  0  0  0  0
 17 26  1  0  0  0  0
 18 13  2  0  0  0  0
 19  1  1  0  0  0  0
 19  2  2  0  0  0  0
 20  4  1  0  0  0  0
 21 10  2  0  0  0  0
 22 10  1  6  0  0  0
 22  9  1  0  0  0  0
 22 20  1  0  0  0  0
 23 15  1  0  0  0  0
 25 26  2  0  0  0  0
 25 18  1  0  0  0  0
 26 19  1  0  0  0  0
 27 24  1  6  0  0  0
 27 12  1  0  0  0  0
 28 30  1  0  0  0  0
 29 30  1  0  0  0  0
M  END
>  <MODEL>
5

>  <REMARK>
 VINA RESULT:      -7.6      2.589      5.402
  Name = 
  2 active torsions:
  status: ('A' for Active; 'I' for Inactive)
    1  A    between atoms: C_11  and  C_28
    2  A    between atoms: C_28  and  C_30
                            x       y       z     vdW  Elec       q    Type
                         _______ _______ _______ _____ _____    ______ ____

>  <TORSDO>
F 2

$$$$
=
 OpenBabel11112416223D

 30 35  0  0  1  0  0  0  0  0999 V2000
  192.1600  174.1080  145.2880 C   0  0  0  0  0  0  0  0  0  0  0  0
  193.5830  172.0630  145.0390 C   0  0  0  0  0  0  0  0  0  0  0  0
  189.5460  172.7230  142.2910 N   0  0  0  0  0  2  0  0  0  0  0  0
  191.0140  174.8530  144.8810 C   0  0  0  0  0  0  0  0  0  0  0  0
  192.9990  174.6000  146.4480 C   0  0  0  0  0  2  0  0  0  0  0  0
  190.8370  176.0840  147.7320 O   0  0  0  0  0  1  0  0  0  0  0  0
  189.0690  177.3320  143.8380 C   0  0  1  0  0  3  0  0  0  0  0  0
  191.5420  176.6300  146.6560 C   0  0  1  0  0  3  0  0  0  0  0  0
  189.1010  176.2490  142.7560 C   0  0  2  0  0  3  0  0  0  0  0  0
  188.6010  173.7850  142.3020 C   0  0  0  0  0  0  0  0  0  0  0  0
  192.9760  176.1130  146.6570 C   0  0  2  0  0  3  0  0  0  0  0  0
  190.8530  176.3020  145.3320 C   0  0  2  0  0  3  0  0  0  0  0  0
  193.8270  170.8430  144.4020 C   0  0  0  0  0  3  0  0  0  0  0  0
  187.9610  176.6560  141.8580 C   0  0  0  0  0  2  0  0  0  0  0  0
  187.8150  177.9550  143.8260 O   0  0  0  0  0  0  0  0  0  0  0  0
  194.4690  172.4570  145.9860 F   0  0  0  0  0  0  0  0  0  0  0  0
  190.4770  173.0930  143.2960 C   0  0  0  0  0  0  0  0  0  0  0  0
  192.9720  170.3750  143.4070 C   0  0  0  0  0  3  0  0  0  0  0  0
  192.4530  172.8470  144.6810 C   0  0  0  0  0  0  0  0  0  0  0  0
  190.1780  174.2990  143.8920 C   0  0  0  0  0  0  0  0  0  0  0  0
  187.5810  173.7800  141.5660 O   0  0  0  0  0  0  0  0  0  0  0  0
  188.8930  174.8410  143.3320 C   0  0  1  0  0  3  0  0  0  0  0  0
  187.4100  177.9160  142.4860 C   0  0  0  0  0  2  0  0  0  0  0  0
  188.4900  176.0930  145.8570 O   0  0  0  0  0  1  0  0  0  0  0  0
  191.8600  171.1260  143.0380 C   0  0  0  0  0  3  0  0  0  0  0  0
  191.5950  172.3510  143.6620 C   0  0  0  0  0  0  0  0  0  0  0  0
  189.4530  176.9150  145.2640 C   0  0  2  0  0  3  0  0  0  0  0  0
  193.8280  176.8400  145.6180 C   0  0  0  0  0  2  0  0  0  0  0  0
  195.1590  175.8170  143.7720 C   0  0  0  0  0  1  0  0  0  0  0  0
  195.0770  176.0450  145.2690 C   0  0  0  0  0  2  0  0  0  0  0  0
  1  5  1  0  0  0  0
  2 16  1  0  0  0  0
  3 10  1  0  0  0  0
  3 17  1  0  0  0  0
  4  1  1  0  0  0  0
  5 11  1  0  0  0  0
  7 15  1  1  0  0  0
  7 27  1  0  0  0  0
  8 11  1  0  0  0  0
  8  6  1  1  0  0  0
  9 14  1  6  0  0  0
  9 22  1  0  0  0  0
  9  7  1  0  0  0  0
 11 28  1  6  0  0  0
 12  4  1  1  0  0  0
 12  8  1  0  0  0  0
 13  2  2  0  0  0  0
 14 23  1  0  0  0  0
 17 26  2  0  0  0  0
 17 20  1  0  0  0  0
 18 13  1  0  0  0  0
 19  2  1  0  0  0  0
 19  1  2  0  0  0  0
 20  4  2  0  0  0  0
 21 10  2  0  0  0  0
 22 10  1  6  0  0  0
 22 20  1  0  0  0  0
 23 15  1  0  0  0  0
 25 18  2  0  0  0  0
 25 26  1  0  0  0  0
 26 19  1  0  0  0  0
 27 12  1  0  0  0  0
 27 24  1  6  0  0  0
 29 30  1  0  0  0  0
 30 28  1  0  0  0  0
M  END
>  <MODEL>
6

>  <REMARK>
 VINA RESULT:      -7.4      3.449      7.299
  Name = 
  2 active torsions:
  status: ('A' for Active; 'I' for Inactive)
    1  A    between atoms: C_11  and  C_28
    2  A    between atoms: C_28  and  C_30
                            x       y       z     vdW  Elec       q    Type
                         _______ _______ _______ _____ _____    ______ ____

>  <TORSDO>
F 2

$$$$
=
 OpenBabel11112416223D

 30 35  0  0  1  0  0  0  0  0999 V2000
  189.1510  175.0090  141.8950 C   0  0  0  0  0  0  0  0  0  0  0  0
  189.0240  173.2380  140.1290 C   0  0  0  0  0  0  0  0  0  0  0  0
  192.1840  172.8780  143.8940 N   0  0  0  0  0  2  0  0  0  0  0  0
  189.7440  175.4900  143.1000 C   0  0  0  0  0  0  0  0  0  0  0  0
  188.1470  175.8710  141.1590 C   0  0  0  0  0  2  0  0  0  0  0  0
  189.1690  178.4070  142.1860 O   0  0  0  0  0  1  0  0  0  0  0  0
  190.1210  176.6730  146.1770 C   0  0  1  0  0  3  0  0  0  0  0  0
  188.3120  177.6140  142.9540 C   0  0  1  0  0  3  0  0  0  0  0  0
  190.6940  175.2540  146.1270 C   0  0  2  0  0  3  0  0  0  0  0  0
  192.4280  173.7780  144.9660 C   0  0  0  0  0  0  0  0  0  0  0  0
  187.3650  176.8390  142.0460 C   0  0  2  0  0  3  0  0  0  0  0  0
  189.1070  176.6590  143.8440 C   0  0  2  0  0  3  0  0  0  0  0  0
  189.4760  172.0170  139.6230 C   0  0  0  0  0  3  0  0  0  0  0  0
  191.4740  175.1740  147.4150 C   0  0  0  0  0  2  0  0  0  0  0  0
  190.8610  177.4330  147.0930 O   0  0  0  0  0  0  0  0  0  0  0  0
  188.0370  173.8670  139.4450 F   0  0  0  0  0  0  0  0  0  0  0  0
  191.1700  173.5240  143.1390 C   0  0  0  0  0  0  0  0  0  0  0  0
  190.4760  171.3010  140.2760 C   0  0  0  0  0  3  0  0  0  0  0  0
  189.5810  173.7720  141.3230 C   0  0  0  0  0  0  0  0  0  0  0  0
  190.7730  174.7260  143.6840 C   0  0  0  0  0  0  0  0  0  0  0  0
  193.3180  173.5650  145.8290 O   0  0  0  0  0  0  0  0  0  0  0  0
  191.5960  175.0300  144.9040 C   0  0  1  0  0  3  0  0  0  0  0  0
  191.2620  176.5170  148.0740 C   0  0  0  0  0  2  0  0  0  0  0  0
  191.2100  177.7850  144.3000 O   0  0  0  0  0  1  0  0  0  0  0  0
  191.0360  171.8020  141.4470 C   0  0  0  0  0  3  0  0  0  0  0  0
  190.6000  173.0230  141.9740 C   0  0  0  0  0  0  0  0  0  0  0  0
  189.9760  177.4210  144.8460 C   0  0  2  0  0  3  0  0  0  0  0  0
  186.2860  176.1190  142.8550 C   0  0  0  0  0  2  0  0  0  0  0  0
  184.5620  177.9170  142.7050 C   0  0  0  0  0  1  0  0  0  0  0  0
  185.4340  177.1020  143.6420 C   0  0  0  0  0  2  0  0  0  0  0  0
  1  4  1  0  0  0  0
  2 19  1  0  0  0  0
  3 10  1  0  0  0  0
  4 20  2  0  0  0  0
  5  1  1  0  0  0  0
  5 11  1  0  0  0  0
  7 15  1  1  0  0  0
  8  6  1  6  0  0  0
  8 12  1  0  0  0  0
  9  7  1  0  0  0  0
  9 14  1  1  0  0  0
 10 21  2  0  0  0  0
 11 28  1  1  0  0  0
 11  8  1  0  0  0  0
 12  4  1  6  0  0  0
 12 27  1  0  0  0  0
 13  2  2  0  0  0  0
 13 18  1  0  0  0  0
 14 23  1  0  0  0  0
 15 23  1  0  0  0  0
 16  2  1  0  0  0  0
 17 20  1  0  0  0  0
 17  3  1  0  0  0  0
 18 25  2  0  0  0  0
 19  1  2  0  0  0  0
 19 26  1  0  0  0  0
 22 20  1  6  0  0  0
 22 10  1  0  0  0  0
 22  9  1  0  0  0  0
 25 26  1  0  0  0  0
 26 17  2  0  0  0  0
 27 24  1  6  0  0  0
 27  7  1  0  0  0  0
 28 30  1  0  0  0  0
 29 30  1  0  0  0  0
M  END
>  <MODEL>
7

>  <REMARK>
 VINA RESULT:      -7.3      2.806      5.229
  Name = 
  2 active torsions:
  status: ('A' for Active; 'I' for Inactive)
    1  A    between atoms: C_11  and  C_28
    2  A    between atoms: C_28  and  C_30
                            x       y       z     vdW  Elec       q    Type
                         _______ _______ _______ _____ _____    ______ ____

>  <TORSDO>
F 2

$$$$
=
 OpenBabel11112416223D

 30 35  0  0  1  0  0  0  0  0999 V2000
  188.5510  176.9080  143.6740 C   0  0  0  0  0  0  0  0  0  0  0  0
  186.5780  178.4490  143.6150 C   0  0  0  0  0  0  0  0  0  0  0  0
  187.5000  175.3280  139.9140 N   0  0  0  0  0  2  0  0  0  0  0  0
  189.3190  175.8850  143.0420 C   0  0  0  0  0  0  0  0  0  0  0  0
  189.0400  177.5170  144.9700 C   0  0  0  0  0  2  0  0  0  0  0  0
  191.8610  176.9370  144.4920 O   0  0  0  0  0  1  0  0  0  0  0  0
  190.9650  173.0550  142.5010 C   0  0  1  0  0  3  0  0  0  0  0  0
  190.9980  175.9520  144.9810 C   0  0  1  0  0  3  0  0  0  0  0  0
  189.7300  173.0820  141.5950 C   0  0  2  0  0  3  0  0  0  0  0  0
  188.5690  174.4080  139.7450 C   0  0  0  0  0  0  0  0  0  0  0  0
  189.9030  176.5910  145.8260 C   0  0  2  0  0  3  0  0  0  0  0  0
  190.3910  175.1440  143.8340 C   0  0  2  0  0  3  0  0  0  0  0  0
  185.4430  178.9180  142.9490 C   0  0  0  0  0  3  0  0  0  0  0  0
  190.0150  171.9620  140.6270 C   0  0  0  0  0  2  0  0  0  0  0  0
  191.9960  172.3670  141.8480 O   0  0  0  0  0  0  0  0  0  0  0  0
  186.8540  178.9900  144.8270 F   0  0  0  0  0  0  0  0  0  0  0  0
  187.7750  175.9350  141.1670 C   0  0  0  0  0  0  0  0  0  0  0  0
  185.0830  178.4010  141.7060 C   0  0  0  0  0  3  0  0  0  0  0  0
  187.3870  177.4350  143.0330 C   0  0  0  0  0  0  0  0  0  0  0  0
  188.9100  175.4370  141.7710 C   0  0  0  0  0  0  0  0  0  0  0  0
  188.6940  173.7120  138.7040 O   0  0  0  0  0  0  0  0  0  0  0  0
  189.5650  174.4270  140.8720 C   0  0  1  0  0  3  0  0  0  0  0  0
  191.3460  171.4000  141.0720 C   0  0  0  0  0  2  0  0  0  0  0  0
  192.0390  175.1970  142.0500 O   0  0  0  0  0  1  0  0  0  0  0  0
  185.8580  177.4070  141.1170 C   0  0  0  0  0  3  0  0  0  0  0  0
  186.9990  176.9220  141.7650 C   0  0  0  0  0  0  0  0  0  0  0  0
  191.4680  174.3970  143.0450 C   0  0  2  0  0  3  0  0  0  0  0  0
  189.0630  175.5320  146.5380 C   0  0  0  0  0  2  0  0  0  0  0  0
  191.0430  175.6490  148.0520 C   0  0  0  0  0  1  0  0  0  0  0  0
  189.8750  174.7970  147.5940 C   0  0  0  0  0  2  0  0  0  0  0  0
  1  5  1  0  0  0  0
  2 16  1  0  0  0  0
  3 17  1  0  0  0  0
  4  1  1  0  0  0  0
  5 11  1  0  0  0  0
  7 15  1  6  0  0  0
  7 27  1  0  0  0  0
  8  6  1  6  0  0  0
  8 11  1  0  0  0  0
  9 14  1  6  0  0  0
  9  7  1  0  0  0  0
 10  3  1  0  0  0  0
 11 28  1  6  0  0  0
 12  4  1  6  0  0  0
 12  8  1  0  0  0  0
 13  2  2  0  0  0  0
 14 23  1  0  0  0  0
 17 26  2  0  0  0  0
 17 20  1  0  0  0  0
 18 13  1  0  0  0  0
 19  2  1  0  0  0  0
 19  1  2  0  0  0  0
 20  4  2  0  0  0  0
 21 10  2  0  0  0  0
 22 10  1  6  0  0  0
 22  9  1  0  0  0  0
 22 20  1  0  0  0  0
 23 15  1  0  0  0  0
 25 18  2  0  0  0  0
 25 26  1  0  0  0  0
 26 19  1  0  0  0  0
 27 24  1  6  0  0  0
 27 12  1  0  0  0  0
 28 30  1  0  0  0  0
 30 29  1  0  0  0  0
M  END
>  <MODEL>
8

>  <REMARK>
 VINA RESULT:      -7.2      2.580      5.408
  Name = 
  2 active torsions:
  status: ('A' for Active; 'I' for Inactive)
    1  A    between atoms: C_11  and  C_28
    2  A    between atoms: C_28  and  C_30
                            x       y       z     vdW  Elec       q    Type
                         _______ _______ _______ _____ _____    ______ ____

>  <TORSDO>
F 2

$$$$
=
 OpenBabel11112416223D

 30 35  0  0  1  0  0  0  0  0999 V2000
  194.5110  173.9260  145.2880 C   0  0  0  0  0  0  0  0  0  0  0  0
  196.0760  172.0380  145.7940 C   0  0  0  0  0  0  0  0  0  0  0  0
  191.5340  171.2070  144.0740 N   0  0  0  0  0  2  0  0  0  0  0  0
  193.2320  174.3600  144.8290 C   0  0  0  0  0  0  0  0  0  0  0  0
  195.5000  174.9420  145.8190 C   0  0  0  0  0  2  0  0  0  0  0  0
  193.4790  176.8890  146.6240 O   0  0  0  0  0  1  0  0  0  0  0  0
  190.8590  175.9550  143.1440 C   0  0  1  0  0  3  0  0  0  0  0  0
  193.8960  176.7960  145.2930 C   0  0  1  0  0  3  0  0  0  0  0  0
  190.8000  174.4680  142.7810 C   0  0  2  0  0  3  0  0  0  0  0  0
  190.4970  172.1260  143.7580 C   0  0  0  0  0  0  0  0  0  0  0  0
  195.3510  176.3460  145.2340 C   0  0  2  0  0  3  0  0  0  0  0  0
  193.0020  175.8340  144.5100 C   0  0  2  0  0  3  0  0  0  0  0  0
  196.3260  170.6640  145.8240 C   0  0  0  0  0  3  0  0  0  0  0  0
  189.4680  174.3590  142.0830 C   0  0  0  0  0  2  0  0  0  0  0  0
  189.5650  176.4890  143.1000 O   0  0  0  0  0  0  0  0  0  0  0  0
  197.0810  172.8600  146.1850 F   0  0  0  0  0  0  0  0  0  0  0  0
  192.5950  172.0370  144.5160 C   0  0  0  0  0  0  0  0  0  0  0  0
  195.3500  169.7540  145.4220 C   0  0  0  0  0  3  0  0  0  0  0  0
  194.8190  172.5310  145.3520 C   0  0  0  0  0  0  0  0  0  0  0  0
  192.2870  173.3800  144.4710 C   0  0  0  0  0  0  0  0  0  0  0  0
  189.3600  171.7480  143.3760 O   0  0  0  0  0  0  0  0  0  0  0  0
  190.8660  173.5610  144.0190 C   0  0  1  0  0  3  0  0  0  0  0  0
  188.9140  175.7650  142.0930 C   0  0  0  0  0  2  0  0  0  0  0  0
  190.8250  175.9410  145.5820 O   0  0  0  0  0  1  0  0  0  0  0  0
  194.1120  170.2130  144.9850 C   0  0  0  0  0  3  0  0  0  0  0  0
  193.8390  171.5850  144.9450 C   0  0  0  0  0  0  0  0  0  0  0  0
  191.5570  176.3320  144.4570 C   0  0  2  0  0  3  0  0  0  0  0  0
  195.8980  176.4260  143.8100 C   0  0  0  0  0  2  0  0  0  0  0  0
  196.8850  174.5500  142.4930 C   0  0  0  0  0  1  0  0  0  0  0  0
  197.1120  175.5270  143.6300 C   0  0  0  0  0  2  0  0  0  0  0  0
  1 19  1  0  0  0  0
  1  5  1  0  0  0  0
  2 13  1  0  0  0  0
  2 16  1  0  0  0  0
  3 17  1  0  0  0  0
  4  1  2  0  0  0  0
  7 15  1  1  0  0  0
  7 27  1  0  0  0  0
  8  6  1  1  0  0  0
  9 14  1  1  0  0  0
  9  7  1  0  0  0  0
  9 22  1  0  0  0  0
 10  3  1  0  0  0  0
 11 28  1  6  0  0  0
 11  8  1  0  0  0  0
 11  5  1  0  0  0  0
 12  4  1  1  0  0  0
 12  8  1  0  0  0  0
 14 23  1  0  0  0  0
 17 26  1  0  0  0  0
 18 13  2  0  0  0  0
 19  2  2  0  0  0  0
 20 17  2  0  0  0  0
 20  4  1  0  0  0  0
 21 10  2  0  0  0  0
 22 10  1  6  0  0  0
 22 20  1  0  0  0  0
 23 15  1  0  0  0  0
 25 18  1  0  0  0  0
 26 25  2  0  0  0  0
 26 19  1  0  0  0  0
 27 12  1  0  0  0  0
 27 24  1  1  0  0  0
 29 30  1  0  0  0  0
 30 28  1  0  0  0  0
M  END
>  <MODEL>
9

>  <REMARK>
 VINA RESULT:      -7.2      4.335      8.266
  Name = 
  2 active torsions:
  status: ('A' for Active; 'I' for Inactive)
    1  A    between atoms: C_11  and  C_28
    2  A    between atoms: C_28  and  C_30
                            x       y       z     vdW  Elec       q    Type
                         _______ _______ _______ _____ _____    ______ ____

>  <TORSDO>
F 2

$$$$
