=
 OpenBabel11112417003D

 31 35  0  0  1  0  0  0  0  0999 V2000
  186.1520  178.1180  140.8030 C   0  0  0  0  0  0  0  0  0  0  0  0
  188.2600  178.0220  143.9050 C   0  0  2  0  0  3  0  0  0  0  0  0
  187.2580  177.8500  145.0330 C   0  0  0  0  0  0  0  0  0  0  0  0
  185.0250  178.2010  145.9350 C   0  0  0  0  0  0  0  0  0  0  0  0
  187.6990  177.6440  142.5500 C   0  0  0  0  0  0  0  0  0  0  0  0
  186.5590  176.9850  140.0980 C   0  0  0  0  0  3  0  0  0  0  0  0
  185.9330  178.2880  144.8770 C   0  0  0  0  0  3  0  0  0  0  0  0
  189.5580  175.8340  143.8340 C   0  0  2  0  0  3  0  0  0  0  0  0
  185.1820  178.9170  140.2970 F   0  0  0  0  0  0  0  0  0  0  0  0
  189.0760  176.8950  146.5100 C   0  0  0  0  0  2  0  0  0  0  0  0
  183.7150  178.6240  145.7610 O   0  0  0  0  0  1  0  0  0  0  0  0
  189.3000  175.6720  142.3400 C   0  0  0  0  0  2  0  0  0  0  0  0
  189.6040  177.3250  144.1970 C   0  0  2  0  0  3  0  0  0  0  0  0
  186.7260  178.4200  141.9970 N   0  0  0  0  0  0  0  0  0  0  0  0
  185.4370  177.6930  147.1690 C   0  0  0  0  0  3  0  0  0  0  0  0
  188.1370  176.4900  141.8630 C   0  0  0  0  0  0  0  0  0  0  0  0
  187.5620  176.1770  140.6300 C   0  0  0  0  0  3  0  0  0  0  0  0
  190.0130  177.5460  145.5900 N   0  0  0  0  0  2  0  0  0  0  0  0
  187.6750  177.3770  146.2950 C   0  0  0  0  0  0  0  0  0  0  0  0
  186.7600  177.2810  147.3470 C   0  0  0  0  0  3  0  0  0  0  0  0
  189.8420  173.3470  145.2170 O   0  0  0  0  0  0  0  0  0  0  0  0
  190.8950  173.9430  144.8650 C   0  0  0  0  0  0  0  0  0  0  0  0
  190.8210  175.1960  144.1790 N   0  0  0  0  0  2  0  0  0  0  0  0
  194.4410  174.6860  143.8230 C   0  0  1  0  0  3  0  0  0  0  0  0
  193.1100  174.3100  145.9000 C   0  0  0  0  0  3  0  0  0  0  0  0
  192.0540  171.8900  143.2320 C   0  0  0  0  0  1  0  0  0  0  0  0
  194.6600  175.9880  143.0820 C   0  0  0  0  0  1  0  0  0  0  0  0
  194.0930  174.9650  145.2640 C   0  0  0  0  0  3  0  0  0  0  0  0
  192.9300  172.7710  143.9920 N   0  0  0  0  0  0  0  0  0  0  0  0
  192.2330  173.3190  145.1750 C   0  0  2  0  0  3  0  0  0  0  0  0
  193.3630  173.8610  143.1170 C   0  0  0  0  0  2  0  0  0  0  0  0
  1 14  1  0  0  0  0
  2  5  1  6  0  0  0
  2 13  1  0  0  0  0
  2  3  1  0  0  0  0
  3 19  1  0  0  0  0
  4 15  2  0  0  0  0
  6 17  1  0  0  0  0
  6  1  2  0  0  0  0
  7  3  2  0  0  0  0
  7  4  1  0  0  0  0
  8 23  1  6  0  0  0
  8 13  1  0  0  0  0
  9  1  1  0  0  0  0
 11  4  1  0  0  0  0
 12  8  1  0  0  0  0
 13 18  1  1  0  0  0
 14  5  2  0  0  0  0
 15 20  1  0  0  0  0
 16 12  1  0  0  0  0
 16  5  1  0  0  0  0
 17 16  2  0  0  0  0
 18 10  1  0  0  0  0
 19 10  1  0  0  0  0
 19 20  2  0  0  0  0
 22 21  2  0  0  0  0
 23 22  1  0  0  0  0
 24 27  1  6  0  0  0
 24 28  1  0  0  0  0
 26 29  1  0  0  0  0
 28 25  2  0  0  0  0
 29 30  1  0  0  0  0
 30 22  1  6  0  0  0
 30 25  1  0  0  0  0
 31 24  1  0  0  0  0
 31 29  1  0  0  0  0
M  END
>  <MODEL>
1

>  <REMARK>
 VINA RESULT:      -8.7      0.000      0.000
  Name = 
  2 active torsions:
  status: ('A' for Active; 'I' for Inactive)
    1  A    between atoms: C_5  and  C_30
    2  A    between atoms: C_10  and  N_16
                            x       y       z     vdW  Elec       q    Type
                         _______ _______ _______ _____ _____    ______ ____

>  <TORSDO>
F 2

$$$$
=
 OpenBabel11112417003D

 31 35  0  0  1  0  0  0  0  0999 V2000
  186.6410  177.7600  140.9220 C   0  0  0  0  0  0  0  0  0  0  0  0
  188.1440  177.9160  144.3560 C   0  0  2  0  0  3  0  0  0  0  0  0
  186.9450  177.9520  145.2870 C   0  0  0  0  0  0  0  0  0  0  0  0
  184.6270  178.5580  145.7100 C   0  0  0  0  0  0  0  0  0  0  0  0
  187.8040  177.4080  142.9710 C   0  0  0  0  0  0  0  0  0  0  0  0
  187.0660  176.5230  140.4360 C   0  0  0  0  0  3  0  0  0  0  0  0
  185.7130  178.4530  144.8390 C   0  0  0  0  0  3  0  0  0  0  0  0
  189.2380  175.6560  144.7730 C   0  0  2  0  0  3  0  0  0  0  0  0
  185.8500  178.5510  140.1580 F   0  0  0  0  0  0  0  0  0  0  0  0
  188.3800  177.0720  147.1770 C   0  0  0  0  0  2  0  0  0  0  0  0
  183.4100  179.0410  145.2470 O   0  0  0  0  0  1  0  0  0  0  0  0
  189.2380  175.3250  143.2850 C   0  0  0  0  0  2  0  0  0  0  0  0
  189.3480  177.1740  144.9710 C   0  0  2  0  0  3  0  0  0  0  0  0
  187.0160  178.1710  142.1620 N   0  0  0  0  0  0  0  0  0  0  0  0
  184.7650  178.1830  147.0480 C   0  0  0  0  0  3  0  0  0  0  0  0
  188.2550  176.1520  142.5110 C   0  0  0  0  0  0  0  0  0  0  0  0
  187.8850  175.7250  141.2340 C   0  0  0  0  0  3  0  0  0  0  0  0
  189.5190  177.5410  146.3830 N   0  0  0  0  0  2  0  0  0  0  0  0
  187.0870  177.6140  146.6510 C   0  0  0  0  0  0  0  0  0  0  0  0
  185.9940  177.7110  147.5160 C   0  0  0  0  0  3  0  0  0  0  0  0
  192.0030  176.1960  144.2830 O   0  0  0  0  0  0  0  0  0  0  0  0
  191.7230  175.3100  145.1340 C   0  0  0  0  0  0  0  0  0  0  0  0
  190.3590  174.9850  145.4180 N   0  0  0  0  0  2  0  0  0  0  0  0
  195.4710  175.2470  144.7350 C   0  0  1  0  0  3  0  0  0  0  0  0
  193.7550  175.6000  146.5130 C   0  0  0  0  0  3  0  0  0  0  0  0
  192.7320  172.7680  144.2710 C   0  0  0  0  0  1  0  0  0  0  0  0
  196.0600  176.2770  143.7940 C   0  0  0  0  0  1  0  0  0  0  0  0
  194.9400  175.9250  145.9740 C   0  0  0  0  0  3  0  0  0  0  0  0
  193.6160  173.6750  144.9900 N   0  0  0  0  0  0  0  0  0  0  0  0
  192.8430  174.5970  145.8500 C   0  0  2  0  0  3  0  0  0  0  0  0
  194.3930  174.4370  144.0130 C   0  0  0  0  0  2  0  0  0  0  0  0
  1 14  1  0  0  0  0
  2  5  1  6  0  0  0
  2 13  1  0  0  0  0
  2  3  1  0  0  0  0
  3 19  1  0  0  0  0
  4 15  2  0  0  0  0
  6  1  2  0  0  0  0
  6 17  1  0  0  0  0
  7  3  2  0  0  0  0
  7  4  1  0  0  0  0
  8 13  1  0  0  0  0
  8 23  1  1  0  0  0
  9  1  1  0  0  0  0
 11  4  1  0  0  0  0
 12  8  1  0  0  0  0
 13 18  1  1  0  0  0
 14  5  2  0  0  0  0
 15 20  1  0  0  0  0
 16  5  1  0  0  0  0
 16 12  1  0  0  0  0
 17 16  2  0  0  0  0
 18 10  1  0  0  0  0
 19 10  1  0  0  0  0
 19 20  2  0  0  0  0
 21 22  2  0  0  0  0
 22 23  1  0  0  0  0
 24 27  1  6  0  0  0
 24 28  1  0  0  0  0
 26 29  1  0  0  0  0
 28 25  2  0  0  0  0
 29 30  1  0  0  0  0
 30 22  1  6  0  0  0
 30 25  1  0  0  0  0
 31 24  1  0  0  0  0
 31 29  1  0  0  0  0
M  END
>  <MODEL>
2

>  <REMARK>
 VINA RESULT:      -8.6      1.153      1.242
  Name = 
  2 active torsions:
  status: ('A' for Active; 'I' for Inactive)
    1  A    between atoms: C_5  and  C_30
    2  A    between atoms: C_10  and  N_16
                            x       y       z     vdW  Elec       q    Type
                         _______ _______ _______ _____ _____    ______ ____

>  <TORSDO>
F 2

$$$$
=
 OpenBabel11112417003D

 31 35  0  0  1  0  0  0  0  0999 V2000
  185.0020  177.8340  146.6960 C   0  0  0  0  0  0  0  0  0  0  0  0
  186.9900  176.0450  144.0650 C   0  0  2  0  0  3  0  0  0  0  0  0
  186.6200  176.7510  142.7730 C   0  0  0  0  0  0  0  0  0  0  0  0
  185.0070  177.9980  141.4430 C   0  0  0  0  0  0  0  0  0  0  0  0
  186.6680  176.8600  145.3000 C   0  0  0  0  0  0  0  0  0  0  0  0
  185.9810  178.4080  147.5090 C   0  0  0  0  0  3  0  0  0  0  0  0
  185.3860  177.4100  142.6520 C   0  0  0  0  0  3  0  0  0  0  0  0
  189.4320  176.6410  144.4680 C   0  0  2  0  0  3  0  0  0  0  0  0
  183.6910  178.0300  146.9750 F   0  0  0  0  0  0  0  0  0  0  0  0
  188.7720  175.9470  141.7110 C   0  0  0  0  0  2  0  0  0  0  0  0
  183.7910  178.6600  141.3450 O   0  0  0  0  0  1  0  0  0  0  0  0
  189.1340  177.1060  145.8900 C   0  0  0  0  0  2  0  0  0  0  0  0
  188.4460  175.5350  144.0640 C   0  0  2  0  0  3  0  0  0  0  0  0
  185.3630  177.0800  145.6240 N   0  0  0  0  0  0  0  0  0  0  0  0
  185.8490  177.9160  140.3320 C   0  0  0  0  0  3  0  0  0  0  0  0
  187.6840  177.4240  146.1010 C   0  0  0  0  0  0  0  0  0  0  0  0
  187.3250  178.1900  147.2120 C   0  0  0  0  0  3  0  0  0  0  0  0
  188.7850  174.9330  142.7690 N   0  0  0  0  0  2  0  0  0  0  0  0
  187.4450  176.6370  141.6330 C   0  0  0  0  0  0  0  0  0  0  0  0
  187.0660  177.2370  140.4290 C   0  0  0  0  0  3  0  0  0  0  0  0
  191.7480  178.2140  143.8880 O   0  0  0  0  0  0  0  0  0  0  0  0
  191.9170  176.9850  144.1120 C   0  0  0  0  0  0  0  0  0  0  0  0
  190.7980  176.1420  144.3980 N   0  0  0  0  0  2  0  0  0  0  0  0
  193.3550  173.5320  144.5800 C   0  0  1  0  0  3  0  0  0  0  0  0
  193.4360  175.4190  142.9490 C   0  0  0  0  0  3  0  0  0  0  0  0
  193.5450  176.7400  146.4610 C   0  0  0  0  0  1  0  0  0  0  0  0
  192.3570  172.3950  144.6380 C   0  0  0  0  0  1  0  0  0  0  0  0
  193.4120  174.0980  143.1830 C   0  0  0  0  0  3  0  0  0  0  0  0
  193.7530  175.8160  145.3540 N   0  0  0  0  0  0  0  0  0  0  0  0
  193.3140  176.4160  144.0750 C   0  0  2  0  0  3  0  0  0  0  0  0
  192.9960  174.5940  145.6200 C   0  0  0  0  0  2  0  0  0  0  0  0
  1  9  1  0  0  0  0
  1  6  1  0  0  0  0
  2  3  1  6  0  0  0
  2  5  1  0  0  0  0
  4  7  2  0  0  0  0
  5 14  1  0  0  0  0
  5 16  2  0  0  0  0
  7  3  1  0  0  0  0
  8 23  1  1  0  0  0
  8 12  1  0  0  0  0
 10 18  1  0  0  0  0
 11  4  1  0  0  0  0
 12 16  1  0  0  0  0
 13 18  1  6  0  0  0
 13  2  1  0  0  0  0
 13  8  1  0  0  0  0
 14  1  2  0  0  0  0
 15 20  2  0  0  0  0
 15  4  1  0  0  0  0
 16 17  1  0  0  0  0
 17  6  2  0  0  0  0
 19 10  1  0  0  0  0
 19  3  2  0  0  0  0
 20 19  1  0  0  0  0
 21 22  2  0  0  0  0
 22 23  1  0  0  0  0
 24 27  1  6  0  0  0
 24 31  1  0  0  0  0
 25 28  2  0  0  0  0
 25 30  1  0  0  0  0
 28 24  1  0  0  0  0
 29 31  1  0  0  0  0
 29 26  1  0  0  0  0
 30 22  1  1  0  0  0
 30 29  1  0  0  0  0
M  END
>  <MODEL>
3

>  <REMARK>
 VINA RESULT:      -8.5      2.339      4.460
  Name = 
  2 active torsions:
  status: ('A' for Active; 'I' for Inactive)
    1  A    between atoms: C_5  and  C_30
    2  A    between atoms: C_10  and  N_16
                            x       y       z     vdW  Elec       q    Type
                         _______ _______ _______ _____ _____    ______ ____

>  <TORSDO>
F 2

$$$$
=
 OpenBabel11112417003D

 31 35  0  0  1  0  0  0  0  0999 V2000
  184.8880  178.3460  146.7320 C   0  0  0  0  0  0  0  0  0  0  0  0
  187.2340  176.0410  144.9270 C   0  0  2  0  0  3  0  0  0  0  0  0
  187.2060  176.5290  143.4890 C   0  0  0  0  0  0  0  0  0  0  0  0
  186.0200  177.6000  141.6540 C   0  0  0  0  0  0  0  0  0  0  0  0
  186.7260  177.0710  145.9130 C   0  0  0  0  0  0  0  0  0  0  0  0
  185.7160  179.0060  147.6410 C   0  0  0  0  0  3  0  0  0  0  0  0
  186.0850  177.2140  142.9940 C   0  0  0  0  0  3  0  0  0  0  0  0
  189.5750  176.5850  145.7640 C   0  0  2  0  0  3  0  0  0  0  0  0
  183.5690  178.6470  146.6760 F   0  0  0  0  0  0  0  0  0  0  0  0
  189.4600  175.4560  143.0750 C   0  0  0  0  0  2  0  0  0  0  0  0
  184.9110  178.2910  141.1840 O   0  0  0  0  0  1  0  0  0  0  0  0
  189.0230  177.3020  146.9920 C   0  0  0  0  0  2  0  0  0  0  0  0
  188.6100  175.4720  145.3310 C   0  0  2  0  0  3  0  0  0  0  0  0
  185.4040  177.4020  145.9010 N   0  0  0  0  0  0  0  0  0  0  0  0
  187.0690  177.2900  140.7860 C   0  0  0  0  0  3  0  0  0  0  0  0
  187.5920  177.7170  146.8220 C   0  0  0  0  0  0  0  0  0  0  0  0
  187.0700  178.6790  147.6890 C   0  0  0  0  0  3  0  0  0  0  0  0
  189.1650  174.6410  144.2560 N   0  0  0  0  0  2  0  0  0  0  0  0
  188.2420  176.1830  142.5950 C   0  0  0  0  0  0  0  0  0  0  0  0
  188.1770  176.5830  141.2570 C   0  0  0  0  0  3  0  0  0  0  0  0
  192.0420  177.2830  144.4970 O   0  0  0  0  0  0  0  0  0  0  0  0
  192.0800  176.4200  145.4140 C   0  0  0  0  0  0  0  0  0  0  0  0
  190.8800  176.0190  146.0800 N   0  0  0  0  0  2  0  0  0  0  0  0
  195.3090  175.7840  143.5740 C   0  0  1  0  0  3  0  0  0  0  0  0
  194.5010  176.8470  145.6830 C   0  0  0  0  0  3  0  0  0  0  0  0
  192.6620  173.6330  145.0660 C   0  0  0  0  0  1  0  0  0  0  0  0
  195.4310  176.4160  142.2030 C   0  0  0  0  0  1  0  0  0  0  0  0
  195.3430  176.8540  144.6380 C   0  0  0  0  0  3  0  0  0  0  0  0
  193.7560  174.5940  145.0390 N   0  0  0  0  0  0  0  0  0  0  0  0
  193.4070  175.8140  145.8000 C   0  0  2  0  0  3  0  0  0  0  0  0
  194.0370  174.9370  143.6460 C   0  0  0  0  0  2  0  0  0  0  0  0
  1  6  1  0  0  0  0
  2  3  1  6  0  0  0
  2 13  1  0  0  0  0
  2  5  1  0  0  0  0
  4  7  2  0  0  0  0
  5 16  2  0  0  0  0
  6 17  2  0  0  0  0
  7  3  1  0  0  0  0
  8 23  1  1  0  0  0
  8 12  1  0  0  0  0
  9  1  1  0  0  0  0
 10 18  1  0  0  0  0
 11  4  1  0  0  0  0
 13 18  1  6  0  0  0
 13  8  1  0  0  0  0
 14  5  1  0  0  0  0
 14  1  2  0  0  0  0
 15 20  2  0  0  0  0
 15  4  1  0  0  0  0
 16 12  1  0  0  0  0
 16 17  1  0  0  0  0
 19 10  1  0  0  0  0
 19  3  2  0  0  0  0
 20 19  1  0  0  0  0
 21 22  2  0  0  0  0
 22 23  1  0  0  0  0
 24 27  1  6  0  0  0
 24 31  1  0  0  0  0
 24 28  1  0  0  0  0
 25 30  1  0  0  0  0
 28 25  2  0  0  0  0
 29 26  1  0  0  0  0
 29 30  1  0  0  0  0
 30 22  1  6  0  0  0
 31 29  1  0  0  0  0
M  END
>  <MODEL>
4

>  <REMARK>
 VINA RESULT:      -8.4      2.249      4.183
  Name = 
  2 active torsions:
  status: ('A' for Active; 'I' for Inactive)
    1  A    between atoms: C_5  and  C_30
    2  A    between atoms: C_10  and  N_16
                            x       y       z     vdW  Elec       q    Type
                         _______ _______ _______ _____ _____    ______ ____

>  <TORSDO>
F 2

$$$$
=
 OpenBabel11112417003D

 31 35  0  0  1  0  0  0  0  0999 V2000
  184.5120  178.4340  145.8770 C   0  0  0  0  0  0  0  0  0  0  0  0
  186.3860  176.0270  143.6920 C   0  0  2  0  0  3  0  0  0  0  0  0
  186.3680  176.6760  142.3190 C   0  0  0  0  0  0  0  0  0  0  0  0
  185.2800  178.1160  140.6870 C   0  0  0  0  0  0  0  0  0  0  0  0
  186.0900  177.0010  144.8130 C   0  0  0  0  0  0  0  0  0  0  0  0
  185.4740  178.8530  146.7970 C   0  0  0  0  0  3  0  0  0  0  0  0
  185.3450  177.5730  141.9720 C   0  0  0  0  0  3  0  0  0  0  0  0
  188.8190  176.1150  144.4330 C   0  0  2  0  0  3  0  0  0  0  0  0
  183.2550  178.9330  145.9370 F   0  0  0  0  0  0  0  0  0  0  0  0
  188.4060  175.3330  141.6510 C   0  0  0  0  0  2  0  0  0  0  0  0
  184.2710  179.0140  140.3640 O   0  0  0  0  0  1  0  0  0  0  0  0
  188.4420  176.7600  145.7620 C   0  0  0  0  0  2  0  0  0  0  0  0
  187.6740  175.2160  143.9450 C   0  0  2  0  0  3  0  0  0  0  0  0
  184.8370  177.5250  144.9190 N   0  0  0  0  0  0  0  0  0  0  0  0
  186.2260  177.7540  139.7260 C   0  0  0  0  0  3  0  0  0  0  0  0
  187.0870  177.4010  145.7280 C   0  0  0  0  0  0  0  0  0  0  0  0
  186.7610  178.3240  146.7240 C   0  0  0  0  0  3  0  0  0  0  0  0
  188.0430  174.4400  142.7550 N   0  0  0  0  0  2  0  0  0  0  0  0
  187.2950  176.2840  141.3290 C   0  0  0  0  0  0  0  0  0  0  0  0
  187.2320  176.8400  140.0490 C   0  0  0  0  0  3  0  0  0  0  0  0
  191.4280  177.1710  144.9420 O   0  0  0  0  0  0  0  0  0  0  0  0
  191.3090  175.9190  144.8670 C   0  0  0  0  0  0  0  0  0  0  0  0
  190.0330  175.3280  144.6040 N   0  0  0  0  0  2  0  0  0  0  0  0
  194.9860  176.6220  145.3150 C   0  0  1  0  0  3  0  0  0  0  0  0
  193.1530  175.3240  146.4040 C   0  0  0  0  0  3  0  0  0  0  0  0
  192.9160  175.0150  142.6700 C   0  0  0  0  0  1  0  0  0  0  0  0
  195.3650  178.0690  145.5490 C   0  0  0  0  0  1  0  0  0  0  0  0
  194.2550  176.0810  146.5190 C   0  0  0  0  0  3  0  0  0  0  0  0
  193.5320  175.1800  143.9800 N   0  0  0  0  0  0  0  0  0  0  0  0
  192.5280  175.0510  145.0580 C   0  0  2  0  0  3  0  0  0  0  0  0
  194.1590  176.5000  144.0340 C   0  0  0  0  0  2  0  0  0  0  0  0
  1  9  1  0  0  0  0
  1  6  1  0  0  0  0
  2  3  1  6  0  0  0
  2 13  1  0  0  0  0
  2  5  1  0  0  0  0
  4  7  2  0  0  0  0
  5 14  1  0  0  0  0
  5 16  2  0  0  0  0
  7  3  1  0  0  0  0
  8 23  1  1  0  0  0
  8 12  1  0  0  0  0
 10 18  1  0  0  0  0
 11  4  1  0  0  0  0
 13 18  1  6  0  0  0
 13  8  1  0  0  0  0
 14  1  2  0  0  0  0
 15 20  2  0  0  0  0
 15  4  1  0  0  0  0
 16 12  1  0  0  0  0
 16 17  1  0  0  0  0
 17  6  2  0  0  0  0
 19 10  1  0  0  0  0
 19  3  2  0  0  0  0
 20 19  1  0  0  0  0
 22 21  2  0  0  0  0
 23 22  1  0  0  0  0
 24 27  1  1  0  0  0
 24 28  1  0  0  0  0
 25 28  2  0  0  0  0
 26 29  1  0  0  0  0
 29 31  1  0  0  0  0
 29 30  1  0  0  0  0
 30 22  1  6  0  0  0
 30 25  1  0  0  0  0
 31 24  1  0  0  0  0
M  END
>  <MODEL>
5

>  <REMARK>
 VINA RESULT:      -7.9      2.315      4.235
  Name = 
  2 active torsions:
  status: ('A' for Active; 'I' for Inactive)
    1  A    between atoms: C_5  and  C_30
    2  A    between atoms: C_10  and  N_16
                            x       y       z     vdW  Elec       q    Type
                         _______ _______ _______ _____ _____    ______ ____

>  <TORSDO>
F 2

$$$$
=
 OpenBabel11112417003D

 31 35  0  0  1  0  0  0  0  0999 V2000
  190.7210  171.5060  142.8140 C   0  0  0  0  0  0  0  0  0  0  0  0
  189.8760  174.2760  145.2000 C   0  0  2  0  0  3  0  0  0  0  0  0
  191.2140  174.9210  145.5130 C   0  0  0  0  0  0  0  0  0  0  0  0
  193.6280  174.7440  145.7610 C   0  0  0  0  0  0  0  0  0  0  0  0
  189.9010  173.4400  143.9380 C   0  0  0  0  0  0  0  0  0  0  0  0
  190.0640  171.8760  141.6410 C   0  0  0  0  0  3  0  0  0  0  0  0
  192.4020  174.1800  145.4030 C   0  0  0  0  0  3  0  0  0  0  0  0
  188.5960  176.0220  143.8610 C   0  0  2  0  0  3  0  0  0  0  0  0
  191.4580  170.3700  142.8480 F   0  0  0  0  0  0  0  0  0  0  0  0
  190.0340  177.0580  146.1810 C   0  0  0  0  0  2  0  0  0  0  0  0
  194.7960  174.0040  145.6320 O   0  0  0  0  0  1  0  0  0  0  0  0
  188.2930  175.0210  142.7520 C   0  0  0  0  0  2  0  0  0  0  0  0
  188.7140  175.2910  145.2060 C   0  0  2  0  0  3  0  0  0  0  0  0
  190.6230  172.2850  143.9240 N   0  0  0  0  0  0  0  0  0  0  0  0
  193.6810  176.0510  146.2510 C   0  0  0  0  0  3  0  0  0  0  0  0
  189.2210  173.8440  142.7680 C   0  0  0  0  0  0  0  0  0  0  0  0
  189.3040  173.0450  141.6260 C   0  0  0  0  0  3  0  0  0  0  0  0
  188.8420  176.2200  146.3360 N   0  0  0  0  0  2  0  0  0  0  0  0
  191.2720  176.2260  146.0480 C   0  0  0  0  0  0  0  0  0  0  0  0
  192.5040  176.7900  146.3930 C   0  0  0  0  0  3  0  0  0  0  0  0
  188.1800  178.1370  141.9820 O   0  0  0  0  0  0  0  0  0  0  0  0
  187.3710  178.0430  142.9430 C   0  0  0  0  0  0  0  0  0  0  0  0
  187.5300  177.0130  143.9240 N   0  0  0  0  0  2  0  0  0  0  0  0
  184.4350  178.4230  145.2780 C   0  0  1  0  0  3  0  0  0  0  0  0
  186.3170  179.7780  144.3550 C   0  0  0  0  0  3  0  0  0  0  0  0
  184.8390  177.6150  141.6650 C   0  0  0  0  0  1  0  0  0  0  0  0
  184.4420  177.5400  146.5080 C   0  0  0  0  0  1  0  0  0  0  0  0
  185.5190  179.4670  145.3870 C   0  0  0  0  0  3  0  0  0  0  0  0
  184.8950  178.4220  142.8770 N   0  0  0  0  0  0  0  0  0  0  0  0
  186.2340  179.0280  143.0480 C   0  0  2  0  0  3  0  0  0  0  0  0
  184.5840  177.5650  144.0200 C   0  0  0  0  0  2  0  0  0  0  0  0
  1  9  1  0  0  0  0
  1 14  1  0  0  0  0
  2  5  1  6  0  0  0
  2 13  1  0  0  0  0
  2  3  1  0  0  0  0
  3 19  1  0  0  0  0
  4 15  2  0  0  0  0
  6  1  2  0  0  0  0
  7  3  2  0  0  0  0
  7  4  1  0  0  0  0
  8 23  1  1  0  0  0
  8 13  1  0  0  0  0
 10 18  1  0  0  0  0
 11  4  1  0  0  0  0
 12 16  1  0  0  0  0
 12  8  1  0  0  0  0
 13 18  1  1  0  0  0
 14  5  2  0  0  0  0
 15 20  1  0  0  0  0
 16  5  1  0  0  0  0
 17  6  1  0  0  0  0
 17 16  2  0  0  0  0
 19 10  1  0  0  0  0
 19 20  2  0  0  0  0
 21 22  2  0  0  0  0
 22 23  1  0  0  0  0
 24 28  1  0  0  0  0
 24 27  1  1  0  0  0
 25 28  2  0  0  0  0
 26 29  1  0  0  0  0
 29 30  1  0  0  0  0
 29 31  1  0  0  0  0
 30 22  1  1  0  0  0
 30 25  1  0  0  0  0
 31 24  1  0  0  0  0
M  END
>  <MODEL>
6

>  <REMARK>
 VINA RESULT:      -7.5      2.967      7.268
  Name = 
  2 active torsions:
  status: ('A' for Active; 'I' for Inactive)
    1  A    between atoms: C_5  and  C_30
    2  A    between atoms: C_10  and  N_16
                            x       y       z     vdW  Elec       q    Type
                         _______ _______ _______ _____ _____    ______ ____

>  <TORSDO>
F 2

$$$$
=
 OpenBabel11112417003D

 31 35  0  0  1  0  0  0  0  0999 V2000
  185.9170  178.2650  140.8820 C   0  0  0  0  0  0  0  0  0  0  0  0
  188.1760  178.1150  143.8740 C   0  0  2  0  0  3  0  0  0  0  0  0
  187.2440  177.8050  145.0310 C   0  0  0  0  0  0  0  0  0  0  0  0
  185.0410  177.9480  146.0550 C   0  0  0  0  0  0  0  0  0  0  0  0
  187.5750  177.7860  142.5230 C   0  0  0  0  0  0  0  0  0  0  0  0
  186.3600  177.2080  140.0870 C   0  0  0  0  0  3  0  0  0  0  0  0
  185.8870  178.1620  144.9650 C   0  0  0  0  0  3  0  0  0  0  0  0
  189.6070  176.0280  143.6000 C   0  0  2  0  0  3  0  0  0  0  0  0
  184.8740  179.0270  140.4750 F   0  0  0  0  0  0  0  0  0  0  0  0
  189.1900  176.8830  146.3590 C   0  0  0  0  0  2  0  0  0  0  0  0
  183.6980  178.2910  145.9680 O   0  0  0  0  0  1  0  0  0  0  0  0
  189.2870  175.9440  142.1110 C   0  0  0  0  0  2  0  0  0  0  0  0
  189.5750  177.4930  144.0590 C   0  0  2  0  0  3  0  0  0  0  0  0
  186.5280  178.5290  142.0670 N   0  0  0  0  0  0  0  0  0  0  0  0
  185.5440  177.3920  147.2320 C   0  0  0  0  0  3  0  0  0  0  0  0
  188.0520  176.7110  141.7430 C   0  0  0  0  0  0  0  0  0  0  0  0
  187.4390  176.4380  140.5180 C   0  0  0  0  0  3  0  0  0  0  0  0
  190.0370  177.6530  145.4430 N   0  0  0  0  0  2  0  0  0  0  0  0
  187.7520  177.2830  146.2400 C   0  0  0  0  0  0  0  0  0  0  0  0
  186.8980  177.0590  147.3230 C   0  0  0  0  0  3  0  0  0  0  0  0
  192.0940  177.1650  142.7630 O   0  0  0  0  0  0  0  0  0  0  0  0
  192.1340  176.0830  143.4070 C   0  0  0  0  0  0  0  0  0  0  0  0
  190.9240  175.4570  143.8450 N   0  0  0  0  0  2  0  0  0  0  0  0
  193.2460  172.6100  144.3660 C   0  0  1  0  0  3  0  0  0  0  0  0
  193.7830  174.3830  142.6930 C   0  0  0  0  0  3  0  0  0  0  0  0
  193.1950  175.9230  146.0670 C   0  0  0  0  0  1  0  0  0  0  0  0
  192.1990  171.5220  144.2630 C   0  0  0  0  0  1  0  0  0  0  0  0
  193.6360  173.0820  142.9870 C   0  0  0  0  0  3  0  0  0  0  0  0
  193.5890  174.9220  145.0840 N   0  0  0  0  0  0  0  0  0  0  0  0
  193.4720  175.4550  143.7090 C   0  0  2  0  0  3  0  0  0  0  0  0
  192.7270  173.7520  145.2420 C   0  0  0  0  0  2  0  0  0  0  0  0
  1 14  1  0  0  0  0
  2  5  1  6  0  0  0
  2 13  1  0  0  0  0
  2  3  1  0  0  0  0
  3 19  1  0  0  0  0
  4 15  2  0  0  0  0
  6 17  1  0  0  0  0
  6  1  2  0  0  0  0
  7  3  2  0  0  0  0
  7  4  1  0  0  0  0
  8 23  1  6  0  0  0
  8 13  1  0  0  0  0
  9  1  1  0  0  0  0
 11  4  1  0  0  0  0
 12  8  1  0  0  0  0
 13 18  1  1  0  0  0
 14  5  2  0  0  0  0
 15 20  1  0  0  0  0
 16 12  1  0  0  0  0
 16  5  1  0  0  0  0
 17 16  2  0  0  0  0
 18 10  1  0  0  0  0
 19 10  1  0  0  0  0
 19 20  2  0  0  0  0
 21 22  2  0  0  0  0
 22 23  1  0  0  0  0
 24 27  1  6  0  0  0
 24 31  1  0  0  0  0
 25 28  2  0  0  0  0
 25 30  1  0  0  0  0
 28 24  1  0  0  0  0
 29 31  1  0  0  0  0
 29 26  1  0  0  0  0
 30 22  1  6  0  0  0
 30 29  1  0  0  0  0
M  END
>  <MODEL>
7

>  <REMARK>
 VINA RESULT:      -7.5      1.258      2.076
  Name = 
  2 active torsions:
  status: ('A' for Active; 'I' for Inactive)
    1  A    between atoms: C_5  and  C_30
    2  A    between atoms: C_10  and  N_16
                            x       y       z     vdW  Elec       q    Type
                         _______ _______ _______ _____ _____    ______ ____

>  <TORSDO>
F 2

$$$$
=
 OpenBabel11112417003D

 31 35  0  0  1  0  0  0  0  0999 V2000
  186.0130  179.0940  142.9080 C   0  0  0  0  0  0  0  0  0  0  0  0
  189.0410  176.9270  143.3690 C   0  0  2  0  0  3  0  0  0  0  0  0
  188.8300  176.2720  144.7220 C   0  0  0  0  0  0  0  0  0  0  0  0
  187.8930  176.3360  146.9670 C   0  0  0  0  0  0  0  0  0  0  0  0
  187.7660  177.4870  142.7740 C   0  0  0  0  0  0  0  0  0  0  0  0
  185.3810  178.5370  141.7950 C   0  0  0  0  0  3  0  0  0  0  0  0
  188.0320  176.8960  145.6950 C   0  0  0  0  0  3  0  0  0  0  0  0
  188.8440  175.0340  141.6790 C   0  0  2  0  0  3  0  0  0  0  0  0
  185.4630  180.1620  143.5340 F   0  0  0  0  0  0  0  0  0  0  0  0
  190.3990  174.3990  144.0670 C   0  0  0  0  0  2  0  0  0  0  0  0
  187.0890  176.9560  147.9140 O   0  0  0  0  0  1  0  0  0  0  0  0
  187.8160  175.8070  140.8590 C   0  0  0  0  0  2  0  0  0  0  0  0
  189.7950  176.0140  142.3810 C   0  0  2  0  0  3  0  0  0  0  0  0
  187.1780  178.5650  143.3650 N   0  0  0  0  0  0  0  0  0  0  0  0
  188.5660  175.1560  147.2890 C   0  0  0  0  0  3  0  0  0  0  0  0
  187.1550  176.8990  141.6450 C   0  0  0  0  0  0  0  0  0  0  0  0
  185.9640  177.4420  141.1590 C   0  0  0  0  0  3  0  0  0  0  0  0
  190.9060  175.3270  143.0520 N   0  0  0  0  0  2  0  0  0  0  0  0
  189.5390  175.1020  145.0700 C   0  0  0  0  0  0  0  0  0  0  0  0
  189.3870  174.5410  146.3410 C   0  0  0  0  0  3  0  0  0  0  0  0
  187.9150  172.5360  140.6420 O   0  0  0  0  0  0  0  0  0  0  0  0
  189.0700  172.9140  140.3080 C   0  0  0  0  0  0  0  0  0  0  0  0
  189.5970  174.1490  140.8010 N   0  0  0  0  0  2  0  0  0  0  0  0
  192.4810  173.2470  138.7380 C   0  0  1  0  0  3  0  0  0  0  0  0
  191.1560  171.6070  140.0730 C   0  0  0  0  0  3  0  0  0  0  0  0
  188.9860  173.1980  137.4550 C   0  0  0  0  0  1  0  0  0  0  0  0
  193.3440  174.3810  139.2500 C   0  0  0  0  0  1  0  0  0  0  0  0
  192.3340  172.1900  139.8040 C   0  0  0  0  0  3  0  0  0  0  0  0
  190.1950  172.6820  138.0810 N   0  0  0  0  0  0  0  0  0  0  0  0
  189.8890  172.0490  139.3830 C   0  0  2  0  0  3  0  0  0  0  0  0
  191.1290  173.7910  138.2720 C   0  0  0  0  0  2  0  0  0  0  0  0
  1 14  1  0  0  0  0
  1  9  1  0  0  0  0
  2  5  1  6  0  0  0
  2  3  1  0  0  0  0
  3 19  2  0  0  0  0
  3  7  1  0  0  0  0
  4 15  1  0  0  0  0
  4 11  1  0  0  0  0
  5 14  2  0  0  0  0
  6  1  2  0  0  0  0
  7  4  2  0  0  0  0
  8 23  1  6  0  0  0
  8 13  1  0  0  0  0
 10 19  1  0  0  0  0
 12 16  1  0  0  0  0
 12  8  1  0  0  0  0
 13 18  1  1  0  0  0
 13  2  1  0  0  0  0
 16  5  1  0  0  0  0
 17 16  2  0  0  0  0
 17  6  1  0  0  0  0
 18 10  1  0  0  0  0
 19 20  1  0  0  0  0
 20 15  2  0  0  0  0
 22 21  2  0  0  0  0
 22 23  1  0  0  0  0
 24 27  1  1  0  0  0
 24 28  1  0  0  0  0
 26 29  1  0  0  0  0
 28 25  2  0  0  0  0
 29 31  1  0  0  0  0
 29 30  1  0  0  0  0
 30 25  1  0  0  0  0
 30 22  1  1  0  0  0
 31 24  1  0  0  0  0
M  END
>  <MODEL>
8

>  <REMARK>
 VINA RESULT:      -7.3      2.988      4.087
  Name = 
  2 active torsions:
  status: ('A' for Active; 'I' for Inactive)
    1  A    between atoms: C_5  and  C_30
    2  A    between atoms: C_10  and  N_16
                            x       y       z     vdW  Elec       q    Type
                         _______ _______ _______ _____ _____    ______ ____

>  <TORSDO>
F 2

$$$$
=
 OpenBabel11112417003D

 31 35  0  0  1  0  0  0  0  0999 V2000
  185.4390  178.9610  143.1050 C   0  0  0  0  0  0  0  0  0  0  0  0
  188.7480  177.3580  143.8490 C   0  0  2  0  0  3  0  0  0  0  0  0
  188.5140  176.6000  145.1440 C   0  0  0  0  0  0  0  0  0  0  0  0
  187.3380  176.3670  147.2620 C   0  0  0  0  0  0  0  0  0  0  0  0
  187.4650  177.7090  143.1270 C   0  0  0  0  0  0  0  0  0  0  0  0
  185.0500  178.3630  141.9070 C   0  0  0  0  0  3  0  0  0  0  0  0
  187.5110  177.0120  146.0360 C   0  0  0  0  0  3  0  0  0  0  0  0
  189.0970  175.5580  142.0840 C   0  0  2  0  0  3  0  0  0  0  0  0
  184.6340  179.8750  143.6980 F   0  0  0  0  0  0  0  0  0  0  0  0
  190.4680  175.0820  144.6160 C   0  0  0  0  0  2  0  0  0  0  0  0
  186.3320  176.7760  148.1270 O   0  0  0  0  0  1  0  0  0  0  0  0
  188.0410  176.1760  141.1740 C   0  0  0  0  0  2  0  0  0  0  0  0
  189.7650  176.6530  142.9280 C   0  0  2  0  0  3  0  0  0  0  0  0
  186.6250  178.6270  143.6800 N   0  0  0  0  0  0  0  0  0  0  0  0
  188.1800  175.3120  147.6210 C   0  0  0  0  0  3  0  0  0  0  0  0
  187.1040  177.0850  141.9120 C   0  0  0  0  0  0  0  0  0  0  0  0
  185.8940  177.4300  141.3070 C   0  0  0  0  0  3  0  0  0  0  0  0
  190.9020  176.1420  143.7030 N   0  0  0  0  0  2  0  0  0  0  0  0
  189.3860  175.5600  145.5340 C   0  0  0  0  0  0  0  0  0  0  0  0
  189.2010  174.9100  146.7570 C   0  0  0  0  0  3  0  0  0  0  0  0
  189.1690  172.7490  141.5530 O   0  0  0  0  0  0  0  0  0  0  0  0
  190.0690  173.4640  141.0360 C   0  0  0  0  0  0  0  0  0  0  0  0
  190.0950  174.8750  141.2720 N   0  0  0  0  0  2  0  0  0  0  0  0
  191.5230  169.9920  140.8300 C   0  0  1  0  0  3  0  0  0  0  0  0
  190.4980  171.7140  139.3430 C   0  0  0  0  0  3  0  0  0  0  0  0
  192.8340  173.3420  141.7890 C   0  0  0  0  0  1  0  0  0  0  0  0
  190.8170  168.9230  141.6380 C   0  0  0  0  0  1  0  0  0  0  0  0
  190.6510  170.4240  139.6760 C   0  0  0  0  0  3  0  0  0  0  0  0
  192.2900  172.3110  140.9150 N   0  0  0  0  0  0  0  0  0  0  0  0
  191.1180  172.8150  140.1680 C   0  0  2  0  0  3  0  0  0  0  0  0
  191.9050  171.1640  141.7360 C   0  0  0  0  0  2  0  0  0  0  0  0
  1 14  1  0  0  0  0
  1  9  1  0  0  0  0
  2  5  1  6  0  0  0
  2  3  1  0  0  0  0
  3 19  2  0  0  0  0
  3  7  1  0  0  0  0
  4 15  1  0  0  0  0
  4 11  1  0  0  0  0
  5 14  2  0  0  0  0
  6  1  2  0  0  0  0
  7  4  2  0  0  0  0
  8 23  1  6  0  0  0
  8 13  1  0  0  0  0
 10 19  1  0  0  0  0
 12 16  1  0  0  0  0
 12  8  1  0  0  0  0
 13 18  1  1  0  0  0
 13  2  1  0  0  0  0
 16  5  1  0  0  0  0
 17  6  1  0  0  0  0
 17 16  2  0  0  0  0
 18 10  1  0  0  0  0
 19 20  1  0  0  0  0
 20 15  2  0  0  0  0
 22 23  1  0  0  0  0
 22 21  2  0  0  0  0
 24 27  1  1  0  0  0
 24 31  1  0  0  0  0
 25 28  2  0  0  0  0
 25 30  1  0  0  0  0
 28 24  1  0  0  0  0
 29 31  1  0  0  0  0
 29 26  1  0  0  0  0
 30 29  1  0  0  0  0
 30 22  1  1  0  0  0
M  END
>  <MODEL>
9

>  <REMARK>
 VINA RESULT:      -7.3      2.372      3.793
  Name = 
  2 active torsions:
  status: ('A' for Active; 'I' for Inactive)
    1  A    between atoms: C_5  and  C_30
    2  A    between atoms: C_10  and  N_16
                            x       y       z     vdW  Elec       q    Type
                         _______ _______ _______ _____ _____    ______ ____

>  <TORSDO>
F 2

$$$$
