=
 OpenBabel11112417383D

 28 32  0  0  1  0  0  0  0  0999 V2000
  185.7390  177.0590  143.0120 C   0  0  0  0  0  0  0  0  0  0  0  0
  187.0130  173.8450  141.6730 O   0  0  0  0  0  0  0  0  0  0  0  0
  190.7000  177.3480  146.9010 O   0  0  0  0  0  0  0  0  0  0  0  0
  186.0070  178.1260  140.4370 C   0  0  0  0  0  3  0  0  0  0  0  0
  191.2050  176.9890  144.6340 N   0  0  0  0  0  0  0  0  0  0  0  0
  185.6020  176.5710  144.3080 O   0  0  0  0  0  0  0  0  0  0  0  0
  189.0100  173.5860  140.2580 O   0  0  0  0  0  0  0  0  0  0  0  0
  188.5130  173.9280  141.6340 S   0  0  0  0  0  0  0  0  0  0  0  0
  190.0370  173.3200  143.8230 C   0  0  0  0  0  0  0  0  0  0  0  0
  189.0630  175.5610  142.0690 C   0  0  2  0  0  3  0  0  0  0  0  0
  186.9610  177.4740  147.5490 O   0  0  0  0  0  1  0  0  0  0  0  0
  189.0220  177.3250  143.7260 C   0  0  2  0  0  3  0  0  0  0  0  0
  190.5180  174.5290  143.8250 N   0  0  0  0  0  0  0  0  0  0  0  0
  189.1920  172.8410  142.7800 N   0  0  0  0  0  2  0  0  0  0  0  0
  186.7480  176.6630  146.4350 C   0  0  2  0  0  3  0  0  0  0  0  0
  186.9690  176.9570  142.3380 C   0  0  0  0  0  0  0  0  0  0  0  0
  190.3170  177.2340  145.7070 C   0  0  0  0  0  0  0  0  0  0  0  0
  190.3330  172.4260  144.9720 C   0  0  0  0  0  1  0  0  0  0  0  0
  188.0890  176.2010  145.8620 C   0  0  0  0  0  2  0  0  0  0  0  0
  187.0990  177.5120  141.0550 C   0  0  0  0  0  3  0  0  0  0  0  0
  184.6470  177.6700  142.3840 C   0  0  0  0  0  3  0  0  0  0  0  0
  184.7800  178.2010  141.0990 C   0  0  0  0  0  3  0  0  0  0  0  0
  185.9020  177.4090  145.4120 C   0  0  0  0  0  2  0  0  0  0  0  0
  190.4770  176.9520  143.3790 C   0  0  2  0  0  3  0  0  0  0  0  0
  188.9070  177.3570  145.2750 C   0  0  2  0  0  3  0  0  0  0  0  0
  190.4170  175.5470  142.7640 C   0  0  2  0  0  3  0  0  0  0  0  0
  192.6500  176.8980  144.7510 C   0  0  0  0  0  1  0  0  0  0  0  0
  188.1350  176.2970  143.0210 C   0  0  1  0  0  3  0  0  0  0  0  0
  1  6  1  0  0  0  0
  4 20  2  0  0  0  0
  4 22  1  0  0  0  0
  5 27  1  0  0  0  0
  5 17  1  0  0  0  0
  6 23  1  0  0  0  0
  7  8  2  0  0  0  0
  8  2  2  0  0  0  0
  8 14  1  0  0  0  0
  9 13  2  0  0  0  0
  9 18  1  0  0  0  0
 10  8  1  1  0  0  0
 10 26  1  0  0  0  0
 10 28  1  0  0  0  0
 12 25  1  0  0  0  0
 14  9  1  0  0  0  0
 15 11  1  0  0  0  0
 16  1  2  0  0  0  0
 16 28  1  0  0  0  0
 17  3  2  0  0  0  0
 19 15  1  0  0  0  0
 20 16  1  0  0  0  0
 21  1  1  0  0  0  0
 22 21  2  0  0  0  0
 23 15  1  0  0  0  0
 24 12  1  0  0  0  0
 24  5  1  0  0  0  0
 25 17  1  0  0  0  0
 25 19  1  0  0  0  0
 26 24  1  0  0  0  0
 26 13  1  0  0  0  0
 28 12  1  0  0  0  0
M  END
>  <MODEL>
1

>  <REMARK>
 VINA RESULT:      -8.2      0.000      0.000
  Name = 
  0 active torsions:
  status: ('A' for Active; 'I' for Inactive)
                            x       y       z     vdW  Elec       q    Type
                         _______ _______ _______ _____ _____    ______ ____

>  <TORSDO>
F 0

$$$$
=
 OpenBabel11112417383D

 28 32  0  0  1  0  0  0  0  0999 V2000
  186.8210  178.1190  144.8000 C   0  0  0  0  0  0  0  0  0  0  0  0
  190.2790  178.0190  146.1340 O   0  0  0  0  0  0  0  0  0  0  0  0
  188.5780  174.2950  140.0980 O   0  0  0  0  0  0  0  0  0  0  0  0
  185.9640  176.9630  147.2020 C   0  0  0  0  0  3  0  0  0  0  0  0
  189.1180  173.5580  142.2630 N   0  0  0  0  0  0  0  0  0  0  0  0
  187.2060  178.6830  143.5880 O   0  0  0  0  0  0  0  0  0  0  0  0
  191.3360  176.0670  147.1970 O   0  0  0  0  0  0  0  0  0  0  0  0
  190.8170  176.6350  145.9060 S   0  0  0  0  0  0  0  0  0  0  0  0
  191.9900  175.9280  143.5370 C   0  0  0  0  0  0  0  0  0  0  0  0
  189.5510  175.5670  145.2610 C   0  0  2  0  0  3  0  0  0  0  0  0
  186.9300  177.7150  140.1010 O   0  0  0  0  0  1  0  0  0  0  0  0
  187.9210  175.2060  143.5090 C   0  0  2  0  0  3  0  0  0  0  0  0
  191.0840  175.0110  143.3610 N   0  0  0  0  0  0  0  0  0  0  0  0
  192.0830  176.6810  144.7440 N   0  0  0  0  0  2  0  0  0  0  0  0
  187.5860  178.0220  141.2930 C   0  0  2  0  0  3  0  0  0  0  0  0
  187.4190  176.9310  145.2560 C   0  0  0  0  0  0  0  0  0  0  0  0
  188.5290  174.4580  141.3460 C   0  0  0  0  0  0  0  0  0  0  0  0
  192.9230  176.2410  142.4250 C   0  0  0  0  0  1  0  0  0  0  0  0
  188.5580  176.8990  141.6570 C   0  0  0  0  0  2  0  0  0  0  0  0
  186.9700  176.3490  146.4520 C   0  0  0  0  0  3  0  0  0  0  0  0
  185.8180  178.7330  145.5600 C   0  0  0  0  0  3  0  0  0  0  0  0
  185.3920  178.1570  146.7590 C   0  0  0  0  0  3  0  0  0  0  0  0
  186.5620  178.2860  142.3880 C   0  0  0  0  0  2  0  0  0  0  0  0
  188.8570  173.9880  143.6250 C   0  0  2  0  0  3  0  0  0  0  0  0
  187.8400  175.5900  142.0050 C   0  0  2  0  0  3  0  0  0  0  0  0
  190.1160  174.4910  144.3450 C   0  0  2  0  0  3  0  0  0  0  0  0
  189.7930  172.3220  141.9050 C   0  0  0  0  0  1  0  0  0  0  0  0
  188.4970  176.2810  144.4320 C   0  0  1  0  0  3  0  0  0  0  0  0
  1 16  2  0  0  0  0
  1 21  1  0  0  0  0
  3 17  2  0  0  0  0
  5 24  1  0  0  0  0
  6  1  1  0  0  0  0
  8  2  2  0  0  0  0
  8  7  2  0  0  0  0
  9 14  1  0  0  0  0
 10  8  1  6  0  0  0
 11 15  1  0  0  0  0
 12 24  1  0  0  0  0
 12 28  1  0  0  0  0
 13  9  2  0  0  0  0
 13 26  1  0  0  0  0
 14  8  1  0  0  0  0
 15 19  1  0  0  0  0
 15 23  1  0  0  0  0
 16 20  1  0  0  0  0
 17 25  1  0  0  0  0
 17  5  1  0  0  0  0
 18  9  1  0  0  0  0
 19 25  1  0  0  0  0
 20  4  2  0  0  0  0
 21 22  2  0  0  0  0
 22  4  1  0  0  0  0
 23  6  1  0  0  0  0
 24 26  1  0  0  0  0
 25 12  1  0  0  0  0
 26 10  1  0  0  0  0
 27  5  1  0  0  0  0
 28 16  1  0  0  0  0
 28 10  1  0  0  0  0
M  END
>  <MODEL>
2

>  <REMARK>
 VINA RESULT:      -7.9      1.963      4.854
  Name = 
  0 active torsions:
  status: ('A' for Active; 'I' for Inactive)
                            x       y       z     vdW  Elec       q    Type
                         _______ _______ _______ _____ _____    ______ ____

>  <TORSDO>
F 0

$$$$
=
 OpenBabel11112417383D

 28 32  0  0  1  0  0  0  0  0999 V2000
  188.4680  176.8510  144.6860 C   0  0  0  0  0  0  0  0  0  0  0  0
  188.8180  173.6840  142.7910 O   0  0  0  0  0  0  0  0  0  0  0  0
  194.5360  176.4540  146.3720 O   0  0  0  0  0  0  0  0  0  0  0  0
  187.8420  178.1160  142.2680 C   0  0  0  0  0  3  0  0  0  0  0  0
  194.1060  176.2590  144.0700 N   0  0  0  0  0  0  0  0  0  0  0  0
  188.7860  176.2630  145.9070 O   0  0  0  0  0  0  0  0  0  0  0  0
  190.0920  173.4100  140.7040 O   0  0  0  0  0  0  0  0  0  0  0  0
  190.1910  173.6650  142.1810 S   0  0  0  0  0  0  0  0  0  0  0  0
  192.3650  172.7640  143.5770 C   0  0  0  0  0  0  0  0  0  0  0  0
  191.0210  175.2120  142.4560 C   0  0  2  0  0  3  0  0  0  0  0  0
  191.3540  176.7840  148.4170 O   0  0  0  0  0  1  0  0  0  0  0  0
  191.7850  176.8240  144.0930 C   0  0  2  0  0  3  0  0  0  0  0  0
  192.9260  173.9320  143.4590 N   0  0  0  0  0  0  0  0  0  0  0  0
  191.1440  172.4380  142.9170 N   0  0  0  0  0  2  0  0  0  0  0  0
  190.6560  176.0900  147.4290 C   0  0  2  0  0  3  0  0  0  0  0  0
  189.3340  176.7220  143.5860 C   0  0  0  0  0  0  0  0  0  0  0  0
  193.7200  176.4710  145.4130 C   0  0  0  0  0  0  0  0  0  0  0  0
  192.9850  171.7560  144.4740 C   0  0  0  0  0  1  0  0  0  0  0  0
  191.6270  175.5860  146.3600 C   0  0  0  0  0  2  0  0  0  0  0  0
  189.0210  177.3760  142.3840 C   0  0  0  0  0  3  0  0  0  0  0  0
  187.2840  177.5880  144.5620 C   0  0  0  0  0  3  0  0  0  0  0  0
  186.9710  178.2180  143.3550 C   0  0  0  0  0  3  0  0  0  0  0  0
  189.5630  176.9790  146.8530 C   0  0  0  0  0  2  0  0  0  0  0  0
  192.9550  176.3820  143.1920 C   0  0  2  0  0  3  0  0  0  0  0  0
  192.2700  176.7290  145.5660 C   0  0  2  0  0  3  0  0  0  0  0  0
  192.5300  175.0430  142.5740 C   0  0  2  0  0  3  0  0  0  0  0  0
  195.4710  176.0570  143.6150 C   0  0  0  0  0  1  0  0  0  0  0  0
  190.6010  175.9250  143.7300 C   0  0  1  0  0  3  0  0  0  0  0  0
  1  6  1  0  0  0  0
  4 20  2  0  0  0  0
  4 22  1  0  0  0  0
  5 17  1  0  0  0  0
  6 23  1  0  0  0  0
  7  8  2  0  0  0  0
  8  2  2  0  0  0  0
  8 14  1  0  0  0  0
  9 18  1  0  0  0  0
 10  8  1  1  0  0  0
 10 26  1  0  0  0  0
 10 28  1  0  0  0  0
 12 25  1  0  0  0  0
 13  9  2  0  0  0  0
 14  9  1  0  0  0  0
 15 11  1  0  0  0  0
 16 28  1  0  0  0  0
 16  1  2  0  0  0  0
 17 25  1  0  0  0  0
 17  3  2  0  0  0  0
 19 15  1  0  0  0  0
 20 16  1  0  0  0  0
 21  1  1  0  0  0  0
 22 21  2  0  0  0  0
 23 15  1  0  0  0  0
 24  5  1  0  0  0  0
 24 12  1  0  0  0  0
 25 19  1  0  0  0  0
 26 24  1  0  0  0  0
 26 13  1  0  0  0  0
 27  5  1  0  0  0  0
 28 12  1  0  0  0  0
M  END
>  <MODEL>
3

>  <REMARK>
 VINA RESULT:      -7.9      2.021      3.000
  Name = 
  0 active torsions:
  status: ('A' for Active; 'I' for Inactive)
                            x       y       z     vdW  Elec       q    Type
                         _______ _______ _______ _____ _____    ______ ____

>  <TORSDO>
F 0

$$$$
=
 OpenBabel11112417383D

 28 32  0  0  1  0  0  0  0  0999 V2000
  192.2700  173.9410  145.1240 C   0  0  0  0  0  0  0  0  0  0  0  0
  190.2980  175.7510  147.6900 O   0  0  0  0  0  0  0  0  0  0  0  0
  188.0070  175.5750  140.7680 O   0  0  0  0  0  0  0  0  0  0  0  0
  194.3820  175.7050  145.6420 C   0  0  0  0  0  3  0  0  0  0  0  0
  188.8630  177.3380  142.0640 N   0  0  0  0  0  0  0  0  0  0  0  0
  191.2410  173.0520  144.8290 O   0  0  0  0  0  0  0  0  0  0  0  0
  190.0670  178.1970  147.8400 O   0  0  0  0  0  0  0  0  0  0  0  0
  189.7160  176.9750  147.0400 S   0  0  0  0  0  0  0  0  0  0  0  0
  187.3510  176.8780  145.6680 C   0  0  0  0  0  0  0  0  0  0  0  0
  190.3330  177.1600  145.3840 C   0  0  2  0  0  3  0  0  0  0  0  0
  189.3640  172.1960  141.8430 O   0  0  0  0  0  1  0  0  0  0  0  0
  190.5850  176.1390  143.2030 C   0  0  2  0  0  3  0  0  0  0  0  0
  187.9620  177.2650  144.5870 N   0  0  0  0  0  0  0  0  0  0  0  0
  188.0070  176.8260  146.9330 N   0  0  0  0  0  2  0  0  0  0  0  0
  189.5560  172.6920  143.1320 C   0  0  2  0  0  3  0  0  0  0  0  0
  192.0510  175.3290  145.0670 C   0  0  0  0  0  0  0  0  0  0  0  0
  188.7950  175.9850  141.6600 C   0  0  0  0  0  0  0  0  0  0  0  0
  185.9410  176.4210  145.5740 C   0  0  0  0  0  1  0  0  0  0  0  0
  188.9840  174.1060  143.2380 C   0  0  0  0  0  2  0  0  0  0  0  0
  193.1210  176.2050  145.3090 C   0  0  0  0  0  3  0  0  0  0  0  0
  193.5340  173.4460  145.4650 C   0  0  0  0  0  3  0  0  0  0  0  0
  194.5870  174.3260  145.7250 C   0  0  0  0  0  3  0  0  0  0  0  0
  191.0350  172.6320  143.4890 C   0  0  0  0  0  2  0  0  0  0  0  0
  189.8920  177.5090  143.0740 C   0  0  2  0  0  3  0  0  0  0  0  0
  189.7530  175.1170  142.3800 C   0  0  2  0  0  3  0  0  0  0  0  0
  189.3200  177.8260  144.4630 C   0  0  2  0  0  3  0  0  0  0  0  0
  188.0940  178.4240  141.4790 C   0  0  0  0  0  1  0  0  0  0  0  0
  190.6880  175.8490  144.7020 C   0  0  1  0  0  3  0  0  0  0  0  0
  1 21  1  0  0  0  0
  3 17  2  0  0  0  0
  4 22  1  0  0  0  0
  5 24  1  0  0  0  0
  6  1  1  0  0  0  0
  8  2  2  0  0  0  0
  8  7  2  0  0  0  0
  9 14  1  0  0  0  0
 10  8  1  1  0  0  0
 11 15  1  0  0  0  0
 12 28  1  0  0  0  0
 13  9  2  0  0  0  0
 14  8  1  0  0  0  0
 15 19  1  0  0  0  0
 15 23  1  0  0  0  0
 16  1  2  0  0  0  0
 16 20  1  0  0  0  0
 17  5  1  0  0  0  0
 17 25  1  0  0  0  0
 18  9  1  0  0  0  0
 20  4  2  0  0  0  0
 21 22  2  0  0  0  0
 23  6  1  0  0  0  0
 24 12  1  0  0  0  0
 24 26  1  0  0  0  0
 25 12  1  0  0  0  0
 25 19  1  0  0  0  0
 26 13  1  0  0  0  0
 26 10  1  0  0  0  0
 27  5  1  0  0  0  0
 28 16  1  0  0  0  0
 28 10  1  0  0  0  0
M  END
>  <MODEL>
4

>  <REMARK>
 VINA RESULT:      -7.8      2.558      6.399
  Name = 
  0 active torsions:
  status: ('A' for Active; 'I' for Inactive)
                            x       y       z     vdW  Elec       q    Type
                         _______ _______ _______ _____ _____    ______ ____

>  <TORSDO>
F 0

$$$$
=
 OpenBabel11112417383D

 28 32  0  0  1  0  0  0  0  0999 V2000
  186.5310  177.1600  146.1760 C   0  0  0  0  0  0  0  0  0  0  0  0
  185.9320  175.8430  142.7630 O   0  0  0  0  0  0  0  0  0  0  0  0
  192.7110  176.1150  145.4400 O   0  0  0  0  0  0  0  0  0  0  0  0
  185.4860  179.6100  145.3090 C   0  0  0  0  0  3  0  0  0  0  0  0
  191.6780  177.3510  143.7290 N   0  0  0  0  0  0  0  0  0  0  0  0
  187.0670  175.9640  146.6430 O   0  0  0  0  0  0  0  0  0  0  0  0
  186.5730  176.9700  140.6710 O   0  0  0  0  0  0  0  0  0  0  0  0
  187.0840  176.2700  141.8990 S   0  0  0  0  0  0  0  0  0  0  0  0
  189.3960  174.8110  141.7720 C   0  0  0  0  0  0  0  0  0  0  0  0
  188.1660  177.3620  142.7900 C   0  0  2  0  0  3  0  0  0  0  0  0
  190.2430  174.9630  148.0860 O   0  0  0  0  0  1  0  0  0  0  0  0
  189.5450  177.6670  144.7560 C   0  0  2  0  0  3  0  0  0  0  0  0
  190.0650  175.8330  142.2210 N   0  0  0  0  0  0  0  0  0  0  0  0
  188.0130  174.8990  141.4370 N   0  0  0  0  0  2  0  0  0  0  0  0
  189.2230  174.9870  147.1350 C   0  0  2  0  0  3  0  0  0  0  0  0
  187.0570  177.7760  145.0270 C   0  0  0  0  0  0  0  0  0  0  0  0
  191.6850  176.6750  144.9710 C   0  0  0  0  0  0  0  0  0  0  0  0
  190.0780  173.4970  141.6580 C   0  0  0  0  0  1  0  0  0  0  0  0
  189.8050  175.2930  145.7540 C   0  0  0  0  0  2  0  0  0  0  0  0
  186.5400  179.0130  144.6110 C   0  0  0  0  0  3  0  0  0  0  0  0
  185.4710  177.7600  146.8680 C   0  0  0  0  0  3  0  0  0  0  0  0
  184.9490  178.9800  146.4340 C   0  0  0  0  0  3  0  0  0  0  0  0
  188.1550  175.9870  147.5540 C   0  0  0  0  0  2  0  0  0  0  0  0
  190.3690  177.9290  143.4800 C   0  0  2  0  0  3  0  0  0  0  0  0
  190.3760  176.7130  145.6590 C   0  0  2  0  0  3  0  0  0  0  0  0
  189.6150  177.2320  142.3400 C   0  0  2  0  0  3  0  0  0  0  0  0
  192.8370  177.5380  142.8730 C   0  0  0  0  0  1  0  0  0  0  0  0
  188.1940  177.1230  144.2900 C   0  0  1  0  0  3  0  0  0  0  0  0
  1  6  1  0  0  0  0
  1 21  1  0  0  0  0
  4 22  1  0  0  0  0
  5 17  1  0  0  0  0
  6 23  1  0  0  0  0
  7  8  2  0  0  0  0
  8  2  2  0  0  0  0
  9 13  2  0  0  0  0
 10  8  1  6  0  0  0
 10 28  1  0  0  0  0
 12 25  1  0  0  0  0
 13 26  1  0  0  0  0
 14  9  1  0  0  0  0
 14  8  1  0  0  0  0
 15 23  1  0  0  0  0
 15 11  1  0  0  0  0
 16  1  2  0  0  0  0
 17  3  2  0  0  0  0
 17 25  1  0  0  0  0
 18  9  1  0  0  0  0
 19 15  1  0  0  0  0
 20 16  1  0  0  0  0
 20  4  2  0  0  0  0
 22 21  2  0  0  0  0
 24  5  1  0  0  0  0
 24 12  1  0  0  0  0
 25 19  1  0  0  0  0
 26 10  1  0  0  0  0
 26 24  1  0  0  0  0
 27  5  1  0  0  0  0
 28 12  1  0  0  0  0
 28 16  1  0  0  0  0
M  END
>  <MODEL>
5

>  <REMARK>
 VINA RESULT:      -7.7      2.179      3.010
  Name = 
  0 active torsions:
  status: ('A' for Active; 'I' for Inactive)
                            x       y       z     vdW  Elec       q    Type
                         _______ _______ _______ _____ _____    ______ ____

>  <TORSDO>
F 0

$$$$
=
 OpenBabel11112417383D

 28 32  0  0  1  0  0  0  0  0999 V2000
  188.2090  176.1120  144.0970 C   0  0  0  0  0  0  0  0  0  0  0  0
  191.6460  177.3730  144.6860 O   0  0  0  0  0  0  0  0  0  0  0  0
  190.6220  170.9330  141.4190 O   0  0  0  0  0  0  0  0  0  0  0  0
  187.8350  176.1210  146.8720 C   0  0  0  0  0  3  0  0  0  0  0  0
  191.4680  171.4650  143.5460 N   0  0  0  0  0  0  0  0  0  0  0  0
  188.3580  176.0820  142.7140 O   0  0  0  0  0  0  0  0  0  0  0  0
  193.2420  176.4410  146.3110 O   0  0  0  0  0  0  0  0  0  0  0  0
  192.5150  176.1930  145.0200 S   0  0  0  0  0  0  0  0  0  0  0  0
  193.6870  174.6800  143.0650 C   0  0  0  0  0  0  0  0  0  0  0  0
  191.5380  174.7160  145.1700 C   0  0  2  0  0  3  0  0  0  0  0  0
  188.1360  173.5120  140.1620 O   0  0  0  0  0  1  0  0  0  0  0  0
  189.9570  173.2300  144.0980 C   0  0  2  0  0  3  0  0  0  0  0  0
  193.0440  173.6320  143.4900 N   0  0  0  0  0  0  0  0  0  0  0  0
  193.6510  175.9250  143.7580 N   0  0  0  0  0  2  0  0  0  0  0  0
  188.7580  174.4830  140.9450 C   0  0  2  0  0  3  0  0  0  0  0  0
  189.1260  175.4430  144.9270 C   0  0  0  0  0  0  0  0  0  0  0  0
  190.6080  171.6670  142.4420 C   0  0  0  0  0  0  0  0  0  0  0  0
  194.4350  174.5950  141.7840 C   0  0  0  0  0  1  0  0  0  0  0  0
  190.0120  173.9010  141.5990 C   0  0  0  0  0  2  0  0  0  0  0  0
  188.9190  175.4370  146.3160 C   0  0  0  0  0  3  0  0  0  0  0  0
  187.1290  176.8010  144.6610 C   0  0  0  0  0  3  0  0  0  0  0  0
  186.9430  176.8060  146.0450 C   0  0  0  0  0  3  0  0  0  0  0  0
  187.7690  175.0320  141.9640 C   0  0  0  0  0  2  0  0  0  0  0  0
  191.1860  172.4390  144.5850 C   0  0  2  0  0  3  0  0  0  0  0  0
  189.6870  172.8110  142.6260 C   0  0  2  0  0  3  0  0  0  0  0  0
  192.3100  173.4700  144.7590 C   0  0  2  0  0  3  0  0  0  0  0  0
  192.4210  170.3760  143.6740 C   0  0  0  0  0  1  0  0  0  0  0  0
  190.2850  174.7090  144.3110 C   0  0  1  0  0  3  0  0  0  0  0  0
  1 21  2  0  0  0  0
  1 16  1  0  0  0  0
  2  8  2  0  0  0  0
  3 17  2  0  0  0  0
  5 27  1  0  0  0  0
  5 24  1  0  0  0  0
  6  1  1  0  0  0  0
  8  7  2  0  0  0  0
  9 13  2  0  0  0  0
  9 14  1  0  0  0  0
 10  8  1  6  0  0  0
 11 15  1  0  0  0  0
 12 28  1  0  0  0  0
 12 24  1  0  0  0  0
 13 26  1  0  0  0  0
 14  8  1  0  0  0  0
 15 19  1  0  0  0  0
 15 23  1  0  0  0  0
 16 20  2  0  0  0  0
 17 25  1  0  0  0  0
 17  5  1  0  0  0  0
 18  9  1  0  0  0  0
 19 25  1  0  0  0  0
 20  4  1  0  0  0  0
 21 22  1  0  0  0  0
 22  4  2  0  0  0  0
 23  6  1  0  0  0  0
 24 26  1  0  0  0  0
 25 12  1  0  0  0  0
 26 10  1  0  0  0  0
 28 16  1  0  0  0  0
 28 10  1  0  0  0  0
M  END
>  <MODEL>
6

>  <REMARK>
 VINA RESULT:      -7.6      2.674      5.463
  Name = 
  0 active torsions:
  status: ('A' for Active; 'I' for Inactive)
                            x       y       z     vdW  Elec       q    Type
                         _______ _______ _______ _____ _____    ______ ____

>  <TORSDO>
F 0

$$$$
=
 OpenBabel11112417383D

 28 32  0  0  1  0  0  0  0  0999 V2000
  192.7870  174.1510  141.9410 C   0  0  0  0  0  0  0  0  0  0  0  0
  193.4040  174.5770  145.5720 O   0  0  0  0  0  0  0  0  0  0  0  0
  186.7320  175.6810  142.8410 O   0  0  0  0  0  0  0  0  0  0  0  0
  194.6250  176.2140  141.4860 C   0  0  0  0  0  3  0  0  0  0  0  0
  188.3030  177.1870  143.7280 N   0  0  0  0  0  0  0  0  0  0  0  0
  191.8590  173.1300  142.1250 O   0  0  0  0  0  0  0  0  0  0  0  0
  193.4110  176.7280  146.7700 O   0  0  0  0  0  0  0  0  0  0  0  0
  192.5570  175.7240  146.0480 S   0  0  0  0  0  0  0  0  0  0  0  0
  189.9510  175.3620  146.8000 C   0  0  0  0  0  0  0  0  0  0  0  0
  191.7460  176.5160  144.6800 C   0  0  2  0  0  3  0  0  0  0  0  0
  188.3700  172.6440  141.2580 O   0  0  0  0  0  1  0  0  0  0  0  0
  190.2780  176.2410  142.7750 C   0  0  2  0  0  3  0  0  0  0  0  0
  189.5670  176.1820  145.8660 N   0  0  0  0  0  0  0  0  0  0  0  0
  191.3270  175.1470  147.1030 N   0  0  0  0  0  2  0  0  0  0  0  0
  189.4640  172.8000  142.1080 C   0  0  2  0  0  3  0  0  0  0  0  0
  192.6260  175.3860  142.5940 C   0  0  0  0  0  0  0  0  0  0  0  0
  187.9300  176.0310  143.0040 C   0  0  0  0  0  0  0  0  0  0  0  0
  188.9260  174.5800  147.5380 C   0  0  0  0  0  1  0  0  0  0  0  0
  189.1880  173.9180  143.1140 C   0  0  0  0  0  2  0  0  0  0  0  0
  193.5420  176.4210  142.3440 C   0  0  0  0  0  3  0  0  0  0  0  0
  193.8780  173.9480  141.0880 C   0  0  0  0  0  3  0  0  0  0  0  0
  194.7950  174.9760  140.8610 C   0  0  0  0  0  3  0  0  0  0  0  0
  190.7200  173.0530  141.2840 C   0  0  0  0  0  2  0  0  0  0  0  0
  189.7460  177.3500  143.7040 C   0  0  2  0  0  3  0  0  0  0  0  0
  189.0890  175.2960  142.4490 C   0  0  2  0  0  3  0  0  0  0  0  0
  190.3980  177.1050  145.0710 C   0  0  2  0  0  3  0  0  0  0  0  0
  187.3760  178.1370  144.3180 C   0  0  0  0  0  1  0  0  0  0  0  0
  191.4520  175.5920  143.5110 C   0  0  1  0  0  3  0  0  0  0  0  0
  1  6  1  0  0  0  0
  1 16  1  0  0  0  0
  2  8  2  0  0  0  0
  3 17  2  0  0  0  0
  4 20  1  0  0  0  0
  5 27  1  0  0  0  0
  8  7  2  0  0  0  0
  8 14  1  0  0  0  0
  9 14  1  0  0  0  0
  9 18  1  0  0  0  0
 10 26  1  0  0  0  0
 10  8  1  1  0  0  0
 11 15  1  0  0  0  0
 12 28  1  0  0  0  0
 12 24  1  0  0  0  0
 13  9  2  0  0  0  0
 15 19  1  0  0  0  0
 16 28  1  0  0  0  0
 17  5  1  0  0  0  0
 20 16  2  0  0  0  0
 21  1  2  0  0  0  0
 22 21  1  0  0  0  0
 22  4  2  0  0  0  0
 23 15  1  0  0  0  0
 23  6  1  0  0  0  0
 24  5  1  0  0  0  0
 24 26  1  0  0  0  0
 25 12  1  0  0  0  0
 25 17  1  0  0  0  0
 25 19  1  0  0  0  0
 26 13  1  0  0  0  0
 28 10  1  0  0  0  0
M  END
>  <MODEL>
7

>  <REMARK>
 VINA RESULT:      -7.1      2.753      6.074
  Name = 
  0 active torsions:
  status: ('A' for Active; 'I' for Inactive)
                            x       y       z     vdW  Elec       q    Type
                         _______ _______ _______ _____ _____    ______ ____

>  <TORSDO>
F 0

$$$$
=
 OpenBabel11112417383D

 28 32  0  0  1  0  0  0  0  0999 V2000
  189.7200  175.8480  146.0550 C   0  0  0  0  0  0  0  0  0  0  0  0
  189.5490  172.3240  144.9150 O   0  0  0  0  0  0  0  0  0  0  0  0
  195.4280  176.3720  143.4150 O   0  0  0  0  0  0  0  0  0  0  0  0
  187.4710  176.3680  144.4690 C   0  0  0  0  0  3  0  0  0  0  0  0
  193.7340  175.5360  142.0170 N   0  0  0  0  0  0  0  0  0  0  0  0
  190.8450  175.6340  146.8460 O   0  0  0  0  0  0  0  0  0  0  0  0
  189.2930  171.5970  142.5780 O   0  0  0  0  0  0  0  0  0  0  0  0
  190.2150  172.2450  143.5700 S   0  0  0  0  0  0  0  0  0  0  0  0
  192.9210  171.9160  143.3320 C   0  0  0  0  0  0  0  0  0  0  0  0
  190.6560  173.8670  142.9920 C   0  0  2  0  0  3  0  0  0  0  0  0
  194.2060  176.9980  146.9550 O   0  0  0  0  0  1  0  0  0  0  0  0
  191.8670  175.9100  143.4570 C   0  0  2  0  0  3  0  0  0  0  0  0
  193.0030  173.0480  142.6960 N   0  0  0  0  0  0  0  0  0  0  0  0
  191.6700  171.3350  143.6880 N   0  0  0  0  0  2  0  0  0  0  0  0
  193.2320  176.0150  146.7850 C   0  0  2  0  0  3  0  0  0  0  0  0
  189.7280  175.4940  144.6940 C   0  0  0  0  0  0  0  0  0  0  0  0
  194.2190  176.0700  143.2330 C   0  0  0  0  0  0  0  0  0  0  0  0
  194.1730  171.2340  143.7510 C   0  0  0  0  0  1  0  0  0  0  0  0
  193.4240  175.3180  145.4370 C   0  0  0  0  0  2  0  0  0  0  0  0
  188.6030  175.7760  143.9030 C   0  0  0  0  0  3  0  0  0  0  0  0
  188.5810  176.4340  146.6180 C   0  0  0  0  0  3  0  0  0  0  0  0
  187.4590  176.6920  145.8280 C   0  0  0  0  0  3  0  0  0  0  0  0
  191.8480  176.6330  146.9300 C   0  0  0  0  0  2  0  0  0  0  0  0
  192.2990  175.3320  142.0960 C   0  0  2  0  0  3  0  0  0  0  0  0
  193.1590  176.2510  144.2500 C   0  0  2  0  0  3  0  0  0  0  0  0
  191.9060  173.8490  142.1230 C   0  0  2  0  0  3  0  0  0  0  0  0
  194.5320  175.3220  140.8220 C   0  0  0  0  0  1  0  0  0  0  0  0
  190.9570  174.8620  144.1000 C   0  0  1  0  0  3  0  0  0  0  0  0
  1 21  1  0  0  0  0
  1  6  1  0  0  0  0
  4 22  1  0  0  0  0
  5 24  1  0  0  0  0
  5 17  1  0  0  0  0
  6 23  1  0  0  0  0
  7  8  2  0  0  0  0
  8 14  1  0  0  0  0
  8  2  2  0  0  0  0
  9 14  1  0  0  0  0
  9 18  1  0  0  0  0
 10  8  1  1  0  0  0
 10 28  1  0  0  0  0
 12 28  1  0  0  0  0
 12 25  1  0  0  0  0
 13  9  2  0  0  0  0
 15 23  1  0  0  0  0
 15 11  1  0  0  0  0
 16  1  2  0  0  0  0
 17  3  2  0  0  0  0
 17 25  1  0  0  0  0
 19 15  1  0  0  0  0
 20  4  2  0  0  0  0
 20 16  1  0  0  0  0
 22 21  2  0  0  0  0
 24 26  1  0  0  0  0
 24 12  1  0  0  0  0
 25 19  1  0  0  0  0
 26 13  1  0  0  0  0
 26 10  1  0  0  0  0
 27  5  1  0  0  0  0
 28 16  1  0  0  0  0
M  END
>  <MODEL>
8

>  <REMARK>
 VINA RESULT:      -7.1      2.883      4.563
  Name = 
  0 active torsions:
  status: ('A' for Active; 'I' for Inactive)
                            x       y       z     vdW  Elec       q    Type
                         _______ _______ _______ _____ _____    ______ ____

>  <TORSDO>
F 0

$$$$
=
 OpenBabel11112417383D

 28 32  0  0  1  0  0  0  0  0999 V2000
  194.5200  173.4200  144.6250 C   0  0  0  0  0  0  0  0  0  0  0  0
  192.3580  173.6830  141.6250 O   0  0  0  0  0  0  0  0  0  0  0  0
  190.6160  177.2960  147.7170 O   0  0  0  0  0  0  0  0  0  0  0  0
  193.9690  170.6750  144.6620 C   0  0  0  0  0  3  0  0  0  0  0  0
  189.6020  175.4500  146.6760 N   0  0  0  0  0  0  0  0  0  0  0  0
  194.8090  174.7810  144.6500 O   0  0  0  0  0  0  0  0  0  0  0  0
  190.1080  172.7100  141.4040 O   0  0  0  0  0  0  0  0  0  0  0  0
  190.9320  173.7600  142.0940 S   0  0  0  0  0  0  0  0  0  0  0  0
  189.7860  176.1410  142.8060 C   0  0  0  0  0  0  0  0  0  0  0  0
  190.8360  173.5220  143.8520 C   0  0  2  0  0  3  0  0  0  0  0  0
  194.3510  177.4620  147.0510 O   0  0  0  0  0  1  0  0  0  0  0  0
  191.5780  174.2750  146.0300 C   0  0  2  0  0  3  0  0  0  0  0  0
  189.5810  175.6830  144.0060 N   0  0  0  0  0  0  0  0  0  0  0  0
  190.2860  175.3170  141.7550 N   0  0  0  0  0  2  0  0  0  0  0  0
  194.1600  176.7750  145.8530 C   0  0  2  0  0  3  0  0  0  0  0  0
  193.1860  172.9750  144.6160 C   0  0  0  0  0  0  0  0  0  0  0  0
  190.7180  176.2290  147.0570 C   0  0  0  0  0  0  0  0  0  0  0  0
  189.5480  177.5810  142.5340 C   0  0  0  0  0  1  0  0  0  0  0  0
  192.6660  176.5830  145.5930 C   0  0  0  0  0  2  0  0  0  0  0  0
  192.9200  171.5970  144.6530 C   0  0  0  0  0  3  0  0  0  0  0  0
  195.5670  172.4900  144.6270 C   0  0  0  0  0  3  0  0  0  0  0  0
  195.2920  171.1210  144.6440 C   0  0  0  0  0  3  0  0  0  0  0  0
  194.9200  175.4560  145.8920 C   0  0  0  0  0  2  0  0  0  0  0  0
  190.0380  174.2610  145.9660 C   0  0  2  0  0  3  0  0  0  0  0  0
  192.0070  175.6490  146.6160 C   0  0  2  0  0  3  0  0  0  0  0  0
  189.6770  174.2880  144.4750 C   0  0  2  0  0  3  0  0  0  0  0  0
  188.2230  175.7350  147.0350 C   0  0  0  0  0  1  0  0  0  0  0  0
  192.0690  173.9830  144.6110 C   0  0  1  0  0  3  0  0  0  0  0  0
  1 21  1  0  0  0  0
  1  6  1  0  0  0  0
  2  8  2  0  0  0  0
  5 27  1  0  0  0  0
  5 17  1  0  0  0  0
  6 23  1  0  0  0  0
  7  8  2  0  0  0  0
  9 13  2  0  0  0  0
 10  8  1  6  0  0  0
 10 26  1  0  0  0  0
 10 28  1  0  0  0  0
 12 25  1  0  0  0  0
 13 26  1  0  0  0  0
 14  8  1  0  0  0  0
 14  9  1  0  0  0  0
 15 23  1  0  0  0  0
 15 11  1  0  0  0  0
 16  1  2  0  0  0  0
 16 20  1  0  0  0  0
 17  3  2  0  0  0  0
 18  9  1  0  0  0  0
 19 15  1  0  0  0  0
 19 25  1  0  0  0  0
 20  4  2  0  0  0  0
 21 22  2  0  0  0  0
 22  4  1  0  0  0  0
 24 12  1  0  0  0  0
 24  5  1  0  0  0  0
 25 17  1  0  0  0  0
 26 24  1  0  0  0  0
 28 16  1  0  0  0  0
 28 12  1  0  0  0  0
M  END
>  <MODEL>
9

>  <REMARK>
 VINA RESULT:      -6.8      2.845      6.597
  Name = 
  0 active torsions:
  status: ('A' for Active; 'I' for Inactive)
                            x       y       z     vdW  Elec       q    Type
                         _______ _______ _______ _____ _____    ______ ____

>  <TORSDO>
F 0

$$$$
