=
 OpenBabel11112416363D

 32 38  0  0  1  0  0  0  0  0999 V2000
  192.5420  175.1530  144.2830 C   0  0  1  0  0  3  0  0  0  0  0  0
  187.6750  176.8760  143.6210 C   0  0  0  0  0  0  0  0  0  0  0  0
  186.4750  178.6910  148.0840 C   0  0  0  0  0  2  0  0  0  0  0  0
  185.0170  178.4380  147.7520 C   0  0  0  0  0  2  0  0  0  0  0  0
  186.0620  177.1640  141.6560 C   0  0  0  0  0  0  0  0  0  0  0  0
  184.7440  177.6470  141.2560 C   0  0  0  0  0  0  0  0  0  0  0  0
  190.1110  176.4040  143.2730 C   0  0  1  0  0  3  0  0  0  0  0  0
  189.2250  176.5870  145.5250 N   0  0  0  0  0  2  0  0  0  0  0  0
  182.7000  178.5540  141.4040 C   0  0  0  0  0  0  0  0  0  0  0  0
  191.5540  175.7510  145.2940 C   0  0  2  0  0  3  0  0  0  0  0  0
  187.3370  177.6780  147.3410 C   0  0  0  0  0  2  0  0  0  0  0  0
  187.9550  177.0170  145.0040 C   0  0  0  0  0  0  0  0  0  0  0  0
  187.0210  177.6080  145.8660 C   0  0  0  0  0  0  0  0  0  0  0  0
  185.4680  177.8860  144.0020 C   0  0  0  0  0  0  0  0  0  0  0  0
  182.9300  178.2100  140.1740 N   0  0  0  0  0  0  0  0  0  0  0  0
  191.8950  174.7380  143.0710 O   0  0  0  0  0  0  0  0  0  0  0  0
  190.1450  175.8370  144.6860 C   0  0  2  0  0  3  0  0  0  0  0  0
  184.2140  177.6390  140.0780 N   0  0  0  0  0  0  0  0  0  0  0  0
  191.1930  175.7690  142.3960 C   0  0  0  0  0  2  0  0  0  0  0  0
  192.5750  176.6510  144.6030 C   0  0  1  0  0  3  0  0  0  0  0  0
  184.7830  178.7350  146.2770 C   0  0  0  0  0  2  0  0  0  0  0  0
  185.7680  178.0280  145.3700 C   0  0  0  0  0  0  0  0  0  0  0  0
  184.1400  178.3550  143.4970 C   0  0  0  0  0  3  0  0  0  0  0  0
  188.7060  176.2210  142.7210 C   0  0  0  0  0  2  0  0  0  0  0  0
  186.8380  176.6660  140.7980 O   0  0  0  0  0  0  0  0  0  0  0  0
  181.4380  179.1890  141.8680 C   0  0  0  0  0  1  0  0  0  0  0  0
  186.4230  177.2990  143.1100 C   0  0  0  0  0  0  0  0  0  0  0  0
  183.8550  178.2190  142.2090 C   0  0  0  0  0  0  0  0  0  0  0  0
  193.7170  176.9360  145.5590 C   0  0  0  0  0  2  0  0  0  0  0  0
  194.9680  176.2740  145.0840 C   0  0  0  0  0  0  0  0  0  0  0  0
  195.5880  176.7360  144.1390 O   0  0  0  0  0  0  0  0  0  0  0  0
  195.4750  175.0610  145.7820 C   0  0  0  0  0  1  0  0  0  0  0  0
  1 16  1  6  0  0  0
  1 20  1  0  0  0  0
  1 10  1  0  0  0  0
  2 12  1  0  0  0  0
  4  3  1  0  0  0  0
  5 27  1  0  0  0  0
  6  5  1  0  0  0  0
  6 28  1  0  0  0  0
  7 19  1  6  0  0  0
  7 17  1  0  0  0  0
  9 26  1  0  0  0  0
  9 28  1  0  0  0  0
 11  3  1  0  0  0  0
 12  8  1  0  0  0  0
 12 13  2  0  0  0  0
 13 11  1  0  0  0  0
 14 22  2  0  0  0  0
 15  9  2  0  0  0  0
 17 10  1  0  0  0  0
 17  8  1  0  0  0  0
 18 15  1  0  0  0  0
 18  6  2  0  0  0  0
 19 16  1  0  0  0  0
 20 10  1  0  0  0  0
 20 29  1  0  0  0  0
 21  4  1  0  0  0  0
 22 13  1  0  0  0  0
 22 21  1  0  0  0  0
 23 14  1  0  0  0  0
 24  7  1  0  0  0  0
 24  2  1  0  0  0  0
 25  5  2  0  0  0  0
 27  2  2  0  0  0  0
 27 14  1  0  0  0  0
 28 23  2  0  0  0  0
 30 29  1  0  0  0  0
 30 32  1  0  0  0  0
 31 30  2  0  0  0  0
M  END
>  <MODEL>
1

>  <REMARK>
 VINA RESULT:      -9.2      0.000      0.000
  Name = 
  2 active torsions:
  status: ('A' for Active; 'I' for Inactive)
    1  A    between atoms: C_20  and  C_29
    2  A    between atoms: C_29  and  C_30
                            x       y       z     vdW  Elec       q    Type
                         _______ _______ _______ _____ _____    ______ ____

>  <TORSDO>
F 2

$$$$
=
 OpenBabel11112416363D

 32 38  0  0  1  0  0  0  0  0999 V2000
  185.3570  179.1410  143.6880 C   0  0  1  0  0  3  0  0  0  0  0  0
  188.8030  175.3520  142.7560 C   0  0  0  0  0  0  0  0  0  0  0  0
  191.5970  175.2990  146.8600 C   0  0  0  0  0  2  0  0  0  0  0  0
  192.7280  174.7150  146.0360 C   0  0  0  0  0  2  0  0  0  0  0  0
  189.1600  173.5740  140.9520 C   0  0  0  0  0  0  0  0  0  0  0  0
  189.9830  172.4420  140.5410 C   0  0  0  0  0  0  0  0  0  0  0  0
  186.6670  176.6510  142.9290 C   0  0  1  0  0  3  0  0  0  0  0  0
  188.4700  177.0780  144.4960 N   0  0  0  0  0  2  0  0  0  0  0  0
  191.5980  170.8880  140.5800 C   0  0  0  0  0  0  0  0  0  0  0  0
  186.5580  178.6650  144.5170 C   0  0  2  0  0  3  0  0  0  0  0  0
  190.7210  176.1610  145.9610 C   0  0  0  0  0  2  0  0  0  0  0  0
  189.2050  175.9560  143.9750 C   0  0  0  0  0  0  0  0  0  0  0  0
  190.2890  175.4460  144.7020 C   0  0  0  0  0  0  0  0  0  0  0  0
  190.6470  173.7460  142.9860 C   0  0  0  0  0  0  0  0  0  0  0  0
  190.8810  170.7350  139.5100 N   0  0  0  0  0  0  0  0  0  0  0  0
  185.4070  178.6660  142.3350 O   0  0  0  0  0  0  0  0  0  0  0  0
  187.4410  177.7170  143.6910 C   0  0  2  0  0  3  0  0  0  0  0  0
  189.8640  171.7110  139.4830 N   0  0  0  0  0  0  0  0  0  0  0  0
  185.4580  177.2530  142.2090 C   0  0  0  0  0  2  0  0  0  0  0  0
  185.1660  178.1100  144.8050 C   0  0  1  0  0  3  0  0  0  0  0  0
  192.1500  173.7470  145.0130 C   0  0  0  0  0  2  0  0  0  0  0  0
  191.0250  174.3500  144.2000 C   0  0  0  0  0  0  0  0  0  0  0  0
  191.4310  172.5740  142.4840 C   0  0  0  0  0  3  0  0  0  0  0  0
  187.6310  175.9400  141.9930 C   0  0  0  0  0  2  0  0  0  0  0  0
  188.1910  173.9440  140.2360 O   0  0  0  0  0  0  0  0  0  0  0  0
  192.7600  170.0290  140.9330 C   0  0  0  0  0  1  0  0  0  0  0  0
  189.5290  174.2490  142.2450 C   0  0  0  0  0  0  0  0  0  0  0  0
  191.0780  172.0050  141.3390 C   0  0  0  0  0  0  0  0  0  0  0  0
  184.5990  178.7970  146.0320 C   0  0  0  0  0  2  0  0  0  0  0  0
  185.5310  178.6480  147.1880 C   0  0  0  0  0  0  0  0  0  0  0  0
  185.9410  179.6340  147.7790 O   0  0  0  0  0  0  0  0  0  0  0  0
  185.9410  177.2890  147.6380 C   0  0  0  0  0  1  0  0  0  0  0  0
  1 16  1  6  0  0  0
  1 10  1  0  0  0  0
  1 20  1  0  0  0  0
  2 12  1  0  0  0  0
  4  3  1  0  0  0  0
  5 27  1  0  0  0  0
  6  5  1  0  0  0  0
  6 28  1  0  0  0  0
  7 24  1  6  0  0  0
  7 17  1  0  0  0  0
  9 26  1  0  0  0  0
  9 28  1  0  0  0  0
 10 20  1  0  0  0  0
 11  3  1  0  0  0  0
 12  8  1  0  0  0  0
 12 13  2  0  0  0  0
 13 11  1  0  0  0  0
 14 22  2  0  0  0  0
 15  9  2  0  0  0  0
 17  8  1  0  0  0  0
 17 10  1  0  0  0  0
 18 15  1  0  0  0  0
 18  6  2  0  0  0  0
 19 16  1  0  0  0  0
 19  7  1  0  0  0  0
 20 29  1  0  0  0  0
 21  4  1  0  0  0  0
 22 13  1  0  0  0  0
 22 21  1  0  0  0  0
 23 14  1  0  0  0  0
 24  2  1  0  0  0  0
 25  5  2  0  0  0  0
 27  2  2  0  0  0  0
 27 14  1  0  0  0  0
 28 23  2  0  0  0  0
 29 30  1  0  0  0  0
 30 32  1  0  0  0  0
 30 31  2  0  0  0  0
M  END
>  <MODEL>
2

>  <REMARK>
 VINA RESULT:      -9.0      3.373      7.560
  Name = 
  2 active torsions:
  status: ('A' for Active; 'I' for Inactive)
    1  A    between atoms: C_20  and  C_29
    2  A    between atoms: C_29  and  C_30
                            x       y       z     vdW  Elec       q    Type
                         _______ _______ _______ _____ _____    ______ ____

>  <TORSDO>
F 2

$$$$
=
 OpenBabel11112416363D

 32 38  0  0  1  0  0  0  0  0999 V2000
  185.1190  177.7050  147.0190 C   0  0  1  0  0  3  0  0  0  0  0  0
  189.7120  175.9880  145.2700 C   0  0  0  0  0  0  0  0  0  0  0  0
  188.6960  174.4790  140.6500 C   0  0  0  0  0  2  0  0  0  0  0  0
  189.8740  173.5280  140.7430 C   0  0  0  0  0  2  0  0  0  0  0  0
  192.1290  175.9850  146.1060 C   0  0  0  0  0  0  0  0  0  0  0  0
  193.5040  175.6250  145.7750 C   0  0  0  0  0  0  0  0  0  0  0  0
  187.9390  177.3880  146.3560 C   0  0  1  0  0  3  0  0  0  0  0  0
  187.3740  175.9780  144.4630 N   0  0  0  0  0  2  0  0  0  0  0  0
  195.2550  174.8390  144.6180 C   0  0  0  0  0  0  0  0  0  0  0  0
  185.4850  177.0260  145.6920 C   0  0  2  0  0  3  0  0  0  0  0  0
  188.1220  174.6960  142.0440 C   0  0  0  0  0  2  0  0  0  0  0  0
  188.7650  175.6660  144.2640 C   0  0  0  0  0  0  0  0  0  0  0  0
  189.1740  175.0810  143.0580 C   0  0  0  0  0  0  0  0  0  0  0  0
  191.4860  175.0650  143.8430 C   0  0  0  0  0  0  0  0  0  0  0  0
  195.6650  175.2910  145.7630 N   0  0  0  0  0  0  0  0  0  0  0  0
  186.1420  177.5440  148.0130 O   0  0  0  0  0  0  0  0  0  0  0  0
  186.9050  176.4420  145.7590 C   0  0  2  0  0  3  0  0  0  0  0  0
  194.5660  175.7850  146.4930 N   0  0  0  0  0  2  0  0  0  0  0  0
  187.4140  178.0460  147.6340 C   0  0  0  0  0  2  0  0  0  0  0  0
  185.4440  178.5490  145.7830 C   0  0  1  0  0  3  0  0  0  0  0  0
  190.9950  174.2000  141.5250 C   0  0  0  0  0  2  0  0  0  0  0  0
  190.5340  174.7630  142.8520 C   0  0  0  0  0  0  0  0  0  0  0  0
  192.9240  174.7350  143.5940 C   0  0  0  0  0  2  0  0  0  0  0  0
  189.2290  176.6110  146.5670 C   0  0  0  0  0  2  0  0  0  0  0  0
  191.8670  176.5270  147.2120 O   0  0  0  0  0  0  0  0  0  0  0  0
  196.1500  174.2420  143.5900 C   0  0  0  0  0  1  0  0  0  0  0  0
  191.0800  175.6790  145.0730 C   0  0  0  0  0  0  0  0  0  0  0  0
  193.8220  175.0170  144.5280 C   0  0  0  0  0  0  0  0  0  0  0  0
  184.1550  179.0510  145.1630 C   0  0  0  0  0  2  0  0  0  0  0  0
  184.1960  178.8940  143.6790 C   0  0  0  0  0  0  0  0  0  0  0  0
  183.1710  178.6660  143.0560 O   0  0  0  0  0  0  0  0  0  0  0  0
  185.4880  179.0410  142.9550 C   0  0  0  0  0  1  0  0  0  0  0  0
  1 16  1  1  0  0  0
  2 24  1  0  0  0  0
  3  4  1  0  0  0  0
  3 11  1  0  0  0  0
  4 21  1  0  0  0  0
  5 25  2  0  0  0  0
  6  5  1  0  0  0  0
  6 18  1  0  0  0  0
  7 24  1  1  0  0  0
  7 19  1  0  0  0  0
  8 17  1  0  0  0  0
  9 15  2  0  0  0  0
 10 17  1  0  0  0  0
 10 20  1  0  0  0  0
 10  1  1  0  0  0  0
 11 13  1  0  0  0  0
 12  8  1  0  0  0  0
 12  2  2  0  0  0  0
 13 12  1  0  0  0  0
 14 27  2  0  0  0  0
 15 18  1  0  0  0  0
 17  7  1  0  0  0  0
 19 16  1  0  0  0  0
 20  1  1  0  0  0  0
 21 22  1  0  0  0  0
 22 13  2  0  0  0  0
 22 14  1  0  0  0  0
 23 14  1  0  0  0  0
 23 28  1  0  0  0  0
 26  9  1  0  0  0  0
 27  2  1  0  0  0  0
 27  5  1  0  0  0  0
 28  9  1  0  0  0  0
 28  6  2  0  0  0  0
 29 20  1  0  0  0  0
 30 29  1  0  0  0  0
 31 30  2  0  0  0  0
 32 30  1  0  0  0  0
M  END
>  <MODEL>
3

>  <REMARK>
 VINA RESULT:      -9.0      2.694      8.791
  Name = 
  2 active torsions:
  status: ('A' for Active; 'I' for Inactive)
    1  A    between atoms: C_20  and  C_29
    2  A    between atoms: C_29  and  C_30
                            x       y       z     vdW  Elec       q    Type
                         _______ _______ _______ _____ _____    ______ ____

>  <TORSDO>
F 2

$$$$
=
 OpenBabel11112416363D

 32 38  0  0  1  0  0  0  0  0999 V2000
  190.1290  172.2560  139.3120 C   0  0  1  0  0  3  0  0  0  0  0  0
  188.5710  175.2070  143.3070 C   0  0  0  0  0  0  0  0  0  0  0  0
  192.4760  175.1570  146.3720 C   0  0  0  0  0  2  0  0  0  0  0  0
  191.5280  175.4280  147.5240 C   0  0  0  0  0  2  0  0  0  0  0  0
  186.5550  176.6890  143.8410 C   0  0  0  0  0  0  0  0  0  0  0  0
  185.9690  177.5960  144.8220 C   0  0  0  0  0  0  0  0  0  0  0  0
  189.0130  174.3610  140.9900 C   0  0  1  0  0  3  0  0  0  0  0  0
  190.5150  173.7660  142.8010 N   0  0  0  0  0  2  0  0  0  0  0  0
  185.7360  178.8130  146.6900 C   0  0  0  0  0  0  0  0  0  0  0  0
  190.8280  172.5790  140.6400 C   0  0  2  0  0  3  0  0  0  0  0  0
  191.7340  174.3870  145.2870 C   0  0  0  0  0  2  0  0  0  0  0  0
  189.8270  174.6680  143.6860 C   0  0  0  0  0  0  0  0  0  0  0  0
  190.4270  175.0360  144.8970 C   0  0  0  0  0  0  0  0  0  0  0  0
  188.5080  176.4510  145.4250 C   0  0  0  0  0  0  0  0  0  0  0  0
  184.6980  178.9860  145.9330 N   0  0  0  0  0  0  0  0  0  0  0  0
  188.7290  172.5700  139.3440 O   0  0  0  0  0  0  0  0  0  0  0  0
  189.8490  173.2520  141.6150 C   0  0  2  0  0  3  0  0  0  0  0  0
  184.8410  178.2230  144.7570 N   0  0  0  0  0  0  0  0  0  0  0  0
  188.4370  173.9270  139.6400 C   0  0  0  0  0  2  0  0  0  0  0  0
  191.1270  173.4150  139.3990 C   0  0  1  0  0  3  0  0  0  0  0  0
  190.4330  176.3760  147.0540 C   0  0  0  0  0  2  0  0  0  0  0  0
  189.7600  175.9160  145.7780 C   0  0  0  0  0  0  0  0  0  0  0  0
  187.8300  177.3950  146.3670 C   0  0  0  0  0  3  0  0  0  0  0  0
  187.9470  174.7760  141.9930 C   0  0  0  0  0  2  0  0  0  0  0  0
  185.9420  176.4370  142.7700 O   0  0  0  0  0  0  0  0  0  0  0  0
  185.9210  179.4680  148.0130 C   0  0  0  0  0  1  0  0  0  0  0  0
  187.8940  176.0940  144.1800 C   0  0  0  0  0  0  0  0  0  0  0  0
  186.6480  177.8980  146.0370 C   0  0  0  0  0  0  0  0  0  0  0  0
  192.4560  172.9780  138.8120 C   0  0  0  0  0  2  0  0  0  0  0  0
  193.4410  174.0990  138.8660 C   0  0  0  0  0  0  0  0  0  0  0  0
  193.7510  174.6960  137.8470 O   0  0  0  0  0  0  0  0  0  0  0  0
  194.0270  174.5060  140.1730 C   0  0  0  0  0  1  0  0  0  0  0  0
  1 16  1  1  0  0  0
  1 20  1  0  0  0  0
  1 10  1  0  0  0  0
  2 12  2  0  0  0  0
  2 27  1  0  0  0  0
  3  4  1  0  0  0  0
  5 27  1  0  0  0  0
  5  6  1  0  0  0  0
  6 28  1  0  0  0  0
  7 19  1  6  0  0  0
  7 17  1  0  0  0  0
  7 24  1  0  0  0  0
  8 12  1  0  0  0  0
  9 26  1  0  0  0  0
 10 17  1  0  0  0  0
 11  3  1  0  0  0  0
 12 13  1  0  0  0  0
 13 11  1  0  0  0  0
 13 22  2  0  0  0  0
 14 22  1  0  0  0  0
 14 23  1  0  0  0  0
 15  9  2  0  0  0  0
 16 19  1  0  0  0  0
 17  8  1  0  0  0  0
 18  6  2  0  0  0  0
 18 15  1  0  0  0  0
 20 10  1  0  0  0  0
 21  4  1  0  0  0  0
 22 21  1  0  0  0  0
 24  2  1  0  0  0  0
 25  5  2  0  0  0  0
 27 14  2  0  0  0  0
 28 23  2  0  0  0  0
 28  9  1  0  0  0  0
 29 30  1  0  0  0  0
 29 20  1  0  0  0  0
 30 32  1  0  0  0  0
 31 30  2  0  0  0  0
M  END
>  <MODEL>
4

>  <REMARK>
 VINA RESULT:      -8.7      3.019      5.203
  Name = 
  2 active torsions:
  status: ('A' for Active; 'I' for Inactive)
    1  A    between atoms: C_20  and  C_29
    2  A    between atoms: C_29  and  C_30
                            x       y       z     vdW  Elec       q    Type
                         _______ _______ _______ _____ _____    ______ ____

>  <TORSDO>
F 2

$$$$
=
 OpenBabel11112416363D

 32 38  0  0  1  0  0  0  0  0999 V2000
  185.7950  179.2060  143.7150 C   0  0  1  0  0  3  0  0  0  0  0  0
  188.1460  175.1670  141.4220 C   0  0  0  0  0  0  0  0  0  0  0  0
  189.9120  172.5380  145.2450 C   0  0  0  0  0  2  0  0  0  0  0  0
  190.9760  171.9790  144.3190 C   0  0  0  0  0  2  0  0  0  0  0  0
  188.3470  174.2460  139.0440 C   0  0  0  0  0  0  0  0  0  0  0  0
  188.8820  173.1620  138.2270 C   0  0  0  0  0  0  0  0  0  0  0  0
  186.4740  176.9370  142.0170 C   0  0  1  0  0  3  0  0  0  0  0  0
  187.9650  176.0620  143.7200 N   0  0  0  0  0  2  0  0  0  0  0  0
  189.9500  171.2690  137.6760 C   0  0  0  0  0  0  0  0  0  0  0  0
  186.6170  178.0610  144.3210 C   0  0  2  0  0  3  0  0  0  0  0  0
  189.5180  173.9290  144.7660 C   0  0  0  0  0  2  0  0  0  0  0  0
  188.4450  175.0610  142.8040 C   0  0  0  0  0  0  0  0  0  0  0  0
  189.1690  173.9670  143.2970 C   0  0  0  0  0  0  0  0  0  0  0  0
  189.3740  173.0760  141.0320 C   0  0  0  0  0  0  0  0  0  0  0  0
  189.4530  171.8090  136.6070 N   0  0  0  0  0  0  0  0  0  0  0  0
  185.9840  179.3200  142.2970 O   0  0  0  0  0  0  0  0  0  0  0  0
  187.3460  177.2780  143.2180 C   0  0  2  0  0  3  0  0  0  0  0  0
  188.7810  172.9990  136.9500 N   0  0  0  0  0  0  0  0  0  0  0  0
  185.6590  178.1500  141.5630 C   0  0  0  0  0  2  0  0  0  0  0  0
  185.0970  177.9510  144.2470 C   0  0  1  0  0  3  0  0  0  0  0  0
  190.3700  171.7580  142.9400 C   0  0  0  0  0  2  0  0  0  0  0  0
  189.6510  172.9800  142.4090 C   0  0  0  0  0  0  0  0  0  0  0  0
  189.8810  172.0080  140.1140 C   0  0  0  0  0  3  0  0  0  0  0  0
  187.3690  176.3720  140.9250 C   0  0  0  0  0  2  0  0  0  0  0  0
  187.6890  175.1760  138.5060 O   0  0  0  0  0  0  0  0  0  0  0  0
  190.7240  169.9990  137.6850 C   0  0  0  0  0  1  0  0  0  0  0  0
  188.6190  174.1810  140.5220 C   0  0  0  0  0  0  0  0  0  0  0  0
  189.6230  172.0980  138.8160 C   0  0  0  0  0  0  0  0  0  0  0  0
  184.5080  178.2440  145.6140 C   0  0  0  0  0  2  0  0  0  0  0  0
  185.1700  177.4040  146.6560 C   0  0  0  0  0  0  0  0  0  0  0  0
  185.1140  176.1870  146.5910 O   0  0  0  0  0  0  0  0  0  0  0  0
  185.9230  178.0560  147.7640 C   0  0  0  0  0  1  0  0  0  0  0  0
  1 16  1  6  0  0  0
  1 20  1  0  0  0  0
  1 10  1  0  0  0  0
  2 12  1  0  0  0  0
  4  3  1  0  0  0  0
  5 27  1  0  0  0  0
  6 28  1  0  0  0  0
  6  5  1  0  0  0  0
  7 24  1  6  0  0  0
  7 17  1  0  0  0  0
  9 26  1  0  0  0  0
  9 28  1  0  0  0  0
 11  3  1  0  0  0  0
 12 13  2  0  0  0  0
 12  8  1  0  0  0  0
 13 11  1  0  0  0  0
 14 22  2  0  0  0  0
 15 18  1  0  0  0  0
 15  9  2  0  0  0  0
 17  8  1  0  0  0  0
 17 10  1  0  0  0  0
 18  6  2  0  0  0  0
 19  7  1  0  0  0  0
 19 16  1  0  0  0  0
 20 10  1  0  0  0  0
 20 29  1  0  0  0  0
 21  4  1  0  0  0  0
 22 21  1  0  0  0  0
 22 13  1  0  0  0  0
 23 14  1  0  0  0  0
 24  2  1  0  0  0  0
 25  5  2  0  0  0  0
 27 14  1  0  0  0  0
 27  2  2  0  0  0  0
 28 23  2  0  0  0  0
 29 30  1  0  0  0  0
 30 32  1  0  0  0  0
 31 30  2  0  0  0  0
M  END
>  <MODEL>
5

>  <REMARK>
 VINA RESULT:      -8.6      3.877      7.518
  Name = 
  2 active torsions:
  status: ('A' for Active; 'I' for Inactive)
    1  A    between atoms: C_20  and  C_29
    2  A    between atoms: C_29  and  C_30
                            x       y       z     vdW  Elec       q    Type
                         _______ _______ _______ _____ _____    ______ ____

>  <TORSDO>
F 2

$$$$
=
 OpenBabel11112416363D

 32 38  0  0  1  0  0  0  0  0999 V2000
  195.2700  174.6470  145.2310 C   0  0  1  0  0  3  0  0  0  0  0  0
  190.3390  176.3160  145.1360 C   0  0  0  0  0  0  0  0  0  0  0  0
  188.5670  174.4390  140.8950 C   0  0  0  0  0  2  0  0  0  0  0  0
  187.5540  175.5680  140.8640 C   0  0  0  0  0  2  0  0  0  0  0  0
  188.7680  177.5460  146.7370 C   0  0  0  0  0  0  0  0  0  0  0  0
  187.4090  178.0430  146.9260 C   0  0  0  0  0  0  0  0  0  0  0  0
  192.5240  175.3590  145.9030 C   0  0  1  0  0  3  0  0  0  0  0  0
  191.8590  175.1390  143.5800 N   0  0  0  0  0  2  0  0  0  0  0  0
  185.2530  178.4910  146.5070 C   0  0  0  0  0  0  0  0  0  0  0  0
  194.1900  174.4930  144.1510 C   0  0  2  0  0  3  0  0  0  0  0  0
  189.8190  174.9160  141.6190 C   0  0  0  0  0  2  0  0  0  0  0  0
  190.5620  175.6820  143.8870 C   0  0  0  0  0  0  0  0  0  0  0  0
  189.5190  175.5410  142.9610 C   0  0  0  0  0  0  0  0  0  0  0  0
  188.0070  176.7170  144.4760 C   0  0  0  0  0  0  0  0  0  0  0  0
  185.5670  178.9460  147.6810 N   0  0  0  0  0  0  0  0  0  0  0  0
  194.9380  175.6620  146.1910 O   0  0  0  0  0  0  0  0  0  0  0  0
  192.9900  175.4050  144.4540 C   0  0  2  0  0  3  0  0  0  0  0  0
  186.9210  178.6660  147.9470 N   0  0  0  0  0  2  0  0  0  0  0  0
  193.7090  175.4510  146.8680 C   0  0  0  0  0  2  0  0  0  0  0  0
  194.3970  173.3900  145.1840 C   0  0  1  0  0  3  0  0  0  0  0  0
  187.0940  175.8620  142.2850 C   0  0  0  0  0  2  0  0  0  0  0  0
  188.2440  176.0740  143.2460 C   0  0  0  0  0  0  0  0  0  0  0  0
  186.6420  177.2590  144.7610 C   0  0  0  0  0  2  0  0  0  0  0  0
  191.4960  176.4600  146.1080 C   0  0  0  0  0  2  0  0  0  0  0  0
  189.6300  177.7050  147.6410 O   0  0  0  0  0  0  0  0  0  0  0  0
  183.9000  178.6110  145.9020 C   0  0  0  0  0  1  0  0  0  0  0  0
  189.0630  176.8510  145.4360 C   0  0  0  0  0  0  0  0  0  0  0  0
  186.4190  177.8670  145.9180 C   0  0  0  0  0  0  0  0  0  0  0  0
  195.1820  172.2560  144.5530 C   0  0  0  0  0  2  0  0  0  0  0  0
  195.4520  171.1880  145.5600 C   0  0  0  0  0  0  0  0  0  0  0  0
  194.5640  170.4210  145.8960 O   0  0  0  0  0  0  0  0  0  0  0  0
  196.8160  171.0420  146.1380 C   0  0  0  0  0  1  0  0  0  0  0  0
  1 16  1  1  0  0  0
  2 27  1  0  0  0  0
  2 24  1  0  0  0  0
  3 11  1  0  0  0  0
  4  3  1  0  0  0  0
  4 21  1  0  0  0  0
  5  6  1  0  0  0  0
  5 25  2  0  0  0  0
  6 18  1  0  0  0  0
  7 24  1  1  0  0  0
  7 19  1  0  0  0  0
  8 12  1  0  0  0  0
  8 17  1  0  0  0  0
  9 15  2  0  0  0  0
 10 17  1  0  0  0  0
 10 20  1  0  0  0  0
 10  1  1  0  0  0  0
 11 13  1  0  0  0  0
 12  2  2  0  0  0  0
 13 22  2  0  0  0  0
 13 12  1  0  0  0  0
 14 23  1  0  0  0  0
 14 27  2  0  0  0  0
 15 18  1  0  0  0  0
 16 19  1  0  0  0  0
 17  7  1  0  0  0  0
 20  1  1  0  0  0  0
 21 22  1  0  0  0  0
 22 14  1  0  0  0  0
 23 28  1  0  0  0  0
 26  9  1  0  0  0  0
 27  5  1  0  0  0  0
 28  9  1  0  0  0  0
 28  6  2  0  0  0  0
 29 20  1  0  0  0  0
 29 30  1  0  0  0  0
 30 31  2  0  0  0  0
 30 32  1  0  0  0  0
M  END
>  <MODEL>
6

>  <REMARK>
 VINA RESULT:      -8.5      3.181      5.244
  Name = 
  2 active torsions:
  status: ('A' for Active; 'I' for Inactive)
    1  A    between atoms: C_20  and  C_29
    2  A    between atoms: C_29  and  C_30
                            x       y       z     vdW  Elec       q    Type
                         _______ _______ _______ _____ _____    ______ ____

>  <TORSDO>
F 2

$$$$
=
 OpenBabel11112416363D

 32 38  0  0  1  0  0  0  0  0999 V2000
  186.4610  178.4040  142.9480 C   0  0  1  0  0  3  0  0  0  0  0  0
  189.9000  174.5200  143.3790 C   0  0  0  0  0  0  0  0  0  0  0  0
  193.1040  176.1870  146.7850 C   0  0  0  0  0  2  0  0  0  0  0  0
  194.1600  175.2840  146.1780 C   0  0  0  0  0  2  0  0  0  0  0  0
  190.1190  172.1310  142.4900 C   0  0  0  0  0  0  0  0  0  0  0  0
  190.9270  170.9170  142.5220 C   0  0  0  0  0  0  0  0  0  0  0  0
  187.7560  175.8060  143.2010 C   0  0  1  0  0  3  0  0  0  0  0  0
  189.6990  176.8330  144.2310 N   0  0  0  0  0  2  0  0  0  0  0  0
  192.5810  169.5010  143.0550 C   0  0  0  0  0  0  0  0  0  0  0  0
  187.7550  178.3100  143.7690 C   0  0  2  0  0  3  0  0  0  0  0  0
  192.1150  176.5940  145.7010 C   0  0  0  0  0  2  0  0  0  0  0  0
  190.4080  175.5820  144.1690 C   0  0  0  0  0  0  0  0  0  0  0  0
  191.5760  175.4150  144.9260 C   0  0  0  0  0  0  0  0  0  0  0  0
  191.8030  173.1340  144.0820 C   0  0  0  0  0  0  0  0  0  0  0  0
  191.7610  168.9160  142.2370 N   0  0  0  0  0  0  0  0  0  0  0  0
  186.3850  177.3910  141.9350 O   0  0  0  0  0  0  0  0  0  0  0  0
  188.5750  177.0820  143.3430 C   0  0  2  0  0  3  0  0  0  0  0  0
  190.7200  169.8030  141.9000 N   0  0  0  0  0  0  0  0  0  0  0  0
  186.4620  176.0620  142.4240 C   0  0  0  0  0  2  0  0  0  0  0  0
  186.4170  177.9590  144.4140 C   0  0  1  0  0  3  0  0  0  0  0  0
  193.5070  173.9810  145.7390 C   0  0  0  0  0  2  0  0  0  0  0  0
  192.2860  174.1960  144.8700 C   0  0  0  0  0  0  0  0  0  0  0  0
  192.5640  171.8470  144.0530 C   0  0  0  0  0  3  0  0  0  0  0  0
  188.6380  174.7430  142.5660 C   0  0  0  0  0  2  0  0  0  0  0  0
  189.0710  172.1740  141.7920 O   0  0  0  0  0  0  0  0  0  0  0  0
  193.7970  168.8560  143.6180 C   0  0  0  0  0  1  0  0  0  0  0  0
  190.6000  173.2900  143.3190 C   0  0  0  0  0  0  0  0  0  0  0  0
  192.1110  170.8460  143.3090 C   0  0  0  0  0  0  0  0  0  0  0  0
  185.9600  179.1180  145.2780 C   0  0  0  0  0  2  0  0  0  0  0  0
  185.3280  178.6130  146.5320 C   0  0  0  0  0  0  0  0  0  0  0  0
  184.1420  178.3280  146.5520 O   0  0  0  0  0  0  0  0  0  0  0  0
  186.1550  178.4340  147.7570 C   0  0  0  0  0  1  0  0  0  0  0  0
  1 16  1  6  0  0  0
  1 10  1  0  0  0  0
  1 20  1  0  0  0  0
  2 12  1  0  0  0  0
  4  3  1  0  0  0  0
  5  6  1  0  0  0  0
  5 27  1  0  0  0  0
  6 28  1  0  0  0  0
  7 19  1  6  0  0  0
  7 17  1  0  0  0  0
  9 28  1  0  0  0  0
  9 26  1  0  0  0  0
 10 20  1  0  0  0  0
 11  3  1  0  0  0  0
 12  8  1  0  0  0  0
 12 13  2  0  0  0  0
 13 11  1  0  0  0  0
 14 22  2  0  0  0  0
 15  9  2  0  0  0  0
 16 19  1  0  0  0  0
 17 10  1  0  0  0  0
 17  8  1  0  0  0  0
 18 15  1  0  0  0  0
 18  6  2  0  0  0  0
 20 29  1  0  0  0  0
 21  4  1  0  0  0  0
 22 13  1  0  0  0  0
 22 21  1  0  0  0  0
 23 14  1  0  0  0  0
 24  7  1  0  0  0  0
 24  2  1  0  0  0  0
 25  5  2  0  0  0  0
 27  2  2  0  0  0  0
 27 14  1  0  0  0  0
 28 23  2  0  0  0  0
 29 30  1  0  0  0  0
 30 31  2  0  0  0  0
 30 32  1  0  0  0  0
M  END
>  <MODEL>
7

>  <REMARK>
 VINA RESULT:      -8.4      3.468      8.256
  Name = 
  2 active torsions:
  status: ('A' for Active; 'I' for Inactive)
    1  A    between atoms: C_20  and  C_29
    2  A    between atoms: C_29  and  C_30
                            x       y       z     vdW  Elec       q    Type
                         _______ _______ _______ _____ _____    ______ ____

>  <TORSDO>
F 2

$$$$
=
 OpenBabel11112416363D

 32 38  0  0  1  0  0  0  0  0999 V2000
  185.9090  177.5540  146.6010 C   0  0  1  0  0  3  0  0  0  0  0  0
  190.4030  175.7080  144.7300 C   0  0  0  0  0  0  0  0  0  0  0  0
  189.1880  174.0940  140.1950 C   0  0  0  0  0  2  0  0  0  0  0  0
  190.3520  173.1250  140.2700 C   0  0  0  0  0  2  0  0  0  0  0  0
  192.8490  175.6830  145.4760 C   0  0  0  0  0  0  0  0  0  0  0  0
  194.2050  175.2900  145.1050 C   0  0  0  0  0  0  0  0  0  0  0  0
  188.6970  177.1690  145.8430 C   0  0  1  0  0  3  0  0  0  0  0  0
  188.0360  175.7190  144.0120 N   0  0  0  0  0  2  0  0  0  0  0  0
  195.8970  174.4420  143.9050 C   0  0  0  0  0  0  0  0  0  0  0  0
  186.2140  176.8340  145.2810 C   0  0  2  0  0  3  0  0  0  0  0  0
  188.6710  174.3590  141.6030 C   0  0  0  0  0  2  0  0  0  0  0  0
  189.4130  175.3760  143.7700 C   0  0  0  0  0  0  0  0  0  0  0  0
  189.7660  174.7520  142.5670 C   0  0  0  0  0  0  0  0  0  0  0  0
  192.1060  174.7150  143.2650 C   0  0  0  0  0  0  0  0  0  0  0  0
  196.3570  174.9160  145.0210 N   0  0  0  0  0  0  0  0  0  0  0  0
  186.9660  177.4020  147.5600 O   0  0  0  0  0  0  0  0  0  0  0  0
  187.6250  176.2260  145.3110 C   0  0  2  0  0  3  0  0  0  0  0  0
  195.2960  175.4500  145.7780 N   0  0  0  0  0  2  0  0  0  0  0  0
  188.2310  177.8710  147.1210 C   0  0  0  0  0  2  0  0  0  0  0  0
  186.2020  178.3590  145.3310 C   0  0  1  0  0  3  0  0  0  0  0  0
  191.5130  173.7960  140.9910 C   0  0  0  0  0  2  0  0  0  0  0  0
  191.1120  174.4040  142.3190 C   0  0  0  0  0  0  0  0  0  0  0  0
  193.5270  174.3520  142.9720 C   0  0  0  0  0  2  0  0  0  0  0  0
  189.9800  176.3740  146.0270 C   0  0  0  0  0  2  0  0  0  0  0  0
  192.6390  176.2600  146.5760 O   0  0  0  0  0  0  0  0  0  0  0  0
  196.7420  173.8010  142.8620 C   0  0  0  0  0  1  0  0  0  0  0  0
  191.7570  175.3690  144.4910 C   0  0  0  0  0  0  0  0  0  0  0  0
  194.4650  174.6420  143.8640 C   0  0  0  0  0  0  0  0  0  0  0  0
  184.8990  178.8680  144.7460 C   0  0  0  0  0  2  0  0  0  0  0  0
  184.9200  178.7600  143.2580 C   0  0  0  0  0  0  0  0  0  0  0  0
  185.9330  179.0360  142.6350 O   0  0  0  0  0  0  0  0  0  0  0  0
  183.7080  178.2880  142.5320 C   0  0  0  0  0  1  0  0  0  0  0  0
  1 16  1  1  0  0  0
  2 24  1  0  0  0  0
  3  4  1  0  0  0  0
  3 11  1  0  0  0  0
  4 21  1  0  0  0  0
  5 25  2  0  0  0  0
  6  5  1  0  0  0  0
  6 18  1  0  0  0  0
  7 24  1  1  0  0  0
  7 19  1  0  0  0  0
  8 17  1  0  0  0  0
  9 15  2  0  0  0  0
 10 17  1  0  0  0  0
 10 20  1  0  0  0  0
 10  1  1  0  0  0  0
 11 13  1  0  0  0  0
 12  8  1  0  0  0  0
 12  2  2  0  0  0  0
 13 12  1  0  0  0  0
 14 27  2  0  0  0  0
 15 18  1  0  0  0  0
 17  7  1  0  0  0  0
 19 16  1  0  0  0  0
 20  1  1  0  0  0  0
 21 22  1  0  0  0  0
 22 13  2  0  0  0  0
 22 14  1  0  0  0  0
 23 14  1  0  0  0  0
 23 28  1  0  0  0  0
 26  9  1  0  0  0  0
 27  2  1  0  0  0  0
 27  5  1  0  0  0  0
 28  9  1  0  0  0  0
 28  6  2  0  0  0  0
 29 20  1  0  0  0  0
 30 29  1  0  0  0  0
 31 30  2  0  0  0  0
 32 30  1  0  0  0  0
M  END
>  <MODEL>
8

>  <REMARK>
 VINA RESULT:      -8.3      2.786      8.909
  Name = 
  2 active torsions:
  status: ('A' for Active; 'I' for Inactive)
    1  A    between atoms: C_20  and  C_29
    2  A    between atoms: C_29  and  C_30
                            x       y       z     vdW  Elec       q    Type
                         _______ _______ _______ _____ _____    ______ ____

>  <TORSDO>
F 2

$$$$
=
 OpenBabel11112416363D

 32 38  0  0  1  0  0  0  0  0999 V2000
  186.8660  177.7140  142.6140 C   0  0  1  0  0  3  0  0  0  0  0  0
  190.6060  174.1990  143.4830 C   0  0  0  0  0  0  0  0  0  0  0  0
  193.6510  176.5130  146.6500 C   0  0  0  0  0  2  0  0  0  0  0  0
  194.7790  175.6320  146.1490 C   0  0  0  0  0  2  0  0  0  0  0  0
  191.0220  171.7480  142.8820 C   0  0  0  0  0  0  0  0  0  0  0  0
  191.9250  170.6150  143.0530 C   0  0  0  0  0  0  0  0  0  0  0  0
  188.3660  175.2770  143.1660 C   0  0  1  0  0  3  0  0  0  0  0  0
  190.2150  176.5730  144.0560 N   0  0  0  0  0  2  0  0  0  0  0  0
  193.6860  169.4110  143.7410 C   0  0  0  0  0  0  0  0  0  0  0  0
  188.1600  177.8220  143.4330 C   0  0  2  0  0  3  0  0  0  0  0  0
  192.6370  176.7070  145.5300 C   0  0  0  0  0  2  0  0  0  0  0  0
  191.0240  175.3860  144.1390 C   0  0  0  0  0  0  0  0  0  0  0  0
  192.1980  175.4040  144.9030 C   0  0  0  0  0  0  0  0  0  0  0  0
  192.6120  173.0650  144.3340 C   0  0  0  0  0  0  0  0  0  0  0  0
  192.9200  168.6690  143.0030 N   0  0  0  0  0  0  0  0  0  0  0  0
  186.8760  176.5850  141.7280 O   0  0  0  0  0  0  0  0  0  0  0  0
  189.0780  176.6230  143.1510 C   0  0  2  0  0  3  0  0  0  0  0  0
  191.8120  169.4230  142.5690 N   0  0  0  0  0  0  0  0  0  0  0  0
  187.0590  175.3340  142.3710 C   0  0  0  0  0  2  0  0  0  0  0  0
  186.8520  177.4430  144.1220 C   0  0  1  0  0  3  0  0  0  0  0  0
  194.2350  174.2370  145.8700 C   0  0  0  0  0  2  0  0  0  0  0  0
  193.0050  174.2480  144.9880 C   0  0  0  0  0  0  0  0  0  0  0  0
  193.4750  171.8490  144.4540 C   0  0  0  0  0  3  0  0  0  0  0  0
  189.3340  174.2210  142.6560 C   0  0  0  0  0  2  0  0  0  0  0  0
  189.9770  171.6230  142.1890 O   0  0  0  0  0  0  0  0  0  0  0  0
  194.9490  168.9380  144.3700 C   0  0  0  0  0  1  0  0  0  0  0  0
  191.4040  173.0320  143.5650 C   0  0  0  0  0  0  0  0  0  0  0  0
  193.1080  170.7340  143.8370 C   0  0  0  0  0  0  0  0  0  0  0  0
  186.2990  178.6560  144.8450 C   0  0  0  0  0  2  0  0  0  0  0  0
  185.0850  178.2840  145.6300 C   0  0  0  0  0  0  0  0  0  0  0  0
  184.1250  179.0350  145.6730 O   0  0  0  0  0  0  0  0  0  0  0  0
  185.0380  176.9780  146.3440 C   0  0  0  0  0  1  0  0  0  0  0  0
  1 16  1  6  0  0  0
  1 10  1  0  0  0  0
  1 20  1  0  0  0  0
  2 27  2  0  0  0  0
  2 12  1  0  0  0  0
  4  3  1  0  0  0  0
  5  6  1  0  0  0  0
  5 27  1  0  0  0  0
  6 28  1  0  0  0  0
  7 19  1  6  0  0  0
  8 12  1  0  0  0  0
  9 28  1  0  0  0  0
  9 26  1  0  0  0  0
 10 20  1  0  0  0  0
 11  3  1  0  0  0  0
 12 13  2  0  0  0  0
 13 22  1  0  0  0  0
 13 11  1  0  0  0  0
 14 23  1  0  0  0  0
 14 22  2  0  0  0  0
 15  9  2  0  0  0  0
 16 19  1  0  0  0  0
 17  7  1  0  0  0  0
 17 10  1  0  0  0  0
 17  8  1  0  0  0  0
 18 15  1  0  0  0  0
 18  6  2  0  0  0  0
 20 29  1  0  0  0  0
 21  4  1  0  0  0  0
 22 21  1  0  0  0  0
 24  7  1  0  0  0  0
 24  2  1  0  0  0  0
 25  5  2  0  0  0  0
 27 14  1  0  0  0  0
 28 23  2  0  0  0  0
 29 30  1  0  0  0  0
 30 31  2  0  0  0  0
 30 32  1  0  0  0  0
M  END
>  <MODEL>
9

>  <REMARK>
 VINA RESULT:      -8.3      3.488      8.710
  Name = 
  2 active torsions:
  status: ('A' for Active; 'I' for Inactive)
    1  A    between atoms: C_20  and  C_29
    2  A    between atoms: C_29  and  C_30
                            x       y       z     vdW  Elec       q    Type
                         _______ _______ _______ _____ _____    ______ ____

>  <TORSDO>
F 2

$$$$
