=
 OpenBabel11112417423D

 28 32  0  0  1  0  0  0  0  0999 V2000
  186.8950  178.1820  144.7820 C   0  0  0  0  0  0  0  0  0  0  0  0
  190.3590  177.8940  145.3000 F   0  0  0  0  0  0  0  0  0  0  0  0
  187.9500  173.5950  141.2880 O   0  0  0  0  0  0  0  0  0  0  0  0
  185.5900  177.6240  147.2000 C   0  0  0  0  0  3  0  0  0  0  0  0
  189.8710  174.0910  142.6790 C   0  0  2  0  0  3  0  0  0  0  0  0
  187.5120  178.4760  143.5670 O   0  0  0  0  0  0  0  0  0  0  0  0
  189.5790  177.7020  147.5180 C   0  0  0  0  0  1  0  0  0  0  0  0
  190.2650  177.0070  146.3590 C   0  0  1  0  0  0  0  0  0  0  0  0
  192.3330  175.5850  146.1660 C   0  0  0  0  0  0  0  0  0  0  0  0
  189.4760  175.7320  145.9530 C   0  0  2  0  0  3  0  0  0  0  0  0
  186.0970  177.5120  140.2460 C   0  0  0  0  0  1  0  0  0  0  0  0
  188.7980  176.1100  143.6350 C   0  0  1  0  0  3  0  0  0  0  0  0
  191.7300  174.7420  145.3870 N   0  0  0  0  0  0  0  0  0  0  0  0
  191.6100  176.6490  146.7830 N   0  0  0  0  0  2  0  0  0  0  0  0
  186.9820  177.3900  141.4680 C   0  0  2  0  0  3  0  0  0  0  0  0
  187.2630  177.0380  145.5320 C   0  0  0  0  0  0  0  0  0  0  0  0
  188.5120  174.3340  142.1410 C   0  0  0  0  0  0  0  0  0  0  0  0
  193.7130  175.4080  146.4630 N   0  0  0  0  0  1  0  0  0  0  0  0
  186.6670  176.0830  142.1890 C   0  0  0  0  0  2  0  0  0  0  0  0
  186.5890  176.7690  146.7310 C   0  0  0  0  0  3  0  0  0  0  0  0
  185.8840  179.0280  145.2570 C   0  0  0  0  0  3  0  0  0  0  0  0
  185.2380  178.7550  146.4630 C   0  0  0  0  0  3  0  0  0  0  0  0
  186.7530  178.5980  142.3720 C   0  0  0  0  0  2  0  0  0  0  0  0
  190.0940  175.2830  143.6170 C   0  0  1  0  0  3  0  0  0  0  0  0
  187.8920  175.4730  142.6980 N   0  0  0  0  0  0  0  0  0  0  0  0
  190.3070  174.8090  145.0490 C   0  0  2  0  0  3  0  0  0  0  0  0
  190.8920  174.1400  141.5580 C   0  0  0  0  0  1  0  0  0  0  0  0
  188.2660  176.0060  145.0590 C   0  0  2  0  0  3  0  0  0  0  0  0
  1 21  2  0  0  0  0
  1 16  1  0  0  0  0
  2  8  1  0  0  0  0
  3 17  2  0  0  0  0
  5 27  1  6  0  0  0
  5 24  1  0  0  0  0
  6  1  1  0  0  0  0
  8 14  1  0  0  0  0
  8  7  1  1  0  0  0
  9 18  1  0  0  0  0
  9 14  1  0  0  0  0
 10  8  1  0  0  0  0
 11 15  1  0  0  0  0
 12 28  1  0  0  0  0
 13  9  2  0  0  0  0
 15 19  1  0  0  0  0
 15 23  1  0  0  0  0
 16 20  2  0  0  0  0
 17  5  1  0  0  0  0
 17 25  1  0  0  0  0
 19 25  1  0  0  0  0
 20  4  1  0  0  0  0
 21 22  1  0  0  0  0
 22  4  2  0  0  0  0
 23  6  1  0  0  0  0
 24 12  1  0  0  0  0
 24 26  1  0  0  0  0
 25 12  1  0  0  0  0
 26 13  1  0  0  0  0
 26 10  1  0  0  0  0
 28 16  1  0  0  0  0
 28 10  1  0  0  0  0
M  END
>  <MODEL>
1

>  <REMARK>
 VINA RESULT:      -9.4      0.000      0.000
  Name = 
  0 active torsions:
  status: ('A' for Active; 'I' for Inactive)
                            x       y       z     vdW  Elec       q    Type
                         _______ _______ _______ _____ _____    ______ ____

>  <TORSDO>
F 0

$$$$
=
 OpenBabel11112417423D

 28 32  0  0  1  0  0  0  0  0999 V2000
  190.2530  175.4180  143.7220 C   0  0  0  0  0  0  0  0  0  0  0  0
  188.2440  177.6470  141.8930 F   0  0  0  0  0  0  0  0  0  0  0  0
  186.3520  176.7420  147.8910 O   0  0  0  0  0  0  0  0  0  0  0  0
  190.0220  172.8720  142.5710 C   0  0  0  0  0  3  0  0  0  0  0  0
  185.6260  177.5570  145.7280 C   0  0  2  0  0  3  0  0  0  0  0  0
  190.4000  176.6730  144.3110 O   0  0  0  0  0  0  0  0  0  0  0  0
  188.1050  175.7290  140.5270 C   0  0  0  0  0  1  0  0  0  0  0  0
  187.3580  176.6870  141.4340 C   0  0  1  0  0  0  0  0  0  0  0  0
  185.1640  177.9040  141.2420 C   0  0  0  0  0  0  0  0  0  0  0  0
  186.7090  175.9140  142.6140 C   0  0  2  0  0  3  0  0  0  0  0  0
  190.7840  177.1930  147.9910 C   0  0  0  0  0  1  0  0  0  0  0  0
  187.7310  176.8470  144.6300 C   0  0  1  0  0  3  0  0  0  0  0  0
  184.8550  177.6230  142.4690 N   0  0  0  0  0  0  0  0  0  0  0  0
  186.3310  177.3460  140.6410 N   0  0  0  0  0  2  0  0  0  0  0  0
  190.0560  177.1240  146.6660 C   0  0  2  0  0  3  0  0  0  0  0  0
  188.9720  174.9020  143.4100 C   0  0  0  0  0  0  0  0  0  0  0  0
  186.5790  176.9160  146.6630 C   0  0  0  0  0  0  0  0  0  0  0  0
  184.2950  178.7200  140.4650 N   0  0  0  0  0  1  0  0  0  0  0  0
  188.9700  176.0550  146.7430 C   0  0  0  0  0  2  0  0  0  0  0  0
  188.8770  173.6210  142.8470 C   0  0  0  0  0  3  0  0  0  0  0  0
  191.3960  174.6540  143.4480 C   0  0  0  0  0  3  0  0  0  0  0  0
  191.2830  173.3890  142.8700 C   0  0  0  0  0  3  0  0  0  0  0  0
  191.0630  176.8210  145.5590 C   0  0  0  0  0  2  0  0  0  0  0  0
  186.3940  177.5720  144.4000 C   0  0  1  0  0  3  0  0  0  0  0  0
  187.7710  176.4940  146.0360 N   0  0  0  0  0  0  0  0  0  0  0  0
  185.6550  176.7630  143.3420 C   0  0  2  0  0  3  0  0  0  0  0  0
  185.3510  178.9850  146.1610 C   0  0  0  0  0  1  0  0  0  0  0  0
  187.6730  175.5980  143.7580 C   0  0  2  0  0  3  0  0  0  0  0  0
  1  6  1  0  0  0  0
  4 20  2  0  0  0  0
  4 22  1  0  0  0  0
  5 27  1  1  0  0  0
  5 17  1  0  0  0  0
  6 23  1  0  0  0  0
  8  7  1  6  0  0  0
  8  2  1  0  0  0  0
  8 10  1  0  0  0  0
  9 13  2  0  0  0  0
 10 26  1  0  0  0  0
 10 28  1  0  0  0  0
 12 25  1  0  0  0  0
 13 26  1  0  0  0  0
 14  9  1  0  0  0  0
 14  8  1  0  0  0  0
 15 19  1  0  0  0  0
 15 11  1  0  0  0  0
 16  1  2  0  0  0  0
 16 28  1  0  0  0  0
 17  3  2  0  0  0  0
 18  9  1  0  0  0  0
 20 16  1  0  0  0  0
 21  1  1  0  0  0  0
 22 21  2  0  0  0  0
 23 15  1  0  0  0  0
 24 12  1  0  0  0  0
 24  5  1  0  0  0  0
 25 17  1  0  0  0  0
 25 19  1  0  0  0  0
 26 24  1  0  0  0  0
 28 12  1  0  0  0  0
M  END
>  <MODEL>
2

>  <REMARK>
 VINA RESULT:      -8.9      2.405      6.497
  Name = 
  0 active torsions:
  status: ('A' for Active; 'I' for Inactive)
                            x       y       z     vdW  Elec       q    Type
                         _______ _______ _______ _____ _____    ______ ____

>  <TORSDO>
F 0

$$$$
=
 OpenBabel11112417423D

 28 32  0  0  1  0  0  0  0  0999 V2000
  187.8780  177.5260  144.8720 C   0  0  0  0  0  0  0  0  0  0  0  0
  191.3690  177.3530  145.2310 F   0  0  0  0  0  0  0  0  0  0  0  0
  188.9420  173.0850  141.1970 O   0  0  0  0  0  0  0  0  0  0  0  0
  186.7020  176.8500  147.3260 C   0  0  0  0  0  3  0  0  0  0  0  0
  190.9030  173.6110  142.5180 C   0  0  2  0  0  3  0  0  0  0  0  0
  188.4300  177.8780  143.6410 O   0  0  0  0  0  0  0  0  0  0  0  0
  190.6960  177.0670  147.4740 C   0  0  0  0  0  1  0  0  0  0  0  0
  191.3540  176.4320  146.2650 C   0  0  1  0  0  0  0  0  0  0  0  0
  193.4620  175.0950  145.9410 C   0  0  0  0  0  0  0  0  0  0  0  0
  190.5950  175.1410  145.8560 C   0  0  2  0  0  3  0  0  0  0  0  0
  186.9050  176.9590  140.3560 C   0  0  0  0  0  1  0  0  0  0  0  0
  189.8010  175.5600  143.5810 C   0  0  1  0  0  3  0  0  0  0  0  0
  192.8560  174.2530  145.1630 N   0  0  0  0  0  0  0  0  0  0  0  0
  192.7290  176.1120  146.6200 N   0  0  0  0  0  2  0  0  0  0  0  0
  187.8470  176.8340  141.5350 C   0  0  2  0  0  3  0  0  0  0  0  0
  188.3200  176.3750  145.5700 C   0  0  0  0  0  0  0  0  0  0  0  0
  189.5140  173.8190  142.0470 C   0  0  0  0  0  0  0  0  0  0  0  0
  194.8590  174.9600  146.1720 N   0  0  0  0  0  1  0  0  0  0  0  0
  187.6110  175.4960  142.2280 C   0  0  0  0  0  2  0  0  0  0  0  0
  187.7090  176.0470  146.7890 C   0  0  0  0  0  3  0  0  0  0  0  0
  186.8590  178.3200  145.4160 C   0  0  0  0  0  3  0  0  0  0  0  0
  186.2770  177.9880  146.6400 C   0  0  0  0  0  3  0  0  0  0  0  0
  187.6140  178.0060  142.4840 C   0  0  0  0  0  2  0  0  0  0  0  0
  191.1250  174.7830  143.4820 C   0  0  1  0  0  3  0  0  0  0  0  0
  188.8780  174.9170  142.6650 N   0  0  0  0  0  0  0  0  0  0  0  0
  191.4180  174.2760  144.8890 C   0  0  2  0  0  3  0  0  0  0  0  0
  191.8710  173.7310  141.3560 C   0  0  0  0  0  1  0  0  0  0  0  0
  189.3370  175.3950  145.0230 C   0  0  2  0  0  3  0  0  0  0  0  0
  1 21  2  0  0  0  0
  1 16  1  0  0  0  0
  2  8  1  0  0  0  0
  3 17  2  0  0  0  0
  5 27  1  6  0  0  0
  5 24  1  0  0  0  0
  6  1  1  0  0  0  0
  8 14  1  0  0  0  0
  8  7  1  1  0  0  0
  9 18  1  0  0  0  0
  9 14  1  0  0  0  0
 10  8  1  0  0  0  0
 11 15  1  0  0  0  0
 12 28  1  0  0  0  0
 13  9  2  0  0  0  0
 15 19  1  0  0  0  0
 15 23  1  0  0  0  0
 16 20  2  0  0  0  0
 17  5  1  0  0  0  0
 17 25  1  0  0  0  0
 19 25  1  0  0  0  0
 20  4  1  0  0  0  0
 21 22  1  0  0  0  0
 22  4  2  0  0  0  0
 23  6  1  0  0  0  0
 24 12  1  0  0  0  0
 24 26  1  0  0  0  0
 25 12  1  0  0  0  0
 26 13  1  0  0  0  0
 26 10  1  0  0  0  0
 28 16  1  0  0  0  0
 28 10  1  0  0  0  0
M  END
>  <MODEL>
3

>  <REMARK>
 VINA RESULT:      -8.6      1.059      1.192
  Name = 
  0 active torsions:
  status: ('A' for Active; 'I' for Inactive)
                            x       y       z     vdW  Elec       q    Type
                         _______ _______ _______ _____ _____    ______ ____

>  <TORSDO>
F 0

$$$$
=
 OpenBabel11112417423D

 28 32  0  0  1  0  0  0  0  0999 V2000
  186.9850  176.8480  146.6960 C   0  0  0  0  0  0  0  0  0  0  0  0
  186.4620  175.8760  143.3600 F   0  0  0  0  0  0  0  0  0  0  0  0
  192.4230  177.6520  144.6620 O   0  0  0  0  0  0  0  0  0  0  0  0
  185.4880  179.1670  147.1860 C   0  0  0  0  0  3  0  0  0  0  0  0
  190.8610  177.2780  142.8490 C   0  0  2  0  0  3  0  0  0  0  0  0
  187.7310  175.6880  146.4900 O   0  0  0  0  0  0  0  0  0  0  0  0
  184.8660  177.6020  143.5560 C   0  0  0  0  0  1  0  0  0  0  0  0
  186.1510  177.1430  142.8960 C   0  0  1  0  0  0  0  0  0  0  0  0
  186.9840  177.1600  140.5210 C   0  0  0  0  0  0  0  0  0  0  0  0
  187.2970  178.1470  143.1970 C   0  0  2  0  0  3  0  0  0  0  0  0
  191.0740  175.0830  148.0450 C   0  0  0  0  0  1  0  0  0  0  0  0
  188.9810  176.8520  144.4070 C   0  0  1  0  0  3  0  0  0  0  0  0
  188.1570  177.5680  140.8930 N   0  0  0  0  0  0  0  0  0  0  0  0
  185.9160  177.0660  141.4620 N   0  0  0  0  0  2  0  0  0  0  0  0
  190.0980  175.4880  146.9600 C   0  0  2  0  0  3  0  0  0  0  0  0
  187.0360  177.9240  145.7780 C   0  0  0  0  0  0  0  0  0  0  0  0
  191.2560  177.3770  144.2730 C   0  0  0  0  0  0  0  0  0  0  0  0
  186.7410  176.8690  139.1500 N   0  0  0  0  0  1  0  0  0  0  0  0
  190.3250  176.9530  146.6010 C   0  0  0  0  0  2  0  0  0  0  0  0
  186.2910  179.0810  146.0480 C   0  0  0  0  0  3  0  0  0  0  0  0
  186.1820  176.9490  147.8410 C   0  0  0  0  0  3  0  0  0  0  0  0
  185.4330  178.1010  148.0830 C   0  0  0  0  0  3  0  0  0  0  0  0
  188.6750  175.2460  147.4560 C   0  0  0  0  0  2  0  0  0  0  0  0
  189.3830  176.8750  142.9220 C   0  0  1  0  0  3  0  0  0  0  0  0
  190.1820  177.1530  145.1620 N   0  0  0  0  0  0  0  0  0  0  0  0
  188.5030  177.9320  142.2680 C   0  0  2  0  0  3  0  0  0  0  0  0
  191.6450  176.1740  142.1660 C   0  0  0  0  0  1  0  0  0  0  0  0
  187.9470  177.9590  144.5680 C   0  0  2  0  0  3  0  0  0  0  0  0
  1 21  1  0  0  0  0
  4 22  1  0  0  0  0
  5 27  1  6  0  0  0
  5 24  1  0  0  0  0
  5 17  1  0  0  0  0
  6  1  1  0  0  0  0
  6 23  1  0  0  0  0
  8 10  1  0  0  0  0
  8  2  1  0  0  0  0
  8  7  1  1  0  0  0
  9 13  2  0  0  0  0
  9 14  1  0  0  0  0
 10 28  1  0  0  0  0
 12 28  1  0  0  0  0
 12 25  1  0  0  0  0
 13 26  1  0  0  0  0
 14  8  1  0  0  0  0
 15 23  1  0  0  0  0
 15 11  1  0  0  0  0
 16 20  1  0  0  0  0
 16  1  2  0  0  0  0
 17  3  2  0  0  0  0
 17 25  1  0  0  0  0
 18  9  1  0  0  0  0
 19 15  1  0  0  0  0
 20  4  2  0  0  0  0
 21 22  2  0  0  0  0
 24 12  1  0  0  0  0
 25 19  1  0  0  0  0
 26 24  1  0  0  0  0
 26 10  1  0  0  0  0
 28 16  1  0  0  0  0
M  END
>  <MODEL>
4

>  <REMARK>
 VINA RESULT:      -8.4      2.381      5.213
  Name = 
  0 active torsions:
  status: ('A' for Active; 'I' for Inactive)
                            x       y       z     vdW  Elec       q    Type
                         _______ _______ _______ _____ _____    ______ ____

>  <TORSDO>
F 0

$$$$
=
 OpenBabel11112417423D

 28 32  0  0  1  0  0  0  0  0999 V2000
  190.4150  174.7230  141.9440 C   0  0  0  0  0  0  0  0  0  0  0  0
  188.8150  177.8310  142.3020 F   0  0  0  0  0  0  0  0  0  0  0  0
  190.3430  175.0300  147.7970 O   0  0  0  0  0  0  0  0  0  0  0  0
  188.6070  172.9280  140.7740 C   0  0  0  0  0  3  0  0  0  0  0  0
  188.9470  176.7500  146.8180 C   0  0  2  0  0  3  0  0  0  0  0  0
  191.3420  175.5930  142.5160 O   0  0  0  0  0  0  0  0  0  0  0  0
  187.2050  176.6680  141.0290 C   0  0  0  0  0  1  0  0  0  0  0  0
  187.5300  177.3180  142.3600 C   0  0  1  0  0  0  0  0  0  0  0  0
  186.2890  178.9100  143.8630 C   0  0  0  0  0  0  0  0  0  0  0  0
  187.3910  176.2850  143.5110 C   0  0  2  0  0  3  0  0  0  0  0  0
  193.8450  174.5440  145.0840 C   0  0  0  0  0  1  0  0  0  0  0  0
  189.6170  176.1380  144.5120 C   0  0  1  0  0  3  0  0  0  0  0  0
  186.6210  178.2360  144.9190 N   0  0  0  0  0  0  0  0  0  0  0  0
  186.6000  178.4190  142.5600 N   0  0  0  0  0  2  0  0  0  0  0  0
  192.5550  175.1410  144.5630 C   0  0  2  0  0  3  0  0  0  0  0  0
  189.0950  174.6270  142.4480 C   0  0  0  0  0  0  0  0  0  0  0  0
  189.9080  175.6240  146.7740 C   0  0  0  0  0  0  0  0  0  0  0  0
  185.5470  180.1150  144.0010 N   0  0  0  0  0  1  0  0  0  0  0  0
  191.3740  174.3580  145.1260 C   0  0  0  0  0  2  0  0  0  0  0  0
  188.2100  173.7130  141.8580 C   0  0  0  0  0  3  0  0  0  0  0  0
  190.8050  173.9230  140.8610 C   0  0  0  0  0  3  0  0  0  0  0  0
  189.9040  173.0330  140.2750 C   0  0  0  0  0  3  0  0  0  0  0  0
  192.5730  175.1090  143.0370 C   0  0  0  0  0  2  0  0  0  0  0  0
  188.7930  177.1370  145.3410 C   0  0  1  0  0  3  0  0  0  0  0  0
  190.2760  175.2610  145.4600 N   0  0  0  0  0  0  0  0  0  0  0  0
  187.3490  176.9650  144.8880 C   0  0  2  0  0  3  0  0  0  0  0  0
  189.5470  177.9180  147.5780 C   0  0  0  0  0  1  0  0  0  0  0  0
  188.6030  175.3670  143.6740 C   0  0  2  0  0  3  0  0  0  0  0  0
  1 16  1  0  0  0  0
  1  6  1  0  0  0  0
  2  8  1  0  0  0  0
  4 20  1  0  0  0  0
  5 27  1  1  0  0  0
  6 23  1  0  0  0  0
  8  7  1  6  0  0  0
  8 14  1  0  0  0  0
  8 10  1  0  0  0  0
  9 18  1  0  0  0  0
  9 13  2  0  0  0  0
 10 28  1  0  0  0  0
 10 26  1  0  0  0  0
 12 24  1  0  0  0  0
 12 25  1  0  0  0  0
 14  9  1  0  0  0  0
 15 11  1  0  0  0  0
 15 19  1  0  0  0  0
 16 28  1  0  0  0  0
 17  5  1  0  0  0  0
 17  3  2  0  0  0  0
 19 25  1  0  0  0  0
 20 16  2  0  0  0  0
 21  1  2  0  0  0  0
 22  4  2  0  0  0  0
 22 21  1  0  0  0  0
 23 15  1  0  0  0  0
 24  5  1  0  0  0  0
 25 17  1  0  0  0  0
 26 13  1  0  0  0  0
 26 24  1  0  0  0  0
 28 12  1  0  0  0  0
M  END
>  <MODEL>
5

>  <REMARK>
 VINA RESULT:      -8.3      2.383      6.217
  Name = 
  0 active torsions:
  status: ('A' for Active; 'I' for Inactive)
                            x       y       z     vdW  Elec       q    Type
                         _______ _______ _______ _____ _____    ______ ____

>  <TORSDO>
F 0

$$$$
=
 OpenBabel11112417423D

 28 32  0  0  1  0  0  0  0  0999 V2000
  190.1950  174.5210  143.9970 C   0  0  0  0  0  0  0  0  0  0  0  0
  187.6210  175.6660  146.0970 F   0  0  0  0  0  0  0  0  0  0  0  0
  186.9600  177.3400  140.0030 O   0  0  0  0  0  0  0  0  0  0  0  0
  192.5840  175.7710  144.7640 C   0  0  0  0  0  3  0  0  0  0  0  0
  186.2130  177.8540  142.2500 C   0  0  2  0  0  3  0  0  0  0  0  0
  189.0270  173.8730  143.5970 O   0  0  0  0  0  0  0  0  0  0  0  0
  189.4980  176.6110  147.1700 C   0  0  0  0  0  1  0  0  0  0  0  0
  188.2200  176.8770  146.3990 C   0  0  1  0  0  0  0  0  0  0  0  0
  186.2920  178.4610  146.7310 C   0  0  0  0  0  0  0  0  0  0  0  0
  188.5290  177.6860  145.1100 C   0  0  2  0  0  3  0  0  0  0  0  0
  188.2280  173.0680  140.0370 C   0  0  0  0  0  1  0  0  0  0  0  0
  187.8070  176.2520  143.2660 C   0  0  1  0  0  3  0  0  0  0  0  0
  186.2740  178.7670  145.4720 N   0  0  0  0  0  0  0  0  0  0  0  0
  187.3250  177.6340  147.2630 N   0  0  0  0  0  2  0  0  0  0  0  0
  188.1820  173.8580  141.3270 C   0  0  2  0  0  3  0  0  0  0  0  0
  190.2180  175.9210  144.2110 C   0  0  0  0  0  0  0  0  0  0  0  0
  187.0440  177.1490  141.2460 C   0  0  0  0  0  0  0  0  0  0  0  0
  185.3120  179.0110  147.6040 N   0  0  0  0  0  1  0  0  0  0  0  0
  188.7360  175.2580  141.0790 C   0  0  0  0  0  2  0  0  0  0  0  0
  191.4260  176.5290  144.5810 C   0  0  0  0  0  3  0  0  0  0  0  0
  191.3660  173.7710  144.1740 C   0  0  0  0  0  3  0  0  0  0  0  0
  192.5540  174.3920  144.5620 C   0  0  0  0  0  3  0  0  0  0  0  0
  188.9850  173.1180  142.3940 C   0  0  0  0  0  2  0  0  0  0  0  0
  186.6620  177.2300  143.5770 C   0  0  1  0  0  3  0  0  0  0  0  0
  187.9670  176.2500  141.8250 N   0  0  0  0  0  0  0  0  0  0  0  0
  187.2560  178.2900  144.4960 C   0  0  2  0  0  3  0  0  0  0  0  0
  184.7460  177.5410  142.0230 C   0  0  0  0  0  1  0  0  0  0  0  0
  189.0400  176.8350  143.9470 C   0  0  2  0  0  3  0  0  0  0  0  0
  1 21  2  0  0  0  0
  1 16  1  0  0  0  0
  2  8  1  0  0  0  0
  3 17  2  0  0  0  0
  5 27  1  6  0  0  0
  5 24  1  0  0  0  0
  6  1  1  0  0  0  0
  8  7  1  1  0  0  0
  8 14  1  0  0  0  0
  9 14  1  0  0  0  0
  9 18  1  0  0  0  0
 10  8  1  0  0  0  0
 11 15  1  0  0  0  0
 12 24  1  0  0  0  0
 12 28  1  0  0  0  0
 13  9  2  0  0  0  0
 15 23  1  0  0  0  0
 16 20  2  0  0  0  0
 17 25  1  0  0  0  0
 17  5  1  0  0  0  0
 19 15  1  0  0  0  0
 19 25  1  0  0  0  0
 20  4  1  0  0  0  0
 21 22  1  0  0  0  0
 22  4  2  0  0  0  0
 23  6  1  0  0  0  0
 24 26  1  0  0  0  0
 25 12  1  0  0  0  0
 26 10  1  0  0  0  0
 26 13  1  0  0  0  0
 28 16  1  0  0  0  0
 28 10  1  0  0  0  0
M  END
>  <MODEL>
6

>  <REMARK>
 VINA RESULT:      -8.1      2.435      5.098
  Name = 
  0 active torsions:
  status: ('A' for Active; 'I' for Inactive)
                            x       y       z     vdW  Elec       q    Type
                         _______ _______ _______ _____ _____    ______ ____

>  <TORSDO>
F 0

$$$$
=
 OpenBabel11112417423D

 28 32  0  0  1  0  0  0  0  0999 V2000
  186.0350  177.0760  143.8060 C   0  0  0  0  0  0  0  0  0  0  0  0
  188.1690  174.3210  143.3540 F   0  0  0  0  0  0  0  0  0  0  0  0
  189.9700  178.2910  147.9770 O   0  0  0  0  0  0  0  0  0  0  0  0
  186.1420  178.6660  141.5000 C   0  0  0  0  0  3  0  0  0  0  0  0
  190.7520  176.5090  146.5340 C   0  0  2  0  0  3  0  0  0  0  0  0
  185.9490  176.3020  144.9630 O   0  0  0  0  0  0  0  0  0  0  0  0
  188.2190  175.2590  141.1890 C   0  0  0  0  0  1  0  0  0  0  0  0
  189.0070  174.9460  142.4460 C   0  0  1  0  0  0  0  0  0  0  0  0
  191.2630  173.9120  142.8660 C   0  0  0  0  0  0  0  0  0  0  0  0
  189.6080  176.2480  143.0420 C   0  0  2  0  0  3  0  0  0  0  0  0
  185.5660  177.7460  148.3880 C   0  0  0  0  0  1  0  0  0  0  0  0
  188.6210  176.4460  145.2700 C   0  0  1  0  0  3  0  0  0  0  0  0
  191.5490  174.8020  143.7640 N   0  0  0  0  0  0  0  0  0  0  0  0
  190.0730  174.0220  142.0870 N   0  0  0  0  0  2  0  0  0  0  0  0
  186.2990  177.1530  147.2030 C   0  0  2  0  0  3  0  0  0  0  0  0
  187.2900  177.4170  143.2460 C   0  0  0  0  0  0  0  0  0  0  0  0
  189.7610  177.4960  147.0220 C   0  0  0  0  0  0  0  0  0  0  0  0
  192.1780  172.8550  142.6060 N   0  0  0  0  0  1  0  0  0  0  0  0
  187.3280  178.1580  146.6940 C   0  0  0  0  0  2  0  0  0  0  0  0
  187.3220  178.2250  142.1000 C   0  0  0  0  0  3  0  0  0  0  0  0
  184.8560  177.5330  143.2010 C   0  0  0  0  0  3  0  0  0  0  0  0
  184.9080  178.3190  142.0490 C   0  0  0  0  0  3  0  0  0  0  0  0
  185.2860  176.7910  146.1210 C   0  0  0  0  0  2  0  0  0  0  0  0
  189.9950  175.7720  145.4220 C   0  0  1  0  0  3  0  0  0  0  0  0
  188.5530  177.4740  146.2910 N   0  0  0  0  0  0  0  0  0  0  0  0
  190.6980  175.9510  144.0820 C   0  0  2  0  0  3  0  0  0  0  0  0
  191.0970  175.5270  147.6370 C   0  0  0  0  0  1  0  0  0  0  0  0
  188.6200  177.0650  143.8770 C   0  0  2  0  0  3  0  0  0  0  0  0
  1  6  1  0  0  0  0
  4 22  2  0  0  0  0
  4 20  1  0  0  0  0
  5 17  1  0  0  0  0
  5 27  1  1  0  0  0
  6 23  1  0  0  0  0
  8  7  1  6  0  0  0
  8 10  1  0  0  0  0
  8  2  1  0  0  0  0
  9 13  2  0  0  0  0
 10 28  1  0  0  0  0
 10 26  1  0  0  0  0
 12 24  1  0  0  0  0
 12 25  1  0  0  0  0
 13 26  1  0  0  0  0
 14  8  1  0  0  0  0
 14  9  1  0  0  0  0
 15 11  1  0  0  0  0
 16  1  1  0  0  0  0
 16 28  1  0  0  0  0
 17  3  2  0  0  0  0
 18  9  1  0  0  0  0
 19 15  1  0  0  0  0
 20 16  2  0  0  0  0
 21  1  2  0  0  0  0
 22 21  1  0  0  0  0
 23 15  1  0  0  0  0
 24  5  1  0  0  0  0
 25 19  1  0  0  0  0
 25 17  1  0  0  0  0
 26 24  1  0  0  0  0
 28 12  1  0  0  0  0
M  END
>  <MODEL>
7

>  <REMARK>
 VINA RESULT:      -8.1      2.101      4.684
  Name = 
  0 active torsions:
  status: ('A' for Active; 'I' for Inactive)
                            x       y       z     vdW  Elec       q    Type
                         _______ _______ _______ _____ _____    ______ ____

>  <TORSDO>
F 0

$$$$
=
 OpenBabel11112417423D

 28 32  0  0  1  0  0  0  0  0999 V2000
  192.9940  174.3770  145.2430 C   0  0  0  0  0  0  0  0  0  0  0  0
  189.7010  174.7540  146.4100 F   0  0  0  0  0  0  0  0  0  0  0  0
  190.1600  173.7910  140.1460 O   0  0  0  0  0  0  0  0  0  0  0  0
  194.3530  176.7980  145.6350 C   0  0  0  0  0  3  0  0  0  0  0  0
  188.6710  174.5860  141.8830 C   0  0  2  0  0  3  0  0  0  0  0  0
  192.3510  173.1560  145.0450 O   0  0  0  0  0  0  0  0  0  0  0  0
  190.6510  176.7800  147.1570 C   0  0  0  0  0  1  0  0  0  0  0  0
  189.6480  176.1260  146.2280 C   0  0  1  0  0  0  0  0  0  0  0  0
  187.2360  176.5900  145.6760 C   0  0  0  0  0  0  0  0  0  0  0  0
  189.9510  176.5080  144.7540 C   0  0  2  0  0  3  0  0  0  0  0  0
  192.9810  170.9470  142.0990 C   0  0  0  0  0  1  0  0  0  0  0  0
  190.4210  174.3890  143.6270 C   0  0  1  0  0  3  0  0  0  0  0  0
  187.4510  176.4150  144.4090 N   0  0  0  0  0  0  0  0  0  0  0  0
  188.3210  176.5920  146.6030 N   0  0  0  0  0  2  0  0  0  0  0  0
  192.2590  171.9900  142.9240 C   0  0  2  0  0  3  0  0  0  0  0  0
  192.3880  175.5950  144.8480 C   0  0  0  0  0  0  0  0  0  0  0  0
  189.9620  174.0860  141.3550 C   0  0  0  0  0  0  0  0  0  0  0  0
  185.9160  176.8490  146.1380 N   0  0  0  0  0  1  0  0  0  0  0  0
  192.2450  173.3120  142.1630 C   0  0  0  0  0  2  0  0  0  0  0  0
  193.0900  176.7940  145.0400 C   0  0  0  0  0  3  0  0  0  0  0  0
  194.2660  174.3930  145.8310 C   0  0  0  0  0  3  0  0  0  0  0  0
  194.9410  175.5970  146.0310 C   0  0  0  0  0  3  0  0  0  0  0  0
  192.9580  172.1280  144.2740 C   0  0  0  0  0  2  0  0  0  0  0  0
  188.9420  174.7330  143.3860 C   0  0  1  0  0  3  0  0  0  0  0  0
  190.9650  173.9910  142.3430 N   0  0  0  0  0  0  0  0  0  0  0  0
  188.7720  176.1820  143.8240 C   0  0  2  0  0  3  0  0  0  0  0  0
  187.5840  173.5490  141.6720 C   0  0  0  0  0  1  0  0  0  0  0  0
  191.0670  175.6820  144.1130 C   0  0  2  0  0  3  0  0  0  0  0  0
  1 21  1  0  0  0  0
  3 17  2  0  0  0  0
  4 22  1  0  0  0  0
  5 27  1  1  0  0  0
  5 24  1  0  0  0  0
  6  1  1  0  0  0  0
  8  2  1  0  0  0  0
  8 14  1  0  0  0  0
  8  7  1  1  0  0  0
  9 18  1  0  0  0  0
  9 14  1  0  0  0  0
 10  8  1  0  0  0  0
 11 15  1  0  0  0  0
 12 28  1  0  0  0  0
 13  9  2  0  0  0  0
 15 23  1  0  0  0  0
 16 20  1  0  0  0  0
 16  1  2  0  0  0  0
 17  5  1  0  0  0  0
 17 25  1  0  0  0  0
 19 25  1  0  0  0  0
 19 15  1  0  0  0  0
 20  4  2  0  0  0  0
 21 22  2  0  0  0  0
 23  6  1  0  0  0  0
 24 12  1  0  0  0  0
 24 26  1  0  0  0  0
 25 12  1  0  0  0  0
 26 13  1  0  0  0  0
 26 10  1  0  0  0  0
 28 10  1  0  0  0  0
 28 16  1  0  0  0  0
M  END
>  <MODEL>
8

>  <REMARK>
 VINA RESULT:      -7.6      2.656      5.758
  Name = 
  0 active torsions:
  status: ('A' for Active; 'I' for Inactive)
                            x       y       z     vdW  Elec       q    Type
                         _______ _______ _______ _____ _____    ______ ____

>  <TORSDO>
F 0

$$$$
=
 OpenBabel11112417423D

 28 32  0  0  1  0  0  0  0  0999 V2000
  188.6280  176.8370  144.7540 C   0  0  0  0  0  0  0  0  0  0  0  0
  192.1300  176.7240  145.0180 F   0  0  0  0  0  0  0  0  0  0  0  0
  189.6330  172.1380  141.3970 O   0  0  0  0  0  0  0  0  0  0  0  0
  187.5340  176.3400  147.2870 C   0  0  0  0  0  3  0  0  0  0  0  0
  191.6270  172.7820  142.6140 C   0  0  2  0  0  3  0  0  0  0  0  0
  189.1390  177.0990  143.4840 O   0  0  0  0  0  0  0  0  0  0  0  0
  191.5270  176.6040  147.2960 C   0  0  0  0  0  1  0  0  0  0  0  0
  192.1570  175.8850  146.1200 C   0  0  1  0  0  0  0  0  0  0  0  0
  194.2690  174.5460  145.8340 C   0  0  0  0  0  0  0  0  0  0  0  0
  191.4000  174.5590  145.8330 C   0  0  2  0  0  3  0  0  0  0  0  0
  187.5280  175.9180  140.3260 C   0  0  0  0  0  1  0  0  0  0  0  0
  190.5350  174.7960  143.5580 C   0  0  1  0  0  3  0  0  0  0  0  0
  193.6500  173.6420  145.1410 N   0  0  0  0  0  0  0  0  0  0  0  0
  193.5450  175.6060  146.4560 N   0  0  0  0  0  2  0  0  0  0  0  0
  188.5060  175.8920  141.4820 C   0  0  2  0  0  3  0  0  0  0  0  0
  189.1040  175.7470  145.5240 C   0  0  0  0  0  0  0  0  0  0  0  0
  190.2220  172.9400  142.1710 C   0  0  0  0  0  0  0  0  0  0  0  0
  195.6740  174.4420  146.0310 N   0  0  0  0  0  1  0  0  0  0  0  0
  188.3060  174.6090  142.2810 C   0  0  0  0  0  2  0  0  0  0  0  0
  188.5340  175.5080  146.7820 C   0  0  0  0  0  3  0  0  0  0  0  0
  187.6170  177.6610  145.2670 C   0  0  0  0  0  3  0  0  0  0  0  0
  187.0750  177.4180  146.5300 C   0  0  0  0  0  3  0  0  0  0  0  0
  188.2880  177.1310  142.3460 C   0  0  0  0  0  2  0  0  0  0  0  0
  191.8640  174.0270  143.4780 C   0  0  1  0  0  3  0  0  0  0  0  0
  189.5920  174.0770  142.7230 N   0  0  0  0  0  0  0  0  0  0  0  0
  192.2040  173.6310  144.9100 C   0  0  2  0  0  3  0  0  0  0  0  0
  192.5580  172.8220  141.4170 C   0  0  0  0  0  1  0  0  0  0  0  0
  190.1150  174.7380  145.0230 C   0  0  2  0  0  3  0  0  0  0  0  0
  1 21  2  0  0  0  0
  1 16  1  0  0  0  0
  2  8  1  0  0  0  0
  3 17  2  0  0  0  0
  5 27  1  6  0  0  0
  5 24  1  0  0  0  0
  6  1  1  0  0  0  0
  8 14  1  0  0  0  0
  8  7  1  1  0  0  0
  9 18  1  0  0  0  0
  9 14  1  0  0  0  0
 10  8  1  0  0  0  0
 11 15  1  0  0  0  0
 12 28  1  0  0  0  0
 13  9  2  0  0  0  0
 15 19  1  0  0  0  0
 15 23  1  0  0  0  0
 16 20  2  0  0  0  0
 17  5  1  0  0  0  0
 17 25  1  0  0  0  0
 19 25  1  0  0  0  0
 20  4  1  0  0  0  0
 21 22  1  0  0  0  0
 22  4  2  0  0  0  0
 23  6  1  0  0  0  0
 24 12  1  0  0  0  0
 24 26  1  0  0  0  0
 25 12  1  0  0  0  0
 26 13  1  0  0  0  0
 26 10  1  0  0  0  0
 28 16  1  0  0  0  0
 28 10  1  0  0  0  0
M  END
>  <MODEL>
9

>  <REMARK>
 VINA RESULT:      -7.5      1.634      2.210
  Name = 
  0 active torsions:
  status: ('A' for Active; 'I' for Inactive)
                            x       y       z     vdW  Elec       q    Type
                         _______ _______ _______ _____ _____    ______ ____

>  <TORSDO>
F 0

$$$$
