=
 OpenBabel11112418043D

 34 40  0  0  1  0  0  0  0  0999 V2000
  188.8960  175.0660  142.8900 C   0  0  0  0  0  0  0  0  0  0  0  0
  190.8950  173.4980  142.8510 C   0  0  0  0  0  2  0  0  0  0  0  0
  184.6250  178.6590  146.2820 C   0  0  0  0  0  0  0  0  0  0  0  0
  187.2850  176.9680  143.1380 N   0  0  0  0  0  0  0  0  0  0  0  0
  186.8040  177.8400  145.4410 C   0  0  0  0  0  0  0  0  0  0  0  0
  186.5900  178.6390  147.8530 C   0  0  0  0  0  1  0  0  0  0  0  0
  183.9330  178.0910  147.1690 O   0  0  0  0  0  0  0  0  0  0  0  0
  184.8020  179.7510  144.0490 C   0  0  0  0  0  2  0  0  0  0  0  0
  190.0720  174.2690  144.9220 C   0  0  0  0  0  0  0  0  0  0  0  0
  192.2840  175.1410  147.0510 C   0  0  0  0  0  2  0  0  0  0  0  0
  187.6550  176.9670  145.9040 N   0  0  0  0  0  0  0  0  0  0  0  0
  185.6590  178.7210  143.3780 C   0  0  0  0  0  3  0  0  0  0  0  0
  189.4060  175.1540  145.6940 C   0  0  0  0  0  0  0  0  0  0  0  0
  191.7250  172.8670  143.9630 C   0  0  0  0  0  2  0  0  0  0  0  0
  186.5480  177.8930  143.9630 C   0  0  0  0  0  0  0  0  0  0  0  0
  183.9970  179.1480  145.1010 N   0  0  0  0  0  2  0  0  0  0  0  0
  192.4600  174.6370  145.6200 C   0  0  2  0  0  3  0  0  0  0  0  0
  188.1760  176.0240  143.7540 C   0  0  0  0  0  0  0  0  0  0  0  0
  186.1150  178.7740  146.4080 C   0  0  2  0  0  3  0  0  0  0  0  0
  188.3710  176.0300  145.0840 C   0  0  0  0  0  0  0  0  0  0  0  0
  187.8780  176.0880  140.9710 C   0  0  0  0  0  3  0  0  0  0  0  0
  191.1350  176.1270  147.1790 C   0  0  0  0  0  2  0  0  0  0  0  0
  187.1920  176.9770  141.7010 C   0  0  0  0  0  3  0  0  0  0  0  0
  189.8090  175.3930  147.1160 C   0  0  0  0  0  2  0  0  0  0  0  0
  191.3710  173.6010  145.2630 C   0  0  1  0  0  3  0  0  0  0  0  0
  188.7140  175.1010  141.6020 N   0  0  0  0  0  0  0  0  0  0  0  0
  189.6230  173.9280  143.5420 C   0  0  1  0  0  3  0  0  0  0  0  0
  193.8570  174.0340  145.5130 C   0  0  0  0  0  2  0  0  0  0  0  0
  194.8510  175.0920  145.4190 N   0  0  0  0  0  2  0  0  0  0  0  0
  197.7200  175.2630  143.5040 N   0  0  0  0  0  2  0  0  0  0  0  0
  195.5780  176.2980  143.6090 C   0  0  0  0  0  2  0  0  0  0  0  0
  195.4700  174.9630  144.1690 N   0  0  0  0  0  0  0  0  0  0  0  0
  197.0170  176.4920  143.1960 C   0  0  0  0  0  2  0  0  0  0  0  0
  196.8410  174.5480  144.4170 C   0  0  0  0  0  2  0  0  0  0  0  0
  1 27  1  0  0  0  0
  1 18  1  0  0  0  0
  2 14  1  0  0  0  0
  3 19  1  0  0  0  0
  3  7  2  0  0  0  0
  4 18  1  0  0  0  0
  4 15  1  0  0  0  0
  5 11  2  0  0  0  0
  5 19  1  0  0  0  0
  8 16  1  0  0  0  0
  9 25  1  0  0  0  0
  9 13  2  0  0  0  0
 10 22  1  0  0  0  0
 12 15  2  0  0  0  0
 12  8  1  0  0  0  0
 13 24  1  0  0  0  0
 15  5  1  0  0  0  0
 16  3  1  0  0  0  0
 17 28  1  1  0  0  0
 17 10  1  0  0  0  0
 18 20  2  0  0  0  0
 19  6  1  1  0  0  0
 20 13  1  0  0  0  0
 20 11  1  0  0  0  0
 21 26  1  0  0  0  0
 21 23  2  0  0  0  0
 23  4  1  0  0  0  0
 24 22  1  0  0  0  0
 25 14  1  6  0  0  0
 25 17  1  0  0  0  0
 26  1  2  0  0  0  0
 27  2  1  6  0  0  0
 27  9  1  0  0  0  0
 29 28  1  0  0  0  0
 30 34  1  0  0  0  0
 31 32  1  0  0  0  0
 32 34  1  0  0  0  0
 32 29  1  0  0  0  0
 33 30  1  0  0  0  0
 33 31  1  0  0  0  0
M  END
>  <MODEL>
1

>  <REMARK>
 VINA RESULT:      -9.4      0.000      0.000
  Name = 
  3 active torsions:
  status: ('A' for Active; 'I' for Inactive)
    1  A    between atoms: C_17  and  C_28
    2  A    between atoms: C_28  and  N_29
    3  A    between atoms: N_29  and  N_32
                            x       y       z     vdW  Elec       q    Type
                         _______ _______ _______ _____ _____    ______ ____

>  <TORSDO>
F 3

$$$$
=
 OpenBabel11112418043D

 34 40  0  0  1  0  0  0  0  0999 V2000
  188.8810  175.0610  142.8690 C   0  0  0  0  0  0  0  0  0  0  0  0
  190.8670  173.4770  142.7920 C   0  0  0  0  0  2  0  0  0  0  0  0
  184.6850  178.6630  146.3430 C   0  0  0  0  0  0  0  0  0  0  0  0
  187.2890  176.9730  143.1520 N   0  0  0  0  0  0  0  0  0  0  0  0
  186.8450  177.8330  145.4670 C   0  0  0  0  0  0  0  0  0  0  0  0
  186.6700  178.6160  147.8870 C   0  0  0  0  0  1  0  0  0  0  0  0
  184.0000  178.0940  147.2360 O   0  0  0  0  0  0  0  0  0  0  0  0
  184.8400  179.7690  144.1160 C   0  0  0  0  0  2  0  0  0  0  0  0
  190.0780  174.2400  144.8790 C   0  0  0  0  0  0  0  0  0  0  0  0
  192.3250  175.0790  146.9850 C   0  0  0  0  0  2  0  0  0  0  0  0
  187.6960  176.9500  145.9130 N   0  0  0  0  0  0  0  0  0  0  0  0
  185.6810  178.7370  143.4260 C   0  0  0  0  0  3  0  0  0  0  0  0
  189.4300  175.1240  145.6670 C   0  0  0  0  0  0  0  0  0  0  0  0
  191.7070  172.8320  143.8880 C   0  0  0  0  0  2  0  0  0  0  0  0
  186.5700  177.8980  143.9930 C   0  0  0  0  0  0  0  0  0  0  0  0
  184.0450  179.1650  145.1740 N   0  0  0  0  0  2  0  0  0  0  0  0
  192.4780  174.5840  145.5480 C   0  0  2  0  0  3  0  0  0  0  0  0
  188.1800  176.0180  143.7490 C   0  0  0  0  0  0  0  0  0  0  0  0
  186.1770  178.7650  146.4500 C   0  0  2  0  0  3  0  0  0  0  0  0
  188.3930  176.0130  145.0770 C   0  0  0  0  0  0  0  0  0  0  0  0
  187.8460  176.1040  140.9720 C   0  0  0  0  0  3  0  0  0  0  0  0
  191.1860  176.0730  147.1360 C   0  0  0  0  0  2  0  0  0  0  0  0
  187.1770  176.9930  141.7170 C   0  0  0  0  0  3  0  0  0  0  0  0
  189.8530  175.3500  147.0850 C   0  0  0  0  0  2  0  0  0  0  0  0
  191.3760  173.5590  145.1980 C   0  0  1  0  0  3  0  0  0  0  0  0
  188.6830  175.1060  141.5840 N   0  0  0  0  0  0  0  0  0  0  0  0
  189.6080  173.9120  143.5040 C   0  0  1  0  0  3  0  0  0  0  0  0
  193.8690  173.9720  145.4180 C   0  0  0  0  0  2  0  0  0  0  0  0
  194.8770  174.9290  145.8430 N   0  0  0  0  0  2  0  0  0  0  0  0
  196.6920  172.5860  144.0690 N   0  0  0  0  0  2  0  0  0  0  0  0
  196.7810  173.6930  146.1760 C   0  0  0  0  0  2  0  0  0  0  0  0
  196.0820  174.5520  145.2360 N   0  0  0  0  0  0  0  0  0  0  0  0
  197.1590  172.4340  145.4330 C   0  0  0  0  0  2  0  0  0  0  0  0
  195.7400  173.6850  144.1200 C   0  0  0  0  0  2  0  0  0  0  0  0
  1 27  1  0  0  0  0
  1 18  1  0  0  0  0
  2 14  1  0  0  0  0
  3 19  1  0  0  0  0
  3  7  2  0  0  0  0
  4 18  1  0  0  0  0
  4 15  1  0  0  0  0
  5 11  2  0  0  0  0
  5 19  1  0  0  0  0
  8 16  1  0  0  0  0
  9 25  1  0  0  0  0
  9 13  2  0  0  0  0
 10 22  1  0  0  0  0
 12 15  2  0  0  0  0
 12  8  1  0  0  0  0
 13 24  1  0  0  0  0
 15  5  1  0  0  0  0
 16  3  1  0  0  0  0
 17 28  1  1  0  0  0
 17 10  1  0  0  0  0
 18 20  2  0  0  0  0
 19  6  1  1  0  0  0
 20 13  1  0  0  0  0
 20 11  1  0  0  0  0
 21 26  1  0  0  0  0
 21 23  2  0  0  0  0
 23  4  1  0  0  0  0
 24 22  1  0  0  0  0
 25 14  1  6  0  0  0
 25 17  1  0  0  0  0
 26  1  2  0  0  0  0
 27  2  1  6  0  0  0
 27  9  1  0  0  0  0
 28 29  1  0  0  0  0
 30 34  1  0  0  0  0
 30 33  1  0  0  0  0
 32 29  1  0  0  0  0
 32 31  1  0  0  0  0
 33 31  1  0  0  0  0
 34 32  1  0  0  0  0
M  END
>  <MODEL>
2

>  <REMARK>
 VINA RESULT:      -9.2      0.903      1.200
  Name = 
  3 active torsions:
  status: ('A' for Active; 'I' for Inactive)
    1  A    between atoms: C_17  and  C_28
    2  A    between atoms: C_28  and  N_29
    3  A    between atoms: N_29  and  N_32
                            x       y       z     vdW  Elec       q    Type
                         _______ _______ _______ _____ _____    ______ ____

>  <TORSDO>
F 3

$$$$
=
 OpenBabel11112418043D

 34 40  0  0  1  0  0  0  0  0999 V2000
  192.1350  175.8860  145.9260 C   0  0  0  0  0  0  0  0  0  0  0  0
  190.1250  177.4050  145.6020 C   0  0  0  0  0  2  0  0  0  0  0  0
  194.8160  169.9400  145.5700 C   0  0  0  0  0  0  0  0  0  0  0  0
  194.0860  174.3310  145.7020 N   0  0  0  0  0  0  0  0  0  0  0  0
  193.6780  172.0110  144.8350 C   0  0  0  0  0  0  0  0  0  0  0  0
  193.0350  169.7710  143.8020 C   0  0  0  0  0  1  0  0  0  0  0  0
  194.2620  168.9940  146.1920 O   0  0  0  0  0  0  0  0  0  0  0  0
  196.7030  171.5470  145.3150 C   0  0  0  0  0  2  0  0  0  0  0  0
  189.9300  175.1090  145.1010 C   0  0  0  0  0  0  0  0  0  0  0  0
  188.3570  174.4070  142.4140 C   0  0  0  0  0  2  0  0  0  0  0  0
  192.4190  172.3270  144.7060 N   0  0  0  0  0  0  0  0  0  0  0  0
  195.9430  172.8110  145.5910 C   0  0  0  0  0  3  0  0  0  0  0  0
  190.4440  173.9070  144.7630 C   0  0  0  0  0  0  0  0  0  0  0  0
  188.6940  177.1300  145.1520 C   0  0  0  0  0  2  0  0  0  0  0  0
  194.6330  173.0370  145.3730 C   0  0  0  0  0  0  0  0  0  0  0  0
  196.0890  170.4160  145.9940 N   0  0  0  0  0  2  0  0  0  0  0  0
  188.6950  175.7710  143.0140 C   0  0  2  0  0  3  0  0  0  0  0  0
  192.6760  174.5630  145.5520 C   0  0  0  0  0  0  0  0  0  0  0  0
  194.1320  170.6290  144.4270 C   0  0  2  0  0  3  0  0  0  0  0  0
  191.8710  173.6070  145.0570 C   0  0  0  0  0  0  0  0  0  0  0  0
  194.3630  176.6040  146.4610 C   0  0  0  0  0  3  0  0  0  0  0  0
  189.5150  173.4290  142.5160 C   0  0  0  0  0  2  0  0  0  0  0  0
  194.9110  175.4240  146.1460 C   0  0  0  0  0  3  0  0  0  0  0  0
  189.6550  172.9340  143.9430 C   0  0  0  0  0  2  0  0  0  0  0  0
  188.6720  175.7160  144.5570 C   0  0  1  0  0  3  0  0  0  0  0  0
  192.9400  176.8050  146.3740 N   0  0  0  0  0  0  0  0  0  0  0  0
  190.6470  176.0480  146.0100 C   0  0  1  0  0  3  0  0  0  0  0  0
  187.6770  176.7740  142.4770 C   0  0  0  0  0  2  0  0  0  0  0  0
  186.3290  176.2530  142.6410 N   0  0  0  0  0  2  0  0  0  0  0  0
  185.8980  179.5870  143.4300 N   0  0  0  0  0  2  0  0  0  0  0  0
  185.1190  177.4610  144.1690 C   0  0  0  0  0  2  0  0  0  0  0  0
  185.4760  177.3570  142.7650 N   0  0  0  0  0  0  0  0  0  0  0  0
  185.3990  178.8820  144.5950 C   0  0  0  0  0  2  0  0  0  0  0  0
  186.2740  178.5410  142.4920 C   0  0  0  0  0  2  0  0  0  0  0  0
  1 27  1  0  0  0  0
  1 26  2  0  0  0  0
  3 16  1  0  0  0  0
  3  7  2  0  0  0  0
  4 23  1  0  0  0  0
  5 15  1  0  0  0  0
  8 12  1  0  0  0  0
  8 16  1  0  0  0  0
  9 27  1  0  0  0  0
 10 22  1  0  0  0  0
 10 17  1  0  0  0  0
 11  5  2  0  0  0  0
 11 20  1  0  0  0  0
 13 20  1  0  0  0  0
 13  9  2  0  0  0  0
 14  2  1  0  0  0  0
 15 12  2  0  0  0  0
 15  4  1  0  0  0  0
 17 28  1  6  0  0  0
 17 25  1  0  0  0  0
 18  4  1  0  0  0  0
 18  1  1  0  0  0  0
 19  6  1  1  0  0  0
 19  5  1  0  0  0  0
 19  3  1  0  0  0  0
 20 18  2  0  0  0  0
 22 24  1  0  0  0  0
 23 21  2  0  0  0  0
 24 13  1  0  0  0  0
 25  9  1  0  0  0  0
 25 14  1  1  0  0  0
 26 21  1  0  0  0  0
 27  2  1  6  0  0  0
 28 29  1  0  0  0  0
 29 32  1  0  0  0  0
 30 33  1  0  0  0  0
 31 33  1  0  0  0  0
 32 31  1  0  0  0  0
 34 32  1  0  0  0  0
 34 30  1  0  0  0  0
M  END
>  <MODEL>
3

>  <REMARK>
 VINA RESULT:      -8.5      3.170      8.972
  Name = 
  3 active torsions:
  status: ('A' for Active; 'I' for Inactive)
    1  A    between atoms: C_17  and  C_28
    2  A    between atoms: C_28  and  N_29
    3  A    between atoms: N_29  and  N_32
                            x       y       z     vdW  Elec       q    Type
                         _______ _______ _______ _____ _____    ______ ____

>  <TORSDO>
F 3

$$$$
=
 OpenBabel11112418043D

 34 40  0  0  1  0  0  0  0  0999 V2000
  189.4140  174.2950  142.5990 C   0  0  0  0  0  0  0  0  0  0  0  0
  187.0750  175.2800  142.7290 C   0  0  0  0  0  2  0  0  0  0  0  0
  195.7130  174.5030  144.3120 C   0  0  0  0  0  0  0  0  0  0  0  0
  191.6480  173.2400  143.0080 N   0  0  0  0  0  0  0  0  0  0  0  0
  193.2530  174.3890  144.5570 C   0  0  0  0  0  0  0  0  0  0  0  0
  194.6440  175.6660  146.2700 C   0  0  0  0  0  1  0  0  0  0  0  0
  196.3670  175.5530  144.0690 O   0  0  0  0  0  0  0  0  0  0  0  0
  195.2210  172.1070  143.8410 C   0  0  0  0  0  2  0  0  0  0  0  0
  188.8360  176.3280  143.8950 C   0  0  0  0  0  0  0  0  0  0  0  0
  188.1440  177.3130  146.8520 C   0  0  0  0  0  2  0  0  0  0  0  0
  192.3440  175.3040  144.7520 N   0  0  0  0  0  0  0  0  0  0  0  0
  193.8280  172.2770  143.3120 C   0  0  0  0  0  3  0  0  0  0  0  0
  190.0440  176.3270  144.4980 C   0  0  0  0  0  0  0  0  0  0  0  0
  186.5210  176.5190  143.4220 C   0  0  0  0  0  2  0  0  0  0  0  0
  192.9520  173.2520  143.6240 C   0  0  0  0  0  0  0  0  0  0  0  0
  196.0140  173.3040  143.6050 N   0  0  0  0  0  2  0  0  0  0  0  0
  187.2650  176.5740  145.8440 C   0  0  2  0  0  3  0  0  0  0  0  0
  190.7310  174.3150  143.2670 C   0  0  0  0  0  0  0  0  0  0  0  0
  194.5720  174.5020  145.2850 C   0  0  2  0  0  3  0  0  0  0  0  0
  191.0540  175.3030  144.1190 C   0  0  0  0  0  0  0  0  0  0  0  0
  189.9970  172.1950  141.5930 C   0  0  0  0  0  3  0  0  0  0  0  0
  189.5620  176.7690  146.8880 C   0  0  0  0  0  2  0  0  0  0  0  0
  191.2080  172.1600  142.1620 C   0  0  0  0  0  3  0  0  0  0  0  0
  190.3270  177.2270  145.6600 C   0  0  0  0  0  2  0  0  0  0  0  0
  187.5990  177.0090  144.4000 C   0  0  1  0  0  3  0  0  0  0  0  0
  189.1120  173.3110  141.8030 N   0  0  0  0  0  0  0  0  0  0  0  0
  188.5630  175.5290  142.6670 C   0  0  1  0  0  3  0  0  0  0  0  0
  185.8110  176.8760  146.1940 C   0  0  0  0  0  2  0  0  0  0  0  0
  185.7410  178.0160  147.0940 N   0  0  0  0  0  2  0  0  0  0  0  0
  183.9540  179.0410  144.3210 N   0  0  0  0  0  2  0  0  0  0  0  0
  185.7900  179.7900  145.6410 C   0  0  0  0  0  2  0  0  0  0  0  0
  184.9270  178.9750  146.4770 N   0  0  0  0  0  0  0  0  0  0  0  0
  185.1740  179.8220  144.2630 C   0  0  0  0  0  2  0  0  0  0  0  0
  184.0660  178.2630  145.5450 C   0  0  0  0  0  2  0  0  0  0  0  0
  1 27  1  0  0  0  0
  1 18  1  0  0  0  0
  2 14  1  0  0  0  0
  3 19  1  0  0  0  0
  4 18  1  0  0  0  0
  4 15  1  0  0  0  0
  5 11  2  0  0  0  0
  5 19  1  0  0  0  0
  7  3  2  0  0  0  0
  9 25  1  0  0  0  0
  9 13  2  0  0  0  0
 10 22  1  0  0  0  0
 12 15  2  0  0  0  0
 12  8  1  0  0  0  0
 13 24  1  0  0  0  0
 15  5  1  0  0  0  0
 16  8  1  0  0  0  0
 16  3  1  0  0  0  0
 17 28  1  1  0  0  0
 17 10  1  0  0  0  0
 18 20  2  0  0  0  0
 19  6  1  6  0  0  0
 20 13  1  0  0  0  0
 20 11  1  0  0  0  0
 21 26  1  0  0  0  0
 21 23  2  0  0  0  0
 23  4  1  0  0  0  0
 24 22  1  0  0  0  0
 25 14  1  6  0  0  0
 25 17  1  0  0  0  0
 26  1  2  0  0  0  0
 27  2  1  1  0  0  0
 27  9  1  0  0  0  0
 28 29  1  0  0  0  0
 30 34  1  0  0  0  0
 31 32  1  0  0  0  0
 32 29  1  0  0  0  0
 33 30  1  0  0  0  0
 33 31  1  0  0  0  0
 34 32  1  0  0  0  0
M  END
>  <MODEL>
4

>  <REMARK>
 VINA RESULT:      -8.5      2.863      8.233
  Name = 
  3 active torsions:
  status: ('A' for Active; 'I' for Inactive)
    1  A    between atoms: C_17  and  C_28
    2  A    between atoms: C_28  and  N_29
    3  A    between atoms: N_29  and  N_32
                            x       y       z     vdW  Elec       q    Type
                         _______ _______ _______ _____ _____    ______ ____

>  <TORSDO>
F 3

$$$$
=
 OpenBabel11112418043D

 34 40  0  0  1  0  0  0  0  0999 V2000
  188.3310  175.4330  141.7330 C   0  0  0  0  0  0  0  0  0  0  0  0
  190.2750  173.9110  141.1320 C   0  0  0  0  0  2  0  0  0  0  0  0
  184.6710  178.3620  146.2810 C   0  0  0  0  0  0  0  0  0  0  0  0
  186.8080  177.2520  142.5360 N   0  0  0  0  0  0  0  0  0  0  0  0
  186.6870  177.7160  144.9990 C   0  0  0  0  0  0  0  0  0  0  0  0
  186.8460  178.0910  147.5160 C   0  0  0  0  0  1  0  0  0  0  0  0
  184.1090  177.6460  147.1510 O   0  0  0  0  0  0  0  0  0  0  0  0
  184.5360  179.8200  144.2640 C   0  0  0  0  0  2  0  0  0  0  0  0
  189.7800  174.3110  143.4020 C   0  0  0  0  0  0  0  0  0  0  0  0
  192.2970  174.8260  145.2970 C   0  0  0  0  0  2  0  0  0  0  0  0
  187.5820  176.7840  145.1760 N   0  0  0  0  0  0  0  0  0  0  0  0
  185.2670  178.9260  143.3080 C   0  0  0  0  0  3  0  0  0  0  0  0
  189.2520  175.0460  144.4040 C   0  0  0  0  0  0  0  0  0  0  0  0
  191.2490  173.1060  141.9850 C   0  0  0  0  0  2  0  0  0  0  0  0
  186.2170  178.0180  143.6060 C   0  0  0  0  0  0  0  0  0  0  0  0
  183.8850  179.0400  145.3060 N   0  0  0  0  0  2  0  0  0  0  0  0
  192.2510  174.5740  143.7910 C   0  0  2  0  0  3  0  0  0  0  0  0
  187.7630  176.2250  142.8440 C   0  0  0  0  0  0  0  0  0  0  0  0
  186.1650  178.4660  146.2020 C   0  0  2  0  0  3  0  0  0  0  0  0
  188.1530  176.0050  144.1120 C   0  0  0  0  0  0  0  0  0  0  0  0
  187.0590  176.7590  140.1880 C   0  0  0  0  0  3  0  0  0  0  0  0
  191.1970  175.7660  145.7590 C   0  0  0  0  0  2  0  0  0  0  0  0
  186.5040  177.5050  141.1510 C   0  0  0  0  0  3  0  0  0  0  0  0
  189.8640  175.0430  145.7700 C   0  0  0  0  0  2  0  0  0  0  0  0
  191.1030  173.6050  143.4290 C   0  0  1  0  0  3  0  0  0  0  0  0
  187.9620  175.6860  140.5110 N   0  0  0  0  0  0  0  0  0  0  0  0
  189.1270  174.2060  142.0670 C   0  0  1  0  0  3  0  0  0  0  0  0
  193.6070  174.0100  143.3770 C   0  0  0  0  0  2  0  0  0  0  0  0
  194.6320  174.4330  144.3170 N   0  0  0  0  0  2  0  0  0  0  0  0
  196.8090  176.7990  143.0570 N   0  0  0  0  0  2  0  0  0  0  0  0
  195.3270  175.1220  142.2430 C   0  0  0  0  0  2  0  0  0  0  0  0
  195.7770  174.7330  143.5680 N   0  0  0  0  0  0  0  0  0  0  0  0
  195.9780  176.4460  141.9230 C   0  0  0  0  0  2  0  0  0  0  0  0
  196.3510  175.9410  144.1380 C   0  0  0  0  0  2  0  0  0  0  0  0
  1 27  1  0  0  0  0
  1 18  1  0  0  0  0
  2 14  1  0  0  0  0
  3  7  2  0  0  0  0
  4 18  1  0  0  0  0
  4 15  1  0  0  0  0
  5 11  2  0  0  0  0
  5 19  1  0  0  0  0
  8 16  1  0  0  0  0
  9 25  1  0  0  0  0
  9 13  2  0  0  0  0
 10 22  1  0  0  0  0
 12 15  2  0  0  0  0
 12  8  1  0  0  0  0
 13 24  1  0  0  0  0
 15  5  1  0  0  0  0
 16  3  1  0  0  0  0
 17 28  1  1  0  0  0
 17 10  1  0  0  0  0
 18 20  2  0  0  0  0
 19  3  1  0  0  0  0
 19  6  1  1  0  0  0
 20 13  1  0  0  0  0
 20 11  1  0  0  0  0
 21 26  1  0  0  0  0
 21 23  2  0  0  0  0
 22 24  1  0  0  0  0
 23  4  1  0  0  0  0
 25 14  1  6  0  0  0
 25 17  1  0  0  0  0
 26  1  2  0  0  0  0
 27  2  1  6  0  0  0
 27  9  1  0  0  0  0
 28 29  1  0  0  0  0
 30 34  1  0  0  0  0
 31 32  1  0  0  0  0
 32 34  1  0  0  0  0
 32 29  1  0  0  0  0
 33 31  1  0  0  0  0
 33 30  1  0  0  0  0
M  END
>  <MODEL>
5

>  <REMARK>
 VINA RESULT:      -8.4      1.095      1.313
  Name = 
  3 active torsions:
  status: ('A' for Active; 'I' for Inactive)
    1  A    between atoms: C_17  and  C_28
    2  A    between atoms: C_28  and  N_29
    3  A    between atoms: N_29  and  N_32
                            x       y       z     vdW  Elec       q    Type
                         _______ _______ _______ _____ _____    ______ ____

>  <TORSDO>
F 3

$$$$
=
 OpenBabel11112418043D

 34 40  0  0  1  0  0  0  0  0999 V2000
  190.7890  173.5370  142.9870 C   0  0  0  0  0  0  0  0  0  0  0  0
  193.0910  172.4810  143.1830 C   0  0  0  0  0  2  0  0  0  0  0  0
  185.9710  177.0680  145.6300 C   0  0  0  0  0  0  0  0  0  0  0  0
  188.7970  175.0480  142.8440 N   0  0  0  0  0  0  0  0  0  0  0  0
  188.2370  176.4880  144.8210 C   0  0  0  0  0  0  0  0  0  0  0  0
  187.9610  177.9490  146.8930 C   0  0  0  0  0  1  0  0  0  0  0  0
  185.4730  176.6820  146.7210 O   0  0  0  0  0  0  0  0  0  0  0  0
  185.7840  177.4080  143.1680 C   0  0  0  0  0  2  0  0  0  0  0  0
  192.2130  173.6830  145.0110 C   0  0  0  0  0  0  0  0  0  0  0  0
  194.2630  175.6180  146.5080 C   0  0  0  0  0  2  0  0  0  0  0  0
  189.2880  176.0000  145.4200 N   0  0  0  0  0  0  0  0  0  0  0  0
  186.8240  176.4160  142.7390 C   0  0  0  0  0  3  0  0  0  0  0  0
  191.3990  174.6120  145.5570 C   0  0  0  0  0  0  0  0  0  0  0  0
  194.0970  172.4180  144.3270 C   0  0  0  0  0  2  0  0  0  0  0  0
  187.9060  176.0160  143.4350 C   0  0  0  0  0  0  0  0  0  0  0  0
  185.1920  177.0180  144.4390 N   0  0  0  0  0  2  0  0  0  0  0  0
  194.4820  174.7330  145.2820 C   0  0  2  0  0  3  0  0  0  0  0  0
  189.9090  174.5510  143.6040 C   0  0  0  0  0  0  0  0  0  0  0  0
  187.3990  177.5190  145.5400 C   0  0  2  0  0  3  0  0  0  0  0  0
  190.1610  175.0180  144.8390 C   0  0  0  0  0  0  0  0  0  0  0  0
  189.4720  173.6680  140.9840 C   0  0  0  0  0  3  0  0  0  0  0  0
  192.9250  176.3370  146.4710 C   0  0  0  0  0  2  0  0  0  0  0  0
  188.6350  174.5820  141.4910 C   0  0  0  0  0  3  0  0  0  0  0  0
  191.8030  175.3660  146.7850 C   0  0  0  0  0  2  0  0  0  0  0  0
  193.6460  173.4380  145.3810 C   0  0  1  0  0  3  0  0  0  0  0  0
  190.5430  173.1240  141.7780 N   0  0  0  0  0  0  0  0  0  0  0  0
  191.7890  172.8380  143.8590 C   0  0  1  0  0  3  0  0  0  0  0  0
  195.9740  174.4270  145.1970 C   0  0  0  0  0  2  0  0  0  0  0  0
  196.6130  175.3190  144.2430 N   0  0  0  0  0  2  0  0  0  0  0  0
  196.7210  174.6100  140.8640 N   0  0  0  0  0  2  0  0  0  0  0  0
  196.0990  176.4120  142.2920 C   0  0  0  0  0  2  0  0  0  0  0  0
  195.9360  175.1690  143.0250 N   0  0  0  0  0  0  0  0  0  0  0  0
  196.6100  176.0550  140.9180 C   0  0  0  0  0  2  0  0  0  0  0  0
  196.6710  174.1800  142.2530 C   0  0  0  0  0  2  0  0  0  0  0  0
  1 18  1  0  0  0  0
  1 27  1  0  0  0  0
  2 14  1  0  0  0  0
  3  7  2  0  0  0  0
  4 15  1  0  0  0  0
  4 18  1  0  0  0  0
  5 11  2  0  0  0  0
  5 19  1  0  0  0  0
  8 16  1  0  0  0  0
  9 25  1  0  0  0  0
  9 13  2  0  0  0  0
 12  8  1  0  0  0  0
 12 15  2  0  0  0  0
 13 24  1  0  0  0  0
 15  5  1  0  0  0  0
 16  3  1  0  0  0  0
 17 28  1  1  0  0  0
 17 25  1  0  0  0  0
 17 10  1  0  0  0  0
 18 20  2  0  0  0  0
 19  3  1  0  0  0  0
 19  6  1  1  0  0  0
 20 11  1  0  0  0  0
 20 13  1  0  0  0  0
 21 23  2  0  0  0  0
 21 26  1  0  0  0  0
 22 10  1  0  0  0  0
 22 24  1  0  0  0  0
 23  4  1  0  0  0  0
 25 14  1  6  0  0  0
 26  1  2  0  0  0  0
 27  2  1  6  0  0  0
 27  9  1  0  0  0  0
 29 28  1  0  0  0  0
 30 33  1  0  0  0  0
 30 34  1  0  0  0  0
 31 32  1  0  0  0  0
 32 29  1  0  0  0  0
 33 31  1  0  0  0  0
 34 32  1  0  0  0  0
M  END
>  <MODEL>
6

>  <REMARK>
 VINA RESULT:      -8.2      1.550      2.279
  Name = 
  3 active torsions:
  status: ('A' for Active; 'I' for Inactive)
    1  A    between atoms: C_17  and  C_28
    2  A    between atoms: C_28  and  N_29
    3  A    between atoms: N_29  and  N_32
                            x       y       z     vdW  Elec       q    Type
                         _______ _______ _______ _____ _____    ______ ____

>  <TORSDO>
F 3

$$$$
=
 OpenBabel11112418043D

 34 40  0  0  1  0  0  0  0  0999 V2000
  187.6980  175.9980  140.8020 C   0  0  0  0  0  0  0  0  0  0  0  0
  185.8760  177.5780  140.0010 C   0  0  0  0  0  2  0  0  0  0  0  0
  191.7160  173.9760  145.5380 C   0  0  0  0  0  0  0  0  0  0  0  0
  189.1090  174.2700  141.9400 N   0  0  0  0  0  0  0  0  0  0  0  0
  189.6000  174.5420  144.3860 C   0  0  0  0  0  0  0  0  0  0  0  0
  189.8360  174.9610  146.8890 C   0  0  0  0  0  1  0  0  0  0  0  0
  192.5020  174.8130  146.0560 O   0  0  0  0  0  0  0  0  0  0  0  0
  191.3250  171.9860  144.0900 C   0  0  0  0  0  2  0  0  0  0  0  0
  186.7050  177.7900  142.1980 C   0  0  0  0  0  0  0  0  0  0  0  0
  184.5120  178.2870  144.4630 C   0  0  0  0  0  2  0  0  0  0  0  0
  188.8670  175.6210  144.3700 N   0  0  0  0  0  0  0  0  0  0  0  0
  190.5510  172.6670  143.0000 C   0  0  0  0  0  3  0  0  0  0  0  0
  187.3080  177.3060  143.3050 C   0  0  0  0  0  0  0  0  0  0  0  0
  185.1680  178.7490  140.6710 C   0  0  0  0  0  2  0  0  0  0  0  0
  189.7820  173.7680  143.1130 C   0  0  0  0  0  0  0  0  0  0  0  0
  192.2350  172.9190  144.7370 N   0  0  0  0  0  2  0  0  0  0  0  0
  184.3260  178.0700  142.9620 C   0  0  2  0  0  3  0  0  0  0  0  0
  188.3520  175.4870  142.0240 C   0  0  0  0  0  0  0  0  0  0  0  0
  190.2290  174.1050  145.6870 C   0  0  2  0  0  3  0  0  0  0  0  0
  188.2170  176.1340  143.1950 C   0  0  0  0  0  0  0  0  0  0  0  0
  188.5160  174.0820  139.6090 C   0  0  0  0  0  3  0  0  0  0  0  0
  185.5550  177.3550  145.0560 C   0  0  0  0  0  2  0  0  0  0  0  0
  189.1370  173.5720  140.6800 C   0  0  0  0  0  3  0  0  0  0  0  0
  186.9470  177.8160  144.6660 C   0  0  0  0  0  2  0  0  0  0  0  0
  185.5010  178.6820  142.1680 C   0  0  1  0  0  3  0  0  0  0  0  0
  187.8170  175.3380  139.6870 N   0  0  0  0  0  0  0  0  0  0  0  0
  187.1250  177.3840  140.8270 C   0  0  1  0  0  3  0  0  0  0  0  0
  182.9960  178.7050  142.5680 C   0  0  0  0  0  2  0  0  0  0  0  0
  182.3570  177.9180  141.5260 N   0  0  0  0  0  2  0  0  0  0  0  0
  179.1970  179.3100  141.4350 N   0  0  0  0  0  2  0  0  0  0  0  0
  180.5690  177.9040  140.0880 C   0  0  0  0  0  2  0  0  0  0  0  0
  181.4310  178.7550  140.8900 N   0  0  0  0  0  0  0  0  0  0  0  0
  179.1440  178.2510  140.4460 C   0  0  0  0  0  2  0  0  0  0  0  0
  180.5660  179.2940  141.9260 C   0  0  0  0  0  2  0  0  0  0  0  0
  1 27  1  0  0  0  0
  1 18  1  0  0  0  0
  2 14  1  0  0  0  0
  3 19  1  0  0  0  0
  3  7  2  0  0  0  0
  4 18  1  0  0  0  0
  4 15  1  0  0  0  0
  5 19  1  0  0  0  0
  8 16  1  0  0  0  0
  9 13  2  0  0  0  0
 10 22  1  0  0  0  0
 11  5  2  0  0  0  0
 12 15  2  0  0  0  0
 12  8  1  0  0  0  0
 13 24  1  0  0  0  0
 15  5  1  0  0  0  0
 16  3  1  0  0  0  0
 17 28  1  6  0  0  0
 17 10  1  0  0  0  0
 18 20  2  0  0  0  0
 19  6  1  1  0  0  0
 20 13  1  0  0  0  0
 20 11  1  0  0  0  0
 21 26  1  0  0  0  0
 21 23  2  0  0  0  0
 23  4  1  0  0  0  0
 24 22  1  0  0  0  0
 25 14  1  6  0  0  0
 25  9  1  0  0  0  0
 25 17  1  0  0  0  0
 26  1  2  0  0  0  0
 27  2  1  6  0  0  0
 27  9  1  0  0  0  0
 29 28  1  0  0  0  0
 30 34  1  0  0  0  0
 31 33  1  0  0  0  0
 31 32  1  0  0  0  0
 32 29  1  0  0  0  0
 32 34  1  0  0  0  0
 33 30  1  0  0  0  0
M  END
>  <MODEL>
7

>  <REMARK>
 VINA RESULT:      -8.2      3.180      9.197
  Name = 
  3 active torsions:
  status: ('A' for Active; 'I' for Inactive)
    1  A    between atoms: C_17  and  C_28
    2  A    between atoms: C_28  and  N_29
    3  A    between atoms: N_29  and  N_32
                            x       y       z     vdW  Elec       q    Type
                         _______ _______ _______ _____ _____    ______ ____

>  <TORSDO>
F 3

$$$$
=
 OpenBabel11112418043D

 34 40  0  0  1  0  0  0  0  0999 V2000
  189.2190  174.3040  142.1820 C   0  0  0  0  0  0  0  0  0  0  0  0
  191.2070  173.0520  143.1500 C   0  0  0  0  0  2  0  0  0  0  0  0
  184.3410  178.5790  142.9500 C   0  0  0  0  0  0  0  0  0  0  0  0
  187.5680  175.9790  141.3220 N   0  0  0  0  0  0  0  0  0  0  0  0
  186.6490  177.6860  142.9160 C   0  0  0  0  0  0  0  0  0  0  0  0
  185.9730  179.3960  144.6820 C   0  0  0  0  0  1  0  0  0  0  0  0
  183.5010  178.3720  143.8670 O   0  0  0  0  0  0  0  0  0  0  0  0
  184.9250  178.6500  140.5290 C   0  0  0  0  0  2  0  0  0  0  0  0
  189.9980  174.5390  144.5240 C   0  0  0  0  0  0  0  0  0  0  0  0
  191.7570  176.4190  146.4110 C   0  0  0  0  0  2  0  0  0  0  0  0
  187.4080  177.1680  143.8420 N   0  0  0  0  0  0  0  0  0  0  0  0
  185.9060  177.5160  140.5150 C   0  0  0  0  0  3  0  0  0  0  0  0
  189.1880  175.6010  144.7220 C   0  0  0  0  0  0  0  0  0  0  0  0
  191.8190  173.0220  144.5460 C   0  0  0  0  0  2  0  0  0  0  0  0
  186.6770  177.0930  141.5370 C   0  0  0  0  0  0  0  0  0  0  0  0
  183.9430  178.4700  141.5880 N   0  0  0  0  0  2  0  0  0  0  0  0
  192.2060  175.3810  145.3840 C   0  0  2  0  0  3  0  0  0  0  0  0
  188.3370  175.4650  142.4210 C   0  0  0  0  0  0  0  0  0  0  0  0
  185.7790  178.8710  143.2610 C   0  0  2  0  0  3  0  0  0  0  0  0
  188.2770  176.0430  143.6330 C   0  0  0  0  0  0  0  0  0  0  0  0
  188.5710  174.3330  139.8710 C   0  0  0  0  0  3  0  0  0  0  0  0
  190.5930  177.2590  145.9130 C   0  0  0  0  0  2  0  0  0  0  0  0
  187.7490  175.3780  140.0260 C   0  0  0  0  0  3  0  0  0  0  0  0
  189.3120  176.4470  145.9500 C   0  0  0  0  0  2  0  0  0  0  0  0
  191.2170  174.1970  145.3290 C   0  0  1  0  0  3  0  0  0  0  0  0
  189.2840  173.7810  140.9930 N   0  0  0  0  0  0  0  0  0  0  0  0
  189.8230  173.6130  143.3690 C   0  0  1  0  0  3  0  0  0  0  0  0
  193.6060  174.9200  145.7790 C   0  0  0  0  0  2  0  0  0  0  0  0
  194.5570  175.2600  144.7330 N   0  0  0  0  0  2  0  0  0  0  0  0
  197.8300  174.1570  144.7090 N   0  0  0  0  0  2  0  0  0  0  0  0
  195.9220  174.0590  146.1320 C   0  0  0  0  0  2  0  0  0  0  0  0
  195.8290  175.2600  145.3210 N   0  0  0  0  0  0  0  0  0  0  0  0
  197.1930  173.3500  145.7320 C   0  0  0  0  0  2  0  0  0  0  0  0
  196.7910  175.0640  144.2480 C   0  0  0  0  0  2  0  0  0  0  0  0
  1 18  1  0  0  0  0
  1 27  1  0  0  0  0
  2 14  1  0  0  0  0
  3 19  1  0  0  0  0
  3  7  2  0  0  0  0
  4 15  1  0  0  0  0
  4 18  1  0  0  0  0
  5 19  1  0  0  0  0
  5 11  2  0  0  0  0
  8 16  1  0  0  0  0
  9 13  2  0  0  0  0
  9 25  1  0  0  0  0
 12  8  1  0  0  0  0
 12 15  2  0  0  0  0
 13 24  1  0  0  0  0
 15  5  1  0  0  0  0
 16  3  1  0  0  0  0
 17 28  1  1  0  0  0
 17 10  1  0  0  0  0
 18 20  2  0  0  0  0
 19  6  1  1  0  0  0
 20 11  1  0  0  0  0
 20 13  1  0  0  0  0
 21 23  2  0  0  0  0
 21 26  1  0  0  0  0
 22 24  1  0  0  0  0
 22 10  1  0  0  0  0
 23  4  1  0  0  0  0
 25 14  1  6  0  0  0
 25 17  1  0  0  0  0
 26  1  2  0  0  0  0
 27  2  1  6  0  0  0
 27  9  1  0  0  0  0
 29 32  1  0  0  0  0
 29 28  1  0  0  0  0
 30 33  1  0  0  0  0
 32 31  1  0  0  0  0
 33 31  1  0  0  0  0
 34 30  1  0  0  0  0
 34 32  1  0  0  0  0
M  END
>  <MODEL>
8

>  <REMARK>
 VINA RESULT:      -8.1      1.557      2.203
  Name = 
  3 active torsions:
  status: ('A' for Active; 'I' for Inactive)
    1  A    between atoms: C_17  and  C_28
    2  A    between atoms: C_28  and  N_29
    3  A    between atoms: N_29  and  N_32
                            x       y       z     vdW  Elec       q    Type
                         _______ _______ _______ _____ _____    ______ ____

>  <TORSDO>
F 3

$$$$
=
 OpenBabel11112418043D

 34 40  0  0  1  0  0  0  0  0999 V2000
  192.4790  176.0720  145.5980 C   0  0  0  0  0  0  0  0  0  0  0  0
  190.3360  176.3340  146.9360 C   0  0  0  0  0  2  0  0  0  0  0  0
  195.5400  173.9610  140.2280 C   0  0  0  0  0  0  0  0  0  0  0  0
  194.3370  176.1400  143.9200 N   0  0  0  0  0  0  0  0  0  0  0  0
  193.9220  175.2020  141.6300 C   0  0  0  0  0  0  0  0  0  0  0  0
  193.2140  174.3250  139.3430 C   0  0  0  0  0  1  0  0  0  0  0  0
  195.4460  172.7420  139.9230 O   0  0  0  0  0  0  0  0  0  0  0  0
  196.8900  175.8820  141.0630 C   0  0  0  0  0  2  0  0  0  0  0  0
  190.2650  175.2480  144.8440 C   0  0  0  0  0  0  0  0  0  0  0  0
  187.8020  176.0200  142.9680 C   0  0  0  0  0  2  0  0  0  0  0  0
  192.7000  174.9420  142.0040 N   0  0  0  0  0  0  0  0  0  0  0  0
  196.1570  176.1120  142.3500 C   0  0  0  0  0  3  0  0  0  0  0  0
  190.7440  174.9930  143.6080 C   0  0  0  0  0  0  0  0  0  0  0  0
  188.9040  175.8770  146.6810 C   0  0  0  0  0  2  0  0  0  0  0  0
  194.8630  175.8390  142.6110 C   0  0  0  0  0  0  0  0  0  0  0  0
  196.7930  174.4890  140.6540 N   0  0  0  0  0  2  0  0  0  0  0  0
  188.1720  176.5510  144.3510 C   0  0  2  0  0  3  0  0  0  0  0  0
  192.9840  175.7820  144.2400 C   0  0  0  0  0  0  0  0  0  0  0  0
  194.3430  174.8630  140.2190 C   0  0  2  0  0  3  0  0  0  0  0  0
  192.1850  175.2190  143.3160 C   0  0  0  0  0  0  0  0  0  0  0  0
  194.5960  177.0700  146.1300 C   0  0  0  0  0  3  0  0  0  0  0  0
  189.0130  175.8660  142.0640 C   0  0  0  0  0  2  0  0  0  0  0  0
  195.1130  176.8270  144.9200 C   0  0  0  0  0  3  0  0  0  0  0  0
  189.8220  174.6520  142.4790 C   0  0  0  0  0  2  0  0  0  0  0  0
  188.8240  175.4460  145.2100 C   0  0  1  0  0  3  0  0  0  0  0  0
  193.2620  176.6450  146.4640 N   0  0  0  0  0  0  0  0  0  0  0  0
  191.1650  175.4780  146.0100 C   0  0  1  0  0  3  0  0  0  0  0  0
  186.8950  177.0780  144.9980 C   0  0  0  0  0  2  0  0  0  0  0  0
  186.5100  178.3410  144.3880 N   0  0  0  0  0  2  0  0  0  0  0  0
  184.8860  178.4510  147.4340 N   0  0  0  0  0  2  0  0  0  0  0  0
  184.4340  178.9490  145.1490 C   0  0  0  0  0  2  0  0  0  0  0  0
  185.8610  179.0920  145.3760 N   0  0  0  0  0  0  0  0  0  0  0  0
  183.8150  178.5280  146.4610 C   0  0  0  0  0  2  0  0  0  0  0  0
  186.1070  178.4260  146.6450 C   0  0  0  0  0  2  0  0  0  0  0  0
  1 27  1  0  0  0  0
  1 26  2  0  0  0  0
  3 16  1  0  0  0  0
  4 18  1  0  0  0  0
  4 23  1  0  0  0  0
  5 11  2  0  0  0  0
  5 15  1  0  0  0  0
  7  3  2  0  0  0  0
  8 12  1  0  0  0  0
  9 25  1  0  0  0  0
  9 27  1  0  0  0  0
 10 17  1  0  0  0  0
 11 20  1  0  0  0  0
 12 15  2  0  0  0  0
 13  9  2  0  0  0  0
 14  2  1  0  0  0  0
 15  4  1  0  0  0  0
 16  8  1  0  0  0  0
 17 28  1  1  0  0  0
 17 25  1  0  0  0  0
 18  1  1  0  0  0  0
 19  6  1  1  0  0  0
 19  3  1  0  0  0  0
 19  5  1  0  0  0  0
 20 13  1  0  0  0  0
 20 18  2  0  0  0  0
 21 26  1  0  0  0  0
 22 24  1  0  0  0  0
 22 10  1  0  0  0  0
 23 21  2  0  0  0  0
 24 13  1  0  0  0  0
 25 14  1  1  0  0  0
 27  2  1  1  0  0  0
 29 28  1  0  0  0  0
 29 32  1  0  0  0  0
 31 32  1  0  0  0  0
 31 33  1  0  0  0  0
 32 34  1  0  0  0  0
 33 30  1  0  0  0  0
 34 30  1  0  0  0  0
M  END
>  <MODEL>
9

>  <REMARK>
 VINA RESULT:      -8.1      3.256      8.959
  Name = 
  3 active torsions:
  status: ('A' for Active; 'I' for Inactive)
    1  A    between atoms: C_17  and  C_28
    2  A    between atoms: C_28  and  N_29
    3  A    between atoms: N_29  and  N_32
                            x       y       z     vdW  Elec       q    Type
                         _______ _______ _______ _____ _____    ______ ____

>  <TORSDO>
F 3

$$$$
