=
 OpenBabel11112416213D

 30 35  0  0  1  0  0  0  0  0999 V2000
  187.2760  177.6550  144.3880 C   0  0  0  0  0  0  0  0  0  0  0  0
  185.5510  178.6220  145.9340 C   0  0  0  0  0  0  0  0  0  0  0  0
  189.9950  177.1520  147.4790 O   0  0  0  0  0  0  0  0  0  0  0  0
  188.5820  177.1390  144.2070 C   0  0  0  0  0  0  0  0  0  0  0  0
  186.4340  177.7280  143.2710 O   0  0  0  0  0  0  0  0  0  0  0  0
  188.5660  178.4420  141.4130 O   0  0  0  0  0  1  0  0  0  0  0  0
  191.4280  176.3110  142.9360 C   0  0  1  0  0  3  0  0  0  0  0  0
  188.2190  177.1250  141.7330 C   0  0  2  0  0  3  0  0  0  0  0  0
  191.7440  176.9040  144.3200 C   0  0  2  0  0  3  0  0  0  0  0  0
  191.1290  176.6050  146.8000 C   0  0  1  0  0  3  0  0  0  0  0  0
  186.7270  177.0290  142.0590 C   0  0  2  0  0  3  0  0  0  0  0  0
  188.9870  176.6930  142.8980 N   0  0  0  0  0  0  0  0  0  0  0  0
  185.1910  178.9860  147.2360 C   0  0  0  0  0  3  0  0  0  0  0  0
  193.1550  176.4740  144.7120 C   0  0  0  0  0  2  0  0  0  0  0  0
  192.5440  175.3790  142.5100 C   0  0  0  0  0  2  0  0  0  0  0  0
  184.3340  178.8990  144.6940 Cl  0  0  0  0  0  0  0  0  0  0  0  0
  188.9950  177.3880  146.5580 C   0  0  0  0  0  0  0  0  0  0  0  0
  186.0760  178.8210  148.3000 C   0  0  0  0  0  3  0  0  0  0  0  0
  186.8380  178.0730  145.6830 C   0  0  0  0  0  0  0  0  0  0  0  0
  189.4200  177.0340  145.3190 C   0  0  0  0  0  0  0  0  0  0  0  0
  191.3800  175.1930  147.2970 C   0  0  0  0  0  1  0  0  0  0  0  0
  190.7690  176.5730  145.3690 N   0  0  0  0  0  0  0  0  0  0  0  0
  194.0710  176.0410  143.2100 S   0  0  0  0  0  0  0  0  0  0  0  0
  189.7830  174.4220  143.4720 C   0  0  0  0  0  1  0  0  0  0  0  0
  187.3420  178.2860  148.0770 C   0  0  0  0  0  3  0  0  0  0  0  0
  187.7280  177.9160  146.7870 C   0  0  0  0  0  0  0  0  0  0  0  0
  190.0440  175.7080  142.6930 C   0  0  2  0  0  3  0  0  0  0  0  0
  185.8830  177.5400  140.9390 C   0  0  0  0  0  3  0  0  0  0  0  0
  183.9840  178.6660  140.1380 O   0  0  0  0  0  1  0  0  0  0  0  0
  184.7590  178.1940  141.1880 C   0  0  0  0  0  3  0  0  0  0  0  0
  1 19  1  0  0  0  0
  2 13  1  0  0  0  0
  4  1  2  0  0  0  0
  4 20  1  0  0  0  0
  5  1  1  0  0  0  0
  7 15  1  1  0  0  0
  7  9  1  0  0  0  0
  8  6  1  1  0  0  0
  8 11  1  0  0  0  0
  8 12  1  0  0  0  0
  9 14  1  1  0  0  0
  9 22  1  0  0  0  0
 10 21  1  1  0  0  0
 10  3  1  0  0  0  0
 11 28  1  6  0  0  0
 11  5  1  0  0  0  0
 12  4  1  0  0  0  0
 13 18  2  0  0  0  0
 15 23  1  0  0  0  0
 16  2  1  0  0  0  0
 17 26  1  0  0  0  0
 17  3  1  0  0  0  0
 19  2  2  0  0  0  0
 19 26  1  0  0  0  0
 20 22  1  0  0  0  0
 20 17  2  0  0  0  0
 22 10  1  0  0  0  0
 23 14  1  0  0  0  0
 25 18  1  0  0  0  0
 26 25  2  0  0  0  0
 27 12  1  0  0  0  0
 27  7  1  0  0  0  0
 27 24  1  1  0  0  0
 28 30  2  0  0  0  0
 29 30  1  0  0  0  0
M  END
>  <MODEL>
1

>  <REMARK>
 VINA RESULT:      -8.9      0.000      0.000
  Name = 
  1 active torsions:
  status: ('A' for Active; 'I' for Inactive)
    1  A    between atoms: C_11  and  C_28
                            x       y       z     vdW  Elec       q    Type
                         _______ _______ _______ _____ _____    ______ ____

>  <TORSDO>
F 1

$$$$
=
 OpenBabel11112416213D

 30 35  0  0  1  0  0  0  0  0999 V2000
  188.3100  177.2480  146.1700 C   0  0  0  0  0  0  0  0  0  0  0  0
  186.4030  178.4730  147.2480 C   0  0  0  0  0  0  0  0  0  0  0  0
  186.1020  176.5010  142.7400 O   0  0  0  0  0  0  0  0  0  0  0  0
  188.8040  176.5120  145.0660 C   0  0  0  0  0  0  0  0  0  0  0  0
  189.1730  177.4740  147.2510 O   0  0  0  0  0  0  0  0  0  0  0  0
  190.4700  174.8680  147.0720 O   0  0  0  0  0  1  0  0  0  0  0  0
  190.4600  174.4550  143.2150 C   0  0  1  0  0  3  0  0  0  0  0  0
  190.8830  175.9950  146.3550 C   0  0  2  0  0  3  0  0  0  0  0  0
  188.9900  174.3200  142.7790 C   0  0  2  0  0  3  0  0  0  0  0  0
  187.0240  175.7520  141.9430 C   0  0  1  0  0  3  0  0  0  0  0  0
  190.5840  177.2720  147.1440 C   0  0  2  0  0  3  0  0  0  0  0  0
  190.1670  176.0470  145.0820 N   0  0  0  0  0  0  0  0  0  0  0  0
  185.0910  178.9500  147.1540 C   0  0  0  0  0  3  0  0  0  0  0  0
  188.9590  173.6410  141.4130 C   0  0  0  0  0  2  0  0  0  0  0  0
  191.3720  174.0260  142.0840 C   0  0  0  0  0  2  0  0  0  0  0  0
  187.2430  178.8240  148.7540 Cl  0  0  0  0  0  0  0  0  0  0  0  0
  186.7050  176.8160  143.9410 C   0  0  0  0  0  0  0  0  0  0  0  0
  184.3250  178.7270  146.0120 C   0  0  0  0  0  3  0  0  0  0  0  0
  186.9720  177.7490  146.1650 C   0  0  0  0  0  0  0  0  0  0  0  0
  187.9610  176.3050  143.9710 C   0  0  0  0  0  0  0  0  0  0  0  0
  187.3690  176.5450  140.6950 C   0  0  0  0  0  1  0  0  0  0  0  0
  188.2320  175.5800  142.7730 N   0  0  0  0  0  0  0  0  0  0  0  0
  190.5040  172.7250  141.1810 S   0  0  0  0  0  0  0  0  0  0  0  0
  190.9310  176.9560  142.9120 C   0  0  0  0  0  1  0  0  0  0  0  0
  184.8610  178.0190  144.9400 C   0  0  0  0  0  3  0  0  0  0  0  0
  186.1670  177.5300  145.0080 C   0  0  0  0  0  0  0  0  0  0  0  0
  190.9180  175.7630  143.8640 C   0  0  2  0  0  3  0  0  0  0  0  0
  191.2160  177.2450  148.4960 C   0  0  0  0  0  3  0  0  0  0  0  0
  191.6240  178.2080  150.5990 O   0  0  0  0  0  1  0  0  0  0  0  0
  191.0320  178.2450  149.3440 C   0  0  0  0  0  3  0  0  0  0  0  0
  1  5  1  0  0  0  0
  2 16  1  0  0  0  0
  3 17  1  0  0  0  0
  4 12  1  0  0  0  0
  4  1  2  0  0  0  0
  7 15  1  6  0  0  0
  7 27  1  0  0  0  0
  8  6  1  1  0  0  0
  8 11  1  0  0  0  0
  9 14  1  6  0  0  0
  9  7  1  0  0  0  0
 10 21  1  6  0  0  0
 10  3  1  0  0  0  0
 10 22  1  0  0  0  0
 11  5  1  0  0  0  0
 11 28  1  1  0  0  0
 12  8  1  0  0  0  0
 13  2  1  0  0  0  0
 17 20  2  0  0  0  0
 17 26  1  0  0  0  0
 18 13  2  0  0  0  0
 19  1  1  0  0  0  0
 19  2  2  0  0  0  0
 20  4  1  0  0  0  0
 22  9  1  0  0  0  0
 22 20  1  0  0  0  0
 23 14  1  0  0  0  0
 23 15  1  0  0  0  0
 25 26  2  0  0  0  0
 25 18  1  0  0  0  0
 26 19  1  0  0  0  0
 27 24  1  6  0  0  0
 27 12  1  0  0  0  0
 28 30  2  0  0  0  0
 30 29  1  0  0  0  0
M  END
>  <MODEL>
2

>  <REMARK>
 VINA RESULT:      -8.7      2.077      5.300
  Name = 
  1 active torsions:
  status: ('A' for Active; 'I' for Inactive)
    1  A    between atoms: C_11  and  C_28
                            x       y       z     vdW  Elec       q    Type
                         _______ _______ _______ _____ _____    ______ ____

>  <TORSDO>
F 1

$$$$
=
 OpenBabel11112416213D

 30 35  0  0  1  0  0  0  0  0999 V2000
  188.8480  175.8850  144.4070 C   0  0  0  0  0  0  0  0  0  0  0  0
  189.6980  176.6590  146.6380 C   0  0  0  0  0  0  0  0  0  0  0  0
  192.0590  173.3100  143.8990 O   0  0  0  0  0  0  0  0  0  0  0  0
  189.0360  175.0850  143.2530 C   0  0  0  0  0  0  0  0  0  0  0  0
  187.6950  176.6770  144.4800 O   0  0  0  0  0  0  0  0  0  0  0  0
  187.6720  177.3280  141.6370 O   0  0  0  0  0  1  0  0  0  0  0  0
  188.9620  173.9480  140.2370 C   0  0  1  0  0  3  0  0  0  0  0  0
  187.0660  176.1910  142.1810 C   0  0  2  0  0  3  0  0  0  0  0  0
  190.4190  173.7910  140.7080 C   0  0  2  0  0  3  0  0  0  0  0  0
  191.7910  172.7410  142.6140 C   0  0  1  0  0  3  0  0  0  0  0  0
  186.5830  176.4720  143.6060 C   0  0  2  0  0  3  0  0  0  0  0  0
  188.0350  175.0980  142.2180 N   0  0  0  0  0  0  0  0  0  0  0  0
  190.6720  176.5650  147.6380 C   0  0  0  0  0  3  0  0  0  0  0  0
  191.1150  172.7980  139.7820 C   0  0  0  0  0  2  0  0  0  0  0  0
  188.6710  172.9540  139.1310 C   0  0  0  0  0  2  0  0  0  0  0  0
  188.3920  177.7990  146.9420 Cl  0  0  0  0  0  0  0  0  0  0  0  0
  191.0610  174.2130  144.2020 C   0  0  0  0  0  0  0  0  0  0  0  0
  191.7580  175.7020  147.5050 C   0  0  0  0  0  3  0  0  0  0  0  0
  189.8100  175.8660  145.4640 C   0  0  0  0  0  0  0  0  0  0  0  0
  190.1680  174.2700  143.1830 C   0  0  0  0  0  0  0  0  0  0  0  0
  191.5330  171.2530  142.7660 C   0  0  0  0  0  1  0  0  0  0  0  0
  190.5710  173.4090  142.1200 N   0  0  0  0  0  0  0  0  0  0  0  0
  190.2100  172.7300  138.2140 S   0  0  0  0  0  0  0  0  0  0  0  0
  187.6330  172.6650  142.0130 C   0  0  0  0  0  1  0  0  0  0  0  0
  191.8880  174.9160  146.3630 C   0  0  0  0  0  3  0  0  0  0  0  0
  190.9310  174.9920  145.3490 C   0  0  0  0  0  0  0  0  0  0  0  0
  187.8500  173.9900  141.2860 C   0  0  2  0  0  3  0  0  0  0  0  0
  185.6540  177.6390  143.6530 C   0  0  0  0  0  3  0  0  0  0  0  0
  185.0850  179.7910  144.4030 O   0  0  0  0  0  1  0  0  0  0  0  0
  185.9560  178.7120  144.3680 C   0  0  0  0  0  3  0  0  0  0  0  0
  1  5  1  0  0  0  0
  1 19  1  0  0  0  0
  2 16  1  0  0  0  0
  2 13  1  0  0  0  0
  3 17  1  0  0  0  0
  4  1  2  0  0  0  0
  7 15  1  6  0  0  0
  7  9  1  0  0  0  0
  7 27  1  0  0  0  0
  8  6  1  1  0  0  0
  8 12  1  0  0  0  0
  8 11  1  0  0  0  0
  9 14  1  6  0  0  0
  9 22  1  0  0  0  0
 10 21  1  1  0  0  0
 10  3  1  0  0  0  0
 11 28  1  6  0  0  0
 11  5  1  0  0  0  0
 12  4  1  0  0  0  0
 17 26  1  0  0  0  0
 18 13  2  0  0  0  0
 19  2  2  0  0  0  0
 20  4  1  0  0  0  0
 20 17  2  0  0  0  0
 22 10  1  0  0  0  0
 22 20  1  0  0  0  0
 23 15  1  0  0  0  0
 23 14  1  0  0  0  0
 25 18  1  0  0  0  0
 26 19  1  0  0  0  0
 26 25  2  0  0  0  0
 27 24  1  1  0  0  0
 27 12  1  0  0  0  0
 28 30  2  0  0  0  0
 30 29  1  0  0  0  0
M  END
>  <MODEL>
3

>  <REMARK>
 VINA RESULT:      -7.6      2.923      4.476
  Name = 
  1 active torsions:
  status: ('A' for Active; 'I' for Inactive)
    1  A    between atoms: C_11  and  C_28
                            x       y       z     vdW  Elec       q    Type
                         _______ _______ _______ _____ _____    ______ ____

>  <TORSDO>
F 1

$$$$
=
 OpenBabel11112416213D

 30 35  0  0  1  0  0  0  0  0999 V2000
  188.3940  175.3910  141.3560 C   0  0  0  0  0  0  0  0  0  0  0  0
  186.7690  177.2660  140.9750 C   0  0  0  0  0  0  0  0  0  0  0  0
  188.9890  176.4980  145.3080 O   0  0  0  0  0  0  0  0  0  0  0  0
  189.2870  174.7250  142.2300 C   0  0  0  0  0  0  0  0  0  0  0  0
  188.2450  174.8880  140.0570 O   0  0  0  0  0  0  0  0  0  0  0  0
  191.0470  174.1330  139.7690 O   0  0  0  0  0  1  0  0  0  0  0  0
  191.7400  172.9980  143.4140 C   0  0  1  0  0  3  0  0  0  0  0  0
  190.0690  173.3030  140.3280 C   0  0  2  0  0  3  0  0  0  0  0  0
  191.6430  174.2510  144.3020 C   0  0  2  0  0  3  0  0  0  0  0  0
  189.9490  175.5340  145.7520 C   0  0  1  0  0  3  0  0  0  0  0  0
  188.7040  173.5840  139.6960 C   0  0  2  0  0  3  0  0  0  0  0  0
  189.9860  173.5540  141.7650 N   0  0  0  0  0  0  0  0  0  0  0  0
  186.0740  178.3620  141.4970 C   0  0  0  0  0  3  0  0  0  0  0  0
  192.4060  173.9780  145.5950 C   0  0  0  0  0  2  0  0  0  0  0  0
  192.4100  171.8760  144.1800 C   0  0  0  0  0  2  0  0  0  0  0  0
  186.4620  176.8960  139.2820 Cl  0  0  0  0  0  0  0  0  0  0  0  0
  188.6990  176.2580  143.9810 C   0  0  0  0  0  0  0  0  0  0  0  0
  186.2410  178.7540  142.8230 C   0  0  0  0  0  3  0  0  0  0  0  0
  187.6630  176.5350  141.8040 C   0  0  0  0  0  0  0  0  0  0  0  0
  189.4220  175.2000  143.5370 C   0  0  0  0  0  0  0  0  0  0  0  0
  189.3280  174.6650  146.8300 C   0  0  0  0  0  1  0  0  0  0  0  0
  190.2720  174.7090  144.5720 N   0  0  0  0  0  0  0  0  0  0  0  0
  193.5990  172.6480  145.2990 S   0  0  0  0  0  0  0  0  0  0  0  0
  189.3950  171.9810  143.5800 C   0  0  0  0  0  1  0  0  0  0  0  0
  187.1130  178.0540  143.6530 C   0  0  0  0  0  3  0  0  0  0  0  0
  187.8210  176.9570  143.1570 C   0  0  0  0  0  0  0  0  0  0  0  0
  190.4900  172.5260  142.6690 C   0  0  2  0  0  3  0  0  0  0  0  0
  188.7410  173.4310  138.2120 C   0  0  0  0  0  3  0  0  0  0  0  0
  189.2470  172.1950  136.2800 O   0  0  0  0  0  1  0  0  0  0  0  0
  189.2190  172.3260  137.6610 C   0  0  0  0  0  3  0  0  0  0  0  0
  1 19  2  0  0  0  0
  1  4  1  0  0  0  0
  2 13  2  0  0  0  0
  2 19  1  0  0  0  0
  3 10  1  0  0  0  0
  4 20  2  0  0  0  0
  5  1  1  0  0  0  0
  7 15  1  1  0  0  0
  7  9  1  0  0  0  0
  8  6  1  6  0  0  0
  8 12  1  0  0  0  0
  9 22  1  0  0  0  0
  9 14  1  1  0  0  0
 10 21  1  1  0  0  0
 11 28  1  6  0  0  0
 11  5  1  0  0  0  0
 11  8  1  0  0  0  0
 12  4  1  0  0  0  0
 12 27  1  0  0  0  0
 13 18  1  0  0  0  0
 15 23  1  0  0  0  0
 16  2  1  0  0  0  0
 17  3  1  0  0  0  0
 18 25  2  0  0  0  0
 19 26  1  0  0  0  0
 20 17  1  0  0  0  0
 20 22  1  0  0  0  0
 22 10  1  0  0  0  0
 23 14  1  0  0  0  0
 26 25  1  0  0  0  0
 26 17  2  0  0  0  0
 27  7  1  0  0  0  0
 27 24  1  1  0  0  0
 29 30  1  0  0  0  0
 30 28  2  0  0  0  0
M  END
>  <MODEL>
4

>  <REMARK>
 VINA RESULT:      -7.5      3.354      4.475
  Name = 
  1 active torsions:
  status: ('A' for Active; 'I' for Inactive)
    1  A    between atoms: C_11  and  C_28
                            x       y       z     vdW  Elec       q    Type
                         _______ _______ _______ _____ _____    ______ ____

>  <TORSDO>
F 1

$$$$
=
 OpenBabel11112416213D

 30 35  0  0  1  0  0  0  0  0999 V2000
  188.5250  176.6450  145.2660 C   0  0  0  0  0  0  0  0  0  0  0  0
  186.4390  178.0210  145.0300 C   0  0  0  0  0  0  0  0  0  0  0  0
  187.7330  174.5570  141.7710 O   0  0  0  0  0  0  0  0  0  0  0  0
  189.3490  175.6050  144.7700 C   0  0  0  0  0  0  0  0  0  0  0  0
  188.9290  177.3070  146.4320 O   0  0  0  0  0  0  0  0  0  0  0  0
  190.0190  174.9170  147.7000 O   0  0  0  0  0  1  0  0  0  0  0  0
  191.4400  173.1600  144.5480 C   0  0  1  0  0  3  0  0  0  0  0  0
  190.7470  175.7440  146.8390 C   0  0  2  0  0  3  0  0  0  0  0  0
  190.2390  172.7650  143.6710 C   0  0  2  0  0  3  0  0  0  0  0  0
  188.8360  173.6480  141.7040 C   0  0  1  0  0  3  0  0  0  0  0  0
  190.2580  177.1910  146.9440 C   0  0  2  0  0  3  0  0  0  0  0  0
  190.5700  175.2840  145.4640 N   0  0  0  0  0  0  0  0  0  0  0  0
  185.2950  178.3290  144.2870 C   0  0  0  0  0  3  0  0  0  0  0  0
  190.6810  171.6440  142.7340 C   0  0  0  0  0  2  0  0  0  0  0  0
  192.6810  172.4290  144.0780 C   0  0  0  0  0  2  0  0  0  0  0  0
  186.6680  178.9480  146.5080 Cl  0  0  0  0  0  0  0  0  0  0  0  0
  187.8570  175.3240  142.9120 C   0  0  0  0  0  0  0  0  0  0  0  0
  185.0050  177.6550  143.1020 C   0  0  0  0  0  3  0  0  0  0  0  0
  187.3250  177.0050  144.5780 C   0  0  0  0  0  0  0  0  0  0  0  0
  188.9710  174.9570  143.5920 C   0  0  0  0  0  0  0  0  0  0  0  0
  189.6790  173.9680  140.4840 C   0  0  0  0  0  1  0  0  0  0  0  0
  189.6260  173.8760  142.9300 N   0  0  0  0  0  0  0  0  0  0  0  0
  192.1340  170.8280  143.4450 S   0  0  0  0  0  0  0  0  0  0  0  0
  192.1580  175.4180  143.5700 C   0  0  0  0  0  1  0  0  0  0  0  0
  185.8570  176.6560  142.6410 C   0  0  0  0  0  3  0  0  0  0  0  0
  187.0050  176.3270  143.3650 C   0  0  0  0  0  0  0  0  0  0  0  0
  191.7060  174.6450  144.8060 C   0  0  2  0  0  3  0  0  0  0  0  0
  190.3290  177.6960  148.3460 C   0  0  0  0  0  3  0  0  0  0  0  0
  191.5410  178.2280  150.2860 O   0  0  0  0  0  1  0  0  0  0  0  0
  191.4880  177.7550  148.9830 C   0  0  0  0  0  3  0  0  0  0  0  0
  1  5  1  0  0  0  0
  2 16  1  0  0  0  0
  3 17  1  0  0  0  0
  4  1  1  0  0  0  0
  4 12  1  0  0  0  0
  5 11  1  0  0  0  0
  7 15  1  6  0  0  0
  7 27  1  0  0  0  0
  8 11  1  0  0  0  0
  8  6  1  1  0  0  0
  9 14  1  6  0  0  0
  9  7  1  0  0  0  0
 10 21  1  6  0  0  0
 10  3  1  0  0  0  0
 10 22  1  0  0  0  0
 11 28  1  1  0  0  0
 12  8  1  0  0  0  0
 13  2  2  0  0  0  0
 14 23  1  0  0  0  0
 17 26  2  0  0  0  0
 17 20  1  0  0  0  0
 18 13  1  0  0  0  0
 19  2  1  0  0  0  0
 19  1  2  0  0  0  0
 20  4  2  0  0  0  0
 22 20  1  0  0  0  0
 22  9  1  0  0  0  0
 23 15  1  0  0  0  0
 25 18  2  0  0  0  0
 25 26  1  0  0  0  0
 26 19  1  0  0  0  0
 27 24  1  6  0  0  0
 27 12  1  0  0  0  0
 28 30  2  0  0  0  0
 30 29  1  0  0  0  0
M  END
>  <MODEL>
5

>  <REMARK>
 VINA RESULT:      -7.5      2.475      5.478
  Name = 
  1 active torsions:
  status: ('A' for Active; 'I' for Inactive)
    1  A    between atoms: C_11  and  C_28
                            x       y       z     vdW  Elec       q    Type
                         _______ _______ _______ _____ _____    ______ ____

>  <TORSDO>
F 1

$$$$
=
 OpenBabel11112416213D

 30 35  0  0  1  0  0  0  0  0999 V2000
  189.9110  175.2560  142.3570 C   0  0  0  0  0  0  0  0  0  0  0  0
  187.8290  176.6300  142.0760 C   0  0  0  0  0  0  0  0  0  0  0  0
  190.6380  176.8370  146.1210 O   0  0  0  0  0  0  0  0  0  0  0  0
  191.0360  174.9150  143.1460 C   0  0  0  0  0  0  0  0  0  0  0  0
  189.7520  174.6140  141.1220 O   0  0  0  0  0  0  0  0  0  0  0  0
  192.6050  174.5470  140.5180 O   0  0  0  0  0  1  0  0  0  0  0  0
  193.9640  173.9620  144.1040 C   0  0  1  0  0  3  0  0  0  0  0  0
  191.9400  173.5590  141.2500 C   0  0  2  0  0  3  0  0  0  0  0  0
  193.6490  175.2290  144.9190 C   0  0  2  0  0  3  0  0  0  0  0  0
  191.8550  176.1850  146.4940 C   0  0  1  0  0  3  0  0  0  0  0  0
  190.4870  173.4350  140.7860 C   0  0  2  0  0  3  0  0  0  0  0  0
  191.9550  173.9140  142.6670 N   0  0  0  0  0  0  0  0  0  0  0  0
  186.9390  177.5650  142.6150 C   0  0  0  0  0  3  0  0  0  0  0  0
  194.5950  175.2740  146.1150 C   0  0  0  0  0  2  0  0  0  0  0  0
  194.9790  173.1150  144.8450 C   0  0  0  0  0  2  0  0  0  0  0  0
  187.4410  176.0410  140.4640 Cl  0  0  0  0  0  0  0  0  0  0  0  0
  190.2730  176.4110  144.8600 C   0  0  0  0  0  0  0  0  0  0  0  0
  187.1470  178.1080  143.8810 C   0  0  0  0  0  3  0  0  0  0  0  0
  188.9670  176.2220  142.8240 C   0  0  0  0  0  0  0  0  0  0  0  0
  191.1890  175.5270  144.3920 C   0  0  0  0  0  0  0  0  0  0  0  0
  191.5990  175.2940  147.6960 C   0  0  0  0  0  1  0  0  0  0  0  0
  192.2450  175.3590  145.3360 N   0  0  0  0  0  0  0  0  0  0  0  0
  196.0480  174.2560  145.7490 S   0  0  0  0  0  0  0  0  0  0  0  0
  191.9900  172.4190  144.6380 C   0  0  0  0  0  1  0  0  0  0  0  0
  188.2550  177.7240  144.6320 C   0  0  0  0  0  3  0  0  0  0  0  0
  189.1600  176.7940  144.1170 C   0  0  0  0  0  0  0  0  0  0  0  0
  192.8020  173.1290  143.5590 C   0  0  2  0  0  3  0  0  0  0  0  0
  190.3970  173.1590  139.3210 C   0  0  0  0  0  3  0  0  0  0  0  0
  189.4340  173.5240  137.2110 O   0  0  0  0  0  1  0  0  0  0  0  0
  189.5070  173.7890  138.5710 C   0  0  0  0  0  3  0  0  0  0  0  0
  1 19  2  0  0  0  0
  1  4  1  0  0  0  0
  2 13  2  0  0  0  0
  2 19  1  0  0  0  0
  3 10  1  0  0  0  0
  4 20  2  0  0  0  0
  5  1  1  0  0  0  0
  7 15  1  1  0  0  0
  7  9  1  0  0  0  0
  8  6  1  6  0  0  0
  8 12  1  0  0  0  0
  9 22  1  0  0  0  0
  9 14  1  1  0  0  0
 10 21  1  1  0  0  0
 11 28  1  6  0  0  0
 11  5  1  0  0  0  0
 11  8  1  0  0  0  0
 12  4  1  0  0  0  0
 12 27  1  0  0  0  0
 13 18  1  0  0  0  0
 15 23  1  0  0  0  0
 16  2  1  0  0  0  0
 17  3  1  0  0  0  0
 18 25  2  0  0  0  0
 19 26  1  0  0  0  0
 20 17  1  0  0  0  0
 20 22  1  0  0  0  0
 22 10  1  0  0  0  0
 23 14  1  0  0  0  0
 26 25  1  0  0  0  0
 26 17  2  0  0  0  0
 27  7  1  0  0  0  0
 27 24  1  1  0  0  0
 29 30  1  0  0  0  0
 30 28  2  0  0  0  0
M  END
>  <MODEL>
6

>  <REMARK>
 VINA RESULT:      -7.1      3.004      4.324
  Name = 
  1 active torsions:
  status: ('A' for Active; 'I' for Inactive)
    1  A    between atoms: C_11  and  C_28
                            x       y       z     vdW  Elec       q    Type
                         _______ _______ _______ _____ _____    ______ ____

>  <TORSDO>
F 1

$$$$
=
 OpenBabel11112416213D

 30 35  0  0  1  0  0  0  0  0999 V2000
  190.6260  174.1920  143.1960 C   0  0  0  0  0  0  0  0  0  0  0  0
  192.8130  172.9750  143.3900 C   0  0  0  0  0  0  0  0  0  0  0  0
  190.9140  175.6510  147.0680 O   0  0  0  0  0  0  0  0  0  0  0  0
  189.6350  174.9990  143.8060 C   0  0  0  0  0  0  0  0  0  0  0  0
  190.4340  173.8040  141.8640 O   0  0  0  0  0  0  0  0  0  0  0  0
  187.5480  173.4750  142.1240 O   0  0  0  0  0  1  0  0  0  0  0  0
  186.8300  176.3890  144.5820 C   0  0  1  0  0  3  0  0  0  0  0  0
  188.1690  174.6870  141.8040 C   0  0  2  0  0  3  0  0  0  0  0  0
  187.5030  176.0290  145.9180 C   0  0  2  0  0  3  0  0  0  0  0  0
  189.7010  176.3970  147.2020 C   0  0  1  0  0  3  0  0  0  0  0  0
  189.4640  174.4370  141.0270 C   0  0  2  0  0  3  0  0  0  0  0  0
  188.4880  175.4060  143.0350 N   0  0  0  0  0  0  0  0  0  0  0  0
  193.9330  172.6570  144.1650 C   0  0  0  0  0  3  0  0  0  0  0  0
  186.8280  176.8340  147.0250 C   0  0  0  0  0  2  0  0  0  0  0  0
  185.8520  177.5270  144.7910 C   0  0  0  0  0  2  0  0  0  0  0  0
  192.7780  172.2850  141.7710 Cl  0  0  0  0  0  0  0  0  0  0  0  0
  190.9530  175.0860  145.8090 C   0  0  0  0  0  0  0  0  0  0  0  0
  194.0670  173.1390  145.4650 C   0  0  0  0  0  3  0  0  0  0  0  0
  191.7900  173.8020  143.9280 C   0  0  0  0  0  0  0  0  0  0  0  0
  189.8290  175.4160  145.1240 C   0  0  0  0  0  0  0  0  0  0  0  0
  190.0330  177.8680  147.3790 C   0  0  0  0  0  1  0  0  0  0  0  0
  188.9630  176.2030  145.9390 N   0  0  0  0  0  0  0  0  0  0  0  0
  185.1830  177.3380  146.4580 S   0  0  0  0  0  0  0  0  0  0  0  0
  188.5870  177.8480  143.4200 C   0  0  0  0  0  1  0  0  0  0  0  0
  193.0780  173.9500  146.0150 C   0  0  0  0  0  3  0  0  0  0  0  0
  191.9480  174.2810  145.2630 C   0  0  0  0  0  0  0  0  0  0  0  0
  187.7110  176.6010  143.3490 C   0  0  2  0  0  3  0  0  0  0  0  0
  189.2210  173.6270  139.7970 C   0  0  0  0  0  3  0  0  0  0  0  0
  188.2310  173.3280  137.6890 O   0  0  0  0  0  1  0  0  0  0  0  0
  188.4470  174.0900  138.8280 C   0  0  0  0  0  3  0  0  0  0  0  0
  1  4  2  0  0  0  0
  1 19  1  0  0  0  0
  2 19  2  0  0  0  0
  2 13  1  0  0  0  0
  3 10  1  0  0  0  0
  4 20  1  0  0  0  0
  5  1  1  0  0  0  0
  7 15  1  1  0  0  0
  7  9  1  0  0  0  0
  8  6  1  1  0  0  0
  8 12  1  0  0  0  0
  9 22  1  0  0  0  0
  9 14  1  1  0  0  0
 10 21  1  6  0  0  0
 11 28  1  6  0  0  0
 11  8  1  0  0  0  0
 11  5  1  0  0  0  0
 12 27  1  0  0  0  0
 12  4  1  0  0  0  0
 13 18  2  0  0  0  0
 15 23  1  0  0  0  0
 16  2  1  0  0  0  0
 17  3  1  0  0  0  0
 18 25  1  0  0  0  0
 19 26  1  0  0  0  0
 20 17  2  0  0  0  0
 20 22  1  0  0  0  0
 22 10  1  0  0  0  0
 23 14  1  0  0  0  0
 26 17  1  0  0  0  0
 26 25  2  0  0  0  0
 27 24  1  1  0  0  0
 27  7  1  0  0  0  0
 29 30  1  0  0  0  0
 30 28  2  0  0  0  0
M  END
>  <MODEL>
7

>  <REMARK>
 VINA RESULT:      -7.0      3.749      6.046
  Name = 
  1 active torsions:
  status: ('A' for Active; 'I' for Inactive)
    1  A    between atoms: C_11  and  C_28
                            x       y       z     vdW  Elec       q    Type
                         _______ _______ _______ _____ _____    ______ ____

>  <TORSDO>
F 1

$$$$
=
 OpenBabel11112416213D

 30 35  0  0  1  0  0  0  0  0999 V2000
  191.3250  175.1740  144.6620 C   0  0  0  0  0  0  0  0  0  0  0  0
  193.2800  175.7180  146.1390 C   0  0  0  0  0  0  0  0  0  0  0  0
  193.6920  172.9580  142.0760 O   0  0  0  0  0  0  0  0  0  0  0  0
  190.8330  174.5500  143.4900 C   0  0  0  0  0  0  0  0  0  0  0  0
  190.4130  175.8540  145.4800 O   0  0  0  0  0  0  0  0  0  0  0  0
  188.8100  176.8650  143.2630 O   0  0  0  0  0  1  0  0  0  0  0  0
  189.0820  173.8130  140.8840 C   0  0  1  0  0  3  0  0  0  0  0  0
  188.6060  175.6210  143.8690 C   0  0  2  0  0  3  0  0  0  0  0  0
  190.5530  173.7160  140.4420 C   0  0  2  0  0  3  0  0  0  0  0  0
  192.7490  172.5420  141.0840 C   0  0  1  0  0  3  0  0  0  0  0  0
  189.0020  175.6740  145.3470 C   0  0  2  0  0  3  0  0  0  0  0  0
  189.4240  174.6160  143.1960 N   0  0  0  0  0  0  0  0  0  0  0  0
  194.6460  175.5740  146.4060 C   0  0  0  0  0  3  0  0  0  0  0  0
  190.6080  172.9130  139.1450 C   0  0  0  0  0  2  0  0  0  0  0  0
  188.2180  172.9510  139.9860 C   0  0  0  0  0  2  0  0  0  0  0  0
  192.3720  176.6970  147.2850 Cl  0  0  0  0  0  0  0  0  0  0  0  0
  193.0380  173.7300  143.0150 C   0  0  0  0  0  0  0  0  0  0  0  0
  195.4680  174.8260  145.5650 C   0  0  0  0  0  3  0  0  0  0  0  0
  192.7130  175.0960  144.9940 C   0  0  0  0  0  0  0  0  0  0  0  0
  191.7290  173.8450  142.6820 C   0  0  0  0  0  0  0  0  0  0  0  0
  192.6130  171.0300  141.1220 C   0  0  0  0  0  1  0  0  0  0  0  0
  191.4650  173.1670  141.4550 N   0  0  0  0  0  0  0  0  0  0  0  0
  188.9820  172.9760  138.3500 S   0  0  0  0  0  0  0  0  0  0  0  0
  188.9640  172.2060  142.8760 C   0  0  0  0  0  1  0  0  0  0  0  0
  194.9350  174.2100  144.4360 C   0  0  0  0  0  3  0  0  0  0  0  0
  193.5750  174.3390  144.1460 C   0  0  0  0  0  0  0  0  0  0  0  0
  188.7450  173.6270  142.3650 C   0  0  2  0  0  3  0  0  0  0  0  0
  188.2630  176.7450  146.0780 C   0  0  0  0  0  3  0  0  0  0  0  0
  186.4940  177.4620  147.4460 O   0  0  0  0  0  1  0  0  0  0  0  0
  187.1710  176.4570  146.7690 C   0  0  0  0  0  3  0  0  0  0  0  0
  1 19  1  0  0  0  0
  1  5  1  0  0  0  0
  2 13  1  0  0  0  0
  2 16  1  0  0  0  0
  3 17  1  0  0  0  0
  4  1  2  0  0  0  0
  7 15  1  6  0  0  0
  7 27  1  0  0  0  0
  8  6  1  6  0  0  0
  8 11  1  0  0  0  0
  9 14  1  6  0  0  0
  9  7  1  0  0  0  0
  9 22  1  0  0  0  0
 10 21  1  1  0  0  0
 10 22  1  0  0  0  0
 10  3  1  0  0  0  0
 11  5  1  0  0  0  0
 11 28  1  6  0  0  0
 12  4  1  0  0  0  0
 12  8  1  0  0  0  0
 17 26  1  0  0  0  0
 18 13  2  0  0  0  0
 19  2  2  0  0  0  0
 20 17  2  0  0  0  0
 20  4  1  0  0  0  0
 22 20  1  0  0  0  0
 23 14  1  0  0  0  0
 23 15  1  0  0  0  0
 25 18  1  0  0  0  0
 26 25  2  0  0  0  0
 26 19  1  0  0  0  0
 27 24  1  1  0  0  0
 27 12  1  0  0  0  0
 28 30  2  0  0  0  0
 30 29  1  0  0  0  0
M  END
>  <MODEL>
8

>  <REMARK>
 VINA RESULT:      -7.0      3.591      6.397
  Name = 
  1 active torsions:
  status: ('A' for Active; 'I' for Inactive)
    1  A    between atoms: C_11  and  C_28
                            x       y       z     vdW  Elec       q    Type
                         _______ _______ _______ _____ _____    ______ ____

>  <TORSDO>
F 1

$$$$
=
 OpenBabel11112416213D

 30 35  0  0  1  0  0  0  0  0999 V2000
  190.5700  174.8470  142.8100 C   0  0  0  0  0  0  0  0  0  0  0  0
  188.3720  175.8480  143.4920 C   0  0  0  0  0  0  0  0  0  0  0  0
  192.6620  177.2070  145.5020 O   0  0  0  0  0  0  0  0  0  0  0  0
  191.9790  174.8180  142.9460 C   0  0  0  0  0  0  0  0  0  0  0  0
  189.9770  173.9630  141.8980 O   0  0  0  0  0  0  0  0  0  0  0  0
  192.1270  174.1660  139.9370 O   0  0  0  0  0  1  0  0  0  0  0  0
  195.1330  174.4710  142.3700 C   0  0  1  0  0  3  0  0  0  0  0  0
  192.1240  173.2560  140.9990 C   0  0  2  0  0  3  0  0  0  0  0  0
  194.9860  175.8170  143.1020 C   0  0  2  0  0  3  0  0  0  0  0  0
  194.0160  176.8080  145.2670 C   0  0  1  0  0  3  0  0  0  0  0  0
  190.6910  172.8510  141.3540 C   0  0  2  0  0  3  0  0  0  0  0  0
  192.7430  173.8770  142.1680 N   0  0  0  0  0  0  0  0  0  0  0  0
  187.6750  176.7410  144.3130 C   0  0  0  0  0  3  0  0  0  0  0  0
  196.3570  176.2180  143.6390 C   0  0  0  0  0  2  0  0  0  0  0  0
  196.5320  173.9270  142.5710 C   0  0  0  0  0  2  0  0  0  0  0  0
  187.3920  174.9120  142.3690 Cl  0  0  0  0  0  0  0  0  0  0  0  0
  191.8360  176.5000  144.6520 C   0  0  0  0  0  0  0  0  0  0  0  0
  188.3450  177.5410  145.2370 C   0  0  0  0  0  3  0  0  0  0  0  0
  189.7860  175.7480  143.5940 C   0  0  0  0  0  0  0  0  0  0  0  0
  192.5780  175.6750  143.8730 C   0  0  0  0  0  0  0  0  0  0  0  0
  194.5660  176.1390  146.5130 C   0  0  0  0  0  1  0  0  0  0  0  0
  193.9660  175.8340  144.1590 N   0  0  0  0  0  0  0  0  0  0  0  0
  197.6330  175.3540  142.6880 S   0  0  0  0  0  0  0  0  0  0  0  0
  194.0400  172.8080  143.9840 C   0  0  0  0  0  1  0  0  0  0  0  0
  189.7300  177.4610  145.3530 C   0  0  0  0  0  3  0  0  0  0  0  0
  190.4500  176.5790  144.5440 C   0  0  0  0  0  0  0  0  0  0  0  0
  194.0600  173.4000  142.5780 C   0  0  2  0  0  3  0  0  0  0  0  0
  189.9690  172.2880  140.1750 C   0  0  0  0  0  3  0  0  0  0  0  0
  188.1910  172.3180  138.6410 O   0  0  0  0  0  1  0  0  0  0  0  0
  188.8520  172.8500  139.7390 C   0  0  0  0  0  3  0  0  0  0  0  0
  1  4  2  0  0  0  0
  1 19  1  0  0  0  0
  2 19  2  0  0  0  0
  2 13  1  0  0  0  0
  4 20  1  0  0  0  0
  5  1  1  0  0  0  0
  7 15  1  1  0  0  0
  7 27  1  0  0  0  0
  7  9  1  0  0  0  0
  8  6  1  6  0  0  0
  8 11  1  0  0  0  0
  8 12  1  0  0  0  0
  9 14  1  1  0  0  0
  9 22  1  0  0  0  0
 10  3  1  0  0  0  0
 10 21  1  1  0  0  0
 11 28  1  6  0  0  0
 11  5  1  0  0  0  0
 12 27  1  0  0  0  0
 12  4  1  0  0  0  0
 13 18  2  0  0  0  0
 15 23  1  0  0  0  0
 16  2  1  0  0  0  0
 17  3  1  0  0  0  0
 18 25  1  0  0  0  0
 19 26  1  0  0  0  0
 20 22  1  0  0  0  0
 20 17  2  0  0  0  0
 22 10  1  0  0  0  0
 23 14  1  0  0  0  0
 26 17  1  0  0  0  0
 26 25  2  0  0  0  0
 27 24  1  1  0  0  0
 29 30  1  0  0  0  0
 30 28  2  0  0  0  0
M  END
>  <MODEL>
9

>  <REMARK>
 VINA RESULT:      -7.0      3.313      4.704
  Name = 
  1 active torsions:
  status: ('A' for Active; 'I' for Inactive)
    1  A    between atoms: C_11  and  C_28
                            x       y       z     vdW  Elec       q    Type
                         _______ _______ _______ _____ _____    ______ ____

>  <TORSDO>
F 1

$$$$
