=
 OpenBabel11112416383D

 32 37  0  0  1  0  0  0  0  0999 V2000
  190.8920  171.0180  138.5900 C   0  0  0  0  0  2  0  0  0  0  0  0
  188.9760  173.1540  143.2430 C   0  0  1  0  0  3  0  0  0  0  0  0
  186.4620  177.3040  143.3150 C   0  0  0  0  0  3  0  0  0  0  0  0
  187.4770  177.9510  144.0280 C   0  0  0  0  0  3  0  0  0  0  0  0
  191.2870  173.0910  144.5000 C   0  0  0  0  0  0  0  0  0  0  0  0
  192.4970  173.8570  144.8090 C   0  0  0  0  0  0  0  0  0  0  0  0
  190.3030  172.2730  141.3480 N   0  0  2  0  0  0  0  0  0  0  0  0
  188.9750  174.3190  140.9930 C   0  0  0  0  0  2  0  0  0  0  0  0
  193.7260  175.6450  145.2250 N   0  0  0  0  0  0  0  0  0  0  0  0
  190.3290  173.4460  139.1680 C   0  0  0  0  0  2  0  0  0  0  0  0
  186.6890  176.0410  142.7620 C   0  0  0  0  0  3  0  0  0  0  0  0
  188.1970  174.0860  142.2880 C   0  0  2  0  0  3  0  0  0  0  0  0
  187.9290  175.4160  142.9290 C   0  0  0  0  0  0  0  0  0  0  0  0
  190.2760  175.3460  143.7820 C   0  0  1  0  0  3  0  0  0  0  0  0
  194.5100  174.5560  145.3680 C   0  0  0  0  0  3  0  0  0  0  0  0
  191.6370  171.1490  139.7660 O   0  0  0  0  0  0  0  0  0  0  0  0
  189.4840  173.0200  140.3700 C   0  0  1  0  0  3  0  0  0  0  0  0
  193.7680  173.4030  145.1150 C   0  0  0  0  0  3  0  0  0  0  0  0
  190.6930  170.9820  140.7850 C   0  0  0  0  0  2  0  0  0  0  0  0
  190.4100  172.3760  138.0750 C   0  0  1  0  0  3  0  0  0  0  0  0
  188.7210  177.3340  144.1890 C   0  0  0  0  0  3  0  0  0  0  0  0
  188.9540  176.0610  143.6460 C   0  0  0  0  0  0  0  0  0  0  0  0
  191.2710  176.0570  144.7220 C   0  0  0  0  0  2  0  0  0  0  0  0
  189.4590  171.9160  142.4860 C   0  0  0  0  0  2  0  0  0  0  0  0
  191.2790  171.8400  144.6380 O   0  0  0  0  0  0  0  0  0  0  0  0
  194.1400  177.0200  145.4410 C   0  0  0  0  0  1  0  0  0  0  0  0
  190.0210  173.8610  144.1650 C   0  0  1  0  0  3  0  0  0  0  0  0
  192.5040  175.2210  144.8740 C   0  0  0  0  0  0  0  0  0  0  0  0
  191.2950  172.8280  137.0120 N   0  0  0  0  0  2  0  0  0  0  0  0
  190.8190  173.5020  135.8450 C   0  0  0  0  0  0  0  0  0  0  0  0
  189.5880  173.7110  135.6810 O   0  0  0  0  0  0  0  0  0  0  0  0
  191.7860  173.9550  134.8130 C   0  0  0  0  0  1  0  0  0  0  0  0
  1 16  1  0  0  0  0
  2 24  1  6  0  0  0
  2 27  1  0  0  0  0
  3  4  1  0  0  0  0
  4 21  2  0  0  0  0
  5 25  2  0  0  0  0
  5  6  1  0  0  0  0
  6 28  2  0  0  0  0
  6 18  1  0  0  0  0
  7 19  1  6  0  0  0
  7 24  1  0  0  0  0
  9 15  1  0  0  0  0
  9 26  1  0  0  0  0
 11 13  1  0  0  0  0
 11  3  2  0  0  0  0
 12  8  1  6  0  0  0
 12 13  1  0  0  0  0
 12  2  1  0  0  0  0
 13 22  2  0  0  0  0
 14 27  1  0  0  0  0
 14 23  1  1  0  0  0
 16 19  1  0  0  0  0
 17 10  1  6  0  0  0
 17  8  1  0  0  0  0
 17  7  1  0  0  0  0
 18 15  2  0  0  0  0
 20 29  1  6  0  0  0
 20  1  1  0  0  0  0
 20 10  1  0  0  0  0
 22 14  1  0  0  0  0
 22 21  1  0  0  0  0
 23 28  1  0  0  0  0
 27  5  1  6  0  0  0
 28  9  1  0  0  0  0
 30 29  1  0  0  0  0
 31 30  2  0  0  0  0
 32 30  1  0  0  0  0
M  END
>  <MODEL>
1

>  <REMARK>
 VINA RESULT:      -7.3      0.000      0.000
  Name = 
  1 active torsions:
  status: ('A' for Active; 'I' for Inactive)
    1  A    between atoms: C_20  and  N_29
                            x       y       z     vdW  Elec       q    Type
                         _______ _______ _______ _____ _____    ______ ____

>  <TORSDO>
F 1

$$$$
=
 OpenBabel11112416383D

 32 37  0  0  1  0  0  0  0  0999 V2000
  189.6660  171.4160  138.9630 C   0  0  0  0  0  2  0  0  0  0  0  0
  190.4340  172.9510  144.1540 C   0  0  1  0  0  3  0  0  0  0  0  0
  188.5170  177.0410  145.9280 C   0  0  0  0  0  3  0  0  0  0  0  0
  189.7850  177.6040  146.1050 C   0  0  0  0  0  3  0  0  0  0  0  0
  193.0570  172.7540  144.0720 C   0  0  0  0  0  0  0  0  0  0  0  0
  194.2990  173.4860  143.8170 C   0  0  0  0  0  0  0  0  0  0  0  0
  190.5940  172.3200  141.7650 N   0  0  2  0  0  0  0  0  0  0  0  0
  189.3790  174.3830  142.3490 C   0  0  0  0  0  2  0  0  0  0  0  0
  195.6670  175.2200  143.7570 N   0  0  0  0  0  0  0  0  0  0  0  0
  189.5970  173.7510  140.0080 C   0  0  0  0  0  2  0  0  0  0  0  0
  188.3710  175.8570  145.2010 C   0  0  0  0  0  3  0  0  0  0  0  0
  189.3360  173.9870  143.8250 C   0  0  2  0  0  3  0  0  0  0  0  0
  189.4940  175.2270  144.6560 C   0  0  0  0  0  0  0  0  0  0  0  0
  191.9470  175.0720  144.2080 C   0  0  1  0  0  3  0  0  0  0  0  0
  196.3590  174.1280  143.3690 C   0  0  0  0  0  3  0  0  0  0  0  0
  190.9030  171.4090  139.6160 O   0  0  0  0  0  0  0  0  0  0  0  0
  189.4400  173.1740  141.4170 C   0  0  1  0  0  3  0  0  0  0  0  0
  195.5280  173.0080  143.3950 C   0  0  0  0  0  3  0  0  0  0  0  0
  190.5830  171.1100  140.9450 C   0  0  0  0  0  2  0  0  0  0  0  0
  189.0660  172.8230  138.9110 C   0  0  1  0  0  3  0  0  0  0  0  0
  190.9090  176.9820  145.5540 C   0  0  0  0  0  3  0  0  0  0  0  0
  190.7720  175.7870  144.8300 C   0  0  0  0  0  0  0  0  0  0  0  0
  193.3140  175.6700  144.5970 C   0  0  0  0  0  2  0  0  0  0  0  0
  190.4090  171.8190  143.1250 C   0  0  0  0  0  2  0  0  0  0  0  0
  193.0510  171.4950  144.0560 O   0  0  0  0  0  0  0  0  0  0  0  0
  196.2080  176.5610  143.8870 C   0  0  0  0  0  1  0  0  0  0  0  0
  191.8350  173.5480  144.5010 C   0  0  1  0  0  3  0  0  0  0  0  0
  194.4120  174.8320  144.0200 C   0  0  0  0  0  0  0  0  0  0  0  0
  189.3300  173.4090  137.6050 N   0  0  0  0  0  2  0  0  0  0  0  0
  188.5390  174.4670  137.0600 C   0  0  0  0  0  0  0  0  0  0  0  0
  187.5500  174.9230  137.6940 O   0  0  0  0  0  0  0  0  0  0  0  0
  188.8840  175.0310  135.7300 C   0  0  0  0  0  1  0  0  0  0  0  0
  1 16  1  0  0  0  0
  2 24  1  6  0  0  0
  2 27  1  0  0  0  0
  3  4  1  0  0  0  0
  6 28  2  0  0  0  0
  6  5  1  0  0  0  0
  7 19  1  6  0  0  0
  7 24  1  0  0  0  0
  9 26  1  0  0  0  0
  9 28  1  0  0  0  0
 11  3  2  0  0  0  0
 12  8  1  6  0  0  0
 12  2  1  0  0  0  0
 12 13  1  0  0  0  0
 13 22  2  0  0  0  0
 13 11  1  0  0  0  0
 14 27  1  0  0  0  0
 14 23  1  1  0  0  0
 14 22  1  0  0  0  0
 15 18  2  0  0  0  0
 15  9  1  0  0  0  0
 16 19  1  0  0  0  0
 17 10  1  6  0  0  0
 17  7  1  0  0  0  0
 17  8  1  0  0  0  0
 18  6  1  0  0  0  0
 20 29  1  6  0  0  0
 20  1  1  0  0  0  0
 20 10  1  0  0  0  0
 21  4  2  0  0  0  0
 22 21  1  0  0  0  0
 25  5  2  0  0  0  0
 27  5  1  6  0  0  0
 28 23  1  0  0  0  0
 30 29  1  0  0  0  0
 30 31  2  0  0  0  0
 32 30  1  0  0  0  0
M  END
>  <MODEL>
2

>  <REMARK>
 VINA RESULT:      -7.1      1.739      2.169
  Name = 
  1 active torsions:
  status: ('A' for Active; 'I' for Inactive)
    1  A    between atoms: C_20  and  N_29
                            x       y       z     vdW  Elec       q    Type
                         _______ _______ _______ _____ _____    ______ ____

>  <TORSDO>
F 1

$$$$
=
 OpenBabel11112416383D

 32 37  0  0  1  0  0  0  0  0999 V2000
  191.3390  169.6990  140.4600 C   0  0  0  0  0  2  0  0  0  0  0  0
  191.2390  173.2910  144.5800 C   0  0  1  0  0  3  0  0  0  0  0  0
  188.8890  177.5230  144.2340 C   0  0  0  0  0  3  0  0  0  0  0  0
  190.0890  178.2390  144.3080 C   0  0  0  0  0  3  0  0  0  0  0  0
  193.8500  173.3540  144.9000 C   0  0  0  0  0  0  0  0  0  0  0  0
  195.0820  174.0440  144.5120 C   0  0  0  0  0  0  0  0  0  0  0  0
  191.7880  171.7600  142.7130 N   0  0  2  0  0  0  0  0  0  0  0  0
  190.4060  173.7420  142.2290 C   0  0  0  0  0  2  0  0  0  0  0  0
  196.3620  175.7350  143.8940 N   0  0  0  0  0  0  0  0  0  0  0  0
  191.0060  172.2350  140.4130 C   0  0  0  0  0  2  0  0  0  0  0  0
  188.9090  176.1370  144.0580 C   0  0  0  0  0  3  0  0  0  0  0  0
  190.1570  173.9800  143.7180 C   0  0  2  0  0  3  0  0  0  0  0  0
  190.1300  175.4610  143.9650 C   0  0  0  0  0  0  0  0  0  0  0  0
  192.6270  175.3950  143.9190 C   0  0  1  0  0  3  0  0  0  0  0  0
  197.1540  174.6590  144.0850 C   0  0  0  0  0  3  0  0  0  0  0  0
  192.4620  170.0890  141.1980 O   0  0  0  0  0  0  0  0  0  0  0  0
  190.6630  172.2710  141.9040 C   0  0  1  0  0  3  0  0  0  0  0  0
  196.3810  173.5670  144.4790 C   0  0  0  0  0  3  0  0  0  0  0  0
  191.9570  170.3270  142.4800 C   0  0  0  0  0  2  0  0  0  0  0  0
  190.6910  170.8900  139.7510 C   0  0  1  0  0  3  0  0  0  0  0  0
  191.3110  177.5680  144.2070 C   0  0  0  0  0  3  0  0  0  0  0  0
  191.3400  176.1750  144.0400 C   0  0  0  0  0  0  0  0  0  0  0  0
  193.8900  176.2390  144.1810 C   0  0  0  0  0  2  0  0  0  0  0  0
  191.4230  171.8420  144.1250 C   0  0  0  0  0  2  0  0  0  0  0  0
  193.9040  172.2060  145.4130 O   0  0  0  0  0  0  0  0  0  0  0  0
  196.8150  177.0620  143.5130 C   0  0  0  0  0  1  0  0  0  0  0  0
  192.5420  174.1220  144.8090 C   0  0  1  0  0  3  0  0  0  0  0  0
  195.1000  175.3590  144.1440 C   0  0  0  0  0  0  0  0  0  0  0  0
  191.1220  170.9160  138.3620 N   0  0  0  0  0  2  0  0  0  0  0  0
  190.3800  170.2920  137.3120 C   0  0  0  0  0  0  0  0  0  0  0  0
  189.3170  169.6640  137.5610 O   0  0  0  0  0  0  0  0  0  0  0  0
  190.8720  170.3800  135.9130 C   0  0  0  0  0  1  0  0  0  0  0  0
  1 16  1  0  0  0  0
  2 24  1  6  0  0  0
  2 27  1  0  0  0  0
  3  4  1  0  0  0  0
  5 25  2  0  0  0  0
  6  5  1  0  0  0  0
  7 19  1  6  0  0  0
  7 24  1  0  0  0  0
  9 15  1  0  0  0  0
  9 28  1  0  0  0  0
 11  3  2  0  0  0  0
 12  8  1  6  0  0  0
 12 13  1  0  0  0  0
 12  2  1  0  0  0  0
 13 22  2  0  0  0  0
 13 11  1  0  0  0  0
 14 22  1  0  0  0  0
 14 23  1  1  0  0  0
 14 27  1  0  0  0  0
 15 18  2  0  0  0  0
 16 19  1  0  0  0  0
 17 10  1  6  0  0  0
 17  8  1  0  0  0  0
 17  7  1  0  0  0  0
 18  6  1  0  0  0  0
 20 29  1  6  0  0  0
 20 10  1  0  0  0  0
 20  1  1  0  0  0  0
 21  4  2  0  0  0  0
 22 21  1  0  0  0  0
 26  9  1  0  0  0  0
 27  5  1  6  0  0  0
 28 23  1  0  0  0  0
 28  6  2  0  0  0  0
 30 31  2  0  0  0  0
 30 29  1  0  0  0  0
 32 30  1  0  0  0  0
M  END
>  <MODEL>
3

>  <REMARK>
 VINA RESULT:      -6.9      1.982      2.682
  Name = 
  1 active torsions:
  status: ('A' for Active; 'I' for Inactive)
    1  A    between atoms: C_20  and  N_29
                            x       y       z     vdW  Elec       q    Type
                         _______ _______ _______ _____ _____    ______ ____

>  <TORSDO>
F 1

$$$$
=
 OpenBabel11112416383D

 32 37  0  0  1  0  0  0  0  0999 V2000
  189.9710  177.5400  145.3060 C   0  0  0  0  0  2  0  0  0  0  0  0
  192.3470  174.2900  141.6080 C   0  0  1  0  0  3  0  0  0  0  0  0
  189.7510  171.5410  138.5660 C   0  0  0  0  0  3  0  0  0  0  0  0
  190.2270  170.3670  139.1600 C   0  0  0  0  0  3  0  0  0  0  0  0
  193.9130  173.0720  143.3370 C   0  0  0  0  0  0  0  0  0  0  0  0
  194.0340  171.9150  144.2270 C   0  0  0  0  0  0  0  0  0  0  0  0
  191.5000  175.4530  143.6230 N   0  0  2  0  0  0  0  0  0  0  0  0
  189.8770  174.2970  142.1730 C   0  0  0  0  0  2  0  0  0  0  0  0
  193.7240  169.8440  144.9290 N   0  0  0  0  0  0  0  0  0  0  0  0
  189.0900  175.4140  144.1880 C   0  0  0  0  0  2  0  0  0  0  0  0
  189.9850  172.7780  139.1720 C   0  0  0  0  0  3  0  0  0  0  0  0
  190.9100  174.1660  141.0540 C   0  0  2  0  0  3  0  0  0  0  0  0
  190.7060  172.8460  140.3690 C   0  0  0  0  0  0  0  0  0  0  0  0
  191.9470  171.8010  142.2690 C   0  0  1  0  0  3  0  0  0  0  0  0
  194.5660  170.4550  145.7880 C   0  0  0  0  0  3  0  0  0  0  0  0
  191.0400  176.6810  145.5780 O   0  0  0  0  0  0  0  0  0  0  0  0
  190.1310  175.5070  143.0700 C   0  0  1  0  0  3  0  0  0  0  0  0
  194.7900  171.7690  145.3780 C   0  0  0  0  0  3  0  0  0  0  0  0
  191.7750  176.6670  144.3880 C   0  0  0  0  0  2  0  0  0  0  0  0
  188.7450  176.7710  144.8080 C   0  0  1  0  0  3  0  0  0  0  0  0
  190.9400  170.4300  140.3600 C   0  0  0  0  0  3  0  0  0  0  0  0
  191.1880  171.6690  140.9700 C   0  0  0  0  0  0  0  0  0  0  0  0
  192.5760  170.4800  142.7560 C   0  0  0  0  0  2  0  0  0  0  0  0
  192.4520  175.5160  142.5170 C   0  0  0  0  0  2  0  0  0  0  0  0
  194.6670  174.0680  143.4910 O   0  0  0  0  0  0  0  0  0  0  0  0
  193.2870  168.4610  145.0130 C   0  0  0  0  0  1  0  0  0  0  0  0
  192.9730  172.9640  142.1490 C   0  0  1  0  0  3  0  0  0  0  0  0
  193.3910  170.7350  143.9860 C   0  0  0  0  0  0  0  0  0  0  0  0
  187.8150  176.5830  145.9120 N   0  0  0  0  0  2  0  0  0  0  0  0
  186.6890  177.4360  146.1270 C   0  0  0  0  0  0  0  0  0  0  0  0
  186.4700  178.4160  145.3670 O   0  0  0  0  0  0  0  0  0  0  0  0
  185.7700  177.1660  147.2630 C   0  0  0  0  0  1  0  0  0  0  0  0
  1 16  1  0  0  0  0
  2 27  1  0  0  0  0
  2 24  1  1  0  0  0
  3  4  2  0  0  0  0
  3 11  1  0  0  0  0
  4 21  1  0  0  0  0
  5 25  2  0  0  0  0
  5  6  1  0  0  0  0
  6 18  1  0  0  0  0
  7 24  1  6  0  0  0
  7 19  1  0  0  0  0
  9 26  1  0  0  0  0
  9 15  1  0  0  0  0
 10 20  1  0  0  0  0
 11 13  2  0  0  0  0
 12  2  1  0  0  0  0
 12  8  1  1  0  0  0
 13 22  1  0  0  0  0
 13 12  1  0  0  0  0
 14 23  1  6  0  0  0
 17  8  1  6  0  0  0
 17  7  1  0  0  0  0
 17 10  1  0  0  0  0
 18 15  2  0  0  0  0
 19 16  1  0  0  0  0
 20  1  1  0  0  0  0
 20 29  1  1  0  0  0
 21 22  2  0  0  0  0
 22 14  1  0  0  0  0
 23 28  1  0  0  0  0
 27 14  1  0  0  0  0
 27  5  1  1  0  0  0
 28  6  2  0  0  0  0
 28  9  1  0  0  0  0
 29 30  1  0  0  0  0
 30 32  1  0  0  0  0
 31 30  2  0  0  0  0
M  END
>  <MODEL>
4

>  <REMARK>
 VINA RESULT:      -6.8      3.191      6.864
  Name = 
  1 active torsions:
  status: ('A' for Active; 'I' for Inactive)
    1  A    between atoms: C_20  and  N_29
                            x       y       z     vdW  Elec       q    Type
                         _______ _______ _______ _____ _____    ______ ____

>  <TORSDO>
F 1

$$$$
=
 OpenBabel11112416383D

 32 37  0  0  1  0  0  0  0  0999 V2000
  191.4880  176.3910  145.9100 C   0  0  0  0  0  2  0  0  0  0  0  0
  196.5390  175.3200  144.1140 C   0  0  1  0  0  3  0  0  0  0  0  0
  197.6620  175.4420  139.3940 C   0  0  0  0  0  3  0  0  0  0  0  0
  197.9090  174.0650  139.3790 C   0  0  0  0  0  3  0  0  0  0  0  0
  196.7530  173.0180  145.3720 C   0  0  0  0  0  0  0  0  0  0  0  0
  196.5540  171.5720  145.2530 C   0  0  0  0  0  0  0  0  0  0  0  0
  194.2600  175.3150  145.0820 N   0  0  2  0  0  0  0  0  0  0  0  0
  194.4930  175.5860  142.6430 C   0  0  0  0  0  2  0  0  0  0  0  0
  196.4540  169.6040  144.2550 N   0  0  0  0  0  0  0  0  0  0  0  0
  192.2680  175.5320  143.6300 C   0  0  0  0  0  2  0  0  0  0  0  0
  197.0520  176.0320  140.5040 C   0  0  0  0  0  3  0  0  0  0  0  0
  195.9890  175.8670  142.7780 C   0  0  2  0  0  3  0  0  0  0  0  0
  196.6970  175.2480  141.6070 C   0  0  0  0  0  0  0  0  0  0  0  0
  196.5270  173.0640  142.8090 C   0  0  1  0  0  3  0  0  0  0  0  0
  196.2580  169.4130  145.5760 C   0  0  0  0  0  3  0  0  0  0  0  0
  192.2640  175.3060  146.3300 O   0  0  0  0  0  0  0  0  0  0  0  0
  193.7050  175.9880  143.8890 C   0  0  1  0  0  3  0  0  0  0  0  0
  196.3150  170.6350  146.2440 C   0  0  0  0  0  3  0  0  0  0  0  0
  193.5750  175.7890  146.2830 C   0  0  0  0  0  2  0  0  0  0  0  0
  191.2250  176.3450  144.4030 C   0  0  1  0  0  3  0  0  0  0  0  0
  197.5480  173.2770  140.4750 C   0  0  0  0  0  3  0  0  0  0  0  0
  196.9440  173.8630  141.5980 C   0  0  0  0  0  0  0  0  0  0  0  0
  196.9910  171.5940  142.7720 C   0  0  0  0  0  2  0  0  0  0  0  0
  195.6390  175.7620  145.2690 C   0  0  0  0  0  2  0  0  0  0  0  0
  196.8700  173.5490  146.5080 O   0  0  0  0  0  0  0  0  0  0  0  0
  196.4970  168.5600  143.2460 C   0  0  0  0  0  1  0  0  0  0  0  0
  196.9660  173.8170  144.0970 C   0  0  1  0  0  3  0  0  0  0  0  0
  196.6230  170.9190  144.0570 C   0  0  0  0  0  0  0  0  0  0  0  0
  189.8990  175.7940  144.1640 N   0  0  0  0  0  2  0  0  0  0  0  0
  189.0240  176.3000  143.1530 C   0  0  0  0  0  0  0  0  0  0  0  0
  189.3680  177.2760  142.4350 O   0  0  0  0  0  0  0  0  0  0  0  0
  187.6940  175.6700  142.9520 C   0  0  0  0  0  1  0  0  0  0  0  0
  1 16  1  0  0  0  0
  2 24  1  1  0  0  0
  3 11  1  0  0  0  0
  4  3  2  0  0  0  0
  4 21  1  0  0  0  0
  5 25  2  0  0  0  0
  6  5  1  0  0  0  0
  6 18  1  0  0  0  0
  7 24  1  1  0  0  0
  7 19  1  0  0  0  0
  9 15  1  0  0  0  0
 10 17  1  0  0  0  0
 10 20  1  0  0  0  0
 11 13  2  0  0  0  0
 12  8  1  6  0  0  0
 12  2  1  0  0  0  0
 13 12  1  0  0  0  0
 14 23  1  6  0  0  0
 14 27  1  0  0  0  0
 15 18  2  0  0  0  0
 17  8  1  6  0  0  0
 17  7  1  0  0  0  0
 19 16  1  0  0  0  0
 20 29  1  1  0  0  0
 20  1  1  0  0  0  0
 21 22  2  0  0  0  0
 22 13  1  0  0  0  0
 22 14  1  0  0  0  0
 23 28  1  0  0  0  0
 26  9  1  0  0  0  0
 27  2  1  0  0  0  0
 27  5  1  1  0  0  0
 28  9  1  0  0  0  0
 28  6  2  0  0  0  0
 30 29  1  0  0  0  0
 31 30  2  0  0  0  0
 32 30  1  0  0  0  0
M  END
>  <MODEL>
5

>  <REMARK>
 VINA RESULT:      -6.8      4.248      7.847
  Name = 
  1 active torsions:
  status: ('A' for Active; 'I' for Inactive)
    1  A    between atoms: C_20  and  N_29
                            x       y       z     vdW  Elec       q    Type
                         _______ _______ _______ _____ _____    ______ ____

>  <TORSDO>
F 1

$$$$
=
 OpenBabel11112416383D

 32 37  0  0  1  0  0  0  0  0999 V2000
  189.8690  177.6980  144.7030 C   0  0  0  0  0  2  0  0  0  0  0  0
  192.8390  174.2510  141.6720 C   0  0  1  0  0  3  0  0  0  0  0  0
  191.1290  169.9240  140.2930 C   0  0  0  0  0  3  0  0  0  0  0  0
  192.0790  169.2580  141.0740 C   0  0  0  0  0  3  0  0  0  0  0  0
  194.9420  174.2980  143.2550 C   0  0  0  0  0  0  0  0  0  0  0  0
  195.5930  173.6420  144.3910 C   0  0  0  0  0  0  0  0  0  0  0  0
  191.8610  175.7360  143.3960 N   0  0  2  0  0  0  0  0  0  0  0  0
  190.6340  173.6880  142.7850 C   0  0  0  0  0  2  0  0  0  0  0  0
  196.1710  171.9790  145.7260 N   0  0  0  0  0  0  0  0  0  0  0  0
  189.7280  175.1510  144.5070 C   0  0  0  0  0  2  0  0  0  0  0  0
  190.9500  171.3030  140.4320 C   0  0  0  0  0  3  0  0  0  0  0  0
  191.5000  173.4920  141.5410 C   0  0  2  0  0  3  0  0  0  0  0  0
  191.7290  172.0210  141.3460 C   0  0  0  0  0  0  0  0  0  0  0  0
  193.4870  172.1790  143.1130 C   0  0  1  0  0  3  0  0  0  0  0  0
  196.8160  173.0900  146.1380 C   0  0  0  0  0  3  0  0  0  0  0  0
  191.2080  177.3770  144.9520 O   0  0  0  0  0  0  0  0  0  0  0  0
  190.5170  175.1540  143.1970 C   0  0  1  0  0  3  0  0  0  0  0  0
  196.4780  174.1660  145.3170 C   0  0  0  0  0  3  0  0  0  0  0  0
  191.7470  177.1650  143.6790 C   0  0  0  0  0  2  0  0  0  0  0  0
  188.9730  176.4590  144.7630 C   0  0  1  0  0  3  0  0  0  0  0  0
  192.8520  169.9700  141.9950 C   0  0  0  0  0  3  0  0  0  0  0  0
  192.6860  171.3560  142.1340 C   0  0  0  0  0  0  0  0  0  0  0  0
  194.6200  171.3930  143.8030 C   0  0  0  0  0  2  0  0  0  0  0  0
  192.5820  175.6900  142.1250 C   0  0  0  0  0  2  0  0  0  0  0  0
  195.2770  175.4650  142.9220 O   0  0  0  0  0  0  0  0  0  0  0  0
  196.3000  170.6580  146.3160 C   0  0  0  0  0  1  0  0  0  0  0  0
  193.9770  173.4790  142.4130 C   0  0  1  0  0  3  0  0  0  0  0  0
  195.4180  172.3160  144.6700 C   0  0  0  0  0  0  0  0  0  0  0  0
  188.3210  176.4010  146.0630 N   0  0  0  0  0  2  0  0  0  0  0  0
  187.0030  176.9070  146.2880 C   0  0  0  0  0  0  0  0  0  0  0  0
  186.3560  177.4530  145.3560 O   0  0  0  0  0  0  0  0  0  0  0  0
  186.3930  176.7910  147.6380 C   0  0  0  0  0  1  0  0  0  0  0  0
  1 20  1  0  0  0  0
  1 16  1  0  0  0  0
  2 24  1  1  0  0  0
  2 27  1  0  0  0  0
  3 11  2  0  0  0  0
  3  4  1  0  0  0  0
  4 21  2  0  0  0  0
  5  6  1  0  0  0  0
  6 28  2  0  0  0  0
  6 18  1  0  0  0  0
  7 24  1  6  0  0  0
  7 19  1  0  0  0  0
  9 15  1  0  0  0  0
  9 26  1  0  0  0  0
 10 20  1  0  0  0  0
 11 13  1  0  0  0  0
 12  2  1  0  0  0  0
 12  8  1  1  0  0  0
 13 12  1  0  0  0  0
 13 22  2  0  0  0  0
 14 23  1  6  0  0  0
 17  8  1  1  0  0  0
 17  7  1  0  0  0  0
 17 10  1  0  0  0  0
 18 15  2  0  0  0  0
 19 16  1  0  0  0  0
 20 29  1  1  0  0  0
 21 22  1  0  0  0  0
 22 14  1  0  0  0  0
 23 28  1  0  0  0  0
 25  5  2  0  0  0  0
 27 14  1  0  0  0  0
 27  5  1  1  0  0  0
 28  9  1  0  0  0  0
 29 30  1  0  0  0  0
 30 32  1  0  0  0  0
 31 30  2  0  0  0  0
M  END
>  <MODEL>
6

>  <REMARK>
 VINA RESULT:      -6.6      3.588      6.967
  Name = 
  1 active torsions:
  status: ('A' for Active; 'I' for Inactive)
    1  A    between atoms: C_20  and  N_29
                            x       y       z     vdW  Elec       q    Type
                         _______ _______ _______ _____ _____    ______ ____

>  <TORSDO>
F 1

$$$$
=
 OpenBabel11112416383D

 32 37  0  0  1  0  0  0  0  0999 V2000
  195.6010  173.2750  144.8390 C   0  0  0  0  0  2  0  0  0  0  0  0
  190.5240  172.1530  143.1500 C   0  0  1  0  0  3  0  0  0  0  0  0
  189.3900  171.8830  138.4400 C   0  0  0  0  0  3  0  0  0  0  0  0
  188.5670  173.0110  138.5340 C   0  0  0  0  0  3  0  0  0  0  0  0
  189.3770  174.0350  144.5880 C   0  0  0  0  0  0  0  0  0  0  0  0
  188.9220  175.4270  144.5840 C   0  0  0  0  0  0  0  0  0  0  0  0
  192.6080  173.0850  144.1080 N   0  0  2  0  0  0  0  0  0  0  0  0
  192.4250  172.9120  141.6570 C   0  0  0  0  0  2  0  0  0  0  0  0
  188.1160  177.3050  143.7450 N   0  0  0  0  0  0  0  0  0  0  0  0
  194.4400  173.8640  142.6360 C   0  0  0  0  0  2  0  0  0  0  0  0
  190.2370  171.5430  139.4970 C   0  0  0  0  0  3  0  0  0  0  0  0
  191.2070  171.9970  141.7730 C   0  0  2  0  0  3  0  0  0  0  0  0
  190.2560  172.3240  140.6580 C   0  0  0  0  0  0  0  0  0  0  0  0
  189.5040  174.2720  142.0290 C   0  0  1  0  0  3  0  0  0  0  0  0
  188.2600  177.4700  145.0760 C   0  0  0  0  0  3  0  0  0  0  0  0
  194.4470  173.8800  145.3460 O   0  0  0  0  0  0  0  0  0  0  0  0
  193.3560  172.8090  142.8640 C   0  0  1  0  0  3  0  0  0  0  0  0
  188.7660  176.3020  145.6460 C   0  0  0  0  0  3  0  0  0  0  0  0
  193.4760  172.8760  145.2660 C   0  0  0  0  0  2  0  0  0  0  0  0
  195.7610  173.5370  143.3390 C   0  0  1  0  0  3  0  0  0  0  0  0
  188.5900  173.7990  139.6880 C   0  0  0  0  0  3  0  0  0  0  0  0
  189.4310  173.4590  140.7590 C   0  0  0  0  0  0  0  0  0  0  0  0
  188.4450  175.3900  142.1100 C   0  0  0  0  0  2  0  0  0  0  0  0
  191.5700  172.0690  144.2640 C   0  0  0  0  0  2  0  0  0  0  0  0
  189.5460  173.4290  145.6780 O   0  0  0  0  0  0  0  0  0  0  0  0
  187.5840  178.2930  142.8220 C   0  0  0  0  0  1  0  0  0  0  0  0
  189.4850  173.3150  143.2550 C   0  0  1  0  0  3  0  0  0  0  0  0
  188.5290  176.0660  143.4430 C   0  0  0  0  0  0  0  0  0  0  0  0
  196.7050  174.6270  143.1400 N   0  0  0  0  0  2  0  0  0  0  0  0
  196.3520  175.9990  143.3370 C   0  0  0  0  0  0  0  0  0  0  0  0
  195.1810  176.3200  143.6730 O   0  0  0  0  0  0  0  0  0  0  0  0
  197.3760  177.0550  143.1380 C   0  0  0  0  0  1  0  0  0  0  0  0
  1 16  1  0  0  0  0
  2 27  1  0  0  0  0
  2 24  1  1  0  0  0
  3  4  2  0  0  0  0
  3 11  1  0  0  0  0
  4 21  1  0  0  0  0
  5 25  2  0  0  0  0
  6  5  1  0  0  0  0
  6 18  1  0  0  0  0
  7 24  1  1  0  0  0
  7 19  1  0  0  0  0
  9 15  1  0  0  0  0
 10 17  1  0  0  0  0
 10 20  1  0  0  0  0
 11 13  2  0  0  0  0
 12  8  1  1  0  0  0
 12  2  1  0  0  0  0
 13 22  1  0  0  0  0
 13 12  1  0  0  0  0
 14 23  1  1  0  0  0
 14 27  1  0  0  0  0
 15 18  2  0  0  0  0
 17  8  1  6  0  0  0
 17  7  1  0  0  0  0
 19 16  1  0  0  0  0
 20 29  1  1  0  0  0
 20  1  1  0  0  0  0
 21 22  2  0  0  0  0
 22 14  1  0  0  0  0
 23 28  1  0  0  0  0
 26  9  1  0  0  0  0
 27  5  1  1  0  0  0
 28  9  1  0  0  0  0
 28  6  2  0  0  0  0
 29 30  1  0  0  0  0
 30 31  2  0  0  0  0
 32 30  1  0  0  0  0
M  END
>  <MODEL>
7

>  <REMARK>
 VINA RESULT:      -6.4      3.146      5.982
  Name = 
  1 active torsions:
  status: ('A' for Active; 'I' for Inactive)
    1  A    between atoms: C_20  and  N_29
                            x       y       z     vdW  Elec       q    Type
                         _______ _______ _______ _____ _____    ______ ____

>  <TORSDO>
F 1

$$$$
=
 OpenBabel11112416383D

 32 37  0  0  1  0  0  0  0  0999 V2000
  188.1460  176.4140  145.8290 C   0  0  0  0  0  2  0  0  0  0  0  0
  193.0830  174.2250  144.9760 C   0  0  1  0  0  3  0  0  0  0  0  0
  196.7280  176.7910  143.0580 C   0  0  0  0  0  3  0  0  0  0  0  0
  196.7330  175.9950  141.9080 C   0  0  0  0  0  3  0  0  0  0  0  0
  192.1900  172.1520  143.6220 C   0  0  0  0  0  0  0  0  0  0  0  0
  191.8860  171.6450  142.2830 C   0  0  0  0  0  0  0  0  0  0  0  0
  190.6930  174.8720  145.0140 N   0  0  2  0  0  0  0  0  0  0  0  0
  192.3280  176.4950  144.1400 C   0  0  0  0  0  2  0  0  0  0  0  0
  192.0950  171.4140  140.0960 N   0  0  0  0  0  0  0  0  0  0  0  0
  189.9630  177.0750  144.1540 C   0  0  0  0  0  2  0  0  0  0  0  0
  195.6840  176.6830  143.9800 C   0  0  0  0  0  3  0  0  0  0  0  0
  193.4930  175.6920  144.7170 C   0  0  2  0  0  3  0  0  0  0  0  0
  194.6470  175.7710  143.7590 C   0  0  0  0  0  0  0  0  0  0  0  0
  193.4960  174.0100  142.4120 C   0  0  1  0  0  3  0  0  0  0  0  0
  191.1450  170.5530  140.5180 C   0  0  0  0  0  3  0  0  0  0  0  0
  188.3680  175.1690  145.2320 O   0  0  0  0  0  0  0  0  0  0  0  0
  191.0340  176.3070  144.9310 C   0  0  1  0  0  3  0  0  0  0  0  0
  190.9850  170.6670  141.8990 C   0  0  0  0  0  3  0  0  0  0  0  0
  189.5180  174.6890  145.8650 C   0  0  0  0  0  2  0  0  0  0  0  0
  188.7990  177.5450  145.0310 C   0  0  1  0  0  3  0  0  0  0  0  0
  195.6950  175.0880  141.6790 C   0  0  0  0  0  3  0  0  0  0  0  0
  194.6470  174.9670  142.6050 C   0  0  0  0  0  0  0  0  0  0  0  0
  193.6740  173.0600  141.2110 C   0  0  0  0  0  2  0  0  0  0  0  0
  191.7570  174.1800  145.7380 C   0  0  0  0  0  2  0  0  0  0  0  0
  191.7060  171.5860  144.6370 O   0  0  0  0  0  0  0  0  0  0  0  0
  192.5580  171.5560  138.7260 C   0  0  0  0  0  1  0  0  0  0  0  0
  193.2150  173.2660  143.7490 C   0  0  1  0  0  3  0  0  0  0  0  0
  192.5380  172.0860  141.1670 C   0  0  0  0  0  0  0  0  0  0  0  0
  187.7910  178.1900  144.2020 N   0  0  0  0  0  2  0  0  0  0  0  0
  186.5630  178.6940  144.7320 C   0  0  0  0  0  0  0  0  0  0  0  0
  186.2940  178.5740  145.9560 O   0  0  0  0  0  0  0  0  0  0  0  0
  185.5930  179.3630  143.8270 C   0  0  0  0  0  1  0  0  0  0  0  0
  2 24  1  6  0  0  0
  3 11  1  0  0  0  0
  4  3  2  0  0  0  0
  5 25  2  0  0  0  0
  6  5  1  0  0  0  0
  7 24  1  1  0  0  0
  7 19  1  0  0  0  0
  9 15  1  0  0  0  0
  9 28  1  0  0  0  0
 10 17  1  0  0  0  0
 10 20  1  0  0  0  0
 12  8  1  6  0  0  0
 12  2  1  0  0  0  0
 13 11  2  0  0  0  0
 13 12  1  0  0  0  0
 14 23  1  6  0  0  0
 14 22  1  0  0  0  0
 14 27  1  0  0  0  0
 15 18  2  0  0  0  0
 16  1  1  0  0  0  0
 16 19  1  0  0  0  0
 17  8  1  6  0  0  0
 17  7  1  0  0  0  0
 18  6  1  0  0  0  0
 20 29  1  6  0  0  0
 20  1  1  0  0  0  0
 21  4  1  0  0  0  0
 21 22  2  0  0  0  0
 22 13  1  0  0  0  0
 26  9  1  0  0  0  0
 27  5  1  6  0  0  0
 27  2  1  0  0  0  0
 28 23  1  0  0  0  0
 28  6  2  0  0  0  0
 29 30  1  0  0  0  0
 30 31  2  0  0  0  0
 32 30  1  0  0  0  0
M  END
>  <MODEL>
8

>  <REMARK>
 VINA RESULT:      -6.4      3.041      7.247
  Name = 
  1 active torsions:
  status: ('A' for Active; 'I' for Inactive)
    1  A    between atoms: C_20  and  N_29
                            x       y       z     vdW  Elec       q    Type
                         _______ _______ _______ _____ _____    ______ ____

>  <TORSDO>
F 1

$$$$
=
 OpenBabel11112416383D

 32 37  0  0  1  0  0  0  0  0999 V2000
  194.2630  176.1430  146.2070 C   0  0  0  0  0  2  0  0  0  0  0  0
  190.0050  173.3800  144.1770 C   0  0  1  0  0  3  0  0  0  0  0  0
  190.3770  170.6910  140.1540 C   0  0  0  0  0  3  0  0  0  0  0  0
  189.5100  171.5410  139.4600 C   0  0  0  0  0  3  0  0  0  0  0  0
  188.3820  175.4510  144.1290 C   0  0  0  0  0  0  0  0  0  0  0  0
  187.8810  176.5530  143.3060 C   0  0  0  0  0  0  0  0  0  0  0  0
  191.6490  175.0440  144.9870 N   0  0  2  0  0  0  0  0  0  0  0  0
  192.2310  173.6970  143.0080 C   0  0  0  0  0  2  0  0  0  0  0  0
  187.2780  177.6080  141.4610 N   0  0  0  0  0  0  0  0  0  0  0  0
  193.8010  175.3760  143.8110 C   0  0  0  0  0  2  0  0  0  0  0  0
  190.8770  171.0680  141.4030 C   0  0  0  0  0  3  0  0  0  0  0  0
  191.0820  172.7270  143.2820 C   0  0  2  0  0  3  0  0  0  0  0  0
  190.5020  172.2920  141.9670 C   0  0  0  0  0  0  0  0  0  0  0  0
  189.2710  174.4650  141.9240 C   0  0  1  0  0  3  0  0  0  0  0  0
  187.0000  178.4090  142.5100 C   0  0  0  0  0  3  0  0  0  0  0  0
  192.9800  176.6750  146.0420 O   0  0  0  0  0  0  0  0  0  0  0  0
  192.7530  174.3640  144.2790 C   0  0  1  0  0  3  0  0  0  0  0  0
  187.3660  177.7770  143.6980 C   0  0  0  0  0  3  0  0  0  0  0  0
  192.1310  175.5850  146.2570 C   0  0  0  0  0  2  0  0  0  0  0  0
  194.8590  175.6880  144.8730 C   0  0  1  0  0  3  0  0  0  0  0  0
  189.1400  172.7690  140.0160 C   0  0  0  0  0  3  0  0  0  0  0  0
  189.6300  173.1510  141.2740 C   0  0  0  0  0  0  0  0  0  0  0  0
  188.1840  175.2540  141.1680 C   0  0  0  0  0  2  0  0  0  0  0  0
  190.6640  174.0420  145.3880 C   0  0  0  0  0  2  0  0  0  0  0  0
  188.2400  175.4800  145.3800 O   0  0  0  0  0  0  0  0  0  0  0  0
  187.0040  177.9140  140.0670 C   0  0  0  0  0  1  0  0  0  0  0  0
  188.9270  174.2220  143.4220 C   0  0  1  0  0  3  0  0  0  0  0  0
  187.8240  176.4830  141.9430 C   0  0  0  0  0  0  0  0  0  0  0  0
  195.7630  176.7160  144.3760 N   0  0  0  0  0  2  0  0  0  0  0  0
  196.8770  176.4200  143.5310 C   0  0  0  0  0  0  0  0  0  0  0  0
  197.1350  175.2320  143.2000 O   0  0  0  0  0  0  0  0  0  0  0  0
  197.7420  177.5250  143.0440 C   0  0  0  0  0  1  0  0  0  0  0  0
  2 24  1  1  0  0  0
  3 11  1  0  0  0  0
  4 21  1  0  0  0  0
  4  3  2  0  0  0  0
  5 25  2  0  0  0  0
  6 18  1  0  0  0  0
  6  5  1  0  0  0  0
  7 24  1  1  0  0  0
  7 19  1  0  0  0  0
  9 28  1  0  0  0  0
  9 15  1  0  0  0  0
 10 17  1  0  0  0  0
 10 20  1  0  0  0  0
 11 13  2  0  0  0  0
 12  8  1  6  0  0  0
 12  2  1  0  0  0  0
 13 12  1  0  0  0  0
 14 23  1  6  0  0  0
 14 27  1  0  0  0  0
 15 18  2  0  0  0  0
 16  1  1  0  0  0  0
 16 19  1  0  0  0  0
 17  8  1  6  0  0  0
 17  7  1  0  0  0  0
 20 29  1  6  0  0  0
 20  1  1  0  0  0  0
 21 22  2  0  0  0  0
 22 14  1  0  0  0  0
 22 13  1  0  0  0  0
 23 28  1  0  0  0  0
 26  9  1  0  0  0  0
 27  5  1  1  0  0  0
 27  2  1  0  0  0  0
 28  6  2  0  0  0  0
 30 29  1  0  0  0  0
 31 30  2  0  0  0  0
 32 30  1  0  0  0  0
M  END
>  <MODEL>
9

>  <REMARK>
 VINA RESULT:      -6.4      3.338      6.880
  Name = 
  1 active torsions:
  status: ('A' for Active; 'I' for Inactive)
    1  A    between atoms: C_20  and  N_29
                            x       y       z     vdW  Elec       q    Type
                         _______ _______ _______ _____ _____    ______ ____

>  <TORSDO>
F 1

$$$$
