=
 OpenBabel11112416573D

 31 35  0  0  1  0  0  0  0  0999 V2000
  184.8060  178.1020  146.8310 C   0  0  0  0  0  0  0  0  0  0  0  0
  187.0280  177.7570  143.8160 C   0  0  0  0  0  0  0  0  0  0  0  0
  186.1930  177.8600  142.6640 C   0  0  0  0  0  0  0  0  0  0  0  0
  184.0440  178.1450  141.5660 C   0  0  0  0  0  0  0  0  0  0  0  0
  186.5630  177.8380  145.1650 C   0  0  0  0  0  0  0  0  0  0  0  0
  185.7560  177.9830  147.8420 C   0  0  0  0  0  3  0  0  0  0  0  0
  184.8050  178.0530  142.7320 C   0  0  0  0  0  3  0  0  0  0  0  0
  189.3170  177.4490  144.6700 C   0  0  0  0  0  0  0  0  0  0  0  0
  183.5000  178.2870  147.1380 F   0  0  0  0  0  0  0  0  0  0  0  0
  188.1140  177.5770  141.2610 N   0  0  0  0  0  0  0  0  0  0  0  0
  182.3150  178.3870  141.6680 Cl  0  0  0  0  0  0  0  0  0  0  0  0
  188.8380  177.5320  145.9780 C   0  0  0  0  0  3  0  0  0  0  0  0
  188.4200  177.5610  143.5960 C   0  0  0  0  0  0  0  0  0  0  0  0
  185.2130  178.0290  145.5010 C   0  0  0  0  0  3  0  0  0  0  0  0
  184.6460  178.0470  140.3520 N   0  0  0  0  0  0  0  0  0  0  0  0
  187.4860  177.7230  146.2340 C   0  0  0  0  0  0  0  0  0  0  0  0
  187.0640  177.7970  147.5240 N   0  0  0  0  0  0  0  0  0  0  0  0
  188.9030  177.4790  142.3260 N   0  0  0  0  0  0  0  0  0  0  0  0
  186.7800  177.7620  141.3840 C   0  0  0  0  0  0  0  0  0  0  0  0
  185.9870  177.8600  140.2390 C   0  0  0  0  0  3  0  0  0  0  0  0
  190.8540  174.9420  144.7370 O   0  0  0  0  0  0  0  0  0  0  0  0
  191.4450  176.0170  144.4480 C   0  0  0  0  0  0  0  0  0  0  0  0
  190.7150  177.2530  144.4020 N   0  0  0  0  0  2  0  0  0  0  0  0
  195.6300  176.4090  143.3280 C   0  0  1  0  0  3  0  0  0  0  0  0
  193.2800  176.0240  142.6720 C   0  0  0  0  0  2  0  0  0  0  0  0
  193.5000  176.2190  146.4420 O   0  0  0  0  0  1  0  0  0  0  0  0
  196.9610  176.1010  143.0520 O   0  0  0  0  0  1  0  0  0  0  0  0
  194.7210  175.5960  142.4270 C   0  0  0  0  0  2  0  0  0  0  0  0
  193.8490  176.1220  145.0980 C   0  0  0  0  0  0  0  0  0  0  0  0
  192.8980  176.0230  144.1370 C   0  0  0  0  0  0  0  0  0  0  0  0
  195.3210  176.0680  144.7800 C   0  0  0  0  0  2  0  0  0  0  0  0
  1  9  1  0  0  0  0
  1  6  1  0  0  0  0
  2  5  1  0  0  0  0
  3  7  2  0  0  0  0
  3  2  1  0  0  0  0
  4 11  1  0  0  0  0
  4  7  1  0  0  0  0
  5 14  1  0  0  0  0
  5 16  2  0  0  0  0
  8 12  2  0  0  0  0
 10 19  1  0  0  0  0
 10 18  2  0  0  0  0
 12 16  1  0  0  0  0
 13  2  2  0  0  0  0
 13  8  1  0  0  0  0
 14  1  2  0  0  0  0
 15  4  2  0  0  0  0
 16 17  1  0  0  0  0
 17  6  2  0  0  0  0
 18 13  1  0  0  0  0
 19  3  1  0  0  0  0
 20 15  1  0  0  0  0
 20 19  2  0  0  0  0
 22 21  2  0  0  0  0
 23 22  1  0  0  0  0
 23  8  1  0  0  0  0
 24 27  1  6  0  0  0
 24 31  1  0  0  0  0
 25 30  1  0  0  0  0
 28 25  1  0  0  0  0
 28 24  1  0  0  0  0
 29 26  1  0  0  0  0
 30 22  1  0  0  0  0
 30 29  2  0  0  0  0
 31 29  1  0  0  0  0
M  END
>  <MODEL>
1

>  <REMARK>
 VINA RESULT:      -9.5      0.000      0.000
  Name = 
  2 active torsions:
  status: ('A' for Active; 'I' for Inactive)
    1  A    between atoms: C_5  and  C_30
    2  A    between atoms: C_10  and  N_16
                            x       y       z     vdW  Elec       q    Type
                         _______ _______ _______ _____ _____    ______ ____

>  <TORSDO>
F 2

$$$$
=
 OpenBabel11112416573D

 31 35  0  0  1  0  0  0  0  0999 V2000
  185.3920  177.8980  141.1050 C   0  0  0  0  0  0  0  0  0  0  0  0
  187.4070  177.3170  144.2270 C   0  0  0  0  0  0  0  0  0  0  0  0
  186.5750  177.6590  145.3340 C   0  0  0  0  0  0  0  0  0  0  0  0
  184.4960  178.4400  146.3210 C   0  0  0  0  0  0  0  0  0  0  0  0
  187.0090  177.3990  142.8570 C   0  0  0  0  0  0  0  0  0  0  0  0
  186.3280  177.5230  140.1440 C   0  0  0  0  0  3  0  0  0  0  0  0
  185.2570  178.1210  145.1950 C   0  0  0  0  0  3  0  0  0  0  0  0
  189.6120  176.5030  143.4910 C   0  0  0  0  0  0  0  0  0  0  0  0
  184.1600  178.3190  140.7310 F   0  0  0  0  0  0  0  0  0  0  0  0
  188.3560  177.0920  146.8330 N   0  0  0  0  0  0  0  0  0  0  0  0
  182.8550  179.0140  146.1310 Cl  0  0  0  0  0  0  0  0  0  0  0  0
  189.1980  176.5920  142.1620 C   0  0  0  0  0  3  0  0  0  0  0  0
  188.7230  176.8620  144.5170 C   0  0  0  0  0  0  0  0  0  0  0  0
  185.7360  177.8340  142.4530 C   0  0  0  0  0  3  0  0  0  0  0  0
  185.0290  178.3050  147.5630 N   0  0  0  0  0  0  0  0  0  0  0  0
  187.9210  177.0310  141.8370 C   0  0  0  0  0  0  0  0  0  0  0  0
  187.5610  177.1030  140.5280 N   0  0  0  0  0  0  0  0  0  0  0  0
  189.1410  176.7700  145.8090 N   0  0  0  0  0  0  0  0  0  0  0  0
  187.0920  177.5330  146.6410 C   0  0  0  0  0  0  0  0  0  0  0  0
  186.3000  177.8610  147.7440 C   0  0  0  0  0  3  0  0  0  0  0  0
  192.0520  178.1010  143.8650 O   0  0  0  0  0  0  0  0  0  0  0  0
  192.1120  176.8490  144.0010 C   0  0  0  0  0  0  0  0  0  0  0  0
  190.9320  176.0480  143.8290 N   0  0  0  0  0  2  0  0  0  0  0  0
  195.6270  174.5520  145.1340 C   0  0  1  0  0  3  0  0  0  0  0  0
  193.5440  175.7100  145.7820 C   0  0  0  0  0  2  0  0  0  0  0  0
  194.1760  176.2630  142.0960 O   0  0  0  0  0  1  0  0  0  0  0  0
  196.9230  174.2230  145.5270 O   0  0  0  0  0  1  0  0  0  0  0  0
  194.9910  175.4490  146.1780 C   0  0  0  0  0  2  0  0  0  0  0  0
  194.3510  175.9160  143.4310 C   0  0  0  0  0  0  0  0  0  0  0  0
  193.3930  176.1840  144.3520 C   0  0  0  0  0  0  0  0  0  0  0  0
  195.6730  175.2950  143.8050 C   0  0  0  0  0  2  0  0  0  0  0  0
  1 14  1  0  0  0  0
  2 13  2  0  0  0  0
  2  3  1  0  0  0  0
  3 19  1  0  0  0  0
  4 15  2  0  0  0  0
  5  2  1  0  0  0  0
  6 17  1  0  0  0  0
  6  1  2  0  0  0  0
  7  3  2  0  0  0  0
  7  4  1  0  0  0  0
  8 23  1  0  0  0  0
  8 13  1  0  0  0  0
  9  1  1  0  0  0  0
 11  4  1  0  0  0  0
 12  8  2  0  0  0  0
 13 18  1  0  0  0  0
 14  5  2  0  0  0  0
 15 20  1  0  0  0  0
 16 12  1  0  0  0  0
 16  5  1  0  0  0  0
 17 16  2  0  0  0  0
 18 10  2  0  0  0  0
 19 10  1  0  0  0  0
 19 20  2  0  0  0  0
 21 22  2  0  0  0  0
 22 30  1  0  0  0  0
 23 22  1  0  0  0  0
 24 27  1  1  0  0  0
 24 28  1  0  0  0  0
 25 28  1  0  0  0  0
 26 29  1  0  0  0  0
 29 31  1  0  0  0  0
 29 30  2  0  0  0  0
 30 25  1  0  0  0  0
 31 24  1  0  0  0  0
M  END
>  <MODEL>
2

>  <REMARK>
 VINA RESULT:      -8.1      2.093      4.239
  Name = 
  2 active torsions:
  status: ('A' for Active; 'I' for Inactive)
    1  A    between atoms: C_5  and  C_30
    2  A    between atoms: C_10  and  N_16
                            x       y       z     vdW  Elec       q    Type
                         _______ _______ _______ _____ _____    ______ ____

>  <TORSDO>
F 2

$$$$
=
 OpenBabel11112416573D

 31 35  0  0  1  0  0  0  0  0999 V2000
  190.9420  176.8600  147.4260 C   0  0  0  0  0  0  0  0  0  0  0  0
  188.7680  176.0850  144.4570 C   0  0  0  0  0  0  0  0  0  0  0  0
  187.5340  176.7750  144.6470 C   0  0  0  0  0  0  0  0  0  0  0  0
  186.0340  178.2260  145.8920 C   0  0  0  0  0  0  0  0  0  0  0  0
  189.8670  176.1220  145.3680 C   0  0  0  0  0  0  0  0  0  0  0  0
  192.0770  176.1280  147.0880 C   0  0  0  0  0  3  0  0  0  0  0  0
  187.2630  177.5770  145.7670 C   0  0  0  0  0  3  0  0  0  0  0  0
  190.0820  174.5940  143.0020 C   0  0  0  0  0  0  0  0  0  0  0  0
  190.9050  177.5720  148.5780 F   0  0  0  0  0  0  0  0  0  0  0  0
  186.7340  175.8950  142.5670 N   0  0  0  0  0  0  0  0  0  0  0  0
  185.7120  179.2210  147.2940 Cl  0  0  0  0  0  0  0  0  0  0  0  0
  191.1410  174.6480  143.9080 C   0  0  0  0  0  3  0  0  0  0  0  0
  188.9030  175.3080  143.2720 C   0  0  0  0  0  0  0  0  0  0  0  0
  189.8460  176.8540  146.5670 C   0  0  0  0  0  3  0  0  0  0  0  0
  185.0890  178.0850  144.9280 N   0  0  0  0  0  0  0  0  0  0  0  0
  191.0470  175.3950  145.0750 C   0  0  0  0  0  0  0  0  0  0  0  0
  192.1050  175.4170  145.9300 N   0  0  0  0  0  0  0  0  0  0  0  0
  187.8790  175.2470  142.3790 N   0  0  0  0  0  0  0  0  0  0  0  0
  186.5250  176.6540  143.6670 C   0  0  0  0  0  0  0  0  0  0  0  0
  185.3080  177.3190  143.8270 C   0  0  0  0  0  3  0  0  0  0  0  0
  189.2960  171.7950  142.5570 O   0  0  0  0  0  0  0  0  0  0  0  0
  189.7900  172.4520  141.6030 C   0  0  0  0  0  0  0  0  0  0  0  0
  190.1760  173.8230  141.7930 N   0  0  0  0  0  2  0  0  0  0  0  0
  190.2130  170.2530  137.8740 C   0  0  1  0  0  3  0  0  0  0  0  0
  191.0190  170.7440  140.1560 C   0  0  0  0  0  2  0  0  0  0  0  0
  188.1500  173.0630  139.3290 O   0  0  0  0  0  1  0  0  0  0  0  0
  190.5870  169.9050  136.5770 O   0  0  0  0  0  1  0  0  0  0  0  0
  191.4510  170.4690  138.7210 C   0  0  0  0  0  2  0  0  0  0  0  0
  189.1790  172.1350  139.2070 C   0  0  0  0  0  0  0  0  0  0  0  0
  189.9700  171.8300  140.2650 C   0  0  0  0  0  0  0  0  0  0  0  0
  189.4050  171.5440  137.8400 C   0  0  0  0  0  2  0  0  0  0  0  0
  1  9  1  0  0  0  0
  2  3  1  0  0  0  0
  2  5  1  0  0  0  0
  3  7  2  0  0  0  0
  4 11  1  0  0  0  0
  5 14  1  0  0  0  0
  6  1  1  0  0  0  0
  7  4  1  0  0  0  0
  8 13  1  0  0  0  0
  8 12  2  0  0  0  0
 10 19  1  0  0  0  0
 12 16  1  0  0  0  0
 13  2  2  0  0  0  0
 14  1  2  0  0  0  0
 15  4  2  0  0  0  0
 16  5  2  0  0  0  0
 16 17  1  0  0  0  0
 17  6  2  0  0  0  0
 18 10  2  0  0  0  0
 18 13  1  0  0  0  0
 19 20  2  0  0  0  0
 19  3  1  0  0  0  0
 20 15  1  0  0  0  0
 22 23  1  0  0  0  0
 22 21  2  0  0  0  0
 23  8  1  0  0  0  0
 24 27  1  6  0  0  0
 24 28  1  0  0  0  0
 25 30  1  0  0  0  0
 28 25  1  0  0  0  0
 29 26  1  0  0  0  0
 29 30  2  0  0  0  0
 30 22  1  0  0  0  0
 31 24  1  0  0  0  0
 31 29  1  0  0  0  0
M  END
>  <MODEL>
3

>  <REMARK>
 VINA RESULT:      -8.0      4.581      5.928
  Name = 
  2 active torsions:
  status: ('A' for Active; 'I' for Inactive)
    1  A    between atoms: C_5  and  C_30
    2  A    between atoms: C_10  and  N_16
                            x       y       z     vdW  Elec       q    Type
                         _______ _______ _______ _____ _____    ______ ____

>  <TORSDO>
F 2

$$$$
=
 OpenBabel11112416573D

 31 35  0  0  1  0  0  0  0  0999 V2000
  186.3460  177.8290  146.8160 C   0  0  0  0  0  0  0  0  0  0  0  0
  189.3280  176.4190  145.0080 C   0  0  0  0  0  0  0  0  0  0  0  0
  190.4450  176.5310  145.8880 C   0  0  0  0  0  0  0  0  0  0  0  0
  191.4930  177.1600  147.9890 C   0  0  0  0  0  0  0  0  0  0  0  0
  188.0010  176.8450  145.3230 C   0  0  0  0  0  0  0  0  0  0  0  0
  185.3680  177.6460  145.8420 C   0  0  0  0  0  3  0  0  0  0  0  0
  190.3600  177.0800  147.1770 C   0  0  0  0  0  3  0  0  0  0  0  0
  188.5220  175.6910  142.7980 C   0  0  0  0  0  0  0  0  0  0  0  0
  186.0280  178.3900  148.0070 F   0  0  0  0  0  0  0  0  0  0  0  0
  191.8450  175.5320  144.2200 N   0  0  0  0  0  0  0  0  0  0  0  0
  191.3700  177.8470  149.5930 Cl  0  0  0  0  0  0  0  0  0  0  0  0
  187.2350  176.1150  143.1310 C   0  0  0  0  0  3  0  0  0  0  0  0
  189.5620  175.8410  143.7290 C   0  0  0  0  0  0  0  0  0  0  0  0
  187.6540  177.4290  146.5530 C   0  0  0  0  0  3  0  0  0  0  0  0
  192.6890  176.7070  147.5340 N   0  0  0  0  0  0  0  0  0  0  0  0
  186.9660  176.6840  144.3690 C   0  0  0  0  0  0  0  0  0  0  0  0
  185.6970  177.0830  144.6500 N   0  0  0  0  0  0  0  0  0  0  0  0
  190.8110  175.4230  143.3910 N   0  0  0  0  0  0  0  0  0  0  0  0
  191.7070  176.0710  145.4530 C   0  0  0  0  0  0  0  0  0  0  0  0
  192.8170  176.1680  146.2930 C   0  0  0  0  0  3  0  0  0  0  0  0
  187.7580  173.0290  141.8090 O   0  0  0  0  0  0  0  0  0  0  0  0
  188.4230  173.7940  141.0600 C   0  0  0  0  0  0  0  0  0  0  0  0
  188.8020  175.1010  141.5180 N   0  0  0  0  0  2  0  0  0  0  0  0
  189.3340  172.1810  137.1250 C   0  0  1  0  0  3  0  0  0  0  0  0
  189.5920  172.0740  139.5780 C   0  0  0  0  0  2  0  0  0  0  0  0
  187.6160  175.1680  138.6730 O   0  0  0  0  0  1  0  0  0  0  0  0
  189.9550  171.9570  135.8970 O   0  0  0  0  0  1  0  0  0  0  0  0
  190.3190  171.9250  138.2480 C   0  0  0  0  0  2  0  0  0  0  0  0
  188.4150  174.0330  138.5790 C   0  0  0  0  0  0  0  0  0  0  0  0
  188.8120  173.3660  139.6910 C   0  0  0  0  0  0  0  0  0  0  0  0
  188.8630  173.6280  137.1980 C   0  0  0  0  0  2  0  0  0  0  0  0
  1  9  1  0  0  0  0
  2  5  1  0  0  0  0
  2  3  1  0  0  0  0
  3  7  1  0  0  0  0
  4 11  1  0  0  0  0
  5 14  2  0  0  0  0
  6  1  2  0  0  0  0
  7  4  2  0  0  0  0
  8 12  2  0  0  0  0
  8 13  1  0  0  0  0
 10 19  1  0  0  0  0
 12 16  1  0  0  0  0
 13  2  2  0  0  0  0
 14  1  1  0  0  0  0
 15  4  1  0  0  0  0
 16 17  2  0  0  0  0
 16  5  1  0  0  0  0
 17  6  1  0  0  0  0
 18 13  1  0  0  0  0
 18 10  2  0  0  0  0
 19  3  2  0  0  0  0
 19 20  1  0  0  0  0
 20 15  2  0  0  0  0
 22 23  1  0  0  0  0
 22 21  2  0  0  0  0
 23  8  1  0  0  0  0
 24 27  1  6  0  0  0
 24 31  1  0  0  0  0
 24 28  1  0  0  0  0
 25 30  1  0  0  0  0
 28 25  1  0  0  0  0
 29 26  1  0  0  0  0
 29 30  2  0  0  0  0
 30 22  1  0  0  0  0
 31 29  1  0  0  0  0
M  END
>  <MODEL>
4

>  <REMARK>
 VINA RESULT:      -7.9      4.503      6.644
  Name = 
  2 active torsions:
  status: ('A' for Active; 'I' for Inactive)
    1  A    between atoms: C_5  and  C_30
    2  A    between atoms: C_10  and  N_16
                            x       y       z     vdW  Elec       q    Type
                         _______ _______ _______ _____ _____    ______ ____

>  <TORSDO>
F 2

$$$$
=
 OpenBabel11112416573D

 31 35  0  0  1  0  0  0  0  0999 V2000
  186.3330  178.6140  144.2920 C   0  0  0  0  0  0  0  0  0  0  0  0
  188.8910  175.8590  144.3890 C   0  0  0  0  0  0  0  0  0  0  0  0
  189.6980  176.0740  145.5450 C   0  0  0  0  0  0  0  0  0  0  0  0
  190.3320  177.3000  147.5460 C   0  0  0  0  0  0  0  0  0  0  0  0
  187.8000  176.6930  143.9940 C   0  0  0  0  0  0  0  0  0  0  0  0
  185.6450  178.2600  143.1340 C   0  0  0  0  0  3  0  0  0  0  0  0
  189.5050  177.1450  146.4320 C   0  0  0  0  0  3  0  0  0  0  0  0
  188.4610  174.4400  142.4230 C   0  0  0  0  0  0  0  0  0  0  0  0
  185.9630  179.7090  145.0000 F   0  0  0  0  0  0  0  0  0  0  0  0
  190.9780  174.1240  145.0010 N   0  0  0  0  0  0  0  0  0  0  0  0
  190.0780  178.6400  148.6420 Cl  0  0  0  0  0  0  0  0  0  0  0  0
  187.4000  175.2700  142.0590 C   0  0  0  0  0  3  0  0  0  0  0  0
  189.2010  174.7310  143.5790 C   0  0  0  0  0  0  0  0  0  0  0  0
  187.4040  177.8300  144.7150 C   0  0  0  0  0  3  0  0  0  0  0  0
  191.3320  176.4110  147.7790 N   0  0  0  0  0  0  0  0  0  0  0  0
  187.0650  176.3800  142.8230 C   0  0  0  0  0  0  0  0  0  0  0  0
  186.0240  177.1620  142.4310 N   0  0  0  0  0  0  0  0  0  0  0  0
  190.2330  173.9120  143.9210 N   0  0  0  0  0  0  0  0  0  0  0  0
  190.7490  175.1730  145.8230 C   0  0  0  0  0  0  0  0  0  0  0  0
  191.5550  175.3610  146.9470 C   0  0  0  0  0  3  0  0  0  0  0  0
  190.6490  174.1550  140.4780 O   0  0  0  0  0  0  0  0  0  0  0  0
  189.8800  173.1770  140.6840 C   0  0  0  0  0  0  0  0  0  0  0  0
  188.8080  173.2900  141.6340 N   0  0  0  0  0  2  0  0  0  0  0  0
  190.2510  169.2250  138.9080 C   0  0  1  0  0  3  0  0  0  0  0  0
  190.8810  170.8280  140.6770 C   0  0  0  0  0  2  0  0  0  0  0  0
  188.6670  172.5700  138.1560 O   0  0  0  0  0  1  0  0  0  0  0  0
  190.6880  168.1660  138.1140 O   0  0  0  0  0  1  0  0  0  0  0  0
  191.4040  169.7440  139.7430 C   0  0  0  0  0  2  0  0  0  0  0  0
  189.4880  171.6300  138.7700 C   0  0  0  0  0  0  0  0  0  0  0  0
  190.0760  171.8920  139.9640 C   0  0  0  0  0  0  0  0  0  0  0  0
  189.7380  170.3490  138.0170 C   0  0  0  0  0  2  0  0  0  0  0  0
  1 14  1  0  0  0  0
  1  9  1  0  0  0  0
  2  3  1  0  0  0  0
  3 19  2  0  0  0  0
  3  7  1  0  0  0  0
  4 15  1  0  0  0  0
  4 11  1  0  0  0  0
  5  2  1  0  0  0  0
  5 14  2  0  0  0  0
  6  1  2  0  0  0  0
  7  4  2  0  0  0  0
  8 13  1  0  0  0  0
 10 19  1  0  0  0  0
 12  8  2  0  0  0  0
 12 16  1  0  0  0  0
 13 18  1  0  0  0  0
 13  2  2  0  0  0  0
 16  5  1  0  0  0  0
 17 16  2  0  0  0  0
 17  6  1  0  0  0  0
 18 10  2  0  0  0  0
 19 20  1  0  0  0  0
 20 15  2  0  0  0  0
 21 22  2  0  0  0  0
 22 23  1  0  0  0  0
 23  8  1  0  0  0  0
 24 27  1  6  0  0  0
 24 28  1  0  0  0  0
 26 29  1  0  0  0  0
 28 25  1  0  0  0  0
 29 30  2  0  0  0  0
 30 25  1  0  0  0  0
 30 22  1  0  0  0  0
 31 29  1  0  0  0  0
 31 24  1  0  0  0  0
M  END
>  <MODEL>
5

>  <REMARK>
 VINA RESULT:      -7.7      4.844      6.707
  Name = 
  2 active torsions:
  status: ('A' for Active; 'I' for Inactive)
    1  A    between atoms: C_5  and  C_30
    2  A    between atoms: C_10  and  N_16
                            x       y       z     vdW  Elec       q    Type
                         _______ _______ _______ _____ _____    ______ ____

>  <TORSDO>
F 2

$$$$
=
 OpenBabel11112416573D

 31 35  0  0  1  0  0  0  0  0999 V2000
  185.8270  177.5610  140.9740 C   0  0  0  0  0  0  0  0  0  0  0  0
  187.5320  176.4570  144.1390 C   0  0  0  0  0  0  0  0  0  0  0  0
  186.7420  176.9270  145.2290 C   0  0  0  0  0  0  0  0  0  0  0  0
  184.8300  178.0940  146.1720 C   0  0  0  0  0  0  0  0  0  0  0  0
  187.2230  176.6700  142.7600 C   0  0  0  0  0  0  0  0  0  0  0  0
  186.7060  177.0320  140.0320 C   0  0  0  0  0  3  0  0  0  0  0  0
  185.5570  177.6620  145.0620 C   0  0  0  0  0  3  0  0  0  0  0  0
  189.5490  175.2230  143.4490 C   0  0  0  0  0  0  0  0  0  0  0  0
  184.7290  178.2460  140.5740 F   0  0  0  0  0  0  0  0  0  0  0  0
  188.2950  175.9440  146.7650 N   0  0  0  0  0  0  0  0  0  0  0  0
  183.3550  179.0080  145.9480 Cl  0  0  0  0  0  0  0  0  0  0  0  0
  189.2230  175.4440  142.1110 C   0  0  0  0  0  3  0  0  0  0  0  0
  188.7100  175.7240  144.4570 C   0  0  0  0  0  0  0  0  0  0  0  0
  186.0890  177.3780  142.3290 C   0  0  0  0  0  3  0  0  0  0  0  0
  185.2660  177.8050  147.4260 N   0  0  0  0  0  0  0  0  0  0  0  0
  188.0830  176.1540  141.7590 C   0  0  0  0  0  0  0  0  0  0  0  0
  187.8050  176.3470  140.4420 N   0  0  0  0  0  0  0  0  0  0  0  0
  189.0400  175.5000  145.7580 N   0  0  0  0  0  0  0  0  0  0  0  0
  187.1610  176.6480  146.5480 C   0  0  0  0  0  0  0  0  0  0  0  0
  186.4060  177.0970  147.6330 C   0  0  0  0  0  3  0  0  0  0  0  0
  189.8000  172.3520  144.0390 O   0  0  0  0  0  0  0  0  0  0  0  0
  190.8240  173.0840  144.1050 C   0  0  0  0  0  0  0  0  0  0  0  0
  190.7280  174.4870  143.8150 N   0  0  0  0  0  2  0  0  0  0  0  0
  194.5510  171.3950  145.5770 C   0  0  1  0  0  3  0  0  0  0  0  0
  192.9840  173.2980  145.4500 C   0  0  0  0  0  2  0  0  0  0  0  0
  191.7470  170.5210  143.2020 O   0  0  0  0  0  1  0  0  0  0  0  0
  195.8900  171.0180  145.6650 O   0  0  0  0  0  1  0  0  0  0  0  0
  194.4540  172.9010  145.4400 C   0  0  0  0  0  2  0  0  0  0  0  0
  192.5560  171.2940  144.0290 C   0  0  0  0  0  0  0  0  0  0  0  0
  192.1450  172.5090  144.4680 C   0  0  0  0  0  0  0  0  0  0  0  0
  193.9210  170.7430  144.3520 C   0  0  0  0  0  2  0  0  0  0  0  0
  1 14  1  0  0  0  0
  2 13  2  0  0  0  0
  2  3  1  0  0  0  0
  3 19  1  0  0  0  0
  4 15  2  0  0  0  0
  5  2  1  0  0  0  0
  6 17  1  0  0  0  0
  6  1  2  0  0  0  0
  7  3  2  0  0  0  0
  7  4  1  0  0  0  0
  8 23  1  0  0  0  0
  8 13  1  0  0  0  0
  9  1  1  0  0  0  0
 11  4  1  0  0  0  0
 12  8  2  0  0  0  0
 13 18  1  0  0  0  0
 14  5  2  0  0  0  0
 15 20  1  0  0  0  0
 16 12  1  0  0  0  0
 16  5  1  0  0  0  0
 17 16  2  0  0  0  0
 18 10  2  0  0  0  0
 19 10  1  0  0  0  0
 19 20  2  0  0  0  0
 21 22  2  0  0  0  0
 22 30  1  0  0  0  0
 23 22  1  0  0  0  0
 24 27  1  6  0  0  0
 26 29  1  0  0  0  0
 28 25  1  0  0  0  0
 28 24  1  0  0  0  0
 29 31  1  0  0  0  0
 29 30  2  0  0  0  0
 30 25  1  0  0  0  0
 31 24  1  0  0  0  0
M  END
>  <MODEL>
6

>  <REMARK>
 VINA RESULT:      -7.7      3.121      4.905
  Name = 
  2 active torsions:
  status: ('A' for Active; 'I' for Inactive)
    1  A    between atoms: C_5  and  C_30
    2  A    between atoms: C_10  and  N_16
                            x       y       z     vdW  Elec       q    Type
                         _______ _______ _______ _____ _____    ______ ____

>  <TORSDO>
F 2

$$$$
=
 OpenBabel11112416573D

 31 35  0  0  1  0  0  0  0  0999 V2000
  189.6720  177.3650  146.8760 C   0  0  0  0  0  0  0  0  0  0  0  0
  188.7680  176.2290  143.4070 C   0  0  0  0  0  0  0  0  0  0  0  0
  187.6930  177.0540  142.9610 C   0  0  0  0  0  0  0  0  0  0  0  0
  186.0820  178.8520  143.2420 C   0  0  0  0  0  0  0  0  0  0  0  0
  189.4020  176.3410  144.6830 C   0  0  0  0  0  0  0  0  0  0  0  0
  190.7100  176.4800  147.1540 C   0  0  0  0  0  3  0  0  0  0  0  0
  187.1340  178.0800  143.7390 C   0  0  0  0  0  3  0  0  0  0  0  0
  190.2880  174.3690  142.8650 C   0  0  0  0  0  0  0  0  0  0  0  0
  189.2970  178.2880  147.7940 F   0  0  0  0  0  0  0  0  0  0  0  0
  187.6560  175.8620  140.8830 N   0  0  0  0  0  0  0  0  0  0  0  0
  185.3960  180.1270  144.2240 Cl  0  0  0  0  0  0  0  0  0  0  0  0
  190.8900  174.5000  144.1170 C   0  0  0  0  0  3  0  0  0  0  0  0
  189.2340  175.2270  142.5120 C   0  0  0  0  0  0  0  0  0  0  0  0
  189.0250  177.2920  145.6450 C   0  0  0  0  0  3  0  0  0  0  0  0
  185.5900  178.6130  141.9990 N   0  0  0  0  0  0  0  0  0  0  0  0
  190.4630  175.4660  145.0190 C   0  0  0  0  0  0  0  0  0  0  0  0
  191.0790  175.5570  146.2280 N   0  0  0  0  0  0  0  0  0  0  0  0
  188.6570  175.0870  141.2870 N   0  0  0  0  0  0  0  0  0  0  0  0
  187.1540  176.8370  141.6740 C   0  0  0  0  0  0  0  0  0  0  0  0
  186.1010  177.6300  141.2120 C   0  0  0  0  0  3  0  0  0  0  0  0
  189.4700  171.5490  142.6850 O   0  0  0  0  0  0  0  0  0  0  0  0
  190.3180  171.9960  141.8660 C   0  0  0  0  0  0  0  0  0  0  0  0
  190.7280  173.3710  141.9300 N   0  0  0  0  0  2  0  0  0  0  0  0
  192.1210  169.7850  138.5830 C   0  0  1  0  0  3  0  0  0  0  0  0
  190.3280  171.2610  139.4210 C   0  0  0  0  0  2  0  0  0  0  0  0
  192.5320  170.2260  142.3120 O   0  0  0  0  0  1  0  0  0  0  0  0
  192.4390  168.7600  137.6940 O   0  0  0  0  0  1  0  0  0  0  0  0
  190.6340  170.0710  138.5210 C   0  0  0  0  0  2  0  0  0  0  0  0
  191.9440  170.2910  141.0530 C   0  0  0  0  0  0  0  0  0  0  0  0
  190.8950  171.1170  140.8160 C   0  0  0  0  0  0  0  0  0  0  0  0
  192.4850  169.3590  140.0000 C   0  0  0  0  0  2  0  0  0  0  0  0
  1  6  1  0  0  0  0
  1  9  1  0  0  0  0
  2  5  1  0  0  0  0
  3  2  1  0  0  0  0
  3  7  2  0  0  0  0
  4  7  1  0  0  0  0
  4 11  1  0  0  0  0
  5 16  2  0  0  0  0
  5 14  1  0  0  0  0
  8 12  2  0  0  0  0
 10 18  2  0  0  0  0
 10 19  1  0  0  0  0
 12 16  1  0  0  0  0
 13  8  1  0  0  0  0
 13  2  2  0  0  0  0
 14  1  2  0  0  0  0
 15  4  2  0  0  0  0
 16 17  1  0  0  0  0
 17  6  2  0  0  0  0
 18 13  1  0  0  0  0
 19  3  1  0  0  0  0
 20 19  2  0  0  0  0
 20 15  1  0  0  0  0
 22 23  1  0  0  0  0
 22 21  2  0  0  0  0
 23  8  1  0  0  0  0
 24 27  1  6  0  0  0
 24 31  1  0  0  0  0
 25 30  1  0  0  0  0
 28 24  1  0  0  0  0
 28 25  1  0  0  0  0
 29 26  1  0  0  0  0
 30 29  2  0  0  0  0
 30 22  1  0  0  0  0
 31 29  1  0  0  0  0
M  END
>  <MODEL>
7

>  <REMARK>
 VINA RESULT:      -7.6      4.277      5.134
  Name = 
  2 active torsions:
  status: ('A' for Active; 'I' for Inactive)
    1  A    between atoms: C_5  and  C_30
    2  A    between atoms: C_10  and  N_16
                            x       y       z     vdW  Elec       q    Type
                         _______ _______ _______ _____ _____    ______ ____

>  <TORSDO>
F 2

$$$$
=
 OpenBabel11112416573D

 31 35  0  0  1  0  0  0  0  0999 V2000
  194.8820  174.9920  146.0590 C   0  0  0  0  0  0  0  0  0  0  0  0
  191.6380  174.0810  144.3910 C   0  0  0  0  0  0  0  0  0  0  0  0
  191.7920  172.7660  143.8600 C   0  0  0  0  0  0  0  0  0  0  0  0
  193.0600  170.7360  143.4380 C   0  0  0  0  0  0  0  0  0  0  0  0
  192.6510  174.7930  145.1040 C   0  0  0  0  0  0  0  0  0  0  0  0
  194.5660  176.2710  146.5130 C   0  0  0  0  0  3  0  0  0  0  0  0
  192.9740  172.0190  143.9820 C   0  0  0  0  0  3  0  0  0  0  0  0
  190.1390  176.0140  144.6790 C   0  0  0  0  0  0  0  0  0  0  0  0
  196.1080  174.4660  146.2970 F   0  0  0  0  0  0  0  0  0  0  0  0
  189.5470  172.8500  143.0270 N   0  0  0  0  0  0  0  0  0  0  0  0
  194.5410  169.8180  143.5990 Cl  0  0  0  0  0  0  0  0  0  0  0  0
  191.1450  176.6870  145.3730 C   0  0  0  0  0  3  0  0  0  0  0  0
  190.3820  174.7200  144.1910 C   0  0  0  0  0  0  0  0  0  0  0  0
  193.9260  174.2620  145.3590 C   0  0  0  0  0  3  0  0  0  0  0  0
  191.9970  170.2020  142.7840 N   0  0  0  0  0  0  0  0  0  0  0  0
  192.3840  176.0970  145.5880 C   0  0  0  0  0  0  0  0  0  0  0  0
  193.3350  176.7910  146.2690 N   0  0  0  0  0  0  0  0  0  0  0  0
  189.3910  174.0760  143.5170 N   0  0  0  0  0  0  0  0  0  0  0  0
  190.7100  172.1750  143.1730 C   0  0  0  0  0  0  0  0  0  0  0  0
  190.8340  170.8890  142.6430 C   0  0  0  0  0  3  0  0  0  0  0  0
  187.7980  176.0410  146.4590 O   0  0  0  0  0  0  0  0  0  0  0  0
  187.7240  176.6160  145.3400 C   0  0  0  0  0  0  0  0  0  0  0  0
  188.8560  176.6220  144.4560 N   0  0  0  0  0  2  0  0  0  0  0  0
  184.3000  179.0070  144.1270 C   0  0  1  0  0  3  0  0  0  0  0  0
  185.9410  178.3690  145.8570 C   0  0  0  0  0  2  0  0  0  0  0  0
  186.4290  176.1750  142.8180 O   0  0  0  0  0  1  0  0  0  0  0  0
  182.9890  179.4160  143.8870 O   0  0  0  0  0  1  0  0  0  0  0  0
  184.4800  178.7120  145.6030 C   0  0  0  0  0  2  0  0  0  0  0  0
  185.8860  177.0810  143.7230 C   0  0  0  0  0  0  0  0  0  0  0  0
  186.4770  177.3070  144.9220 C   0  0  0  0  0  0  0  0  0  0  0  0
  184.5900  177.7410  143.3300 C   0  0  0  0  0  2  0  0  0  0  0  0
  1  9  1  0  0  0  0
  1  6  1  0  0  0  0
  2  5  1  0  0  0  0
  3  7  2  0  0  0  0
  3  2  1  0  0  0  0
  4 11  1  0  0  0  0
  4  7  1  0  0  0  0
  5 14  1  0  0  0  0
  5 16  2  0  0  0  0
  8 12  2  0  0  0  0
 10 19  1  0  0  0  0
 10 18  2  0  0  0  0
 12 16  1  0  0  0  0
 13  2  2  0  0  0  0
 13  8  1  0  0  0  0
 14  1  2  0  0  0  0
 15  4  2  0  0  0  0
 16 17  1  0  0  0  0
 17  6  2  0  0  0  0
 18 13  1  0  0  0  0
 19  3  1  0  0  0  0
 20 15  1  0  0  0  0
 20 19  2  0  0  0  0
 22 21  2  0  0  0  0
 23  8  1  0  0  0  0
 23 22  1  0  0  0  0
 24 27  1  1  0  0  0
 24 28  1  0  0  0  0
 26 29  1  0  0  0  0
 28 25  1  0  0  0  0
 29 30  2  0  0  0  0
 30 22  1  0  0  0  0
 30 25  1  0  0  0  0
 31 29  1  0  0  0  0
 31 24  1  0  0  0  0
M  END
>  <MODEL>
8

>  <REMARK>
 VINA RESULT:      -7.5      4.950      8.636
  Name = 
  2 active torsions:
  status: ('A' for Active; 'I' for Inactive)
    1  A    between atoms: C_5  and  C_30
    2  A    between atoms: C_10  and  N_16
                            x       y       z     vdW  Elec       q    Type
                         _______ _______ _______ _____ _____    ______ ____

>  <TORSDO>
F 2

$$$$
=
 OpenBabel11112416573D

 31 35  0  0  1  0  0  0  0  0999 V2000
  192.7210  170.2130  142.4030 C   0  0  0  0  0  0  0  0  0  0  0  0
  192.2690  173.3870  144.3690 C   0  0  0  0  0  0  0  0  0  0  0  0
  193.5470  173.7440  144.8930 C   0  0  0  0  0  0  0  0  0  0  0  0
  195.9310  173.3950  145.2110 C   0  0  0  0  0  0  0  0  0  0  0  0
  192.0150  172.2370  143.5610 C   0  0  0  0  0  0  0  0  0  0  0  0
  191.4130  170.0120  141.9710 C   0  0  0  0  0  3  0  0  0  0  0  0
  194.7100  172.9900  144.6690 C   0  0  0  0  0  3  0  0  0  0  0  0
  189.8830  173.9730  144.2060 C   0  0  0  0  0  0  0  0  0  0  0  0
  193.6980  169.3400  142.0570 F   0  0  0  0  0  0  0  0  0  0  0  0
  192.5730  175.6720  145.9280 N   0  0  0  0  0  0  0  0  0  0  0  0
  197.3710  172.4450  144.9210 Cl  0  0  0  0  0  0  0  0  0  0  0  0
  189.6620  172.8430  143.4180 C   0  0  0  0  0  3  0  0  0  0  0  0
  191.1760  174.2450  144.6790 C   0  0  0  0  0  0  0  0  0  0  0  0
  193.0150  171.3220  143.1930 C   0  0  0  0  0  3  0  0  0  0  0  0
  196.0010  174.5230  145.9640 N   0  0  0  0  0  0  0  0  0  0  0  0
  190.7020  171.9820  143.0940 C   0  0  0  0  0  0  0  0  0  0  0  0
  190.4400  170.8920  142.3240 N   0  0  0  0  0  0  0  0  0  0  0  0
  191.3760  175.3510  145.4460 N   0  0  0  0  0  0  0  0  0  0  0  0
  193.6620  174.9090  145.6810 C   0  0  0  0  0  0  0  0  0  0  0  0
  194.9010  175.2820  146.2060 C   0  0  0  0  0  3  0  0  0  0  0  0
  188.9520  176.3430  142.7340 O   0  0  0  0  0  0  0  0  0  0  0  0
  188.3760  176.0230  143.8080 C   0  0  0  0  0  0  0  0  0  0  0  0
  188.8080  174.8660  144.5420 N   0  0  0  0  0  2  0  0  0  0  0  0
  184.8250  177.9920  145.3670 C   0  0  1  0  0  3  0  0  0  0  0  0
  185.9360  176.7340  143.5570 C   0  0  0  0  0  2  0  0  0  0  0  0
  188.4700  177.5350  146.2450 O   0  0  0  0  0  1  0  0  0  0  0  0
  183.8770  178.9690  145.6690 O   0  0  0  0  0  1  0  0  0  0  0  0
  184.9760  177.8750  143.8640 C   0  0  0  0  0  2  0  0  0  0  0  0
  187.3070  177.5280  145.4830 C   0  0  0  0  0  0  0  0  0  0  0  0
  187.2360  176.8240  144.3260 C   0  0  0  0  0  0  0  0  0  0  0  0
  186.1670  178.3850  145.9710 C   0  0  0  0  0  2  0  0  0  0  0  0
  1 14  1  0  0  0  0
  2 13  2  0  0  0  0
  2  3  1  0  0  0  0
  3 19  1  0  0  0  0
  4 15  2  0  0  0  0
  5  2  1  0  0  0  0
  6 17  1  0  0  0  0
  6  1  2  0  0  0  0
  7  3  2  0  0  0  0
  7  4  1  0  0  0  0
  8 23  1  0  0  0  0
  8 13  1  0  0  0  0
  9  1  1  0  0  0  0
 11  4  1  0  0  0  0
 12  8  2  0  0  0  0
 13 18  1  0  0  0  0
 14  5  2  0  0  0  0
 15 20  1  0  0  0  0
 16 12  1  0  0  0  0
 16  5  1  0  0  0  0
 17 16  2  0  0  0  0
 18 10  2  0  0  0  0
 19 10  1  0  0  0  0
 19 20  2  0  0  0  0
 21 22  2  0  0  0  0
 22 30  1  0  0  0  0
 22 23  1  0  0  0  0
 24 27  1  6  0  0  0
 24 31  1  0  0  0  0
 25 28  1  0  0  0  0
 25 30  1  0  0  0  0
 28 24  1  0  0  0  0
 29 31  1  0  0  0  0
 29 26  1  0  0  0  0
 30 29  2  0  0  0  0
M  END
>  <MODEL>
9

>  <REMARK>
 VINA RESULT:      -7.3      5.314      9.308
  Name = 
  2 active torsions:
  status: ('A' for Active; 'I' for Inactive)
    1  A    between atoms: C_5  and  C_30
    2  A    between atoms: C_10  and  N_16
                            x       y       z     vdW  Elec       q    Type
                         _______ _______ _______ _____ _____    ______ ____

>  <TORSDO>
F 2

$$$$
