=
 OpenBabel11112417463D

 34 40  0  0  1  0  0  0  0  0999 V2000
  190.8150  176.0430  145.9380 C   0  0  0  0  0  0  0  0  0  0  0  0
  188.3780  176.6830  145.8820 C   0  0  0  0  0  3  0  0  0  0  0  0
  196.5410  175.5400  142.9260 C   0  0  0  0  0  0  0  0  0  0  0  0
  193.1950  175.7930  145.6390 C   0  0  0  0  0  0  0  0  0  0  0  0
  194.0970  174.8180  143.4310 C   0  0  2  0  0  3  0  0  0  0  0  0
  195.4360  173.7380  141.6050 C   0  0  0  0  0  1  0  0  0  0  0  0
  197.0560  176.4850  142.3520 O   0  0  0  0  0  0  0  0  0  0  0  0
  196.4630  173.8730  144.8360 C   0  0  0  0  0  2  0  0  0  0  0  0
  189.1560  175.2400  144.1960 C   0  0  2  0  0  3  0  0  0  0  0  0
  188.1800  176.1460  141.4080 N   0  0  0  0  0  0  0  0  0  0  0  0
  192.7950  175.3500  142.8470 C   0  0  0  0  0  2  0  0  0  0  0  0
  195.3100  174.4780  145.6390 C   0  0  0  0  0  2  0  0  0  0  0  0
  190.2940  175.4130  143.1670 C   0  0  1  0  0  3  0  0  0  0  0  0
  187.3910  176.6430  145.0050 C   0  0  0  0  0  3  0  0  0  0  0  0
  194.4100  175.4150  144.8240 C   0  0  2  0  0  3  0  0  0  0  0  0
  197.2700  174.9380  144.1030 C   0  0  0  0  0  2  0  0  0  0  0  0
  187.7880  176.6620  142.5380 C   0  0  0  0  0  0  0  0  0  0  0  0
  191.8890  175.6360  145.1360 C   0  0  0  0  0  0  0  0  0  0  0  0
  195.2240  175.0120  142.4000 C   0  0  2  0  0  3  0  0  0  0  0  0
  191.6450  175.0040  143.7840 C   0  0  2  0  0  3  0  0  0  0  0  0
  192.3150  176.7660  147.6150 C   0  0  0  0  0  3  0  0  0  0  0  0
  188.6450  174.7690  141.2870 C   0  0  0  0  0  2  0  0  0  0  0  0
  193.3710  176.3660  146.8620 N   0  0  0  0  0  0  0  0  0  0  0  0
  190.0390  174.5900  141.8940 C   0  0  0  0  0  2  0  0  0  0  0  0
  187.7770  175.8260  143.8050 C   0  0  1  0  0  3  0  0  0  0  0  0
  191.0490  176.6050  147.1530 N   0  0  0  0  0  0  0  0  0  0  0  0
  189.4830  175.9170  145.4390 N   0  0  0  0  0  0  0  0  0  0  0  0
  187.3620  177.9940  142.5860 O   0  0  0  0  0  0  0  0  0  0  0  0
  186.2330  178.4600  141.8580 C   0  0  0  0  0  2  0  0  0  0  0  0
  184.1890  178.3270  144.8580 N   0  0  0  0  0  2  0  0  0  0  0  0
  185.9070  179.7460  143.9560 C   0  0  0  0  0  2  0  0  0  0  0  0
  185.2190  179.0630  142.8100 C   0  0  2  0  0  3  0  0  0  0  0  0
  184.9690  179.5320  145.1190 C   0  0  0  0  0  2  0  0  0  0  0  0
  184.4030  177.9700  143.4590 C   0  0  0  0  0  2  0  0  0  0  0  0
  1 26  1  0  0  0  0
  3 16  1  0  0  0  0
  4 23  2  0  0  0  0
  5 11  1  6  0  0  0
  5 15  1  0  0  0  0
  7  3  2  0  0  0  0
  8 12  1  0  0  0  0
  9 27  1  1  0  0  0
 10 17  2  0  0  0  0
 13 24  1  6  0  0  0
 13 20  1  0  0  0  0
 13  9  1  0  0  0  0
 14  2  2  0  0  0  0
 15 12  1  1  0  0  0
 15  4  1  0  0  0  0
 16  8  1  0  0  0  0
 17 28  1  0  0  0  0
 17 25  1  0  0  0  0
 18  4  1  0  0  0  0
 18  1  2  0  0  0  0
 19  6  1  1  0  0  0
 19  3  1  0  0  0  0
 19  5  1  0  0  0  0
 20 11  1  6  0  0  0
 20 18  1  0  0  0  0
 22 10  1  0  0  0  0
 22 24  1  0  0  0  0
 23 21  1  0  0  0  0
 25  9  1  0  0  0  0
 25 14  1  1  0  0  0
 26 21  2  0  0  0  0
 27  2  1  0  0  0  0
 27  1  1  0  0  0  0
 29 28  1  0  0  0  0
 30 33  1  0  0  0  0
 31 33  1  0  0  0  0
 32 29  1  6  0  0  0
 32 34  1  0  0  0  0
 32 31  1  0  0  0  0
 34 30  1  0  0  0  0
M  END
>  <MODEL>
1

>  <REMARK>
 VINA RESULT:      -8.1      0.000      0.000
  Name = 
  3 active torsions:
  status: ('A' for Active; 'I' for Inactive)
    1  A    between atoms: C_17  and  O_28
    2  A    between atoms: O_28  and  C_29
    3  A    between atoms: C_29  and  C_32
                            x       y       z     vdW  Elec       q    Type
                         _______ _______ _______ _____ _____    ______ ____

>  <TORSDO>
F 3

$$$$
=
 OpenBabel11112417463D

 34 40  0  0  1  0  0  0  0  0999 V2000
  192.2360  176.0870  145.8680 C   0  0  0  0  0  0  0  0  0  0  0  0
  189.9010  176.7330  146.5610 C   0  0  0  0  0  3  0  0  0  0  0  0
  196.6350  175.1790  141.1830 C   0  0  0  0  0  0  0  0  0  0  0  0
  194.3850  175.7850  144.8160 C   0  0  0  0  0  0  0  0  0  0  0  0
  194.5280  174.5410  142.5630 C   0  0  2  0  0  3  0  0  0  0  0  0
  195.2140  173.2370  140.5330 C   0  0  0  0  0  1  0  0  0  0  0  0
  196.8940  176.0430  140.3630 O   0  0  0  0  0  0  0  0  0  0  0  0
  197.2590  173.7570  143.1890 C   0  0  0  0  0  2  0  0  0  0  0  0
  190.1170  175.0900  144.8930 C   0  0  2  0  0  3  0  0  0  0  0  0
  188.2330  175.6560  142.5120 N   0  0  0  0  0  0  0  0  0  0  0  0
  193.0880  175.0080  142.3940 C   0  0  0  0  0  2  0  0  0  0  0  0
  196.4210  174.4640  144.2580 C   0  0  0  0  0  2  0  0  0  0  0  0
  190.8380  175.1270  143.5280 C   0  0  1  0  0  3  0  0  0  0  0  0
  188.6790  176.5930  146.0790 C   0  0  0  0  0  3  0  0  0  0  0  0
  195.2680  175.3020  143.6890 C   0  0  2  0  0  3  0  0  0  0  0  0
  197.7360  174.7200  142.1080 C   0  0  0  0  0  2  0  0  0  0  0  0
  188.2250  176.3090  143.6380 C   0  0  0  0  0  0  0  0  0  0  0  0
  192.9930  175.5780  144.8040 C   0  0  0  0  0  0  0  0  0  0  0  0
  195.2370  174.6000  141.1980 C   0  0  2  0  0  3  0  0  0  0  0  0
  192.3310  174.7870  143.6970 C   0  0  2  0  0  3  0  0  0  0  0  0
  194.1860  176.9980  146.8450 C   0  0  0  0  0  3  0  0  0  0  0  0
  188.6780  174.2710  142.4030 C   0  0  0  0  0  2  0  0  0  0  0  0
  194.9410  176.5020  145.8310 N   0  0  0  0  0  0  0  0  0  0  0  0
  190.2000  174.1570  142.5210 C   0  0  0  0  0  2  0  0  0  0  0  0
  188.6680  175.6340  144.9230 C   0  0  1  0  0  3  0  0  0  0  0  0
  192.8440  176.7920  146.8580 N   0  0  0  0  0  0  0  0  0  0  0  0
  190.8190  175.9100  145.8650 N   0  0  0  0  0  0  0  0  0  0  0  0
  187.7950  177.6400  143.6710 O   0  0  0  0  0  0  0  0  0  0  0  0
  187.3780  178.3350  142.5020 C   0  0  0  0  0  2  0  0  0  0  0  0
  183.8020  178.2970  143.1380 N   0  0  0  0  0  2  0  0  0  0  0  0
  185.7790  179.1100  144.2360 C   0  0  0  0  0  2  0  0  0  0  0  0
  186.0620  179.0390  142.7630 C   0  0  2  0  0  3  0  0  0  0  0  0
  184.2760  179.0060  144.3210 C   0  0  0  0  0  2  0  0  0  0  0  0
  184.9190  178.2270  142.2010 C   0  0  0  0  0  2  0  0  0  0  0  0
  1 26  1  0  0  0  0
  3 19  1  0  0  0  0
  3 16  1  0  0  0  0
  4 23  2  0  0  0  0
  5 11  1  6  0  0  0
  5 15  1  0  0  0  0
  7  3  2  0  0  0  0
  8 12  1  0  0  0  0
  9 25  1  0  0  0  0
  9 27  1  1  0  0  0
 10 17  2  0  0  0  0
 13 24  1  6  0  0  0
 13 20  1  0  0  0  0
 13  9  1  0  0  0  0
 14  2  2  0  0  0  0
 15 12  1  1  0  0  0
 15  4  1  0  0  0  0
 16  8  1  0  0  0  0
 17 28  1  0  0  0  0
 17 25  1  0  0  0  0
 18  4  1  0  0  0  0
 18  1  2  0  0  0  0
 19  6  1  1  0  0  0
 19  5  1  0  0  0  0
 20 11  1  6  0  0  0
 20 18  1  0  0  0  0
 21 26  2  0  0  0  0
 22 10  1  0  0  0  0
 22 24  1  0  0  0  0
 23 21  1  0  0  0  0
 25 14  1  1  0  0  0
 27  1  1  0  0  0  0
 27  2  1  0  0  0  0
 29 28  1  0  0  0  0
 30 33  1  0  0  0  0
 31 33  1  0  0  0  0
 32 29  1  1  0  0  0
 32 31  1  0  0  0  0
 34 32  1  0  0  0  0
 34 30  1  0  0  0  0
M  END
>  <MODEL>
2

>  <REMARK>
 VINA RESULT:      -7.8      1.203      1.426
  Name = 
  3 active torsions:
  status: ('A' for Active; 'I' for Inactive)
    1  A    between atoms: C_17  and  O_28
    2  A    between atoms: O_28  and  C_29
    3  A    between atoms: C_29  and  C_32
                            x       y       z     vdW  Elec       q    Type
                         _______ _______ _______ _____ _____    ______ ____

>  <TORSDO>
F 3

$$$$
=
 OpenBabel11112417463D

 34 40  0  0  1  0  0  0  0  0999 V2000
  187.9910  175.1850  140.7440 C   0  0  0  0  0  0  0  0  0  0  0  0
  188.7470  174.0220  138.6390 C   0  0  0  0  0  3  0  0  0  0  0  0
  189.1680  177.0190  146.8570 C   0  0  0  0  0  0  0  0  0  0  0  0
  187.7640  176.3800  142.8260 C   0  0  0  0  0  0  0  0  0  0  0  0
  188.5890  175.2860  145.0090 C   0  0  2  0  0  3  0  0  0  0  0  0
  189.0170  174.5860  147.3800 C   0  0  0  0  0  1  0  0  0  0  0  0
  190.1690  177.6440  147.1630 O   0  0  0  0  0  0  0  0  0  0  0  0
  186.6600  176.8660  146.5080 C   0  0  0  0  0  2  0  0  0  0  0  0
  188.8900  172.8150  140.6520 C   0  0  2  0  0  3  0  0  0  0  0  0
  191.6310  171.4180  140.9280 N   0  0  0  0  0  0  0  0  0  0  0  0
  189.5230  174.5150  144.0840 C   0  0  0  0  0  2  0  0  0  0  0  0
  186.6250  176.9000  144.9790 C   0  0  0  0  0  2  0  0  0  0  0  0
  189.6200  173.1390  141.9730 C   0  0  1  0  0  3  0  0  0  0  0  0
  189.4650  172.9570  138.3320 C   0  0  0  0  0  3  0  0  0  0  0  0
  187.9560  176.5180  144.3180 C   0  0  2  0  0  3  0  0  0  0  0  0
  187.8240  177.6730  147.0710 C   0  0  0  0  0  2  0  0  0  0  0  0
  191.2130  172.0320  139.8590 C   0  0  0  0  0  0  0  0  0  0  0  0
  188.1700  175.2240  142.1330 C   0  0  0  0  0  0  0  0  0  0  0  0
  189.3370  175.6170  146.3140 C   0  0  2  0  0  3  0  0  0  0  0  0
  188.7420  174.0320  142.8690 C   0  0  2  0  0  3  0  0  0  0  0  0
  187.1030  177.3740  140.7770 C   0  0  0  0  0  3  0  0  0  0  0  0
  190.7260  170.8070  141.8950 C   0  0  0  0  0  2  0  0  0  0  0  0
  187.2530  177.4300  142.1250 N   0  0  0  0  0  0  0  0  0  0  0  0
  190.0060  171.8640  142.7380 C   0  0  0  0  0  2  0  0  0  0  0  0
  189.7300  172.1210  139.5510 C   0  0  1  0  0  3  0  0  0  0  0  0
  187.4710  176.2600  140.0950 N   0  0  0  0  0  0  0  0  0  0  0  0
  188.4170  174.0320  140.0160 N   0  0  0  0  0  0  0  0  0  0  0  0
  192.1360  172.6050  138.9770 O   0  0  0  0  0  0  0  0  0  0  0  0
  192.4880  173.9810  139.0290 C   0  0  0  0  0  2  0  0  0  0  0  0
  194.8590  176.0850  140.8030 N   0  0  0  0  0  2  0  0  0  0  0  0
  192.8490  174.8720  141.3180 C   0  0  0  0  0  2  0  0  0  0  0  0
  193.4990  174.2140  140.1350 C   0  0  2  0  0  3  0  0  0  0  0  0
  193.9360  175.7530  141.8830 C   0  0  0  0  0  2  0  0  0  0  0  0
  194.5440  175.2060  139.6820 C   0  0  0  0  0  2  0  0  0  0  0  0
  1 18  1  0  0  0  0
  2 27  1  0  0  0  0
  3 16  1  0  0  0  0
  3  7  2  0  0  0  0
  4 15  1  0  0  0  0
  5 11  1  6  0  0  0
  5 19  1  0  0  0  0
  8 16  1  0  0  0  0
  9 27  1  6  0  0  0
  9 13  1  0  0  0  0
 10 22  1  0  0  0  0
 12  8  1  0  0  0  0
 13 24  1  1  0  0  0
 13 20  1  0  0  0  0
 14  2  2  0  0  0  0
 15 12  1  1  0  0  0
 15  5  1  0  0  0  0
 17 10  2  0  0  0  0
 18  4  2  0  0  0  0
 18 20  1  0  0  0  0
 19  3  1  0  0  0  0
 19  6  1  1  0  0  0
 20 11  1  1  0  0  0
 21 23  2  0  0  0  0
 22 24  1  0  0  0  0
 23  4  1  0  0  0  0
 25 14  1  6  0  0  0
 25 17  1  0  0  0  0
 25  9  1  0  0  0  0
 26  1  2  0  0  0  0
 26 21  1  0  0  0  0
 27  1  1  0  0  0  0
 28 29  1  0  0  0  0
 28 17  1  0  0  0  0
 30 33  1  0  0  0  0
 31 33  1  0  0  0  0
 32 29  1  6  0  0  0
 32 31  1  0  0  0  0
 34 32  1  0  0  0  0
 34 30  1  0  0  0  0
M  END
>  <MODEL>
3

>  <REMARK>
 VINA RESULT:      -7.7      3.310      7.582
  Name = 
  3 active torsions:
  status: ('A' for Active; 'I' for Inactive)
    1  A    between atoms: C_17  and  O_28
    2  A    between atoms: O_28  and  C_29
    3  A    between atoms: C_29  and  C_32
                            x       y       z     vdW  Elec       q    Type
                         _______ _______ _______ _____ _____    ______ ____

>  <TORSDO>
F 3

$$$$
=
 OpenBabel11112417463D

 34 40  0  0  1  0  0  0  0  0999 V2000
  192.1740  173.3250  142.3070 C   0  0  0  0  0  0  0  0  0  0  0  0
  194.5960  172.6770  142.5660 C   0  0  0  0  0  3  0  0  0  0  0  0
  187.5380  177.8610  142.5420 C   0  0  0  0  0  0  0  0  0  0  0  0
  190.0470  174.4010  141.9410 C   0  0  0  0  0  0  0  0  0  0  0  0
  189.2390  176.2040  143.5960 C   0  0  2  0  0  3  0  0  0  0  0  0
  187.9310  177.8170  145.0030 C   0  0  0  0  0  1  0  0  0  0  0  0
  187.6300  178.9130  141.9310 O   0  0  0  0  0  0  0  0  0  0  0  0
  186.4830  175.5820  142.9010 C   0  0  0  0  0  2  0  0  0  0  0  0
  193.5840  173.8110  144.3590 C   0  0  2  0  0  3  0  0  0  0  0  0
  195.3760  176.1090  145.3850 N   0  0  0  0  0  0  0  0  0  0  0  0
  190.7250  176.3930  143.8710 C   0  0  0  0  0  2  0  0  0  0  0  0
  187.6090  174.7040  142.3490 C   0  0  0  0  0  2  0  0  0  0  0  0
  192.8680  175.1790  144.4130 C   0  0  1  0  0  3  0  0  0  0  0  0
  195.6020  173.0060  143.3540 C   0  0  0  0  0  3  0  0  0  0  0  0
  188.9740  175.4030  142.2990 C   0  0  2  0  0  3  0  0  0  0  0  0
  186.4060  176.9280  142.1870 C   0  0  0  0  0  2  0  0  0  0  0  0
  195.7360  175.2210  144.5030 C   0  0  0  0  0  0  0  0  0  0  0  0
  191.2070  174.2500  142.7240 C   0  0  0  0  0  0  0  0  0  0  0  0
  188.5440  177.5770  143.6360 C   0  0  2  0  0  3  0  0  0  0  0  0
  191.3890  175.0300  144.0080 C   0  0  2  0  0  3  0  0  0  0  0  0
  190.8790  172.8000  140.4020 C   0  0  0  0  0  3  0  0  0  0  0  0
  194.3670  175.8470  146.4060 C   0  0  0  0  0  2  0  0  0  0  0  0
  189.9210  173.6800  140.7930 N   0  0  0  0  0  0  0  0  0  0  0  0
  192.9570  175.8130  145.8100 C   0  0  0  0  0  2  0  0  0  0  0  0
  195.1240  173.8320  144.5140 C   0  0  1  0  0  3  0  0  0  0  0  0
  191.9950  172.6280  141.1550 N   0  0  0  0  0  0  0  0  0  0  0  0
  193.3700  173.1720  143.0730 N   0  0  0  0  0  0  0  0  0  0  0  0
  196.7040  175.5420  143.5450 O   0  0  0  0  0  0  0  0  0  0  0  0
  196.7340  176.8000  142.8840 C   0  0  0  0  0  2  0  0  0  0  0  0
  195.9610  174.7590  139.9800 N   0  0  0  0  0  2  0  0  0  0  0  0
  194.8030  176.3140  141.4020 C   0  0  0  0  0  2  0  0  0  0  0  0
  196.2670  176.6420  141.4500 C   0  0  2  0  0  3  0  0  0  0  0  0
  194.6750  175.4120  140.1980 C   0  0  0  0  0  2  0  0  0  0  0  0
  196.9400  175.4470  140.8160 C   0  0  0  0  0  2  0  0  0  0  0  0
  1 18  1  0  0  0  0
  1 27  1  0  0  0  0
  2 27  1  0  0  0  0
  2 14  2  0  0  0  0
  3 19  1  0  0  0  0
  4 15  1  0  0  0  0
  4 18  2  0  0  0  0
  5 19  1  0  0  0  0
  5 11  1  6  0  0  0
  7  3  2  0  0  0  0
  9 27  1  6  0  0  0
  9 13  1  0  0  0  0
  9 25  1  0  0  0  0
 10 22  1  0  0  0  0
 12  8  1  0  0  0  0
 13 24  1  1  0  0  0
 15 12  1  1  0  0  0
 15  5  1  0  0  0  0
 16  3  1  0  0  0  0
 16  8  1  0  0  0  0
 17 25  1  0  0  0  0
 17 10  2  0  0  0  0
 18 20  1  0  0  0  0
 19  6  1  1  0  0  0
 20 11  1  6  0  0  0
 20 13  1  0  0  0  0
 21 23  2  0  0  0  0
 21 26  1  0  0  0  0
 23  4  1  0  0  0  0
 24 22  1  0  0  0  0
 25 14  1  6  0  0  0
 26  1  2  0  0  0  0
 28 17  1  0  0  0  0
 29 28  1  0  0  0  0
 30 33  1  0  0  0  0
 30 34  1  0  0  0  0
 31 32  1  0  0  0  0
 32 29  1  1  0  0  0
 33 31  1  0  0  0  0
 34 32  1  0  0  0  0
M  END
>  <MODEL>
4

>  <REMARK>
 VINA RESULT:      -7.6      2.532      8.274
  Name = 
  3 active torsions:
  status: ('A' for Active; 'I' for Inactive)
    1  A    between atoms: C_17  and  O_28
    2  A    between atoms: O_28  and  C_29
    3  A    between atoms: C_29  and  C_32
                            x       y       z     vdW  Elec       q    Type
                         _______ _______ _______ _____ _____    ______ ____

>  <TORSDO>
F 3

$$$$
=
 OpenBabel11112417463D

 34 40  0  0  1  0  0  0  0  0999 V2000
  192.6260  175.8380  146.2170 C   0  0  0  0  0  0  0  0  0  0  0  0
  195.0040  175.0020  146.2350 C   0  0  0  0  0  3  0  0  0  0  0  0
  186.9130  176.3980  143.1910 C   0  0  0  0  0  0  0  0  0  0  0  0
  190.2690  176.2370  145.8990 C   0  0  0  0  0  0  0  0  0  0  0  0
  189.4130  176.9820  143.5840 C   0  0  2  0  0  3  0  0  0  0  0  0
  188.1360  177.9160  141.6380 C   0  0  0  0  0  1  0  0  0  0  0  0
  186.3170  175.4300  142.7490 O   0  0  0  0  0  0  0  0  0  0  0  0
  187.1510  178.2910  144.8620 C   0  0  0  0  0  2  0  0  0  0  0  0
  194.3170  176.2680  144.3760 C   0  0  2  0  0  3  0  0  0  0  0  0
  195.1760  174.9270  141.7280 N   0  0  0  0  0  0  0  0  0  0  0  0
  190.6610  176.2740  143.0700 C   0  0  0  0  0  2  0  0  0  0  0  0
  188.2650  177.7060  145.7340 C   0  0  0  0  0  2  0  0  0  0  0  0
  193.1540  176.0530  143.3840 C   0  0  1  0  0  3  0  0  0  0  0  0
  195.9770  174.8470  145.3560 C   0  0  0  0  0  3  0  0  0  0  0  0
  189.0760  176.6000  145.0460 C   0  0  2  0  0  3  0  0  0  0  0  0
  186.2520  177.2060  144.2810 C   0  0  0  0  0  2  0  0  0  0  0  0
  195.5420  174.5350  142.9150 C   0  0  0  0  0  0  0  0  0  0  0  0
  191.5750  176.2200  145.3730 C   0  0  0  0  0  0  0  0  0  0  0  0
  188.2590  176.7440  142.5940 C   0  0  2  0  0  3  0  0  0  0  0  0
  191.8490  176.6470  143.9480 C   0  0  2  0  0  3  0  0  0  0  0  0
  191.1000  175.4650  147.9820 C   0  0  0  0  0  3  0  0  0  0  0  0
  194.8190  176.3100  141.4280 C   0  0  0  0  0  2  0  0  0  0  0  0
  190.0670  175.8450  147.1870 N   0  0  0  0  0  0  0  0  0  0  0  0
  193.4530  176.6780  142.0120 C   0  0  0  0  0  2  0  0  0  0  0  0
  195.6390  175.5270  144.0600 C   0  0  1  0  0  3  0  0  0  0  0  0
  192.3670  175.4610  147.4970 N   0  0  0  0  0  0  0  0  0  0  0  0
  193.9570  175.7900  145.6990 N   0  0  0  0  0  0  0  0  0  0  0  0
  195.8630  173.1910  143.1370 O   0  0  0  0  0  0  0  0  0  0  0  0
  194.8810  172.1620  143.1290 C   0  0  0  0  0  2  0  0  0  0  0  0
  191.2650  171.9430  142.8630 N   0  0  0  0  0  2  0  0  0  0  0  0
  192.8800  172.4560  144.5680 C   0  0  0  0  0  2  0  0  0  0  0  0
  193.4960  172.7690  143.2350 C   0  0  2  0  0  3  0  0  0  0  0  0
  191.4080  172.3260  144.2630 C   0  0  0  0  0  2  0  0  0  0  0  0
  192.5690  172.1230  142.2330 C   0  0  0  0  0  2  0  0  0  0  0  0
  1 26  1  0  0  0  0
  3 16  1  0  0  0  0
  4 23  2  0  0  0  0
  5 11  1  6  0  0  0
  5 15  1  0  0  0  0
  7  3  2  0  0  0  0
  8 12  1  0  0  0  0
  9 27  1  1  0  0  0
 10 17  2  0  0  0  0
 13 24  1  6  0  0  0
 13 20  1  0  0  0  0
 13  9  1  0  0  0  0
 14  2  2  0  0  0  0
 15 12  1  1  0  0  0
 15  4  1  0  0  0  0
 16  8  1  0  0  0  0
 17 28  1  0  0  0  0
 17 25  1  0  0  0  0
 18  4  1  0  0  0  0
 18  1  2  0  0  0  0
 19  6  1  1  0  0  0
 19  3  1  0  0  0  0
 19  5  1  0  0  0  0
 20 11  1  6  0  0  0
 20 18  1  0  0  0  0
 22 10  1  0  0  0  0
 22 24  1  0  0  0  0
 23 21  1  0  0  0  0
 25  9  1  0  0  0  0
 25 14  1  1  0  0  0
 26 21  2  0  0  0  0
 27  1  1  0  0  0  0
 27  2  1  0  0  0  0
 29 28  1  0  0  0  0
 30 33  1  0  0  0  0
 32 29  1  1  0  0  0
 32 31  1  0  0  0  0
 33 31  1  0  0  0  0
 34 30  1  0  0  0  0
 34 32  1  0  0  0  0
M  END
>  <MODEL>
5

>  <REMARK>
 VINA RESULT:      -7.6      2.232      7.373
  Name = 
  3 active torsions:
  status: ('A' for Active; 'I' for Inactive)
    1  A    between atoms: C_17  and  O_28
    2  A    between atoms: O_28  and  C_29
    3  A    between atoms: C_29  and  C_32
                            x       y       z     vdW  Elec       q    Type
                         _______ _______ _______ _____ _____    ______ ____

>  <TORSDO>
F 3

$$$$
=
 OpenBabel11112417463D

 34 40  0  0  1  0  0  0  0  0999 V2000
  190.4970  173.2920  142.1130 C   0  0  0  0  0  0  0  0  0  0  0  0
  188.1800  174.2840  142.1390 C   0  0  0  0  0  3  0  0  0  0  0  0
  196.3290  172.6230  144.8800 C   0  0  0  0  0  0  0  0  0  0  0  0
  192.6770  172.3800  142.5940 C   0  0  0  0  0  0  0  0  0  0  0  0
  194.5100  173.9180  143.5520 C   0  0  2  0  0  3  0  0  0  0  0  0
  196.6500  175.0170  144.2630 C   0  0  0  0  0  1  0  0  0  0  0  0
  196.4590  172.2730  146.0400 O   0  0  0  0  0  0  0  0  0  0  0  0
  196.5420  172.1910  142.3890 C   0  0  0  0  0  2  0  0  0  0  0  0
  189.9900  175.7630  142.3880 C   0  0  2  0  0  3  0  0  0  0  0  0
  189.5150  177.7340  144.7190 N   0  0  0  0  0  0  0  0  0  0  0  0
  193.3330  174.7320  144.0740 C   0  0  0  0  0  2  0  0  0  0  0  0
  195.0690  171.9370  142.0600 C   0  0  0  0  0  2  0  0  0  0  0  0
  191.1370  175.7880  143.4220 C   0  0  1  0  0  3  0  0  0  0  0  0
  187.6230  175.4220  142.5080 C   0  0  0  0  0  3  0  0  0  0  0  0
  194.0940  172.4960  143.1050 C   0  0  2  0  0  3  0  0  0  0  0  0
  196.8990  171.7360  143.8000 C   0  0  0  0  0  2  0  0  0  0  0  0
  188.6270  176.9010  144.2550 C   0  0  0  0  0  0  0  0  0  0  0  0
  191.8080  173.4870  142.5680 C   0  0  0  0  0  0  0  0  0  0  0  0
  195.6370  173.9390  144.6000 C   0  0  2  0  0  3  0  0  0  0  0  0
  192.2860  174.8640  142.9750 C   0  0  2  0  0  3  0  0  0  0  0  0
  190.9280  170.9910  141.7940 C   0  0  0  0  0  3  0  0  0  0  0  0
  190.6010  178.2680  143.9040 C   0  0  0  0  0  2  0  0  0  0  0  0
  192.2070  171.1580  142.2180 N   0  0  0  0  0  0  0  0  0  0  0  0
  191.6770  177.2110  143.6380 C   0  0  0  0  0  2  0  0  0  0  0  0
  188.6710  176.4580  142.8040 C   0  0  1  0  0  3  0  0  0  0  0  0
  190.0820  172.0520  141.7460 N   0  0  0  0  0  0  0  0  0  0  0  0
  189.5900  174.3960  142.1010 N   0  0  0  0  0  0  0  0  0  0  0  0
  187.6160  176.4200  145.0940 O   0  0  0  0  0  0  0  0  0  0  0  0
  187.7380  176.4160  146.5100 C   0  0  0  0  0  2  0  0  0  0  0  0
  185.2650  178.9670  147.2630 N   0  0  0  0  0  2  0  0  0  0  0  0
  185.3220  176.8450  146.1360 C   0  0  0  0  0  2  0  0  0  0  0  0
  186.4370  176.8670  147.1420 C   0  0  2  0  0  3  0  0  0  0  0  0
  184.4410  177.9990  146.5480 C   0  0  0  0  0  2  0  0  0  0  0  0
  186.5370  178.3160  147.5580 C   0  0  0  0  0  2  0  0  0  0  0  0
  1 18  1  0  0  0  0
  2 14  2  0  0  0  0
  3  7  2  0  0  0  0
  4 15  1  0  0  0  0
  5 11  1  1  0  0  0
  5 19  1  0  0  0  0
  8 16  1  0  0  0  0
  9 27  1  1  0  0  0
  9 25  1  0  0  0  0
  9 13  1  0  0  0  0
 12  8  1  0  0  0  0
 13 24  1  6  0  0  0
 15 12  1  6  0  0  0
 15  5  1  0  0  0  0
 16  3  1  0  0  0  0
 17 10  2  0  0  0  0
 17 28  1  0  0  0  0
 18  4  2  0  0  0  0
 18 20  1  0  0  0  0
 19  6  1  6  0  0  0
 19  3  1  0  0  0  0
 20 13  1  0  0  0  0
 20 11  1  1  0  0  0
 21 23  2  0  0  0  0
 22 10  1  0  0  0  0
 23  4  1  0  0  0  0
 24 22  1  0  0  0  0
 25 14  1  1  0  0  0
 25 17  1  0  0  0  0
 26 21  1  0  0  0  0
 26  1  2  0  0  0  0
 27  1  1  0  0  0  0
 27  2  1  0  0  0  0
 28 29  1  0  0  0  0
 30 34  1  0  0  0  0
 31 33  1  0  0  0  0
 31 32  1  0  0  0  0
 32 29  1  6  0  0  0
 32 34  1  0  0  0  0
 33 30  1  0  0  0  0
M  END
>  <MODEL>
6

>  <REMARK>
 VINA RESULT:      -7.5      2.527      4.028
  Name = 
  3 active torsions:
  status: ('A' for Active; 'I' for Inactive)
    1  A    between atoms: C_17  and  O_28
    2  A    between atoms: O_28  and  C_29
    3  A    between atoms: C_29  and  C_32
                            x       y       z     vdW  Elec       q    Type
                         _______ _______ _______ _____ _____    ______ ____

>  <TORSDO>
F 3

$$$$
=
 OpenBabel11112417463D

 34 40  0  0  1  0  0  0  0  0999 V2000
  190.5410  172.7010  142.4960 C   0  0  0  0  0  0  0  0  0  0  0  0
  188.5780  174.2810  142.4190 C   0  0  0  0  0  3  0  0  0  0  0  0
  195.3720  169.9380  145.8330 C   0  0  0  0  0  0  0  0  0  0  0  0
  192.2920  171.1430  143.0600 C   0  0  0  0  0  0  0  0  0  0  0  0
  194.2220  171.9070  144.5890 C   0  0  2  0  0  3  0  0  0  0  0  0
  196.3840  172.2160  145.8240 C   0  0  0  0  0  1  0  0  0  0  0  0
  195.1820  169.3620  146.8910 O   0  0  0  0  0  0  0  0  0  0  0  0
  195.9560  169.9190  143.3640 C   0  0  0  0  0  2  0  0  0  0  0  0
  190.6100  175.1230  143.2470 C   0  0  2  0  0  3  0  0  0  0  0  0
  190.1850  176.6960  145.8720 N   0  0  0  0  0  0  0  0  0  0  0  0
  193.2010  172.9110  145.1100 C   0  0  0  0  0  2  0  0  0  0  0  0
  194.5600  170.1510  142.7830 C   0  0  0  0  0  2  0  0  0  0  0  0
  191.5030  174.6400  144.4110 C   0  0  1  0  0  3  0  0  0  0  0  0
  188.2560  175.4450  142.9540 C   0  0  0  0  0  3  0  0  0  0  0  0
  193.5660  170.7630  143.7790 C   0  0  2  0  0  3  0  0  0  0  0  0
  195.9080  169.1350  144.6720 C   0  0  0  0  0  2  0  0  0  0  0  0
  189.2290  176.2430  145.1120 C   0  0  0  0  0  0  0  0  0  0  0  0
  191.7440  172.4360  143.1630 C   0  0  0  0  0  0  0  0  0  0  0  0
  195.0920  171.4230  145.7630 C   0  0  2  0  0  3  0  0  0  0  0  0
  192.4550  173.5270  143.9340 C   0  0  2  0  0  3  0  0  0  0  0  0
  190.4490  170.4680  141.7300 C   0  0  0  0  0  3  0  0  0  0  0  0
  191.5070  177.0410  145.3610 C   0  0  0  0  0  2  0  0  0  0  0  0
  191.6210  170.1910  142.3560 N   0  0  0  0  0  0  0  0  0  0  0  0
  192.3220  175.7910  145.0160 C   0  0  0  0  0  2  0  0  0  0  0  0
  189.4460  176.0740  143.6200 C   0  0  1  0  0  3  0  0  0  0  0  0
  189.9150  171.7140  141.8040 N   0  0  0  0  0  0  0  0  0  0  0  0
  189.9520  173.9990  142.6060 N   0  0  0  0  0  0  0  0  0  0  0  0
  187.9870  175.9220  145.6700 O   0  0  0  0  0  0  0  0  0  0  0  0
  187.2010  176.8720  146.3780 C   0  0  0  0  0  2  0  0  0  0  0  0
  184.0570  178.6400  145.9460 N   0  0  0  0  0  2  0  0  0  0  0  0
  186.2080  178.5800  144.8750 C   0  0  0  0  0  2  0  0  0  0  0  0
  185.9890  177.2580  145.5530 C   0  0  2  0  0  3  0  0  0  0  0  0
  184.8330  179.2020  144.8470 C   0  0  0  0  0  2  0  0  0  0  0  0
  184.8000  177.4910  146.4550 C   0  0  0  0  0  2  0  0  0  0  0  0
  1 27  1  0  0  0  0
  1 18  1  0  0  0  0
  2 27  1  0  0  0  0
  2 14  2  0  0  0  0
  3  7  2  0  0  0  0
  4 18  2  0  0  0  0
  4 15  1  0  0  0  0
  5 11  1  1  0  0  0
  5 19  1  0  0  0  0
  8 16  1  0  0  0  0
  9 27  1  1  0  0  0
  9 25  1  0  0  0  0
  9 13  1  0  0  0  0
 12  8  1  0  0  0  0
 13 24  1  6  0  0  0
 15 12  1  6  0  0  0
 15  5  1  0  0  0  0
 16  3  1  0  0  0  0
 17 28  1  0  0  0  0
 17 10  2  0  0  0  0
 18 20  1  0  0  0  0
 19  6  1  6  0  0  0
 19  3  1  0  0  0  0
 20 13  1  0  0  0  0
 20 11  1  1  0  0  0
 21 26  1  0  0  0  0
 21 23  2  0  0  0  0
 22 10  1  0  0  0  0
 23  4  1  0  0  0  0
 24 22  1  0  0  0  0
 25 14  1  6  0  0  0
 25 17  1  0  0  0  0
 26  1  2  0  0  0  0
 28 29  1  0  0  0  0
 30 34  1  0  0  0  0
 31 32  1  0  0  0  0
 32 29  1  1  0  0  0
 32 34  1  0  0  0  0
 33 31  1  0  0  0  0
 33 30  1  0  0  0  0
M  END
>  <MODEL>
7

>  <REMARK>
 VINA RESULT:      -7.4      3.241      4.656
  Name = 
  3 active torsions:
  status: ('A' for Active; 'I' for Inactive)
    1  A    between atoms: C_17  and  O_28
    2  A    between atoms: O_28  and  C_29
    3  A    between atoms: C_29  and  C_32
                            x       y       z     vdW  Elec       q    Type
                         _______ _______ _______ _____ _____    ______ ____

>  <TORSDO>
F 3

$$$$
=
 OpenBabel11112417463D

 34 40  0  0  1  0  0  0  0  0999 V2000
  187.8300  175.3120  140.6850 C   0  0  0  0  0  0  0  0  0  0  0  0
  188.4770  174.1660  138.5350 C   0  0  0  0  0  3  0  0  0  0  0  0
  189.2660  176.9770  146.7910 C   0  0  0  0  0  0  0  0  0  0  0  0
  187.7130  176.4710  142.7960 C   0  0  0  0  0  0  0  0  0  0  0  0
  188.5670  175.3040  144.9300 C   0  0  2  0  0  3  0  0  0  0  0  0
  189.0440  174.5400  147.2710 C   0  0  0  0  0  1  0  0  0  0  0  0
  190.2980  177.5600  147.0770 O   0  0  0  0  0  0  0  0  0  0  0  0
  186.7440  176.9190  146.5220 C   0  0  0  0  0  2  0  0  0  0  0  0
  188.6400  172.9140  140.5180 C   0  0  2  0  0  3  0  0  0  0  0  0
  191.3370  171.4160  140.6780 N   0  0  0  0  0  0  0  0  0  0  0  0
  189.4420  174.5200  143.9610 C   0  0  0  0  0  2  0  0  0  0  0  0
  186.6620  176.9860  144.9950 C   0  0  0  0  0  2  0  0  0  0  0  0
  189.4230  173.1850  141.8210 C   0  0  1  0  0  3  0  0  0  0  0  0
  189.1460  173.0840  138.1830 C   0  0  0  0  0  3  0  0  0  0  0  0
  187.9570  176.5710  144.2840 C   0  0  2  0  0  3  0  0  0  0  0  0
  187.9540  177.6730  147.0620 C   0  0  0  0  0  2  0  0  0  0  0  0
  190.9080  172.0660  139.6350 C   0  0  0  0  0  0  0  0  0  0  0  0
  188.0540  175.3160  142.0680 C   0  0  0  0  0  0  0  0  0  0  0  0
  189.3670  175.5810  146.2160 C   0  0  2  0  0  3  0  0  0  0  0  0
  188.6060  174.0900  142.7620 C   0  0  2  0  0  3  0  0  0  0  0  0
  187.0230  177.5300  140.7900 C   0  0  0  0  0  3  0  0  0  0  0  0
  190.4410  170.8170  141.6620 C   0  0  0  0  0  2  0  0  0  0  0  0
  187.2180  177.5520  142.1330 N   0  0  0  0  0  0  0  0  0  0  0  0
  189.7870  171.8810  142.5480 C   0  0  0  0  0  2  0  0  0  0  0  0
  189.4190  172.2140  139.3770 C   0  0  1  0  0  3  0  0  0  0  0  0
  187.3300  176.4180  140.0750 N   0  0  0  0  0  0  0  0  0  0  0  0
  188.1920  174.1600  139.9220 N   0  0  0  0  0  0  0  0  0  0  0  0
  191.8220  172.6240  138.7350 O   0  0  0  0  0  0  0  0  0  0  0  0
  192.8470  171.8570  138.1160 C   0  0  0  0  0  2  0  0  0  0  0  0
  190.6890  171.3600  135.2360 N   0  0  0  0  0  2  0  0  0  0  0  0
  192.0920  173.1060  136.1080 C   0  0  0  0  0  2  0  0  0  0  0  0
  192.6120  171.7940  136.6190 C   0  0  2  0  0  3  0  0  0  0  0  0
  191.1680  172.7140  134.9810 C   0  0  0  0  0  2  0  0  0  0  0  0
  191.5110  170.8080  136.3080 C   0  0  0  0  0  2  0  0  0  0  0  0
  1 18  1  0  0  0  0
  2 27  1  0  0  0  0
  3 16  1  0  0  0  0
  3  7  2  0  0  0  0
  4 15  1  0  0  0  0
  5 11  1  6  0  0  0
  5 19  1  0  0  0  0
  8 16  1  0  0  0  0
  9 27  1  6  0  0  0
  9 13  1  0  0  0  0
 10 22  1  0  0  0  0
 12  8  1  0  0  0  0
 13 24  1  1  0  0  0
 13 20  1  0  0  0  0
 14  2  2  0  0  0  0
 15  5  1  0  0  0  0
 15 12  1  1  0  0  0
 17 10  2  0  0  0  0
 18 20  1  0  0  0  0
 18  4  2  0  0  0  0
 19  3  1  0  0  0  0
 19  6  1  1  0  0  0
 20 11  1  1  0  0  0
 21 23  2  0  0  0  0
 22 24  1  0  0  0  0
 23  4  1  0  0  0  0
 25 14  1  6  0  0  0
 25 17  1  0  0  0  0
 25  9  1  0  0  0  0
 26  1  2  0  0  0  0
 26 21  1  0  0  0  0
 27  1  1  0  0  0  0
 28 17  1  0  0  0  0
 29 28  1  0  0  0  0
 30 34  1  0  0  0  0
 31 32  1  0  0  0  0
 32 29  1  1  0  0  0
 33 30  1  0  0  0  0
 33 31  1  0  0  0  0
 34 32  1  0  0  0  0
M  END
>  <MODEL>
8

>  <REMARK>
 VINA RESULT:      -7.3      4.309      8.138
  Name = 
  3 active torsions:
  status: ('A' for Active; 'I' for Inactive)
    1  A    between atoms: C_17  and  O_28
    2  A    between atoms: O_28  and  C_29
    3  A    between atoms: C_29  and  C_32
                            x       y       z     vdW  Elec       q    Type
                         _______ _______ _______ _____ _____    ______ ____

>  <TORSDO>
F 3

$$$$
=
 OpenBabel11112417463D

 34 40  0  0  1  0  0  0  0  0999 V2000
  190.0420  174.1590  141.7730 C   0  0  0  0  0  0  0  0  0  0  0  0
  188.6680  176.2420  142.1280 C   0  0  0  0  0  3  0  0  0  0  0  0
  193.2180  169.0620  144.2320 C   0  0  0  0  0  0  0  0  0  0  0  0
  191.1420  172.0150  141.8670 C   0  0  0  0  0  0  0  0  0  0  0  0
  192.9200  171.5830  143.6820 C   0  0  2  0  0  3  0  0  0  0  0  0
  194.8350  170.7600  145.0780 C   0  0  0  0  0  1  0  0  0  0  0  0
  192.6910  168.2850  145.0110 O   0  0  0  0  0  0  0  0  0  0  0  0
  194.1820  169.6140  141.9520 C   0  0  0  0  0  2  0  0  0  0  0  0
  190.6860  176.0620  143.3210 C   0  0  2  0  0  3  0  0  0  0  0  0
  190.2970  176.7940  146.2970 N   0  0  0  0  0  0  0  0  0  0  0  0
  192.1630  172.6560  144.4550 C   0  0  0  0  0  2  0  0  0  0  0  0
  193.0340  170.4640  141.4030 C   0  0  0  0  0  2  0  0  0  0  0  0
  191.1870  174.9760  144.2970 C   0  0  1  0  0  3  0  0  0  0  0  0
  188.6130  177.2200  143.0130 C   0  0  0  0  0  3  0  0  0  0  0  0
  192.1080  171.0320  142.4860 C   0  0  2  0  0  3  0  0  0  0  0  0
  193.6860  168.5280  142.9000 C   0  0  0  0  0  2  0  0  0  0  0  0
  189.3940  176.9430  145.3700 C   0  0  0  0  0  0  0  0  0  0  0  0
  190.9840  173.3170  142.3780 C   0  0  0  0  0  0  0  0  0  0  0  0
  193.3990  170.5000  144.6660 C   0  0  2  0  0  3  0  0  0  0  0  0
  191.8400  173.8150  143.5220 C   0  0  2  0  0  3  0  0  0  0  0  0
  189.4360  172.4360  140.2740 C   0  0  0  0  0  3  0  0  0  0  0  0
  191.7290  176.8220  146.0200 C   0  0  0  0  0  2  0  0  0  0  0  0
  190.3520  171.6060  140.8360 N   0  0  0  0  0  0  0  0  0  0  0  0
  192.1900  175.5440  145.3140 C   0  0  0  0  0  2  0  0  0  0  0  0
  189.8030  177.1810  143.9280 C   0  0  1  0  0  3  0  0  0  0  0  0
  189.2840  173.7000  140.7430 N   0  0  0  0  0  0  0  0  0  0  0  0
  189.8480  175.4760  142.2900 N   0  0  0  0  0  0  0  0  0  0  0  0
  188.0360  176.8960  145.7040 O   0  0  0  0  0  0  0  0  0  0  0  0
  187.5640  176.2670  146.8880 C   0  0  0  0  0  2  0  0  0  0  0  0
  185.2230  179.0360  147.1120 N   0  0  0  0  0  2  0  0  0  0  0  0
  185.2780  176.8500  146.1140 C   0  0  0  0  0  2  0  0  0  0  0  0
  186.2220  176.8510  147.2820 C   0  0  2  0  0  3  0  0  0  0  0  0
  184.4430  178.0890  146.3240 C   0  0  0  0  0  2  0  0  0  0  0  0
  186.3760  178.3110  147.6380 C   0  0  0  0  0  2  0  0  0  0  0  0
  1 27  1  0  0  0  0
  1 18  1  0  0  0  0
  2 27  1  0  0  0  0
  2 14  2  0  0  0  0
  3 19  1  0  0  0  0
  3  7  2  0  0  0  0
  4 18  2  0  0  0  0
  4 15  1  0  0  0  0
  5 11  1  1  0  0  0
  5 19  1  0  0  0  0
  8 16  1  0  0  0  0
  9 27  1  6  0  0  0
  9 25  1  0  0  0  0
  9 13  1  0  0  0  0
 12  8  1  0  0  0  0
 13 24  1  1  0  0  0
 15 12  1  6  0  0  0
 15  5  1  0  0  0  0
 16  3  1  0  0  0  0
 17 28  1  0  0  0  0
 17 10  2  0  0  0  0
 18 20  1  0  0  0  0
 19  6  1  6  0  0  0
 20 13  1  0  0  0  0
 20 11  1  1  0  0  0
 21 26  1  0  0  0  0
 21 23  2  0  0  0  0
 22 10  1  0  0  0  0
 23  4  1  0  0  0  0
 24 22  1  0  0  0  0
 25 14  1  6  0  0  0
 25 17  1  0  0  0  0
 26  1  2  0  0  0  0
 28 29  1  0  0  0  0
 30 34  1  0  0  0  0
 31 33  1  0  0  0  0
 31 32  1  0  0  0  0
 32 29  1  6  0  0  0
 32 34  1  0  0  0  0
 33 30  1  0  0  0  0
M  END
>  <MODEL>
9

>  <REMARK>
 VINA RESULT:      -7.2      3.328      5.138
  Name = 
  3 active torsions:
  status: ('A' for Active; 'I' for Inactive)
    1  A    between atoms: C_17  and  O_28
    2  A    between atoms: O_28  and  C_29
    3  A    between atoms: C_29  and  C_32
                            x       y       z     vdW  Elec       q    Type
                         _______ _______ _______ _____ _____    ______ ____

>  <TORSDO>
F 3

$$$$
