=
 OpenBabel11112417323D

 37 43  0  0  1  0  0  0  0  0999 V2000
  190.6900  175.5990  144.7540 C   0  0  1  0  0  3  0  0  0  0  0  0
  189.0090  176.3770  141.9380 O   0  0  0  0  0  0  0  0  0  0  0  0
  191.2300  176.5680  147.1390 C   0  0  2  0  0  3  0  0  0  0  0  0
  189.3000  175.7220  144.2210 C   0  0  2  0  0  3  0  0  0  0  0  0
  190.6890  176.7960  145.7140 C   0  0  2  0  0  3  0  0  0  0  0  0
  189.0980  175.2540  142.7770 C   0  0  2  0  0  3  0  0  0  0  0  0
  191.1720  175.1180  147.5830 C   0  0  0  0  0  2  0  0  0  0  0  0
  189.4110  177.3870  145.6780 O   0  0  0  0  0  0  0  0  0  0  0  0
  191.3450  173.3740  144.3360 C   0  0  0  0  0  2  0  0  0  0  0  0
  191.7340  174.2570  146.4700 C   0  0  0  0  0  2  0  0  0  0  0  0
  186.5210  176.0650  142.4380 C   0  0  0  0  0  2  0  0  0  0  0  0
  187.6570  176.7650  141.6960 C   0  0  1  0  0  3  0  0  0  0  0  0
  190.7960  174.2640  145.3580 N   0  0  1  0  0  0  0  0  0  0  0  0
  188.9560  177.1190  144.4190 N   0  0  2  0  0  0  0  0  0  0  0  0
  190.1460  174.2410  142.2770 C   0  0  1  0  0  3  0  0  0  0  0  0
  186.9780  177.4340  142.9170 C   0  0  2  0  0  3  0  0  0  0  0  0
  187.4960  177.2310  144.3590 C   0  0  2  0  0  3  0  0  0  0  0  0
  190.3180  173.0610  143.2430 C   0  0  0  0  0  2  0  0  0  0  0  0
  188.5210  173.2130  140.6840 C   0  0  0  0  0  3  0  0  0  0  0  0
  189.7940  173.7420  140.9090 C   0  0  0  0  0  0  0  0  0  0  0  0
  190.7190  173.7890  139.8570 C   0  0  0  0  0  3  0  0  0  0  0  0
  191.2780  173.3480  137.5230 N   0  0  0  0  0  1  0  0  0  0  0  0
  189.1040  172.7970  138.4040 N   0  0  0  0  0  0  0  0  0  0  0  0
  190.3500  173.3070  138.6000 C   0  0  0  0  0  0  0  0  0  0  0  0
  188.1910  172.7400  139.4110 C   0  0  0  0  0  3  0  0  0  0  0  0
  186.9820  178.3910  145.2090 C   0  0  0  0  0  2  0  0  0  0  0  0
  185.7240  177.9880  145.9640 C   0  0  0  0  0  0  0  0  0  0  0  0
  185.6470  176.5290  146.3440 C   0  0  0  0  0  2  0  0  0  0  0  0
  185.9400  177.5840  147.4030 C   0  0  0  0  0  2  0  0  0  0  0  0
  184.3840  178.6630  145.6840 C   0  0  0  0  0  2  0  0  0  0  0  0
  184.3940  179.3980  144.3520 C   0  0  0  0  0  2  0  0  0  0  0  0
  183.6910  178.6660  143.3950 O   0  0  0  0  0  1  0  0  0  0  0  0
  190.5700  177.3860  148.0730 O   0  0  0  0  0  0  0  0  0  0  0  0
  191.5080  177.7890  149.0460 C   0  0  0  0  0  0  0  0  0  0  0  0
  191.1920  179.0430  149.5460 F   0  0  0  0  0  0  0  0  0  0  0  0
  191.5680  176.8700  150.0830 F   0  0  0  0  0  0  0  0  0  0  0  0
  192.7540  177.8560  148.4530 F   0  0  0  0  0  0  0  0  0  0  0  0
  1 13  1  0  0  0  0
  1  5  1  0  0  0  0
  2  6  1  0  0  0  0
  3  7  1  0  0  0  0
  3 33  1  0  0  0  0
  4 14  1  0  0  0  0
  4  1  1  0  0  0  0
  5  3  1  0  0  0  0
  6  4  1  0  0  0  0
  8  5  1  0  0  0  0
  9 13  1  0  0  0  0
 10  7  1  0  0  0  0
 11 16  1  0  0  0  0
 12  2  1  0  0  0  0
 12 11  1  0  0  0  0
 12 16  1  0  0  0  0
 13 10  1  0  0  0  0
 14  8  1  0  0  0  0
 15  6  1  0  0  0  0
 15 18  1  0  0  0  0
 16 17  1  0  0  0  0
 17 14  1  0  0  0  0
 17 26  1  0  0  0  0
 18  9  1  0  0  0  0
 19 20  1  0  0  0  0
 20 15  1  0  0  0  0
 21 20  2  0  0  0  0
 22 24  1  0  0  0  0
 23 24  2  0  0  0  0
 23 25  1  0  0  0  0
 24 21  1  0  0  0  0
 25 19  2  0  0  0  0
 26 27  1  0  0  0  0
 27 28  1  0  0  0  0
 27 29  1  0  0  0  0
 28 29  1  0  0  0  0
 30 27  1  0  0  0  0
 31 30  1  0  0  0  0
 32 31  1  0  0  0  0
 33 34  1  0  0  0  0
 34 35  1  0  0  0  0
 34 36  1  0  0  0  0
 37 34  1  0  0  0  0
M  END
>  <MODEL>
1

>  <REMARK>
 VINA RESULT:      -7.6      0.000      0.000
  Name = 
  7 active torsions:
  status: ('A' for Active; 'I' for Inactive)
    1  A    between atoms: C_1  and  C_4
    2  A    between atoms: C_1  and  C_27
    3  A    between atoms: C_2  and  O_22
    4  A    between atoms: C_4  and  C_12
    5  A    between atoms: C_6  and  O_22
    6  A    between atoms: C_8  and  C_12
    7  A    between atoms: C_23  and  C_30
                            x       y       z     vdW  Elec       q    Type
                         _______ _______ _______ _____ _____    ______ ____

>  <TORSDO>
F 7

$$$$
=
 OpenBabel11112417323D

 37 43  0  0  1  0  0  0  0  0999 V2000
  190.3550  174.1930  141.4080 C   0  0  1  0  0  3  0  0  0  0  0  0
  189.6160  177.3710  142.2520 O   0  0  0  0  0  0  0  0  0  0  0  0
  192.4160  172.5780  141.1590 C   0  0  2  0  0  3  0  0  0  0  0  0
  190.2860  175.1000  142.5930 C   0  0  2  0  0  3  0  0  0  0  0  0
  191.8770  174.0110  141.3290 C   0  0  2  0  0  3  0  0  0  0  0  0
  189.1270  176.1000  142.5980 C   0  0  2  0  0  3  0  0  0  0  0  0
  191.4520  171.5080  141.6380 C   0  0  0  0  0  2  0  0  0  0  0  0
  192.4590  174.7140  142.4030 O   0  0  0  0  0  0  0  0  0  0  0  0
  188.2150  173.2260  141.2110 C   0  0  0  0  0  2  0  0  0  0  0  0
  190.0810  171.8170  141.0740 C   0  0  0  0  0  2  0  0  0  0  0  0
  189.8390  177.5430  144.7940 C   0  0  0  0  0  2  0  0  0  0  0  0
  189.9220  178.1620  143.4010 C   0  0  1  0  0  3  0  0  0  0  0  0
  189.5610  173.0020  141.7380 N   0  0  1  0  0  0  0  0  0  0  0  0
  191.5890  175.7390  142.6390 N   0  0  2  0  0  0  0  0  0  0  0  0
  187.9200  175.6900  141.7310 C   0  0  1  0  0  3  0  0  0  0  0  0
  191.2030  177.7030  144.1420 C   0  0  2  0  0  3  0  0  0  0  0  0
  191.7740  176.2750  143.9910 C   0  0  2  0  0  3  0  0  0  0  0  0
  187.4470  174.2630  142.0360 C   0  0  0  0  0  2  0  0  0  0  0  0
  186.3130  177.3520  140.7880 C   0  0  0  0  0  3  0  0  0  0  0  0
  186.7890  176.6580  141.9020 C   0  0  0  0  0  0  0  0  0  0  0  0
  186.2080  176.8820  143.1570 C   0  0  0  0  0  3  0  0  0  0  0  0
  184.5610  178.0360  144.5380 N   0  0  0  0  0  1  0  0  0  0  0  0
  184.7130  178.4620  142.1720 N   0  0  0  0  0  0  0  0  0  0  0  0
  185.1600  177.7980  143.2720 C   0  0  0  0  0  0  0  0  0  0  0  0
  185.2630  178.2600  140.9440 C   0  0  0  0  0  3  0  0  0  0  0  0
  193.2490  176.3160  144.3870 C   0  0  0  0  0  2  0  0  0  0  0  0
  193.4330  175.8490  145.8230 C   0  0  0  0  0  0  0  0  0  0  0  0
  194.8660  175.6170  146.2400 C   0  0  0  0  0  2  0  0  0  0  0  0
  194.1080  176.8410  146.7400 C   0  0  0  0  0  2  0  0  0  0  0  0
  192.4010  174.9520  146.5000 C   0  0  0  0  0  2  0  0  0  0  0  0
  191.6300  175.6980  147.5790 C   0  0  0  0  0  2  0  0  0  0  0  0
  190.3020  175.2710  147.6020 O   0  0  0  0  0  1  0  0  0  0  0  0
  193.6640  172.4220  141.7890 O   0  0  0  0  0  0  0  0  0  0  0  0
  194.6670  172.4770  140.8000 C   0  0  0  0  0  0  0  0  0  0  0  0
  195.6940  171.5930  141.0900 F   0  0  0  0  0  0  0  0  0  0  0  0
  194.1410  172.1930  139.5490 F   0  0  0  0  0  0  0  0  0  0  0  0
  195.1870  173.7570  140.7740 F   0  0  0  0  0  0  0  0  0  0  0  0
  1 13  1  0  0  0  0
  1  4  1  0  0  0  0
  2  6  1  0  0  0  0
  2 12  1  0  0  0  0
  3  5  1  0  0  0  0
  3  7  1  0  0  0  0
  3 33  1  0  0  0  0
  4  6  1  0  0  0  0
  4 14  1  0  0  0  0
  5  1  1  0  0  0  0
  5  8  1  0  0  0  0
  8 14  1  0  0  0  0
  9 13  1  0  0  0  0
  9 18  1  0  0  0  0
 10  7  1  0  0  0  0
 10 13  1  0  0  0  0
 12 16  1  0  0  0  0
 12 11  1  0  0  0  0
 14 17  1  0  0  0  0
 15 20  1  0  0  0  0
 15 18  1  0  0  0  0
 15  6  1  0  0  0  0
 16 11  1  0  0  0  0
 17 16  1  0  0  0  0
 17 26  1  0  0  0  0
 19 25  2  0  0  0  0
 19 20  1  0  0  0  0
 20 21  2  0  0  0  0
 21 24  1  0  0  0  0
 23 24  2  0  0  0  0
 24 22  1  0  0  0  0
 25 23  1  0  0  0  0
 26 27  1  0  0  0  0
 27 28  1  0  0  0  0
 27 30  1  0  0  0  0
 27 29  1  0  0  0  0
 28 29  1  0  0  0  0
 30 31  1  0  0  0  0
 31 32  1  0  0  0  0
 34 35  1  0  0  0  0
 34 33  1  0  0  0  0
 36 34  1  0  0  0  0
 37 34  1  0  0  0  0
M  END
>  <MODEL>
2

>  <REMARK>
 VINA RESULT:      -7.5      3.797      6.897
  Name = 
  7 active torsions:
  status: ('A' for Active; 'I' for Inactive)
    1  A    between atoms: C_1  and  C_4
    2  A    between atoms: C_1  and  C_27
    3  A    between atoms: C_2  and  O_22
    4  A    between atoms: C_4  and  C_12
    5  A    between atoms: C_6  and  O_22
    6  A    between atoms: C_8  and  C_12
    7  A    between atoms: C_23  and  C_30
                            x       y       z     vdW  Elec       q    Type
                         _______ _______ _______ _____ _____    ______ ____

>  <TORSDO>
F 7

$$$$
=
 OpenBabel11112417323D

 37 43  0  0  1  0  0  0  0  0999 V2000
  190.5370  176.7850  144.9540 C   0  0  1  0  0  3  0  0  0  0  0  0
  192.8320  175.8280  142.6800 O   0  0  0  0  0  0  0  0  0  0  0  0
  188.0170  177.5220  145.1210 C   0  0  2  0  0  3  0  0  0  0  0  0
  190.8970  175.6340  144.0730 C   0  0  2  0  0  3  0  0  0  0  0  0
  189.2540  177.2420  144.2460 C   0  0  2  0  0  3  0  0  0  0  0  0
  192.3940  175.3520  143.9270 C   0  0  2  0  0  3  0  0  0  0  0  0
  188.0440  176.8010  146.4560 C   0  0  0  0  0  2  0  0  0  0  0  0
  189.0060  176.3600  143.1760 O   0  0  0  0  0  0  0  0  0  0  0  0
  191.6760  176.4230  146.9850 C   0  0  0  0  0  2  0  0  0  0  0  0
  189.4100  177.0050  147.0790 C   0  0  0  0  0  2  0  0  0  0  0  0
  192.2650  173.4270  142.0060 C   0  0  0  0  0  2  0  0  0  0  0  0
  192.8370  174.8050  141.6840 C   0  0  1  0  0  3  0  0  0  0  0  0
  190.3890  176.2490  146.3140 N   0  0  1  0  0  0  0  0  0  0  0  0
  190.2480  175.9270  142.8080 N   0  0  2  0  0  0  0  0  0  0  0  0
  193.2640  175.8810  145.0840 C   0  0  1  0  0  3  0  0  0  0  0  0
  191.4200  174.4030  141.2040 C   0  0  2  0  0  3  0  0  0  0  0  0
  190.1570  174.6740  142.0530 C   0  0  2  0  0  3  0  0  0  0  0  0
  192.7310  175.4460  146.4550 C   0  0  0  0  0  2  0  0  0  0  0  0
  195.1830  174.4180  145.7290 C   0  0  0  0  0  3  0  0  0  0  0  0
  194.6880  175.4450  144.9220 C   0  0  0  0  0  0  0  0  0  0  0  0
  195.5330  176.0530  143.9820 C   0  0  0  0  0  3  0  0  0  0  0  0
  197.7230  176.2270  142.9220 N   0  0  0  0  0  1  0  0  0  0  0  0
  197.3140  174.6170  144.6660 N   0  0  0  0  0  0  0  0  0  0  0  0
  196.8550  175.6200  143.8690 C   0  0  0  0  0  0  0  0  0  0  0  0
  196.5120  174.0130  145.5850 C   0  0  0  0  0  3  0  0  0  0  0  0
  188.9510  174.6620  141.1160 C   0  0  0  0  0  2  0  0  0  0  0  0
  188.4190  173.2480  140.9410 C   0  0  0  0  0  0  0  0  0  0  0  0
  188.7790  172.2890  142.0510 C   0  0  0  0  0  2  0  0  0  0  0  0
  187.3600  172.8320  141.9350 C   0  0  0  0  0  2  0  0  0  0  0  0
  188.2770  172.6230  139.5570 C   0  0  0  0  0  2  0  0  0  0  0  0
  188.9340  173.4790  138.4840 C   0  0  0  0  0  2  0  0  0  0  0  0
  187.9690  174.2290  137.8120 O   0  0  0  0  0  1  0  0  0  0  0  0
  186.8270  177.2240  144.4340 O   0  0  0  0  0  0  0  0  0  0  0  0
  186.1340  178.4310  144.2090 C   0  0  0  0  0  0  0  0  0  0  0  0
  186.3140  179.3080  145.2680 F   0  0  0  0  0  0  0  0  0  0  0  0
  186.5510  179.0270  143.0280 F   0  0  0  0  0  0  0  0  0  0  0  0
  184.7850  178.1500  144.1010 F   0  0  0  0  0  0  0  0  0  0  0  0
  1 13  1  0  0  0  0
  2  6  1  0  0  0  0
  3  7  1  0  0  0  0
  4  1  1  0  0  0  0
  5  1  1  0  0  0  0
  5  3  1  0  0  0  0
  6  4  1  0  0  0  0
  6 15  1  0  0  0  0
  7 10  1  0  0  0  0
  8  5  1  0  0  0  0
 12 11  1  0  0  0  0
 12  2  1  0  0  0  0
 13  9  1  0  0  0  0
 13 10  1  0  0  0  0
 14  8  1  0  0  0  0
 14  4  1  0  0  0  0
 15 18  1  0  0  0  0
 16 12  1  0  0  0  0
 16 11  1  0  0  0  0
 16 17  1  0  0  0  0
 17 14  1  0  0  0  0
 18  9  1  0  0  0  0
 20 15  1  0  0  0  0
 20 19  2  0  0  0  0
 21 20  1  0  0  0  0
 22 24  1  0  0  0  0
 23 25  2  0  0  0  0
 24 21  2  0  0  0  0
 24 23  1  0  0  0  0
 25 19  1  0  0  0  0
 26 17  1  0  0  0  0
 27 26  1  0  0  0  0
 27 29  1  0  0  0  0
 27 28  1  0  0  0  0
 29 28  1  0  0  0  0
 30 27  1  0  0  0  0
 31 30  1  0  0  0  0
 32 31  1  0  0  0  0
 33  3  1  0  0  0  0
 34 33  1  0  0  0  0
 34 35  1  0  0  0  0
 36 34  1  0  0  0  0
 37 34  1  0  0  0  0
M  END
>  <MODEL>
3

>  <REMARK>
 VINA RESULT:      -7.4      3.668      6.436
  Name = 
  7 active torsions:
  status: ('A' for Active; 'I' for Inactive)
    1  A    between atoms: C_1  and  C_4
    2  A    between atoms: C_1  and  C_27
    3  A    between atoms: C_2  and  O_22
    4  A    between atoms: C_4  and  C_12
    5  A    between atoms: C_6  and  O_22
    6  A    between atoms: C_8  and  C_12
    7  A    between atoms: C_23  and  C_30
                            x       y       z     vdW  Elec       q    Type
                         _______ _______ _______ _____ _____    ______ ____

>  <TORSDO>
F 7

$$$$
=
 OpenBabel11112417323D

 37 43  0  0  1  0  0  0  0  0999 V2000
  186.8020  176.3260  142.8730 C   0  0  1  0  0  3  0  0  0  0  0  0
  188.8330  173.6390  142.9830 O   0  0  0  0  0  0  0  0  0  0  0  0
  185.5640  178.0110  144.4690 C   0  0  2  0  0  3  0  0  0  0  0  0
  188.2120  175.9410  143.1810 C   0  0  2  0  0  3  0  0  0  0  0  0
  186.3340  176.6890  144.2880 C   0  0  2  0  0  3  0  0  0  0  0  0
  188.8160  174.8570  142.2830 C   0  0  2  0  0  3  0  0  0  0  0  0
  185.8420  179.0260  143.3750 C   0  0  0  0  0  2  0  0  0  0  0  0
  187.4290  176.5440  145.1630 O   0  0  0  0  0  0  0  0  0  0  0  0
  186.7560  176.8130  140.5680 C   0  0  0  0  0  2  0  0  0  0  0  0
  185.7350  178.3240  142.0370 C   0  0  0  0  0  2  0  0  0  0  0  0
  191.1630  174.4850  143.6120 C   0  0  0  0  0  2  0  0  0  0  0  0
  190.0880  173.4020  143.6220 C   0  0  1  0  0  3  0  0  0  0  0  0
  186.8640  177.4190  141.8940 N   0  0  1  0  0  0  0  0  0  0  0  0
  188.1900  175.5690  144.5840 N   0  0  2  0  0  0  0  0  0  0  0  0
  188.1470  174.7200  140.9020 C   0  0  1  0  0  3  0  0  0  0  0  0
  190.3260  174.2940  144.8660 C   0  0  2  0  0  3  0  0  0  0  0  0
  189.5680  175.6240  145.0810 C   0  0  2  0  0  3  0  0  0  0  0  0
  188.0360  176.0680  140.1760 C   0  0  0  0  0  2  0  0  0  0  0  0
  188.1640  172.7600  139.3550 C   0  0  0  0  0  3  0  0  0  0  0  0
  188.8850  173.7340  140.0480 C   0  0  0  0  0  0  0  0  0  0  0  0
  190.2820  173.7680  139.9410 C   0  0  0  0  0  3  0  0  0  0  0  0
  192.3460  172.8470  139.0220 N   0  0  0  0  0  1  0  0  0  0  0  0
  190.2060  171.8860  138.4730 N   0  0  0  0  0  0  0  0  0  0  0  0
  190.9300  172.8250  139.1400 C   0  0  0  0  0  0  0  0  0  0  0  0
  188.8490  171.8350  138.5640 C   0  0  0  0  0  3  0  0  0  0  0  0
  189.6210  175.9580  146.5700 C   0  0  0  0  0  2  0  0  0  0  0  0
  191.0470  176.2670  147.0010 C   0  0  0  0  0  0  0  0  0  0  0  0
  191.1820  176.8550  148.3860 C   0  0  0  0  0  2  0  0  0  0  0  0
  191.5800  175.4080  148.1230 C   0  0  0  0  0  2  0  0  0  0  0  0
  192.0960  176.7230  145.9920 C   0  0  0  0  0  2  0  0  0  0  0  0
  193.4710  176.1600  146.3170 C   0  0  0  0  0  2  0  0  0  0  0  0
  194.3310  177.1880  146.7040 O   0  0  0  0  0  1  0  0  0  0  0  0
  185.8130  178.5800  145.7310 O   0  0  0  0  0  0  0  0  0  0  0  0
  184.6770  178.3720  146.5390 C   0  0  0  0  0  0  0  0  0  0  0  0
  184.3810  177.0210  146.6360 F   0  0  0  0  0  0  0  0  0  0  0  0
  184.8680  178.9040  147.8060 F   0  0  0  0  0  0  0  0  0  0  0  0
  183.6000  179.0140  145.9570 F   0  0  0  0  0  0  0  0  0  0  0  0
  1  4  1  0  0  0  0
  1  5  1  0  0  0  0
  2 12  1  0  0  0  0
  3 33  1  0  0  0  0
  4 14  1  0  0  0  0
  5  3  1  0  0  0  0
  5  8  1  0  0  0  0
  6  2  1  0  0  0  0
  6  4  1  0  0  0  0
  7  3  1  0  0  0  0
  9 13  1  0  0  0  0
 10  7  1  0  0  0  0
 11 12  1  0  0  0  0
 11 16  1  0  0  0  0
 12 16  1  0  0  0  0
 13 10  1  0  0  0  0
 13  1  1  0  0  0  0
 14 17  1  0  0  0  0
 14  8  1  0  0  0  0
 15  6  1  0  0  0  0
 16 17  1  0  0  0  0
 17 26  1  0  0  0  0
 18  9  1  0  0  0  0
 18 15  1  0  0  0  0
 19 20  1  0  0  0  0
 20 15  1  0  0  0  0
 21 20  2  0  0  0  0
 22 24  1  0  0  0  0
 23 25  1  0  0  0  0
 23 24  2  0  0  0  0
 24 21  1  0  0  0  0
 25 19  2  0  0  0  0
 26 27  1  0  0  0  0
 27 29  1  0  0  0  0
 27 28  1  0  0  0  0
 29 28  1  0  0  0  0
 30 31  1  0  0  0  0
 30 27  1  0  0  0  0
 31 32  1  0  0  0  0
 33 34  1  0  0  0  0
 34 35  1  0  0  0  0
 34 36  1  0  0  0  0
 37 34  1  0  0  0  0
M  END
>  <MODEL>
4

>  <REMARK>
 VINA RESULT:      -7.2      2.720      5.532
  Name = 
  7 active torsions:
  status: ('A' for Active; 'I' for Inactive)
    1  A    between atoms: C_1  and  C_4
    2  A    between atoms: C_1  and  C_27
    3  A    between atoms: C_2  and  O_22
    4  A    between atoms: C_4  and  C_12
    5  A    between atoms: C_6  and  O_22
    6  A    between atoms: C_8  and  C_12
    7  A    between atoms: C_23  and  C_30
                            x       y       z     vdW  Elec       q    Type
                         _______ _______ _______ _____ _____    ______ ____

>  <TORSDO>
F 7

$$$$
=
 OpenBabel11112417323D

 37 43  0  0  1  0  0  0  0  0999 V2000
  190.4270  174.1740  141.7660 C   0  0  1  0  0  3  0  0  0  0  0  0
  189.6790  177.4160  142.3020 O   0  0  0  0  0  0  0  0  0  0  0  0
  192.4920  172.5470  141.6730 C   0  0  2  0  0  3  0  0  0  0  0  0
  190.3550  175.1890  142.8590 C   0  0  2  0  0  3  0  0  0  0  0  0
  191.9490  173.9890  141.7050 C   0  0  2  0  0  3  0  0  0  0  0  0
  189.1940  176.1820  142.7680 C   0  0  2  0  0  3  0  0  0  0  0  0
  191.5310  171.5260  142.2520 C   0  0  0  0  0  2  0  0  0  0  0  0
  192.5290  174.7930  142.7070 O   0  0  0  0  0  0  0  0  0  0  0  0
  188.2890  173.1870  141.6620 C   0  0  0  0  0  2  0  0  0  0  0  0
  190.1580  171.7760  141.6610 C   0  0  0  0  0  2  0  0  0  0  0  0
  189.9010  177.8310  144.8160 C   0  0  0  0  0  2  0  0  0  0  0  0
  189.9830  178.3130  143.3700 C   0  0  1  0  0  3  0  0  0  0  0  0
  189.6350  173.0180  142.2080 N   0  0  1  0  0  0  0  0  0  0  0  0
  191.6560  175.8340  142.8440 N   0  0  2  0  0  0  0  0  0  0  0  0
  187.9880  175.6890  141.9450 C   0  0  1  0  0  3  0  0  0  0  0  0
  191.2640  177.9320  144.1520 C   0  0  2  0  0  3  0  0  0  0  0  0
  191.8400  176.4970  144.1380 C   0  0  2  0  0  3  0  0  0  0  0  0
  187.5180  174.2960  142.3850 C   0  0  0  0  0  2  0  0  0  0  0  0
  186.4400  177.3200  140.8600 C   0  0  0  0  0  3  0  0  0  0  0  0
  186.8540  176.6650  142.0220 C   0  0  0  0  0  0  0  0  0  0  0  0
  186.2100  176.9370  143.2360 C   0  0  0  0  0  3  0  0  0  0  0  0
  184.5000  178.1450  144.4890 N   0  0  0  0  0  1  0  0  0  0  0  0
  184.7760  178.4850  142.1200 N   0  0  0  0  0  0  0  0  0  0  0  0
  185.1620  177.8590  143.2640 C   0  0  0  0  0  0  0  0  0  0  0  0
  185.3870  178.2360  140.9300 C   0  0  0  0  0  3  0  0  0  0  0  0
  193.3140  176.5800  144.5290 C   0  0  0  0  0  2  0  0  0  0  0  0
  193.5650  175.8490  145.8390 C   0  0  0  0  0  0  0  0  0  0  0  0
  192.8400  176.4170  147.0350 C   0  0  0  0  0  2  0  0  0  0  0  0
  192.3730  175.1120  146.4020 C   0  0  0  0  0  2  0  0  0  0  0  0
  194.9150  175.2040  146.1380 C   0  0  0  0  0  2  0  0  0  0  0  0
  195.1950  174.0310  145.2090 C   0  0  0  0  0  2  0  0  0  0  0  0
  196.1590  174.3870  144.2650 O   0  0  0  0  0  1  0  0  0  0  0  0
  193.7400  172.4560  142.3150 O   0  0  0  0  0  0  0  0  0  0  0  0
  194.7420  172.4080  141.3250 C   0  0  0  0  0  0  0  0  0  0  0  0
  195.8370  171.6800  141.7660 F   0  0  0  0  0  0  0  0  0  0  0  0
  194.2510  171.8540  140.1520 F   0  0  0  0  0  0  0  0  0  0  0  0
  195.1560  173.6980  141.0560 F   0  0  0  0  0  0  0  0  0  0  0  0
  1 13  1  0  0  0  0
  1  4  1  0  0  0  0
  2  6  1  0  0  0  0
  2 12  1  0  0  0  0
  3  5  1  0  0  0  0
  3  7  1  0  0  0  0
  3 33  1  0  0  0  0
  5  1  1  0  0  0  0
  5  8  1  0  0  0  0
  6  4  1  0  0  0  0
  8 14  1  0  0  0  0
  9 13  1  0  0  0  0
  9 18  1  0  0  0  0
 10 13  1  0  0  0  0
 10  7  1  0  0  0  0
 12 16  1  0  0  0  0
 12 11  1  0  0  0  0
 14  4  1  0  0  0  0
 14 17  1  0  0  0  0
 15 20  1  0  0  0  0
 15 18  1  0  0  0  0
 15  6  1  0  0  0  0
 16 11  1  0  0  0  0
 17 16  1  0  0  0  0
 17 26  1  0  0  0  0
 19 25  2  0  0  0  0
 19 20  1  0  0  0  0
 20 21  2  0  0  0  0
 21 24  1  0  0  0  0
 23 24  2  0  0  0  0
 24 22  1  0  0  0  0
 25 23  1  0  0  0  0
 26 27  1  0  0  0  0
 27 30  1  0  0  0  0
 27 29  1  0  0  0  0
 27 28  1  0  0  0  0
 29 28  1  0  0  0  0
 31 30  1  0  0  0  0
 32 31  1  0  0  0  0
 34 35  1  0  0  0  0
 34 33  1  0  0  0  0
 36 34  1  0  0  0  0
 37 34  1  0  0  0  0
M  END
>  <MODEL>
5

>  <REMARK>
 VINA RESULT:      -7.2      3.953      7.083
  Name = 
  7 active torsions:
  status: ('A' for Active; 'I' for Inactive)
    1  A    between atoms: C_1  and  C_4
    2  A    between atoms: C_1  and  C_27
    3  A    between atoms: C_2  and  O_22
    4  A    between atoms: C_4  and  C_12
    5  A    between atoms: C_6  and  O_22
    6  A    between atoms: C_8  and  C_12
    7  A    between atoms: C_23  and  C_30
                            x       y       z     vdW  Elec       q    Type
                         _______ _______ _______ _____ _____    ______ ____

>  <TORSDO>
F 7

$$$$
=
 OpenBabel11112417323D

 37 43  0  0  1  0  0  0  0  0999 V2000
  191.7750  175.3070  142.3870 C   0  0  1  0  0  3  0  0  0  0  0  0
  191.2810  176.9910  145.2640 O   0  0  0  0  0  0  0  0  0  0  0  0
  193.7200  174.4120  140.8590 C   0  0  2  0  0  3  0  0  0  0  0  0
  191.8870  175.1450  143.8680 C   0  0  2  0  0  3  0  0  0  0  0  0
  193.2680  175.3060  142.0290 C   0  0  2  0  0  3  0  0  0  0  0  0
  190.7820  175.8080  144.6940 C   0  0  2  0  0  3  0  0  0  0  0  0
  192.7740  173.2590  140.5770 C   0  0  0  0  0  2  0  0  0  0  0  0
  194.0030  175.1060  143.2140 O   0  0  0  0  0  0  0  0  0  0  0  0
  189.5870  174.6340  141.8290 C   0  0  0  0  0  2  0  0  0  0  0  0
  191.3600  173.8020  140.5450 C   0  0  0  0  0  2  0  0  0  0  0  0
  191.8110  175.3800  147.1780 C   0  0  0  0  0  2  0  0  0  0  0  0
  191.7550  176.7900  146.5950 C   0  0  1  0  0  3  0  0  0  0  0  0
  190.9750  174.1780  141.8960 N   0  0  1  0  0  0  0  0  0  0  0  0
  193.2130  175.6420  144.1900 N   0  0  2  0  0  0  0  0  0  0  0  0
  189.4640  176.0470  143.9310 C   0  0  1  0  0  3  0  0  0  0  0  0
  193.0930  176.0120  146.6630 C   0  0  2  0  0  3  0  0  0  0  0  0
  193.5800  175.1110  145.5060 C   0  0  2  0  0  3  0  0  0  0  0  0
  188.9680  174.7790  143.2230 C   0  0  0  0  0  2  0  0  0  0  0  0
  188.1930  175.9430  146.0780 C   0  0  0  0  0  3  0  0  0  0  0  0
  188.4040  176.5730  144.8500 C   0  0  0  0  0  0  0  0  0  0  0  0
  187.6180  177.6780  144.4960 C   0  0  0  0  0  3  0  0  0  0  0  0
  185.8320  179.2510  145.0340 N   0  0  0  0  0  1  0  0  0  0  0  0
  186.4510  177.5020  146.5710 N   0  0  0  0  0  0  0  0  0  0  0  0
  186.6370  178.1320  145.3800 C   0  0  0  0  0  0  0  0  0  0  0  0
  187.2020  176.4280  146.9350 C   0  0  0  0  0  3  0  0  0  0  0  0
  195.0920  174.9420  145.6470 C   0  0  0  0  0  2  0  0  0  0  0  0
  195.4830  173.4770  145.5300 C   0  0  0  0  0  0  0  0  0  0  0  0
  196.6590  173.2000  144.6250 C   0  0  0  0  0  2  0  0  0  0  0  0
  196.8170  173.1180  146.1380 C   0  0  0  0  0  2  0  0  0  0  0  0
  194.4320  172.3720  145.5950 C   0  0  0  0  0  2  0  0  0  0  0  0
  195.0300  171.0100  145.2750 C   0  0  0  0  0  2  0  0  0  0  0  0
  194.5670  170.0580  146.1830 O   0  0  0  0  0  1  0  0  0  0  0  0
  195.0260  173.9290  141.0590 O   0  0  0  0  0  0  0  0  0  0  0  0
  195.8600  174.4930  140.0730 C   0  0  0  0  0  0  0  0  0  0  0  0
  197.1850  174.1460  140.2900 F   0  0  0  0  0  0  0  0  0  0  0  0
  195.4700  174.0890  138.8050 F   0  0  0  0  0  0  0  0  0  0  0  0
  195.7530  175.8690  140.1420 F   0  0  0  0  0  0  0  0  0  0  0  0
  1  4  1  0  0  0  0
  2 12  1  0  0  0  0
  3 33  1  0  0  0  0
  3  5  1  0  0  0  0
  4 14  1  0  0  0  0
  4  6  1  0  0  0  0
  5  1  1  0  0  0  0
  5  8  1  0  0  0  0
  6  2  1  0  0  0  0
  7  3  1  0  0  0  0
  8 14  1  0  0  0  0
  9 13  1  0  0  0  0
  9 18  1  0  0  0  0
 10  7  1  0  0  0  0
 10 13  1  0  0  0  0
 12 16  1  0  0  0  0
 12 11  1  0  0  0  0
 13  1  1  0  0  0  0
 14 17  1  0  0  0  0
 15  6  1  0  0  0  0
 15 20  1  0  0  0  0
 16 11  1  0  0  0  0
 17 26  1  0  0  0  0
 17 16  1  0  0  0  0
 18 15  1  0  0  0  0
 19 25  1  0  0  0  0
 20 19  2  0  0  0  0
 21 20  1  0  0  0  0
 21 24  2  0  0  0  0
 22 24  1  0  0  0  0
 23 25  2  0  0  0  0
 24 23  1  0  0  0  0
 27 30  1  0  0  0  0
 27 26  1  0  0  0  0
 27 29  1  0  0  0  0
 28 27  1  0  0  0  0
 28 29  1  0  0  0  0
 31 30  1  0  0  0  0
 31 32  1  0  0  0  0
 34 37  1  0  0  0  0
 34 35  1  0  0  0  0
 34 33  1  0  0  0  0
 36 34  1  0  0  0  0
M  END
>  <MODEL>
6

>  <REMARK>
 VINA RESULT:      -6.9      4.314      8.249
  Name = 
  7 active torsions:
  status: ('A' for Active; 'I' for Inactive)
    1  A    between atoms: C_1  and  C_4
    2  A    between atoms: C_1  and  C_27
    3  A    between atoms: C_2  and  O_22
    4  A    between atoms: C_4  and  C_12
    5  A    between atoms: C_6  and  O_22
    6  A    between atoms: C_8  and  C_12
    7  A    between atoms: C_23  and  C_30
                            x       y       z     vdW  Elec       q    Type
                         _______ _______ _______ _____ _____    ______ ____

>  <TORSDO>
F 7

$$$$
=
 OpenBabel11112417323D

 37 43  0  0  1  0  0  0  0  0999 V2000
  191.4870  174.7020  145.3800 C   0  0  1  0  0  3  0  0  0  0  0  0
  188.5610  174.4310  143.7290 O   0  0  0  0  0  0  0  0  0  0  0  0
  193.8470  173.5530  145.5460 C   0  0  2  0  0  3  0  0  0  0  0  0
  190.8830  174.9230  144.0320 C   0  0  2  0  0  3  0  0  0  0  0  0
  192.3890  173.5060  145.0500 C   0  0  2  0  0  3  0  0  0  0  0  0
  189.4550  175.4740  144.0260 C   0  0  2  0  0  3  0  0  0  0  0  0
  194.3540  174.9610  145.7990 C   0  0  0  0  0  2  0  0  0  0  0  0
  192.2650  173.2290  143.6740 O   0  0  0  0  0  0  0  0  0  0  0  0
  191.2040  176.7270  146.5530 C   0  0  0  0  0  2  0  0  0  0  0  0
  193.3100  175.7050  146.6060 C   0  0  0  0  0  2  0  0  0  0  0  0
  188.9570  175.2950  141.3550 C   0  0  0  0  0  2  0  0  0  0  0  0
  188.2380  174.3770  142.3400 C   0  0  1  0  0  3  0  0  0  0  0  0
  192.1560  175.9540  145.7560 N   0  0  1  0  0  0  0  0  0  0  0  0
  190.9990  173.6380  143.3650 N   0  0  2  0  0  0  0  0  0  0  0  0
  189.0520  176.2320  145.3060 C   0  0  1  0  0  3  0  0  0  0  0  0
  189.3930  173.8430  141.4560 C   0  0  2  0  0  3  0  0  0  0  0  0
  190.8660  173.8700  141.9240 C   0  0  2  0  0  3  0  0  0  0  0  0
  190.0780  177.3060  145.6890 C   0  0  0  0  0  2  0  0  0  0  0  0
  186.7170  176.5810  146.1180 C   0  0  0  0  0  3  0  0  0  0  0  0
  187.6940  176.8460  145.1560 C   0  0  0  0  0  0  0  0  0  0  0  0
  187.3850  177.6720  144.0670 C   0  0  0  0  0  3  0  0  0  0  0  0
  185.7770  179.0570  142.8640 N   0  0  0  0  0  1  0  0  0  0  0  0
  185.1690  177.9460  144.9130 N   0  0  0  0  0  0  0  0  0  0  0  0
  186.1040  178.2180  143.9630 C   0  0  0  0  0  0  0  0  0  0  0  0
  185.4470  177.1460  145.9790 C   0  0  0  0  0  3  0  0  0  0  0  0
  191.6360  172.8330  141.1090 C   0  0  0  0  0  2  0  0  0  0  0  0
  192.4660  173.5080  140.0270 C   0  0  0  0  0  0  0  0  0  0  0  0
  192.9650  172.5870  138.9390 C   0  0  0  0  0  2  0  0  0  0  0  0
  191.8230  173.5570  138.6620 C   0  0  0  0  0  2  0  0  0  0  0  0
  193.3730  174.6910  140.3510 C   0  0  0  0  0  2  0  0  0  0  0  0
  194.5260  174.2830  141.2560 C   0  0  0  0  0  2  0  0  0  0  0  0
  194.6680  175.2030  142.2950 O   0  0  0  0  0  1  0  0  0  0  0  0
  194.7100  172.8790  144.6640 O   0  0  0  0  0  0  0  0  0  0  0  0
  195.2990  171.8030  145.3590 C   0  0  0  0  0  0  0  0  0  0  0  0
  194.3680  171.1700  146.1680 F   0  0  0  0  0  0  0  0  0  0  0  0
  195.8540  170.8890  144.4760 F   0  0  0  0  0  0  0  0  0  0  0  0
  196.3090  172.3000  146.1610 F   0  0  0  0  0  0  0  0  0  0  0  0
  1 13  1  0  0  0  0
  2  6  1  0  0  0  0
  3  7  1  0  0  0  0
  4  1  1  0  0  0  0
  5  1  1  0  0  0  0
  5  3  1  0  0  0  0
  6  4  1  0  0  0  0
  6 15  1  0  0  0  0
  7 10  1  0  0  0  0
  8  5  1  0  0  0  0
 11 16  1  0  0  0  0
 11 12  1  0  0  0  0
 12  2  1  0  0  0  0
 13  9  1  0  0  0  0
 13 10  1  0  0  0  0
 14  8  1  0  0  0  0
 14  4  1  0  0  0  0
 15 18  1  0  0  0  0
 16 17  1  0  0  0  0
 16 12  1  0  0  0  0
 17 14  1  0  0  0  0
 18  9  1  0  0  0  0
 20 15  1  0  0  0  0
 20 19  2  0  0  0  0
 21 20  1  0  0  0  0
 22 24  1  0  0  0  0
 23 25  2  0  0  0  0
 24 21  2  0  0  0  0
 24 23  1  0  0  0  0
 25 19  1  0  0  0  0
 26 17  1  0  0  0  0
 27 30  1  0  0  0  0
 27 26  1  0  0  0  0
 28 27  1  0  0  0  0
 29 28  1  0  0  0  0
 29 27  1  0  0  0  0
 30 31  1  0  0  0  0
 31 32  1  0  0  0  0
 33 34  1  0  0  0  0
 33  3  1  0  0  0  0
 34 37  1  0  0  0  0
 34 35  1  0  0  0  0
 36 34  1  0  0  0  0
M  END
>  <MODEL>
7

>  <REMARK>
 VINA RESULT:      -6.8      3.387      7.014
  Name = 
  7 active torsions:
  status: ('A' for Active; 'I' for Inactive)
    1  A    between atoms: C_1  and  C_4
    2  A    between atoms: C_1  and  C_27
    3  A    between atoms: C_2  and  O_22
    4  A    between atoms: C_4  and  C_12
    5  A    between atoms: C_6  and  O_22
    6  A    between atoms: C_8  and  C_12
    7  A    between atoms: C_23  and  C_30
                            x       y       z     vdW  Elec       q    Type
                         _______ _______ _______ _____ _____    ______ ____

>  <TORSDO>
F 7

$$$$
=
 OpenBabel11112417323D

 37 43  0  0  1  0  0  0  0  0999 V2000
  190.9010  175.1260  145.6450 C   0  0  1  0  0  3  0  0  0  0  0  0
  188.0270  175.1750  143.8860 O   0  0  0  0  0  0  0  0  0  0  0  0
  193.2690  173.9790  145.6480 C   0  0  2  0  0  3  0  0  0  0  0  0
  190.3330  175.6090  144.3500 C   0  0  2  0  0  3  0  0  0  0  0  0
  191.8260  174.0250  145.1090 C   0  0  2  0  0  3  0  0  0  0  0  0
  188.9000  176.1420  144.4110 C   0  0  2  0  0  3  0  0  0  0  0  0
  193.7530  175.3110  146.1920 C   0  0  0  0  0  2  0  0  0  0  0  0
  191.7440  174.0280  143.7020 O   0  0  0  0  0  0  0  0  0  0  0  0
  190.5630  176.8740  147.1880 C   0  0  0  0  0  2  0  0  0  0  0  0
  192.6780  175.8730  147.0990 C   0  0  0  0  0  2  0  0  0  0  0  0
  188.4800  176.4990  141.7450 C   0  0  0  0  0  2  0  0  0  0  0  0
  187.7430  175.3990  142.5040 C   0  0  1  0  0  3  0  0  0  0  0  0
  191.5460  176.2810  146.2830 N   0  0  1  0  0  0  0  0  0  0  0  0
  190.4830  174.4840  143.4440 N   0  0  2  0  0  0  0  0  0  0  0  0
  188.4530  176.6270  145.8040 C   0  0  1  0  0  3  0  0  0  0  0  0
  188.9290  175.0580  141.5670 C   0  0  2  0  0  3  0  0  0  0  0  0
  190.3870  174.9990  142.0750 C   0  0  2  0  0  3  0  0  0  0  0  0
  189.4560  177.6080  146.4250 C   0  0  0  0  0  2  0  0  0  0  0  0
  186.0900  176.7890  146.5950 C   0  0  0  0  0  3  0  0  0  0  0  0
  187.0930  177.2520  145.7400 C   0  0  0  0  0  0  0  0  0  0  0  0
  186.8080  178.2830  144.8340 C   0  0  0  0  0  3  0  0  0  0  0  0
  185.2210  179.8770  143.8890 N   0  0  0  0  0  1  0  0  0  0  0  0
  184.5640  178.3650  145.6460 N   0  0  0  0  0  0  0  0  0  0  0  0
  185.5250  178.8310  144.8030 C   0  0  0  0  0  0  0  0  0  0  0  0
  184.8190  177.3650  146.5330 C   0  0  0  0  0  3  0  0  0  0  0  0
  191.1920  174.1490  141.0930 C   0  0  0  0  0  2  0  0  0  0  0  0
  190.3770  172.9540  140.6230 C   0  0  0  0  0  0  0  0  0  0  0  0
  189.6690  173.1420  139.3030 C   0  0  0  0  0  2  0  0  0  0  0  0
  190.9070  172.2580  139.3930 C   0  0  0  0  0  2  0  0  0  0  0  0
  189.6700  172.0400  141.6200 C   0  0  0  0  0  2  0  0  0  0  0  0
  190.4530  170.7570  141.8590 C   0  0  0  0  0  2  0  0  0  0  0  0
  191.3680  170.9400  142.8960 O   0  0  0  0  0  1  0  0  0  0  0  0
  194.1640  173.5000  144.6750 O   0  0  0  0  0  0  0  0  0  0  0  0
  194.9430  172.4800  145.2580 C   0  0  0  0  0  0  0  0  0  0  0  0
  196.0380  173.0130  145.9200 F   0  0  0  0  0  0  0  0  0  0  0  0
  194.1850  171.7220  146.1380 F   0  0  0  0  0  0  0  0  0  0  0  0
  195.4020  171.6500  144.2530 F   0  0  0  0  0  0  0  0  0  0  0  0
  1 13  1  0  0  0  0
  2  6  1  0  0  0  0
  3  7  1  0  0  0  0
  4  6  1  0  0  0  0
  4  1  1  0  0  0  0
  5  1  1  0  0  0  0
  5  3  1  0  0  0  0
  6 15  1  0  0  0  0
  7 10  1  0  0  0  0
  8  5  1  0  0  0  0
 11 12  1  0  0  0  0
 12  2  1  0  0  0  0
 13 10  1  0  0  0  0
 13  9  1  0  0  0  0
 14  8  1  0  0  0  0
 14  4  1  0  0  0  0
 15 18  1  0  0  0  0
 16 11  1  0  0  0  0
 16 17  1  0  0  0  0
 16 12  1  0  0  0  0
 17 14  1  0  0  0  0
 18  9  1  0  0  0  0
 20 15  1  0  0  0  0
 20 19  2  0  0  0  0
 21 20  1  0  0  0  0
 22 24  1  0  0  0  0
 23 25  2  0  0  0  0
 24 21  2  0  0  0  0
 24 23  1  0  0  0  0
 25 19  1  0  0  0  0
 26 17  1  0  0  0  0
 27 26  1  0  0  0  0
 27 30  1  0  0  0  0
 28 29  1  0  0  0  0
 28 27  1  0  0  0  0
 29 27  1  0  0  0  0
 30 31  1  0  0  0  0
 31 32  1  0  0  0  0
 33 34  1  0  0  0  0
 33  3  1  0  0  0  0
 34 35  1  0  0  0  0
 34 36  1  0  0  0  0
 37 34  1  0  0  0  0
M  END
>  <MODEL>
8

>  <REMARK>
 VINA RESULT:      -6.8      3.147      6.731
  Name = 
  7 active torsions:
  status: ('A' for Active; 'I' for Inactive)
    1  A    between atoms: C_1  and  C_4
    2  A    between atoms: C_1  and  C_27
    3  A    between atoms: C_2  and  O_22
    4  A    between atoms: C_4  and  C_12
    5  A    between atoms: C_6  and  O_22
    6  A    between atoms: C_8  and  C_12
    7  A    between atoms: C_23  and  C_30
                            x       y       z     vdW  Elec       q    Type
                         _______ _______ _______ _____ _____    ______ ____

>  <TORSDO>
F 7

$$$$
=
 OpenBabel11112417323D

 37 43  0  0  1  0  0  0  0  0999 V2000
  191.6150  175.2030  144.4340 C   0  0  1  0  0  3  0  0  0  0  0  0
  188.4580  174.7660  143.3370 O   0  0  0  0  0  0  0  0  0  0  0  0
  193.8410  173.8560  144.8230 C   0  0  2  0  0  3  0  0  0  0  0  0
  190.8370  174.9660  143.1800 C   0  0  2  0  0  3  0  0  0  0  0  0
  192.3270  173.8480  144.5370 C   0  0  2  0  0  3  0  0  0  0  0  0
  189.4900  175.6870  143.0890 C   0  0  2  0  0  3  0  0  0  0  0  0
  194.5240  175.1510  144.4230 C   0  0  0  0  0  2  0  0  0  0  0  0
  191.9650  173.0740  143.4160 O   0  0  0  0  0  0  0  0  0  0  0  0
  191.7270  177.5430  144.6910 C   0  0  0  0  0  2  0  0  0  0  0  0
  193.6990  176.3070  144.9510 C   0  0  0  0  0  2  0  0  0  0  0  0
  188.5700  174.5520  140.7920 C   0  0  0  0  0  2  0  0  0  0  0  0
  187.9200  174.2210  142.1330 C   0  0  1  0  0  3  0  0  0  0  0  0
  192.4600  176.3790  144.1930 N   0  0  1  0  0  0  0  0  0  0  0  0
  190.7160  173.5220  143.0930 N   0  0  2  0  0  0  0  0  0  0  0  0
  189.3690  176.9410  143.9770 C   0  0  1  0  0  3  0  0  0  0  0  0
  188.8640  173.2080  141.4380 C   0  0  2  0  0  3  0  0  0  0  0  0
  190.3860  173.1850  141.7050 C   0  0  2  0  0  3  0  0  0  0  0  0
  190.5480  177.9040  143.7810 C   0  0  0  0  0  2  0  0  0  0  0  0
  187.7320  177.9950  142.4130 C   0  0  0  0  0  3  0  0  0  0  0  0
  188.0750  177.6520  143.7230 C   0  0  0  0  0  0  0  0  0  0  0  0
  187.2090  177.9830  144.7740 C   0  0  0  0  0  3  0  0  0  0  0  0
  185.1280  178.9940  145.5480 N   0  0  0  0  0  1  0  0  0  0  0  0
  185.7030  178.9750  143.2090 N   0  0  0  0  0  0  0  0  0  0  0  0
  186.0160  178.6510  144.4930 C   0  0  0  0  0  0  0  0  0  0  0  0
  186.5290  178.6630  142.1740 C   0  0  0  0  0  3  0  0  0  0  0  0
  190.9100  171.8040  141.3170 C   0  0  0  0  0  2  0  0  0  0  0  0
  191.6610  171.8650  139.9960 C   0  0  0  0  0  0  0  0  0  0  0  0
  192.2590  173.2110  139.6630 C   0  0  0  0  0  2  0  0  0  0  0  0
  193.1530  172.0630  140.1130 C   0  0  0  0  0  2  0  0  0  0  0  0
  191.2190  171.0310  138.7970 C   0  0  0  0  0  2  0  0  0  0  0  0
  189.7040  171.0130  138.6540 C   0  0  0  0  0  2  0  0  0  0  0  0
  189.2640  172.1990  138.0670 O   0  0  0  0  0  1  0  0  0  0  0  0
  194.4830  172.7630  144.2160 O   0  0  0  0  0  0  0  0  0  0  0  0
  195.1300  172.0170  145.2220 C   0  0  0  0  0  0  0  0  0  0  0  0
  195.7510  170.8990  144.6870 F   0  0  0  0  0  0  0  0  0  0  0  0
  196.0610  172.7970  145.8920 F   0  0  0  0  0  0  0  0  0  0  0  0
  194.1810  171.5950  146.1340 F   0  0  0  0  0  0  0  0  0  0  0  0
  1  5  1  0  0  0  0
  4  1  1  0  0  0  0
  5  3  1  0  0  0  0
  6  4  1  0  0  0  0
  6  2  1  0  0  0  0
  6 15  1  0  0  0  0
  7  3  1  0  0  0  0
  7 10  1  0  0  0  0
  8  5  1  0  0  0  0
 11 16  1  0  0  0  0
 11 12  1  0  0  0  0
 12  2  1  0  0  0  0
 13  1  1  0  0  0  0
 13  9  1  0  0  0  0
 13 10  1  0  0  0  0
 14  4  1  0  0  0  0
 14  8  1  0  0  0  0
 16 17  1  0  0  0  0
 16 12  1  0  0  0  0
 17 14  1  0  0  0  0
 18 15  1  0  0  0  0
 18  9  1  0  0  0  0
 19 20  1  0  0  0  0
 20 15  1  0  0  0  0
 20 21  2  0  0  0  0
 23 24  2  0  0  0  0
 24 21  1  0  0  0  0
 24 22  1  0  0  0  0
 25 19  2  0  0  0  0
 25 23  1  0  0  0  0
 26 17  1  0  0  0  0
 27 29  1  0  0  0  0
 27 26  1  0  0  0  0
 28 27  1  0  0  0  0
 28 29  1  0  0  0  0
 30 27  1  0  0  0  0
 31 30  1  0  0  0  0
 32 31  1  0  0  0  0
 33  3  1  0  0  0  0
 33 34  1  0  0  0  0
 34 36  1  0  0  0  0
 34 37  1  0  0  0  0
 35 34  1  0  0  0  0
M  END
>  <MODEL>
9

>  <REMARK>
 VINA RESULT:      -6.7      3.429      7.017
  Name = 
  7 active torsions:
  status: ('A' for Active; 'I' for Inactive)
    1  A    between atoms: C_1  and  C_4
    2  A    between atoms: C_1  and  C_27
    3  A    between atoms: C_2  and  O_22
    4  A    between atoms: C_4  and  C_12
    5  A    between atoms: C_6  and  O_22
    6  A    between atoms: C_8  and  C_12
    7  A    between atoms: C_23  and  C_30
                            x       y       z     vdW  Elec       q    Type
                         _______ _______ _______ _____ _____    ______ ____

>  <TORSDO>
F 7

$$$$
