=
 OpenBabel11112416443D

 32 37  0  0  1  0  0  0  0  0999 V2000
  187.9350  176.2630  141.5040 C   0  0  1  0  0  3  0  0  0  0  0  0
  191.5460  178.0450  144.2590 C   0  0  0  0  0  3  0  0  0  0  0  0
  192.1440  176.7840  144.2640 C   0  0  0  0  0  3  0  0  0  0  0  0
  188.2650  174.0450  140.2900 C   0  0  2  0  0  3  0  0  0  0  0  0
  188.7670  172.7520  140.7940 N   0  0  2  0  0  0  0  0  0  0  0  0
  185.9530  177.3380  141.3510 C   0  0  2  0  0  3  0  0  0  0  0  0
  187.8910  178.6160  142.3140 O   0  0  0  0  0  0  0  0  0  0  0  0
  190.2330  171.7990  142.4600 C   0  0  2  0  0  3  0  0  0  0  0  0
  190.4300  178.2540  143.5130 N   0  0  0  0  0  0  0  0  0  0  0  0
  188.7030  177.5340  141.8740 C   0  0  1  0  0  3  0  0  0  0  0  0
  189.8740  177.2540  142.7790 C   0  0  0  0  0  0  0  0  0  0  0  0
  189.8610  174.8300  142.0250 C   0  0  2  0  0  3  0  0  0  0  0  0
  188.8550  171.8970  143.0630 C   0  0  0  0  0  2  0  0  0  0  0  0
  186.5200  178.2660  142.4670 C   0  0  2  0  0  3  0  0  0  0  0  0
  187.9440  172.3430  141.9320 C   0  0  0  0  0  2  0  0  0  0  0  0
  191.6060  175.7840  143.5180 N   0  0  0  0  0  0  0  0  0  0  0  0
  190.5020  175.9900  142.7510 C   0  0  0  0  0  0  0  0  0  0  0  0
  190.8030  173.9630  141.4630 O   0  0  0  0  0  0  0  0  0  0  0  0
  186.9320  176.6370  140.6060 O   0  0  0  0  0  0  0  0  0  0  0  0
  188.4090  174.1000  138.7820 C   0  0  0  0  0  1  0  0  0  0  0  0
  191.1970  172.2140  143.3810 O   0  0  0  0  0  1  0  0  0  0  0  0
  188.9280  175.2740  140.9150 C   0  0  2  0  0  3  0  0  0  0  0  0
  190.1830  172.7020  141.2370 C   0  0  2  0  0  3  0  0  0  0  0  0
  187.0720  178.3610  144.8450 C   0  0  0  0  0  2  0  0  0  0  0  0
  186.2730  177.6670  143.8430 C   0  0  1  0  0  3  0  0  0  0  0  0
  185.6440  178.6800  144.7050 N   0  0  0  0  0  0  0  0  0  0  0  0
  184.9450  177.9530  145.7510 C   0  0  0  0  0  2  0  0  0  0  0  0
  185.5410  178.2770  147.0810 C   0  0  0  0  0  0  0  0  0  0  0  0
  186.0970  177.1860  147.9290 C   0  0  0  0  0  1  0  0  0  0  0  0
  185.5600  179.4290  147.4830 O   0  0  0  0  0  0  0  0  0  0  0  0
  183.8110  178.3090  140.9570 O   0  0  0  0  0  1  0  0  0  0  0  0
  185.0860  178.1550  140.4120 C   0  0  0  0  0  2  0  0  0  0  0  0
  1 19  1  6  0  0  0
  1 10  1  0  0  0  0
  2  3  1  0  0  0  0
  4 20  1  6  0  0  0
  4  5  1  0  0  0  0
  4 22  1  0  0  0  0
  5 23  1  0  0  0  0
  5 15  1  1  0  0  0
  6 32  1  6  0  0  0
  6 14  1  0  0  0  0
  8 13  1  0  0  0  0
  8 21  1  1  0  0  0
  9  2  2  0  0  0  0
 10  7  1  1  0  0  0
 10 11  1  0  0  0  0
 11  9  1  0  0  0  0
 12 18  1  6  0  0  0
 12 17  1  0  0  0  0
 14  7  1  6  0  0  0
 14 25  1  0  0  0  0
 15 13  1  0  0  0  0
 16  3  2  0  0  0  0
 17 11  2  0  0  0  0
 17 16  1  0  0  0  0
 19  6  1  0  0  0  0
 22  1  1  0  0  0  0
 22 12  1  0  0  0  0
 23 18  1  0  0  0  0
 23  8  1  0  0  0  0
 25 26  1  0  0  0  0
 25 24  1  0  0  0  0
 26 24  1  0  0  0  0
 26 27  1  0  0  0  0
 27 28  1  0  0  0  0
 28 30  2  0  0  0  0
 28 29  1  0  0  0  0
 32 31  1  0  0  0  0
M  END
>  <MODEL>
1

>  <REMARK>
 VINA RESULT:      -7.1      0.000      0.000
  Name = 
  4 active torsions:
  status: ('A' for Active; 'I' for Inactive)
    1  A    between atoms: C_7  and  C_19
    2  A    between atoms: C_10  and  C_17
    3  A    between atoms: N_20  and  C_29
    4  A    between atoms: C_29  and  C_30
                            x       y       z     vdW  Elec       q    Type
                         _______ _______ _______ _____ _____    ______ ____

>  <TORSDO>
F 4

$$$$
=
 OpenBabel11112416443D

 32 37  0  0  1  0  0  0  0  0999 V2000
  190.9830  175.5880  142.9560 C   0  0  1  0  0  3  0  0  0  0  0  0
  194.3870  176.7830  146.2420 C   0  0  0  0  0  3  0  0  0  0  0  0
  194.9290  175.5020  146.1240 C   0  0  0  0  0  3  0  0  0  0  0  0
  191.3360  173.5400  141.4790 C   0  0  2  0  0  3  0  0  0  0  0  0
  191.7330  172.1650  141.8400 N   0  0  2  0  0  0  0  0  0  0  0  0
  189.0710  176.7800  142.7810 C   0  0  2  0  0  3  0  0  0  0  0  0
  190.9600  177.8090  144.0800 O   0  0  0  0  0  0  0  0  0  0  0  0
  192.9930  170.9180  143.4790 C   0  0  2  0  0  3  0  0  0  0  0  0
  193.3570  177.1510  145.4360 N   0  0  0  0  0  0  0  0  0  0  0  0
  191.7650  176.7540  143.5670 C   0  0  1  0  0  3  0  0  0  0  0  0
  192.8320  176.2910  144.5230 C   0  0  0  0  0  0  0  0  0  0  0  0
  192.7910  173.9950  143.4410 C   0  0  2  0  0  3  0  0  0  0  0  0
  191.5690  171.0080  143.9660 C   0  0  0  0  0  2  0  0  0  0  0  0
  189.5680  177.5160  144.0600 C   0  0  2  0  0  3  0  0  0  0  0  0
  190.7890  171.6520  142.8320 C   0  0  0  0  0  2  0  0  0  0  0  0
  194.4240  174.6430  145.2000 N   0  0  0  0  0  0  0  0  0  0  0  0
  193.4070  175.0100  144.3750 C   0  0  0  0  0  0  0  0  0  0  0  0
  193.7450  173.1630  142.8490 O   0  0  0  0  0  0  0  0  0  0  0  0
  190.0870  176.1340  142.0340 O   0  0  0  0  0  0  0  0  0  0  0  0
  191.6240  173.7900  140.0120 C   0  0  0  0  0  1  0  0  0  0  0  0
  193.8820  171.1520  144.5310 O   0  0  0  0  0  1  0  0  0  0  0  0
  191.9860  174.6350  142.3260 C   0  0  2  0  0  3  0  0  0  0  0  0
  193.0980  171.9790  142.3950 C   0  0  2  0  0  3  0  0  0  0  0  0
  189.5790  177.4820  146.5040 C   0  0  0  0  0  2  0  0  0  0  0  0
  189.1660  176.7510  145.3130 C   0  0  1  0  0  3  0  0  0  0  0  0
  188.1780  177.5390  146.0640 N   0  0  0  0  0  0  0  0  0  0  0  0
  187.4400  176.5970  146.8870 C   0  0  0  0  0  2  0  0  0  0  0  0
  186.1130  177.1740  147.2580 C   0  0  0  0  0  0  0  0  0  0  0  0
  185.0010  177.1690  146.2680 C   0  0  0  0  0  1  0  0  0  0  0  0
  185.9430  177.6640  148.3620 O   0  0  0  0  0  0  0  0  0  0  0  0
  187.2180  178.2640  142.5640 O   0  0  0  0  0  1  0  0  0  0  0  0
  188.3320  177.7620  141.8920 C   0  0  0  0  0  2  0  0  0  0  0  0
  1 19  1  6  0  0  0
  1 10  1  0  0  0  0
  3  2  1  0  0  0  0
  4 20  1  6  0  0  0
  4  5  1  0  0  0  0
  4 22  1  0  0  0  0
  5 23  1  0  0  0  0
  5 15  1  1  0  0  0
  6 32  1  6  0  0  0
  6 14  1  0  0  0  0
  8 13  1  0  0  0  0
  8 21  1  1  0  0  0
  9  2  2  0  0  0  0
 10  7  1  1  0  0  0
 10 11  1  0  0  0  0
 11  9  1  0  0  0  0
 12 18  1  6  0  0  0
 12 17  1  0  0  0  0
 14  7  1  6  0  0  0
 14 25  1  0  0  0  0
 15 13  1  0  0  0  0
 16  3  2  0  0  0  0
 17 11  2  0  0  0  0
 17 16  1  0  0  0  0
 19  6  1  0  0  0  0
 22  1  1  0  0  0  0
 22 12  1  0  0  0  0
 23 18  1  0  0  0  0
 23  8  1  0  0  0  0
 25 26  1  0  0  0  0
 25 24  1  0  0  0  0
 26 24  1  0  0  0  0
 26 27  1  0  0  0  0
 27 28  1  0  0  0  0
 28 30  2  0  0  0  0
 29 28  1  0  0  0  0
 32 31  1  0  0  0  0
M  END
>  <MODEL>
2

>  <REMARK>
 VINA RESULT:      -7.0      2.347      3.276
  Name = 
  4 active torsions:
  status: ('A' for Active; 'I' for Inactive)
    1  A    between atoms: C_7  and  C_19
    2  A    between atoms: C_10  and  C_17
    3  A    between atoms: N_20  and  C_29
    4  A    between atoms: C_29  and  C_30
                            x       y       z     vdW  Elec       q    Type
                         _______ _______ _______ _____ _____    ______ ____

>  <TORSDO>
F 4

$$$$
=
 OpenBabel11112416443D

 32 37  0  0  1  0  0  0  0  0999 V2000
  191.6780  175.3560  144.9150 C   0  0  1  0  0  3  0  0  0  0  0  0
  189.5340  171.5410  142.7570 C   0  0  0  0  0  3  0  0  0  0  0  0
  190.7090  171.3030  142.0440 C   0  0  0  0  0  3  0  0  0  0  0  0
  194.2180  175.5700  144.8400 C   0  0  2  0  0  3  0  0  0  0  0  0
  195.1470  175.4580  143.6990 N   0  0  2  0  0  0  0  0  0  0  0  0
  190.4470  176.9680  145.9120 C   0  0  2  0  0  3  0  0  0  0  0  0
  189.2890  174.8090  145.3510 O   0  0  0  0  0  0  0  0  0  0  0  0
  195.4010  174.3850  141.5510 C   0  0  2  0  0  3  0  0  0  0  0  0
  189.5070  172.5220  143.6970 N   0  0  0  0  0  0  0  0  0  0  0  0
  190.5850  174.2950  145.0680 C   0  0  1  0  0  3  0  0  0  0  0  0
  190.6020  173.2880  143.9490 C   0  0  0  0  0  0  0  0  0  0  0  0
  193.0090  173.9100  143.4400 C   0  0  2  0  0  3  0  0  0  0  0  0
  194.7290  175.7150  141.3220 C   0  0  0  0  0  2  0  0  0  0  0  0
  189.2220  176.2290  145.2950 C   0  0  2  0  0  3  0  0  0  0  0  0
  194.7420  176.4160  142.6710 C   0  0  0  0  0  2  0  0  0  0  0  0
  191.8130  172.0500  142.3030 N   0  0  0  0  0  0  0  0  0  0  0  0
  191.8030  173.0190  143.2570 C   0  0  0  0  0  0  0  0  0  0  0  0
  194.2140  173.2080  143.3420 O   0  0  0  0  0  0  0  0  0  0  0  0
  191.6140  176.1750  146.0440 O   0  0  0  0  0  0  0  0  0  0  0  0
  194.9670  175.3420  146.1380 C   0  0  0  0  0  1  0  0  0  0  0  0
  194.7850  173.3920  140.7860 O   0  0  0  0  0  1  0  0  0  0  0  0
  193.0090  174.6350  144.7720 C   0  0  2  0  0  3  0  0  0  0  0  0
  195.2560  174.1300  143.0430 C   0  0  2  0  0  3  0  0  0  0  0  0
  187.9640  175.8570  143.2340 C   0  0  0  0  0  2  0  0  0  0  0  0
  188.9730  176.6960  143.8690 C   0  0  1  0  0  3  0  0  0  0  0  0
  187.5890  177.1800  143.7530 N   0  0  0  0  0  0  0  0  0  0  0  0
  187.5640  178.0870  142.6180 C   0  0  0  0  0  2  0  0  0  0  0  0
  186.1970  178.6650  142.4580 C   0  0  0  0  0  0  0  0  0  0  0  0
  185.5730  179.4160  143.5820 C   0  0  0  0  0  1  0  0  0  0  0  0
  185.5830  178.5100  141.4150 O   0  0  0  0  0  0  0  0  0  0  0  0
  191.0060  177.1660  148.2210 O   0  0  0  0  0  1  0  0  0  0  0  0
  190.0610  177.5370  147.2640 C   0  0  0  0  0  2  0  0  0  0  0  0
  1 10  1  0  0  0  0
  1 19  1  1  0  0  0
  2  9  1  0  0  0  0
  3 16  1  0  0  0  0
  3  2  2  0  0  0  0
  4 20  1  1  0  0  0
  5 15  1  6  0  0  0
  5  4  1  0  0  0  0
  6 19  1  0  0  0  0
  6 32  1  1  0  0  0
  8 21  1  6  0  0  0
  8 23  1  0  0  0  0
  9 11  2  0  0  0  0
 10 11  1  6  0  0  0
 10  7  1  0  0  0  0
 12 17  1  1  0  0  0
 12 22  1  0  0  0  0
 13  8  1  0  0  0  0
 13 15  1  0  0  0  0
 14  7  1  6  0  0  0
 14  6  1  0  0  0  0
 16 17  2  0  0  0  0
 17 11  1  0  0  0  0
 18 12  1  0  0  0  0
 22  4  1  0  0  0  0
 22  1  1  0  0  0  0
 23 18  1  0  0  0  0
 23  5  1  0  0  0  0
 24 26  1  0  0  0  0
 24 25  1  0  0  0  0
 25 14  1  0  0  0  0
 26 25  1  0  0  0  0
 27 26  1  0  0  0  0
 28 27  1  0  0  0  0
 28 29  1  0  0  0  0
 30 28  2  0  0  0  0
 32 31  1  0  0  0  0
M  END
>  <MODEL>
3

>  <REMARK>
 VINA RESULT:      -6.8      3.074      5.945
  Name = 
  4 active torsions:
  status: ('A' for Active; 'I' for Inactive)
    1  A    between atoms: C_7  and  C_19
    2  A    between atoms: C_10  and  C_17
    3  A    between atoms: N_20  and  C_29
    4  A    between atoms: C_29  and  C_30
                            x       y       z     vdW  Elec       q    Type
                         _______ _______ _______ _____ _____    ______ ____

>  <TORSDO>
F 4

$$$$
=
 OpenBabel11112416443D

 32 37  0  0  1  0  0  0  0  0999 V2000
  193.2380  174.4440  144.7500 C   0  0  1  0  0  3  0  0  0  0  0  0
  191.5110  171.8070  141.0260 C   0  0  0  0  0  3  0  0  0  0  0  0
  192.7200  171.9910  140.3540 C   0  0  0  0  0  3  0  0  0  0  0  0
  195.7480  174.8550  144.9330 C   0  0  2  0  0  3  0  0  0  0  0  0
  196.7110  175.3200  143.9160 N   0  0  2  0  0  0  0  0  0  0  0  0
  191.8390  175.3650  146.2670 C   0  0  2  0  0  3  0  0  0  0  0  0
  190.9000  173.5890  144.7570 O   0  0  0  0  0  0  0  0  0  0  0  0
  197.1160  175.3130  141.5360 C   0  0  2  0  0  3  0  0  0  0  0  0
  191.3700  172.2750  142.2940 N   0  0  0  0  0  0  0  0  0  0  0  0
  192.2450  173.3460  144.3610 C   0  0  1  0  0  3  0  0  0  0  0  0
  192.3830  172.9330  142.9200 C   0  0  0  0  0  0  0  0  0  0  0  0
  194.7340  173.8890  142.8810 C   0  0  2  0  0  3  0  0  0  0  0  0
  196.3290  176.5560  141.8630 C   0  0  0  0  0  2  0  0  0  0  0  0
  190.7030  174.8820  145.3160 C   0  0  2  0  0  3  0  0  0  0  0  0
  196.2440  176.5980  143.3800 C   0  0  0  0  0  2  0  0  0  0  0  0
  193.7440  172.6290  140.9800 N   0  0  0  0  0  0  0  0  0  0  0  0
  193.6200  173.0810  142.2560 C   0  0  0  0  0  0  0  0  0  0  0  0
  196.0000  173.3890  142.5640 O   0  0  0  0  0  0  0  0  0  0  0  0
  193.0710  174.6820  146.1160 O   0  0  0  0  0  0  0  0  0  0  0  0
  196.4840  174.1390  146.0490 C   0  0  0  0  0  1  0  0  0  0  0  0
  196.6140  174.7100  140.3800 O   0  0  0  0  0  1  0  0  0  0  0  0
  194.6330  173.9570  144.3930 C   0  0  2  0  0  3  0  0  0  0  0  0
  196.9590  174.4230  142.7590 C   0  0  2  0  0  3  0  0  0  0  0  0
  189.4780  175.3840  143.2630 C   0  0  0  0  0  2  0  0  0  0  0  0
  190.4470  175.9050  144.2190 C   0  0  1  0  0  3  0  0  0  0  0  0
  189.0450  176.3450  144.2870 N   0  0  0  0  0  0  0  0  0  0  0  0
  188.9920  177.6480  143.6470 C   0  0  0  0  0  2  0  0  0  0  0  0
  187.5720  178.0380  143.4020 C   0  0  0  0  0  0  0  0  0  0  0  0
  186.6480  178.2370  144.5530 C   0  0  0  0  0  1  0  0  0  0  0  0
  187.1610  178.1780  142.2610 O   0  0  0  0  0  0  0  0  0  0  0  0
  190.0030  174.9820  147.7380 O   0  0  0  0  0  1  0  0  0  0  0  0
  191.3700  175.2580  147.7050 C   0  0  0  0  0  2  0  0  0  0  0  0
  1 19  1  1  0  0  0
  2  9  1  0  0  0  0
  3 16  1  0  0  0  0
  3  2  2  0  0  0  0
  4 20  1  1  0  0  0
  5 15  1  6  0  0  0
  5  4  1  0  0  0  0
  6 32  1  1  0  0  0
  8 21  1  6  0  0  0
  8 13  1  0  0  0  0
  8 23  1  0  0  0  0
  9 11  2  0  0  0  0
 10 11  1  6  0  0  0
 10  1  1  0  0  0  0
 10  7  1  0  0  0  0
 12 17  1  1  0  0  0
 12 22  1  0  0  0  0
 13 15  1  0  0  0  0
 14  7  1  6  0  0  0
 14  6  1  0  0  0  0
 16 17  2  0  0  0  0
 17 11  1  0  0  0  0
 18 23  1  0  0  0  0
 18 12  1  0  0  0  0
 19  6  1  0  0  0  0
 22  1  1  0  0  0  0
 22  4  1  0  0  0  0
 23  5  1  0  0  0  0
 24 25  1  0  0  0  0
 24 26  1  0  0  0  0
 25 26  1  0  0  0  0
 25 14  1  0  0  0  0
 27 26  1  0  0  0  0
 28 27  1  0  0  0  0
 28 29  1  0  0  0  0
 30 28  2  0  0  0  0
 32 31  1  0  0  0  0
M  END
>  <MODEL>
4

>  <REMARK>
 VINA RESULT:      -6.5      3.703      6.881
  Name = 
  4 active torsions:
  status: ('A' for Active; 'I' for Inactive)
    1  A    between atoms: C_7  and  C_19
    2  A    between atoms: C_10  and  C_17
    3  A    between atoms: N_20  and  C_29
    4  A    between atoms: C_29  and  C_30
                            x       y       z     vdW  Elec       q    Type
                         _______ _______ _______ _____ _____    ______ ____

>  <TORSDO>
F 4

$$$$
=
 OpenBabel11112416443D

 32 37  0  0  1  0  0  0  0  0999 V2000
  190.4620  174.1790  143.4420 C   0  0  1  0  0  3  0  0  0  0  0  0
  190.9570  176.6450  147.6230 C   0  0  0  0  0  3  0  0  0  0  0  0
  189.8110  177.3770  147.3090 C   0  0  0  0  0  3  0  0  0  0  0  0
  188.2290  174.2390  142.2120 C   0  0  2  0  0  3  0  0  0  0  0  0
  187.3740  175.3860  141.8510 N   0  0  2  0  0  0  0  0  0  0  0  0
  192.2040  173.0500  142.5480 C   0  0  2  0  0  3  0  0  0  0  0  0
  192.4100  173.7870  144.9410 O   0  0  0  0  0  0  0  0  0  0  0  0
  186.7840  177.6170  142.5620 C   0  0  2  0  0  3  0  0  0  0  0  0
  191.3450  175.6270  146.8110 N   0  0  0  0  0  0  0  0  0  0  0  0
  191.0280  174.1140  144.8630 C   0  0  1  0  0  3  0  0  0  0  0  0
  190.6450  175.3130  145.6880 C   0  0  0  0  0  0  0  0  0  0  0  0
  188.7130  175.7710  144.1070 C   0  0  2  0  0  3  0  0  0  0  0  0
  187.9430  177.7330  141.6060 C   0  0  0  0  0  2  0  0  0  0  0  0
  193.0470  173.7250  143.6700 C   0  0  2  0  0  3  0  0  0  0  0  0
  188.1670  176.3300  141.0640 C   0  0  0  0  0  2  0  0  0  0  0  0
  189.0950  177.0580  146.2000 N   0  0  0  0  0  0  0  0  0  0  0  0
  189.4620  176.0270  145.3940 C   0  0  0  0  0  0  0  0  0  0  0  0
  187.3310  175.9290  144.2520 O   0  0  0  0  0  0  0  0  0  0  0  0
  190.8120  172.9850  142.8070 O   0  0  0  0  0  0  0  0  0  0  0  0
  187.4070  172.9660  142.2140 C   0  0  0  0  0  1  0  0  0  0  0  0
  186.9720  178.4610  143.6590 O   0  0  0  0  0  1  0  0  0  0  0  0
  188.9590  174.3830  143.5480 C   0  0  2  0  0  3  0  0  0  0  0  0
  186.7610  176.1510  142.9660 C   0  0  2  0  0  3  0  0  0  0  0  0
  194.1490  175.7960  144.3540 C   0  0  0  0  0  2  0  0  0  0  0  0
  193.5120  175.1070  143.2380 C   0  0  1  0  0  3  0  0  0  0  0  0
  194.9800  175.1690  143.3150 N   0  0  0  0  0  0  0  0  0  0  0  0
  195.3950  176.2280  142.4120 C   0  0  0  0  0  2  0  0  0  0  0  0
  196.8850  176.2700  142.3270 C   0  0  0  0  0  0  0  0  0  0  0  0
  197.5850  175.5470  141.2290 C   0  0  0  0  0  1  0  0  0  0  0  0
  197.5310  176.8810  143.1620 O   0  0  0  0  0  0  0  0  0  0  0  0
  192.1440  170.7480  143.1640 O   0  0  0  0  0  1  0  0  0  0  0  0
  192.7390  171.6550  142.2880 C   0  0  0  0  0  2  0  0  0  0  0  0
  1 19  1  1  0  0  0
  1 22  1  0  0  0  0
  1 10  1  0  0  0  0
  3  2  1  0  0  0  0
  4 20  1  1  0  0  0
  4 22  1  0  0  0  0
  5 15  1  1  0  0  0
  5  4  1  0  0  0  0
  5 23  1  0  0  0  0
  6 32  1  1  0  0  0
  6 19  1  0  0  0  0
  6 14  1  0  0  0  0
  8 23  1  0  0  0  0
  8 21  1  1  0  0  0
  9  2  2  0  0  0  0
 10  7  1  6  0  0  0
 10 11  1  0  0  0  0
 11  9  1  0  0  0  0
 12 18  1  1  0  0  0
 12 17  1  0  0  0  0
 13  8  1  0  0  0  0
 14  7  1  1  0  0  0
 15 13  1  0  0  0  0
 16  3  2  0  0  0  0
 17 11  2  0  0  0  0
 17 16  1  0  0  0  0
 22 12  1  0  0  0  0
 23 18  1  0  0  0  0
 25 26  1  0  0  0  0
 25 14  1  0  0  0  0
 25 24  1  0  0  0  0
 26 24  1  0  0  0  0
 27 26  1  0  0  0  0
 28 27  1  0  0  0  0
 28 30  2  0  0  0  0
 29 28  1  0  0  0  0
 32 31  1  0  0  0  0
M  END
>  <MODEL>
5

>  <REMARK>
 VINA RESULT:      -6.5      3.095      7.203
  Name = 
  4 active torsions:
  status: ('A' for Active; 'I' for Inactive)
    1  A    between atoms: C_7  and  C_19
    2  A    between atoms: C_10  and  C_17
    3  A    between atoms: N_20  and  C_29
    4  A    between atoms: C_29  and  C_30
                            x       y       z     vdW  Elec       q    Type
                         _______ _______ _______ _____ _____    ______ ____

>  <TORSDO>
F 4

$$$$
=
 OpenBabel11112416443D

 32 37  0  0  1  0  0  0  0  0999 V2000
  192.6700  175.4500  142.9390 C   0  0  1  0  0  3  0  0  0  0  0  0
  190.1440  171.4090  141.8930 C   0  0  0  0  0  3  0  0  0  0  0  0
  189.3090  171.6670  142.9810 C   0  0  0  0  0  3  0  0  0  0  0  0
  191.6440  177.2010  144.4840 C   0  0  2  0  0  3  0  0  0  0  0  0
  190.9960  177.0430  145.8010 N   0  0  2  0  0  0  0  0  0  0  0  0
  194.7600  175.7530  142.1350 C   0  0  2  0  0  3  0  0  0  0  0  0
  193.3670  173.9440  141.0840 O   0  0  0  0  0  0  0  0  0  0  0  0
  189.7310  175.4660  147.1210 C   0  0  2  0  0  3  0  0  0  0  0  0
  191.1040  172.3100  141.5570 N   0  0  0  0  0  0  0  0  0  0  0  0
  192.2750  174.4890  141.8160 C   0  0  1  0  0  3  0  0  0  0  0  0
  191.2790  173.4540  142.2690 C   0  0  0  0  0  0  0  0  0  0  0  0
  190.6320  174.9470  144.2180 C   0  0  2  0  0  3  0  0  0  0  0  0
  191.1920  175.2510  147.4250 C   0  0  0  0  0  2  0  0  0  0  0  0
  194.6360  174.2850  141.6310 C   0  0  2  0  0  3  0  0  0  0  0  0
  191.9280  176.3670  146.7020 C   0  0  0  0  0  2  0  0  0  0  0  0
  189.4640  172.8180  143.6860 N   0  0  0  0  0  0  0  0  0  0  0  0
  190.4080  173.7350  143.3450 C   0  0  0  0  0  0  0  0  0  0  0  0
  189.4360  175.4960  144.6900 O   0  0  0  0  0  0  0  0  0  0  0  0
  193.5250  176.4030  142.3810 O   0  0  0  0  0  0  0  0  0  0  0  0
  191.2130  178.5100  143.8520 C   0  0  0  0  0  1  0  0  0  0  0  0
  189.0810  174.2400  146.9670 O   0  0  0  0  0  1  0  0  0  0  0  0
  191.3930  176.0500  143.5070 C   0  0  2  0  0  3  0  0  0  0  0  0
  189.7200  176.2850  145.8400 C   0  0  2  0  0  3  0  0  0  0  0  0
  195.4540  172.0390  142.1410 C   0  0  0  0  0  2  0  0  0  0  0  0
  195.0260  173.3040  142.7260 C   0  0  1  0  0  3  0  0  0  0  0  0
  196.4600  172.9990  142.6140 N   0  0  0  0  0  0  0  0  0  0  0  0
  196.8890  172.5480  143.9270 C   0  0  0  0  0  2  0  0  0  0  0  0
  197.3420  173.7130  144.7440 C   0  0  0  0  0  0  0  0  0  0  0  0
  197.0500  173.7520  146.2030 C   0  0  0  0  0  1  0  0  0  0  0  0
  197.9360  174.6390  144.2170 O   0  0  0  0  0  0  0  0  0  0  0  0
  196.8820  176.0890  141.1030 O   0  0  0  0  0  1  0  0  0  0  0  0
  195.5700  176.5600  141.1390 C   0  0  0  0  0  2  0  0  0  0  0  0
  1 19  1  6  0  0  0
  1 22  1  0  0  0  0
  2  3  1  0  0  0  0
  3 16  2  0  0  0  0
  4 20  1  6  0  0  0
  4  5  1  0  0  0  0
  5 23  1  0  0  0  0
  5 15  1  1  0  0  0
  6 32  1  6  0  0  0
  6 19  1  0  0  0  0
  8 21  1  6  0  0  0
  8 13  1  0  0  0  0
  9  2  2  0  0  0  0
  9 11  1  0  0  0  0
 10  7  1  1  0  0  0
 10 11  1  0  0  0  0
 10  1  1  0  0  0  0
 11 17  2  0  0  0  0
 12 17  1  6  0  0  0
 12 18  1  0  0  0  0
 14  7  1  1  0  0  0
 14  6  1  0  0  0  0
 14 25  1  0  0  0  0
 15 13  1  0  0  0  0
 17 16  1  0  0  0  0
 18 23  1  0  0  0  0
 22 12  1  0  0  0  0
 22  4  1  0  0  0  0
 23  8  1  0  0  0  0
 24 26  1  0  0  0  0
 24 25  1  0  0  0  0
 26 25  1  0  0  0  0
 26 27  1  0  0  0  0
 27 28  1  0  0  0  0
 28 29  1  0  0  0  0
 30 28  2  0  0  0  0
 31 32  1  0  0  0  0
M  END
>  <MODEL>
6

>  <REMARK>
 VINA RESULT:      -6.4      3.942      8.192
  Name = 
  4 active torsions:
  status: ('A' for Active; 'I' for Inactive)
    1  A    between atoms: C_7  and  C_19
    2  A    between atoms: C_10  and  C_17
    3  A    between atoms: N_20  and  C_29
    4  A    between atoms: C_29  and  C_30
                            x       y       z     vdW  Elec       q    Type
                         _______ _______ _______ _____ _____    ______ ____

>  <TORSDO>
F 4

$$$$
=
 OpenBabel11112416443D

 32 37  0  0  1  0  0  0  0  0999 V2000
  192.1170  174.1050  144.1440 C   0  0  1  0  0  3  0  0  0  0  0  0
  193.1210  169.3310  144.0490 C   0  0  0  0  0  3  0  0  0  0  0  0
  194.4540  169.6200  144.3430 C   0  0  0  0  0  3  0  0  0  0  0  0
  193.7680  175.7080  145.2420 C   0  0  2  0  0  3  0  0  0  0  0  0
  195.2290  175.8310  145.0720 N   0  0  2  0  0  0  0  0  0  0  0  0
  190.2500  174.9170  143.1640 C   0  0  2  0  0  3  0  0  0  0  0  0
  190.3690  172.4360  143.5460 O   0  0  0  0  0  0  0  0  0  0  0  0
  197.1950  174.5410  144.5250 C   0  0  2  0  0  3  0  0  0  0  0  0
  192.2070  170.3360  144.0210 N   0  0  0  0  0  0  0  0  0  0  0  0
  191.5230  172.7070  144.3330 C   0  0  1  0  0  3  0  0  0  0  0  0
  192.5680  171.6250  144.2610 C   0  0  0  0  0  0  0  0  0  0  0  0
  194.3650  173.3410  144.7780 C   0  0  2  0  0  3  0  0  0  0  0  0
  196.6470  175.1080  143.2400 C   0  0  0  0  0  2  0  0  0  0  0  0
  190.0670  173.4700  142.6170 C   0  0  2  0  0  3  0  0  0  0  0  0
  195.5180  176.0380  143.6540 C   0  0  0  0  0  2  0  0  0  0  0  0
  194.8190  170.9030  144.6040 N   0  0  0  0  0  0  0  0  0  0  0  0
  193.9080  171.9120  144.6000 C   0  0  0  0  0  0  0  0  0  0  0  0
  195.3640  173.4670  145.7480 O   0  0  0  0  0  0  0  0  0  0  0  0
  191.0740  175.0190  144.3120 O   0  0  0  0  0  0  0  0  0  0  0  0
  193.3490  176.3350  146.5570 C   0  0  0  0  0  1  0  0  0  0  0  0
  197.5680  173.2070  144.3460 O   0  0  0  0  0  1  0  0  0  0  0  0
  193.2340  174.2770  145.1610 C   0  0  2  0  0  3  0  0  0  0  0  0
  196.0610  174.6890  145.5270 C   0  0  2  0  0  3  0  0  0  0  0  0
  190.6560  171.9280  140.8160 C   0  0  0  0  0  2  0  0  0  0  0  0
  190.8530  173.2780  141.3290 C   0  0  1  0  0  3  0  0  0  0  0  0
  189.9150  173.0480  140.2200 N   0  0  0  0  0  0  0  0  0  0  0  0
  190.6180  173.4180  139.0030 C   0  0  0  0  0  2  0  0  0  0  0  0
  189.6370  173.7890  137.9400 C   0  0  0  0  0  0  0  0  0  0  0  0
  188.1920  173.9110  138.2770 C   0  0  0  0  0  1  0  0  0  0  0  0
  190.0130  173.9750  136.7950 O   0  0  0  0  0  0  0  0  0  0  0  0
  187.9210  174.9200  142.6540 O   0  0  0  0  0  1  0  0  0  0  0  0
  188.8890  175.5180  143.4600 C   0  0  0  0  0  2  0  0  0  0  0  0
  1 19  1  1  0  0  0
  1 10  1  0  0  0  0
  1 22  1  0  0  0  0
  2  3  1  0  0  0  0
  3 16  2  0  0  0  0
  4 20  1  1  0  0  0
  5 15  1  6  0  0  0
  5  4  1  0  0  0  0
  5 23  1  0  0  0  0
  6 32  1  1  0  0  0
  6 19  1  0  0  0  0
  8 21  1  6  0  0  0
  8 23  1  0  0  0  0
  9  2  2  0  0  0  0
  9 11  1  0  0  0  0
 10  7  1  6  0  0  0
 11 10  1  0  0  0  0
 11 17  2  0  0  0  0
 12 17  1  1  0  0  0
 12 22  1  0  0  0  0
 12 18  1  0  0  0  0
 13 15  1  0  0  0  0
 13  8  1  0  0  0  0
 14  6  1  0  0  0  0
 14  7  1  1  0  0  0
 17 16  1  0  0  0  0
 22  4  1  0  0  0  0
 23 18  1  0  0  0  0
 24 25  1  0  0  0  0
 25 14  1  0  0  0  0
 26 24  1  0  0  0  0
 26 25  1  0  0  0  0
 27 26  1  0  0  0  0
 28 29  1  0  0  0  0
 28 27  1  0  0  0  0
 30 28  2  0  0  0  0
 31 32  1  0  0  0  0
M  END
>  <MODEL>
7

>  <REMARK>
 VINA RESULT:      -6.2      3.809      7.679
  Name = 
  4 active torsions:
  status: ('A' for Active; 'I' for Inactive)
    1  A    between atoms: C_7  and  C_19
    2  A    between atoms: C_10  and  C_17
    3  A    between atoms: N_20  and  C_29
    4  A    between atoms: C_29  and  C_30
                            x       y       z     vdW  Elec       q    Type
                         _______ _______ _______ _____ _____    ______ ____

>  <TORSDO>
F 4

$$$$
=
 OpenBabel11112416443D

 32 37  0  0  1  0  0  0  0  0999 V2000
  191.3010  172.7150  142.7330 C   0  0  1  0  0  3  0  0  0  0  0  0
  187.9430  176.1380  143.6400 C   0  0  0  0  0  3  0  0  0  0  0  0
  187.4460  175.9720  142.3470 C   0  0  0  0  0  3  0  0  0  0  0  0
  190.9850  171.1500  140.7450 C   0  0  2  0  0  3  0  0  0  0  0  0
  190.6480  171.4540  139.3410 N   0  0  2  0  0  0  0  0  0  0  0  0
  193.1620  172.5500  144.0040 C   0  0  2  0  0  3  0  0  0  0  0  0
  191.2710  173.9440  144.8970 O   0  0  0  0  0  0  0  0  0  0  0  0
  189.4790  173.0620  137.9700 C   0  0  2  0  0  3  0  0  0  0  0  0
  188.9380  175.3260  144.0850 N   0  0  0  0  0  0  0  0  0  0  0  0
  190.4930  173.4010  143.8380 C   0  0  1  0  0  3  0  0  0  0  0  0
  189.4700  174.3600  143.2900 C   0  0  0  0  0  0  0  0  0  0  0  0
  189.5670  173.1670  141.0510 C   0  0  2  0  0  3  0  0  0  0  0  0
  190.9110  173.5170  138.0910 C   0  0  0  0  0  2  0  0  0  0  0  0
  192.6720  173.8760  144.6590 C   0  0  2  0  0  3  0  0  0  0  0  0
  191.6360  172.3960  138.8170 C   0  0  0  0  0  2  0  0  0  0  0  0
  187.9580  174.9960  141.5520 N   0  0  0  0  0  0  0  0  0  0  0  0
  188.9380  174.1640  141.9960 C   0  0  0  0  0  0  0  0  0  0  0  0
  188.6280  172.5600  140.2120 O   0  0  0  0  0  0  0  0  0  0  0  0
  192.1510  171.7990  143.3560 O   0  0  0  0  0  0  0  0  0  0  0  0
  190.6490  169.7040  141.0530 C   0  0  0  0  0  1  0  0  0  0  0  0
  188.6110  174.1450  138.1190 O   0  0  0  0  0  1  0  0  0  0  0  0
  190.3170  172.0640  141.7740 C   0  0  2  0  0  3  0  0  0  0  0  0
  189.3070  172.0330  139.0760 C   0  0  2  0  0  3  0  0  0  0  0  0
  192.9910  176.2990  144.6370 C   0  0  0  0  0  2  0  0  0  0  0  0
  193.1350  175.0800  143.8510 C   0  0  1  0  0  3  0  0  0  0  0  0
  194.3140  175.6730  144.5010 N   0  0  0  0  0  0  0  0  0  0  0  0
  195.0250  176.4090  143.4690 C   0  0  0  0  0  2  0  0  0  0  0  0
  196.4910  176.1460  143.5730 C   0  0  0  0  0  0  0  0  0  0  0  0
  196.9750  174.9080  144.2440 C   0  0  0  0  0  1  0  0  0  0  0  0
  197.2930  176.9490  143.1260 O   0  0  0  0  0  0  0  0  0  0  0  0
  194.8040  172.4410  145.7280 O   0  0  0  0  0  1  0  0  0  0  0  0
  193.8400  171.6920  145.0540 C   0  0  0  0  0  2  0  0  0  0  0  0
  1 19  1  1  0  0  0
  1 10  1  0  0  0  0
  2  9  1  0  0  0  0
  3  2  2  0  0  0  0
  4 20  1  1  0  0  0
  4 22  1  0  0  0  0
  5 15  1  1  0  0  0
  5  4  1  0  0  0  0
  6 14  1  0  0  0  0
  6 32  1  1  0  0  0
  8 13  1  0  0  0  0
  8 21  1  1  0  0  0
  8 23  1  0  0  0  0
 10 11  1  6  0  0  0
 10  7  1  0  0  0  0
 11  9  2  0  0  0  0
 12 18  1  1  0  0  0
 12 22  1  0  0  0  0
 12 17  1  0  0  0  0
 13 15  1  0  0  0  0
 14  7  1  6  0  0  0
 16 17  2  0  0  0  0
 16  3  1  0  0  0  0
 17 11  1  0  0  0  0
 19  6  1  0  0  0  0
 22  1  1  0  0  0  0
 23  5  1  0  0  0  0
 23 18  1  0  0  0  0
 25 26  1  0  0  0  0
 25 24  1  0  0  0  0
 25 14  1  0  0  0  0
 26 24  1  0  0  0  0
 27 28  1  0  0  0  0
 27 26  1  0  0  0  0
 28 29  1  0  0  0  0
 30 28  2  0  0  0  0
 32 31  1  0  0  0  0
M  END
>  <MODEL>
8

>  <REMARK>
 VINA RESULT:      -6.1      3.389      7.114
  Name = 
  4 active torsions:
  status: ('A' for Active; 'I' for Inactive)
    1  A    between atoms: C_7  and  C_19
    2  A    between atoms: C_10  and  C_17
    3  A    between atoms: N_20  and  C_29
    4  A    between atoms: C_29  and  C_30
                            x       y       z     vdW  Elec       q    Type
                         _______ _______ _______ _____ _____    ______ ____

>  <TORSDO>
F 4

$$$$
=
 OpenBabel11112416443D

 32 37  0  0  1  0  0  0  0  0999 V2000
  192.0420  175.6010  143.3170 C   0  0  1  0  0  3  0  0  0  0  0  0
  189.1410  172.3860  141.0680 C   0  0  0  0  0  3  0  0  0  0  0  0
  188.0310  173.0120  141.6370 C   0  0  0  0  0  3  0  0  0  0  0  0
  191.0400  177.7550  144.2430 C   0  0  2  0  0  3  0  0  0  0  0  0
  189.8470  177.9620  145.0870 N   0  0  2  0  0  0  0  0  0  0  0  0
  194.2410  175.1710  143.6130 C   0  0  2  0  0  3  0  0  0  0  0  0
  192.9930  173.7360  141.9700 O   0  0  0  0  0  0  0  0  0  0  0  0
  187.6890  177.0060  145.5980 C   0  0  2  0  0  3  0  0  0  0  0  0
  190.3790  172.9140  141.2580 N   0  0  0  0  0  0  0  0  0  0  0  0
  191.9250  174.6650  142.1120 C   0  0  1  0  0  3  0  0  0  0  0  0
  190.5610  174.0360  142.0040 C   0  0  0  0  0  0  0  0  0  0  0  0
  189.6050  175.8850  143.4570 C   0  0  2  0  0  3  0  0  0  0  0  0
  188.6920  176.4100  146.5520 C   0  0  0  0  0  2  0  0  0  0  0  0
  193.9020  173.7530  143.0640 C   0  0  2  0  0  3  0  0  0  0  0  0
  189.9900  177.1600  146.3020 C   0  0  0  0  0  2  0  0  0  0  0  0
  188.2020  174.1450  142.3670 N   0  0  0  0  0  0  0  0  0  0  0  0
  189.4340  174.6930  142.5440 C   0  0  0  0  0  0  0  0  0  0  0  0
  188.5710  176.8160  143.3200 O   0  0  0  0  0  0  0  0  0  0  0  0
  193.3110  176.1810  143.2630 O   0  0  0  0  0  0  0  0  0  0  0  0
  191.3900  179.0430  143.5240 C   0  0  0  0  0  1  0  0  0  0  0  0
  186.8300  176.0170  145.1140 O   0  0  0  0  0  1  0  0  0  0  0  0
  190.9140  176.6170  143.2290 C   0  0  2  0  0  3  0  0  0  0  0  0
  188.5290  177.6250  144.4910 C   0  0  2  0  0  3  0  0  0  0  0  0
  193.1470  171.5080  143.6660 C   0  0  0  0  0  2  0  0  0  0  0  0
  193.4090  172.8460  144.1820 C   0  0  1  0  0  3  0  0  0  0  0  0
  194.3910  171.7740  144.4030 N   0  0  0  0  0  0  0  0  0  0  0  0
  194.1860  171.3010  145.7610 C   0  0  0  0  0  2  0  0  0  0  0  0
  195.1130  170.1680  146.0520 C   0  0  0  0  0  0  0  0  0  0  0  0
  194.5740  168.7870  146.1930 C   0  0  0  0  0  1  0  0  0  0  0  0
  196.3080  170.3720  146.1900 O   0  0  0  0  0  0  0  0  0  0  0  0
  196.0750  176.6700  143.8800 O   0  0  0  0  0  1  0  0  0  0  0  0
  195.6270  175.5710  143.1470 C   0  0  0  0  0  2  0  0  0  0  0  0
  1 19  1  6  0  0  0
  2  9  2  0  0  0  0
  2  3  1  0  0  0  0
  3 16  2  0  0  0  0
  4 20  1  6  0  0  0
  4  5  1  0  0  0  0
  5 15  1  1  0  0  0
  6 32  1  6  0  0  0
  8 21  1  6  0  0  0
  8 13  1  0  0  0  0
  9 11  1  0  0  0  0
 10  7  1  1  0  0  0
 10  1  1  0  0  0  0
 11 10  1  0  0  0  0
 11 17  2  0  0  0  0
 12 17  1  6  0  0  0
 14  7  1  6  0  0  0
 14  6  1  0  0  0  0
 14 25  1  0  0  0  0
 15 13  1  0  0  0  0
 16 17  1  0  0  0  0
 18 12  1  0  0  0  0
 18 23  1  0  0  0  0
 19  6  1  0  0  0  0
 22  1  1  0  0  0  0
 22 12  1  0  0  0  0
 22  4  1  0  0  0  0
 23  5  1  0  0  0  0
 23  8  1  0  0  0  0
 24 25  1  0  0  0  0
 24 26  1  0  0  0  0
 25 26  1  0  0  0  0
 26 27  1  0  0  0  0
 27 28  1  0  0  0  0
 28 30  2  0  0  0  0
 28 29  1  0  0  0  0
 32 31  1  0  0  0  0
M  END
>  <MODEL>
9

>  <REMARK>
 VINA RESULT:      -6.1      3.343      7.927
  Name = 
  4 active torsions:
  status: ('A' for Active; 'I' for Inactive)
    1  A    between atoms: C_7  and  C_19
    2  A    between atoms: C_10  and  C_17
    3  A    between atoms: N_20  and  C_29
    4  A    between atoms: C_29  and  C_30
                            x       y       z     vdW  Elec       q    Type
                         _______ _______ _______ _____ _____    ______ ____

>  <TORSDO>
F 4

$$$$
