=
 OpenBabel11112417523D

 34 41  0  0  1  0  0  0  0  0999 V2000
  190.1550  175.4790  142.3890 C   0  0  2  0  0  3  0  0  0  0  0  0
  192.3540  174.2270  142.0490 C   0  0  0  0  0  2  0  0  0  0  0  0
  185.4270  178.5720  146.2810 C   0  0  0  0  0  0  0  0  0  0  0  0
  187.8280  176.0600  143.2200 C   0  0  0  0  0  0  0  0  0  0  0  0
  187.4760  177.1560  145.3630 C   0  0  0  0  0  0  0  0  0  0  0  0
  186.9380  178.4450  147.6350 C   0  0  0  0  0  2  0  0  0  0  0  0
  185.6590  179.0870  147.6630 C   0  0  0  0  0  2  0  0  0  0  0  0
  184.6100  177.9600  144.0820 C   0  0  0  0  0  3  0  0  0  0  0  0
  191.9060  175.1890  144.1520 C   0  0  0  0  0  0  0  0  0  0  0  0
  194.1090  175.6610  146.3460 C   0  0  0  0  0  2  0  0  0  0  0  0
  188.8040  176.6040  145.8370 C   0  0  0  0  0  3  0  0  0  0  0  0
  185.6360  177.2410  143.5980 C   0  0  0  0  0  3  0  0  0  0  0  0
  191.1760  175.8820  145.0590 C   0  0  0  0  0  0  0  0  0  0  0  0
  193.6750  174.3870  142.8010 C   0  0  0  0  0  2  0  0  0  0  0  0
  186.9730  176.8420  144.1410 C   0  0  0  0  0  0  0  0  0  0  0  0
  184.4710  178.6250  145.3830 C   0  0  0  0  0  3  0  0  0  0  0  0
  194.2380  175.7890  144.8450 C   0  0  2  0  0  3  0  0  0  0  0  0
  189.2550  175.8890  143.5220 C   0  0  0  0  0  0  0  0  0  0  0  0
  186.7410  177.9360  146.2960 N   0  0  0  0  0  0  0  0  0  0  0  0
  189.7440  176.1630  144.7410 C   0  0  0  0  0  0  0  0  0  0  0  0
  188.1480  174.6920  141.2780 C   0  0  0  0  0  3  0  0  0  0  0  0
  192.9160  176.3820  146.8780 C   0  0  0  0  0  3  0  0  0  0  0  0
  187.3380  175.4990  142.1520 N   0  0  0  0  0  2  0  0  0  0  0  0
  191.6940  176.4390  146.3370 C   0  0  0  0  0  3  0  0  0  0  0  0
  193.3190  174.7340  144.2510 C   0  0  1  0  0  3  0  0  0  0  0  0
  189.4420  174.6410  141.4210 N   0  0  0  0  0  0  0  0  0  0  0  0
  191.3380  174.8020  142.9080 N   0  0  0  0  0  0  0  0  0  0  0  0
  195.5670  175.5360  144.4930 O   0  0  0  0  0  0  0  0  0  0  0  0
  196.0710  176.7730  144.0860 C   0  0  0  0  0  2  0  0  0  0  0  0
  197.2300  174.5440  141.8930 N   0  0  0  0  0  0  0  0  0  0  0  0
  196.3690  176.6750  141.6100 C   0  0  0  0  0  2  0  0  0  0  0  0
  197.0730  176.5770  142.9630 C   0  0  2  0  0  3  0  0  0  0  0  0
  196.5320  175.3790  141.0640 O   0  0  0  0  0  0  0  0  0  0  0  0
  197.5570  175.1660  142.9700 C   0  0  0  0  0  3  0  0  0  0  0  0
  1 26  1  6  0  0  0
  1 27  1  0  0  0  0
  1 18  1  0  0  0  0
  2 14  1  0  0  0  0
  2 27  1  0  0  0  0
  3 19  1  0  0  0  0
  3  7  1  0  0  0  0
  4 18  2  0  0  0  0
  4 15  1  0  0  0  0
  5 11  1  0  0  0  0
  5 19  1  0  0  0  0
  6  7  1  0  0  0  0
  8 16  1  0  0  0  0
  9 25  1  0  0  0  0
  9 13  2  0  0  0  0
 10 22  1  0  0  0  0
 12  8  2  0  0  0  0
 12 15  1  0  0  0  0
 13 24  1  0  0  0  0
 15  5  2  0  0  0  0
 16  3  2  0  0  0  0
 17 28  1  1  0  0  0
 17 10  1  0  0  0  0
 18 20  1  0  0  0  0
 19  6  1  0  0  0  0
 20 13  1  0  0  0  0
 20 11  2  0  0  0  0
 21 26  2  0  0  0  0
 21 23  1  0  0  0  0
 23  4  1  0  0  0  0
 24 22  2  0  0  0  0
 25 14  1  6  0  0  0
 25 17  1  0  0  0  0
 27  9  1  0  0  0  0
 29 28  1  0  0  0  0
 30 34  2  0  0  0  0
 31 32  1  0  0  0  0
 32 34  1  0  0  0  0
 32 29  1  1  0  0  0
 33 31  1  0  0  0  0
 33 30  1  0  0  0  0
M  END
>  <MODEL>
1

>  <REMARK>
 VINA RESULT:      -9.0      0.000      0.000
  Name = 
  3 active torsions:
  status: ('A' for Active; 'I' for Inactive)
    1  A    between atoms: C_17  and  O_28
    2  A    between atoms: O_28  and  C_29
    3  A    between atoms: C_29  and  C_32
                            x       y       z     vdW  Elec       q    Type
                         _______ _______ _______ _____ _____    ______ ____

>  <TORSDO>
F 3

$$$$
=
 OpenBabel11112417523D

 34 41  0  0  1  0  0  0  0  0999 V2000
  188.6120  177.0610  146.6050 C   0  0  2  0  0  3  0  0  0  0  0  0
  190.8050  176.8570  147.8960 C   0  0  0  0  0  2  0  0  0  0  0  0
  184.9650  177.9470  140.8610 C   0  0  0  0  0  0  0  0  0  0  0  0
  186.7780  178.0020  145.1230 C   0  0  0  0  0  0  0  0  0  0  0  0
  186.8760  177.8130  142.7000 C   0  0  0  0  0  0  0  0  0  0  0  0
  186.7920  177.5960  140.0420 C   0  0  0  0  0  2  0  0  0  0  0  0
  185.4850  177.7430  139.4770 C   0  0  0  0  0  2  0  0  0  0  0  0
  183.6830  178.3340  142.8820 C   0  0  0  0  0  3  0  0  0  0  0  0
  190.8630  176.8190  145.5420 C   0  0  0  0  0  0  0  0  0  0  0  0
  193.3440  175.8230  143.8860 C   0  0  0  0  0  2  0  0  0  0  0  0
  188.3820  177.6900  142.7930 C   0  0  0  0  0  3  0  0  0  0  0  0
  184.6350  178.2700  143.8280 C   0  0  0  0  0  3  0  0  0  0  0  0
  190.3310  176.8550  144.2950 C   0  0  0  0  0  0  0  0  0  0  0  0
  192.1230  176.2220  147.4540 C   0  0  0  0  0  2  0  0  0  0  0  0
  186.1130  178.0320  143.8010 C   0  0  0  0  0  0  0  0  0  0  0  0
  183.8040  178.1810  141.4270 C   0  0  0  0  0  3  0  0  0  0  0  0
  192.8120  175.2830  145.1940 C   0  0  2  0  0  3  0  0  0  0  0  0
  188.1430  177.4730  145.2370 C   0  0  0  0  0  0  0  0  0  0  0  0
  186.3150  177.7860  141.3940 N   0  0  0  0  0  0  0  0  0  0  0  0
  188.9110  177.2920  144.1500 C   0  0  0  0  0  0  0  0  0  0  0  0
  186.8440  178.4770  147.4710 C   0  0  0  0  0  3  0  0  0  0  0  0
  192.2720  175.9850  142.8600 C   0  0  0  0  0  3  0  0  0  0  0  0
  186.1860  178.4540  146.1910 N   0  0  0  0  0  2  0  0  0  0  0  0
  191.0300  176.4410  143.0490 C   0  0  0  0  0  3  0  0  0  0  0  0
  192.2530  176.4800  145.9480 C   0  0  1  0  0  3  0  0  0  0  0  0
  187.9880  177.8810  147.6480 N   0  0  0  0  0  0  0  0  0  0  0  0
  190.0670  177.1260  146.6780 N   0  0  0  0  0  0  0  0  0  0  0  0
  193.8750  174.7120  145.9000 O   0  0  0  0  0  0  0  0  0  0  0  0
  193.9720  173.4090  145.4070 C   0  0  0  0  0  2  0  0  0  0  0  0
  196.7250  173.8790  143.5850 N   0  0  0  0  0  0  0  0  0  0  0  0
  196.3240  174.1130  145.8540 C   0  0  0  0  0  2  0  0  0  0  0  0
  195.4310  173.0120  145.2820 C   0  0  2  0  0  3  0  0  0  0  0  0
  197.0540  174.5590  144.7250 O   0  0  0  0  0  0  0  0  0  0  0  0
  195.8210  173.0010  143.8420 C   0  0  0  0  0  3  0  0  0  0  0  0
  1 18  1  6  0  0  0
  1 27  1  0  0  0  0
  1 26  1  0  0  0  0
  3 19  1  0  0  0  0
  3 16  2  0  0  0  0
  4 18  1  0  0  0  0
  4 23  1  0  0  0  0
  5 11  2  0  0  0  0
  5 15  1  0  0  0  0
  6 19  1  0  0  0  0
  7  6  1  0  0  0  0
  7  3  1  0  0  0  0
  8 12  2  0  0  0  0
  9 25  1  0  0  0  0
  9 27  1  0  0  0  0
 10 17  1  0  0  0  0
 11 20  1  0  0  0  0
 13  9  2  0  0  0  0
 14  2  1  0  0  0  0
 15 12  1  0  0  0  0
 15  4  2  0  0  0  0
 16  8  1  0  0  0  0
 17 28  1  1  0  0  0
 17 25  1  0  0  0  0
 19  5  1  0  0  0  0
 20 13  1  0  0  0  0
 20 18  2  0  0  0  0
 21 26  2  0  0  0  0
 22 24  2  0  0  0  0
 22 10  1  0  0  0  0
 23 21  1  0  0  0  0
 24 13  1  0  0  0  0
 25 14  1  1  0  0  0
 27  2  1  0  0  0  0
 29 28  1  0  0  0  0
 30 34  2  0  0  0  0
 30 33  1  0  0  0  0
 32 29  1  6  0  0  0
 32 31  1  0  0  0  0
 33 31  1  0  0  0  0
 34 32  1  0  0  0  0
M  END
>  <MODEL>
2

>  <REMARK>
 VINA RESULT:      -8.8      2.216      4.319
  Name = 
  3 active torsions:
  status: ('A' for Active; 'I' for Inactive)
    1  A    between atoms: C_17  and  O_28
    2  A    between atoms: O_28  and  C_29
    3  A    between atoms: C_29  and  C_32
                            x       y       z     vdW  Elec       q    Type
                         _______ _______ _______ _____ _____    ______ ____

>  <TORSDO>
F 3

$$$$
=
 OpenBabel11112417523D

 34 41  0  0  1  0  0  0  0  0999 V2000
  192.3100  176.7020  145.4600 C   0  0  2  0  0  3  0  0  0  0  0  0
  190.1790  176.6410  146.8650 C   0  0  0  0  0  2  0  0  0  0  0  0
  195.9380  175.3220  139.8030 C   0  0  0  0  0  0  0  0  0  0  0  0
  194.3070  175.9340  144.0940 C   0  0  0  0  0  0  0  0  0  0  0  0
  194.1090  175.4220  141.7250 C   0  0  0  0  0  0  0  0  0  0  0  0
  194.0710  174.9220  139.1050 C   0  0  0  0  0  2  0  0  0  0  0  0
  195.3530  174.9910  138.4700 C   0  0  0  0  0  2  0  0  0  0  0  0
  197.3190  175.8660  141.7210 C   0  0  0  0  0  3  0  0  0  0  0  0
  190.0640  176.0200  144.5960 C   0  0  0  0  0  0  0  0  0  0  0  0
  187.3680  175.8080  142.9920 C   0  0  0  0  0  2  0  0  0  0  0  0
  192.6340  175.1490  141.9310 C   0  0  0  0  0  3  0  0  0  0  0  0
  196.4080  175.9220  142.7070 C   0  0  0  0  0  3  0  0  0  0  0  0
  190.5580  175.7940  143.3540 C   0  0  0  0  0  0  0  0  0  0  0  0
  188.7240  176.7450  146.4070 C   0  0  0  0  0  2  0  0  0  0  0  0
  194.9250  175.7290  142.7660 C   0  0  0  0  0  0  0  0  0  0  0  0
  197.1290  175.5780  140.2940 C   0  0  0  0  0  3  0  0  0  0  0  0
  187.7460  176.8080  144.0610 C   0  0  2  0  0  3  0  0  0  0  0  0
  192.8490  176.0790  144.2030 C   0  0  0  0  0  0  0  0  0  0  0  0
  194.6110  175.2450  140.4070 N   0  0  0  0  0  0  0  0  0  0  0  0
  192.0410  175.7400  143.1870 C   0  0  0  0  0  0  0  0  0  0  0  0
  194.4300  176.1160  146.4810 C   0  0  0  0  0  3  0  0  0  0  0  0
  188.4190  175.6730  141.9410 C   0  0  0  0  0  3  0  0  0  0  0  0
  195.0260  175.9700  145.1790 N   0  0  0  0  0  2  0  0  0  0  0  0
  189.7440  175.6440  142.1180 C   0  0  0  0  0  3  0  0  0  0  0  0
  188.6440  176.0620  145.0370 C   0  0  1  0  0  3  0  0  0  0  0  0
  193.1660  176.4010  146.6110 N   0  0  0  0  0  0  0  0  0  0  0  0
  190.9380  176.2640  145.6890 N   0  0  0  0  0  0  0  0  0  0  0  0
  186.5780  177.2350  144.6990 O   0  0  0  0  0  0  0  0  0  0  0  0
  186.2350  178.4270  144.0560 C   0  0  0  0  0  2  0  0  0  0  0  0
  183.6770  178.6150  146.1860 N   0  0  0  0  0  0  0  0  0  0  0  0
  185.9400  179.0220  146.4610 C   0  0  0  0  0  2  0  0  0  0  0  0
  185.5260  179.3510  145.0270 C   0  0  2  0  0  3  0  0  0  0  0  0
  184.7330  178.5840  147.0560 O   0  0  0  0  0  0  0  0  0  0  0  0
  184.0670  179.0380  145.0360 C   0  0  0  0  0  3  0  0  0  0  0  0
  1 18  1  6  0  0  0
  1 27  1  0  0  0  0
  1 26  1  0  0  0  0
  3 16  2  0  0  0  0
  3 19  1  0  0  0  0
  4 18  1  0  0  0  0
  4 23  1  0  0  0  0
  5 11  2  0  0  0  0
  5 15  1  0  0  0  0
  6 19  1  0  0  0  0
  7  6  1  0  0  0  0
  7  3  1  0  0  0  0
  8 12  2  0  0  0  0
  9 25  1  0  0  0  0
  9 27  1  0  0  0  0
 10 17  1  0  0  0  0
 11 20  1  0  0  0  0
 12 15  1  0  0  0  0
 13  9  2  0  0  0  0
 14  2  1  0  0  0  0
 15  4  2  0  0  0  0
 16  8  1  0  0  0  0
 17 28  1  1  0  0  0
 17 25  1  0  0  0  0
 19  5  1  0  0  0  0
 20 13  1  0  0  0  0
 20 18  2  0  0  0  0
 21 26  2  0  0  0  0
 22 24  2  0  0  0  0
 22 10  1  0  0  0  0
 23 21  1  0  0  0  0
 24 13  1  0  0  0  0
 25 14  1  1  0  0  0
 27  2  1  0  0  0  0
 29 28  1  0  0  0  0
 30 33  1  0  0  0  0
 31 33  1  0  0  0  0
 32 29  1  6  0  0  0
 32 34  1  0  0  0  0
 32 31  1  0  0  0  0
 34 30  2  0  0  0  0
M  END
>  <MODEL>
3

>  <REMARK>
 VINA RESULT:      -8.4      3.187      9.173
  Name = 
  3 active torsions:
  status: ('A' for Active; 'I' for Inactive)
    1  A    between atoms: C_17  and  O_28
    2  A    between atoms: O_28  and  C_29
    3  A    between atoms: C_29  and  C_32
                            x       y       z     vdW  Elec       q    Type
                         _______ _______ _______ _____ _____    ______ ____

>  <TORSDO>
F 3

$$$$
=
 OpenBabel11112417523D

 34 41  0  0  1  0  0  0  0  0999 V2000
  192.8700  176.3280  144.3130 C   0  0  2  0  0  3  0  0  0  0  0  0
  191.0160  178.0450  143.9500 C   0  0  0  0  0  2  0  0  0  0  0  0
  195.1860  169.9240  145.1510 C   0  0  0  0  0  0  0  0  0  0  0  0
  194.2370  174.4530  145.3440 C   0  0  0  0  0  0  0  0  0  0  0  0
  193.7010  172.1150  144.9380 C   0  0  0  0  0  0  0  0  0  0  0  0
  193.3010  169.5130  144.5070 C   0  0  0  0  0  2  0  0  0  0  0  0
  194.4420  168.6880  144.7660 C   0  0  0  0  0  2  0  0  0  0  0  0
  196.7670  171.6180  145.8640 C   0  0  0  0  0  3  0  0  0  0  0  0
  190.5120  175.7570  143.7040 C   0  0  0  0  0  0  0  0  0  0  0  0
  187.9210  174.6980  142.2720 C   0  0  0  0  0  2  0  0  0  0  0  0
  192.2730  172.5180  144.6380 C   0  0  0  0  0  3  0  0  0  0  0  0
  196.0330  172.7390  145.7630 C   0  0  0  0  0  3  0  0  0  0  0  0
  190.7840  174.4290  143.6990 C   0  0  0  0  0  0  0  0  0  0  0  0
  189.7380  177.9160  143.1220 C   0  0  0  0  0  2  0  0  0  0  0  0
  194.6250  173.0250  145.3430 C   0  0  0  0  0  0  0  0  0  0  0  0
  196.3900  170.2290  145.5740 C   0  0  0  0  0  3  0  0  0  0  0  0
  188.7630  175.9010  141.9150 C   0  0  2  0  0  3  0  0  0  0  0  0
  193.0050  174.8710  144.6610 C   0  0  0  0  0  0  0  0  0  0  0  0
  193.9990  170.7260  144.8700 N   0  0  0  0  0  0  0  0  0  0  0  0
  192.0760  173.9750  144.2950 C   0  0  0  0  0  0  0  0  0  0  0  0
  194.5590  176.7330  146.0060 C   0  0  0  0  0  3  0  0  0  0  0  0
  188.7420  173.4690  142.4770 C   0  0  0  0  0  3  0  0  0  0  0  0
  194.9540  175.3510  145.9550 N   0  0  0  0  0  2  0  0  0  0  0  0
  189.9220  173.3770  143.0980 C   0  0  0  0  0  3  0  0  0  0  0  0
  189.2870  176.4550  143.2320 C   0  0  1  0  0  3  0  0  0  0  0  0
  193.5640  177.1730  145.2890 N   0  0  0  0  0  0  0  0  0  0  0  0
  191.4620  176.6890  144.2030 N   0  0  0  0  0  0  0  0  0  0  0  0
  187.9450  176.8400  141.2800 O   0  0  0  0  0  0  0  0  0  0  0  0
  186.6940  176.6880  141.8800 C   0  0  0  0  0  2  0  0  0  0  0  0
  184.0930  178.2910  140.5440 N   0  0  0  0  0  0  0  0  0  0  0  0
  184.7040  177.9190  142.7470 C   0  0  0  0  0  2  0  0  0  0  0  0
  185.9540  178.0120  141.8720 C   0  0  2  0  0  3  0  0  0  0  0  0
  183.6460  178.0990  141.8230 O   0  0  0  0  0  0  0  0  0  0  0  0
  185.3780  178.2520  140.5160 C   0  0  0  0  0  3  0  0  0  0  0  0
  1 18  1  1  0  0  0
  1 26  1  0  0  0  0
  2 27  1  0  0  0  0
  3 16  2  0  0  0  0
  4 23  1  0  0  0  0
  5 15  2  0  0  0  0
  6  7  1  0  0  0  0
  6 19  1  0  0  0  0
  7  3  1  0  0  0  0
  9 27  1  0  0  0  0
 10 22  1  0  0  0  0
 11  5  1  0  0  0  0
 12  8  2  0  0  0  0
 13  9  2  0  0  0  0
 13 20  1  0  0  0  0
 14  2  1  0  0  0  0
 15  4  1  0  0  0  0
 15 12  1  0  0  0  0
 16  8  1  0  0  0  0
 17 28  1  1  0  0  0
 17 10  1  0  0  0  0
 17 25  1  0  0  0  0
 18  4  2  0  0  0  0
 19  5  1  0  0  0  0
 19  3  1  0  0  0  0
 20 11  2  0  0  0  0
 20 18  1  0  0  0  0
 22 24  2  0  0  0  0
 23 21  1  0  0  0  0
 24 13  1  0  0  0  0
 25 14  1  6  0  0  0
 25  9  1  0  0  0  0
 26 21  2  0  0  0  0
 27  1  1  0  0  0  0
 28 29  1  0  0  0  0
 30 33  1  0  0  0  0
 32 29  1  6  0  0  0
 32 31  1  0  0  0  0
 33 31  1  0  0  0  0
 34 30  2  0  0  0  0
 34 32  1  0  0  0  0
M  END
>  <MODEL>
4

>  <REMARK>
 VINA RESULT:      -8.4      4.013      9.027
  Name = 
  3 active torsions:
  status: ('A' for Active; 'I' for Inactive)
    1  A    between atoms: C_17  and  O_28
    2  A    between atoms: O_28  and  C_29
    3  A    between atoms: C_29  and  C_32
                            x       y       z     vdW  Elec       q    Type
                         _______ _______ _______ _____ _____    ______ ____

>  <TORSDO>
F 3

$$$$
=
 OpenBabel11112417523D

 34 41  0  0  1  0  0  0  0  0999 V2000
  192.8430  176.5840  145.4660 C   0  0  2  0  0  3  0  0  0  0  0  0
  190.8360  176.7230  147.0380 C   0  0  0  0  0  2  0  0  0  0  0  0
  195.8160  175.0380  139.4790 C   0  0  0  0  0  0  0  0  0  0  0  0
  194.6120  175.6370  143.9110 C   0  0  0  0  0  0  0  0  0  0  0  0
  194.1680  175.2740  141.5470 C   0  0  0  0  0  0  0  0  0  0  0  0
  193.8650  174.9150  138.9210 C   0  0  0  0  0  2  0  0  0  0  0  0
  195.0920  174.8520  138.1870 C   0  0  0  0  0  2  0  0  0  0  0  0
  197.3990  175.3070  141.2960 C   0  0  0  0  0  3  0  0  0  0  0  0
  190.4680  176.2360  144.7630 C   0  0  0  0  0  0  0  0  0  0  0  0
  187.6520  176.4480  143.3800 C   0  0  0  0  0  2  0  0  0  0  0  0
  192.6900  175.1800  141.8630 C   0  0  0  0  0  3  0  0  0  0  0  0
  196.5820  175.4280  142.3560 C   0  0  0  0  0  3  0  0  0  0  0  0
  190.8310  176.0110  143.4770 C   0  0  0  0  0  0  0  0  0  0  0  0
  189.3770  177.0340  146.7060 C   0  0  0  0  0  2  0  0  0  0  0  0
  195.0950  175.4220  142.5280 C   0  0  0  0  0  0  0  0  0  0  0  0
  197.0640  175.1170  139.8790 C   0  0  0  0  0  3  0  0  0  0  0  0
  188.2380  177.3370  144.4530 C   0  0  2  0  0  3  0  0  0  0  0  0
  193.1980  175.9610  144.1450 C   0  0  0  0  0  0  0  0  0  0  0  0
  194.5400  175.1010  140.1860 N   0  0  0  0  0  0  0  0  0  0  0  0
  192.2770  175.7780  143.1860 C   0  0  0  0  0  0  0  0  0  0  0  0
  194.9410  175.6830  146.2840 C   0  0  0  0  0  3  0  0  0  0  0  0
  188.5930  176.2340  142.2420 C   0  0  0  0  0  3  0  0  0  0  0  0
  195.4110  175.5270  144.9330 N   0  0  0  0  0  2  0  0  0  0  0  0
  189.9120  176.0280  142.3070 C   0  0  0  0  0  3  0  0  0  0  0  0
  189.1030  176.4360  145.3210 C   0  0  1  0  0  3  0  0  0  0  0  0
  193.7380  176.1190  146.5300 N   0  0  0  0  0  0  0  0  0  0  0  0
  191.4470  176.3120  145.7900 N   0  0  0  0  0  0  0  0  0  0  0  0
  187.1880  177.8770  145.2010 O   0  0  0  0  0  0  0  0  0  0  0  0
  186.0970  177.0460  144.9370 C   0  0  0  0  0  2  0  0  0  0  0  0
  185.6650  178.2520  148.0160 N   0  0  0  0  0  0  0  0  0  0  0  0
  184.3160  178.3190  146.1350 C   0  0  0  0  0  2  0  0  0  0  0  0
  185.1540  177.0400  146.1250 C   0  0  2  0  0  3  0  0  0  0  0  0
  184.7230  178.9650  147.3270 O   0  0  0  0  0  0  0  0  0  0  0  0
  185.9420  177.1640  147.3860 C   0  0  0  0  0  3  0  0  0  0  0  0
  1 18  1  6  0  0  0
  1 27  1  0  0  0  0
  1 26  1  0  0  0  0
  3 16  2  0  0  0  0
  3 19  1  0  0  0  0
  4 18  1  0  0  0  0
  4 23  1  0  0  0  0
  5 11  2  0  0  0  0
  5 15  1  0  0  0  0
  6 19  1  0  0  0  0
  7  6  1  0  0  0  0
  7  3  1  0  0  0  0
  8 12  2  0  0  0  0
  9 25  1  0  0  0  0
  9 27  1  0  0  0  0
 10 17  1  0  0  0  0
 11 20  1  0  0  0  0
 12 15  1  0  0  0  0
 13  9  2  0  0  0  0
 14  2  1  0  0  0  0
 15  4  2  0  0  0  0
 16  8  1  0  0  0  0
 17 28  1  1  0  0  0
 17 25  1  0  0  0  0
 19  5  1  0  0  0  0
 20 13  1  0  0  0  0
 20 18  2  0  0  0  0
 21 26  2  0  0  0  0
 22 24  2  0  0  0  0
 22 10  1  0  0  0  0
 23 21  1  0  0  0  0
 24 13  1  0  0  0  0
 25 14  1  1  0  0  0
 27  2  1  0  0  0  0
 29 28  1  0  0  0  0
 31 33  1  0  0  0  0
 32 29  1  6  0  0  0
 32 31  1  0  0  0  0
 32 34  1  0  0  0  0
 33 30  1  0  0  0  0
 34 30  2  0  0  0  0
M  END
>  <MODEL>
5

>  <REMARK>
 VINA RESULT:      -8.3      3.207      9.159
  Name = 
  3 active torsions:
  status: ('A' for Active; 'I' for Inactive)
    1  A    between atoms: C_17  and  O_28
    2  A    between atoms: O_28  and  C_29
    3  A    between atoms: C_29  and  C_32
                            x       y       z     vdW  Elec       q    Type
                         _______ _______ _______ _____ _____    ______ ____

>  <TORSDO>
F 3

$$$$
=
 OpenBabel11112417523D

 34 41  0  0  1  0  0  0  0  0999 V2000
  190.0290  174.4590  145.1930 C   0  0  2  0  0  3  0  0  0  0  0  0
  192.0350  173.2430  144.1860 C   0  0  0  0  0  2  0  0  0  0  0  0
  184.4410  178.4170  144.7680 C   0  0  0  0  0  0  0  0  0  0  0  0
  188.4270  176.3190  145.8420 C   0  0  0  0  0  0  0  0  0  0  0  0
  186.7060  177.1080  144.3160 C   0  0  0  0  0  0  0  0  0  0  0  0
  184.7090  178.0100  142.7950 C   0  0  0  0  0  2  0  0  0  0  0  0
  183.6670  178.6740  143.5180 C   0  0  0  0  0  2  0  0  0  0  0  0
  185.3250  178.2420  147.0190 C   0  0  0  0  0  3  0  0  0  0  0  0
  190.4090  174.1470  142.7410 C   0  0  0  0  0  0  0  0  0  0  0  0
  190.1540  173.3560  139.7080 C   0  0  0  0  0  2  0  0  0  0  0  0
  187.5390  176.6090  143.1540 C   0  0  0  0  0  3  0  0  0  0  0  0
  186.4750  177.5800  146.8120 C   0  0  0  0  0  3  0  0  0  0  0  0
  189.2660  174.8070  142.4310 C   0  0  0  0  0  0  0  0  0  0  0  0
  192.1550  172.5520  142.8280 C   0  0  0  0  0  2  0  0  0  0  0  0
  187.1560  177.0350  145.5950 C   0  0  0  0  0  0  0  0  0  0  0  0
  184.3070  178.6670  146.0500 C   0  0  0  0  0  3  0  0  0  0  0  0
  190.5230  172.4740  140.8790 C   0  0  2  0  0  3  0  0  0  0  0  0
  189.0100  175.4850  144.7820 C   0  0  0  0  0  0  0  0  0  0  0  0
  185.4770  177.7440  143.9900 N   0  0  0  0  0  0  0  0  0  0  0  0
  188.5900  175.5850  143.5110 C   0  0  0  0  0  0  0  0  0  0  0  0
  190.3190  175.7750  147.2100 C   0  0  0  0  0  3  0  0  0  0  0  0
  188.9270  174.1640  139.9700 C   0  0  0  0  0  3  0  0  0  0  0  0
  189.0570  176.4250  146.9770 N   0  0  0  0  0  2  0  0  0  0  0  0
  188.5900  174.7820  141.1070 C   0  0  0  0  0  3  0  0  0  0  0  0
  191.2970  173.3580  141.8460 C   0  0  1  0  0  3  0  0  0  0  0  0
  190.7930  174.9080  146.3610 N   0  0  0  0  0  0  0  0  0  0  0  0
  190.9070  174.1460  144.0720 N   0  0  0  0  0  0  0  0  0  0  0  0
  191.3330  171.4350  140.4110 O   0  0  0  0  0  0  0  0  0  0  0  0
  190.4480  170.3930  140.1260 C   0  0  0  0  0  2  0  0  0  0  0  0
  190.0440  170.6550  136.8260 N   0  0  0  0  0  0  0  0  0  0  0  0
  191.9490  170.5330  138.1370 C   0  0  0  0  0  2  0  0  0  0  0  0
  190.8150  169.7530  138.8000 C   0  0  2  0  0  3  0  0  0  0  0  0
  191.3530  171.0330  136.9550 O   0  0  0  0  0  0  0  0  0  0  0  0
  189.6930  169.9360  137.8330 C   0  0  0  0  0  3  0  0  0  0  0  0
  1 18  1  6  0  0  0
  1 26  1  0  0  0  0
  3 16  2  0  0  0  0
  4 23  1  0  0  0  0
  5 15  2  0  0  0  0
  6  7  1  0  0  0  0
  6 19  1  0  0  0  0
  7  3  1  0  0  0  0
  9 27  1  0  0  0  0
 10 22  1  0  0  0  0
 10 17  1  0  0  0  0
 11 20  2  0  0  0  0
 11  5  1  0  0  0  0
 12  8  2  0  0  0  0
 13  9  2  0  0  0  0
 13 20  1  0  0  0  0
 14  2  1  0  0  0  0
 15  4  1  0  0  0  0
 15 12  1  0  0  0  0
 16  8  1  0  0  0  0
 17 28  1  6  0  0  0
 17 25  1  0  0  0  0
 18  4  2  0  0  0  0
 19  5  1  0  0  0  0
 19  3  1  0  0  0  0
 20 18  1  0  0  0  0
 22 24  2  0  0  0  0
 23 21  1  0  0  0  0
 24 13  1  0  0  0  0
 25  9  1  0  0  0  0
 25 14  1  1  0  0  0
 26 21  2  0  0  0  0
 27  2  1  0  0  0  0
 27  1  1  0  0  0  0
 29 28  1  0  0  0  0
 30 33  1  0  0  0  0
 30 34  2  0  0  0  0
 31 32  1  0  0  0  0
 32 29  1  1  0  0  0
 33 31  1  0  0  0  0
 34 32  1  0  0  0  0
M  END
>  <MODEL>
6

>  <REMARK>
 VINA RESULT:      -8.2      3.317      5.551
  Name = 
  3 active torsions:
  status: ('A' for Active; 'I' for Inactive)
    1  A    between atoms: C_17  and  O_28
    2  A    between atoms: O_28  and  C_29
    3  A    between atoms: C_29  and  C_32
                            x       y       z     vdW  Elec       q    Type
                         _______ _______ _______ _____ _____    ______ ____

>  <TORSDO>
F 3

$$$$
=
 OpenBabel11112417523D

 34 41  0  0  1  0  0  0  0  0999 V2000
  189.7500  174.3160  142.4710 C   0  0  2  0  0  3  0  0  0  0  0  0
  187.5320  175.5790  142.5400 C   0  0  0  0  0  2  0  0  0  0  0  0
  196.2370  173.2520  144.4340 C   0  0  0  0  0  0  0  0  0  0  0  0
  192.2250  173.8270  142.1930 C   0  0  0  0  0  0  0  0  0  0  0  0
  193.8150  174.2440  143.9860 C   0  0  0  0  0  0  0  0  0  0  0  0
  195.6600  174.5520  145.8870 C   0  0  0  0  0  2  0  0  0  0  0  0
  196.8480  173.7760  145.6910 C   0  0  0  0  0  2  0  0  0  0  0  0
  195.6720  172.1520  142.3480 C   0  0  0  0  0  3  0  0  0  0  0  0
  189.1610  176.0480  144.1760 C   0  0  0  0  0  0  0  0  0  0  0  0
  188.5400  177.5880  146.8470 C   0  0  0  0  0  2  0  0  0  0  0  0
  192.8650  175.2740  144.5580 C   0  0  0  0  0  3  0  0  0  0  0  0
  194.4450  172.6420  142.1030 C   0  0  0  0  0  3  0  0  0  0  0  0
  190.3570  175.9120  144.7980 C   0  0  0  0  0  0  0  0  0  0  0  0
  186.8450  176.2460  143.7320 C   0  0  0  0  0  2  0  0  0  0  0  0
  193.5470  173.6010  142.8190 C   0  0  0  0  0  0  0  0  0  0  0  0
  196.5760  172.4240  143.4730 C   0  0  0  0  0  3  0  0  0  0  0  0
  187.6670  176.5960  146.1120 C   0  0  2  0  0  3  0  0  0  0  0  0
  191.1610  174.4890  142.9590 C   0  0  0  0  0  0  0  0  0  0  0  0
  195.0440  174.0570  144.6770 N   0  0  0  0  0  0  0  0  0  0  0  0
  191.4340  175.1560  144.0910 C   0  0  0  0  0  0  0  0  0  0  0  0
  190.7230  173.7280  140.3280 C   0  0  0  0  0  3  0  0  0  0  0  0
  189.9320  177.0860  147.0400 C   0  0  0  0  0  3  0  0  0  0  0  0
  191.9860  173.4670  140.9640 N   0  0  0  0  0  2  0  0  0  0  0  0
  190.6810  176.4110  146.1610 C   0  0  0  0  0  3  0  0  0  0  0  0
  187.9570  176.7950  144.6320 C   0  0  1  0  0  3  0  0  0  0  0  0
  189.7070  174.1710  141.0120 N   0  0  0  0  0  0  0  0  0  0  0  0
  188.9230  175.4310  142.9180 N   0  0  0  0  0  0  0  0  0  0  0  0
  186.3300  176.8930  146.3930 O   0  0  0  0  0  0  0  0  0  0  0  0
  186.3700  178.1100  147.0770 C   0  0  0  0  0  2  0  0  0  0  0  0
  185.0540  179.3660  144.2820 N   0  0  0  0  0  0  0  0  0  0  0  0
  184.0980  178.2160  146.0500 C   0  0  0  0  0  2  0  0  0  0  0  0
  185.2890  179.0340  146.5490 C   0  0  2  0  0  3  0  0  0  0  0  0
  184.0660  178.5010  144.6640 O   0  0  0  0  0  0  0  0  0  0  0  0
  185.7670  179.6970  145.3010 C   0  0  0  0  0  3  0  0  0  0  0  0
  1 26  1  6  0  0  0
  1 27  1  0  0  0  0
  1 18  1  0  0  0  0
  2 27  1  0  0  0  0
  2 14  1  0  0  0  0
  3 19  1  0  0  0  0
  3  7  1  0  0  0  0
  4 15  2  0  0  0  0
  4 18  1  0  0  0  0
  5 11  2  0  0  0  0
  5 19  1  0  0  0  0
  7  6  1  0  0  0  0
  8 16  1  0  0  0  0
  9 25  1  0  0  0  0
  9 13  2  0  0  0  0
 10 22  1  0  0  0  0
 12  8  2  0  0  0  0
 12 15  1  0  0  0  0
 13 24  1  0  0  0  0
 15  5  1  0  0  0  0
 16  3  2  0  0  0  0
 17 28  1  6  0  0  0
 17 10  1  0  0  0  0
 18 20  2  0  0  0  0
 19  6  1  0  0  0  0
 20 11  1  0  0  0  0
 20 13  1  0  0  0  0
 21 23  1  0  0  0  0
 21 26  2  0  0  0  0
 23  4  1  0  0  0  0
 24 22  2  0  0  0  0
 25 14  1  6  0  0  0
 25 17  1  0  0  0  0
 27  9  1  0  0  0  0
 28 29  1  0  0  0  0
 30 33  1  0  0  0  0
 30 34  2  0  0  0  0
 31 32  1  0  0  0  0
 32 29  1  6  0  0  0
 33 31  1  0  0  0  0
 34 32  1  0  0  0  0
M  END
>  <MODEL>
7

>  <REMARK>
 VINA RESULT:      -8.2      3.154      8.395
  Name = 
  3 active torsions:
  status: ('A' for Active; 'I' for Inactive)
    1  A    between atoms: C_17  and  O_28
    2  A    between atoms: O_28  and  C_29
    3  A    between atoms: C_29  and  C_32
                            x       y       z     vdW  Elec       q    Type
                         _______ _______ _______ _____ _____    ______ ____

>  <TORSDO>
F 3

$$$$
=
 OpenBabel11112417523D

 34 41  0  0  1  0  0  0  0  0999 V2000
  190.0070  172.6150  143.0900 C   0  0  2  0  0  3  0  0  0  0  0  0
  188.0760  173.8230  141.9380 C   0  0  0  0  0  2  0  0  0  0  0  0
  196.2870  172.3720  145.8430 C   0  0  0  0  0  0  0  0  0  0  0  0
  192.3250  171.6830  143.5470 C   0  0  0  0  0  0  0  0  0  0  0  0
  194.0720  173.0490  144.5450 C   0  0  0  0  0  0  0  0  0  0  0  0
  196.0560  174.3880  145.7220 C   0  0  0  0  0  2  0  0  0  0  0  0
  197.0620  173.5570  146.3140 C   0  0  0  0  0  2  0  0  0  0  0  0
  195.3980  170.1860  145.2860 C   0  0  0  0  0  3  0  0  0  0  0  0
  189.8620  175.0940  142.8000 C   0  0  0  0  0  0  0  0  0  0  0  0
  189.7090  178.2000  143.2710 C   0  0  0  0  0  2  0  0  0  0  0  0
  193.3700  174.2860  144.0270 C   0  0  0  0  0  3  0  0  0  0  0  0
  194.2720  170.5080  144.6260 C   0  0  0  0  0  3  0  0  0  0  0  0
  191.0470  175.2860  143.4280 C   0  0  0  0  0  0  0  0  0  0  0  0
  187.6010  175.2650  142.1200 C   0  0  0  0  0  2  0  0  0  0  0  0
  193.6160  171.8020  144.2590 C   0  0  0  0  0  0  0  0  0  0  0  0
  196.4040  171.0650  145.8940 C   0  0  0  0  0  3  0  0  0  0  0  0
  188.6210  177.1680  143.4630 C   0  0  2  0  0  3  0  0  0  0  0  0
  191.4540  172.8590  143.4200 C   0  0  0  0  0  0  0  0  0  0  0  0
  195.2840  173.2570  145.2590 N   0  0  0  0  0  0  0  0  0  0  0  0
  191.9170  174.0950  143.6660 C   0  0  0  0  0  0  0  0  0  0  0  0
  190.7180  170.4460  142.2700 C   0  0  0  0  0  3  0  0  0  0  0  0
  190.9910  177.8030  143.9240 C   0  0  0  0  0  3  0  0  0  0  0  0
  191.9470  170.5590  143.0090 N   0  0  0  0  0  2  0  0  0  0  0  0
  191.5420  176.5860  143.9550 C   0  0  0  0  0  3  0  0  0  0  0  0
  188.8510  176.1090  142.3960 C   0  0  1  0  0  3  0  0  0  0  0  0
  189.8480  171.4140  142.2630 N   0  0  0  0  0  0  0  0  0  0  0  0
  189.4350  173.7880  142.4400 N   0  0  0  0  0  0  0  0  0  0  0  0
  187.3830  177.7910  143.2750 O   0  0  0  0  0  0  0  0  0  0  0  0
  186.9060  178.0340  144.5650 C   0  0  0  0  0  2  0  0  0  0  0  0
  184.2920  177.8930  146.6310 N   0  0  0  0  0  0  0  0  0  0  0  0
  184.5020  178.6940  144.4680 C   0  0  0  0  0  2  0  0  0  0  0  0
  185.4770  177.5380  144.6880 C   0  0  2  0  0  3  0  0  0  0  0  0
  183.8490  178.8110  145.7190 O   0  0  0  0  0  0  0  0  0  0  0  0
  185.2050  177.1550  146.1040 C   0  0  0  0  0  3  0  0  0  0  0  0
  1 26  1  6  0  0  0
  1 18  1  0  0  0  0
  2 14  1  0  0  0  0
  2 27  1  0  0  0  0
  3 16  2  0  0  0  0
  3  7  1  0  0  0  0
  4 15  1  0  0  0  0
  5 19  1  0  0  0  0
  6  7  1  0  0  0  0
  8 16  1  0  0  0  0
  9 13  2  0  0  0  0
 10 17  1  0  0  0  0
 10 22  1  0  0  0  0
 11  5  1  0  0  0  0
 12  8  2  0  0  0  0
 13 20  1  0  0  0  0
 13 24  1  0  0  0  0
 15  5  2  0  0  0  0
 15 12  1  0  0  0  0
 17 28  1  6  0  0  0
 18  4  2  0  0  0  0
 18 20  1  0  0  0  0
 19  6  1  0  0  0  0
 19  3  1  0  0  0  0
 20 11  2  0  0  0  0
 21 23  1  0  0  0  0
 22 24  2  0  0  0  0
 23  4  1  0  0  0  0
 25 14  1  1  0  0  0
 25  9  1  0  0  0  0
 25 17  1  0  0  0  0
 26 21  2  0  0  0  0
 27  9  1  0  0  0  0
 27  1  1  0  0  0  0
 28 29  1  0  0  0  0
 31 32  1  0  0  0  0
 31 33  1  0  0  0  0
 32 29  1  1  0  0  0
 32 34  1  0  0  0  0
 33 30  1  0  0  0  0
 34 30  2  0  0  0  0
M  END
>  <MODEL>
8

>  <REMARK>
 VINA RESULT:      -8.1      3.683      8.630
  Name = 
  3 active torsions:
  status: ('A' for Active; 'I' for Inactive)
    1  A    between atoms: C_17  and  O_28
    2  A    between atoms: O_28  and  C_29
    3  A    between atoms: C_29  and  C_32
                            x       y       z     vdW  Elec       q    Type
                         _______ _______ _______ _____ _____    ______ ____

>  <TORSDO>
F 3

$$$$
=
 OpenBabel11112417523D

 34 41  0  0  1  0  0  0  0  0999 V2000
  192.4340  176.5560  145.4650 C   0  0  2  0  0  3  0  0  0  0  0  0
  190.3180  176.4600  146.8890 C   0  0  0  0  0  2  0  0  0  0  0  0
  196.0150  175.2890  139.7510 C   0  0  0  0  0  0  0  0  0  0  0  0
  194.4220  175.8220  144.0670 C   0  0  0  0  0  0  0  0  0  0  0  0
  194.2040  175.3480  141.6910 C   0  0  0  0  0  0  0  0  0  0  0  0
  194.1430  174.8900  139.0640 C   0  0  0  0  0  2  0  0  0  0  0  0
  195.4190  174.9770  138.4180 C   0  0  0  0  0  2  0  0  0  0  0  0
  197.4110  175.8100  141.6630 C   0  0  0  0  0  3  0  0  0  0  0  0
  190.1840  175.8750  144.6110 C   0  0  0  0  0  0  0  0  0  0  0  0
  187.4740  175.6740  143.0300 C   0  0  0  0  0  2  0  0  0  0  0  0
  192.7320  175.0620  141.9070 C   0  0  0  0  0  3  0  0  0  0  0  0
  196.5100  175.8450  142.6600 C   0  0  0  0  0  3  0  0  0  0  0  0
  190.6670  175.6720  143.3610 C   0  0  0  0  0  0  0  0  0  0  0  0
  188.8580  176.5630  146.4470 C   0  0  0  0  0  2  0  0  0  0  0  0
  195.0290  175.6420  142.7290 C   0  0  0  0  0  0  0  0  0  0  0  0
  197.2080  175.5440  140.2340 C   0  0  0  0  0  3  0  0  0  0  0  0
  187.8570  176.6580  144.1120 C   0  0  2  0  0  3  0  0  0  0  0  0
  192.9650  175.9570  144.1920 C   0  0  0  0  0  0  0  0  0  0  0  0
  194.6940  175.1950  140.3660 N   0  0  0  0  0  0  0  0  0  0  0  0
  192.1480  175.6290  143.1790 C   0  0  0  0  0  0  0  0  0  0  0  0
  194.5680  175.9660  146.4550 C   0  0  0  0  0  3  0  0  0  0  0  0
  188.5150  175.5620  141.9670 C   0  0  0  0  0  3  0  0  0  0  0  0
  195.1520  175.8440  145.1460 N   0  0  0  0  0  2  0  0  0  0  0  0
  189.8420  175.5380  142.1310 C   0  0  0  0  0  3  0  0  0  0  0  0
  188.7680  175.9020  145.0660 C   0  0  1  0  0  3  0  0  0  0  0  0
  193.3040  176.2410  146.6030 N   0  0  0  0  0  0  0  0  0  0  0  0
  191.0670  176.1060  145.7000 N   0  0  0  0  0  0  0  0  0  0  0  0
  186.6930  177.0690  144.7680 O   0  0  0  0  0  0  0  0  0  0  0  0
  186.8080  178.4570  144.8660 C   0  0  0  0  0  2  0  0  0  0  0  0
  185.1670  178.3410  141.9650 N   0  0  0  0  0  0  0  0  0  0  0  0
  184.4200  178.3050  144.1570 C   0  0  0  0  0  2  0  0  0  0  0  0
  185.7070  179.1240  144.0630 C   0  0  2  0  0  3  0  0  0  0  0  0
  184.2040  177.8850  142.8230 O   0  0  0  0  0  0  0  0  0  0  0  0
  186.0330  179.0420  142.6090 C   0  0  0  0  0  3  0  0  0  0  0  0
  1 18  1  6  0  0  0
  1 27  1  0  0  0  0
  1 26  1  0  0  0  0
  3 16  2  0  0  0  0
  3 19  1  0  0  0  0
  4 18  1  0  0  0  0
  4 23  1  0  0  0  0
  5 11  2  0  0  0  0
  5 15  1  0  0  0  0
  6 19  1  0  0  0  0
  7  6  1  0  0  0  0
  7  3  1  0  0  0  0
  8 12  2  0  0  0  0
  9 25  1  0  0  0  0
  9 27  1  0  0  0  0
 10 17  1  0  0  0  0
 11 20  1  0  0  0  0
 12 15  1  0  0  0  0
 13  9  2  0  0  0  0
 14  2  1  0  0  0  0
 15  4  2  0  0  0  0
 16  8  1  0  0  0  0
 17 28  1  1  0  0  0
 17 25  1  0  0  0  0
 19  5  1  0  0  0  0
 20 13  1  0  0  0  0
 20 18  2  0  0  0  0
 21 26  2  0  0  0  0
 22 24  2  0  0  0  0
 22 10  1  0  0  0  0
 23 21  1  0  0  0  0
 24 13  1  0  0  0  0
 25 14  1  1  0  0  0
 27  2  1  0  0  0  0
 28 29  1  0  0  0  0
 30 34  2  0  0  0  0
 30 33  1  0  0  0  0
 32 31  1  0  0  0  0
 32 29  1  1  0  0  0
 33 31  1  0  0  0  0
 34 32  1  0  0  0  0
M  END
>  <MODEL>
9

>  <REMARK>
 VINA RESULT:      -8.0      3.228      8.970
  Name = 
  3 active torsions:
  status: ('A' for Active; 'I' for Inactive)
    1  A    between atoms: C_17  and  O_28
    2  A    between atoms: O_28  and  C_29
    3  A    between atoms: C_29  and  C_32
                            x       y       z     vdW  Elec       q    Type
                         _______ _______ _______ _____ _____    ______ ____

>  <TORSDO>
F 3

$$$$
