=
 OpenBabel11112416563D

 31 35  0  0  0  0  0  0  0  0999 V2000
  184.7060  178.1100  146.7210 C   0  0  0  0  0  0  0  0  0  0  0  0
  186.8870  177.8160  143.6600 C   0  0  0  0  0  0  0  0  0  0  0  0
  186.0190  177.9040  142.5260 C   0  0  0  0  0  0  0  0  0  0  0  0
  183.8090  178.1510  141.5080 C   0  0  0  0  0  0  0  0  0  0  0  0
  186.4500  177.8850  145.0220 C   0  0  0  0  0  0  0  0  0  0  0  0
  185.6580  178.0110  147.7330 C   0  0  0  0  0  3  0  0  0  0  0  0
  184.6270  178.0690  142.6370 C   0  0  0  0  0  3  0  0  0  0  0  0
  189.2030  177.5540  144.4640 C   0  0  0  0  0  0  0  0  0  0  0  0
  183.3650  178.2720  147.0420 O   0  0  0  0  0  1  0  0  0  0  0  0
  187.9340  177.6610  141.0530 C   0  0  0  0  0  3  0  0  0  0  0  0
  182.3420  178.3250  141.6640 C   0  0  0  0  0  1  0  0  0  0  0  0
  188.7510  177.6230  145.7810 C   0  0  0  0  0  3  0  0  0  0  0  0
  188.2810  177.6490  143.4090 C   0  0  0  0  0  0  0  0  0  0  0  0
  185.1000  178.0480  145.3820 C   0  0  0  0  0  3  0  0  0  0  0  0
  184.3710  178.0690  140.2330 C   0  0  0  0  0  3  0  0  0  0  0  0
  187.4030  177.7850  146.0680 C   0  0  0  0  0  0  0  0  0  0  0  0
  187.0050  177.8490  147.4060 C   0  0  0  0  0  3  0  0  0  0  0  0
  188.7470  177.5790  142.1320 N   0  0  0  0  0  0  0  0  0  0  0  0
  186.5680  177.8230  141.2210 C   0  0  0  0  0  0  0  0  0  0  0  0
  185.7490  177.9050  140.0910 C   0  0  0  0  0  3  0  0  0  0  0  0
  190.7940  175.0780  144.5030 O   0  0  0  0  0  0  0  0  0  0  0  0
  191.3530  176.1640  144.1930 C   0  0  0  0  0  0  0  0  0  0  0  0
  190.5990  177.3860  144.1670 N   0  0  0  0  0  2  0  0  0  0  0  0
  195.5090  176.2310  143.1080 C   0  0  0  0  0  0  0  0  0  0  0  0
  193.1760  176.0170  142.5130 C   0  0  0  0  0  3  0  0  0  0  0  0
  193.4890  176.5690  146.1680 O   0  0  0  0  0  1  0  0  0  0  0  0
  196.8470  176.2500  142.7410 O   0  0  0  0  0  1  0  0  0  0  0  0
  194.5220  176.0350  142.1420 C   0  0  0  0  0  3  0  0  0  0  0  0
  193.8030  176.3890  144.8250 C   0  0  0  0  0  0  0  0  0  0  0  0
  192.7950  176.1930  143.8530 C   0  0  0  0  0  0  0  0  0  0  0  0
  195.1490  176.4070  144.4450 C   0  0  0  0  0  3  0  0  0  0  0  0
  1  9  1  0  0  0  0
  1  6  1  0  0  0  0
  2  5  1  0  0  0  0
  3  7  2  0  0  0  0
  3  2  1  0  0  0  0
  4 11  1  0  0  0  0
  4  7  1  0  0  0  0
  5 14  1  0  0  0  0
  5 16  2  0  0  0  0
  8 12  2  0  0  0  0
 10 19  1  0  0  0  0
 10 18  2  0  0  0  0
 12 16  1  0  0  0  0
 13  2  2  0  0  0  0
 13  8  1  0  0  0  0
 14  1  2  0  0  0  0
 15  4  2  0  0  0  0
 16 17  1  0  0  0  0
 17  6  2  0  0  0  0
 18 13  1  0  0  0  0
 19  3  1  0  0  0  0
 20 15  1  0  0  0  0
 20 19  2  0  0  0  0
 22 21  2  0  0  0  0
 23 22  1  0  0  0  0
 23  8  1  0  0  0  0
 24 31  1  0  0  0  0
 25 30  2  0  0  0  0
 27 24  1  0  0  0  0
 28 25  1  0  0  0  0
 28 24  2  0  0  0  0
 29 26  1  0  0  0  0
 30 22  1  0  0  0  0
 30 29  1  0  0  0  0
 31 29  2  0  0  0  0
M  END
>  <MODEL>
1

>  <REMARK>
 VINA RESULT:      -9.2      0.000      0.000
  Name = 
  2 active torsions:
  status: ('A' for Active; 'I' for Inactive)
    1  A    between atoms: C_5  and  C_30
    2  A    between atoms: C_10  and  N_16
                            x       y       z     vdW  Elec       q    Type
                         _______ _______ _______ _____ _____    ______ ____

>  <TORSDO>
F 2

$$$$
=
 OpenBabel11112416563D

 31 35  0  0  0  0  0  0  0  0999 V2000
  184.5820  178.4870  146.3240 C   0  0  0  0  0  0  0  0  0  0  0  0
  187.2870  177.4120  143.9290 C   0  0  0  0  0  0  0  0  0  0  0  0
  186.7300  177.4950  142.6140 C   0  0  0  0  0  0  0  0  0  0  0  0
  184.8980  177.9800  141.0680 C   0  0  0  0  0  0  0  0  0  0  0  0
  186.5810  177.7370  145.1310 C   0  0  0  0  0  0  0  0  0  0  0  0
  185.2460  178.3620  147.5430 C   0  0  0  0  0  3  0  0  0  0  0  0
  185.4090  177.9110  142.3660 C   0  0  0  0  0  3  0  0  0  0  0  0
  189.2650  176.8650  145.2950 C   0  0  0  0  0  0  0  0  0  0  0  0
  183.2640  178.9200  146.2920 O   0  0  0  0  0  1  0  0  0  0  0  0
  188.8370  176.7290  141.6820 C   0  0  0  0  0  3  0  0  0  0  0  0
  183.4980  178.4250  140.8450 C   0  0  0  0  0  1  0  0  0  0  0  0
  188.5540  177.1870  146.4500 C   0  0  0  0  0  3  0  0  0  0  0  0
  188.6410  176.9750  144.0430 C   0  0  0  0  0  0  0  0  0  0  0  0
  185.2440  178.1780  145.1340 C   0  0  0  0  0  3  0  0  0  0  0  0
  185.7010  177.6320  139.9830 C   0  0  0  0  0  3  0  0  0  0  0  0
  187.2360  177.6170  146.3830 C   0  0  0  0  0  0  0  0  0  0  0  0
  186.5710  177.9280  147.5710 C   0  0  0  0  0  3  0  0  0  0  0  0
  189.3550  176.6540  142.9300 N   0  0  0  0  0  0  0  0  0  0  0  0
  187.5290  177.1450  141.4950 C   0  0  0  0  0  0  0  0  0  0  0  0
  187.0150  177.2150  140.1970 C   0  0  0  0  0  3  0  0  0  0  0  0
  190.2870  174.2220  146.0930 O   0  0  0  0  0  0  0  0  0  0  0  0
  191.1030  175.1220  145.7580 C   0  0  0  0  0  0  0  0  0  0  0  0
  190.6300  176.4200  145.3650 N   0  0  0  0  0  2  0  0  0  0  0  0
  195.3430  174.4310  145.8240 C   0  0  0  0  0  0  0  0  0  0  0  0
  193.4260  175.8320  146.2780 C   0  0  0  0  0  3  0  0  0  0  0  0
  192.3090  172.6370  144.7600 O   0  0  0  0  0  1  0  0  0  0  0  0
  196.7140  174.2240  145.8530 O   0  0  0  0  0  1  0  0  0  0  0  0
  194.8060  175.6250  146.3070 C   0  0  0  0  0  3  0  0  0  0  0  0
  193.1140  173.6450  145.2790 C   0  0  0  0  0  0  0  0  0  0  0  0
  192.5600  174.8520  145.7670 C   0  0  0  0  0  0  0  0  0  0  0  0
  194.4980  173.4460  145.3120 C   0  0  0  0  0  3  0  0  0  0  0  0
  1  6  1  0  0  0  0
  2 13  2  0  0  0  0
  2  5  1  0  0  0  0
  3  2  1  0  0  0  0
  4  7  1  0  0  0  0
  5 14  1  0  0  0  0
  5 16  2  0  0  0  0
  6 17  2  0  0  0  0
  7  3  2  0  0  0  0
  8 23  1  0  0  0  0
  8 12  2  0  0  0  0
  9  1  1  0  0  0  0
 10 18  2  0  0  0  0
 11  4  1  0  0  0  0
 13  8  1  0  0  0  0
 14  1  2  0  0  0  0
 15 20  1  0  0  0  0
 15  4  2  0  0  0  0
 16 12  1  0  0  0  0
 16 17  1  0  0  0  0
 18 13  1  0  0  0  0
 19 10  1  0  0  0  0
 19  3  1  0  0  0  0
 20 19  2  0  0  0  0
 22 30  1  0  0  0  0
 22 21  2  0  0  0  0
 23 22  1  0  0  0  0
 24 27  1  0  0  0  0
 24 28  1  0  0  0  0
 25 28  2  0  0  0  0
 26 29  1  0  0  0  0
 29 31  1  0  0  0  0
 29 30  2  0  0  0  0
 30 25  1  0  0  0  0
 31 24  2  0  0  0  0
M  END
>  <MODEL>
2

>  <REMARK>
 VINA RESULT:      -9.2      1.839      2.032
  Name = 
  2 active torsions:
  status: ('A' for Active; 'I' for Inactive)
    1  A    between atoms: C_5  and  C_30
    2  A    between atoms: C_10  and  N_16
                            x       y       z     vdW  Elec       q    Type
                         _______ _______ _______ _____ _____    ______ ____

>  <TORSDO>
F 2

$$$$
=
 OpenBabel11112416563D

 31 35  0  0  0  0  0  0  0  0999 V2000
  185.4180  177.8750  141.0860 C   0  0  0  0  0  0  0  0  0  0  0  0
  187.4370  177.3170  144.2200 C   0  0  0  0  0  0  0  0  0  0  0  0
  186.5970  177.6760  145.3220 C   0  0  0  0  0  0  0  0  0  0  0  0
  184.4860  178.4820  146.2580 C   0  0  0  0  0  0  0  0  0  0  0  0
  187.0440  177.3850  142.8450 C   0  0  0  0  0  0  0  0  0  0  0  0
  186.3360  177.4940  140.1110 C   0  0  0  0  0  3  0  0  0  0  0  0
  185.2780  178.1400  145.1600 C   0  0  0  0  0  3  0  0  0  0  0  0
  189.6450  176.4880  143.5010 C   0  0  0  0  0  0  0  0  0  0  0  0
  184.1520  178.3090  140.7170 O   0  0  0  0  0  1  0  0  0  0  0  0
  188.3890  177.1160  146.8610 C   0  0  0  0  0  3  0  0  0  0  0  0
  183.0980  178.9680  146.0490 C   0  0  0  0  0  1  0  0  0  0  0  0
  189.2370  176.5650  142.1710 C   0  0  0  0  0  3  0  0  0  0  0  0
  188.7550  176.8610  144.5210 C   0  0  0  0  0  0  0  0  0  0  0  0
  185.7700  177.8200  142.4360 C   0  0  0  0  0  3  0  0  0  0  0  0
  184.9980  178.3670  147.5500 C   0  0  0  0  0  3  0  0  0  0  0  0
  187.9640  177.0030  141.8350 C   0  0  0  0  0  0  0  0  0  0  0  0
  187.6070  177.0590  140.4850 C   0  0  0  0  0  3  0  0  0  0  0  0
  189.1760  176.7790  145.8130 N   0  0  0  0  0  0  0  0  0  0  0  0
  187.0970  177.5680  146.6440 C   0  0  0  0  0  0  0  0  0  0  0  0
  186.3020  177.9100  147.7420 C   0  0  0  0  0  3  0  0  0  0  0  0
  192.0840  178.0900  143.8910 O   0  0  0  0  0  0  0  0  0  0  0  0
  192.1400  176.8380  144.0330 C   0  0  0  0  0  0  0  0  0  0  0  0
  190.9640  176.0350  143.8480 N   0  0  0  0  0  2  0  0  0  0  0  0
  195.8690  174.9260  144.9730 C   0  0  0  0  0  0  0  0  0  0  0  0
  194.2720  175.7580  143.3600 C   0  0  0  0  0  3  0  0  0  0  0  0
  193.0130  176.3630  146.7970 O   0  0  0  0  0  1  0  0  0  0  0  0
  197.0780  174.3060  145.2590 O   0  0  0  0  0  1  0  0  0  0  0  0
  195.4880  175.1340  143.6470 C   0  0  0  0  0  3  0  0  0  0  0  0
  193.8140  175.9660  145.7320 C   0  0  0  0  0  0  0  0  0  0  0  0
  193.4190  176.1820  144.3920 C   0  0  0  0  0  0  0  0  0  0  0  0
  195.0340  175.3410  146.0110 C   0  0  0  0  0  3  0  0  0  0  0  0
  1 14  1  0  0  0  0
  2 13  2  0  0  0  0
  2  3  1  0  0  0  0
  3 19  1  0  0  0  0
  4 15  2  0  0  0  0
  5  2  1  0  0  0  0
  6 17  1  0  0  0  0
  6  1  2  0  0  0  0
  7  3  2  0  0  0  0
  7  4  1  0  0  0  0
  8 23  1  0  0  0  0
  8 13  1  0  0  0  0
  9  1  1  0  0  0  0
 11  4  1  0  0  0  0
 12  8  2  0  0  0  0
 13 18  1  0  0  0  0
 14  5  2  0  0  0  0
 15 20  1  0  0  0  0
 16 12  1  0  0  0  0
 16  5  1  0  0  0  0
 17 16  2  0  0  0  0
 18 10  2  0  0  0  0
 19 10  1  0  0  0  0
 19 20  2  0  0  0  0
 21 22  2  0  0  0  0
 22 30  1  0  0  0  0
 23 22  1  0  0  0  0
 24 27  1  0  0  0  0
 24 31  1  0  0  0  0
 25 28  1  0  0  0  0
 25 30  2  0  0  0  0
 28 24  2  0  0  0  0
 29 31  2  0  0  0  0
 29 26  1  0  0  0  0
 30 29  1  0  0  0  0
M  END
>  <MODEL>
3

>  <REMARK>
 VINA RESULT:      -8.7      1.884      4.115
  Name = 
  2 active torsions:
  status: ('A' for Active; 'I' for Inactive)
    1  A    between atoms: C_5  and  C_30
    2  A    between atoms: C_10  and  N_16
                            x       y       z     vdW  Elec       q    Type
                         _______ _______ _______ _____ _____    ______ ____

>  <TORSDO>
F 2

$$$$
=
 OpenBabel11112416563D

 31 35  0  0  0  0  0  0  0  0999 V2000
  186.4260  177.8570  146.8200 C   0  0  0  0  0  0  0  0  0  0  0  0
  189.3420  176.3580  144.9600 C   0  0  0  0  0  0  0  0  0  0  0  0
  190.4750  176.4440  145.8310 C   0  0  0  0  0  0  0  0  0  0  0  0
  191.5340  177.0690  147.9440 C   0  0  0  0  0  0  0  0  0  0  0  0
  188.0290  176.8210  145.2910 C   0  0  0  0  0  0  0  0  0  0  0  0
  185.4110  177.7120  145.8770 C   0  0  0  0  0  3  0  0  0  0  0  0
  190.4090  177.0010  147.1210 C   0  0  0  0  0  3  0  0  0  0  0  0
  188.4880  175.6470  142.7600 C   0  0  0  0  0  0  0  0  0  0  0  0
  186.1540  178.4400  148.0500 O   0  0  0  0  0  1  0  0  0  0  0  0
  191.8510  175.3920  144.1300 C   0  0  0  0  0  3  0  0  0  0  0  0
  191.4270  177.6640  149.3020 C   0  0  0  0  0  1  0  0  0  0  0  0
  187.2190  176.1060  143.1070 C   0  0  0  0  0  3  0  0  0  0  0  0
  189.5450  175.7700  143.6760 C   0  0  0  0  0  0  0  0  0  0  0  0
  187.7180  177.4160  146.5280 C   0  0  0  0  0  3  0  0  0  0  0  0
  192.7590  176.5780  147.4930 C   0  0  0  0  0  3  0  0  0  0  0  0
  186.9800  176.6840  144.3460 C   0  0  0  0  0  0  0  0  0  0  0  0
  185.6880  177.1260  144.6420 C   0  0  0  0  0  3  0  0  0  0  0  0
  190.7750  175.3150  143.3140 N   0  0  0  0  0  0  0  0  0  0  0  0
  191.7300  175.9510  145.3920 C   0  0  0  0  0  0  0  0  0  0  0  0
  192.8560  176.0200  146.2180 C   0  0  0  0  0  3  0  0  0  0  0  0
  187.8700  172.9090  141.8720 O   0  0  0  0  0  0  0  0  0  0  0  0
  188.4230  173.7070  141.0680 C   0  0  0  0  0  0  0  0  0  0  0  0
  188.7350  175.0480  141.4760 N   0  0  0  0  0  2  0  0  0  0  0  0
  189.3390  172.5190  137.0430 C   0  0  0  0  0  0  0  0  0  0  0  0
  188.2430  173.9990  138.6080 C   0  0  0  0  0  3  0  0  0  0  0  0
  190.1160  171.3850  140.4580 O   0  0  0  0  0  1  0  0  0  0  0  0
  189.6250  172.1490  135.7360 O   0  0  0  0  0  1  0  0  0  0  0  0
  188.5300  173.6270  137.2930 C   0  0  0  0  0  3  0  0  0  0  0  0
  189.5770  172.1470  139.4280 C   0  0  0  0  0  0  0  0  0  0  0  0
  188.7590  173.2700  139.6920 C   0  0  0  0  0  0  0  0  0  0  0  0
  189.8600  171.7820  138.1070 C   0  0  0  0  0  3  0  0  0  0  0  0
  1  9  1  0  0  0  0
  2  5  1  0  0  0  0
  2  3  1  0  0  0  0
  3  7  1  0  0  0  0
  4 11  1  0  0  0  0
  5 14  2  0  0  0  0
  6  1  2  0  0  0  0
  7  4  2  0  0  0  0
  8 12  2  0  0  0  0
  8 13  1  0  0  0  0
 10 19  1  0  0  0  0
 12 16  1  0  0  0  0
 13  2  2  0  0  0  0
 14  1  1  0  0  0  0
 15  4  1  0  0  0  0
 16 17  2  0  0  0  0
 16  5  1  0  0  0  0
 17  6  1  0  0  0  0
 18 13  1  0  0  0  0
 18 10  2  0  0  0  0
 19  3  2  0  0  0  0
 19 20  1  0  0  0  0
 20 15  2  0  0  0  0
 22 23  1  0  0  0  0
 22 21  2  0  0  0  0
 23  8  1  0  0  0  0
 24 28  2  0  0  0  0
 24 31  1  0  0  0  0
 25 30  2  0  0  0  0
 27 24  1  0  0  0  0
 28 25  1  0  0  0  0
 29 30  1  0  0  0  0
 29 26  1  0  0  0  0
 30 22  1  0  0  0  0
 31 29  2  0  0  0  0
M  END
>  <MODEL>
4

>  <REMARK>
 VINA RESULT:      -8.5      3.797      6.614
  Name = 
  2 active torsions:
  status: ('A' for Active; 'I' for Inactive)
    1  A    between atoms: C_5  and  C_30
    2  A    between atoms: C_10  and  N_16
                            x       y       z     vdW  Elec       q    Type
                         _______ _______ _______ _____ _____    ______ ____

>  <TORSDO>
F 2

$$$$
=
 OpenBabel11112416563D

 31 35  0  0  0  0  0  0  0  0999 V2000
  185.4770  177.9070  140.9690 C   0  0  0  0  0  0  0  0  0  0  0  0
  187.3560  176.6790  143.9980 C   0  0  0  0  0  0  0  0  0  0  0  0
  186.6180  177.1110  145.1450 C   0  0  0  0  0  0  0  0  0  0  0  0
  184.7300  178.2580  146.1950 C   0  0  0  0  0  0  0  0  0  0  0  0
  186.9770  176.9420  142.6430 C   0  0  0  0  0  0  0  0  0  0  0  0
  186.2890  177.4260  139.9440 C   0  0  0  0  0  3  0  0  0  0  0  0
  185.4250  177.8520  145.0540 C   0  0  0  0  0  3  0  0  0  0  0  0
  189.3360  175.4710  143.1600 C   0  0  0  0  0  0  0  0  0  0  0  0
  184.3280  178.6240  140.6680 O   0  0  0  0  0  1  0  0  0  0  0  0
  188.2630  176.0620  146.5890 C   0  0  0  0  0  3  0  0  0  0  0  0
  183.4740  179.0390  146.0590 C   0  0  0  0  0  1  0  0  0  0  0  0
  188.9440  175.7420  141.8510 C   0  0  0  0  0  3  0  0  0  0  0  0
  188.5510  175.9340  144.2290 C   0  0  0  0  0  0  0  0  0  0  0  0
  185.8190  177.6660  142.3020 C   0  0  0  0  0  3  0  0  0  0  0  0
  185.2160  177.9310  147.4600 C   0  0  0  0  0  3  0  0  0  0  0  0
  187.7890  176.4620  141.5830 C   0  0  0  0  0  0  0  0  0  0  0  0
  187.4420  176.7050  140.2510 C   0  0  0  0  0  3  0  0  0  0  0  0
  188.9550  175.6570  145.4990 N   0  0  0  0  0  0  0  0  0  0  0  0
  187.0930  176.7900  146.4410 C   0  0  0  0  0  0  0  0  0  0  0  0
  186.3960  177.1970  147.5820 C   0  0  0  0  0  3  0  0  0  0  0  0
  192.0520  176.4910  143.6530 O   0  0  0  0  0  0  0  0  0  0  0  0
  191.8490  175.2480  143.6750 C   0  0  0  0  0  0  0  0  0  0  0  0
  190.5330  174.7240  143.4370 N   0  0  0  0  0  2  0  0  0  0  0  0
  195.0390  172.5050  144.5460 C   0  0  0  0  0  0  0  0  0  0  0  0
  192.9320  173.5430  145.1200 C   0  0  0  0  0  3  0  0  0  0  0  0
  194.1530  174.8930  141.8880 O   0  0  0  0  0  1  0  0  0  0  0  0
  196.0610  171.6150  144.8430 O   0  0  0  0  0  1  0  0  0  0  0  0
  193.9600  172.6470  145.4200 C   0  0  0  0  0  3  0  0  0  0  0  0
  194.0630  174.1610  143.0660 C   0  0  0  0  0  0  0  0  0  0  0  0
  192.9650  174.3110  143.9450 C   0  0  0  0  0  0  0  0  0  0  0  0
  195.0890  173.2610  143.3740 C   0  0  0  0  0  3  0  0  0  0  0  0
  1 14  1  0  0  0  0
  2 13  2  0  0  0  0
  2  3  1  0  0  0  0
  3 19  1  0  0  0  0
  4 15  2  0  0  0  0
  5  2  1  0  0  0  0
  6 17  1  0  0  0  0
  6  1  2  0  0  0  0
  7  3  2  0  0  0  0
  7  4  1  0  0  0  0
  8 23  1  0  0  0  0
  8 13  1  0  0  0  0
  9  1  1  0  0  0  0
 11  4  1  0  0  0  0
 12  8  2  0  0  0  0
 13 18  1  0  0  0  0
 14  5  2  0  0  0  0
 15 20  1  0  0  0  0
 16 12  1  0  0  0  0
 16  5  1  0  0  0  0
 17 16  2  0  0  0  0
 18 10  2  0  0  0  0
 19 10  1  0  0  0  0
 19 20  2  0  0  0  0
 21 22  2  0  0  0  0
 22 30  1  0  0  0  0
 23 22  1  0  0  0  0
 24 27  1  0  0  0  0
 24 28  1  0  0  0  0
 25 28  2  0  0  0  0
 26 29  1  0  0  0  0
 29 31  1  0  0  0  0
 29 30  2  0  0  0  0
 30 25  1  0  0  0  0
 31 24  2  0  0  0  0
M  END
>  <MODEL>
5

>  <REMARK>
 VINA RESULT:      -8.4      2.453      4.544
  Name = 
  2 active torsions:
  status: ('A' for Active; 'I' for Inactive)
    1  A    between atoms: C_5  and  C_30
    2  A    between atoms: C_10  and  N_16
                            x       y       z     vdW  Elec       q    Type
                         _______ _______ _______ _____ _____    ______ ____

>  <TORSDO>
F 2

$$$$
=
 OpenBabel11112416563D

 31 35  0  0  0  0  0  0  0  0999 V2000
  186.3390  178.3000  144.5650 C   0  0  0  0  0  0  0  0  0  0  0  0
  188.9970  175.6280  144.5360 C   0  0  0  0  0  0  0  0  0  0  0  0
  189.8470  175.8790  145.6600 C   0  0  0  0  0  0  0  0  0  0  0  0
  190.4930  177.1650  147.6370 C   0  0  0  0  0  0  0  0  0  0  0  0
  187.8580  176.4210  144.1880 C   0  0  0  0  0  0  0  0  0  0  0  0
  185.5950  177.9430  143.4420 C   0  0  0  0  0  3  0  0  0  0  0  0
  189.6440  176.9490  146.5500 C   0  0  0  0  0  3  0  0  0  0  0  0
  188.5330  174.1890  142.5880 C   0  0  0  0  0  0  0  0  0  0  0  0
  185.9690  179.4040  145.3220 O   0  0  0  0  0  1  0  0  0  0  0  0
  191.1960  173.9520  145.0600 C   0  0  0  0  0  3  0  0  0  0  0  0
  190.2470  178.3060  148.5560 C   0  0  0  0  0  1  0  0  0  0  0  0
  187.4290  174.9790  142.2710 C   0  0  0  0  0  3  0  0  0  0  0  0
  189.3140  174.5080  143.7110 C   0  0  0  0  0  0  0  0  0  0  0  0
  187.4560  177.5460  144.9320 C   0  0  0  0  0  3  0  0  0  0  0  0
  191.5720  176.3090  147.8590 C   0  0  0  0  0  3  0  0  0  0  0  0
  187.0870  176.0770  143.0480 C   0  0  0  0  0  0  0  0  0  0  0  0
  185.9690  176.8330  142.6860 C   0  0  0  0  0  3  0  0  0  0  0  0
  190.3880  173.7220  144.0000 N   0  0  0  0  0  0  0  0  0  0  0  0
  190.9500  175.0220  145.9050 C   0  0  0  0  0  0  0  0  0  0  0  0
  191.7990  175.2390  146.9940 C   0  0  0  0  0  3  0  0  0  0  0  0
  190.4360  174.0610  140.3470 O   0  0  0  0  0  0  0  0  0  0  0  0
  189.8220  173.0160  140.6930 C   0  0  0  0  0  0  0  0  0  0  0  0
  188.8880  173.0520  141.7830 N   0  0  0  0  0  2  0  0  0  0  0  0
  190.4420  169.3480  138.5440 C   0  0  0  0  0  0  0  0  0  0  0  0
  189.4990  171.5690  138.7010 C   0  0  0  0  0  3  0  0  0  0  0  0
  191.3900  170.7910  141.7950 O   0  0  0  0  0  1  0  0  0  0  0  0
  190.6320  168.1700  137.8360 O   0  0  0  0  0  1  0  0  0  0  0  0
  189.6900  170.3840  137.9870 C   0  0  0  0  0  3  0  0  0  0  0  0
  190.8150  170.6830  140.5340 C   0  0  0  0  0  0  0  0  0  0  0  0
  190.0550  171.7390  139.9790 C   0  0  0  0  0  0  0  0  0  0  0  0
  191.0010  169.4990  139.8130 C   0  0  0  0  0  3  0  0  0  0  0  0
  1 14  1  0  0  0  0
  1  9  1  0  0  0  0
  2  3  1  0  0  0  0
  3 19  2  0  0  0  0
  3  7  1  0  0  0  0
  4 15  1  0  0  0  0
  4 11  1  0  0  0  0
  5  2  1  0  0  0  0
  5 14  2  0  0  0  0
  6  1  2  0  0  0  0
  7  4  2  0  0  0  0
  8 13  1  0  0  0  0
 10 19  1  0  0  0  0
 12  8  2  0  0  0  0
 12 16  1  0  0  0  0
 13 18  1  0  0  0  0
 13  2  2  0  0  0  0
 16  5  1  0  0  0  0
 17 16  2  0  0  0  0
 17  6  1  0  0  0  0
 18 10  2  0  0  0  0
 19 20  1  0  0  0  0
 20 15  2  0  0  0  0
 21 22  2  0  0  0  0
 22 23  1  0  0  0  0
 23  8  1  0  0  0  0
 24 31  1  0  0  0  0
 25 30  2  0  0  0  0
 27 24  1  0  0  0  0
 28 24  2  0  0  0  0
 28 25  1  0  0  0  0
 29 26  1  0  0  0  0
 30 29  1  0  0  0  0
 30 22  1  0  0  0  0
 31 29  2  0  0  0  0
M  END
>  <MODEL>
6

>  <REMARK>
 VINA RESULT:      -7.9      4.426      6.668
  Name = 
  2 active torsions:
  status: ('A' for Active; 'I' for Inactive)
    1  A    between atoms: C_5  and  C_30
    2  A    between atoms: C_10  and  N_16
                            x       y       z     vdW  Elec       q    Type
                         _______ _______ _______ _____ _____    ______ ____

>  <TORSDO>
F 2

$$$$
=
 OpenBabel11112416563D

 31 35  0  0  0  0  0  0  0  0999 V2000
  185.2250  177.3910  146.8790 C   0  0  0  0  0  0  0  0  0  0  0  0
  186.8530  177.3630  143.4800 C   0  0  0  0  0  0  0  0  0  0  0  0
  185.8350  177.6970  142.5320 C   0  0  0  0  0  0  0  0  0  0  0  0
  183.5350  178.2910  141.9480 C   0  0  0  0  0  0  0  0  0  0  0  0
  186.6460  177.2660  144.8920 C   0  0  0  0  0  0  0  0  0  0  0  0
  186.3070  177.0570  147.6910 C   0  0  0  0  0  3  0  0  0  0  0  0
  184.5040  177.9680  142.9000 C   0  0  0  0  0  3  0  0  0  0  0  0
  189.2220  176.7760  143.8340 C   0  0  0  0  0  0  0  0  0  0  0  0
  183.9780  177.6230  147.4430 O   0  0  0  0  0  1  0  0  0  0  0  0
  187.4560  177.5050  140.7350 C   0  0  0  0  0  3  0  0  0  0  0  0
  182.1400  178.5710  142.3740 C   0  0  0  0  0  1  0  0  0  0  0  0
  188.9920  176.6880  145.2060 C   0  0  0  0  0  3  0  0  0  0  0  0
  188.1640  177.1100  142.9740 C   0  0  0  0  0  0  0  0  0  0  0  0
  185.3950  177.4940  145.4970 C   0  0  0  0  0  3  0  0  0  0  0  0
  183.8780  178.3500  140.5970 C   0  0  0  0  0  3  0  0  0  0  0  0
  187.7320  176.9260  145.7380 C   0  0  0  0  0  0  0  0  0  0  0  0
  187.5580  176.8250  147.1210 C   0  0  0  0  0  3  0  0  0  0  0  0
  188.4120  177.1900  141.6380 N   0  0  0  0  0  0  0  0  0  0  0  0
  186.1600  177.7630  141.1530 C   0  0  0  0  0  0  0  0  0  0  0  0
  185.1890  178.0860  140.2010 C   0  0  0  0  0  3  0  0  0  0  0  0
  190.4980  174.1890  143.2490 O   0  0  0  0  0  0  0  0  0  0  0  0
  191.1270  175.2540  143.0060 C   0  0  0  0  0  0  0  0  0  0  0  0
  190.5260  176.5290  143.2830 N   0  0  0  0  0  2  0  0  0  0  0  0
  195.1200  175.1650  141.4250 C   0  0  0  0  0  0  0  0  0  0  0  0
  193.5320  175.8610  143.1100 C   0  0  0  0  0  3  0  0  0  0  0  0
  191.8030  173.8490  140.5170 O   0  0  0  0  0  1  0  0  0  0  0  0
  196.4150  175.1460  140.9280 O   0  0  0  0  0  1  0  0  0  0  0  0
  194.8360  175.8430  142.6110 C   0  0  0  0  0  3  0  0  0  0  0  0
  192.7890  174.5190  141.2320 C   0  0  0  0  0  0  0  0  0  0  0  0
  192.4920  175.2030  142.4340 C   0  0  0  0  0  0  0  0  0  0  0  0
  194.0990  174.5060  140.7390 C   0  0  0  0  0  3  0  0  0  0  0  0
  1  9  1  0  0  0  0
  1  6  1  0  0  0  0
  2  5  1  0  0  0  0
  3  7  2  0  0  0  0
  3  2  1  0  0  0  0
  4 11  1  0  0  0  0
  4  7  1  0  0  0  0
  5 14  1  0  0  0  0
  5 16  2  0  0  0  0
  8 12  2  0  0  0  0
 10 19  1  0  0  0  0
 10 18  2  0  0  0  0
 12 16  1  0  0  0  0
 13  2  2  0  0  0  0
 13  8  1  0  0  0  0
 14  1  2  0  0  0  0
 15  4  2  0  0  0  0
 16 17  1  0  0  0  0
 17  6  2  0  0  0  0
 18 13  1  0  0  0  0
 19  3  1  0  0  0  0
 20 15  1  0  0  0  0
 20 19  2  0  0  0  0
 22 21  2  0  0  0  0
 22 23  1  0  0  0  0
 23  8  1  0  0  0  0
 24 28  1  0  0  0  0
 26 29  1  0  0  0  0
 27 24  1  0  0  0  0
 28 25  2  0  0  0  0
 29 30  2  0  0  0  0
 30 22  1  0  0  0  0
 30 25  1  0  0  0  0
 31 29  1  0  0  0  0
 31 24  2  0  0  0  0
M  END
>  <MODEL>
7

>  <REMARK>
 VINA RESULT:      -7.9      1.345      1.878
  Name = 
  2 active torsions:
  status: ('A' for Active; 'I' for Inactive)
    1  A    between atoms: C_5  and  C_30
    2  A    between atoms: C_10  and  N_16
                            x       y       z     vdW  Elec       q    Type
                         _______ _______ _______ _____ _____    ______ ____

>  <TORSDO>
F 2

$$$$
=
 OpenBabel11112416563D

 31 35  0  0  0  0  0  0  0  0999 V2000
  191.6700  173.6790  141.8090 C   0  0  0  0  0  0  0  0  0  0  0  0
  189.3520  175.7870  143.9050 C   0  0  0  0  0  0  0  0  0  0  0  0
  190.0590  176.1050  145.1080 C   0  0  0  0  0  0  0  0  0  0  0  0
  192.0300  175.9950  146.5510 C   0  0  0  0  0  0  0  0  0  0  0  0
  189.8850  174.9970  142.8370 C   0  0  0  0  0  0  0  0  0  0  0  0
  190.8730  173.4440  140.6910 C   0  0  0  0  0  3  0  0  0  0  0  0
  191.3700  175.6660  145.3660 C   0  0  0  0  0  3  0  0  0  0  0  0
  187.2620  176.0320  142.6200 C   0  0  0  0  0  0  0  0  0  0  0  0
  192.9530  173.1500  141.8720 O   0  0  0  0  0  1  0  0  0  0  0  0
  188.1350  177.3590  145.8960 C   0  0  0  0  0  3  0  0  0  0  0  0
  193.4150  175.5130  146.7890 C   0  0  0  0  0  1  0  0  0  0  0  0
  187.8050  175.2590  141.5950 C   0  0  0  0  0  3  0  0  0  0  0  0
  188.0260  176.2960  143.7680 C   0  0  0  0  0  0  0  0  0  0  0  0
  191.1800  174.4460  142.8680 C   0  0  0  0  0  3  0  0  0  0  0  0
  191.3880  176.7770  147.5120 C   0  0  0  0  0  3  0  0  0  0  0  0
  189.0910  174.7450  141.6890 C   0  0  0  0  0  0  0  0  0  0  0  0
  189.5860  173.9770  140.6310 C   0  0  0  0  0  3  0  0  0  0  0  0
  187.4740  177.0530  144.7560 N   0  0  0  0  0  0  0  0  0  0  0  0
  189.4260  176.8990  146.0980 C   0  0  0  0  0  0  0  0  0  0  0  0
  190.0880  177.2280  147.2850 C   0  0  0  0  0  3  0  0  0  0  0  0
  186.3520  178.4190  141.1580 O   0  0  0  0  0  0  0  0  0  0  0  0
  185.5120  177.7330  141.8010 C   0  0  0  0  0  0  0  0  0  0  0  0
  185.9310  176.5640  142.5220 N   0  0  0  0  0  2  0  0  0  0  0  0
  181.3630  178.8460  141.7580 C   0  0  0  0  0  0  0  0  0  0  0  0
  183.3350  178.0100  140.6380 C   0  0  0  0  0  3  0  0  0  0  0  0
  184.1300  178.7510  144.1850 O   0  0  0  0  0  1  0  0  0  0  0  0
  180.0220  179.2010  141.7260 O   0  0  0  0  0  1  0  0  0  0  0  0
  181.9860  178.3670  140.6050 C   0  0  0  0  0  3  0  0  0  0  0  0
  183.4430  178.6130  142.9840 C   0  0  0  0  0  0  0  0  0  0  0  0
  184.0830  178.1260  141.8210 C   0  0  0  0  0  0  0  0  0  0  0  0
  182.0900  178.9690  142.9420 C   0  0  0  0  0  3  0  0  0  0  0  0
  1  9  1  0  0  0  0
  1 14  1  0  0  0  0
  2  3  1  0  0  0  0
  3  7  2  0  0  0  0
  3 19  1  0  0  0  0
  4 11  1  0  0  0  0
  4 15  2  0  0  0  0
  5 14  2  0  0  0  0
  5  2  1  0  0  0  0
  6  1  2  0  0  0  0
  7  4  1  0  0  0  0
  8 13  1  0  0  0  0
 10 19  1  0  0  0  0
 12 16  1  0  0  0  0
 12  8  2  0  0  0  0
 13  2  2  0  0  0  0
 13 18  1  0  0  0  0
 16  5  1  0  0  0  0
 17  6  1  0  0  0  0
 17 16  2  0  0  0  0
 18 10  2  0  0  0  0
 19 20  2  0  0  0  0
 20 15  1  0  0  0  0
 21 22  2  0  0  0  0
 22 30  1  0  0  0  0
 22 23  1  0  0  0  0
 23  8  1  0  0  0  0
 24 31  1  0  0  0  0
 25 30  2  0  0  0  0
 27 24  1  0  0  0  0
 28 25  1  0  0  0  0
 28 24  2  0  0  0  0
 29 26  1  0  0  0  0
 30 29  1  0  0  0  0
 31 29  2  0  0  0  0
M  END
>  <MODEL>
8

>  <REMARK>
 VINA RESULT:      -7.9      2.785      8.972
  Name = 
  2 active torsions:
  status: ('A' for Active; 'I' for Inactive)
    1  A    between atoms: C_5  and  C_30
    2  A    between atoms: C_10  and  N_16
                            x       y       z     vdW  Elec       q    Type
                         _______ _______ _______ _____ _____    ______ ____

>  <TORSDO>
F 2

$$$$
=
 OpenBabel11112416563D

 31 35  0  0  0  0  0  0  0  0999 V2000
  185.7040  178.2540  146.0900 C   0  0  0  0  0  0  0  0  0  0  0  0
  187.8060  176.3020  143.6440 C   0  0  0  0  0  0  0  0  0  0  0  0
  187.2950  176.5910  142.3390 C   0  0  0  0  0  0  0  0  0  0  0  0
  185.7350  177.7150  140.8280 C   0  0  0  0  0  0  0  0  0  0  0  0
  187.2820  176.8480  144.8590 C   0  0  0  0  0  0  0  0  0  0  0  0
  186.2980  177.8880  147.2960 C   0  0  0  0  0  3  0  0  0  0  0  0
  186.2080  177.4560  142.1150 C   0  0  0  0  0  3  0  0  0  0  0  0
  189.4770  175.0690  144.9730 C   0  0  0  0  0  0  0  0  0  0  0  0
  184.6290  179.1310  146.0820 O   0  0  0  0  0  1  0  0  0  0  0  0
  188.9720  175.1290  141.3670 C   0  0  0  0  0  3  0  0  0  0  0  0
  184.5850  178.6350  140.6300 C   0  0  0  0  0  1  0  0  0  0  0  0
  188.9470  175.6150  146.1410 C   0  0  0  0  0  3  0  0  0  0  0  0
  188.9140  175.4080  143.7320 C   0  0  0  0  0  0  0  0  0  0  0  0
  186.1930  177.7390  144.8870 C   0  0  0  0  0  3  0  0  0  0  0  0
  186.3430  177.1120  139.7270 C   0  0  0  0  0  3  0  0  0  0  0  0
  187.8700  176.4890  146.0980 C   0  0  0  0  0  0  0  0  0  0  0  0
  187.3790  177.0070  147.3000 C   0  0  0  0  0  3  0  0  0  0  0  0
  189.4490  174.8610  142.6050 N   0  0  0  0  0  0  0  0  0  0  0  0
  187.8980  175.9890  141.2050 C   0  0  0  0  0  0  0  0  0  0  0  0
  187.4230  176.2500  139.9170 C   0  0  0  0  0  3  0  0  0  0  0  0
  192.3170  175.6450  144.4570 O   0  0  0  0  0  0  0  0  0  0  0  0
  191.9720  174.4700  144.7600 C   0  0  0  0  0  0  0  0  0  0  0  0
  190.5930  174.1640  145.0170 N   0  0  0  0  0  2  0  0  0  0  0  0
  194.8400  171.2810  144.9970 C   0  0  0  0  0  0  0  0  0  0  0  0
  192.6310  172.0960  144.4510 C   0  0  0  0  0  3  0  0  0  0  0  0
  194.7070  174.8820  145.7500 O   0  0  0  0  0  1  0  0  0  0  0  0
  195.7540  170.2390  145.0670 O   0  0  0  0  0  1  0  0  0  0  0  0
  193.5490  171.0470  144.5220 C   0  0  0  0  0  3  0  0  0  0  0  0
  194.2960  173.6200  145.3360 C   0  0  0  0  0  0  0  0  0  0  0  0
  192.9850  173.3930  144.8540 C   0  0  0  0  0  0  0  0  0  0  0  0
  195.2100  172.5640  145.4030 C   0  0  0  0  0  3  0  0  0  0  0  0
  1  6  1  0  0  0  0
  2 13  2  0  0  0  0
  2  5  1  0  0  0  0
  3  2  1  0  0  0  0
  4  7  1  0  0  0  0
  5 14  1  0  0  0  0
  5 16  2  0  0  0  0
  6 17  2  0  0  0  0
  7  3  2  0  0  0  0
  8 23  1  0  0  0  0
  8 12  2  0  0  0  0
  9  1  1  0  0  0  0
 10 18  2  0  0  0  0
 11  4  1  0  0  0  0
 13  8  1  0  0  0  0
 14  1  2  0  0  0  0
 15 20  1  0  0  0  0
 15  4  2  0  0  0  0
 16 12  1  0  0  0  0
 16 17  1  0  0  0  0
 18 13  1  0  0  0  0
 19 10  1  0  0  0  0
 19  3  1  0  0  0  0
 20 19  2  0  0  0  0
 21 22  2  0  0  0  0
 22 30  1  0  0  0  0
 22 23  1  0  0  0  0
 24 27  1  0  0  0  0
 24 31  1  0  0  0  0
 25 28  1  0  0  0  0
 25 30  2  0  0  0  0
 28 24  2  0  0  0  0
 29 31  2  0  0  0  0
 29 26  1  0  0  0  0
 30 29  1  0  0  0  0
M  END
>  <MODEL>
9

>  <REMARK>
 VINA RESULT:      -7.8      2.680      2.874
  Name = 
  2 active torsions:
  status: ('A' for Active; 'I' for Inactive)
    1  A    between atoms: C_5  and  C_30
    2  A    between atoms: C_10  and  N_16
                            x       y       z     vdW  Elec       q    Type
                         _______ _______ _______ _____ _____    ______ ____

>  <TORSDO>
F 2

$$$$
