=
 OpenBabel11112417033D

 31 35  0  0  1  0  0  0  0  0999 V2000
  184.8720  178.1320  146.8960 C   0  0  0  0  0  0  0  0  0  0  0  0
  187.4930  175.8140  145.4070 C   0  0  2  0  0  3  0  0  0  0  0  0
  187.5980  176.1640  143.9280 C   0  0  0  0  0  0  0  0  0  0  0  0
  186.6970  177.2280  141.9320 C   0  0  0  0  0  0  0  0  0  0  0  0
  186.8660  176.9150  146.2300 C   0  0  0  0  0  0  0  0  0  0  0  0
  185.6540  179.0100  147.6490 C   0  0  0  0  0  3  0  0  0  0  0  0
  186.6110  176.9400  143.2960 C   0  0  0  0  0  3  0  0  0  0  0  0
  189.7500  176.6230  146.1850 C   0  0  2  0  0  3  0  0  0  0  0  0
  183.4950  178.2980  146.8460 O   0  0  0  0  0  1  0  0  0  0  0  0
  189.6530  174.8190  143.7530 N   0  0  0  0  0  2  0  0  0  0  0  0
  185.6530  178.0620  141.2820 C   0  0  0  0  0  1  0  0  0  0  0  0
  189.1280  177.5840  147.2000 C   0  0  0  0  0  2  0  0  0  0  0  0
  188.8530  175.3920  146.0030 C   0  0  2  0  0  3  0  0  0  0  0  0
  185.4760  177.0880  146.1910 C   0  0  0  0  0  3  0  0  0  0  0  0
  187.7640  176.7340  141.1790 C   0  0  0  0  0  3  0  0  0  0  0  0
  187.6550  177.8030  146.9960 C   0  0  0  0  0  0  0  0  0  0  0  0
  187.0390  178.8400  147.7050 C   0  0  0  0  0  3  0  0  0  0  0  0
  189.5040  174.3270  145.1180 C   0  0  0  0  0  2  0  0  0  0  0  0
  188.6510  175.6390  143.1480 C   0  0  0  0  0  0  0  0  0  0  0  0
  188.7390  175.9390  141.7870 C   0  0  0  0  0  3  0  0  0  0  0  0
  192.1630  176.8880  144.6910 O   0  0  0  0  0  0  0  0  0  0  0  0
  192.2450  176.3920  145.8480 C   0  0  0  0  0  0  0  0  0  0  0  0
  191.0730  176.2250  146.6470 N   0  0  0  0  0  2  0  0  0  0  0  0
  195.5800  176.3390  144.3590 C   0  0  0  0  0  0  0  0  0  0  0  0
  194.5700  177.1140  146.4950 C   0  0  0  0  0  2  0  0  0  0  0  0
  193.2500  173.5670  145.5840 C   0  0  0  0  0  1  0  0  0  0  0  0
  196.6470  176.3730  143.7680 O   0  0  0  0  0  0  0  0  0  0  0  0
  195.1010  177.5360  145.1210 C   0  0  0  0  0  2  0  0  0  0  0  0
  194.1960  174.7540  145.6580 C   0  0  2  0  0  3  0  0  0  0  0  0
  193.5710  175.9530  146.3990 C   0  0  2  0  0  3  0  0  0  0  0  0
  194.7040  175.1280  144.2660 C   0  0  0  0  0  2  0  0  0  0  0  0
  1  6  1  0  0  0  0
  2  3  1  6  0  0  0
  2 13  1  0  0  0  0
  2  5  1  0  0  0  0
  4  7  2  0  0  0  0
  5 16  2  0  0  0  0
  6 17  2  0  0  0  0
  7  3  1  0  0  0  0
  8 23  1  1  0  0  0
  8 12  1  0  0  0  0
  9  1  1  0  0  0  0
 10 18  1  0  0  0  0
 11  4  1  0  0  0  0
 13 18  1  6  0  0  0
 13  8  1  0  0  0  0
 14  5  1  0  0  0  0
 14  1  2  0  0  0  0
 15 20  2  0  0  0  0
 15  4  1  0  0  0  0
 16 12  1  0  0  0  0
 16 17  1  0  0  0  0
 19 10  1  0  0  0  0
 19  3  2  0  0  0  0
 20 19  1  0  0  0  0
 21 22  2  0  0  0  0
 22 23  1  0  0  0  0
 24 28  1  0  0  0  0
 27 24  2  0  0  0  0
 28 25  1  0  0  0  0
 29 26  1  6  0  0  0
 29 30  1  0  0  0  0
 30 22  1  6  0  0  0
 30 25  1  0  0  0  0
 31 24  1  0  0  0  0
 31 29  1  0  0  0  0
M  END
>  <MODEL>
1

>  <REMARK>
 VINA RESULT:      -8.9      0.000      0.000
  Name = 
  2 active torsions:
  status: ('A' for Active; 'I' for Inactive)
    1  A    between atoms: C_5  and  C_30
    2  A    between atoms: C_10  and  N_16
                            x       y       z     vdW  Elec       q    Type
                         _______ _______ _______ _____ _____    ______ ____

>  <TORSDO>
F 2

$$$$
=
 OpenBabel11112417033D

 31 35  0  0  1  0  0  0  0  0999 V2000
  194.4860  176.4440  145.0380 C   0  0  0  0  0  0  0  0  0  0  0  0
  191.0780  176.9230  143.4210 C   0  0  2  0  0  3  0  0  0  0  0  0
  190.7830  175.6490  142.6380 C   0  0  0  0  0  0  0  0  0  0  0  0
  191.5270  173.5750  141.6030 C   0  0  0  0  0  0  0  0  0  0  0  0
  192.1400  176.7310  144.4790 C   0  0  0  0  0  0  0  0  0  0  0  0
  194.1490  176.2660  146.3820 C   0  0  0  0  0  3  0  0  0  0  0  0
  191.8000  174.7240  142.3500 C   0  0  0  0  0  3  0  0  0  0  0  0
  189.3420  176.7070  145.2350 C   0  0  2  0  0  3  0  0  0  0  0  0
  195.8160  176.3870  144.6440 O   0  0  0  0  0  1  0  0  0  0  0  0
  188.4410  176.3600  142.3630 N   0  0  0  0  0  2  0  0  0  0  0  0
  192.6120  172.6000  141.3200 C   0  0  0  0  0  1  0  0  0  0  0  0
  190.3980  176.7480  146.3410 C   0  0  0  0  0  2  0  0  0  0  0  0
  189.8030  177.5400  144.0320 C   0  0  2  0  0  3  0  0  0  0  0  0
  193.4860  176.6770  144.0920 C   0  0  0  0  0  3  0  0  0  0  0  0
  190.2370  173.3430  141.1240 C   0  0  0  0  0  3  0  0  0  0  0  0
  191.8010  176.5540  145.8400 C   0  0  0  0  0  0  0  0  0  0  0  0
  192.8120  176.3300  146.7810 C   0  0  0  0  0  3  0  0  0  0  0  0
  188.7160  177.6610  142.9620 C   0  0  0  0  0  2  0  0  0  0  0  0
  189.4910  175.4230  142.1160 C   0  0  0  0  0  0  0  0  0  0  0  0
  189.2200  174.2670  141.3800 C   0  0  0  0  0  3  0  0  0  0  0  0
  187.8270  175.5190  147.3370 O   0  0  0  0  0  0  0  0  0  0  0  0
  187.3740  176.5760  146.8160 C   0  0  0  0  0  0  0  0  0  0  0  0
  188.0800  177.2180  145.7550 N   0  0  0  0  0  2  0  0  0  0  0  0
  185.0870  178.9530  145.2480 C   0  0  0  0  0  0  0  0  0  0  0  0
  184.8950  176.7590  146.4020 C   0  0  0  0  0  2  0  0  0  0  0  0
  187.2470  179.1340  148.3970 C   0  0  0  0  0  1  0  0  0  0  0  0
  184.3920  179.7440  144.6310 O   0  0  0  0  0  0  0  0  0  0  0  0
  184.9120  177.4790  145.0500 C   0  0  0  0  0  2  0  0  0  0  0  0
  186.1150  178.6970  147.4830 C   0  0  2  0  0  3  0  0  0  0  0  0
  186.0770  177.1670  147.2920 C   0  0  2  0  0  3  0  0  0  0  0  0
  186.1710  179.4500  146.1540 C   0  0  0  0  0  2  0  0  0  0  0  0
  1  6  1  0  0  0  0
  2  3  1  1  0  0  0
  2 13  1  0  0  0  0
  2  5  1  0  0  0  0
  4  7  2  0  0  0  0
  5 16  2  0  0  0  0
  6 17  2  0  0  0  0
  7  3  1  0  0  0  0
  8 23  1  1  0  0  0
  8 12  1  0  0  0  0
  9  1  1  0  0  0  0
 10 18  1  0  0  0  0
 11  4  1  0  0  0  0
 13 18  1  6  0  0  0
 13  8  1  0  0  0  0
 14  5  1  0  0  0  0
 14  1  2  0  0  0  0
 15 20  2  0  0  0  0
 15  4  1  0  0  0  0
 16 12  1  0  0  0  0
 16 17  1  0  0  0  0
 19 10  1  0  0  0  0
 19  3  2  0  0  0  0
 20 19  1  0  0  0  0
 22 21  2  0  0  0  0
 23 22  1  0  0  0  0
 24 31  1  0  0  0  0
 25 30  1  0  0  0  0
 27 24  2  0  0  0  0
 28 24  1  0  0  0  0
 28 25  1  0  0  0  0
 29 26  1  1  0  0  0
 30 22  1  6  0  0  0
 30 29  1  0  0  0  0
 31 29  1  0  0  0  0
M  END
>  <MODEL>
2

>  <REMARK>
 VINA RESULT:      -8.4      2.230      7.162
  Name = 
  2 active torsions:
  status: ('A' for Active; 'I' for Inactive)
    1  A    between atoms: C_5  and  C_30
    2  A    between atoms: C_10  and  N_16
                            x       y       z     vdW  Elec       q    Type
                         _______ _______ _______ _____ _____    ______ ____

>  <TORSDO>
F 2

$$$$
=
 OpenBabel11112417033D

 31 35  0  0  1  0  0  0  0  0999 V2000
  185.3240  177.8020  146.9590 C   0  0  0  0  0  0  0  0  0  0  0  0
  187.4960  175.7500  144.6080 C   0  0  2  0  0  3  0  0  0  0  0  0
  187.2350  176.2740  143.2020 C   0  0  0  0  0  0  0  0  0  0  0  0
  185.8750  177.5410  141.6290 C   0  0  0  0  0  0  0  0  0  0  0  0
  187.0920  176.7290  145.6870 C   0  0  0  0  0  0  0  0  0  0  0  0
  186.2680  178.6070  147.6000 C   0  0  0  0  0  3  0  0  0  0  0  0
  186.1250  177.0920  142.9270 C   0  0  0  0  0  3  0  0  0  0  0  0
  189.8760  176.5240  144.9060 C   0  0  2  0  0  3  0  0  0  0  0  0
  183.9770  177.9350  147.2660 O   0  0  0  0  0  1  0  0  0  0  0  0
  189.1820  175.0160  142.3700 N   0  0  0  0  0  2  0  0  0  0  0  0
  184.7050  178.4160  141.3590 C   0  0  0  0  0  1  0  0  0  0  0  0
  189.5230  177.3410  146.1500 C   0  0  0  0  0  2  0  0  0  0  0  0
  188.9590  175.2980  144.8000 C   0  0  2  0  0  3  0  0  0  0  0  0
  185.7340  176.8660  146.0080 C   0  0  0  0  0  3  0  0  0  0  0  0
  186.7240  177.1690  140.5850 C   0  0  0  0  0  3  0  0  0  0  0  0
  188.0460  177.5410  146.3390 C   0  0  0  0  0  0  0  0  0  0  0  0
  187.6240  178.4700  147.2970 C   0  0  0  0  0  3  0  0  0  0  0  0
  189.3720  174.3640  143.6610 C   0  0  0  0  0  2  0  0  0  0  0  0
  188.0640  175.8740  142.1320 C   0  0  0  0  0  0  0  0  0  0  0  0
  187.8160  176.3350  140.8370 C   0  0  0  0  0  3  0  0  0  0  0  0
  191.9810  177.5420  143.2750 O   0  0  0  0  0  0  0  0  0  0  0  0
  192.2790  176.6670  144.1350 C   0  0  0  0  0  0  0  0  0  0  0  0
  191.2710  176.1120  144.9790 N   0  0  0  0  0  2  0  0  0  0  0  0
  193.6360  173.4140  145.0930 C   0  0  0  0  0  0  0  0  0  0  0  0
  194.0250  175.0660  143.2770 C   0  0  0  0  0  2  0  0  0  0  0  0
  193.8090  176.8700  146.7190 C   0  0  0  0  0  1  0  0  0  0  0  0
  193.9800  172.2890  145.4170 O   0  0  0  0  0  0  0  0  0  0  0  0
  193.3660  173.7370  143.6560 C   0  0  0  0  0  2  0  0  0  0  0  0
  194.0800  175.7680  145.7090 C   0  0  2  0  0  3  0  0  0  0  0  0
  193.6950  176.1840  144.2750 C   0  0  2  0  0  3  0  0  0  0  0  0
  193.4100  174.4640  146.1380 C   0  0  0  0  0  2  0  0  0  0  0  0
  1  9  1  0  0  0  0
  1  6  1  0  0  0  0
  2  3  1  6  0  0  0
  2 13  1  0  0  0  0
  2  5  1  0  0  0  0
  4  7  2  0  0  0  0
  5 14  1  0  0  0  0
  5 16  2  0  0  0  0
  7  3  1  0  0  0  0
  8 23  1  1  0  0  0
  8 12  1  0  0  0  0
 10 18  1  0  0  0  0
 11  4  1  0  0  0  0
 12 16  1  0  0  0  0
 13 18  1  6  0  0  0
 13  8  1  0  0  0  0
 14  1  2  0  0  0  0
 15 20  2  0  0  0  0
 15  4  1  0  0  0  0
 16 17  1  0  0  0  0
 17  6  2  0  0  0  0
 19 10  1  0  0  0  0
 19  3  2  0  0  0  0
 20 19  1  0  0  0  0
 21 22  2  0  0  0  0
 22 23  1  0  0  0  0
 24 27  2  0  0  0  0
 24 31  1  0  0  0  0
 25 28  1  0  0  0  0
 25 30  1  0  0  0  0
 28 24  1  0  0  0  0
 29 31  1  0  0  0  0
 29 26  1  1  0  0  0
 30 22  1  1  0  0  0
 30 29  1  0  0  0  0
M  END
>  <MODEL>
3

>  <REMARK>
 VINA RESULT:      -8.2      1.392      2.020
  Name = 
  2 active torsions:
  status: ('A' for Active; 'I' for Inactive)
    1  A    between atoms: C_5  and  C_30
    2  A    between atoms: C_10  and  N_16
                            x       y       z     vdW  Elec       q    Type
                         _______ _______ _______ _____ _____    ______ ____

>  <TORSDO>
F 2

$$$$
=
 OpenBabel11112417033D

 31 35  0  0  1  0  0  0  0  0999 V2000
  185.4170  177.8420  147.0310 C   0  0  0  0  0  0  0  0  0  0  0  0
  187.6180  175.7200  144.7710 C   0  0  2  0  0  3  0  0  0  0  0  0
  187.3900  176.2130  143.3480 C   0  0  0  0  0  0  0  0  0  0  0  0
  186.0700  177.4530  141.7200 C   0  0  0  0  0  0  0  0  0  0  0  0
  187.2010  176.7260  145.8190 C   0  0  0  0  0  0  0  0  0  0  0  0
  186.3540  178.6550  147.6720 C   0  0  0  0  0  3  0  0  0  0  0  0
  186.2920  177.0320  143.0330 C   0  0  0  0  0  3  0  0  0  0  0  0
  189.9980  176.4830  145.0980 C   0  0  2  0  0  3  0  0  0  0  0  0
  184.0650  177.9910  147.3090 O   0  0  0  0  0  1  0  0  0  0  0  0
  189.3430  174.9220  142.5840 N   0  0  0  0  0  2  0  0  0  0  0  0
  184.9120  178.3300  141.4070 C   0  0  0  0  0  1  0  0  0  0  0  0
  189.6270  177.3310  146.3160 C   0  0  0  0  0  2  0  0  0  0  0  0
  189.0740  175.2620  145.0020 C   0  0  2  0  0  3  0  0  0  0  0  0
  185.8390  176.8810  146.1100 C   0  0  0  0  0  3  0  0  0  0  0  0
  186.9360  177.0510  140.7020 C   0  0  0  0  0  3  0  0  0  0  0  0
  188.1490  177.5470  146.4710 C   0  0  0  0  0  0  0  0  0  0  0  0
  187.7150  178.5010  147.3990 C   0  0  0  0  0  3  0  0  0  0  0  0
  189.5020  174.2990  143.8930 C   0  0  0  0  0  2  0  0  0  0  0  0
  188.2360  175.7820  142.3040 C   0  0  0  0  0  0  0  0  0  0  0  0
  188.0170  176.2150  140.9950 C   0  0  0  0  0  3  0  0  0  0  0  0
  191.1340  175.1270  147.3330 O   0  0  0  0  0  0  0  0  0  0  0  0
  191.8930  175.3800  146.3570 C   0  0  0  0  0  0  0  0  0  0  0  0
  191.3880  176.0620  145.2090 N   0  0  0  0  0  2  0  0  0  0  0  0
  194.6680  176.1790  144.1210 C   0  0  0  0  0  0  0  0  0  0  0  0
  194.2680  176.1920  146.5740 C   0  0  0  0  0  2  0  0  0  0  0  0
  192.9200  172.8960  145.0030 C   0  0  0  0  0  1  0  0  0  0  0  0
  195.5220  176.5140  143.3150 O   0  0  0  0  0  0  0  0  0  0  0  0
  194.3670  177.0440  145.3050 C   0  0  0  0  0  2  0  0  0  0  0  0
  193.7890  174.1290  145.1870 C   0  0  2  0  0  3  0  0  0  0  0  0
  193.3410  174.9830  146.3910 C   0  0  2  0  0  3  0  0  0  0  0  0
  193.8630  174.9370  143.8930 C   0  0  0  0  0  2  0  0  0  0  0  0
  1  9  1  0  0  0  0
  1  6  1  0  0  0  0
  2  3  1  6  0  0  0
  2 13  1  0  0  0  0
  2  5  1  0  0  0  0
  4  7  2  0  0  0  0
  5 14  1  0  0  0  0
  5 16  2  0  0  0  0
  7  3  1  0  0  0  0
  8 23  1  1  0  0  0
  8 12  1  0  0  0  0
 10 18  1  0  0  0  0
 11  4  1  0  0  0  0
 12 16  1  0  0  0  0
 13 18  1  6  0  0  0
 13  8  1  0  0  0  0
 14  1  2  0  0  0  0
 15 20  2  0  0  0  0
 15  4  1  0  0  0  0
 16 17  1  0  0  0  0
 17  6  2  0  0  0  0
 19 10  1  0  0  0  0
 19  3  2  0  0  0  0
 20 19  1  0  0  0  0
 22 21  2  0  0  0  0
 23 22  1  0  0  0  0
 24 28  1  0  0  0  0
 27 24  2  0  0  0  0
 28 25  1  0  0  0  0
 29 26  1  6  0  0  0
 29 30  1  0  0  0  0
 30 22  1  6  0  0  0
 30 25  1  0  0  0  0
 31 24  1  0  0  0  0
 31 29  1  0  0  0  0
M  END
>  <MODEL>
4

>  <REMARK>
 VINA RESULT:      -8.0      1.066      1.100
  Name = 
  2 active torsions:
  status: ('A' for Active; 'I' for Inactive)
    1  A    between atoms: C_5  and  C_30
    2  A    between atoms: C_10  and  N_16
                            x       y       z     vdW  Elec       q    Type
                         _______ _______ _______ _____ _____    ______ ____

>  <TORSDO>
F 2

$$$$
=
 OpenBabel11112417033D

 31 35  0  0  1  0  0  0  0  0999 V2000
  186.3060  177.9020  140.8730 C   0  0  0  0  0  0  0  0  0  0  0  0
  188.8400  177.8940  143.7070 C   0  0  2  0  0  3  0  0  0  0  0  0
  188.0770  177.5290  144.9750 C   0  0  0  0  0  0  0  0  0  0  0  0
  185.9830  177.2740  146.1910 C   0  0  0  0  0  0  0  0  0  0  0  0
  188.1100  177.4940  142.4450 C   0  0  0  0  0  0  0  0  0  0  0  0
  186.6470  176.7430  140.1720 C   0  0  0  0  0  3  0  0  0  0  0  0
  186.6730  177.5780  145.0160 C   0  0  0  0  0  3  0  0  0  0  0  0
  190.2480  175.8180  143.4580 C   0  0  2  0  0  3  0  0  0  0  0  0
  185.2390  178.6810  140.4460 O   0  0  0  0  0  1  0  0  0  0  0  0
  190.2080  177.1880  146.1610 N   0  0  0  0  0  2  0  0  0  0  0  0
  184.4980  177.3180  146.2120 C   0  0  0  0  0  1  0  0  0  0  0  0
  189.6860  175.5250  142.0660 C   0  0  0  0  0  2  0  0  0  0  0  0
  190.2770  177.3320  143.7100 C   0  0  2  0  0  3  0  0  0  0  0  0
  187.0350  178.2760  142.0030 C   0  0  0  0  0  3  0  0  0  0  0  0
  186.6880  176.9290  147.3460 C   0  0  0  0  0  3  0  0  0  0  0  0
  188.4570  176.3230  141.7340 C   0  0  0  0  0  0  0  0  0  0  0  0
  187.7250  175.9630  140.5970 C   0  0  0  0  0  3  0  0  0  0  0  0
  190.9750  177.6860  145.0250 C   0  0  0  0  0  2  0  0  0  0  0  0
  188.7800  177.2150  146.1590 C   0  0  0  0  0  0  0  0  0  0  0  0
  188.0850  176.9010  147.3290 C   0  0  0  0  0  3  0  0  0  0  0  0
  191.0640  173.8490  145.3510 O   0  0  0  0  0  0  0  0  0  0  0  0
  191.9300  174.2680  144.5340 C   0  0  0  0  0  0  0  0  0  0  0  0
  191.5890  175.2590  143.5640 N   0  0  0  0  0  2  0  0  0  0  0  0
  195.1390  175.9230  143.9800 C   0  0  0  0  0  0  0  0  0  0  0  0
  194.1660  174.4030  145.6890 C   0  0  0  0  0  2  0  0  0  0  0  0
  193.3090  173.1350  142.1100 C   0  0  0  0  0  1  0  0  0  0  0  0
  196.1510  176.5750  143.7820 O   0  0  0  0  0  0  0  0  0  0  0  0
  194.5430  175.8490  145.3510 C   0  0  0  0  0  2  0  0  0  0  0  0
  194.0800  173.8190  143.2270 C   0  0  2  0  0  3  0  0  0  0  0  0
  193.3380  173.7450  144.5770 C   0  0  2  0  0  3  0  0  0  0  0  0
  194.4400  175.2520  142.8370 C   0  0  0  0  0  2  0  0  0  0  0  0
  1 14  1  0  0  0  0
  2  5  1  6  0  0  0
  2 13  1  0  0  0  0
  2  3  1  0  0  0  0
  3  7  2  0  0  0  0
  3 19  1  0  0  0  0
  4 11  1  0  0  0  0
  4 15  2  0  0  0  0
  6 17  1  0  0  0  0
  6  1  2  0  0  0  0
  7  4  1  0  0  0  0
  8 23  1  6  0  0  0
  8 13  1  0  0  0  0
  9  1  1  0  0  0  0
 12  8  1  0  0  0  0
 13 18  1  1  0  0  0
 14  5  2  0  0  0  0
 16 12  1  0  0  0  0
 16  5  1  0  0  0  0
 17 16  2  0  0  0  0
 18 10  1  0  0  0  0
 19 10  1  0  0  0  0
 19 20  2  0  0  0  0
 20 15  1  0  0  0  0
 22 21  2  0  0  0  0
 23 22  1  0  0  0  0
 24 28  1  0  0  0  0
 27 24  2  0  0  0  0
 28 25  1  0  0  0  0
 29 26  1  6  0  0  0
 29 30  1  0  0  0  0
 30 22  1  6  0  0  0
 30 25  1  0  0  0  0
 31 29  1  0  0  0  0
 31 24  1  0  0  0  0
M  END
>  <MODEL>
5

>  <REMARK>
 VINA RESULT:      -7.9      1.962      4.251
  Name = 
  2 active torsions:
  status: ('A' for Active; 'I' for Inactive)
    1  A    between atoms: C_5  and  C_30
    2  A    between atoms: C_10  and  N_16
                            x       y       z     vdW  Elec       q    Type
                         _______ _______ _______ _____ _____    ______ ____

>  <TORSDO>
F 2

$$$$
=
 OpenBabel11112417033D

 31 35  0  0  1  0  0  0  0  0999 V2000
  191.9060  173.1670  141.5220 C   0  0  0  0  0  0  0  0  0  0  0  0
  191.0510  174.0110  145.1300 C   0  0  2  0  0  3  0  0  0  0  0  0
  192.1030  175.0040  145.6080 C   0  0  0  0  0  0  0  0  0  0  0  0
  194.2700  176.0850  145.3540 C   0  0  0  0  0  0  0  0  0  0  0  0
  190.9580  173.9310  143.6240 C   0  0  0  0  0  0  0  0  0  0  0  0
  190.9020  173.8370  140.8200 C   0  0  0  0  0  3  0  0  0  0  0  0
  193.2970  175.1970  144.8910 C   0  0  0  0  0  3  0  0  0  0  0  0
  189.0360  175.5240  145.0970 C   0  0  2  0  0  3  0  0  0  0  0  0
  192.8790  172.4570  140.8320 O   0  0  0  0  0  1  0  0  0  0  0  0
  190.7410  175.4890  147.6020 N   0  0  0  0  0  2  0  0  0  0  0  0
  195.5200  176.2870  144.5760 C   0  0  0  0  0  1  0  0  0  0  0  0
  188.7860  175.2670  143.6100 C   0  0  0  0  0  2  0  0  0  0  0  0
  189.6660  174.2860  145.7500 C   0  0  2  0  0  3  0  0  0  0  0  0
  191.9330  173.2130  142.9180 C   0  0  0  0  0  3  0  0  0  0  0  0
  194.0700  176.7830  146.5460 C   0  0  0  0  0  3  0  0  0  0  0  0
  189.9410  174.6060  142.9120 C   0  0  0  0  0  0  0  0  0  0  0  0
  189.9180  174.5460  141.5140 C   0  0  0  0  0  3  0  0  0  0  0  0
  189.7910  174.4340  147.2680 C   0  0  0  0  0  2  0  0  0  0  0  0
  191.9290  175.6870  146.8310 C   0  0  0  0  0  0  0  0  0  0  0  0
  192.9000  176.5820  147.2840 C   0  0  0  0  0  3  0  0  0  0  0  0
  188.6230  177.7320  146.8520 O   0  0  0  0  0  0  0  0  0  0  0  0
  187.6350  176.9840  146.6130 C   0  0  0  0  0  0  0  0  0  0  0  0
  187.7760  175.8570  145.7470 N   0  0  0  0  0  2  0  0  0  0  0  0
  184.7360  178.8590  145.4200 C   0  0  0  0  0  0  0  0  0  0  0  0
  185.1450  176.6330  146.4480 C   0  0  0  0  0  2  0  0  0  0  0  0
  187.1290  179.3860  148.3540 C   0  0  0  0  0  1  0  0  0  0  0  0
  183.8260  179.5010  144.9220 O   0  0  0  0  0  0  0  0  0  0  0  0
  184.8630  177.3920  145.1480 C   0  0  0  0  0  2  0  0  0  0  0  0
  186.0270  178.7470  147.5260 C   0  0  2  0  0  3  0  0  0  0  0  0
  186.2990  177.2560  147.2450 C   0  0  2  0  0  3  0  0  0  0  0  0
  185.7780  179.5460  146.2480 C   0  0  0  0  0  2  0  0  0  0  0  0
  1 14  1  0  0  0  0
  2  5  1  6  0  0  0
  2  3  1  0  0  0  0
  2 13  1  0  0  0  0
  3 19  1  0  0  0  0
  4 15  2  0  0  0  0
  6 17  1  0  0  0  0
  6  1  2  0  0  0  0
  7  4  1  0  0  0  0
  7  3  2  0  0  0  0
  8 23  1  1  0  0  0
  8 13  1  0  0  0  0
  9  1  1  0  0  0  0
 11  4  1  0  0  0  0
 12  8  1  0  0  0  0
 13 18  1  1  0  0  0
 14  5  2  0  0  0  0
 15 20  1  0  0  0  0
 16 12  1  0  0  0  0
 16  5  1  0  0  0  0
 17 16  2  0  0  0  0
 18 10  1  0  0  0  0
 19 20  2  0  0  0  0
 19 10  1  0  0  0  0
 22 21  2  0  0  0  0
 23 22  1  0  0  0  0
 24 31  1  0  0  0  0
 25 30  1  0  0  0  0
 27 24  2  0  0  0  0
 28 24  1  0  0  0  0
 28 25  1  0  0  0  0
 29 26  1  6  0  0  0
 30 22  1  6  0  0  0
 30 29  1  0  0  0  0
 31 29  1  0  0  0  0
M  END
>  <MODEL>
6

>  <REMARK>
 VINA RESULT:      -7.8      2.177      7.802
  Name = 
  2 active torsions:
  status: ('A' for Active; 'I' for Inactive)
    1  A    between atoms: C_5  and  C_30
    2  A    between atoms: C_10  and  N_16
                            x       y       z     vdW  Elec       q    Type
                         _______ _______ _______ _____ _____    ______ ____

>  <TORSDO>
F 2

$$$$
=
 OpenBabel11112417033D

 31 35  0  0  1  0  0  0  0  0999 V2000
  193.5600  172.3550  140.9480 C   0  0  0  0  0  0  0  0  0  0  0  0
  191.5090  173.2630  144.0190 C   0  0  2  0  0  3  0  0  0  0  0  0
  192.3170  174.2960  144.7950 C   0  0  0  0  0  0  0  0  0  0  0  0
  194.4220  175.4280  145.2600 C   0  0  0  0  0  0  0  0  0  0  0  0
  191.9380  173.1440  142.5740 C   0  0  0  0  0  0  0  0  0  0  0  0
  192.8450  172.9810  139.9240 C   0  0  0  0  0  3  0  0  0  0  0  0
  193.6800  174.5040  144.5220 C   0  0  0  0  0  3  0  0  0  0  0  0
  189.6010  174.7200  143.2520 C   0  0  2  0  0  3  0  0  0  0  0  0
  194.7220  171.6560  140.6540 O   0  0  0  0  0  1  0  0  0  0  0  0
  190.3480  174.7930  146.1880 N   0  0  0  0  0  2  0  0  0  0  0  0
  195.8590  175.6450  144.9500 C   0  0  0  0  0  1  0  0  0  0  0  0
  189.8790  174.4200  141.7780 C   0  0  0  0  0  2  0  0  0  0  0  0
  189.9910  173.5160  144.1200 C   0  0  2  0  0  3  0  0  0  0  0  0
  193.1070  172.4360  142.2670 C   0  0  0  0  0  3  0  0  0  0  0  0
  193.8140  176.1500  146.2900 C   0  0  0  0  0  3  0  0  0  0  0  0
  191.2140  173.7740  141.5370 C   0  0  0  0  0  0  0  0  0  0  0  0
  191.6720  173.6800  140.2180 C   0  0  0  0  0  3  0  0  0  0  0  0
  189.5870  173.7050  145.5840 C   0  0  0  0  0  2  0  0  0  0  0  0
  191.7230  175.0030  145.8620 C   0  0  0  0  0  0  0  0  0  0  0  0
  192.4660  175.9360  146.5900 C   0  0  0  0  0  3  0  0  0  0  0  0
  188.5690  177.2240  144.1400 O   0  0  0  0  0  0  0  0  0  0  0  0
  187.7380  176.3150  143.8660 C   0  0  0  0  0  0  0  0  0  0  0  0
  188.1890  175.0350  143.4220 N   0  0  0  0  0  2  0  0  0  0  0  0
  185.8020  179.4080  144.0320 C   0  0  0  0  0  0  0  0  0  0  0  0
  185.6640  177.2580  142.7900 C   0  0  0  0  0  2  0  0  0  0  0  0
  186.4120  176.5990  146.5530 C   0  0  0  0  0  1  0  0  0  0  0  0
  185.2540  180.4980  144.0690 O   0  0  0  0  0  0  0  0  0  0  0  0
  186.0600  178.7360  142.7190 C   0  0  0  0  0  2  0  0  0  0  0  0
  185.8740  177.2940  145.3130 C   0  0  2  0  0  3  0  0  0  0  0  0
  186.2630  176.5560  144.0160 C   0  0  2  0  0  3  0  0  0  0  0  0
  186.2880  178.7650  145.2940 C   0  0  0  0  0  2  0  0  0  0  0  0
  1 14  1  0  0  0  0
  2  5  1  6  0  0  0
  2 13  1  0  0  0  0
  2  3  1  0  0  0  0
  3 19  1  0  0  0  0
  4 15  2  0  0  0  0
  6 17  1  0  0  0  0
  6  1  2  0  0  0  0
  7  3  2  0  0  0  0
  7  4  1  0  0  0  0
  8 23  1  6  0  0  0
  8 13  1  0  0  0  0
  9  1  1  0  0  0  0
 11  4  1  0  0  0  0
 12  8  1  0  0  0  0
 13 18  1  1  0  0  0
 14  5  2  0  0  0  0
 15 20  1  0  0  0  0
 16 12  1  0  0  0  0
 16  5  1  0  0  0  0
 17 16  2  0  0  0  0
 18 10  1  0  0  0  0
 19 10  1  0  0  0  0
 19 20  2  0  0  0  0
 22 21  2  0  0  0  0
 23 22  1  0  0  0  0
 24 27  2  0  0  0  0
 24 31  1  0  0  0  0
 25 30  1  0  0  0  0
 28 25  1  0  0  0  0
 28 24  1  0  0  0  0
 29 26  1  1  0  0  0
 30 22  1  6  0  0  0
 30 29  1  0  0  0  0
 31 29  1  0  0  0  0
M  END
>  <MODEL>
7

>  <REMARK>
 VINA RESULT:      -7.7      2.580      8.175
  Name = 
  2 active torsions:
  status: ('A' for Active; 'I' for Inactive)
    1  A    between atoms: C_5  and  C_30
    2  A    between atoms: C_10  and  N_16
                            x       y       z     vdW  Elec       q    Type
                         _______ _______ _______ _____ _____    ______ ____

>  <TORSDO>
F 2

$$$$
=
 OpenBabel11112417033D

 31 35  0  0  1  0  0  0  0  0999 V2000
  192.0320  171.1280  143.0480 C   0  0  0  0  0  0  0  0  0  0  0  0
  191.0590  173.7120  145.6620 C   0  0  2  0  0  3  0  0  0  0  0  0
  192.2910  174.5760  145.9030 C   0  0  0  0  0  0  0  0  0  0  0  0
  194.6900  174.9460  145.7200 C   0  0  0  0  0  0  0  0  0  0  0  0
  191.1150  172.9590  144.3530 C   0  0  0  0  0  0  0  0  0  0  0  0
  191.3460  171.5810  141.9200 C   0  0  0  0  0  3  0  0  0  0  0  0
  193.5620  174.1640  145.4660 C   0  0  0  0  0  3  0  0  0  0  0  0
  189.5760  175.4090  144.5350 C   0  0  2  0  0  3  0  0  0  0  0  0
  192.8320  169.9970  142.9650 O   0  0  0  0  0  1  0  0  0  0  0  0
  190.9120  176.2010  147.1370 N   0  0  0  0  0  2  0  0  0  0  0  0
  196.0240  174.5030  145.2380 C   0  0  0  0  0  1  0  0  0  0  0  0
  189.4300  174.5440  143.2810 C   0  0  0  0  0  2  0  0  0  0  0  0
  189.7500  174.5200  145.7730 C   0  0  2  0  0  3  0  0  0  0  0  0
  191.9160  171.8130  144.2600 C   0  0  0  0  0  3  0  0  0  0  0  0
  194.5660  176.1440  146.4260 C   0  0  0  0  0  3  0  0  0  0  0  0
  190.4180  173.4150  143.2110 C   0  0  0  0  0  0  0  0  0  0  0  0
  190.5350  172.7150  142.0050 C   0  0  0  0  0  3  0  0  0  0  0  0
  189.7430  175.3310  147.0720 C   0  0  0  0  0  2  0  0  0  0  0  0
  192.1840  175.7700  146.6490 C   0  0  0  0  0  0  0  0  0  0  0  0
  193.3140  176.5540  146.8900 C   0  0  0  0  0  3  0  0  0  0  0  0
  189.2400  177.9740  143.3370 O   0  0  0  0  0  0  0  0  0  0  0  0
  188.2930  177.5310  144.0430 C   0  0  0  0  0  0  0  0  0  0  0  0
  188.3990  176.2560  144.6760 N   0  0  0  0  0  2  0  0  0  0  0  0
  185.3590  176.9690  146.1460 C   0  0  0  0  0  0  0  0  0  0  0  0
  186.9120  178.8540  145.6830 C   0  0  0  0  0  2  0  0  0  0  0  0
  185.8300  177.1490  142.3560 C   0  0  0  0  0  1  0  0  0  0  0  0
  184.4330  176.6870  146.8890 O   0  0  0  0  0  0  0  0  0  0  0  0
  186.5350  177.7390  146.6620 C   0  0  0  0  0  2  0  0  0  0  0  0
  185.7520  177.6300  143.7950 C   0  0  2  0  0  3  0  0  0  0  0  0
  187.0440  178.3420  144.2430 C   0  0  2  0  0  3  0  0  0  0  0  0
  185.3630  176.4840  144.7280 C   0  0  0  0  0  2  0  0  0  0  0  0
  1 14  1  0  0  0  0
  2  5  1  6  0  0  0
  2 13  1  0  0  0  0
  2  3  1  0  0  0  0
  3 19  1  0  0  0  0
  4 15  2  0  0  0  0
  6 17  1  0  0  0  0
  6  1  2  0  0  0  0
  7  4  1  0  0  0  0
  7  3  2  0  0  0  0
  8 23  1  1  0  0  0
  8 13  1  0  0  0  0
  9  1  1  0  0  0  0
 11  4  1  0  0  0  0
 12  8  1  0  0  0  0
 13 18  1  1  0  0  0
 14  5  2  0  0  0  0
 15 20  1  0  0  0  0
 16 12  1  0  0  0  0
 16  5  1  0  0  0  0
 17 16  2  0  0  0  0
 18 10  1  0  0  0  0
 19 20  2  0  0  0  0
 19 10  1  0  0  0  0
 21 22  2  0  0  0  0
 22 23  1  0  0  0  0
 24 28  1  0  0  0  0
 24 27  2  0  0  0  0
 25 28  1  0  0  0  0
 29 26  1  6  0  0  0
 29 30  1  0  0  0  0
 29 31  1  0  0  0  0
 30 22  1  1  0  0  0
 30 25  1  0  0  0  0
 31 24  1  0  0  0  0
M  END
>  <MODEL>
8

>  <REMARK>
 VINA RESULT:      -7.6      2.328      7.858
  Name = 
  2 active torsions:
  status: ('A' for Active; 'I' for Inactive)
    1  A    between atoms: C_5  and  C_30
    2  A    between atoms: C_10  and  N_16
                            x       y       z     vdW  Elec       q    Type
                         _______ _______ _______ _____ _____    ______ ____

>  <TORSDO>
F 2

$$$$
=
 OpenBabel11112417033D

 31 35  0  0  1  0  0  0  0  0999 V2000
  185.9910  177.9180  140.8530 C   0  0  0  0  0  0  0  0  0  0  0  0
  188.8260  177.9160  143.3860 C   0  0  2  0  0  3  0  0  0  0  0  0
  188.2250  177.4750  144.7150 C   0  0  0  0  0  0  0  0  0  0  0  0
  186.2930  177.0920  146.1450 C   0  0  0  0  0  0  0  0  0  0  0  0
  187.9750  177.5300  142.1980 C   0  0  0  0  0  0  0  0  0  0  0  0
  186.2940  176.7990  140.0740 C   0  0  0  0  0  3  0  0  0  0  0  0
  186.8340  177.4650  144.9130 C   0  0  0  0  0  3  0  0  0  0  0  0
  190.2740  175.9110  142.9010 C   0  0  2  0  0  3  0  0  0  0  0  0
  184.8540  178.6650  140.5780 O   0  0  0  0  0  1  0  0  0  0  0  0
  190.4880  177.1830  145.6430 N   0  0  0  0  0  2  0  0  0  0  0  0
  184.8190  177.0740  146.3330 C   0  0  0  0  0  1  0  0  0  0  0  0
  189.5700  175.6430  141.5690 C   0  0  0  0  0  2  0  0  0  0  0  0
  190.2740  177.4140  143.2070 C   0  0  2  0  0  3  0  0  0  0  0  0
  186.8280  178.2820  141.9090 C   0  0  0  0  0  3  0  0  0  0  0  0
  187.1350  176.7370  147.2000 C   0  0  0  0  0  3  0  0  0  0  0  0
  188.2830  176.4010  141.4070 C   0  0  0  0  0  0  0  0  0  0  0  0
  187.4410  176.0490  140.3450 C   0  0  0  0  0  3  0  0  0  0  0  0
  191.1020  177.7510  144.4490 C   0  0  0  0  0  2  0  0  0  0  0  0
  189.0680  177.1510  145.8000 C   0  0  0  0  0  0  0  0  0  0  0  0
  188.5210  176.7670  147.0270 C   0  0  0  0  0  3  0  0  0  0  0  0
  191.3300  173.8140  144.5180 O   0  0  0  0  0  0  0  0  0  0  0  0
  192.1030  174.3440  143.6720 C   0  0  0  0  0  0  0  0  0  0  0  0
  191.6380  175.4040  142.8350 N   0  0  0  0  0  2  0  0  0  0  0  0
  193.8110  171.3880  144.9710 C   0  0  0  0  0  0  0  0  0  0  0  0
  193.6360  172.5540  142.7820 C   0  0  0  0  0  2  0  0  0  0  0  0
  194.2430  175.1280  145.6380 C   0  0  0  0  0  1  0  0  0  0  0  0
  194.2790  170.3660  145.4460 O   0  0  0  0  0  0  0  0  0  0  0  0
  193.1600  171.3650  143.6230 C   0  0  0  0  0  2  0  0  0  0  0  0
  194.2910  173.8130  144.8790 C   0  0  2  0  0  3  0  0  0  0  0  0
  193.5260  173.8830  143.5420 C   0  0  2  0  0  3  0  0  0  0  0  0
  193.8170  172.6600  145.7630 C   0  0  0  0  0  2  0  0  0  0  0  0
  1 14  1  0  0  0  0
  2  5  1  6  0  0  0
  2  3  1  0  0  0  0
  3  7  2  0  0  0  0
  3 19  1  0  0  0  0
  4 11  1  0  0  0  0
  4 15  2  0  0  0  0
  6 17  1  0  0  0  0
  6  1  2  0  0  0  0
  7  4  1  0  0  0  0
  8 23  1  6  0  0  0
  8 13  1  0  0  0  0
  9  1  1  0  0  0  0
 10 19  1  0  0  0  0
 12  8  1  0  0  0  0
 13  2  1  0  0  0  0
 13 18  1  1  0  0  0
 14  5  2  0  0  0  0
 16 12  1  0  0  0  0
 16  5  1  0  0  0  0
 17 16  2  0  0  0  0
 18 10  1  0  0  0  0
 19 20  2  0  0  0  0
 20 15  1  0  0  0  0
 22 21  2  0  0  0  0
 23 22  1  0  0  0  0
 24 27  2  0  0  0  0
 24 31  1  0  0  0  0
 25 30  1  0  0  0  0
 25 28  1  0  0  0  0
 28 24  1  0  0  0  0
 29 26  1  1  0  0  0
 29 31  1  0  0  0  0
 30 22  1  1  0  0  0
 30 29  1  0  0  0  0
M  END
>  <MODEL>
9

>  <REMARK>
 VINA RESULT:      -7.5      2.373      4.790
  Name = 
  2 active torsions:
  status: ('A' for Active; 'I' for Inactive)
    1  A    between atoms: C_5  and  C_30
    2  A    between atoms: C_10  and  N_16
                            x       y       z     vdW  Elec       q    Type
                         _______ _______ _______ _____ _____    ______ ____

>  <TORSDO>
F 2

$$$$
