=
 OpenBabel11112416253D

 30 35  0  0  1  0  0  0  0  0999 V2000
  190.4830  175.4080  143.7550 C   0  0  0  0  0  0  0  0  0  0  0  0
  192.6310  174.5170  144.8850 C   0  0  0  0  0  0  0  0  0  0  0  0
  189.2980  176.8590  147.0500 N   0  0  0  0  0  2  0  0  0  0  0  0
  189.5100  176.3340  143.6430 C   0  0  0  0  0  0  0  0  0  0  0  0
  190.6080  174.4230  142.7630 O   0  0  0  0  0  0  0  0  0  0  0  0
  187.9050  175.1650  140.5900 O   0  0  0  0  0  0  0  0  0  0  0  0
  186.5190  177.2590  143.0130 C   0  0  1  0  0  3  0  0  0  0  0  0
  188.6830  175.2220  141.5800 C   0  0  0  0  0  0  0  0  0  0  0  0
  186.7130  176.7660  144.4490 C   0  0  2  0  0  3  0  0  0  0  0  0
  187.9620  177.0480  146.6400 C   0  0  0  0  0  0  0  0  0  0  0  0
  189.5280  174.0360  141.9120 C   0  0  2  0  0  3  0  0  0  0  0  0
  188.7290  176.3850  142.4320 N   0  0  0  0  0  0  0  0  0  0  0  0
  193.6710  174.7520  145.7870 O   0  0  0  0  0  0  0  0  0  0  0  0
  185.3550  177.0540  145.0720 C   0  0  0  0  0  2  0  0  0  0  0  0
  185.6370  178.4850  143.1130 C   0  0  0  0  0  2  0  0  0  0  0  0
  192.6930  173.5180  144.1190 O   0  0  0  0  0  0  0  0  0  0  0  0
  190.1760  177.2600  145.9690 C   0  0  0  0  0  0  0  0  0  0  0  0
  193.7240  175.9650  146.5310 C   0  0  0  0  0  2  0  0  0  0  0  0
  191.4600  175.4320  144.8700 C   0  0  0  0  0  0  0  0  0  0  0  0
  189.2920  177.4020  144.7070 C   0  0  0  0  0  0  0  0  0  0  0  0
  186.9960  176.8910  147.4320 O   0  0  0  0  0  0  0  0  0  0  0  0
  187.8290  177.5160  145.2340 C   0  0  1  0  0  3  0  0  0  0  0  0
  184.7810  178.2640  144.3470 C   0  0  0  0  0  2  0  0  0  0  0  0
  187.6110  177.9290  140.8150 C   0  0  0  0  0  1  0  0  0  0  0  0
  192.3260  176.3300  147.0160 C   0  0  0  0  0  2  0  0  0  0  0  0
  191.3460  176.3280  145.8690 C   0  0  0  0  0  0  0  0  0  0  0  0
  187.8200  177.5260  142.2690 C   0  0  1  0  0  3  0  0  0  0  0  0
  188.6750  172.9830  142.6040 C   0  0  0  0  0  2  0  0  0  0  0  0
  189.5330  172.1160  144.6310 F   0  0  0  0  0  0  0  0  0  0  0  0
  189.5580  171.9420  143.2610 C   0  0  0  0  0  2  0  0  0  0  0  0
  1 19  1  0  0  0  0
  2 13  1  0  0  0  0
  4  1  2  0  0  0  0
  4 20  1  0  0  0  0
  5  1  1  0  0  0  0
  6  8  2  0  0  0  0
  7 15  1  1  0  0  0
  7  9  1  0  0  0  0
  8 11  1  0  0  0  0
  8 12  1  0  0  0  0
  9 14  1  1  0  0  0
  9 22  1  0  0  0  0
 10  3  1  0  0  0  0
 10 21  2  0  0  0  0
 11 28  1  1  0  0  0
 11  5  1  0  0  0  0
 12  4  1  0  0  0  0
 13 18  1  0  0  0  0
 15 23  1  0  0  0  0
 16  2  2  0  0  0  0
 17  3  1  0  0  0  0
 18 25  1  0  0  0  0
 19  2  1  0  0  0  0
 19 26  2  0  0  0  0
 20 17  2  0  0  0  0
 22 20  1  6  0  0  0
 22 10  1  0  0  0  0
 23 14  1  0  0  0  0
 26 17  1  0  0  0  0
 26 25  1  0  0  0  0
 27 24  1  6  0  0  0
 27 12  1  0  0  0  0
 27  7  1  0  0  0  0
 28 30  1  0  0  0  0
 30 29  1  0  0  0  0
M  END
>  <MODEL>
1

>  <REMARK>
 VINA RESULT:      -8.4      0.000      0.000
  Name = 
  2 active torsions:
  status: ('A' for Active; 'I' for Inactive)
    1  A    between atoms: C_11  and  C_28
    2  A    between atoms: C_28  and  C_30
                            x       y       z     vdW  Elec       q    Type
                         _______ _______ _______ _____ _____    ______ ____

>  <TORSDO>
F 2

$$$$
=
 OpenBabel11112416253D

 30 35  0  0  1  0  0  0  0  0999 V2000
  188.0870  177.1990  144.1040 C   0  0  0  0  0  0  0  0  0  0  0  0
  186.0560  178.3340  142.9780 C   0  0  0  0  0  0  0  0  0  0  0  0
  187.9260  174.3430  141.6180 N   0  0  0  0  0  2  0  0  0  0  0  0
  189.2070  176.4540  144.0320 C   0  0  0  0  0  0  0  0  0  0  0  0
  187.7880  177.8720  145.2990 O   0  0  0  0  0  0  0  0  0  0  0  0
  190.4360  176.8730  147.4350 O   0  0  0  0  0  0  0  0  0  0  0  0
  191.3000  174.3400  145.1960 C   0  0  1  0  0  3  0  0  0  0  0  0
  189.6970  176.9520  146.4180 C   0  0  0  0  0  0  0  0  0  0  0  0
  190.1040  173.6890  144.4980 C   0  0  2  0  0  3  0  0  0  0  0  0
  188.7520  173.4730  142.3600 C   0  0  0  0  0  0  0  0  0  0  0  0
  188.3030  177.4690  146.5680 C   0  0  2  0  0  3  0  0  0  0  0  0
  190.1480  176.4970  145.1250 N   0  0  0  0  0  0  0  0  0  0  0  0
  185.4080  178.6770  141.7880 O   0  0  0  0  0  0  0  0  0  0  0  0
  190.4800  172.2150  144.5260 C   0  0  0  0  0  2  0  0  0  0  0  0
  192.5140  173.5470  144.7590 C   0  0  0  0  0  2  0  0  0  0  0  0
  185.6510  178.8280  144.0640 O   0  0  0  0  0  0  0  0  0  0  0  0
  188.4930  175.6750  141.6670 C   0  0  0  0  0  0  0  0  0  0  0  0
  185.9520  178.2890  140.5310 C   0  0  0  0  0  2  0  0  0  0  0  0
  187.1860  177.3710  142.9390 C   0  0  0  0  0  0  0  0  0  0  0  0
  189.5660  175.6620  142.7820 C   0  0  0  0  0  0  0  0  0  0  0  0
  188.5560  172.2300  142.3830 O   0  0  0  0  0  0  0  0  0  0  0  0
  189.8930  174.1570  143.0280 C   0  0  1  0  0  3  0  0  0  0  0  0
  192.0000  172.1440  144.4900 C   0  0  0  0  0  2  0  0  0  0  0  0
  192.5810  176.4810  145.6960 C   0  0  0  0  0  1  0  0  0  0  0  0
  186.4740  176.8600  140.6170 C   0  0  0  0  0  2  0  0  0  0  0  0
  187.4080  176.7030  141.7900 C   0  0  0  0  0  0  0  0  0  0  0  0
  191.4390  175.8310  144.9230 C   0  0  1  0  0  3  0  0  0  0  0  0
  187.4220  176.3820  147.1650 C   0  0  0  0  0  2  0  0  0  0  0  0
  185.2620  176.3890  146.1970 F   0  0  0  0  0  0  0  0  0  0  0  0
  185.9900  176.8690  147.2690 C   0  0  0  0  0  2  0  0  0  0  0  0
  1  5  1  0  0  0  0
  2 16  2  0  0  0  0
  3 17  1  0  0  0  0
  3 10  1  0  0  0  0
  4  1  1  0  0  0  0
  4 12  1  0  0  0  0
  5 11  1  0  0  0  0
  7 15  1  6  0  0  0
  8 11  1  0  0  0  0
  8  6  2  0  0  0  0
  9 14  1  6  0  0  0
  9  7  1  0  0  0  0
 10 21  2  0  0  0  0
 11 28  1  6  0  0  0
 12  8  1  0  0  0  0
 13  2  1  0  0  0  0
 17 26  2  0  0  0  0
 17 20  1  0  0  0  0
 18 25  1  0  0  0  0
 18 13  1  0  0  0  0
 19  2  1  0  0  0  0
 19  1  2  0  0  0  0
 20 22  1  0  0  0  0
 20  4  2  0  0  0  0
 22 10  1  1  0  0  0
 22  9  1  0  0  0  0
 23 14  1  0  0  0  0
 23 15  1  0  0  0  0
 25 26  1  0  0  0  0
 26 19  1  0  0  0  0
 27 12  1  0  0  0  0
 27  7  1  0  0  0  0
 27 24  1  1  0  0  0
 28 30  1  0  0  0  0
 29 30  1  0  0  0  0
M  END
>  <MODEL>
2

>  <REMARK>
 VINA RESULT:      -8.1      2.218      6.528
  Name = 
  2 active torsions:
  status: ('A' for Active; 'I' for Inactive)
    1  A    between atoms: C_11  and  C_28
    2  A    between atoms: C_28  and  C_30
                            x       y       z     vdW  Elec       q    Type
                         _______ _______ _______ _____ _____    ______ ____

>  <TORSDO>
F 2

$$$$
=
 OpenBabel11112416253D

 30 35  0  0  1  0  0  0  0  0999 V2000
  189.4010  175.4280  143.7390 C   0  0  0  0  0  0  0  0  0  0  0  0
  190.8760  173.9820  142.1840 C   0  0  0  0  0  0  0  0  0  0  0  0
  187.1130  176.2880  140.8430 N   0  0  0  0  0  2  0  0  0  0  0  0
  188.1980  175.9150  144.1000 C   0  0  0  0  0  0  0  0  0  0  0  0
  190.4970  175.6030  144.5980 O   0  0  0  0  0  0  0  0  0  0  0  0
  189.1020  177.4910  147.2560 O   0  0  0  0  0  0  0  0  0  0  0  0
  186.2850  178.1690  145.3110 C   0  0  1  0  0  3  0  0  0  0  0  0
  189.2020  176.8790  146.1590 C   0  0  0  0  0  0  0  0  0  0  0  0
  186.5870  178.3620  143.8230 C   0  0  2  0  0  3  0  0  0  0  0  0
  186.4820  177.3710  141.4880 C   0  0  0  0  0  0  0  0  0  0  0  0
  190.5570  176.6400  145.5790 C   0  0  2  0  0  3  0  0  0  0  0  0
  188.0320  176.4600  145.4250 N   0  0  0  0  0  0  0  0  0  0  0  0
  190.9310  173.0500  141.1450 O   0  0  0  0  0  0  0  0  0  0  0  0
  185.6970  179.5450  143.4680 C   0  0  0  0  0  2  0  0  0  0  0  0
  184.8120  178.4750  145.4770 C   0  0  0  0  0  2  0  0  0  0  0  0
  191.9240  174.2460  142.8310 O   0  0  0  0  0  0  0  0  0  0  0  0
  187.2590  175.2040  141.7930 C   0  0  0  0  0  0  0  0  0  0  0  0
  189.7360  172.5910  140.5210 C   0  0  0  0  0  2  0  0  0  0  0  0
  189.5900  174.6640  142.4820 C   0  0  0  0  0  0  0  0  0  0  0  0
  186.9800  175.7980  143.1930 C   0  0  0  0  0  0  0  0  0  0  0  0
  186.1240  178.4010  140.8600 O   0  0  0  0  0  0  0  0  0  0  0  0
  186.2220  177.1370  142.9350 C   0  0  1  0  0  3  0  0  0  0  0  0
  184.4870  179.4830  144.3890 C   0  0  0  0  0  2  0  0  0  0  0  0
  186.4440  176.6500  147.3460 C   0  0  0  0  0  1  0  0  0  0  0  0
  188.7820  173.7620  140.3150 C   0  0  0  0  0  2  0  0  0  0  0  0
  188.5780  174.5160  141.6050 C   0  0  0  0  0  0  0  0  0  0  0  0
  186.6670  176.7950  145.8450 C   0  0  1  0  0  3  0  0  0  0  0  0
  191.0710  177.9240  144.9460 C   0  0  0  0  0  2  0  0  0  0  0  0
  191.6230  177.7840  142.6490 F   0  0  0  0  0  0  0  0  0  0  0  0
  192.1400  177.6090  143.9180 C   0  0  0  0  0  2  0  0  0  0  0  0
  1  4  1  0  0  0  0
  1  5  1  0  0  0  0
  2 19  1  0  0  0  0
  2 16  2  0  0  0  0
  3 10  1  0  0  0  0
  3 17  1  0  0  0  0
  4 12  1  0  0  0  0
  5 11  1  0  0  0  0
  7 15  1  6  0  0  0
  7 27  1  0  0  0  0
  8  6  2  0  0  0  0
  9 14  1  6  0  0  0
  9  7  1  0  0  0  0
 11 28  1  6  0  0  0
 11  8  1  0  0  0  0
 12 27  1  0  0  0  0
 12  8  1  0  0  0  0
 13  2  1  0  0  0  0
 14 23  1  0  0  0  0
 17 20  1  0  0  0  0
 18 13  1  0  0  0  0
 19  1  2  0  0  0  0
 20  4  2  0  0  0  0
 21 10  2  0  0  0  0
 22 10  1  6  0  0  0
 22 20  1  0  0  0  0
 22  9  1  0  0  0  0
 23 15  1  0  0  0  0
 25 18  1  0  0  0  0
 25 26  1  0  0  0  0
 26 17  2  0  0  0  0
 26 19  1  0  0  0  0
 27 24  1  1  0  0  0
 29 30  1  0  0  0  0
 30 28  1  0  0  0  0
M  END
>  <MODEL>
3

>  <REMARK>
 VINA RESULT:      -8.1      2.211      4.811
  Name = 
  2 active torsions:
  status: ('A' for Active; 'I' for Inactive)
    1  A    between atoms: C_11  and  C_28
    2  A    between atoms: C_28  and  C_30
                            x       y       z     vdW  Elec       q    Type
                         _______ _______ _______ _____ _____    ______ ____

>  <TORSDO>
F 2

$$$$
=
 OpenBabel11112416253D

 30 35  0  0  1  0  0  0  0  0999 V2000
  189.7150  176.2670  143.2390 C   0  0  0  0  0  0  0  0  0  0  0  0
  192.1310  175.3500  143.3170 C   0  0  0  0  0  0  0  0  0  0  0  0
  189.5490  176.2760  147.0260 N   0  0  0  0  0  2  0  0  0  0  0  0
  188.7270  177.0230  143.7570 C   0  0  0  0  0  0  0  0  0  0  0  0
  189.5610  175.7240  141.9550 O   0  0  0  0  0  0  0  0  0  0  0  0
  186.3020  176.7910  141.0490 O   0  0  0  0  0  0  0  0  0  0  0  0
  185.6590  177.6750  144.3620 C   0  0  1  0  0  3  0  0  0  0  0  0
  187.3430  176.6050  141.7340 C   0  0  0  0  0  0  0  0  0  0  0  0
  186.2970  176.7390  145.3920 C   0  0  2  0  0  3  0  0  0  0  0  0
  188.1470  176.4050  147.0980 C   0  0  0  0  0  0  0  0  0  0  0  0
  188.2850  175.5120  141.3490 C   0  0  2  0  0  3  0  0  0  0  0  0
  187.6120  177.3870  142.9170 N   0  0  0  0  0  0  0  0  0  0  0  0
  193.3890  175.3980  143.9220 O   0  0  0  0  0  0  0  0  0  0  0  0
  185.1860  176.5930  146.4220 C   0  0  0  0  0  2  0  0  0  0  0  0
  184.8130  178.6470  145.1560 C   0  0  0  0  0  2  0  0  0  0  0  0
  191.9860  174.7060  142.2440 O   0  0  0  0  0  0  0  0  0  0  0  0
  190.0420  177.1540  145.9840 C   0  0  0  0  0  0  0  0  0  0  0  0
  193.6300  176.2650  145.0250 C   0  0  0  0  0  2  0  0  0  0  0  0
  190.9840  176.0350  143.9700 C   0  0  0  0  0  0  0  0  0  0  0  0
  188.8120  177.6040  145.1620 C   0  0  0  0  0  0  0  0  0  0  0  0
  187.4740  175.8430  148.0010 O   0  0  0  0  0  0  0  0  0  0  0  0
  187.5760  177.3150  146.0680 C   0  0  1  0  0  3  0  0  0  0  0  0
  184.3820  177.8850  146.3960 C   0  0  0  0  0  2  0  0  0  0  0  0
  186.0070  179.2260  142.3760 C   0  0  0  0  0  1  0  0  0  0  0  0
  192.4360  176.2320  145.9730 C   0  0  0  0  0  2  0  0  0  0  0  0
  191.1540  176.4940  145.2240 C   0  0  0  0  0  0  0  0  0  0  0  0
  186.6630  178.3690  143.4530 C   0  0  1  0  0  3  0  0  0  0  0  0
  187.7150  174.1730  141.7930 C   0  0  0  0  0  2  0  0  0  0  0  0
  188.2860  172.8850  139.8910 F   0  0  0  0  0  0  0  0  0  0  0  0
  188.5540  173.0380  141.2380 C   0  0  0  0  0  2  0  0  0  0  0  0
  1  4  2  0  0  0  0
  1 19  1  0  0  0  0
  2 13  1  0  0  0  0
  2 19  1  0  0  0  0
  3 10  1  0  0  0  0
  4 20  1  0  0  0  0
  5  1  1  0  0  0  0
  6  8  2  0  0  0  0
  7 15  1  1  0  0  0
  7  9  1  0  0  0  0
  8 12  1  0  0  0  0
  9 22  1  0  0  0  0
  9 14  1  1  0  0  0
 10 21  2  0  0  0  0
 11  8  1  0  0  0  0
 11 28  1  1  0  0  0
 11  5  1  0  0  0  0
 12 27  1  0  0  0  0
 12  4  1  0  0  0  0
 13 18  1  0  0  0  0
 15 23  1  0  0  0  0
 16  2  2  0  0  0  0
 17  3  1  0  0  0  0
 18 25  1  0  0  0  0
 19 26  2  0  0  0  0
 20 17  2  0  0  0  0
 22 20  1  6  0  0  0
 22 10  1  0  0  0  0
 23 14  1  0  0  0  0
 26 25  1  0  0  0  0
 26 17  1  0  0  0  0
 27 24  1  6  0  0  0
 27  7  1  0  0  0  0
 29 30  1  0  0  0  0
 30 28  1  0  0  0  0
M  END
>  <MODEL>
4

>  <REMARK>
 VINA RESULT:      -7.9      1.590      1.856
  Name = 
  2 active torsions:
  status: ('A' for Active; 'I' for Inactive)
    1  A    between atoms: C_11  and  C_28
    2  A    between atoms: C_28  and  C_30
                            x       y       z     vdW  Elec       q    Type
                         _______ _______ _______ _____ _____    ______ ____

>  <TORSDO>
F 2

$$$$
=
 OpenBabel11112416253D

 30 35  0  0  1  0  0  0  0  0999 V2000
  188.4550  177.4210  145.4440 C   0  0  0  0  0  0  0  0  0  0  0  0
  186.1240  178.3900  146.0000 C   0  0  0  0  0  0  0  0  0  0  0  0
  187.3620  176.7130  141.8850 N   0  0  0  0  0  2  0  0  0  0  0  0
  189.4660  177.2110  144.5780 C   0  0  0  0  0  0  0  0  0  0  0  0
  188.6480  177.1310  146.8040 O   0  0  0  0  0  0  0  0  0  0  0  0
  191.9470  175.8310  146.8590 O   0  0  0  0  0  0  0  0  0  0  0  0
  191.8860  175.5010  143.3850 C   0  0  1  0  0  3  0  0  0  0  0  0
  190.8600  176.2950  146.4200 C   0  0  0  0  0  0  0  0  0  0  0  0
  190.5210  175.0990  142.8210 C   0  0  2  0  0  3  0  0  0  0  0  0
  188.4300  175.8420  141.5870 C   0  0  0  0  0  0  0  0  0  0  0  0
  189.6350  176.2110  147.2700 C   0  0  2  0  0  3  0  0  0  0  0  0
  190.7640  176.8490  145.0910 N   0  0  0  0  0  0  0  0  0  0  0  0
  185.0490  179.1810  145.5880 O   0  0  0  0  0  0  0  0  0  0  0  0
  190.9020  174.0760  141.7610 C   0  0  0  0  0  2  0  0  0  0  0  0
  192.8360  175.4980  142.2070 C   0  0  0  0  0  2  0  0  0  0  0  0
  186.1800  178.0010  147.1970 O   0  0  0  0  0  0  0  0  0  0  0  0
  187.8780  177.8430  142.6310 C   0  0  0  0  0  0  0  0  0  0  0  0
  185.0510  179.7910  144.3010 C   0  0  0  0  0  2  0  0  0  0  0  0
  187.1610  177.9990  145.0100 C   0  0  0  0  0  0  0  0  0  0  0  0
  189.3070  177.4610  143.0840 C   0  0  0  0  0  0  0  0  0  0  0  0
  188.2820  174.8390  140.8420 O   0  0  0  0  0  0  0  0  0  0  0  0
  189.7310  176.2720  142.1690 C   0  0  1  0  0  3  0  0  0  0  0  0
  192.2820  174.4620  141.2470 C   0  0  0  0  0  2  0  0  0  0  0  0
  193.2220  177.1660  144.7690 C   0  0  0  0  0  1  0  0  0  0  0  0
  185.5870  178.8070  143.2680 C   0  0  0  0  0  2  0  0  0  0  0  0
  186.9160  178.2440  143.7080 C   0  0  0  0  0  0  0  0  0  0  0  0
  191.8780  176.8250  144.1370 C   0  0  1  0  0  3  0  0  0  0  0  0
  189.0850  174.7930  147.2260 C   0  0  0  0  0  2  0  0  0  0  0  0
  189.3160  172.7050  146.1380 F   0  0  0  0  0  0  0  0  0  0  0  0
  189.6910  174.0320  146.0630 C   0  0  0  0  0  2  0  0  0  0  0  0
  1  5  1  0  0  0  0
  2 16  2  0  0  0  0
  3 17  1  0  0  0  0
  4 12  1  0  0  0  0
  4  1  2  0  0  0  0
  5 11  1  0  0  0  0
  7 15  1  6  0  0  0
  7 27  1  0  0  0  0
  8  6  2  0  0  0  0
  8 11  1  0  0  0  0
  9 14  1  6  0  0  0
  9  7  1  0  0  0  0
 10  3  1  0  0  0  0
 11 28  1  6  0  0  0
 12  8  1  0  0  0  0
 13  2  1  0  0  0  0
 17 20  2  0  0  0  0
 17 26  1  0  0  0  0
 18 13  1  0  0  0  0
 19  1  1  0  0  0  0
 19  2  1  0  0  0  0
 20  4  1  0  0  0  0
 21 10  2  0  0  0  0
 22 10  1  1  0  0  0
 22  9  1  0  0  0  0
 22 20  1  0  0  0  0
 23 14  1  0  0  0  0
 23 15  1  0  0  0  0
 25 26  1  0  0  0  0
 25 18  1  0  0  0  0
 26 19  2  0  0  0  0
 27 24  1  1  0  0  0
 27 12  1  0  0  0  0
 30 29  1  0  0  0  0
 30 28  1  0  0  0  0
M  END
>  <MODEL>
5

>  <REMARK>
 VINA RESULT:      -7.9      1.758      6.060
  Name = 
  2 active torsions:
  status: ('A' for Active; 'I' for Inactive)
    1  A    between atoms: C_11  and  C_28
    2  A    between atoms: C_28  and  C_30
                            x       y       z     vdW  Elec       q    Type
                         _______ _______ _______ _____ _____    ______ ____

>  <TORSDO>
F 2

$$$$
=
 OpenBabel11112416253D

 30 35  0  0  1  0  0  0  0  0999 V2000
  191.7700  175.5550  142.7810 C   0  0  0  0  0  0  0  0  0  0  0  0
  194.2540  174.9400  142.4100 C   0  0  0  0  0  0  0  0  0  0  0  0
  192.4590  176.3280  146.4260 N   0  0  0  0  0  2  0  0  0  0  0  0
  190.8190  176.2910  143.3880 C   0  0  0  0  0  0  0  0  0  0  0  0
  191.4170  174.7450  141.6900 O   0  0  0  0  0  0  0  0  0  0  0  0
  187.9140  175.2440  141.4560 O   0  0  0  0  0  0  0  0  0  0  0  0
  187.9020  176.7190  144.6190 C   0  0  1  0  0  3  0  0  0  0  0  0
  189.0980  175.3180  141.8810 C   0  0  0  0  0  0  0  0  0  0  0  0
  188.8920  176.0910  145.6030 C   0  0  2  0  0  3  0  0  0  0  0  0
  191.1060  176.3170  146.8240 C   0  0  0  0  0  0  0  0  0  0  0  0
  190.0870  174.2760  141.4690 C   0  0  2  0  0  3  0  0  0  0  0  0
  189.5010  176.3510  142.8040 N   0  0  0  0  0  0  0  0  0  0  0  0
  195.5930  175.2470  142.6630 O   0  0  0  0  0  0  0  0  0  0  0  0
  188.0770  176.0410  146.8870 C   0  0  0  0  0  2  0  0  0  0  0  0
  187.1170  177.7380  145.4160 C   0  0  0  0  0  2  0  0  0  0  0  0
  193.9730  174.0760  141.5370 O   0  0  0  0  0  0  0  0  0  0  0  0
  192.5640  177.0200  145.1580 C   0  0  0  0  0  0  0  0  0  0  0  0
  195.9380  176.3440  143.5030 C   0  0  0  0  0  2  0  0  0  0  0  0
  193.1910  175.6170  143.1990 C   0  0  0  0  0  0  0  0  0  0  0  0
  191.1260  177.1550  144.6040 C   0  0  0  0  0  0  0  0  0  0  0  0
  190.7480  175.8840  147.9500 O   0  0  0  0  0  0  0  0  0  0  0  0
  190.1850  176.9280  145.8260 C   0  0  1  0  0  3  0  0  0  0  0  0
  187.0980  177.2060  146.8380 C   0  0  0  0  0  2  0  0  0  0  0  0
  187.5520  177.8550  142.3690 C   0  0  0  0  0  1  0  0  0  0  0  0
  195.0080  176.3790  144.7090 C   0  0  0  0  0  2  0  0  0  0  0  0
  193.5650  176.3410  144.2710 C   0  0  0  0  0  0  0  0  0  0  0  0
  188.5570  177.3150  143.3800 C   0  0  1  0  0  3  0  0  0  0  0  0
  189.8450  173.0050  142.2680 C   0  0  0  0  0  2  0  0  0  0  0  0
  190.0660  170.6500  142.1780 F   0  0  0  0  0  0  0  0  0  0  0  0
  190.0650  171.7870  141.3920 C   0  0  0  0  0  2  0  0  0  0  0  0
  1 19  2  0  0  0  0
  1  4  1  0  0  0  0
  2 13  1  0  0  0  0
  2 19  1  0  0  0  0
  3 10  1  0  0  0  0
  4 20  2  0  0  0  0
  5  1  1  0  0  0  0
  6  8  2  0  0  0  0
  7 15  1  1  0  0  0
  7  9  1  0  0  0  0
  8 12  1  0  0  0  0
  9 22  1  0  0  0  0
  9 14  1  1  0  0  0
 10 21  2  0  0  0  0
 11  5  1  0  0  0  0
 11  8  1  0  0  0  0
 11 28  1  1  0  0  0
 12 27  1  0  0  0  0
 12  4  1  0  0  0  0
 13 18  1  0  0  0  0
 15 23  1  0  0  0  0
 16  2  2  0  0  0  0
 17  3  1  0  0  0  0
 18 25  1  0  0  0  0
 19 26  1  0  0  0  0
 20 17  1  0  0  0  0
 22 20  1  6  0  0  0
 22 10  1  0  0  0  0
 23 14  1  0  0  0  0
 26 25  1  0  0  0  0
 26 17  2  0  0  0  0
 27 24  1  6  0  0  0
 27  7  1  0  0  0  0
 30 29  1  0  0  0  0
 30 28  1  0  0  0  0
M  END
>  <MODEL>
6

>  <REMARK>
 VINA RESULT:      -7.7      2.000      2.545
  Name = 
  2 active torsions:
  status: ('A' for Active; 'I' for Inactive)
    1  A    between atoms: C_11  and  C_28
    2  A    between atoms: C_28  and  C_30
                            x       y       z     vdW  Elec       q    Type
                         _______ _______ _______ _____ _____    ______ ____

>  <TORSDO>
F 2

$$$$
=
 OpenBabel11112416253D

 30 35  0  0  1  0  0  0  0  0999 V2000
  187.0300  177.0260  144.1170 C   0  0  0  0  0  0  0  0  0  0  0  0
  184.9180  178.4960  144.3750 C   0  0  0  0  0  0  0  0  0  0  0  0
  188.1440  177.9330  147.6250 N   0  0  0  0  0  2  0  0  0  0  0  0
  187.9630  176.2070  144.6400 C   0  0  0  0  0  0  0  0  0  0  0  0
  186.9490  177.1720  142.7240 O   0  0  0  0  0  0  0  0  0  0  0  0
  189.6240  175.1460  141.5760 O   0  0  0  0  0  0  0  0  0  0  0  0
  190.9150  174.9990  144.8150 C   0  0  1  0  0  3  0  0  0  0  0  0
  188.8420  175.7480  142.3600 C   0  0  0  0  0  0  0  0  0  0  0  0
  190.7380  176.2900  145.6160 C   0  0  2  0  0  3  0  0  0  0  0  0
  189.4720  177.4880  147.4630 C   0  0  0  0  0  0  0  0  0  0  0  0
  188.0460  176.9050  141.8500 C   0  0  2  0  0  3  0  0  0  0  0  0
  188.7450  175.3810  143.7520 N   0  0  0  0  0  0  0  0  0  0  0  0
  183.8670  178.9120  145.1950 O   0  0  0  0  0  0  0  0  0  0  0  0
  192.0810  176.4150  146.3210 C   0  0  0  0  0  2  0  0  0  0  0  0
  191.7440  174.0810  145.6880 C   0  0  0  0  0  2  0  0  0  0  0  0
  184.9000  178.7920  143.1510 O   0  0  0  0  0  0  0  0  0  0  0  0
  187.2530  176.9690  147.0110 C   0  0  0  0  0  0  0  0  0  0  0  0
  183.7610  178.4380  146.5340 C   0  0  0  0  0  2  0  0  0  0  0  0
  186.0500  177.7390  144.9720 C   0  0  0  0  0  0  0  0  0  0  0  0
  188.1340  176.0390  146.1440 C   0  0  0  0  0  0  0  0  0  0  0  0
  190.4410  178.0770  148.0070 O   0  0  0  0  0  0  0  0  0  0  0  0
  189.5890  176.2350  146.6660 C   0  0  1  0  0  3  0  0  0  0  0  0
  192.6050  175.0020  146.5330 C   0  0  0  0  0  2  0  0  0  0  0  0
  189.8010  173.1300  143.4950 C   0  0  0  0  0  1  0  0  0  0  0  0
  185.1410  178.4160  147.1800 C   0  0  0  0  0  2  0  0  0  0  0  0
  186.1230  177.6670  146.3150 C   0  0  0  0  0  0  0  0  0  0  0  0
  189.6050  174.3640  144.3670 C   0  0  1  0  0  3  0  0  0  0  0  0
  188.9410  178.1310  141.7510 C   0  0  0  0  0  2  0  0  0  0  0  0
  190.0700  178.6650  143.7610 F   0  0  0  0  0  0  0  0  0  0  0  0
  190.1870  177.9380  142.5930 C   0  0  0  0  0  2  0  0  0  0  0  0
  1  4  2  0  0  0  0
  1 19  1  0  0  0  0
  2 19  1  0  0  0  0
  2 13  1  0  0  0  0
  4 20  1  0  0  0  0
  5  1  1  0  0  0  0
  6  8  2  0  0  0  0
  7  9  1  0  0  0  0
  7 15  1  1  0  0  0
  8 12  1  0  0  0  0
  9 14  1  1  0  0  0
  9 22  1  0  0  0  0
 10  3  1  0  0  0  0
 10 21  2  0  0  0  0
 11 28  1  1  0  0  0
 11  8  1  0  0  0  0
 11  5  1  0  0  0  0
 12 27  1  0  0  0  0
 12  4  1  0  0  0  0
 13 18  1  0  0  0  0
 14 23  1  0  0  0  0
 15 23  1  0  0  0  0
 16  2  2  0  0  0  0
 17  3  1  0  0  0  0
 18 25  1  0  0  0  0
 19 26  2  0  0  0  0
 20 17  2  0  0  0  0
 22 20  1  6  0  0  0
 22 10  1  0  0  0  0
 26 17  1  0  0  0  0
 26 25  1  0  0  0  0
 27 24  1  6  0  0  0
 27  7  1  0  0  0  0
 28 30  1  0  0  0  0
 30 29  1  0  0  0  0
M  END
>  <MODEL>
7

>  <REMARK>
 VINA RESULT:      -7.7      2.322      5.761
  Name = 
  2 active torsions:
  status: ('A' for Active; 'I' for Inactive)
    1  A    between atoms: C_11  and  C_28
    2  A    between atoms: C_28  and  C_30
                            x       y       z     vdW  Elec       q    Type
                         _______ _______ _______ _____ _____    ______ ____

>  <TORSDO>
F 2

$$$$
=
 OpenBabel11112416253D

 30 35  0  0  1  0  0  0  0  0999 V2000
  191.1480  174.5630  143.3570 C   0  0  0  0  0  0  0  0  0  0  0  0
  192.3230  173.7020  141.2210 C   0  0  0  0  0  0  0  0  0  0  0  0
  188.2980  175.9550  141.2820 N   0  0  0  0  0  2  0  0  0  0  0  0
  190.0270  174.8370  144.0530 C   0  0  0  0  0  0  0  0  0  0  0  0
  192.3880  174.5990  144.0120 O   0  0  0  0  0  0  0  0  0  0  0  0
  191.5000  175.6040  147.2950 O   0  0  0  0  0  0  0  0  0  0  0  0
  188.3300  176.5280  146.1660 C   0  0  1  0  0  3  0  0  0  0  0  0
  191.3950  175.3100  146.0740 C   0  0  0  0  0  0  0  0  0  0  0  0
  188.3200  177.1280  144.7580 C   0  0  2  0  0  3  0  0  0  0  0  0
  187.7770  176.7760  142.3030 C   0  0  0  0  0  0  0  0  0  0  0  0
  192.6130  175.3450  145.2090 C   0  0  2  0  0  3  0  0  0  0  0  0
  190.1160  175.0010  145.4840 N   0  0  0  0  0  0  0  0  0  0  0  0
  192.1960  173.0820  139.9760 O   0  0  0  0  0  0  0  0  0  0  0  0
  187.3410  178.2830  144.9100 C   0  0  0  0  0  2  0  0  0  0  0  0
  186.9110  176.6560  146.6790 C   0  0  0  0  0  2  0  0  0  0  0  0
  193.4710  173.8750  141.7090 O   0  0  0  0  0  0  0  0  0  0  0  0
  188.6660  174.6770  141.8560 C   0  0  0  0  0  0  0  0  0  0  0  0
  190.9140  172.7030  139.4840 C   0  0  0  0  0  2  0  0  0  0  0  0
  191.1030  174.1730  141.9270 C   0  0  0  0  0  0  0  0  0  0  0  0
  188.6560  174.8590  143.3920 C   0  0  0  0  0  0  0  0  0  0  0  0
  187.2680  177.9000  142.0570 O   0  0  0  0  0  0  0  0  0  0  0  0
  187.8210  176.1500  143.6530 C   0  0  1  0  0  3  0  0  0  0  0  0
  186.3440  177.8820  145.9880 C   0  0  0  0  0  2  0  0  0  0  0  0
  188.9410  174.5490  147.6440 C   0  0  0  0  0  1  0  0  0  0  0  0
  189.9040  173.8030  139.7850 C   0  0  0  0  0  2  0  0  0  0  0  0
  189.9410  174.1740  141.2470 C   0  0  0  0  0  0  0  0  0  0  0  0
  188.8540  175.0990  146.2250 C   0  0  1  0  0  3  0  0  0  0  0  0
  192.9490  176.7880  144.8660 C   0  0  0  0  0  2  0  0  0  0  0  0
  194.1980  177.2620  146.8200 F   0  0  0  0  0  0  0  0  0  0  0  0
  194.2990  177.1630  145.4450 C   0  0  0  0  0  2  0  0  0  0  0  0
  1  5  1  0  0  0  0
  1  4  1  0  0  0  0
  2 16  2  0  0  0  0
  2 19  1  0  0  0  0
  3 17  1  0  0  0  0
  3 10  1  0  0  0  0
  4 12  1  0  0  0  0
  5 11  1  0  0  0  0
  7 27  1  0  0  0  0
  7 15  1  6  0  0  0
  8  6  2  0  0  0  0
  9 14  1  1  0  0  0
  9  7  1  0  0  0  0
 11 28  1  6  0  0  0
 11  8  1  0  0  0  0
 12  8  1  0  0  0  0
 12 27  1  0  0  0  0
 13  2  1  0  0  0  0
 14 23  1  0  0  0  0
 17 20  1  0  0  0  0
 18 25  1  0  0  0  0
 18 13  1  0  0  0  0
 19  1  2  0  0  0  0
 20 22  1  0  0  0  0
 20  4  2  0  0  0  0
 21 10  2  0  0  0  0
 22 10  1  6  0  0  0
 22  9  1  0  0  0  0
 23 15  1  0  0  0  0
 25 26  1  0  0  0  0
 26 17  2  0  0  0  0
 26 19  1  0  0  0  0
 27 24  1  1  0  0  0
 28 30  1  0  0  0  0
 30 29  1  0  0  0  0
M  END
>  <MODEL>
8

>  <REMARK>
 VINA RESULT:      -7.5      2.312      5.019
  Name = 
  2 active torsions:
  status: ('A' for Active; 'I' for Inactive)
    1  A    between atoms: C_11  and  C_28
    2  A    between atoms: C_28  and  C_30
                            x       y       z     vdW  Elec       q    Type
                         _______ _______ _______ _____ _____    ______ ____

>  <TORSDO>
F 2

$$$$
=
 OpenBabel11112416253D

 30 35  0  0  1  0  0  0  0  0999 V2000
  189.6520  177.1250  145.3970 C   0  0  0  0  0  0  0  0  0  0  0  0
  187.2010  177.9090  145.6400 C   0  0  0  0  0  0  0  0  0  0  0  0
  188.9100  175.7210  141.9560 N   0  0  0  0  0  2  0  0  0  0  0  0
  190.7420  176.8870  144.6400 C   0  0  0  0  0  0  0  0  0  0  0  0
  189.7690  177.0870  146.7950 O   0  0  0  0  0  0  0  0  0  0  0  0
  193.1660  176.1860  147.2670 O   0  0  0  0  0  0  0  0  0  0  0  0
  193.4030  175.2810  143.9050 C   0  0  1  0  0  3  0  0  0  0  0  0
  192.0760  176.4480  146.6910 C   0  0  0  0  0  0  0  0  0  0  0  0
  192.1320  174.6430  143.3400 C   0  0  2  0  0  3  0  0  0  0  0  0
  190.0780  174.9360  141.8760 C   0  0  0  0  0  0  0  0  0  0  0  0
  190.8030  176.3710  147.4700 C   0  0  2  0  0  3  0  0  0  0  0  0
  192.0270  176.7610  145.2840 N   0  0  0  0  0  0  0  0  0  0  0  0
  186.0880  178.4980  145.0350 O   0  0  0  0  0  0  0  0  0  0  0  0
  192.6930  173.5070  142.4960 C   0  0  0  0  0  2  0  0  0  0  0  0
  194.4370  175.1880  142.8030 C   0  0  0  0  0  2  0  0  0  0  0  0
  187.2030  177.7320  146.8870 O   0  0  0  0  0  0  0  0  0  0  0  0
  189.2530  177.0080  142.5240 C   0  0  0  0  0  0  0  0  0  0  0  0
  186.1280  178.8820  143.6640 C   0  0  0  0  0  2  0  0  0  0  0  0
  188.3440  177.4770  144.7940 C   0  0  0  0  0  0  0  0  0  0  0  0
  190.6740  176.8680  143.1190 C   0  0  0  0  0  0  0  0  0  0  0  0
  190.0870  173.8130  141.3080 O   0  0  0  0  0  0  0  0  0  0  0  0
  191.2820  175.5970  142.4500 C   0  0  1  0  0  3  0  0  0  0  0  0
  194.0620  173.9530  142.0050 C   0  0  0  0  0  2  0  0  0  0  0  0
  194.4590  177.2890  145.0560 C   0  0  0  0  0  1  0  0  0  0  0  0
  186.8360  177.8060  142.8500 C   0  0  0  0  0  2  0  0  0  0  0  0
  188.1760  177.4740  143.4580 C   0  0  0  0  0  0  0  0  0  0  0  0
  193.2070  176.7020  144.4150 C   0  0  1  0  0  3  0  0  0  0  0  0
  190.4010  174.9140  147.6390 C   0  0  0  0  0  2  0  0  0  0  0  0
  188.2610  174.1980  148.3520 F   0  0  0  0  0  0  0  0  0  0  0  0
  188.9410  174.7290  147.2730 C   0  0  0  0  0  2  0  0  0  0  0  0
  1  5  1  0  0  0  0
  2 16  2  0  0  0  0
  3 17  1  0  0  0  0
  4 12  1  0  0  0  0
  4  1  2  0  0  0  0
  5 11  1  0  0  0  0
  7 15  1  6  0  0  0
  7 27  1  0  0  0  0
  8  6  2  0  0  0  0
  8 11  1  0  0  0  0
  9 14  1  6  0  0  0
  9  7  1  0  0  0  0
 10  3  1  0  0  0  0
 11 28  1  6  0  0  0
 12  8  1  0  0  0  0
 13  2  1  0  0  0  0
 17 20  2  0  0  0  0
 17 26  1  0  0  0  0
 18 13  1  0  0  0  0
 19  1  1  0  0  0  0
 19  2  1  0  0  0  0
 20  4  1  0  0  0  0
 21 10  2  0  0  0  0
 22 10  1  1  0  0  0
 22 20  1  0  0  0  0
 22  9  1  0  0  0  0
 23 14  1  0  0  0  0
 23 15  1  0  0  0  0
 25 26  1  0  0  0  0
 25 18  1  0  0  0  0
 26 19  2  0  0  0  0
 27 24  1  1  0  0  0
 27 12  1  0  0  0  0
 30 28  1  0  0  0  0
 30 29  1  0  0  0  0
M  END
>  <MODEL>
9

>  <REMARK>
 VINA RESULT:      -7.4      2.046      6.372
  Name = 
  2 active torsions:
  status: ('A' for Active; 'I' for Inactive)
    1  A    between atoms: C_11  and  C_28
    2  A    between atoms: C_28  and  C_30
                            x       y       z     vdW  Elec       q    Type
                         _______ _______ _______ _____ _____    ______ ____

>  <TORSDO>
F 2

$$$$
