=
 OpenBabel11112417523D

 34 41  0  0  1  0  0  0  0  0999 V2000
  189.3620  175.6340  142.5910 C   0  0  0  0  0  0  0  0  0  0  0  0
  191.7070  174.7870  141.9640 C   0  0  0  0  0  2  0  0  0  0  0  0
  185.6190  179.2120  146.4690 C   0  0  2  0  0  3  0  0  0  0  0  0
  187.2510  176.5450  143.3450 C   0  0  0  0  0  0  0  0  0  0  0  0
  187.2050  177.6330  145.6300 C   0  0  1  0  0  3  0  0  0  0  0  0
  186.6500  178.5890  148.0410 C   0  0  0  0  0  2  0  0  0  0  0  0
  185.7980  179.6840  147.7760 O   0  0  0  0  0  0  0  0  0  0  0  0
  184.1300  178.3790  144.7680 C   0  0  0  0  0  3  0  0  0  0  0  0
  191.2380  175.3740  144.2030 C   0  0  0  0  0  0  0  0  0  0  0  0
  193.5110  175.5200  146.5270 C   0  0  0  0  0  2  0  0  0  0  0  0
  188.2370  176.6010  146.0690 C   0  0  0  0  0  2  0  0  0  0  0  0
  185.3360  178.0920  143.8790 C   0  0  0  0  0  2  0  0  0  0  0  0
  190.4900  175.8580  145.2230 C   0  0  0  0  0  0  0  0  0  0  0  0
  193.0150  174.7410  142.7620 C   0  0  0  0  0  2  0  0  0  0  0  0
  186.3620  177.0730  144.4470 C   0  0  1  0  0  3  0  0  0  0  0  0
  184.2410  178.9400  145.9880 C   0  0  0  0  0  3  0  0  0  0  0  0
  193.5630  175.8180  145.0230 C   0  0  2  0  0  3  0  0  0  0  0  0
  188.5680  176.1360  143.6260 C   0  0  0  0  0  0  0  0  0  0  0  0
  186.2450  177.8970  146.7670 C   0  0  1  0  0  3  0  0  0  0  0  0
  189.1200  176.2490  144.9570 N   0  0  0  0  0  0  0  0  0  0  0  0
  187.5160  175.8860  141.0690 C   0  0  0  0  0  3  0  0  0  0  0  0
  192.1190  175.1430  147.0420 C   0  0  0  0  0  2  0  0  0  0  0  0
  186.7570  176.3860  142.0830 N   0  0  0  0  0  0  0  0  0  0  0  0
  191.0730  176.1510  146.5890 C   0  0  0  0  0  2  0  0  0  0  0  0
  192.6420  174.8700  144.2470 C   0  0  1  0  0  3  0  0  0  0  0  0
  188.8380  175.5060  141.3020 C   0  0  0  0  0  3  0  0  0  0  0  0
  190.7070  175.2610  142.8980 N   0  0  0  0  0  0  0  0  0  0  0  0
  194.8870  175.7030  144.5890 O   0  0  0  0  0  0  0  0  0  0  0  0
  195.5570  175.0770  145.6430 C   0  0  0  0  0  2  0  0  0  0  0  0
  196.7730  172.1100  146.2510 O   0  0  0  0  0  0  0  0  0  0  0  0
  196.0550  173.1070  144.2360 C   0  0  0  0  0  2  0  0  0  0  0  0
  196.6540  174.1790  145.0990 C   0  0  2  0  0  3  0  0  0  0  0  0
  196.4710  171.8240  144.9120 C   0  0  0  0  0  2  0  0  0  0  0  0
  197.2900  173.4150  146.2390 C   0  0  0  0  0  2  0  0  0  0  0  0
  1 27  1  0  0  0  0
  1 18  1  0  0  0  0
  2 14  1  0  0  0  0
  2 27  1  0  0  0  0
  3 16  1  1  0  0  0
  3 19  1  0  0  0  0
  3  7  1  0  0  0  0
  4 18  2  0  0  0  0
  4 15  1  0  0  0  0
  5 11  1  1  0  0  0
  5 19  1  0  0  0  0
  7  6  1  0  0  0  0
  8 16  2  0  0  0  0
  9 25  1  0  0  0  0
  9 13  2  0  0  0  0
 10 22  1  0  0  0  0
 12  8  1  0  0  0  0
 13 24  1  0  0  0  0
 15 12  1  6  0  0  0
 15  5  1  0  0  0  0
 17 28  1  6  0  0  0
 17 10  1  0  0  0  0
 18 20  1  0  0  0  0
 19  6  1  1  0  0  0
 20 13  1  0  0  0  0
 20 11  1  0  0  0  0
 21 26  1  0  0  0  0
 21 23  2  0  0  0  0
 23  4  1  0  0  0  0
 24 22  1  0  0  0  0
 25 14  1  6  0  0  0
 25 17  1  0  0  0  0
 26  1  2  0  0  0  0
 27  9  1  0  0  0  0
 28 29  1  0  0  0  0
 31 33  1  0  0  0  0
 31 32  1  0  0  0  0
 32 29  1  1  0  0  0
 32 34  1  0  0  0  0
 33 30  1  0  0  0  0
 34 30  1  0  0  0  0
M  END
>  <MODEL>
1

>  <REMARK>
 VINA RESULT:      -8.9      0.000      0.000
  Name = 
  3 active torsions:
  status: ('A' for Active; 'I' for Inactive)
    1  A    between atoms: C_17  and  O_28
    2  A    between atoms: O_28  and  C_29
    3  A    between atoms: C_29  and  C_32
                            x       y       z     vdW  Elec       q    Type
                         _______ _______ _______ _____ _____    ______ ____

>  <TORSDO>
F 3

$$$$
=
 OpenBabel11112417523D

 34 41  0  0  1  0  0  0  0  0999 V2000
  189.5340  175.5830  142.7780 C   0  0  0  0  0  0  0  0  0  0  0  0
  191.8950  174.8230  142.1000 C   0  0  0  0  0  2  0  0  0  0  0  0
  185.7590  179.1790  146.6100 C   0  0  2  0  0  3  0  0  0  0  0  0
  187.4080  176.4260  143.5690 C   0  0  0  0  0  0  0  0  0  0  0  0
  187.3930  177.6370  145.7920 C   0  0  1  0  0  3  0  0  0  0  0  0
  186.8830  178.6980  148.1690 C   0  0  0  0  0  2  0  0  0  0  0  0
  185.9640  179.7320  147.8810 O   0  0  0  0  0  0  0  0  0  0  0  0
  184.2520  178.1760  145.0200 C   0  0  0  0  0  3  0  0  0  0  0  0
  191.4820  175.5100  144.3220 C   0  0  0  0  0  0  0  0  0  0  0  0
  193.8320  175.9030  146.5380 C   0  0  0  0  0  2  0  0  0  0  0  0
  188.4950  176.6860  146.2430 C   0  0  0  0  0  2  0  0  0  0  0  0
  185.4350  177.9010  144.0980 C   0  0  0  0  0  2  0  0  0  0  0  0
  190.7500  176.0120  145.3450 C   0  0  0  0  0  0  0  0  0  0  0  0
  193.2330  174.8890  142.8450 C   0  0  0  0  0  2  0  0  0  0  0  0
  186.5350  176.9700  144.6780 C   0  0  1  0  0  3  0  0  0  0  0  0
  184.3790  178.8100  146.2020 C   0  0  0  0  0  3  0  0  0  0  0  0
  193.8100  176.1180  145.0190 C   0  0  2  0  0  3  0  0  0  0  0  0
  188.7540  176.1020  143.8170 C   0  0  0  0  0  0  0  0  0  0  0  0
  186.4650  177.9160  146.9520 C   0  0  1  0  0  3  0  0  0  0  0  0
  189.3510  176.3180  145.1160 N   0  0  0  0  0  0  0  0  0  0  0  0
  187.6190  175.6550  141.3240 C   0  0  0  0  0  3  0  0  0  0  0  0
  192.4840  175.4850  147.1300 C   0  0  0  0  0  2  0  0  0  0  0  0
  186.8750  176.1720  142.3390 N   0  0  0  0  0  0  0  0  0  0  0  0
  191.3690  176.4110  146.6670 C   0  0  0  0  0  2  0  0  0  0  0  0
  192.9120  175.0830  144.3350 C   0  0  1  0  0  3  0  0  0  0  0  0
  188.9670  175.3560  141.5220 C   0  0  0  0  0  3  0  0  0  0  0  0
  190.9080  175.2970  143.0490 N   0  0  0  0  0  0  0  0  0  0  0  0
  195.1200  176.0470  144.5370 O   0  0  0  0  0  0  0  0  0  0  0  0
  195.6990  174.9790  145.2280 C   0  0  0  0  0  2  0  0  0  0  0  0
  196.6130  173.4850  142.4740 O   0  0  0  0  0  0  0  0  0  0  0  0
  197.3170  175.5200  143.4400 C   0  0  0  0  0  2  0  0  0  0  0  0
  196.9930  174.5640  144.5510 C   0  0  2  0  0  3  0  0  0  0  0  0
  197.3530  174.6460  142.2100 C   0  0  0  0  0  2  0  0  0  0  0  0
  196.7900  173.2420  143.8460 C   0  0  0  0  0  2  0  0  0  0  0  0
  1 27  1  0  0  0  0
  1 18  1  0  0  0  0
  2 14  1  0  0  0  0
  2 27  1  0  0  0  0
  3 16  1  1  0  0  0
  3 19  1  0  0  0  0
  3  7  1  0  0  0  0
  4 18  2  0  0  0  0
  4 15  1  0  0  0  0
  5 11  1  1  0  0  0
  5 19  1  0  0  0  0
  7  6  1  0  0  0  0
  8 16  2  0  0  0  0
  9 25  1  0  0  0  0
  9 13  2  0  0  0  0
 10 22  1  0  0  0  0
 12  8  1  0  0  0  0
 13 24  1  0  0  0  0
 15 12  1  6  0  0  0
 15  5  1  0  0  0  0
 17 28  1  6  0  0  0
 17 10  1  0  0  0  0
 18 20  1  0  0  0  0
 19  6  1  1  0  0  0
 20 13  1  0  0  0  0
 20 11  1  0  0  0  0
 21 26  1  0  0  0  0
 21 23  2  0  0  0  0
 23  4  1  0  0  0  0
 24 22  1  0  0  0  0
 25 14  1  6  0  0  0
 25 17  1  0  0  0  0
 26  1  2  0  0  0  0
 27  9  1  0  0  0  0
 28 29  1  0  0  0  0
 30 34  1  0  0  0  0
 31 32  1  0  0  0  0
 32 29  1  6  0  0  0
 33 30  1  0  0  0  0
 33 31  1  0  0  0  0
 34 32  1  0  0  0  0
M  END
>  <MODEL>
2

>  <REMARK>
 VINA RESULT:      -8.8      0.939      1.213
  Name = 
  3 active torsions:
  status: ('A' for Active; 'I' for Inactive)
    1  A    between atoms: C_17  and  O_28
    2  A    between atoms: O_28  and  C_29
    3  A    between atoms: C_29  and  C_32
                            x       y       z     vdW  Elec       q    Type
                         _______ _______ _______ _____ _____    ______ ____

>  <TORSDO>
F 3

$$$$
=
 OpenBabel11112417523D

 34 41  0  0  1  0  0  0  0  0999 V2000
  192.3520  176.2320  145.5620 C   0  0  0  0  0  0  0  0  0  0  0  0
  190.2730  177.0930  146.8060 C   0  0  0  0  0  2  0  0  0  0  0  0
  195.4560  175.2670  139.9690 C   0  0  2  0  0  3  0  0  0  0  0  0
  194.2100  175.4840  144.2040 C   0  0  0  0  0  0  0  0  0  0  0  0
  193.8200  175.2840  141.7110 C   0  0  1  0  0  3  0  0  0  0  0  0
  193.7640  174.6680  139.1310 C   0  0  0  0  0  2  0  0  0  0  0  0
  195.0020  175.1480  138.6490 O   0  0  0  0  0  0  0  0  0  0  0  0
  197.0280  174.6070  141.6710 C   0  0  0  0  0  3  0  0  0  0  0  0
  190.0670  176.3230  144.5830 C   0  0  0  0  0  0  0  0  0  0  0  0
  187.3390  176.6150  142.8340 C   0  0  0  0  0  2  0  0  0  0  0  0
  192.3890  174.8700  142.0350 C   0  0  0  0  0  2  0  0  0  0  0  0
  196.2260  175.4030  142.6960 C   0  0  0  0  0  2  0  0  0  0  0  0
  190.5090  175.8540  143.3910 C   0  0  0  0  0  0  0  0  0  0  0  0
  188.8530  177.3970  146.3160 C   0  0  0  0  0  2  0  0  0  0  0  0
  194.7580  174.9390  142.9050 C   0  0  1  0  0  3  0  0  0  0  0  0
  196.6980  174.5560  140.3660 C   0  0  0  0  0  3  0  0  0  0  0  0
  187.9640  177.5080  143.9140 C   0  0  2  0  0  3  0  0  0  0  0  0
  192.8340  175.7460  144.3430 C   0  0  0  0  0  0  0  0  0  0  0  0
  194.3140  174.4930  140.5220 C   0  0  1  0  0  3  0  0  0  0  0  0
  191.9180  175.5460  143.2430 N   0  0  0  0  0  0  0  0  0  0  0  0
  194.5750  176.1100  146.4750 C   0  0  0  0  0  3  0  0  0  0  0  0
  188.1840  175.3940  142.4670 C   0  0  0  0  0  2  0  0  0  0  0  0
  195.0340  175.6510  145.2790 N   0  0  0  0  0  0  0  0  0  0  0  0
  189.6230  175.7880  142.1660 C   0  0  0  0  0  2  0  0  0  0  0  0
  188.6690  176.6620  144.9790 C   0  0  1  0  0  3  0  0  0  0  0  0
  193.2230  176.4170  146.6380 C   0  0  0  0  0  3  0  0  0  0  0  0
  190.9560  176.5230  145.6630 N   0  0  0  0  0  0  0  0  0  0  0  0
  186.9590  178.2970  144.4810 O   0  0  0  0  0  0  0  0  0  0  0  0
  185.7890  177.5480  144.3330 C   0  0  0  0  0  2  0  0  0  0  0  0
  185.7790  177.3060  147.5870 O   0  0  0  0  0  0  0  0  0  0  0  0
  185.2440  179.1130  146.1670 C   0  0  0  0  0  2  0  0  0  0  0  0
  184.8370  177.8430  145.4780 C   0  0  2  0  0  3  0  0  0  0  0  0
  185.5170  178.6830  147.5870 C   0  0  0  0  0  2  0  0  0  0  0  0
  184.9940  176.7840  146.5470 C   0  0  0  0  0  2  0  0  0  0  0  0
  1 27  1  0  0  0  0
  1 26  1  0  0  0  0
  3 16  1  6  0  0  0
  3 19  1  0  0  0  0
  4 18  1  0  0  0  0
  4 23  2  0  0  0  0
  5 11  1  1  0  0  0
  5 15  1  0  0  0  0
  7  6  1  0  0  0  0
  7  3  1  0  0  0  0
  8 12  1  0  0  0  0
  9 25  1  0  0  0  0
  9 27  1  0  0  0  0
 10 17  1  0  0  0  0
 11 20  1  0  0  0  0
 13  9  2  0  0  0  0
 14  2  1  0  0  0  0
 15 12  1  6  0  0  0
 15  4  1  0  0  0  0
 16  8  2  0  0  0  0
 17 28  1  1  0  0  0
 17 25  1  0  0  0  0
 18  1  2  0  0  0  0
 19  6  1  6  0  0  0
 19  5  1  0  0  0  0
 20 13  1  0  0  0  0
 20 18  1  0  0  0  0
 21 26  2  0  0  0  0
 22 10  1  0  0  0  0
 23 21  1  0  0  0  0
 24 22  1  0  0  0  0
 24 13  1  0  0  0  0
 25 14  1  1  0  0  0
 27  2  1  0  0  0  0
 29 28  1  0  0  0  0
 30 33  1  0  0  0  0
 31 33  1  0  0  0  0
 32 29  1  6  0  0  0
 32 31  1  0  0  0  0
 32 34  1  0  0  0  0
 34 30  1  0  0  0  0
M  END
>  <MODEL>
3

>  <REMARK>
 VINA RESULT:      -8.5      2.562      9.123
  Name = 
  3 active torsions:
  status: ('A' for Active; 'I' for Inactive)
    1  A    between atoms: C_17  and  O_28
    2  A    between atoms: O_28  and  C_29
    3  A    between atoms: C_29  and  C_32
                            x       y       z     vdW  Elec       q    Type
                         _______ _______ _______ _____ _____    ______ ____

>  <TORSDO>
F 3

$$$$
=
 OpenBabel11112417523D

 34 41  0  0  1  0  0  0  0  0999 V2000
  192.3020  176.0550  145.5380 C   0  0  0  0  0  0  0  0  0  0  0  0
  190.0830  176.5470  146.7400 C   0  0  0  0  0  2  0  0  0  0  0  0
  195.6170  175.5780  140.0030 C   0  0  2  0  0  3  0  0  0  0  0  0
  194.2860  175.6340  144.2180 C   0  0  0  0  0  0  0  0  0  0  0  0
  193.9780  175.3270  141.7240 C   0  0  1  0  0  3  0  0  0  0  0  0
  194.0740  174.6700  139.1560 C   0  0  0  0  0  2  0  0  0  0  0  0
  195.2120  175.3580  138.6800 O   0  0  0  0  0  0  0  0  0  0  0  0
  197.2560  175.2400  141.7370 C   0  0  0  0  0  3  0  0  0  0  0  0
  190.0540  175.7170  144.5290 C   0  0  0  0  0  0  0  0  0  0  0  0
  187.3460  175.4840  142.7410 C   0  0  0  0  0  2  0  0  0  0  0  0
  192.6400  174.6660  142.0380 C   0  0  0  0  0  2  0  0  0  0  0  0
  196.3070  175.8940  142.7360 C   0  0  0  0  0  2  0  0  0  0  0  0
  190.5920  175.3170  143.3520 C   0  0  0  0  0  0  0  0  0  0  0  0
  188.6390  176.5810  146.2270 C   0  0  0  0  0  2  0  0  0  0  0  0
  194.9430  175.1760  142.9360 C   0  0  1  0  0  3  0  0  0  0  0  0
  196.9610  175.1090  140.4290 C   0  0  0  0  0  3  0  0  0  0  0  0
  187.7830  176.4920  143.8120 C   0  0  2  0  0  3  0  0  0  0  0  0
  192.8840  175.6450  144.3340 C   0  0  0  0  0  0  0  0  0  0  0  0
  194.6250  174.6190  140.5570 C   0  0  1  0  0  3  0  0  0  0  0  0
  192.0350  175.2650  143.2270 N   0  0  0  0  0  0  0  0  0  0  0  0
  194.4960  176.3520  146.4810 C   0  0  0  0  0  3  0  0  0  0  0  0
  188.4030  174.4290  142.4070 C   0  0  0  0  0  2  0  0  0  0  0  0
  195.0490  175.9640  145.2990 N   0  0  0  0  0  0  0  0  0  0  0  0
  189.7520  175.0720  142.1170 C   0  0  0  0  0  2  0  0  0  0  0  0
  188.6120  175.8040  144.9020 C   0  0  1  0  0  3  0  0  0  0  0  0
  193.1090  176.4120  146.6220 C   0  0  0  0  0  3  0  0  0  0  0  0
  190.8760  176.0920  145.6160 N   0  0  0  0  0  0  0  0  0  0  0  0
  186.6430  177.0960  144.3510 O   0  0  0  0  0  0  0  0  0  0  0  0
  186.5770  178.3490  143.7370 C   0  0  0  0  0  2  0  0  0  0  0  0
  183.6300  178.7430  145.0830 O   0  0  0  0  0  0  0  0  0  0  0  0
  185.7870  178.7700  146.0410 C   0  0  0  0  0  2  0  0  0  0  0  0
  185.8850  179.3400  144.6550 C   0  0  2  0  0  3  0  0  0  0  0  0
  184.3030  178.7340  146.3120 C   0  0  0  0  0  2  0  0  0  0  0  0
  184.4440  179.5020  144.2260 C   0  0  0  0  0  2  0  0  0  0  0  0
  1 27  1  0  0  0  0
  1 26  1  0  0  0  0
  3 16  1  6  0  0  0
  3 19  1  0  0  0  0
  4 18  1  0  0  0  0
  4 23  2  0  0  0  0
  5 11  1  1  0  0  0
  5 15  1  0  0  0  0
  7  6  1  0  0  0  0
  7  3  1  0  0  0  0
  8 12  1  0  0  0  0
  9 25  1  0  0  0  0
  9 27  1  0  0  0  0
 10 17  1  0  0  0  0
 11 20  1  0  0  0  0
 13  9  2  0  0  0  0
 14  2  1  0  0  0  0
 15 12  1  6  0  0  0
 15  4  1  0  0  0  0
 16  8  2  0  0  0  0
 17 28  1  1  0  0  0
 17 25  1  0  0  0  0
 18  1  2  0  0  0  0
 19  6  1  6  0  0  0
 19  5  1  0  0  0  0
 20 13  1  0  0  0  0
 20 18  1  0  0  0  0
 21 26  2  0  0  0  0
 22 10  1  0  0  0  0
 23 21  1  0  0  0  0
 24 22  1  0  0  0  0
 24 13  1  0  0  0  0
 25 14  1  1  0  0  0
 27  2  1  0  0  0  0
 29 28  1  0  0  0  0
 30 33  1  0  0  0  0
 31 33  1  0  0  0  0
 32 29  1  6  0  0  0
 32 31  1  0  0  0  0
 34 32  1  0  0  0  0
 34 30  1  0  0  0  0
M  END
>  <MODEL>
4

>  <REMARK>
 VINA RESULT:      -8.4      2.651      9.300
  Name = 
  3 active torsions:
  status: ('A' for Active; 'I' for Inactive)
    1  A    between atoms: C_17  and  O_28
    2  A    between atoms: O_28  and  C_29
    3  A    between atoms: C_29  and  C_32
                            x       y       z     vdW  Elec       q    Type
                         _______ _______ _______ _____ _____    ______ ____

>  <TORSDO>
F 3

$$$$
=
 OpenBabel11112417523D

 34 41  0  0  1  0  0  0  0  0999 V2000
  189.9030  174.8410  145.1140 C   0  0  0  0  0  0  0  0  0  0  0  0
  191.4010  172.8070  144.6380 C   0  0  0  0  0  2  0  0  0  0  0  0
  184.5560  178.2210  143.7560 C   0  0  2  0  0  3  0  0  0  0  0  0
  188.3580  176.6800  145.4040 C   0  0  0  0  0  0  0  0  0  0  0  0
  186.6290  177.0430  143.5910 C   0  0  1  0  0  3  0  0  0  0  0  0
  184.8700  177.9420  141.8200 C   0  0  0  0  0  2  0  0  0  0  0  0
  183.7520  178.2900  142.6110 O   0  0  0  0  0  0  0  0  0  0  0  0
  185.5260  179.3350  145.6600 C   0  0  0  0  0  3  0  0  0  0  0  0
  190.0560  173.6960  142.9120 C   0  0  0  0  0  0  0  0  0  0  0  0
  189.7010  172.2710  140.0080 C   0  0  0  0  0  2  0  0  0  0  0  0
  187.6750  176.5620  142.5900 C   0  0  0  0  0  2  0  0  0  0  0  0
  186.3360  178.0780  145.9600 C   0  0  0  0  0  2  0  0  0  0  0  0
  189.1250  174.5150  142.3680 C   0  0  0  0  0  0  0  0  0  0  0  0
  191.4850  171.8720  143.4270 C   0  0  0  0  0  2  0  0  0  0  0  0
  187.3280  177.6370  144.8480 C   0  0  1  0  0  3  0  0  0  0  0  0
  184.6510  179.4130  144.6370 C   0  0  0  0  0  3  0  0  0  0  0  0
  189.9060  171.6930  141.4140 C   0  0  2  0  0  3  0  0  0  0  0  0
  188.9390  175.7010  144.5780 C   0  0  0  0  0  0  0  0  0  0  0  0
  185.8170  178.1570  142.9720 C   0  0  1  0  0  3  0  0  0  0  0  0
  188.5420  175.5530  143.1960 N   0  0  0  0  0  0  0  0  0  0  0  0
  189.7340  175.9880  147.2220 C   0  0  0  0  0  3  0  0  0  0  0  0
  189.5790  173.7960  139.9710 C   0  0  0  0  0  2  0  0  0  0  0  0
  188.7880  176.8100  146.6920 N   0  0  0  0  0  0  0  0  0  0  0  0
  188.5570  174.2930  140.9830 C   0  0  0  0  0  2  0  0  0  0  0  0
  190.8190  172.5990  142.2480 C   0  0  1  0  0  3  0  0  0  0  0  0
  190.3060  174.9810  146.4440 C   0  0  0  0  0  3  0  0  0  0  0  0
  190.4500  173.8320  144.2620 N   0  0  0  0  0  0  0  0  0  0  0  0
  190.4420  170.4070  141.2970 O   0  0  0  0  0  0  0  0  0  0  0  0
  190.8240  170.2990  139.9580 C   0  0  0  0  0  2  0  0  0  0  0  0
  193.8740  170.9270  140.9320 O   0  0  0  0  0  0  0  0  0  0  0  0
  192.5400  168.9950  141.1660 C   0  0  0  0  0  2  0  0  0  0  0  0
  192.1910  169.6470  139.8600 C   0  0  2  0  0  3  0  0  0  0  0  0
  193.8100  169.6910  141.5900 C   0  0  0  0  0  2  0  0  0  0  0  0
  193.2480  170.7160  139.6940 C   0  0  0  0  0  2  0  0  0  0  0  0
  1 26  1  0  0  0  0
  3 16  1  1  0  0  0
  4 23  2  0  0  0  0
  5 11  1  6  0  0  0
  5 15  1  0  0  0  0
  6  7  1  0  0  0  0
  7  3  1  0  0  0  0
  8 12  1  0  0  0  0
  9 27  1  0  0  0  0
 10 17  1  0  0  0  0
 11 20  1  0  0  0  0
 13  9  2  0  0  0  0
 13 20  1  0  0  0  0
 14  2  1  0  0  0  0
 15  4  1  0  0  0  0
 15 12  1  1  0  0  0
 16  8  2  0  0  0  0
 17 28  1  6  0  0  0
 17 25  1  0  0  0  0
 18  1  2  0  0  0  0
 18  4  1  0  0  0  0
 19  6  1  6  0  0  0
 19  5  1  0  0  0  0
 19  3  1  0  0  0  0
 20 18  1  0  0  0  0
 22 10  1  0  0  0  0
 22 24  1  0  0  0  0
 23 21  1  0  0  0  0
 24 13  1  0  0  0  0
 25  9  1  0  0  0  0
 25 14  1  1  0  0  0
 26 21  2  0  0  0  0
 27  2  1  0  0  0  0
 27  1  1  0  0  0  0
 29 28  1  0  0  0  0
 30 33  1  0  0  0  0
 31 33  1  0  0  0  0
 32 29  1  1  0  0  0
 32 31  1  0  0  0  0
 34 32  1  0  0  0  0
 34 30  1  0  0  0  0
M  END
>  <MODEL>
5

>  <REMARK>
 VINA RESULT:      -8.0      3.240      5.090
  Name = 
  3 active torsions:
  status: ('A' for Active; 'I' for Inactive)
    1  A    between atoms: C_17  and  O_28
    2  A    between atoms: O_28  and  C_29
    3  A    between atoms: C_29  and  C_32
                            x       y       z     vdW  Elec       q    Type
                         _______ _______ _______ _____ _____    ______ ____

>  <TORSDO>
F 3

$$$$
=
 OpenBabel11112417523D

 34 41  0  0  1  0  0  0  0  0999 V2000
  188.6050  177.2650  146.3270 C   0  0  0  0  0  0  0  0  0  0  0  0
  190.6080  176.3990  147.6870 C   0  0  0  0  0  2  0  0  0  0  0  0
  185.3570  177.4110  140.7340 C   0  0  2  0  0  3  0  0  0  0  0  0
  186.7980  177.9620  144.8760 C   0  0  0  0  0  0  0  0  0  0  0  0
  187.0700  177.5370  142.3960 C   0  0  1  0  0  3  0  0  0  0  0  0
  187.0660  177.5430  139.7430 C   0  0  0  0  0  2  0  0  0  0  0  0
  185.7480  177.1610  139.4120 O   0  0  0  0  0  0  0  0  0  0  0  0
  183.9940  178.6660  142.2750 C   0  0  0  0  0  3  0  0  0  0  0  0
  190.7940  176.6120  145.3420 C   0  0  0  0  0  0  0  0  0  0  0  0
  193.3490  175.5260  143.6460 C   0  0  0  0  0  2  0  0  0  0  0  0
  188.5620  177.7920  142.5830 C   0  0  0  0  0  2  0  0  0  0  0  0
  184.7320  178.0070  143.4360 C   0  0  0  0  0  2  0  0  0  0  0  0
  190.3560  176.8630  144.0860 C   0  0  0  0  0  0  0  0  0  0  0  0
  191.9400  175.7820  147.2480 C   0  0  0  0  0  2  0  0  0  0  0  0
  186.2600  178.2780  143.4990 C   0  0  1  0  0  3  0  0  0  0  0  0
  184.2530  178.3720  140.9850 C   0  0  0  0  0  3  0  0  0  0  0  0
  192.6660  175.0030  144.9160 C   0  0  2  0  0  3  0  0  0  0  0  0
  188.1280  177.5320  145.0400 C   0  0  0  0  0  0  0  0  0  0  0  0
  186.6260  178.1070  141.0680 C   0  0  1  0  0  3  0  0  0  0  0  0
  189.0000  177.3400  143.9030 N   0  0  0  0  0  0  0  0  0  0  0  0
  186.4780  177.9220  147.2380 C   0  0  0  0  0  3  0  0  0  0  0  0
  192.6670  176.7480  143.0270 C   0  0  0  0  0  2  0  0  0  0  0  0
  186.0210  178.1660  145.9790 N   0  0  0  0  0  0  0  0  0  0  0  0
  191.1720  176.5180  142.8580 C   0  0  0  0  0  2  0  0  0  0  0  0
  192.1500  176.1630  145.7740 C   0  0  1  0  0  3  0  0  0  0  0  0
  187.7790  177.4590  147.4360 C   0  0  0  0  0  3  0  0  0  0  0  0
  189.9490  176.7950  146.4600 N   0  0  0  0  0  0  0  0  0  0  0  0
  193.5790  174.2180  145.6260 O   0  0  0  0  0  0  0  0  0  0  0  0
  194.2730  173.5020  144.6470 C   0  0  0  0  0  2  0  0  0  0  0  0
  197.4130  173.4830  143.7560 O   0  0  0  0  0  0  0  0  0  0  0  0
  196.3760  174.1650  145.7630 C   0  0  0  0  0  2  0  0  0  0  0  0
  195.5970  173.0100  145.2050 C   0  0  2  0  0  3  0  0  0  0  0  0
  197.6520  174.1630  144.9580 C   0  0  0  0  0  2  0  0  0  0  0  0
  196.4610  172.5010  144.0740 C   0  0  0  0  0  2  0  0  0  0  0  0
  1 27  1  0  0  0  0
  1 26  1  0  0  0  0
  3 16  1  6  0  0  0
  3 19  1  0  0  0  0
  4 18  1  0  0  0  0
  4 23  2  0  0  0  0
  5 11  1  1  0  0  0
  5 15  1  0  0  0  0
  7  6  1  0  0  0  0
  7  3  1  0  0  0  0
  8 12  1  0  0  0  0
  9 25  1  0  0  0  0
  9 27  1  0  0  0  0
 10 17  1  0  0  0  0
 11 20  1  0  0  0  0
 13  9  2  0  0  0  0
 14  2  1  0  0  0  0
 15 12  1  1  0  0  0
 15  4  1  0  0  0  0
 16  8  2  0  0  0  0
 17 28  1  1  0  0  0
 17 25  1  0  0  0  0
 18  1  2  0  0  0  0
 19  6  1  6  0  0  0
 19  5  1  0  0  0  0
 20 13  1  0  0  0  0
 20 18  1  0  0  0  0
 21 26  2  0  0  0  0
 22 10  1  0  0  0  0
 23 21  1  0  0  0  0
 24 22  1  0  0  0  0
 24 13  1  0  0  0  0
 25 14  1  1  0  0  0
 27  2  1  0  0  0  0
 29 28  1  0  0  0  0
 30 34  1  0  0  0  0
 30 33  1  0  0  0  0
 32 29  1  6  0  0  0
 32 31  1  0  0  0  0
 33 31  1  0  0  0  0
 34 32  1  0  0  0  0
M  END
>  <MODEL>
6

>  <REMARK>
 VINA RESULT:      -8.0      2.284      4.101
  Name = 
  3 active torsions:
  status: ('A' for Active; 'I' for Inactive)
    1  A    between atoms: C_17  and  O_28
    2  A    between atoms: O_28  and  C_29
    3  A    between atoms: C_29  and  C_32
                            x       y       z     vdW  Elec       q    Type
                         _______ _______ _______ _____ _____    ______ ____

>  <TORSDO>
F 3

$$$$
=
 OpenBabel11112417523D

 34 41  0  0  1  0  0  0  0  0999 V2000
  189.1580  174.8520  141.9610 C   0  0  0  0  0  0  0  0  0  0  0  0
  186.8540  175.8180  142.5700 C   0  0  0  0  0  2  0  0  0  0  0  0
  194.8300  172.4150  143.8960 C   0  0  2  0  0  3  0  0  0  0  0  0
  191.3630  173.9210  141.6040 C   0  0  0  0  0  0  0  0  0  0  0  0
  192.9160  173.8160  143.6010 C   0  0  1  0  0  3  0  0  0  0  0  0
  194.9300  173.7810  145.3260 C   0  0  0  0  0  2  0  0  0  0  0  0
  195.5420  172.5290  145.0970 O   0  0  0  0  0  0  0  0  0  0  0  0
  194.8620  172.2260  141.4940 C   0  0  0  0  0  3  0  0  0  0  0  0
  188.6590  176.0670  144.0730 C   0  0  0  0  0  0  0  0  0  0  0  0
  188.3300  177.2660  147.0800 C   0  0  0  0  0  2  0  0  0  0  0  0
  192.2760  175.1130  144.0830 C   0  0  0  0  0  2  0  0  0  0  0  0
  193.3430  172.3690  141.4810 C   0  0  0  0  0  2  0  0  0  0  0  0
  189.9210  175.8830  144.5310 C   0  0  0  0  0  0  0  0  0  0  0  0
  186.3200  176.4160  143.8760 C   0  0  0  0  0  2  0  0  0  0  0  0
  192.7900  173.7030  142.0530 C   0  0  1  0  0  3  0  0  0  0  0  0
  195.5830  172.2120  142.6320 C   0  0  0  0  0  3  0  0  0  0  0  0
  187.3920  176.4240  146.2040 C   0  0  2  0  0  3  0  0  0  0  0  0
  190.4670  174.6480  142.4090 C   0  0  0  0  0  0  0  0  0  0  0  0
  194.3920  173.8350  143.9210 C   0  0  1  0  0  3  0  0  0  0  0  0
  190.8660  175.1660  143.6980 N   0  0  0  0  0  0  0  0  0  0  0  0
  189.6880  173.6850  139.9250 C   0  0  0  0  0  3  0  0  0  0  0  0
  189.6960  177.5410  146.4480 C   0  0  0  0  0  2  0  0  0  0  0  0
  190.9550  173.4820  140.3790 N   0  0  0  0  0  0  0  0  0  0  0  0
  190.3360  176.2580  145.9370 C   0  0  0  0  0  2  0  0  0  0  0  0
  187.5390  176.8040  144.7270 C   0  0  1  0  0  3  0  0  0  0  0  0
  188.7610  174.3690  140.7120 C   0  0  0  0  0  3  0  0  0  0  0  0
  188.2590  175.5620  142.8150 N   0  0  0  0  0  0  0  0  0  0  0  0
  186.0790  176.6110  146.6460 O   0  0  0  0  0  0  0  0  0  0  0  0
  186.1590  177.6460  147.5800 C   0  0  0  0  0  2  0  0  0  0  0  0
  185.4140  179.5850  145.0630 O   0  0  0  0  0  0  0  0  0  0  0  0
  184.0660  178.1520  146.3660 C   0  0  0  0  0  2  0  0  0  0  0  0
  185.1360  178.7190  147.2520 C   0  0  2  0  0  3  0  0  0  0  0  0
  184.1420  179.0000  145.1200 C   0  0  0  0  0  2  0  0  0  0  0  0
  185.7840  179.7890  146.4020 C   0  0  0  0  0  2  0  0  0  0  0  0
  1 18  1  0  0  0  0
  1 27  1  0  0  0  0
  2 27  1  0  0  0  0
  2 14  1  0  0  0  0
  3 16  1  6  0  0  0
  3 19  1  0  0  0  0
  3  7  1  0  0  0  0
  4 15  1  0  0  0  0
  4 18  2  0  0  0  0
  5 19  1  0  0  0  0
  5 11  1  6  0  0  0
  7  6  1  0  0  0  0
  8 16  2  0  0  0  0
  9 13  2  0  0  0  0
  9 25  1  0  0  0  0
 12  8  1  0  0  0  0
 13 24  1  0  0  0  0
 15 12  1  1  0  0  0
 15  5  1  0  0  0  0
 17 28  1  1  0  0  0
 17 10  1  0  0  0  0
 18 20  1  0  0  0  0
 19  6  1  1  0  0  0
 20 11  1  0  0  0  0
 20 13  1  0  0  0  0
 21 23  2  0  0  0  0
 21 26  1  0  0  0  0
 22 10  1  0  0  0  0
 23  4  1  0  0  0  0
 24 22  1  0  0  0  0
 25 14  1  6  0  0  0
 25 17  1  0  0  0  0
 26  1  2  0  0  0  0
 27  9  1  0  0  0  0
 28 29  1  0  0  0  0
 30 33  1  0  0  0  0
 30 34  1  0  0  0  0
 31 32  1  0  0  0  0
 32 29  1  6  0  0  0
 33 31  1  0  0  0  0
 34 32  1  0  0  0  0
M  END
>  <MODEL>
7

>  <REMARK>
 VINA RESULT:      -7.9      1.648      8.443
  Name = 
  3 active torsions:
  status: ('A' for Active; 'I' for Inactive)
    1  A    between atoms: C_17  and  O_28
    2  A    between atoms: O_28  and  C_29
    3  A    between atoms: C_29  and  C_32
                            x       y       z     vdW  Elec       q    Type
                         _______ _______ _______ _____ _____    ______ ____

>  <TORSDO>
F 3

$$$$
=
 OpenBabel11112417523D

 34 41  0  0  1  0  0  0  0  0999 V2000
  190.9180  173.8430  141.0480 C   0  0  0  0  0  0  0  0  0  0  0  0
  188.4400  174.1640  141.6560 C   0  0  0  0  0  2  0  0  0  0  0  0
  197.1490  174.5630  142.6330 C   0  0  2  0  0  3  0  0  0  0  0  0
  193.2990  173.6330  140.6690 C   0  0  0  0  0  0  0  0  0  0  0  0
  194.8360  174.9610  142.1800 C   0  0  1  0  0  3  0  0  0  0  0  0
  196.7640  176.3770  143.3280 C   0  0  0  0  0  2  0  0  0  0  0  0
  197.8010  175.4360  143.5130 O   0  0  0  0  0  0  0  0  0  0  0  0
  197.1750  173.3260  140.5640 C   0  0  0  0  0  3  0  0  0  0  0  0
  190.0590  175.6440  142.5320 C   0  0  0  0  0  0  0  0  0  0  0  0
  189.3920  177.8940  144.7860 C   0  0  0  0  0  2  0  0  0  0  0  0
  193.7640  176.0450  142.2080 C   0  0  0  0  0  2  0  0  0  0  0  0
  195.7170  172.9410  140.7980 C   0  0  0  0  0  2  0  0  0  0  0  0
  191.3090  176.1140  142.7630 C   0  0  0  0  0  0  0  0  0  0  0  0
  187.7590  175.0770  142.6810 C   0  0  0  0  0  2  0  0  0  0  0  0
  194.7140  174.1240  140.8730 C   0  0  1  0  0  3  0  0  0  0  0  0
  197.8820  174.0690  141.4390 C   0  0  0  0  0  3  0  0  0  0  0  0
  188.8200  176.4920  144.5380 C   0  0  2  0  0  3  0  0  0  0  0  0
  192.2180  174.3070  141.2680 C   0  0  0  0  0  0  0  0  0  0  0  0
  196.2020  175.6070  142.1620 C   0  0  1  0  0  3  0  0  0  0  0  0
  192.4300  175.4520  142.1250 N   0  0  0  0  0  0  0  0  0  0  0  0
  191.7900  172.1260  139.6050 C   0  0  0  0  0  3  0  0  0  0  0  0
  190.5270  178.2830  143.8370 C   0  0  0  0  0  2  0  0  0  0  0  0
  193.0520  172.5800  139.8390 N   0  0  0  0  0  0  0  0  0  0  0  0
  191.5930  177.1990  143.7790 C   0  0  0  0  0  2  0  0  0  0  0  0
  188.7630  176.1840  143.0380 C   0  0  1  0  0  3  0  0  0  0  0  0
  190.6970  172.7450  140.2120 C   0  0  0  0  0  3  0  0  0  0  0  0
  189.8430  174.5240  141.6980 N   0  0  0  0  0  0  0  0  0  0  0  0
  187.5500  176.4160  145.1170 O   0  0  0  0  0  0  0  0  0  0  0  0
  187.7520  176.7230  146.4650 C   0  0  0  0  0  2  0  0  0  0  0  0
  185.4890  179.0440  146.8410 O   0  0  0  0  0  0  0  0  0  0  0  0
  185.3000  176.7910  146.1650 C   0  0  0  0  0  2  0  0  0  0  0  0
  186.4150  176.8850  147.1650 C   0  0  2  0  0  3  0  0  0  0  0  0
  184.5950  178.1190  146.2830 C   0  0  0  0  0  2  0  0  0  0  0  0
  186.2990  178.2920  147.7070 C   0  0  0  0  0  2  0  0  0  0  0  0
  1 18  1  0  0  0  0
  1 27  1  0  0  0  0
  2 27  1  0  0  0  0
  2 14  1  0  0  0  0
  3 16  1  6  0  0  0
  3  7  1  0  0  0  0
  4 15  1  0  0  0  0
  4 18  2  0  0  0  0
  5 11  1  6  0  0  0
  6  7  1  0  0  0  0
  8 12  1  0  0  0  0
  8 16  2  0  0  0  0
  9 13  2  0  0  0  0
  9 25  1  0  0  0  0
 13 24  1  0  0  0  0
 15 12  1  1  0  0  0
 15  5  1  0  0  0  0
 17 10  1  0  0  0  0
 17 28  1  6  0  0  0
 18 20  1  0  0  0  0
 19  5  1  0  0  0  0
 19  3  1  0  0  0  0
 19  6  1  1  0  0  0
 20 11  1  0  0  0  0
 20 13  1  0  0  0  0
 21 23  2  0  0  0  0
 21 26  1  0  0  0  0
 22 10  1  0  0  0  0
 23  4  1  0  0  0  0
 24 22  1  0  0  0  0
 25 14  1  1  0  0  0
 25 17  1  0  0  0  0
 26  1  2  0  0  0  0
 27  9  1  0  0  0  0
 28 29  1  0  0  0  0
 30 34  1  0  0  0  0
 31 33  1  0  0  0  0
 31 32  1  0  0  0  0
 32 29  1  6  0  0  0
 32 34  1  0  0  0  0
 33 30  1  0  0  0  0
M  END
>  <MODEL>
8

>  <REMARK>
 VINA RESULT:      -7.8      2.417      8.811
  Name = 
  3 active torsions:
  status: ('A' for Active; 'I' for Inactive)
    1  A    between atoms: C_17  and  O_28
    2  A    between atoms: O_28  and  C_29
    3  A    between atoms: C_29  and  C_32
                            x       y       z     vdW  Elec       q    Type
                         _______ _______ _______ _____ _____    ______ ____

>  <TORSDO>
F 3

$$$$
=
 OpenBabel11112417523D

 34 41  0  0  1  0  0  0  0  0999 V2000
  192.2570  176.4150  146.3030 C   0  0  0  0  0  0  0  0  0  0  0  0
  194.6170  175.4160  146.5130 C   0  0  0  0  0  2  0  0  0  0  0  0
  186.7570  176.9760  142.9430 C   0  0  2  0  0  3  0  0  0  0  0  0
  190.0180  177.2460  145.9160 C   0  0  0  0  0  0  0  0  0  0  0  0
  189.0570  176.9570  143.5920 C   0  0  1  0  0  3  0  0  0  0  0  0
  187.7960  177.1170  141.2630 C   0  0  0  0  0  2  0  0  0  0  0  0
  186.4610  176.7910  141.5870 O   0  0  0  0  0  0  0  0  0  0  0  0
  186.3560  178.1780  144.9930 C   0  0  0  0  0  3  0  0  0  0  0  0
  193.6800  175.7580  144.3720 C   0  0  0  0  0  0  0  0  0  0  0  0
  195.0630  174.7000  141.6240 C   0  0  0  0  0  2  0  0  0  0  0  0
  190.4700  177.1580  143.0550 C   0  0  0  0  0  2  0  0  0  0  0  0
  187.5210  177.4330  145.6370 C   0  0  0  0  0  2  0  0  0  0  0  0
  192.7120  176.0940  143.4860 C   0  0  0  0  0  0  0  0  0  0  0  0
  195.5470  174.7880  145.4690 C   0  0  0  0  0  2  0  0  0  0  0  0
  188.9080  177.6560  144.9740 C   0  0  1  0  0  3  0  0  0  0  0  0
  185.9560  177.9520  143.7260 C   0  0  0  0  0  3  0  0  0  0  0  0
  195.0380  174.1240  143.0460 C   0  0  2  0  0  3  0  0  0  0  0  0
  191.2410  176.7700  145.4100 C   0  0  0  0  0  0  0  0  0  0  0  0
  188.0680  177.6150  142.6580 C   0  0  1  0  0  3  0  0  0  0  0  0
  191.4580  176.6190  143.9890 N   0  0  0  0  0  0  0  0  0  0  0  0
  190.8540  177.0790  148.1420 C   0  0  0  0  0  3  0  0  0  0  0  0
  194.2340  175.9740  141.4510 C   0  0  0  0  0  2  0  0  0  0  0  0
  189.8680  177.4080  147.2620 N   0  0  0  0  0  0  0  0  0  0  0  0
  192.8280  175.7980  142.0060 C   0  0  0  0  0  2  0  0  0  0  0  0
  195.0520  175.2470  144.0890 C   0  0  1  0  0  3  0  0  0  0  0  0
  192.0670  176.5690  147.6790 C   0  0  0  0  0  3  0  0  0  0  0  0
  193.4760  175.9010  145.7630 N   0  0  0  0  0  0  0  0  0  0  0  0
  196.1360  173.2740  143.2050 O   0  0  0  0  0  0  0  0  0  0  0  0
  195.6020  171.9840  143.1450 C   0  0  0  0  0  2  0  0  0  0  0  0
  197.1480  171.7100  146.0060 O   0  0  0  0  0  0  0  0  0  0  0  0
  195.7810  170.1870  144.8320 C   0  0  0  0  0  2  0  0  0  0  0  0
  196.5390  171.0030  143.8260 C   0  0  2  0  0  3  0  0  0  0  0  0
  196.4720  170.4900  146.1380 C   0  0  0  0  0  2  0  0  0  0  0  0
  197.5450  171.7650  144.6600 C   0  0  0  0  0  2  0  0  0  0  0  0
  1 26  1  0  0  0  0
  3 16  1  6  0  0  0
  4 23  2  0  0  0  0
  5 11  1  6  0  0  0
  5 15  1  0  0  0  0
  6  7  1  0  0  0  0
  7  3  1  0  0  0  0
  8 12  1  0  0  0  0
  9 27  1  0  0  0  0
 10 17  1  0  0  0  0
 11 20  1  0  0  0  0
 13 20  1  0  0  0  0
 13  9  2  0  0  0  0
 14  2  1  0  0  0  0
 15 12  1  1  0  0  0
 15  4  1  0  0  0  0
 16  8  2  0  0  0  0
 17 28  1  1  0  0  0
 17 25  1  0  0  0  0
 18  4  1  0  0  0  0
 18  1  2  0  0  0  0
 19  6  1  6  0  0  0
 19  3  1  0  0  0  0
 19  5  1  0  0  0  0
 20 18  1  0  0  0  0
 22 10  1  0  0  0  0
 22 24  1  0  0  0  0
 23 21  1  0  0  0  0
 24 13  1  0  0  0  0
 25  9  1  0  0  0  0
 25 14  1  1  0  0  0
 26 21  2  0  0  0  0
 27  1  1  0  0  0  0
 27  2  1  0  0  0  0
 29 28  1  0  0  0  0
 30 33  1  0  0  0  0
 31 33  1  0  0  0  0
 32 29  1  1  0  0  0
 32 34  1  0  0  0  0
 32 31  1  0  0  0  0
 34 30  1  0  0  0  0
M  END
>  <MODEL>
9

>  <REMARK>
 VINA RESULT:      -7.8      2.157      4.290
  Name = 
  3 active torsions:
  status: ('A' for Active; 'I' for Inactive)
    1  A    between atoms: C_17  and  O_28
    2  A    between atoms: O_28  and  C_29
    3  A    between atoms: C_29  and  C_32
                            x       y       z     vdW  Elec       q    Type
                         _______ _______ _______ _____ _____    ______ ____

>  <TORSDO>
F 3

$$$$
