=
 OpenBabel11112416383D

 32 37  0  0  1  0  0  0  0  0999 V2000
  184.9850  178.8200  145.7350 C   0  0  0  0  0  2  0  0  0  0  0  0
  189.8050  175.6960  145.3250 C   0  0  1  0  0  3  0  0  0  0  0  0
  189.6250  172.1730  141.7910 C   0  0  0  0  0  3  0  0  0  0  0  0
  191.0060  172.0100  141.9010 C   0  0  0  0  0  3  0  0  0  0  0  0
  191.8470  175.7360  146.8680 C   0  0  2  0  0  3  0  0  0  0  0  0
  193.3390  175.8850  146.5260 C   0  0  2  0  0  3  0  0  0  0  0  0
  187.5290  176.6660  146.0350 C   0  0  2  0  0  3  0  0  0  0  0  0
  187.8580  175.6050  143.7350 C   0  0  0  0  0  2  0  0  0  0  0  0
  194.7410  175.3990  144.7010 C   0  0  0  0  0  0  0  0  0  0  0  0
  185.9730  177.1850  144.0690 C   0  0  0  0  0  2  0  0  0  0  0  0
  188.9610  173.0810  142.6190 C   0  0  0  0  0  3  0  0  0  0  0  0
  188.9120  174.7750  144.4810 C   0  0  1  0  0  3  0  0  0  0  0  0
  189.6720  173.8450  143.5570 C   0  0  0  0  0  0  0  0  0  0  0  0
  191.8610  174.4700  144.6740 C   0  0  2  0  0  3  0  0  0  0  0  0
  194.5370  176.6660  144.6320 N   0  0  0  0  0  0  0  0  0  0  0  0
  185.5630  177.9610  146.8630 C   0  0  0  0  0  2  0  0  0  0  0  0
  187.3940  176.8510  144.5060 C   0  0  1  0  0  3  0  0  0  0  0  0
  193.5840  177.1040  145.6370 C   0  0  0  0  0  2  0  0  0  0  0  0
  187.0820  177.8900  146.8280 C   0  0  0  0  0  2  0  0  0  0  0  0
  185.6650  178.6450  144.3750 C   0  0  1  0  0  3  0  0  0  0  0  0
  191.7220  172.7430  142.8470 C   0  0  0  0  0  3  0  0  0  0  0  0
  191.0640  173.6390  143.7040 C   0  0  0  0  0  0  0  0  0  0  0  0
  193.0250  173.7530  145.1880 N   0  0  0  0  0  2  0  0  0  0  0  0
  188.9690  176.3230  146.4510 C   0  0  0  0  0  2  0  0  0  0  0  0
  191.7040  175.1150  148.2430 C   0  0  0  0  0  1  0  0  0  0  0  0
  195.6350  174.7330  143.8160 N   0  0  0  0  0  1  0  0  0  0  0  0
  191.0150  174.9290  145.8560 C   0  0  2  0  0  3  0  0  0  0  0  0
  193.9880  174.7010  145.7720 C   0  0  2  0  0  3  0  0  0  0  0  0
  184.7750  179.2370  143.2950 C   0  0  0  0  0  2  0  0  0  0  0  0
  184.4760  178.2150  142.2100 C   0  0  2  0  0  3  0  0  0  0  0  0
  185.1790  178.5360  141.0490 O   0  0  0  0  0  1  0  0  0  0  0  0
  182.9910  178.2170  141.9150 C   0  0  0  0  0  1  0  0  0  0  0  0
  1 16  1  0  0  0  0
  2 27  1  0  0  0  0
  2 24  1  1  0  0  0
  3  4  2  0  0  0  0
  3 11  1  0  0  0  0
  4 21  1  0  0  0  0
  5 25  1  1  0  0  0
  6 18  1  6  0  0  0
  6  5  1  0  0  0  0
  7 24  1  6  0  0  0
  7 19  1  0  0  0  0
  9 28  1  0  0  0  0
 10 20  1  0  0  0  0
 10 17  1  0  0  0  0
 11 13  2  0  0  0  0
 12  8  1  6  0  0  0
 12  2  1  0  0  0  0
 13 22  1  0  0  0  0
 13 12  1  0  0  0  0
 14 22  1  6  0  0  0
 14 23  1  0  0  0  0
 14 27  1  0  0  0  0
 15  9  2  0  0  0  0
 15 18  1  0  0  0  0
 17  8  1  6  0  0  0
 17  7  1  0  0  0  0
 19 16  1  0  0  0  0
 20 29  1  6  0  0  0
 20  1  1  0  0  0  0
 21 22  2  0  0  0  0
 23 28  1  0  0  0  0
 26  9  1  0  0  0  0
 27  5  1  0  0  0  0
 28  6  1  0  0  0  0
 30 29  1  0  0  0  0
 31 30  1  0  0  0  0
 32 30  1  0  0  0  0
M  END
>  <MODEL>
1

>  <REMARK>
 VINA RESULT:      -8.9      0.000      0.000
  Name = 
  2 active torsions:
  status: ('A' for Active; 'I' for Inactive)
    1  A    between atoms: C_20  and  C_29
    2  A    between atoms: C_29  and  C_30
                            x       y       z     vdW  Elec       q    Type
                         _______ _______ _______ _____ _____    ______ ____

>  <TORSDO>
F 2

$$$$
=
 OpenBabel11112416383D

 32 37  0  0  1  0  0  0  0  0999 V2000
  185.5570  177.2780  143.3060 C   0  0  0  0  0  2  0  0  0  0  0  0
  190.7190  174.7280  143.1650 C   0  0  1  0  0  3  0  0  0  0  0  0
  193.9700  176.5820  146.4700 C   0  0  0  0  0  3  0  0  0  0  0  0
  194.8010  175.4830  146.2510 C   0  0  0  0  0  3  0  0  0  0  0  0
  191.5790  172.9990  141.4840 C   0  0  2  0  0  3  0  0  0  0  0  0
  192.2410  171.6320  141.7270 C   0  0  2  0  0  3  0  0  0  0  0  0
  188.6670  176.2060  142.6850 C   0  0  2  0  0  3  0  0  0  0  0  0
  189.9540  176.3990  144.8830 C   0  0  0  0  0  2  0  0  0  0  0  0
  193.5360  170.6240  143.4110 C   0  0  0  0  0  0  0  0  0  0  0  0
  187.6130  177.2180  144.7880 C   0  0  0  0  0  2  0  0  0  0  0  0
  192.7790  176.7110  145.7530 C   0  0  0  0  0  3  0  0  0  0  0  0
  191.1320  175.9400  144.0110 C   0  0  1  0  0  3  0  0  0  0  0  0
  192.3990  175.7380  144.8160 C   0  0  0  0  0  0  0  0  0  0  0  0
  192.8720  173.5710  143.5860 C   0  0  2  0  0  3  0  0  0  0  0  0
  192.3530  170.1480  143.5750 N   0  0  0  0  0  0  0  0  0  0  0  0
  186.4830  177.2550  142.0860 C   0  0  0  0  0  2  0  0  0  0  0  0
  188.5810  176.1820  144.2290 C   0  0  1  0  0  3  0  0  0  0  0  0
  191.4030  170.7720  142.6710 C   0  0  0  0  0  2  0  0  0  0  0  0
  187.3190  175.9870  142.0070 C   0  0  0  0  0  2  0  0  0  0  0  0
  186.1780  176.7440  144.5990 C   0  0  1  0  0  3  0  0  0  0  0  0
  194.4490  174.5200  145.3040 C   0  0  0  0  0  3  0  0  0  0  0  0
  193.2690  174.6530  144.5560 C   0  0  0  0  0  0  0  0  0  0  0  0
  194.0300  172.9540  142.9450 N   0  0  0  0  0  2  0  0  0  0  0  0
  189.6530  175.1580  142.1450 C   0  0  0  0  0  2  0  0  0  0  0  0
  191.9120  173.4810  140.0860 C   0  0  0  0  0  1  0  0  0  0  0  0
  194.6420  170.1710  144.1840 N   0  0  0  0  0  1  0  0  0  0  0  0
  191.9410  174.0980  142.5000 C   0  0  2  0  0  3  0  0  0  0  0  0
  193.6540  171.6590  142.3550 C   0  0  2  0  0  3  0  0  0  0  0  0
  185.3180  177.1730  145.7770 C   0  0  0  0  0  2  0  0  0  0  0  0
  186.1740  177.7060  146.9150 C   0  0  2  0  0  3  0  0  0  0  0  0
  186.1310  176.8230  147.9940 O   0  0  0  0  0  1  0  0  0  0  0  0
  185.6460  179.0560  147.3500 C   0  0  0  0  0  1  0  0  0  0  0  0
  1 20  1  0  0  0  0
  2 24  1  6  0  0  0
  2 12  1  0  0  0  0
  4  3  1  0  0  0  0
  5 25  1  6  0  0  0
  5  6  1  0  0  0  0
  5 27  1  0  0  0  0
  6 28  1  0  0  0  0
  6 18  1  1  0  0  0
  7 19  1  6  0  0  0
  7 17  1  0  0  0  0
  9 15  2  0  0  0  0
  9 26  1  0  0  0  0
 11  3  2  0  0  0  0
 12 13  1  0  0  0  0
 12  8  1  1  0  0  0
 13 11  1  0  0  0  0
 14 23  1  6  0  0  0
 14 22  1  0  0  0  0
 16  1  1  0  0  0  0
 17 10  1  1  0  0  0
 17  8  1  0  0  0  0
 18 15  1  0  0  0  0
 19 16  1  0  0  0  0
 20 10  1  0  0  0  0
 20 29  1  1  0  0  0
 21  4  2  0  0  0  0
 22 13  2  0  0  0  0
 22 21  1  0  0  0  0
 24  7  1  0  0  0  0
 27  2  1  0  0  0  0
 27 14  1  0  0  0  0
 28 23  1  0  0  0  0
 28  9  1  0  0  0  0
 29 30  1  0  0  0  0
 30 32  1  0  0  0  0
 30 31  1  0  0  0  0
M  END
>  <MODEL>
2

>  <REMARK>
 VINA RESULT:      -8.2      2.201      4.896
  Name = 
  2 active torsions:
  status: ('A' for Active; 'I' for Inactive)
    1  A    between atoms: C_20  and  C_29
    2  A    between atoms: C_29  and  C_30
                            x       y       z     vdW  Elec       q    Type
                         _______ _______ _______ _____ _____    ______ ____

>  <TORSDO>
F 2

$$$$
=
 OpenBabel11112416383D

 32 37  0  0  1  0  0  0  0  0999 V2000
  186.7450  177.4790  146.4520 C   0  0  0  0  0  2  0  0  0  0  0  0
  191.0880  174.9790  143.6140 C   0  0  1  0  0  3  0  0  0  0  0  0
  189.8480  173.3680  139.0530 C   0  0  0  0  0  3  0  0  0  0  0  0
  191.2020  173.2090  138.7550 C   0  0  0  0  0  3  0  0  0  0  0  0
  193.4170  174.3890  144.4970 C   0  0  2  0  0  3  0  0  0  0  0  0
  194.8040  174.7120  143.9140 C   0  0  2  0  0  3  0  0  0  0  0  0
  189.1110  175.4790  145.1850 C   0  0  2  0  0  3  0  0  0  0  0  0
  188.8360  175.5470  142.6460 C   0  0  0  0  0  2  0  0  0  0  0  0
  195.7240  175.1150  141.7880 C   0  0  0  0  0  0  0  0  0  0  0  0
  187.2060  176.7700  144.0620 C   0  0  0  0  0  2  0  0  0  0  0  0
  189.4590  173.8020  140.3220 C   0  0  0  0  0  3  0  0  0  0  0  0
  189.9600  174.5010  142.6890 C   0  0  1  0  0  3  0  0  0  0  0  0
  190.4190  174.0930  141.3040 C   0  0  0  0  0  0  0  0  0  0  0  0
  192.8440  174.2190  142.0350 C   0  0  2  0  0  3  0  0  0  0  0  0
  195.6120  176.2780  142.3250 N   0  0  0  0  0  0  0  0  0  0  0  0
  187.4870  176.2260  146.9260 C   0  0  0  0  0  2  0  0  0  0  0  0
  188.6570  176.3150  143.9650 C   0  0  1  0  0  3  0  0  0  0  0  0
  194.9440  176.2030  143.6120 C   0  0  0  0  0  2  0  0  0  0  0  0
  188.9500  176.2170  146.5090 C   0  0  0  0  0  2  0  0  0  0  0  0
  187.0920  177.9370  145.0330 C   0  0  1  0  0  3  0  0  0  0  0  0
  192.1660  173.4690  139.7290 C   0  0  0  0  0  3  0  0  0  0  0  0
  191.7870  173.8790  141.0170 C   0  0  0  0  0  0  0  0  0  0  0  0
  194.0310  173.3790  141.8990 N   0  0  0  0  0  2  0  0  0  0  0  0
  190.5750  175.0250  145.0610 C   0  0  0  0  0  2  0  0  0  0  0  0
  193.5320  173.2220  145.4580 C   0  0  0  0  0  1  0  0  0  0  0  0
  196.3440  174.9300  140.5200 N   0  0  0  0  0  1  0  0  0  0  0  0
  192.3200  174.0880  143.4610 C   0  0  2  0  0  3  0  0  0  0  0  0
  195.1730  173.9980  142.5930 C   0  0  2  0  0  3  0  0  0  0  0  0
  186.0350  178.9220  144.5580 C   0  0  0  0  0  2  0  0  0  0  0  0
  184.6630  178.2690  144.5020 C   0  0  2  0  0  3  0  0  0  0  0  0
  184.1220  178.4110  143.2250 O   0  0  0  0  0  1  0  0  0  0  0  0
  183.7510  178.9330  145.5110 C   0  0  0  0  0  1  0  0  0  0  0  0
  1 16  1  0  0  0  0
  2 24  1  1  0  0  0
  3 11  1  0  0  0  0
  4  3  2  0  0  0  0
  4 21  1  0  0  0  0
  5 25  1  1  0  0  0
  6 18  1  6  0  0  0
  6  5  1  0  0  0  0
  7 24  1  6  0  0  0
  7 19  1  0  0  0  0
  9 15  2  0  0  0  0
  9 28  1  0  0  0  0
 10 20  1  0  0  0  0
 11 13  2  0  0  0  0
 12  8  1  6  0  0  0
 12  2  1  0  0  0  0
 13 12  1  0  0  0  0
 14 22  1  6  0  0  0
 14 27  1  0  0  0  0
 15 18  1  0  0  0  0
 17  8  1  6  0  0  0
 17 10  1  0  0  0  0
 17  7  1  0  0  0  0
 19 16  1  0  0  0  0
 20 29  1  6  0  0  0
 20  1  1  0  0  0  0
 21 22  2  0  0  0  0
 22 13  1  0  0  0  0
 23 14  1  0  0  0  0
 23 28  1  0  0  0  0
 26  9  1  0  0  0  0
 27  2  1  0  0  0  0
 27  5  1  0  0  0  0
 28  6  1  0  0  0  0
 30 29  1  0  0  0  0
 30 32  1  0  0  0  0
 31 30  1  0  0  0  0
M  END
>  <MODEL>
3

>  <REMARK>
 VINA RESULT:      -8.2      1.905      2.715
  Name = 
  2 active torsions:
  status: ('A' for Active; 'I' for Inactive)
    1  A    between atoms: C_20  and  C_29
    2  A    between atoms: C_29  and  C_30
                            x       y       z     vdW  Elec       q    Type
                         _______ _______ _______ _____ _____    ______ ____

>  <TORSDO>
F 2

$$$$
=
 OpenBabel11112416383D

 32 37  0  0  1  0  0  0  0  0999 V2000
  187.2380  177.3060  146.5970 C   0  0  0  0  0  2  0  0  0  0  0  0
  190.8570  174.7890  142.8920 C   0  0  1  0  0  3  0  0  0  0  0  0
  188.6780  173.2830  138.6590 C   0  0  0  0  0  3  0  0  0  0  0  0
  189.9380  173.1080  138.0880 C   0  0  0  0  0  3  0  0  0  0  0  0
  193.3050  174.1450  143.2700 C   0  0  2  0  0  3  0  0  0  0  0  0
  194.5490  174.4550  142.4210 C   0  0  2  0  0  3  0  0  0  0  0  0
  189.2530  175.2910  144.8420 C   0  0  2  0  0  3  0  0  0  0  0  0
  188.4670  175.4120  142.4150 C   0  0  0  0  0  2  0  0  0  0  0  0
  195.0220  174.8830  140.1570 C   0  0  0  0  0  0  0  0  0  0  0  0
  187.1850  176.6340  144.1530 C   0  0  0  0  0  2  0  0  0  0  0  0
  188.5650  173.7000  139.9870 C   0  0  0  0  0  3  0  0  0  0  0  0
  189.5540  174.3470  142.2110 C   0  0  1  0  0  3  0  0  0  0  0  0
  189.7110  173.9570  140.7560 C   0  0  0  0  0  0  0  0  0  0  0  0
  192.2370  174.0290  140.9760 C   0  0  2  0  0  3  0  0  0  0  0  0
  195.0460  176.0370  140.7230 N   0  0  0  0  0  0  0  0  0  0  0  0
  188.0350  176.0330  146.8910 C   0  0  0  0  0  2  0  0  0  0  0  0
  188.5760  176.1570  143.7540 C   0  0  1  0  0  3  0  0  0  0  0  0
  194.6540  175.9490  142.1180 C   0  0  0  0  0  2  0  0  0  0  0  0
  189.3820  176.0070  146.1830 C   0  0  0  0  0  2  0  0  0  0  0  0
  187.2950  177.7850  145.1450 C   0  0  1  0  0  3  0  0  0  0  0  0
  191.0870  173.3340  138.8470 C   0  0  0  0  0  3  0  0  0  0  0  0
  190.9880  173.7260  140.1910 C   0  0  0  0  0  0  0  0  0  0  0  0
  193.3540  173.1730  140.5870 N   0  0  0  0  0  2  0  0  0  0  0  0
  190.6520  174.8160  144.4140 C   0  0  0  0  0  2  0  0  0  0  0  0
  193.5910  172.9580  144.1700 C   0  0  0  0  0  1  0  0  0  0  0  0
  195.3660  174.7110  138.7860 N   0  0  0  0  0  1  0  0  0  0  0  0
  192.0130  173.8810  142.4770 C   0  0  2  0  0  3  0  0  0  0  0  0
  194.6260  173.7600  141.0410 C   0  0  2  0  0  3  0  0  0  0  0  0
  186.1840  178.7950  144.9100 C   0  0  0  0  0  2  0  0  0  0  0  0
  184.8180  178.1280  144.9560 C   0  0  2  0  0  3  0  0  0  0  0  0
  184.1200  178.3960  143.7790 O   0  0  0  0  0  1  0  0  0  0  0  0
  184.0370  178.6660  146.1360 C   0  0  0  0  0  1  0  0  0  0  0  0
  1 16  1  0  0  0  0
  2 24  1  1  0  0  0
  3 11  1  0  0  0  0
  4  3  2  0  0  0  0
  4 21  1  0  0  0  0
  5 25  1  6  0  0  0
  6 18  1  6  0  0  0
  6  5  1  0  0  0  0
  7 24  1  6  0  0  0
  7 19  1  0  0  0  0
  9 15  2  0  0  0  0
  9 28  1  0  0  0  0
 10 20  1  0  0  0  0
 11 13  2  0  0  0  0
 12  8  1  6  0  0  0
 12  2  1  0  0  0  0
 13 12  1  0  0  0  0
 14 22  1  6  0  0  0
 14 27  1  0  0  0  0
 15 18  1  0  0  0  0
 17  8  1  6  0  0  0
 17 10  1  0  0  0  0
 17  7  1  0  0  0  0
 19 16  1  0  0  0  0
 20 29  1  6  0  0  0
 20  1  1  0  0  0  0
 21 22  2  0  0  0  0
 22 13  1  0  0  0  0
 23 14  1  0  0  0  0
 23 28  1  0  0  0  0
 26  9  1  0  0  0  0
 27  2  1  0  0  0  0
 27  5  1  0  0  0  0
 28  6  1  0  0  0  0
 29 30  1  0  0  0  0
 30 32  1  0  0  0  0
 31 30  1  0  0  0  0
M  END
>  <MODEL>
4

>  <REMARK>
 VINA RESULT:      -8.0      2.480      3.504
  Name = 
  2 active torsions:
  status: ('A' for Active; 'I' for Inactive)
    1  A    between atoms: C_20  and  C_29
    2  A    between atoms: C_29  and  C_30
                            x       y       z     vdW  Elec       q    Type
                         _______ _______ _______ _____ _____    ______ ____

>  <TORSDO>
F 2

$$$$
=
 OpenBabel11112416383D

 32 37  0  0  1  0  0  0  0  0999 V2000
  186.1010  178.5280  145.2220 C   0  0  0  0  0  2  0  0  0  0  0  0
  190.6280  175.2040  143.9470 C   0  0  1  0  0  3  0  0  0  0  0  0
  189.7390  171.9040  140.3070 C   0  0  0  0  0  3  0  0  0  0  0  0
  191.1100  171.6680  140.2030 C   0  0  0  0  0  3  0  0  0  0  0  0
  192.8710  175.0570  145.1710 C   0  0  2  0  0  3  0  0  0  0  0  0
  194.3040  175.1530  144.6190 C   0  0  2  0  0  3  0  0  0  0  0  0
  188.5370  176.2400  145.0340 C   0  0  2  0  0  3  0  0  0  0  0  0
  188.4680  175.2990  142.6610 C   0  0  0  0  0  2  0  0  0  0  0  0
  195.3960  174.7060  142.5850 C   0  0  0  0  0  0  0  0  0  0  0  0
  186.7430  176.9460  143.3480 C   0  0  0  0  0  2  0  0  0  0  0  0
  189.2540  172.7930  141.2680 C   0  0  0  0  0  3  0  0  0  0  0  0
  189.5720  174.3780  143.2000 C   0  0  1  0  0  3  0  0  0  0  0  0
  190.1350  173.4670  142.1280 C   0  0  0  0  0  0  0  0  0  0  0  0
  192.4950  173.9200  142.9390 C   0  0  2  0  0  3  0  0  0  0  0  0
  195.2550  175.9840  142.6110 N   0  0  0  0  0  0  0  0  0  0  0  0
  186.7870  177.5780  146.2080 C   0  0  0  0  0  2  0  0  0  0  0  0
  188.1920  176.5190  143.5530 C   0  0  1  0  0  3  0  0  0  0  0  0
  194.4850  176.4070  143.7670 C   0  0  0  0  0  2  0  0  0  0  0  0
  188.2790  177.4360  145.9450 C   0  0  0  0  0  2  0  0  0  0  0  0
  186.5660  178.3990  143.7700 C   0  0  1  0  0  3  0  0  0  0  0  0
  191.9960  172.3110  141.0680 C   0  0  0  0  0  3  0  0  0  0  0  0
  191.5200  173.1860  142.0570 C   0  0  0  0  0  0  0  0  0  0  0  0
  193.6790  173.1200  143.2380 N   0  0  0  0  0  2  0  0  0  0  0  0
  190.0000  175.8040  145.2140 C   0  0  0  0  0  2  0  0  0  0  0  0
  192.8950  174.3640  146.5200 C   0  0  0  0  0  1  0  0  0  0  0  0
  196.1140  174.0500  141.5450 N   0  0  0  0  0  1  0  0  0  0  0  0
  191.8570  174.3500  144.2550 C   0  0  2  0  0  3  0  0  0  0  0  0
  194.7690  173.9840  143.7190 C   0  0  2  0  0  3  0  0  0  0  0  0
  185.5630  179.0950  142.8640 C   0  0  0  0  0  2  0  0  0  0  0  0
  184.8370  178.0940  141.9790 C   0  0  2  0  0  3  0  0  0  0  0  0
  185.1970  178.2900  140.6460 O   0  0  0  0  0  1  0  0  0  0  0  0
  183.3430  178.2840  142.1280 C   0  0  0  0  0  1  0  0  0  0  0  0
  1 16  1  0  0  0  0
  2 27  1  0  0  0  0
  2 24  1  1  0  0  0
  3 11  1  0  0  0  0
  4  3  2  0  0  0  0
  4 21  1  0  0  0  0
  5 25  1  1  0  0  0
  6 18  1  6  0  0  0
  6  5  1  0  0  0  0
  7 24  1  6  0  0  0
  7 19  1  0  0  0  0
  9 15  2  0  0  0  0
  9 28  1  0  0  0  0
 10 17  1  0  0  0  0
 10 20  1  0  0  0  0
 11 13  2  0  0  0  0
 12  8  1  6  0  0  0
 12  2  1  0  0  0  0
 13 12  1  0  0  0  0
 14 22  1  6  0  0  0
 14 23  1  0  0  0  0
 14 27  1  0  0  0  0
 15 18  1  0  0  0  0
 17  8  1  6  0  0  0
 17  7  1  0  0  0  0
 19 16  1  0  0  0  0
 20 29  1  6  0  0  0
 20  1  1  0  0  0  0
 21 22  2  0  0  0  0
 22 13  1  0  0  0  0
 23 28  1  0  0  0  0
 26  9  1  0  0  0  0
 27  5  1  0  0  0  0
 28  6  1  0  0  0  0
 30 32  1  0  0  0  0
 30 29  1  0  0  0  0
 31 30  1  0  0  0  0
M  END
>  <MODEL>
5

>  <REMARK>
 VINA RESULT:      -7.9      1.314      1.699
  Name = 
  2 active torsions:
  status: ('A' for Active; 'I' for Inactive)
    1  A    between atoms: C_20  and  C_29
    2  A    between atoms: C_29  and  C_30
                            x       y       z     vdW  Elec       q    Type
                         _______ _______ _______ _____ _____    ______ ____

>  <TORSDO>
F 2

$$$$
=
 OpenBabel11112416383D

 32 37  0  0  1  0  0  0  0  0999 V2000
  187.9870  176.0840  146.9800 C   0  0  0  0  0  2  0  0  0  0  0  0
  192.4820  174.6520  143.6780 C   0  0  1  0  0  3  0  0  0  0  0  0
  191.2330  173.4160  139.0040 C   0  0  0  0  0  3  0  0  0  0  0  0
  192.5750  173.5080  138.6350 C   0  0  0  0  0  3  0  0  0  0  0  0
  194.9220  174.3360  144.3860 C   0  0  2  0  0  3  0  0  0  0  0  0
  196.2070  174.9390  143.7930 C   0  0  2  0  0  3  0  0  0  0  0  0
  190.5490  174.6450  145.3770 C   0  0  2  0  0  3  0  0  0  0  0  0
  190.1170  174.9690  142.8810 C   0  0  0  0  0  2  0  0  0  0  0  0
  196.9280  175.7300  141.6990 C   0  0  0  0  0  0  0  0  0  0  0  0
  188.4070  175.7430  144.5030 C   0  0  0  0  0  2  0  0  0  0  0  0
  190.8580  173.6300  140.3320 C   0  0  0  0  0  3  0  0  0  0  0  0
  191.3870  174.1150  142.7470 C   0  0  1  0  0  3  0  0  0  0  0  0
  191.8190  173.9500  141.3040 C   0  0  0  0  0  0  0  0  0  0  0  0
  194.2360  174.3690  141.9470 C   0  0  2  0  0  3  0  0  0  0  0  0
  196.6730  176.7890  142.3820 N   0  0  0  0  0  0  0  0  0  0  0  0
  188.9360  174.9160  147.2630 C   0  0  0  0  0  2  0  0  0  0  0  0
  189.9020  175.5370  144.2920 C   0  0  1  0  0  3  0  0  0  0  0  0
  196.1010  176.4590  143.6760 C   0  0  0  0  0  2  0  0  0  0  0  0
  190.3570  175.1860  146.7900 C   0  0  0  0  0  2  0  0  0  0  0  0
  188.1760  176.7550  145.6180 C   0  0  1  0  0  3  0  0  0  0  0  0
  193.5450  173.8000  139.5940 C   0  0  0  0  0  3  0  0  0  0  0  0
  193.1850  173.9900  140.9370 C   0  0  0  0  0  0  0  0  0  0  0  0
  195.5270  173.7490  141.6590 N   0  0  0  0  0  2  0  0  0  0  0  0
  192.0540  174.4450  145.1390 C   0  0  0  0  0  2  0  0  0  0  0  0
  195.2690  173.0960  145.1870 C   0  0  0  0  0  1  0  0  0  0  0  0
  197.4920  175.7970  140.3940 N   0  0  0  0  0  1  0  0  0  0  0  0
  193.8230  173.9900  143.3650 C   0  0  2  0  0  3  0  0  0  0  0  0
  196.6010  174.4530  142.3790 C   0  0  2  0  0  3  0  0  0  0  0  0
  186.9560  177.6100  145.3130 C   0  0  0  0  0  2  0  0  0  0  0  0
  185.9810  177.6100  146.4790 C   0  0  2  0  0  3  0  0  0  0  0  0
  184.8430  176.8730  146.1460 O   0  0  0  0  0  1  0  0  0  0  0  0
  185.5800  179.0340  146.7990 C   0  0  0  0  0  1  0  0  0  0  0  0
  1 16  1  0  0  0  0
  2 24  1  1  0  0  0
  3 11  1  0  0  0  0
  4  3  2  0  0  0  0
  4 21  1  0  0  0  0
  5 25  1  6  0  0  0
  6 18  1  6  0  0  0
  6  5  1  0  0  0  0
  7 24  1  6  0  0  0
  7 19  1  0  0  0  0
  9 28  1  0  0  0  0
  9 15  2  0  0  0  0
 10 20  1  0  0  0  0
 11 13  2  0  0  0  0
 12  8  1  6  0  0  0
 12  2  1  0  0  0  0
 13 12  1  0  0  0  0
 14 22  1  6  0  0  0
 14 27  1  0  0  0  0
 15 18  1  0  0  0  0
 17  8  1  6  0  0  0
 17 10  1  0  0  0  0
 17  7  1  0  0  0  0
 19 16  1  0  0  0  0
 20 29  1  6  0  0  0
 20  1  1  0  0  0  0
 21 22  2  0  0  0  0
 22 13  1  0  0  0  0
 23 14  1  0  0  0  0
 23 28  1  0  0  0  0
 26  9  1  0  0  0  0
 27  2  1  0  0  0  0
 27  5  1  0  0  0  0
 28  6  1  0  0  0  0
 29 30  1  0  0  0  0
 30 32  1  0  0  0  0
 31 30  1  0  0  0  0
M  END
>  <MODEL>
6

>  <REMARK>
 VINA RESULT:      -7.8      2.383      3.879
  Name = 
  2 active torsions:
  status: ('A' for Active; 'I' for Inactive)
    1  A    between atoms: C_20  and  C_29
    2  A    between atoms: C_29  and  C_30
                            x       y       z     vdW  Elec       q    Type
                         _______ _______ _______ _____ _____    ______ ____

>  <TORSDO>
F 2

$$$$
=
 OpenBabel11112416383D

 32 37  0  0  1  0  0  0  0  0999 V2000
  196.9420  173.0640  145.6460 C   0  0  0  0  0  2  0  0  0  0  0  0
  191.8080  175.1650  144.1000 C   0  0  1  0  0  3  0  0  0  0  0  0
  189.3160  172.2420  140.9080 C   0  0  0  0  0  3  0  0  0  0  0  0
  188.1610  172.9860  141.1500 C   0  0  0  0  0  3  0  0  0  0  0  0
  190.8170  177.4630  144.6380 C   0  0  2  0  0  3  0  0  0  0  0  0
  189.4490  177.8310  145.2370 C   0  0  2  0  0  3  0  0  0  0  0  0
  194.3250  174.6710  144.3150 C   0  0  2  0  0  3  0  0  0  0  0  0
  192.6830  172.8730  143.5440 C   0  0  0  0  0  2  0  0  0  0  0  0
  187.2910  176.8980  145.2990 C   0  0  0  0  0  0  0  0  0  0  0  0
  194.8740  172.1750  144.4790 C   0  0  0  0  0  2  0  0  0  0  0  0
  190.5160  172.5970  141.5280 C   0  0  0  0  0  3  0  0  0  0  0  0
  191.9030  174.0840  143.0130 C   0  0  1  0  0  3  0  0  0  0  0  0
  190.5720  173.6900  142.4060 C   0  0  0  0  0  0  0  0  0  0  0  0
  189.4290  175.6310  143.5720 C   0  0  2  0  0  3  0  0  0  0  0  0
  187.7950  176.6390  146.4530 N   0  0  0  0  0  0  0  0  0  0  0  0
  196.7300  174.3970  144.9240 C   0  0  0  0  0  2  0  0  0  0  0  0
  193.7860  173.2410  144.5490 C   0  0  1  0  0  3  0  0  0  0  0  0
  189.1840  177.0570  146.5280 C   0  0  0  0  0  2  0  0  0  0  0  0
  195.4180  175.0680  145.3020 C   0  0  0  0  0  2  0  0  0  0  0  0
  195.6930  172.1860  145.7630 C   0  0  1  0  0  3  0  0  0  0  0  0
  188.2070  174.0920  141.9990 C   0  0  0  0  0  3  0  0  0  0  0  0
  189.4120  174.4750  142.6070 C   0  0  0  0  0  0  0  0  0  0  0  0
  188.4830  176.6770  143.1960 N   0  0  0  0  0  2  0  0  0  0  0  0
  193.2090  175.7270  144.3820 C   0  0  0  0  0  2  0  0  0  0  0  0
  191.3920  178.6660  143.9160 C   0  0  0  0  0  1  0  0  0  0  0  0
  185.9410  176.5790  144.9810 N   0  0  0  0  0  1  0  0  0  0  0  0
  190.8170  176.2520  143.6880 C   0  0  2  0  0  3  0  0  0  0  0  0
  188.2160  177.5580  144.3450 C   0  0  2  0  0  3  0  0  0  0  0  0
  196.1130  170.7740  146.1360 C   0  0  0  0  0  2  0  0  0  0  0  0
  194.9480  169.8040  146.0090 C   0  0  2  0  0  3  0  0  0  0  0  0
  194.6190  169.2910  147.2630 O   0  0  0  0  0  1  0  0  0  0  0  0
  195.3400  168.6680  145.0880 C   0  0  0  0  0  1  0  0  0  0  0  0
  1 20  1  0  0  0  0
  2 24  1  6  0  0  0
  3  4  2  0  0  0  0
  3 11  1  0  0  0  0
  4 21  1  0  0  0  0
  5 25  1  6  0  0  0
  5  6  1  0  0  0  0
  6 18  1  1  0  0  0
  7 24  1  1  0  0  0
  7 17  1  0  0  0  0
  7 19  1  0  0  0  0
  9 15  2  0  0  0  0
 10 17  1  0  0  0  0
 10 20  1  0  0  0  0
 11 13  2  0  0  0  0
 12  8  1  1  0  0  0
 12  2  1  0  0  0  0
 13 22  1  0  0  0  0
 13 12  1  0  0  0  0
 14 22  1  6  0  0  0
 14 27  1  0  0  0  0
 15 18  1  0  0  0  0
 16 19  1  0  0  0  0
 16  1  1  0  0  0  0
 17  8  1  6  0  0  0
 20 29  1  6  0  0  0
 21 22  2  0  0  0  0
 23 14  1  0  0  0  0
 23 28  1  0  0  0  0
 26  9  1  0  0  0  0
 27  2  1  0  0  0  0
 27  5  1  0  0  0  0
 28  6  1  0  0  0  0
 28  9  1  0  0  0  0
 30 29  1  0  0  0  0
 30 31  1  0  0  0  0
 32 30  1  0  0  0  0
M  END
>  <MODEL>
7

>  <REMARK>
 VINA RESULT:      -7.7      3.969      8.116
  Name = 
  2 active torsions:
  status: ('A' for Active; 'I' for Inactive)
    1  A    between atoms: C_20  and  C_29
    2  A    between atoms: C_29  and  C_30
                            x       y       z     vdW  Elec       q    Type
                         _______ _______ _______ _____ _____    ______ ____

>  <TORSDO>
F 2

$$$$
=
 OpenBabel11112416383D

 32 37  0  0  1  0  0  0  0  0999 V2000
  195.5640  172.9230  141.8660 C   0  0  0  0  0  2  0  0  0  0  0  0
  190.4840  175.0940  143.4940 C   0  0  1  0  0  3  0  0  0  0  0  0
  190.5630  177.2330  148.0050 C   0  0  0  0  0  3  0  0  0  0  0  0
  189.3240  177.8150  147.7360 C   0  0  0  0  0  3  0  0  0  0  0  0
  188.2200  174.8590  142.3220 C   0  0  2  0  0  3  0  0  0  0  0  0
  187.2010  175.9380  141.9210 C   0  0  2  0  0  3  0  0  0  0  0  0
  192.4660  173.5340  142.9760 C   0  0  2  0  0  3  0  0  0  0  0  0
  192.6690  175.4060  144.7020 C   0  0  0  0  0  2  0  0  0  0  0  0
  186.5790  178.0790  142.6690 C   0  0  0  0  0  0  0  0  0  0  0  0
  194.7360  174.4860  143.6830 C   0  0  0  0  0  2  0  0  0  0  0  0
  191.1560  176.3880  147.0640 C   0  0  0  0  0  3  0  0  0  0  0  0
  191.1630  175.1540  144.8690 C   0  0  1  0  0  3  0  0  0  0  0  0
  190.5220  176.1240  145.8400 C   0  0  0  0  0  0  0  0  0  0  0  0
  188.5520  176.4390  144.2740 C   0  0  2  0  0  3  0  0  0  0  0  0
  187.3040  178.2910  141.6290 N   0  0  0  0  0  0  0  0  0  0  0  0
  194.2840  172.1020  142.0420 C   0  0  0  0  0  2  0  0  0  0  0  0
  193.2620  174.7800  143.4300 C   0  0  1  0  0  3  0  0  0  0  0  0
  187.8650  177.0540  141.1150 C   0  0  0  0  0  2  0  0  0  0  0  0
  193.0280  172.8940  141.7110 C   0  0  0  0  0  2  0  0  0  0  0  0
  195.4760  174.3700  142.3570 C   0  0  1  0  0  3  0  0  0  0  0  0
  188.6690  177.5410  146.5350 C   0  0  0  0  0  3  0  0  0  0  0  0
  189.2410  176.6710  145.5930 C   0  0  0  0  0  0  0  0  0  0  0  0
  187.0970  176.4600  144.4010 N   0  0  0  0  0  2  0  0  0  0  0  0
  190.9810  173.8540  142.7340 C   0  0  0  0  0  2  0  0  0  0  0  0
  187.5290  173.5110  142.3870 C   0  0  0  0  0  1  0  0  0  0  0  0
  185.9230  179.1400  143.3550 N   0  0  0  0  0  1  0  0  0  0  0  0
  188.9640  175.1130  143.6460 C   0  0  2  0  0  3  0  0  0  0  0  0
  186.4750  176.6580  143.0820 C   0  0  2  0  0  3  0  0  0  0  0  0
  196.8810  174.9380  142.4830 C   0  0  0  0  0  2  0  0  0  0  0  0
  196.8980  176.4290  142.1860 C   0  0  2  0  0  3  0  0  0  0  0  0
  196.7680  177.1500  143.3730 O   0  0  0  0  0  1  0  0  0  0  0  0
  195.7480  176.7700  141.2630 C   0  0  0  0  0  1  0  0  0  0  0  0
  1 16  1  0  0  0  0
  1 20  1  0  0  0  0
  2 24  1  1  0  0  0
  2 27  1  0  0  0  0
  2 12  1  0  0  0  0
  4  3  1  0  0  0  0
  5 25  1  1  0  0  0
  5 27  1  0  0  0  0
  6 18  1  1  0  0  0
  6  5  1  0  0  0  0
  6 28  1  0  0  0  0
  7 19  1  6  0  0  0
  7 17  1  0  0  0  0
  9 28  1  0  0  0  0
  9 26  1  0  0  0  0
 11  3  2  0  0  0  0
 12  8  1  6  0  0  0
 12 13  1  0  0  0  0
 13 11  1  0  0  0  0
 14 23  1  1  0  0  0
 14 22  1  0  0  0  0
 15  9  2  0  0  0  0
 17 10  1  1  0  0  0
 17  8  1  0  0  0  0
 18 15  1  0  0  0  0
 19 16  1  0  0  0  0
 20 29  1  1  0  0  0
 20 10  1  0  0  0  0
 21  4  2  0  0  0  0
 22 13  2  0  0  0  0
 22 21  1  0  0  0  0
 24  7  1  0  0  0  0
 27 14  1  0  0  0  0
 28 23  1  0  0  0  0
 30 29  1  0  0  0  0
 30 31  1  0  0  0  0
 32 30  1  0  0  0  0
M  END
>  <MODEL>
8

>  <REMARK>
 VINA RESULT:      -7.1      3.752      8.276
  Name = 
  2 active torsions:
  status: ('A' for Active; 'I' for Inactive)
    1  A    between atoms: C_20  and  C_29
    2  A    between atoms: C_29  and  C_30
                            x       y       z     vdW  Elec       q    Type
                         _______ _______ _______ _____ _____    ______ ____

>  <TORSDO>
F 2

$$$$
=
 OpenBabel11112416383D

 32 37  0  0  1  0  0  0  0  0999 V2000
  187.2190  177.5700  144.8480 C   0  0  0  0  0  2  0  0  0  0  0  0
  192.2980  174.9120  144.2980 C   0  0  1  0  0  3  0  0  0  0  0  0
  191.9410  170.2110  142.6530 C   0  0  0  0  0  3  0  0  0  0  0  0
  193.3140  170.2070  142.4070 C   0  0  0  0  0  3  0  0  0  0  0  0
  194.6040  175.7510  145.0270 C   0  0  2  0  0  3  0  0  0  0  0  0
  195.9180  175.8410  144.2310 C   0  0  2  0  0  3  0  0  0  0  0  0
  190.1170  175.9340  145.2070 C   0  0  2  0  0  3  0  0  0  0  0  0
  190.0800  174.0140  143.5210 C   0  0  0  0  0  2  0  0  0  0  0  0
  196.9100  174.7170  142.4190 C   0  0  0  0  0  0  0  0  0  0  0  0
  188.0690  175.4510  143.7470 C   0  0  0  0  0  2  0  0  0  0  0  0
  191.3360  171.3380  143.2140 C   0  0  0  0  0  3  0  0  0  0  0  0
  191.4180  173.6600  144.1870 C   0  0  1  0  0  3  0  0  0  0  0  0
  192.0950  172.4780  143.5230 C   0  0  0  0  0  0  0  0  0  0  0  0
  194.3310  173.6710  143.6070 C   0  0  2  0  0  3  0  0  0  0  0  0
  196.4630  175.8150  141.9220 N   0  0  0  0  0  0  0  0  0  0  0  0
  188.1980  177.3200  145.9980 C   0  0  0  0  0  2  0  0  0  0  0  0
  189.5900  175.4350  143.8400 C   0  0  1  0  0  3  0  0  0  0  0  0
  195.7130  176.5740  142.9070 C   0  0  0  0  0  2  0  0  0  0  0  0
  189.6520  177.3450  145.5490 C   0  0  0  0  0  2  0  0  0  0  0  0
  187.5770  176.8760  143.5320 C   0  0  1  0  0  3  0  0  0  0  0  0
  194.0860  171.3230  142.7330 C   0  0  0  0  0  3  0  0  0  0  0  0
  193.4950  172.4510  143.3220 C   0  0  0  0  0  0  0  0  0  0  0  0
  195.6970  173.3250  143.9940 N   0  0  0  0  0  2  0  0  0  0  0  0
  191.6520  175.9020  145.2800 C   0  0  0  0  0  2  0  0  0  0  0  0
  194.9110  175.7710  146.5110 C   0  0  0  0  0  1  0  0  0  0  0  0
  197.6760  173.8000  141.6460 N   0  0  0  0  0  1  0  0  0  0  0  0
  193.7210  174.5320  144.7070 C   0  0  2  0  0  3  0  0  0  0  0  0
  196.5770  174.4950  143.8480 C   0  0  2  0  0  3  0  0  0  0  0  0
  186.3610  176.8850  142.6190 C   0  0  0  0  0  2  0  0  0  0  0  0
  186.2220  178.2200  141.9050 C   0  0  2  0  0  3  0  0  0  0  0  0
  185.3080  179.0280  142.5830 O   0  0  0  0  0  1  0  0  0  0  0  0
  185.7310  177.9840  140.4920 C   0  0  0  0  0  1  0  0  0  0  0  0
  1 16  1  0  0  0  0
  2 27  1  0  0  0  0
  2 24  1  1  0  0  0
  3 11  1  0  0  0  0
  4  3  2  0  0  0  0
  4 21  1  0  0  0  0
  5 25  1  1  0  0  0
  6 18  1  6  0  0  0
  6  5  1  0  0  0  0
  7 24  1  6  0  0  0
  7 19  1  0  0  0  0
  9 28  1  0  0  0  0
 10 17  1  0  0  0  0
 11 13  2  0  0  0  0
 12  8  1  6  0  0  0
 12  2  1  0  0  0  0
 13 12  1  0  0  0  0
 14 22  1  1  0  0  0
 14 23  1  0  0  0  0
 14 27  1  0  0  0  0
 15  9  2  0  0  0  0
 15 18  1  0  0  0  0
 17  8  1  1  0  0  0
 17  7  1  0  0  0  0
 19 16  1  0  0  0  0
 20 29  1  6  0  0  0
 20 10  1  0  0  0  0
 20  1  1  0  0  0  0
 21 22  2  0  0  0  0
 22 13  1  0  0  0  0
 26  9  1  0  0  0  0
 27  5  1  0  0  0  0
 28 23  1  0  0  0  0
 28  6  1  0  0  0  0
 30 31  1  0  0  0  0
 30 29  1  0  0  0  0
 32 30  1  0  0  0  0
M  END
>  <MODEL>
9

>  <REMARK>
 VINA RESULT:      -7.0      1.803      2.943
  Name = 
  2 active torsions:
  status: ('A' for Active; 'I' for Inactive)
    1  A    between atoms: C_20  and  C_29
    2  A    between atoms: C_29  and  C_30
                            x       y       z     vdW  Elec       q    Type
                         _______ _______ _______ _____ _____    ______ ____

>  <TORSDO>
F 2

$$$$
