=
 OpenBabel11112417513D

 34 41  0  0  1  0  0  0  0  0999 V2000
  188.9990  174.7290  143.0010 C   0  0  1  0  0  3  0  0  0  0  0  0
  190.8350  172.9240  143.1700 C   0  0  0  0  0  2  0  0  0  0  0  0
  184.9750  178.0900  145.7290 C   0  0  2  0  0  0  0  0  0  0  0  0
  187.3600  176.5990  143.0310 C   0  0  2  0  0  3  0  0  0  0  0  0
  187.3490  178.2870  144.9190 N   0  0  1  0  0  0  0  0  0  0  0  0
  185.3490  176.7070  145.2340 C   0  0  0  0  0  2  0  0  0  0  0  0
  184.2660  178.0740  146.9290 O   0  0  0  0  0  1  0  0  0  0  0  0
  184.7170  178.6650  143.2560 C   0  0  0  0  0  2  0  0  0  0  0  0
  190.4690  174.4140  144.9730 C   0  0  2  0  0  3  0  0  0  0  0  0
  192.9230  175.4930  146.7520 C   0  0  0  0  0  2  0  0  0  0  0  0
  188.7060  177.8600  145.3010 C   0  0  0  0  0  2  0  0  0  0  0  0
  186.1300  178.9220  142.7740 C   0  0  0  0  0  2  0  0  0  0  0  0
  190.3140  175.8690  145.4460 C   0  0  1  0  0  3  0  0  0  0  0  0
  191.9390  172.6530  144.1900 C   0  0  0  0  0  2  0  0  0  0  0  0
  187.1930  178.0600  143.4620 C   0  0  2  0  0  3  0  0  0  0  0  0
  184.5590  179.1390  144.6930 C   0  0  0  0  0  2  0  0  0  0  0  0
  193.0000  174.5800  145.5140 C   0  0  1  0  0  3  0  0  0  0  0  0
  188.7570  176.1690  143.4570 C   0  0  1  0  0  3  0  0  0  0  0  0
  186.4160  177.6150  145.8600 C   0  0  2  0  0  3  0  0  0  0  0  0
  188.9400  176.3720  144.9720 C   0  0  2  0  0  3  0  0  0  0  0  0
  187.8190  175.5510  140.9010 C   0  0  0  0  0  3  0  0  0  0  0  0
  191.6550  175.3200  147.5910 C   0  0  0  0  0  2  0  0  0  0  0  0
  187.1780  176.4300  141.6000 N   0  0  0  0  0  0  0  0  0  0  0  0
  190.4280  176.0000  146.9720 C   0  0  0  0  0  2  0  0  0  0  0  0
  191.7570  173.6730  145.3180 C   0  0  1  0  0  3  0  0  0  0  0  0
  188.9200  174.6810  141.4720 C   0  0  0  0  0  2  0  0  0  0  0  0
  190.3950  174.3360  143.4710 C   0  0  2  0  0  3  0  0  0  0  0  0
  193.3350  175.4300  144.2930 C   0  0  0  0  0  2  0  0  0  0  0  0
  194.3560  176.4970  144.6410 C   0  0  0  0  0  2  0  0  0  0  0  0
  197.6090  174.8790  143.9950 N   0  0  0  0  0  0  0  0  0  0  0  0
  196.3470  176.7240  143.2540 N   0  0  0  0  0  0  0  0  0  0  0  0
  195.6960  176.0820  144.1490 C   0  0  0  0  0  0  0  0  0  0  0  0
  197.6120  176.0220  143.0680 C   0  0  0  0  0  3  0  0  0  0  0  0
  196.3890  174.9980  144.6190 O   0  0  0  0  0  0  0  0  0  0  0  0
  1 26  1  6  0  0  0
  1 18  1  0  0  0  0
  1 27  1  0  0  0  0
  2 27  1  0  0  0  0
  2 14  1  0  0  0  0
  3 19  1  0  0  0  0
  3  7  1  1  0  0  0
  4 23  1  6  0  0  0
  4 18  1  0  0  0  0
  4 15  1  0  0  0  0
  5 11  1  1  0  0  0
  5 19  1  0  0  0  0
  6  3  1  0  0  0  0
  6 19  1  0  0  0  0
  8 16  1  0  0  0  0
  9 25  1  0  0  0  0
  9 13  1  0  0  0  0
 10 22  1  0  0  0  0
 12  8  1  0  0  0  0
 12 15  1  0  0  0  0
 13 24  1  0  0  0  0
 14 25  1  0  0  0  0
 15  5  1  0  0  0  0
 16  3  1  0  0  0  0
 17 10  1  0  0  0  0
 18 20  1  0  0  0  0
 20 11  1  0  0  0  0
 20 13  1  0  0  0  0
 21 26  1  0  0  0  0
 21 23  2  0  0  0  0
 24 22  1  0  0  0  0
 25 17  1  0  0  0  0
 27  9  1  0  0  0  0
 28 29  1  0  0  0  0
 28 17  1  0  0  0  0
 30 34  1  0  0  0  0
 31 32  2  0  0  0  0
 32 34  1  0  0  0  0
 32 29  1  0  0  0  0
 33 31  1  0  0  0  0
 33 30  2  0  0  0  0
M  END
>  <MODEL>
1

>  <REMARK>
 VINA RESULT:      -9.3      0.000      0.000
  Name = 
  3 active torsions:
  status: ('A' for Active; 'I' for Inactive)
    1  A    between atoms: C_17  and  C_28
    2  A    between atoms: C_28  and  C_29
    3  A    between atoms: C_29  and  C_32
                            x       y       z     vdW  Elec       q    Type
                         _______ _______ _______ _____ _____    ______ ____

>  <TORSDO>
F 3

$$$$
=
 OpenBabel11112417513D

 34 41  0  0  1  0  0  0  0  0999 V2000
  189.0820  174.7760  142.9240 C   0  0  1  0  0  3  0  0  0  0  0  0
  190.9580  173.0140  143.1030 C   0  0  0  0  0  2  0  0  0  0  0  0
  184.9560  178.0310  145.6280 C   0  0  2  0  0  0  0  0  0  0  0  0
  187.3990  176.6060  142.9470 C   0  0  2  0  0  3  0  0  0  0  0  0
  187.3320  178.2860  144.8400 N   0  0  1  0  0  0  0  0  0  0  0  0
  185.3670  176.6590  145.1320 C   0  0  0  0  0  2  0  0  0  0  0  0
  184.2370  177.9930  146.8220 O   0  0  0  0  0  1  0  0  0  0  0  0
  184.7060  178.6080  143.1550 C   0  0  0  0  0  2  0  0  0  0  0  0
  190.5410  174.4890  144.9080 C   0  0  2  0  0  3  0  0  0  0  0  0
  192.9540  175.6180  146.7120 C   0  0  0  0  0  2  0  0  0  0  0  0
  188.6950  177.8910  145.2320 C   0  0  0  0  0  2  0  0  0  0  0  0
  186.1170  178.9010  142.6860 C   0  0  0  0  0  2  0  0  0  0  0  0
  190.3480  175.9370  145.3850 C   0  0  1  0  0  3  0  0  0  0  0  0
  192.0600  172.7650  144.1320 C   0  0  0  0  0  2  0  0  0  0  0  0
  187.1930  178.0610  143.3810 C   0  0  2  0  0  3  0  0  0  0  0  0
  184.5240  179.0730  144.5930 C   0  0  0  0  0  2  0  0  0  0  0  0
  193.0630  174.7120  145.4730 C   0  0  1  0  0  3  0  0  0  0  0  0
  188.8020  176.2080  143.3840 C   0  0  1  0  0  3  0  0  0  0  0  0
  186.4070  177.5890  145.7710 C   0  0  2  0  0  3  0  0  0  0  0  0
  188.9670  176.4090  144.9010 C   0  0  2  0  0  3  0  0  0  0  0  0
  187.9020  175.5770  140.8170 C   0  0  0  0  0  3  0  0  0  0  0  0
  191.6830  175.4120  147.5400 C   0  0  0  0  0  2  0  0  0  0  0  0
  187.2340  176.4380  141.5140 N   0  0  0  0  0  0  0  0  0  0  0  0
  190.4460  176.0650  146.9120 C   0  0  0  0  0  2  0  0  0  0  0  0
  191.8440  173.7760  145.2620 C   0  0  1  0  0  3  0  0  0  0  0  0
  189.0180  174.7320  141.3940 C   0  0  0  0  0  2  0  0  0  0  0  0
  190.4830  174.4150  143.4050 C   0  0  2  0  0  3  0  0  0  0  0  0
  193.3890  175.5740  144.2580 C   0  0  0  0  0  2  0  0  0  0  0  0
  194.8870  175.7750  144.1240 C   0  0  0  0  0  2  0  0  0  0  0  0
  195.6500  174.5640  140.7230 N   0  0  0  0  0  0  0  0  0  0  0  0
  195.8020  176.5390  141.9980 N   0  0  0  0  0  0  0  0  0  0  0  0
  195.2860  175.6030  142.7020 C   0  0  0  0  0  0  0  0  0  0  0  0
  196.0750  175.9730  140.6810 C   0  0  0  0  0  3  0  0  0  0  0  0
  195.1790  174.4280  142.0070 O   0  0  0  0  0  0  0  0  0  0  0  0
  1 26  1  6  0  0  0
  1 18  1  0  0  0  0
  1 27  1  0  0  0  0
  2 27  1  0  0  0  0
  2 14  1  0  0  0  0
  3 19  1  0  0  0  0
  3  7  1  1  0  0  0
  4 23  1  6  0  0  0
  4 15  1  0  0  0  0
  4 18  1  0  0  0  0
  5 11  1  1  0  0  0
  5 19  1  0  0  0  0
  6  3  1  0  0  0  0
  6 19  1  0  0  0  0
  8 16  1  0  0  0  0
  9 25  1  0  0  0  0
  9 13  1  0  0  0  0
 10 22  1  0  0  0  0
 12  8  1  0  0  0  0
 12 15  1  0  0  0  0
 13 24  1  0  0  0  0
 14 25  1  0  0  0  0
 15  5  1  0  0  0  0
 16  3  1  0  0  0  0
 17 10  1  0  0  0  0
 18 20  1  0  0  0  0
 20 11  1  0  0  0  0
 20 13  1  0  0  0  0
 21 26  1  0  0  0  0
 21 23  2  0  0  0  0
 24 22  1  0  0  0  0
 25 17  1  0  0  0  0
 27  9  1  0  0  0  0
 28 17  1  0  0  0  0
 29 28  1  0  0  0  0
 30 34  1  0  0  0  0
 31 32  2  0  0  0  0
 32 29  1  0  0  0  0
 33 30  2  0  0  0  0
 33 31  1  0  0  0  0
 34 32  1  0  0  0  0
M  END
>  <MODEL>
2

>  <REMARK>
 VINA RESULT:      -8.7      0.997      1.046
  Name = 
  3 active torsions:
  status: ('A' for Active; 'I' for Inactive)
    1  A    between atoms: C_17  and  C_28
    2  A    between atoms: C_28  and  C_29
    3  A    between atoms: C_29  and  C_32
                            x       y       z     vdW  Elec       q    Type
                         _______ _______ _______ _____ _____    ______ ____

>  <TORSDO>
F 3

$$$$
=
 OpenBabel11112417513D

 34 41  0  0  1  0  0  0  0  0999 V2000
  189.8490  173.7310  143.7200 C   0  0  1  0  0  3  0  0  0  0  0  0
  191.7780  172.0630  144.1110 C   0  0  0  0  0  2  0  0  0  0  0  0
  186.4780  178.1140  145.8080 C   0  0  2  0  0  0  0  0  0  0  0  0
  188.1570  175.5290  143.4230 C   0  0  2  0  0  3  0  0  0  0  0  0
  188.5350  177.8410  144.3850 N   0  0  1  0  0  0  0  0  0  0  0  0
  186.7980  176.6330  145.8400 C   0  0  0  0  0  2  0  0  0  0  0  0
  186.1140  178.6260  147.0520 O   0  0  0  0  0  1  0  0  0  0  0  0
  185.5380  177.6370  143.4840 C   0  0  0  0  0  2  0  0  0  0  0  0
  191.8050  174.1790  145.1760 C   0  0  2  0  0  3  0  0  0  0  0  0
  194.5660  175.7660  145.6320 C   0  0  0  0  0  2  0  0  0  0  0  0
  189.9690  177.5400  144.5290 C   0  0  0  0  0  2  0  0  0  0  0  0
  186.7530  177.6020  142.5790 C   0  0  0  0  0  2  0  0  0  0  0  0
  191.6850  175.7040  145.0370 C   0  0  1  0  0  3  0  0  0  0  0  0
  193.1280  172.1790  144.8170 C   0  0  0  0  0  2  0  0  0  0  0  0
  188.0140  177.0450  143.2470 C   0  0  2  0  0  3  0  0  0  0  0  0
  185.7350  178.6650  144.5880 C   0  0  0  0  0  2  0  0  0  0  0  0
  194.3720  174.4230  144.9040 C   0  0  1  0  0  3  0  0  0  0  0  0
  189.6420  175.2420  143.5960 C   0  0  1  0  0  3  0  0  0  0  0  0
  187.9300  177.6620  145.7310 C   0  0  2  0  0  3  0  0  0  0  0  0
  190.2050  176.0380  144.7870 C   0  0  2  0  0  3  0  0  0  0  0  0
  188.1040  173.6780  141.8670 C   0  0  0  0  0  3  0  0  0  0  0  0
  193.5790  176.0160  146.7750 C   0  0  0  0  0  2  0  0  0  0  0  0
  187.6150  174.7980  142.2910 N   0  0  0  0  0  0  0  0  0  0  0  0
  192.1900  176.4440  146.2860 C   0  0  0  0  0  2  0  0  0  0  0  0
  193.1840  173.5790  145.4350 C   0  0  1  0  0  3  0  0  0  0  0  0
  189.3710  173.0650  142.4250 C   0  0  0  0  0  2  0  0  0  0  0  0
  191.3420  173.4960  143.9170 C   0  0  2  0  0  3  0  0  0  0  0  0
  194.3170  174.6800  143.4010 C   0  0  0  0  0  2  0  0  0  0  0  0
  194.9810  175.9980  143.0530 C   0  0  0  0  0  2  0  0  0  0  0  0
  197.3050  175.8770  140.1890 N   0  0  0  0  0  0  0  0  0  0  0  0
  197.0810  174.9760  142.3530 N   0  0  0  0  0  0  0  0  0  0  0  0
  196.0970  175.7540  142.1010 C   0  0  0  0  0  0  0  0  0  0  0  0
  197.9390  174.9850  141.1730 C   0  0  0  0  0  3  0  0  0  0  0  0
  196.1770  176.3040  140.8490 O   0  0  0  0  0  0  0  0  0  0  0  0
  1 26  1  6  0  0  0
  1 27  1  0  0  0  0
  2 14  1  0  0  0  0
  3  6  1  0  0  0  0
  3  7  1  1  0  0  0
  4 23  1  6  0  0  0
  4 18  1  0  0  0  0
  5 11  1  1  0  0  0
  5 19  1  0  0  0  0
  8 16  1  0  0  0  0
  9 25  1  0  0  0  0
 10 22  1  0  0  0  0
 11 20  1  0  0  0  0
 12 15  1  0  0  0  0
 12  8  1  0  0  0  0
 13  9  1  0  0  0  0
 13 24  1  0  0  0  0
 14 25  1  0  0  0  0
 15  4  1  0  0  0  0
 15  5  1  0  0  0  0
 16  3  1  0  0  0  0
 17 25  1  0  0  0  0
 17 10  1  0  0  0  0
 18  1  1  0  0  0  0
 18 20  1  0  0  0  0
 19  3  1  0  0  0  0
 19  6  1  0  0  0  0
 20 13  1  0  0  0  0
 21 23  2  0  0  0  0
 21 26  1  0  0  0  0
 24 22  1  0  0  0  0
 27  2  1  0  0  0  0
 27  9  1  0  0  0  0
 28 17  1  0  0  0  0
 29 28  1  0  0  0  0
 30 34  1  0  0  0  0
 30 33  2  0  0  0  0
 32 31  2  0  0  0  0
 32 29  1  0  0  0  0
 33 31  1  0  0  0  0
 34 32  1  0  0  0  0
M  END
>  <MODEL>
3

>  <REMARK>
 VINA RESULT:      -8.7      1.548      1.874
  Name = 
  3 active torsions:
  status: ('A' for Active; 'I' for Inactive)
    1  A    between atoms: C_17  and  C_28
    2  A    between atoms: C_28  and  C_29
    3  A    between atoms: C_29  and  C_32
                            x       y       z     vdW  Elec       q    Type
                         _______ _______ _______ _____ _____    ______ ____

>  <TORSDO>
F 3

$$$$
=
 OpenBabel11112417513D

 34 41  0  0  1  0  0  0  0  0999 V2000
  191.5190  173.0810  143.2870 C   0  0  1  0  0  3  0  0  0  0  0  0
  189.1190  173.5140  142.4450 C   0  0  0  0  0  2  0  0  0  0  0  0
  197.1060  174.9510  143.7580 C   0  0  2  0  0  0  0  0  0  0  0  0
  193.8210  172.9040  144.2120 C   0  0  2  0  0  3  0  0  0  0  0  0
  195.0060  174.9390  145.1440 N   0  0  1  0  0  0  0  0  0  0  0  0
  196.0290  174.3850  142.8550 C   0  0  0  0  0  2  0  0  0  0  0  0
  197.9410  175.8630  143.1150 O   0  0  0  0  0  1  0  0  0  0  0  0
  197.1140  172.6370  144.8330 C   0  0  0  0  0  2  0  0  0  0  0  0
  190.4980  175.3320  143.0820 C   0  0  2  0  0  3  0  0  0  0  0  0
  189.2600  177.9140  144.5470 C   0  0  0  0  0  2  0  0  0  0  0  0
  193.7160  175.6420  145.2360 C   0  0  0  0  0  2  0  0  0  0  0  0
  195.9310  172.6510  145.7800 C   0  0  0  0  0  2  0  0  0  0  0  0
  191.4170  175.9550  144.1440 C   0  0  1  0  0  3  0  0  0  0  0  0
  188.2450  174.7660  142.3890 C   0  0  0  0  0  2  0  0  0  0  0  0
  194.7460  173.4860  145.2870 C   0  0  2  0  0  3  0  0  0  0  0  0
  197.7590  174.0150  144.7780 C   0  0  0  0  0  2  0  0  0  0  0  0
  188.5150  176.6320  144.1320 C   0  0  1  0  0  3  0  0  0  0  0  0
  192.5030  173.6610  144.3060 C   0  0  1  0  0  3  0  0  0  0  0  0
  195.6700  175.4370  143.9120 C   0  0  2  0  0  3  0  0  0  0  0  0
  192.7410  175.1720  144.1370 C   0  0  2  0  0  3  0  0  0  0  0  0
  192.5090  170.8770  144.0880 C   0  0  0  0  0  3  0  0  0  0  0  0
  190.4290  178.2930  143.6350 C   0  0  0  0  0  2  0  0  0  0  0  0
  193.6140  171.4780  144.3870 N   0  0  0  0  0  0  0  0  0  0  0  0
  191.6820  177.4450  143.8820 C   0  0  0  0  0  2  0  0  0  0  0  0
  189.1090  175.9300  142.8830 C   0  0  1  0  0  3  0  0  0  0  0  0
  191.2630  171.6120  143.6370 C   0  0  0  0  0  2  0  0  0  0  0  0
  190.2290  173.8850  143.4000 C   0  0  2  0  0  3  0  0  0  0  0  0
  188.3930  175.7170  145.3460 C   0  0  0  0  0  2  0  0  0  0  0  0
  188.3010  176.5270  146.6260 C   0  0  0  0  0  2  0  0  0  0  0  0
  184.6780  177.2220  146.5110 N   0  0  0  0  0  0  0  0  0  0  0  0
  186.6510  178.1400  147.4130 N   0  0  0  0  0  0  0  0  0  0  0  0
  186.9220  177.0630  146.7760 C   0  0  0  0  0  0  0  0  0  0  0  0
  185.2090  178.3370  147.3110 C   0  0  0  0  0  3  0  0  0  0  0  0
  185.8070  176.4890  146.2260 O   0  0  0  0  0  0  0  0  0  0  0  0
  1 27  1  0  0  0  0
  1 26  1  1  0  0  0
  1 18  1  0  0  0  0
  2 27  1  0  0  0  0
  3  7  1  6  0  0  0
  3 19  1  0  0  0  0
  3 16  1  0  0  0  0
  4 18  1  0  0  0  0
  4 23  1  1  0  0  0
  4 15  1  0  0  0  0
  5 11  1  6  0  0  0
  5 15  1  0  0  0  0
  6  3  1  0  0  0  0
  6 19  1  0  0  0  0
  8 12  1  0  0  0  0
  9 27  1  0  0  0  0
  9 13  1  0  0  0  0
 14  2  1  0  0  0  0
 14 25  1  0  0  0  0
 15 12  1  0  0  0  0
 16  8  1  0  0  0  0
 17 10  1  0  0  0  0
 17 28  1  0  0  0  0
 19  5  1  0  0  0  0
 20 13  1  0  0  0  0
 20 18  1  0  0  0  0
 20 11  1  0  0  0  0
 21 23  2  0  0  0  0
 22 24  1  0  0  0  0
 22 10  1  0  0  0  0
 24 13  1  0  0  0  0
 25  9  1  0  0  0  0
 25 17  1  0  0  0  0
 26 21  1  0  0  0  0
 28 29  1  0  0  0  0
 29 32  1  0  0  0  0
 30 33  2  0  0  0  0
 32 31  2  0  0  0  0
 33 31  1  0  0  0  0
 34 30  1  0  0  0  0
 34 32  1  0  0  0  0
M  END
>  <MODEL>
4

>  <REMARK>
 VINA RESULT:      -8.2      2.162      8.461
  Name = 
  3 active torsions:
  status: ('A' for Active; 'I' for Inactive)
    1  A    between atoms: C_17  and  C_28
    2  A    between atoms: C_28  and  C_29
    3  A    between atoms: C_29  and  C_32
                            x       y       z     vdW  Elec       q    Type
                         _______ _______ _______ _____ _____    ______ ____

>  <TORSDO>
F 3

$$$$
=
 OpenBabel11112417513D

 34 41  0  0  1  0  0  0  0  0999 V2000
  192.5200  175.7540  145.9000 C   0  0  1  0  0  3  0  0  0  0  0  0
  190.2590  175.6000  147.1330 C   0  0  0  0  0  2  0  0  0  0  0  0
  196.1750  173.5830  141.7940 C   0  0  2  0  0  0  0  0  0  0  0  0
  194.5600  175.8940  144.4850 C   0  0  2  0  0  3  0  0  0  0  0  0
  194.4540  175.4070  142.0020 N   0  0  1  0  0  0  0  0  0  0  0  0
  195.5670  173.4100  143.1720 C   0  0  0  0  0  2  0  0  0  0  0  0
  196.3610  172.3780  141.1180 O   0  0  0  0  0  1  0  0  0  0  0  0
  197.4720  175.5100  142.8490 C   0  0  0  0  0  2  0  0  0  0  0  0
  190.4290  174.9000  144.8770 C   0  0  2  0  0  3  0  0  0  0  0  0
  188.0070  175.3720  142.8120 C   0  0  0  0  0  2  0  0  0  0  0  0
  192.9920  175.5730  142.0370 C   0  0  0  0  0  2  0  0  0  0  0  0
  196.4950  176.6680  142.8620 C   0  0  0  0  0  2  0  0  0  0  0  0
  190.8770  175.2310  143.4440 C   0  0  1  0  0  3  0  0  0  0  0  0
  188.8400  175.2700  146.6710 C   0  0  0  0  0  2  0  0  0  0  0  0
  195.0360  176.2520  143.0730 C   0  0  2  0  0  3  0  0  0  0  0  0
  197.2550  174.6530  141.6110 C   0  0  0  0  0  2  0  0  0  0  0  0
  188.0790  175.8230  144.2820 C   0  0  1  0  0  3  0  0  0  0  0  0
  193.0450  176.0470  144.4930 C   0  0  1  0  0  3  0  0  0  0  0  0
  194.7120  173.9430  142.0150 C   0  0  2  0  0  3  0  0  0  0  0  0
  192.4120  175.1610  143.4050 C   0  0  2  0  0  3  0  0  0  0  0  0
  194.5720  177.0960  146.5820 C   0  0  0  0  0  3  0  0  0  0  0  0
  188.7580  174.0730  142.5090 C   0  0  0  0  0  2  0  0  0  0  0  0
  195.1730  176.7370  145.4950 N   0  0  0  0  0  0  0  0  0  0  0  0
  190.2760  174.2680  142.4100 C   0  0  0  0  0  2  0  0  0  0  0  0
  188.9350  174.9000  145.1880 C   0  0  1  0  0  3  0  0  0  0  0  0
  193.1180  176.7790  146.8680 C   0  0  0  0  0  2  0  0  0  0  0  0
  191.0030  175.8940  145.8520 C   0  0  2  0  0  3  0  0  0  0  0  0
  188.5020  177.2880  144.3290 C   0  0  0  0  0  2  0  0  0  0  0  0
  187.3070  178.2020  144.1350 C   0  0  0  0  0  2  0  0  0  0  0  0
  185.6860  177.9370  147.4400 N   0  0  0  0  0  0  0  0  0  0  0  0
  185.1310  177.7950  145.1550 N   0  0  0  0  0  0  0  0  0  0  0  0
  186.3770  178.0540  145.2860 C   0  0  0  0  0  0  0  0  0  0  0  0
  184.5760  177.7040  146.5010 C   0  0  0  0  0  3  0  0  0  0  0  0
  186.7550  178.1430  146.6000 O   0  0  0  0  0  0  0  0  0  0  0  0
  1 26  1  1  0  0  0
  3  7  1  6  0  0  0
  3 19  1  0  0  0  0
  3  6  1  0  0  0  0
  4 18  1  0  0  0  0
  4 23  1  1  0  0  0
  5 19  1  0  0  0  0
  5 11  1  1  0  0  0
  5 15  1  0  0  0  0
  8 12  1  0  0  0  0
  9 25  1  0  0  0  0
  9 27  1  0  0  0  0
 10 17  1  0  0  0  0
 11 20  1  0  0  0  0
 12 15  1  0  0  0  0
 13  9  1  0  0  0  0
 14  2  1  0  0  0  0
 15  4  1  0  0  0  0
 16  3  1  0  0  0  0
 16  8  1  0  0  0  0
 17 28  1  0  0  0  0
 17 25  1  0  0  0  0
 18  1  1  0  0  0  0
 19  6  1  0  0  0  0
 20 13  1  0  0  0  0
 20 18  1  0  0  0  0
 21 26  1  0  0  0  0
 22 10  1  0  0  0  0
 23 21  2  0  0  0  0
 24 22  1  0  0  0  0
 24 13  1  0  0  0  0
 25 14  1  0  0  0  0
 27  1  1  0  0  0  0
 27  2  1  0  0  0  0
 29 28  1  0  0  0  0
 29 32  1  0  0  0  0
 31 32  2  0  0  0  0
 31 33  1  0  0  0  0
 32 34  1  0  0  0  0
 33 30  2  0  0  0  0
 34 30  1  0  0  0  0
M  END
>  <MODEL>
5

>  <REMARK>
 VINA RESULT:      -8.2      1.902      8.588
  Name = 
  3 active torsions:
  status: ('A' for Active; 'I' for Inactive)
    1  A    between atoms: C_17  and  C_28
    2  A    between atoms: C_28  and  C_29
    3  A    between atoms: C_29  and  C_32
                            x       y       z     vdW  Elec       q    Type
                         _______ _______ _______ _____ _____    ______ ____

>  <TORSDO>
F 3

$$$$
=
 OpenBabel11112417513D

 34 41  0  0  1  0  0  0  0  0999 V2000
  192.4580  176.1350  145.8610 C   0  0  1  0  0  3  0  0  0  0  0  0
  194.9410  175.4980  146.1450 C   0  0  0  0  0  2  0  0  0  0  0  0
  187.9800  177.4540  142.2360 C   0  0  2  0  0  0  0  0  0  0  0  0
  190.0470  176.5480  145.4130 C   0  0  2  0  0  3  0  0  0  0  0  0
  188.8810  175.4450  143.4540 N   0  0  1  0  0  0  0  0  0  0  0  0
  189.2730  177.9160  142.8760 C   0  0  0  0  0  2  0  0  0  0  0  0
  187.8160  177.9110  140.9290 O   0  0  0  0  0  1  0  0  0  0  0  0
  186.9940  177.6840  144.5780 C   0  0  0  0  0  2  0  0  0  0  0  0
  193.7540  174.8080  144.2150 C   0  0  2  0  0  3  0  0  0  0  0  0
  194.3270  171.9490  142.8550 C   0  0  0  0  0  2  0  0  0  0  0  0
  189.9810  174.4710  143.3550 C   0  0  0  0  0  2  0  0  0  0  0  0
  187.4110  176.4160  145.2950 C   0  0  0  0  0  2  0  0  0  0  0  0
  192.5060  174.1260  143.6330 C   0  0  1  0  0  3  0  0  0  0  0  0
  195.8770  174.5760  145.3640 C   0  0  0  0  0  2  0  0  0  0  0  0
  188.7810  175.8780  144.8690 C   0  0  2  0  0  3  0  0  0  0  0  0
  186.7240  177.3920  143.1090 C   0  0  0  0  0  2  0  0  0  0  0  0
  194.9600  172.5140  144.1390 C   0  0  1  0  0  3  0  0  0  0  0  0
  191.1760  175.5360  145.2780 C   0  0  1  0  0  3  0  0  0  0  0  0
  189.1260  176.4650  142.4010 C   0  0  2  0  0  3  0  0  0  0  0  0
  191.3190  175.0860  143.8130 C   0  0  2  0  0  3  0  0  0  0  0  0
  190.8550  176.9710  147.6520 C   0  0  0  0  0  3  0  0  0  0  0  0
  193.9640  173.0070  141.8090 C   0  0  0  0  0  2  0  0  0  0  0  0
  189.8880  176.9690  146.7940 N   0  0  0  0  0  0  0  0  0  0  0  0
  192.6780  173.7700  142.1480 C   0  0  0  0  0  2  0  0  0  0  0  0
  195.0830  174.0600  144.1610 C   0  0  1  0  0  3  0  0  0  0  0  0
  192.2320  176.4180  147.3500 C   0  0  0  0  0  2  0  0  0  0  0  0
  193.5610  175.0990  145.6800 C   0  0  2  0  0  3  0  0  0  0  0  0
  194.2230  171.9420  145.3460 C   0  0  0  0  0  2  0  0  0  0  0  0
  194.0380  170.4430  145.2060 C   0  0  0  0  0  2  0  0  0  0  0  0
  196.7900  169.2620  147.3640 N   0  0  0  0  0  0  0  0  0  0  0  0
  194.5690  168.6960  146.8210 N   0  0  0  0  0  0  0  0  0  0  0  0
  194.9230  169.7410  146.1740 C   0  0  0  0  0  0  0  0  0  0  0  0
  195.7110  168.2990  147.6370 C   0  0  0  0  0  3  0  0  0  0  0  0
  196.2120  170.1130  146.4500 O   0  0  0  0  0  0  0  0  0  0  0  0
  1 26  1  1  0  0  0
  3  7  1  6  0  0  0
  3 19  1  0  0  0  0
  3  6  1  0  0  0  0
  3 16  1  0  0  0  0
  4 23  1  1  0  0  0
  5 11  1  1  0  0  0
  5 15  1  0  0  0  0
  8 12  1  0  0  0  0
  9 27  1  0  0  0  0
 10 17  1  0  0  0  0
 11 20  1  0  0  0  0
 13 20  1  0  0  0  0
 13  9  1  0  0  0  0
 14  2  1  0  0  0  0
 15 12  1  0  0  0  0
 15  4  1  0  0  0  0
 16  8  1  0  0  0  0
 17 25  1  0  0  0  0
 17 28  1  0  0  0  0
 18  4  1  0  0  0  0
 18  1  1  0  0  0  0
 19  6  1  0  0  0  0
 19  5  1  0  0  0  0
 20 18  1  0  0  0  0
 22 24  1  0  0  0  0
 22 10  1  0  0  0  0
 23 21  2  0  0  0  0
 24 13  1  0  0  0  0
 25  9  1  0  0  0  0
 25 14  1  0  0  0  0
 26 21  1  0  0  0  0
 27  1  1  0  0  0  0
 27  2  1  0  0  0  0
 29 28  1  0  0  0  0
 29 32  1  0  0  0  0
 30 33  2  0  0  0  0
 31 33  1  0  0  0  0
 32 34  1  0  0  0  0
 32 31  2  0  0  0  0
 34 30  1  0  0  0  0
M  END
>  <MODEL>
6

>  <REMARK>
 VINA RESULT:      -8.1      3.186      5.229
  Name = 
  3 active torsions:
  status: ('A' for Active; 'I' for Inactive)
    1  A    between atoms: C_17  and  C_28
    2  A    between atoms: C_28  and  C_29
    3  A    between atoms: C_29  and  C_32
                            x       y       z     vdW  Elec       q    Type
                         _______ _______ _______ _____ _____    ______ ____

>  <TORSDO>
F 3

$$$$
=
 OpenBabel11112417513D

 34 41  0  0  1  0  0  0  0  0999 V2000
  190.1270  176.7650  144.7900 C   0  0  1  0  0  3  0  0  0  0  0  0
  192.2420  175.9950  143.5300 C   0  0  0  0  0  2  0  0  0  0  0  0
  184.5860  178.8070  144.5530 C   0  0  2  0  0  0  0  0  0  0  0  0
  187.9520  177.3370  145.8530 C   0  0  2  0  0  3  0  0  0  0  0  0
  185.7650  176.6000  144.8130 N   0  0  1  0  0  0  0  0  0  0  0  0
  186.0600  179.1140  144.3800 C   0  0  0  0  0  2  0  0  0  0  0  0
  183.7740  179.4700  143.6340 O   0  0  0  0  0  1  0  0  0  0  0  0
  185.1230  178.7070  147.0450 C   0  0  0  0  0  2  0  0  0  0  0  0
  190.1020  175.6620  142.5700 C   0  0  2  0  0  3  0  0  0  0  0  0
  189.4600  173.0310  140.8330 C   0  0  0  0  0  2  0  0  0  0  0  0
  186.4910  175.6110  143.9990 C   0  0  0  0  0  2  0  0  0  0  0  0
  185.7130  177.3270  147.2540 C   0  0  0  0  0  2  0  0  0  0  0  0
  188.6710  175.1290  142.7400 C   0  0  1  0  0  3  0  0  0  0  0  0
  192.4570  175.1710  142.2610 C   0  0  0  0  0  2  0  0  0  0  0  0
  186.5290  176.8100  146.0660 C   0  0  2  0  0  3  0  0  0  0  0  0
  184.0410  178.6590  145.9760 C   0  0  0  0  0  2  0  0  0  0  0  0
  190.7690  173.3630  141.5730 C   0  0  1  0  0  3  0  0  0  0  0  0
  188.6780  176.3150  144.9890 C   0  0  1  0  0  3  0  0  0  0  0  0
  185.4970  177.7610  143.9250 C   0  0  2  0  0  3  0  0  0  0  0  0
  187.9170  176.0950  143.6690 C   0  0  2  0  0  3  0  0  0  0  0  0
  189.9230  177.3720  147.2540 C   0  0  0  0  0  3  0  0  0  0  0  0
  188.7040  174.2520  140.3040 C   0  0  0  0  0  2  0  0  0  0  0  0
  188.6490  177.5430  147.1110 N   0  0  0  0  0  0  0  0  0  0  0  0
  187.9350  175.0020  141.3980 C   0  0  0  0  0  2  0  0  0  0  0  0
  191.0690  174.8810  141.6840 C   0  0  1  0  0  3  0  0  0  0  0  0
  190.8130  176.8210  146.1600 C   0  0  0  0  0  2  0  0  0  0  0  0
  190.8030  175.7280  143.9020 C   0  0  2  0  0  3  0  0  0  0  0  0
  190.7740  172.6390  142.9160 C   0  0  0  0  0  2  0  0  0  0  0  0
  191.7640  171.4890  142.9060 C   0  0  0  0  0  2  0  0  0  0  0  0
  193.8330  172.6590  145.7290 N   0  0  0  0  0  0  0  0  0  0  0  0
  193.5710  170.7550  144.3680 N   0  0  0  0  0  0  0  0  0  0  0  0
  192.7270  171.6540  144.0270 C   0  0  0  0  0  0  0  0  0  0  0  0
  194.3440  171.3020  145.4780 C   0  0  0  0  0  3  0  0  0  0  0  0
  192.8400  172.7880  144.7870 O   0  0  0  0  0  0  0  0  0  0  0  0
  1 18  1  0  0  0  0
  1 26  1  1  0  0  0
  2 27  1  0  0  0  0
  3  7  1  6  0  0  0
  3 16  1  0  0  0  0
  4 15  1  0  0  0  0
  4 23  1  1  0  0  0
  5 11  1  6  0  0  0
  5 15  1  0  0  0  0
  6  3  1  0  0  0  0
  8 12  1  0  0  0  0
  9 13  1  0  0  0  0
  9 27  1  0  0  0  0
 10 17  1  0  0  0  0
 13 20  1  0  0  0  0
 14  2  1  0  0  0  0
 15 12  1  0  0  0  0
 16  8  1  0  0  0  0
 17 25  1  0  0  0  0
 17 28  1  0  0  0  0
 18  4  1  0  0  0  0
 19  6  1  0  0  0  0
 19  3  1  0  0  0  0
 19  5  1  0  0  0  0
 20 11  1  0  0  0  0
 20 18  1  0  0  0  0
 22 10  1  0  0  0  0
 22 24  1  0  0  0  0
 23 21  2  0  0  0  0
 24 13  1  0  0  0  0
 25 14  1  0  0  0  0
 25  9  1  0  0  0  0
 26 21  1  0  0  0  0
 27  1  1  0  0  0  0
 29 28  1  0  0  0  0
 29 32  1  0  0  0  0
 31 33  1  0  0  0  0
 32 31  2  0  0  0  0
 32 34  1  0  0  0  0
 33 30  2  0  0  0  0
 34 30  1  0  0  0  0
M  END
>  <MODEL>
7

>  <REMARK>
 VINA RESULT:      -8.1      2.419      4.415
  Name = 
  3 active torsions:
  status: ('A' for Active; 'I' for Inactive)
    1  A    between atoms: C_17  and  C_28
    2  A    between atoms: C_28  and  C_29
    3  A    between atoms: C_29  and  C_32
                            x       y       z     vdW  Elec       q    Type
                         _______ _______ _______ _____ _____    ______ ____

>  <TORSDO>
F 3

$$$$
=
 OpenBabel11112417513D

 34 41  0  0  1  0  0  0  0  0999 V2000
  191.3980  173.1060  143.2610 C   0  0  1  0  0  3  0  0  0  0  0  0
  188.9800  173.3670  142.3990 C   0  0  0  0  0  2  0  0  0  0  0  0
  196.9040  175.2350  143.5370 C   0  0  2  0  0  0  0  0  0  0  0  0
  193.7070  173.1030  144.1840 C   0  0  2  0  0  3  0  0  0  0  0  0
  194.8100  175.2560  144.9320 N   0  0  1  0  0  0  0  0  0  0  0  0
  195.8490  174.5490  142.6930 C   0  0  0  0  0  2  0  0  0  0  0  0
  197.7010  176.1210  142.8140 O   0  0  0  0  0  1  0  0  0  0  0  0
  197.0100  173.0240  144.8070 C   0  0  0  0  0  2  0  0  0  0  0  0
  190.2860  175.2870  142.8690 C   0  0  2  0  0  3  0  0  0  0  0  0
  188.9460  177.9340  144.1140 C   0  0  0  0  0  2  0  0  0  0  0  0
  193.4920  175.9110  144.9700 C   0  0  0  0  0  2  0  0  0  0  0  0
  195.8290  173.0710  145.7560 C   0  0  0  0  0  2  0  0  0  0  0  0
  191.1810  176.0360  143.8690 C   0  0  1  0  0  3  0  0  0  0  0  0
  188.0550  174.5730  142.2400 C   0  0  0  0  0  2  0  0  0  0  0  0
  194.6090  173.8110  145.2000 C   0  0  2  0  0  3  0  0  0  0  0  0
  197.5970  174.4170  144.6310 C   0  0  0  0  0  2  0  0  0  0  0  0
  188.2530  176.5910  143.8150 C   0  0  1  0  0  3  0  0  0  0  0  0
  192.3590  173.8110  144.2200 C   0  0  1  0  0  3  0  0  0  0  0  0
  195.4510  175.6730  143.6580 C   0  0  2  0  0  3  0  0  0  0  0  0
  192.5360  175.3100  143.9210 C   0  0  2  0  0  3  0  0  0  0  0  0
  192.4790  171.0210  144.2420 C   0  0  0  0  0  3  0  0  0  0  0  0
  190.0960  178.2800  143.1660 C   0  0  0  0  0  2  0  0  0  0  0  0
  193.5590  171.6890  144.4820 N   0  0  0  0  0  0  0  0  0  0  0  0
  191.3840  177.5080  143.4780 C   0  0  0  0  0  2  0  0  0  0  0  0
  188.8720  175.8090  142.6270 C   0  0  1  0  0  3  0  0  0  0  0  0
  191.2030  171.6630  143.7370 C   0  0  0  0  0  2  0  0  0  0  0  0
  190.0760  173.8630  143.3120 C   0  0  2  0  0  3  0  0  0  0  0  0
  188.1710  175.7800  145.1040 C   0  0  0  0  0  2  0  0  0  0  0  0
  188.3110  176.6790  146.3180 C   0  0  0  0  0  2  0  0  0  0  0  0
  191.5710  176.7250  148.0460 N   0  0  0  0  0  0  0  0  0  0  0  0
  189.9800  175.1750  147.2630 N   0  0  0  0  0  0  0  0  0  0  0  0
  189.5830  176.3670  147.0230 C   0  0  0  0  0  0  0  0  0  0  0  0
  191.2690  175.2890  147.9380 C   0  0  0  0  0  3  0  0  0  0  0  0
  190.4770  177.3110  147.4550 O   0  0  0  0  0  0  0  0  0  0  0  0
  1 27  1  0  0  0  0
  1 26  1  1  0  0  0
  1 18  1  0  0  0  0
  2 27  1  0  0  0  0
  3  7  1  6  0  0  0
  3 19  1  0  0  0  0
  3 16  1  0  0  0  0
  4 18  1  0  0  0  0
  4 23  1  1  0  0  0
  4 15  1  0  0  0  0
  5 11  1  6  0  0  0
  5 15  1  0  0  0  0
  6  3  1  0  0  0  0
  6 19  1  0  0  0  0
  8 12  1  0  0  0  0
  9 27  1  0  0  0  0
  9 13  1  0  0  0  0
 13 20  1  0  0  0  0
 14  2  1  0  0  0  0
 14 25  1  0  0  0  0
 15 12  1  0  0  0  0
 16  8  1  0  0  0  0
 17 10  1  0  0  0  0
 17 28  1  0  0  0  0
 19  5  1  0  0  0  0
 20 18  1  0  0  0  0
 20 11  1  0  0  0  0
 21 23  2  0  0  0  0
 22 24  1  0  0  0  0
 22 10  1  0  0  0  0
 24 13  1  0  0  0  0
 25  9  1  0  0  0  0
 25 17  1  0  0  0  0
 26 21  1  0  0  0  0
 28 29  1  0  0  0  0
 29 32  1  0  0  0  0
 31 33  1  0  0  0  0
 32 31  2  0  0  0  0
 32 34  1  0  0  0  0
 33 30  2  0  0  0  0
 34 30  1  0  0  0  0
M  END
>  <MODEL>
8

>  <REMARK>
 VINA RESULT:      -8.0      2.631      7.655
  Name = 
  3 active torsions:
  status: ('A' for Active; 'I' for Inactive)
    1  A    between atoms: C_17  and  C_28
    2  A    between atoms: C_28  and  C_29
    3  A    between atoms: C_29  and  C_32
                            x       y       z     vdW  Elec       q    Type
                         _______ _______ _______ _____ _____    ______ ____

>  <TORSDO>
F 3

$$$$
=
 OpenBabel11112417513D

 34 41  0  0  1  0  0  0  0  0999 V2000
  188.6210  174.5160  143.1740 C   0  0  1  0  0  3  0  0  0  0  0  0
  190.2870  172.5490  143.2810 C   0  0  0  0  0  2  0  0  0  0  0  0
  185.0340  178.2390  146.0360 C   0  0  2  0  0  0  0  0  0  0  0  0
  187.1640  176.5290  143.2570 C   0  0  2  0  0  3  0  0  0  0  0  0
  187.3820  178.2140  145.1340 N   0  0  1  0  0  0  0  0  0  0  0  0
  185.2590  176.8270  145.5350 C   0  0  0  0  0  2  0  0  0  0  0  0
  184.3730  178.2910  147.2630 O   0  0  0  0  0  1  0  0  0  0  0  0
  184.7340  178.8310  143.5720 C   0  0  0  0  0  2  0  0  0  0  0  0
  190.1310  174.0700  145.0890 C   0  0  2  0  0  3  0  0  0  0  0  0
  192.7420  174.9210  146.7660 C   0  0  0  0  0  2  0  0  0  0  0  0
  188.7070  177.6650  145.4660 C   0  0  0  0  0  2  0  0  0  0  0  0
  186.1450  178.9560  143.0340 C   0  0  0  0  0  2  0  0  0  0  0  0
  190.1290  175.5330  145.5600 C   0  0  1  0  0  3  0  0  0  0  0  0
  191.4010  172.1790  144.2600 C   0  0  0  0  0  2  0  0  0  0  0  0
  187.1490  178.0000  143.6860 C   0  0  2  0  0  3  0  0  0  0  0  0
  184.6760  179.3200  145.0120 C   0  0  0  0  0  2  0  0  0  0  0  0
  192.6850  174.0020  145.5320 C   0  0  1  0  0  3  0  0  0  0  0  0
  188.5310  175.9730  143.6310 C   0  0  1  0  0  3  0  0  0  0  0  0
  186.4290  177.6330  146.1150 C   0  0  2  0  0  3  0  0  0  0  0  0
  188.7900  176.1610  145.1370 C   0  0  2  0  0  3  0  0  0  0  0  0
  187.4410  175.4400  141.1160 C   0  0  0  0  0  3  0  0  0  0  0  0
  191.4960  174.8670  147.6550 C   0  0  0  0  0  2  0  0  0  0  0  0
  186.9120  176.3750  141.8350 N   0  0  0  0  0  0  0  0  0  0  0  0
  190.3140  175.6560  147.0800 C   0  0  0  0  0  2  0  0  0  0  0  0
  191.3580  173.2130  145.3880 C   0  0  1  0  0  3  0  0  0  0  0  0
  188.4790  174.4730  141.6480 C   0  0  0  0  0  2  0  0  0  0  0  0
  189.9920  173.9970  143.5920 C   0  0  2  0  0  3  0  0  0  0  0  0
  193.0500  174.8150  144.2940 C   0  0  0  0  0  2  0  0  0  0  0  0
  193.4530  176.2270  144.6740 C   0  0  0  0  0  2  0  0  0  0  0  0
  191.1910  179.0350  143.8880 N   0  0  0  0  0  0  0  0  0  0  0  0
  191.9370  177.0140  142.9360 N   0  0  0  0  0  0  0  0  0  0  0  0
  192.5000  177.1950  144.0700 C   0  0  0  0  0  0  0  0  0  0  0  0
  191.0630  178.1610  142.7110 C   0  0  0  0  0  3  0  0  0  0  0  0
  192.0970  178.3580  144.6710 O   0  0  0  0  0  0  0  0  0  0  0  0
  1 26  1  6  0  0  0
  1 27  1  0  0  0  0
  1 18  1  0  0  0  0
  2 27  1  0  0  0  0
  2 14  1  0  0  0  0
  3 19  1  0  0  0  0
  3  7  1  1  0  0  0
  4 23  1  6  0  0  0
  4 18  1  0  0  0  0
  4 15  1  0  0  0  0
  5 11  1  1  0  0  0
  5 19  1  0  0  0  0
  6  3  1  0  0  0  0
  6 19  1  0  0  0  0
  8 16  1  0  0  0  0
  9 25  1  0  0  0  0
  9 13  1  0  0  0  0
 10 22  1  0  0  0  0
 12  8  1  0  0  0  0
 12 15  1  0  0  0  0
 13 24  1  0  0  0  0
 14 25  1  0  0  0  0
 15  5  1  0  0  0  0
 16  3  1  0  0  0  0
 17 10  1  0  0  0  0
 18 20  1  0  0  0  0
 20 11  1  0  0  0  0
 20 13  1  0  0  0  0
 21 26  1  0  0  0  0
 21 23  2  0  0  0  0
 24 22  1  0  0  0  0
 25 17  1  0  0  0  0
 27  9  1  0  0  0  0
 28 29  1  0  0  0  0
 28 17  1  0  0  0  0
 30 34  1  0  0  0  0
 31 32  2  0  0  0  0
 32 34  1  0  0  0  0
 32 29  1  0  0  0  0
 33 31  1  0  0  0  0
 33 30  2  0  0  0  0
M  END
>  <MODEL>
9

>  <REMARK>
 VINA RESULT:      -7.9      1.872      2.259
  Name = 
  3 active torsions:
  status: ('A' for Active; 'I' for Inactive)
    1  A    between atoms: C_17  and  C_28
    2  A    between atoms: C_28  and  C_29
    3  A    between atoms: C_29  and  C_32
                            x       y       z     vdW  Elec       q    Type
                         _______ _______ _______ _____ _____    ______ ____

>  <TORSDO>
F 3

$$$$
