=
 OpenBabel11112417343D

 28 32  0  0  1  0  0  0  0  0999 V2000
  185.9080  177.0180  143.4080 C   0  0  0  0  0  0  0  0  0  0  0  0
  187.5450  172.9850  141.9280 O   0  0  0  0  0  0  0  0  0  0  0  0
  190.0160  177.8920  147.6840 O   0  0  0  0  0  0  0  0  0  0  0  0
  186.8920  177.9360  140.9500 C   0  0  0  0  0  3  0  0  0  0  0  0
  190.5120  175.8840  146.4560 C   0  0  1  0  0  3  0  0  0  0  0  0
  185.3860  176.7080  144.7650 C   0  0  0  0  0  2  0  0  0  0  0  0
  188.6380  174.8060  140.6790 O   0  0  0  0  0  0  0  0  0  0  0  0
  188.7250  173.9130  141.8830 S   0  0  0  0  0  0  0  0  0  0  0  0
  190.6560  172.4290  143.1450 C   0  0  1  0  0  3  0  0  0  0  0  0
  188.8500  174.8100  143.3890 C   0  0  0  0  0  0  0  0  0  0  0  0
  186.3720  178.9090  147.6140 O   0  0  0  0  0  1  0  0  0  0  0  0
  188.6190  176.1530  145.0430 C   0  0  0  0  0  0  0  0  0  0  0  0
  190.8400  173.5010  144.1250 N   0  0  0  0  0  2  0  0  0  0  0  0
  190.2450  172.9740  141.7730 C   0  0  0  0  0  2  0  0  0  0  0  0
  186.0590  177.7030  146.9880 C   0  0  2  0  0  3  0  0  0  0  0  0
  187.2270  176.6890  143.0180 C   0  0  0  0  0  0  0  0  0  0  0  0
  189.6860  177.1020  146.8120 C   0  0  0  0  0  0  0  0  0  0  0  0
  191.9380  171.6370  143.0150 C   0  0  0  0  0  1  0  0  0  0  0  0
  187.2810  176.7880  146.9780 C   0  0  0  0  0  2  0  0  0  0  0  0
  187.7060  177.1800  141.7940 C   0  0  0  0  0  3  0  0  0  0  0  0
  185.0950  177.7730  142.5510 C   0  0  0  0  0  3  0  0  0  0  0  0
  185.5810  178.2220  141.3230 C   0  0  0  0  0  3  0  0  0  0  0  0
  185.5050  177.9760  145.6000 C   0  0  0  0  0  2  0  0  0  0  0  0
  189.6900  175.3850  145.3320 C   0  0  0  0  0  0  0  0  0  0  0  0
  188.3950  177.2390  146.0320 C   0  0  2  0  0  3  0  0  0  0  0  0
  189.8350  174.4990  144.3020 C   0  0  0  0  0  0  0  0  0  0  0  0
  191.8780  176.3150  145.9500 C   0  0  0  0  0  1  0  0  0  0  0  0
  188.0910  175.8600  143.8240 N   0  0  0  0  0  0  0  0  0  0  0  0
  1  6  1  0  0  0  0
  4 22  2  0  0  0  0
  4 20  1  0  0  0  0
  5 27  1  6  0  0  0
  5 17  1  0  0  0  0
  6 23  1  0  0  0  0
  7  8  2  0  0  0  0
  8  2  2  0  0  0  0
  8 10  1  0  0  0  0
  9 18  1  6  0  0  0
  9 13  1  0  0  0  0
 10 28  1  0  0  0  0
 10 26  2  0  0  0  0
 12 24  2  0  0  0  0
 12 25  1  0  0  0  0
 13 26  1  0  0  0  0
 14  8  1  0  0  0  0
 14  9  1  0  0  0  0
 15 11  1  6  0  0  0
 16  1  1  0  0  0  0
 16 28  1  0  0  0  0
 17  3  2  0  0  0  0
 19 15  1  0  0  0  0
 20 16  2  0  0  0  0
 21  1  2  0  0  0  0
 22 21  1  0  0  0  0
 23 15  1  0  0  0  0
 24  5  1  0  0  0  0
 25 17  1  0  0  0  0
 25 19  1  1  0  0  0
 26 24  1  0  0  0  0
 28 12  1  0  0  0  0
M  END
>  <MODEL>
1

>  <REMARK>
 VINA RESULT:      -8.8      0.000      0.000
  Name = 
  0 active torsions:
  status: ('A' for Active; 'I' for Inactive)
                            x       y       z     vdW  Elec       q    Type
                         _______ _______ _______ _____ _____    ______ ____

>  <TORSDO>
F 0

$$$$
=
 OpenBabel11112417343D

 28 32  0  0  1  0  0  0  0  0999 V2000
  186.1240  178.2700  144.3740 C   0  0  0  0  0  0  0  0  0  0  0  0
  189.9750  178.0000  146.8690 O   0  0  0  0  0  0  0  0  0  0  0  0
  187.8220  174.4480  140.0820 O   0  0  0  0  0  0  0  0  0  0  0  0
  185.0310  176.8490  146.5280 C   0  0  0  0  0  3  0  0  0  0  0  0
  189.5080  174.5760  141.7930 C   0  0  1  0  0  3  0  0  0  0  0  0
  186.5560  178.9680  143.1350 C   0  0  0  0  0  2  0  0  0  0  0  0
  188.4030  176.2600  147.6230 O   0  0  0  0  0  0  0  0  0  0  0  0
  189.5370  176.5740  146.6920 S   0  0  0  0  0  0  0  0  0  0  0  0
  191.8640  175.3670  145.8840 C   0  0  1  0  0  3  0  0  0  0  0  0
  189.1420  176.2650  145.0070 C   0  0  0  0  0  0  0  0  0  0  0  0
  185.6140  177.5110  139.8310 O   0  0  0  0  0  1  0  0  0  0  0  0
  188.2550  176.1500  143.0600 C   0  0  0  0  0  0  0  0  0  0  0  0
  191.2010  174.9030  144.6640 N   0  0  0  0  0  2  0  0  0  0  0  0
  190.8900  175.4620  147.0630 C   0  0  0  0  0  2  0  0  0  0  0  0
  186.4400  178.1680  140.7420 C   0  0  2  0  0  3  0  0  0  0  0  0
  186.7850  177.1170  144.8560 C   0  0  0  0  0  0  0  0  0  0  0  0
  188.2060  174.9610  141.1220 C   0  0  0  0  0  0  0  0  0  0  0  0
  192.9960  174.4260  146.2340 C   0  0  0  0  0  1  0  0  0  0  0  0
  187.6910  177.3340  141.0060 C   0  0  0  0  0  2  0  0  0  0  0  0
  186.2060  176.4080  145.9200 C   0  0  0  0  0  3  0  0  0  0  0  0
  184.9450  178.7100  144.9950 C   0  0  0  0  0  3  0  0  0  0  0  0
  184.4060  178.0080  146.0730 C   0  0  0  0  0  3  0  0  0  0  0  0
  185.6580  178.4880  142.0040 C   0  0  0  0  0  2  0  0  0  0  0  0
  189.3940  175.4300  142.9950 C   0  0  0  0  0  0  0  0  0  0  0  0
  187.4390  176.0640  141.8200 C   0  0  2  0  0  3  0  0  0  0  0  0
  189.9910  175.5180  144.2200 C   0  0  0  0  0  0  0  0  0  0  0  0
  189.4690  173.1090  142.1920 C   0  0  0  0  0  1  0  0  0  0  0  0
  188.0350  176.6520  144.3040 N   0  0  0  0  0  0  0  0  0  0  0  0
  1 16  2  0  0  0  0
  1 21  1  0  0  0  0
  3 17  2  0  0  0  0
  5 27  1  1  0  0  0
  5 24  1  0  0  0  0
  6  1  1  0  0  0  0
  8  2  2  0  0  0  0
  8 14  1  0  0  0  0
  8  7  2  0  0  0  0
  9 18  1  1  0  0  0
  9 14  1  0  0  0  0
 10  8  1  0  0  0  0
 12 28  1  0  0  0  0
 13  9  1  0  0  0  0
 15 11  1  6  0  0  0
 15 19  1  0  0  0  0
 15 23  1  0  0  0  0
 16 20  1  0  0  0  0
 17  5  1  0  0  0  0
 17 25  1  0  0  0  0
 20  4  2  0  0  0  0
 21 22  2  0  0  0  0
 22  4  1  0  0  0  0
 23  6  1  0  0  0  0
 24 12  2  0  0  0  0
 24 26  1  0  0  0  0
 25 19  1  6  0  0  0
 25 12  1  0  0  0  0
 26 13  1  0  0  0  0
 26 10  2  0  0  0  0
 28 16  1  0  0  0  0
 28 10  1  0  0  0  0
M  END
>  <MODEL>
2

>  <REMARK>
 VINA RESULT:      -8.5      1.846      4.888
  Name = 
  0 active torsions:
  status: ('A' for Active; 'I' for Inactive)
                            x       y       z     vdW  Elec       q    Type
                         _______ _______ _______ _____ _____    ______ ____

>  <TORSDO>
F 0

$$$$
=
 OpenBabel11112417343D

 28 32  0  0  1  0  0  0  0  0999 V2000
  190.7990  174.7590  143.5740 C   0  0  0  0  0  0  0  0  0  0  0  0
  188.1920  175.3900  147.3070 O   0  0  0  0  0  0  0  0  0  0  0  0
  186.8530  176.9220  139.6150 O   0  0  0  0  0  0  0  0  0  0  0  0
  192.2870  176.8640  144.6720 C   0  0  0  0  0  3  0  0  0  0  0  0
  185.9960  177.1520  141.8500 C   0  0  1  0  0  3  0  0  0  0  0  0
  190.0950  173.6810  142.8320 C   0  0  0  0  0  2  0  0  0  0  0  0
  189.5240  177.4220  146.9020 O   0  0  0  0  0  0  0  0  0  0  0  0
  188.2190  176.7320  146.6320 S   0  0  0  0  0  0  0  0  0  0  0  0
  185.5600  177.4040  146.6100 C   0  0  1  0  0  3  0  0  0  0  0  0
  187.8830  176.5550  144.9160 C   0  0  0  0  0  0  0  0  0  0  0  0
  189.4050  174.1590  139.1950 O   0  0  0  0  0  1  0  0  0  0  0  0
  187.9340  176.1640  142.8100 C   0  0  0  0  0  0  0  0  0  0  0  0
  185.6060  177.5410  145.1540 N   0  0  0  0  0  2  0  0  0  0  0  0
  186.9000  177.7650  147.2610 C   0  0  0  0  0  2  0  0  0  0  0  0
  189.1370  173.7300  140.4940 C   0  0  2  0  0  3  0  0  0  0  0  0
  190.1370  175.9330  144.0010 C   0  0  0  0  0  0  0  0  0  0  0  0
  187.0030  176.7130  140.8090 C   0  0  0  0  0  0  0  0  0  0  0  0
  184.4680  178.2910  147.1680 C   0  0  0  0  0  1  0  0  0  0  0  0
  187.9290  174.4770  141.0510 C   0  0  0  0  0  2  0  0  0  0  0  0
  190.9050  176.9830  144.5250 C   0  0  0  0  0  3  0  0  0  0  0  0
  192.1880  174.6460  143.7300 C   0  0  0  0  0  3  0  0  0  0  0  0
  192.9280  175.6890  144.2860 C   0  0  0  0  0  3  0  0  0  0  0  0
  190.3830  173.8840  141.3500 C   0  0  0  0  0  2  0  0  0  0  0  0
  186.7280  176.7150  143.0590 C   0  0  0  0  0  0  0  0  0  0  0  0
  188.1910  175.9520  141.3610 C   0  0  2  0  0  3  0  0  0  0  0  0
  186.6640  176.9430  144.4040 C   0  0  0  0  0  0  0  0  0  0  0  0
  185.8680  178.6670  141.8380 C   0  0  0  0  0  1  0  0  0  0  0  0
  188.7030  176.0850  143.9290 N   0  0  0  0  0  0  0  0  0  0  0  0
  1 21  2  0  0  0  0
  1 16  1  0  0  0  0
  3 17  2  0  0  0  0
  5 27  1  1  0  0  0
  5 24  1  0  0  0  0
  6  1  1  0  0  0  0
  8  7  2  0  0  0  0
  8 14  1  0  0  0  0
  8  2  2  0  0  0  0
  9 18  1  1  0  0  0
  9 14  1  0  0  0  0
 10  8  1  0  0  0  0
 12 24  2  0  0  0  0
 12 28  1  0  0  0  0
 13  9  1  0  0  0  0
 15 11  1  6  0  0  0
 15 19  1  0  0  0  0
 15 23  1  0  0  0  0
 16 20  2  0  0  0  0
 17 25  1  0  0  0  0
 17  5  1  0  0  0  0
 20  4  1  0  0  0  0
 21 22  1  0  0  0  0
 22  4  2  0  0  0  0
 23  6  1  0  0  0  0
 24 26  1  0  0  0  0
 25 19  1  1  0  0  0
 25 12  1  0  0  0  0
 26 10  2  0  0  0  0
 26 13  1  0  0  0  0
 28 16  1  0  0  0  0
 28 10  1  0  0  0  0
M  END
>  <MODEL>
3

>  <REMARK>
 VINA RESULT:      -8.4      2.046      6.618
  Name = 
  0 active torsions:
  status: ('A' for Active; 'I' for Inactive)
                            x       y       z     vdW  Elec       q    Type
                         _______ _______ _______ _____ _____    ______ ____

>  <TORSDO>
F 0

$$$$
=
 OpenBabel11112417343D

 28 32  0  0  1  0  0  0  0  0999 V2000
  188.0900  176.4900  145.2790 C   0  0  0  0  0  0  0  0  0  0  0  0
  187.7710  173.3460  141.9410 O   0  0  0  0  0  0  0  0  0  0  0  0
  194.0770  176.7530  145.3980 O   0  0  0  0  0  0  0  0  0  0  0  0
  187.1080  178.2060  143.2940 C   0  0  0  0  0  3  0  0  0  0  0  0
  193.3460  175.2760  143.6460 C   0  0  1  0  0  3  0  0  0  0  0  0
  188.6660  175.7330  146.4210 C   0  0  0  0  0  2  0  0  0  0  0  0
  187.8160  175.5930  140.9310 O   0  0  0  0  0  0  0  0  0  0  0  0
  188.6490  174.4220  141.3670 S   0  0  0  0  0  0  0  0  0  0  0  0
  190.7420  172.9630  140.3620 C   0  0  1  0  0  3  0  0  0  0  0  0
  189.8990  174.8650  142.5190 C   0  0  0  0  0  0  0  0  0  0  0  0
  191.6000  177.1660  148.2290 O   0  0  0  0  0  1  0  0  0  0  0  0
  191.0510  175.6340  144.1550 C   0  0  0  0  0  0  0  0  0  0  0  0
  191.6750  173.7290  141.1890 N   0  0  0  0  0  2  0  0  0  0  0  0
  189.5310  173.8010  139.9390 C   0  0  0  0  0  2  0  0  0  0  0  0
  190.8180  176.1520  147.6780 C   0  0  2  0  0  3  0  0  0  0  0  0
  188.6940  176.4950  144.0010 C   0  0  0  0  0  0  0  0  0  0  0  0
  193.1480  176.1990  144.8290 C   0  0  0  0  0  0  0  0  0  0  0  0
  191.4600  172.4490  139.1330 C   0  0  0  0  0  1  0  0  0  0  0  0
  191.5680  175.4800  146.5310 C   0  0  0  0  0  2  0  0  0  0  0  0
  188.2000  177.3800  143.0300 C   0  0  0  0  0  3  0  0  0  0  0  0
  186.9890  177.3200  145.5340 C   0  0  0  0  0  3  0  0  0  0  0  0
  186.4930  178.1680  144.5440 C   0  0  0  0  0  3  0  0  0  0  0  0
  189.4700  176.7160  147.2620 C   0  0  0  0  0  2  0  0  0  0  0  0
  191.9250  174.9930  143.3500 C   0  0  0  0  0  0  0  0  0  0  0  0
  191.7100  176.3480  145.2800 C   0  0  2  0  0  3  0  0  0  0  0  0
  191.2030  174.4670  142.3170 C   0  0  0  0  0  0  0  0  0  0  0  0
  193.9750  176.0410  142.4930 C   0  0  0  0  0  1  0  0  0  0  0  0
  189.7860  175.6170  143.6550 N   0  0  0  0  0  0  0  0  0  0  0  0
  1 21  1  0  0  0  0
  1  6  1  0  0  0  0
  4 22  1  0  0  0  0
  5 27  1  6  0  0  0
  5 17  1  0  0  0  0
  6 23  1  0  0  0  0
  7  8  2  0  0  0  0
  8  2  2  0  0  0  0
  8 10  1  0  0  0  0
  9 18  1  6  0  0  0
  9 13  1  0  0  0  0
 10 28  1  0  0  0  0
 12 25  1  0  0  0  0
 13 26  1  0  0  0  0
 14  9  1  0  0  0  0
 14  8  1  0  0  0  0
 15 11  1  6  0  0  0
 16  1  2  0  0  0  0
 17 25  1  0  0  0  0
 17  3  2  0  0  0  0
 19 15  1  0  0  0  0
 20  4  2  0  0  0  0
 20 16  1  0  0  0  0
 22 21  2  0  0  0  0
 23 15  1  0  0  0  0
 24  5  1  0  0  0  0
 24 12  2  0  0  0  0
 25 19  1  1  0  0  0
 26 10  2  0  0  0  0
 26 24  1  0  0  0  0
 28 16  1  0  0  0  0
 28 12  1  0  0  0  0
M  END
>  <MODEL>
4

>  <REMARK>
 VINA RESULT:      -8.1      2.012      3.304
  Name = 
  0 active torsions:
  status: ('A' for Active; 'I' for Inactive)
                            x       y       z     vdW  Elec       q    Type
                         _______ _______ _______ _____ _____    ______ ____

>  <TORSDO>
F 0

$$$$
=
 OpenBabel11112417343D

 28 32  0  0  1  0  0  0  0  0999 V2000
  190.6610  174.2560  145.2580 C   0  0  0  0  0  0  0  0  0  0  0  0
  187.2500  176.0510  147.7630 O   0  0  0  0  0  0  0  0  0  0  0  0
  188.1930  175.3040  139.8980 O   0  0  0  0  0  0  0  0  0  0  0  0
  192.0430  176.5350  146.1250 C   0  0  0  0  0  3  0  0  0  0  0  0
  186.8070  176.2110  141.6410 C   0  0  1  0  0  3  0  0  0  0  0  0
  190.0570  173.0340  144.6660 C   0  0  0  0  0  2  0  0  0  0  0  0
  188.8730  177.8240  147.2240 O   0  0  0  0  0  0  0  0  0  0  0  0
  187.6140  177.1340  146.7870 S   0  0  0  0  0  0  0  0  0  0  0  0
  185.1560  177.8670  145.8170 C   0  0  1  0  0  3  0  0  0  0  0  0
  187.7270  176.4730  145.1620 C   0  0  0  0  0  0  0  0  0  0  0  0
  190.4190  172.4470  140.9990 O   0  0  0  0  0  1  0  0  0  0  0  0
  188.2890  175.4790  143.3490 C   0  0  0  0  0  0  0  0  0  0  0  0
  185.6020  177.5680  144.4560 N   0  0  0  0  0  2  0  0  0  0  0  0
  186.3070  178.3540  146.7030 C   0  0  0  0  0  2  0  0  0  0  0  0
  189.7670  172.4290  142.2300 C   0  0  2  0  0  3  0  0  0  0  0  0
  190.0530  175.5270  145.1400 C   0  0  0  0  0  0  0  0  0  0  0  0
  187.9950  175.4490  141.0940 C   0  0  0  0  0  0  0  0  0  0  0  0
  184.0670  178.9180  145.7740 C   0  0  0  0  0  1  0  0  0  0  0  0
  188.5520  173.3510  142.1910 C   0  0  0  0  0  2  0  0  0  0  0  0
  190.7730  176.6560  145.5590 C   0  0  0  0  0  3  0  0  0  0  0  0
  191.9350  174.1430  145.8330 C   0  0  0  0  0  3  0  0  0  0  0  0
  192.6190  175.2760  146.2740 C   0  0  0  0  0  3  0  0  0  0  0  0
  190.7490  172.7820  143.3340 C   0  0  0  0  0  2  0  0  0  0  0  0
  187.1340  176.1230  143.0800 C   0  0  0  0  0  0  0  0  0  0  0  0
  188.8940  174.8410  142.1500 C   0  0  2  0  0  3  0  0  0  0  0  0
  186.7420  176.7370  144.2350 C   0  0  0  0  0  0  0  0  0  0  0  0
  186.8670  177.6590  141.1820 C   0  0  0  0  0  1  0  0  0  0  0  0
  188.7180  175.7040  144.6200 N   0  0  0  0  0  0  0  0  0  0  0  0
  1 21  1  0  0  0  0
  3 17  2  0  0  0  0
  4 22  1  0  0  0  0
  5 27  1  6  0  0  0
  5 24  1  0  0  0  0
  6  1  1  0  0  0  0
  8  7  2  0  0  0  0
  8  2  2  0  0  0  0
  9 18  1  6  0  0  0
  9 14  1  0  0  0  0
 10  8  1  0  0  0  0
 12 28  1  0  0  0  0
 13  9  1  0  0  0  0
 14  8  1  0  0  0  0
 15 11  1  6  0  0  0
 15 23  1  0  0  0  0
 16  1  2  0  0  0  0
 16 20  1  0  0  0  0
 17  5  1  0  0  0  0
 17 25  1  0  0  0  0
 19 15  1  0  0  0  0
 20  4  2  0  0  0  0
 21 22  2  0  0  0  0
 23  6  1  0  0  0  0
 24 12  2  0  0  0  0
 24 26  1  0  0  0  0
 25 19  1  1  0  0  0
 25 12  1  0  0  0  0
 26 13  1  0  0  0  0
 26 10  2  0  0  0  0
 28 16  1  0  0  0  0
 28 10  1  0  0  0  0
M  END
>  <MODEL>
5

>  <REMARK>
 VINA RESULT:      -8.1      1.862      6.724
  Name = 
  0 active torsions:
  status: ('A' for Active; 'I' for Inactive)
                            x       y       z     vdW  Elec       q    Type
                         _______ _______ _______ _____ _____    ______ ____

>  <TORSDO>
F 0

$$$$
=
 OpenBabel11112417343D

 28 32  0  0  1  0  0  0  0  0999 V2000
  191.6650  175.2500  142.0740 C   0  0  0  0  0  0  0  0  0  0  0  0
  188.4910  178.4050  141.0240 O   0  0  0  0  0  0  0  0  0  0  0  0
  190.6680  175.2220  147.9840 O   0  0  0  0  0  0  0  0  0  0  0  0
  189.8700  173.5120  140.8040 C   0  0  0  0  0  3  0  0  0  0  0  0
  189.1040  176.6830  146.8860 C   0  0  1  0  0  3  0  0  0  0  0  0
  192.6910  176.0210  142.8240 C   0  0  0  0  0  2  0  0  0  0  0  0
  187.4560  176.1700  140.9650 O   0  0  0  0  0  0  0  0  0  0  0  0
  187.7480  177.3690  141.8190 S   0  0  0  0  0  0  0  0  0  0  0  0
  186.3950  178.9180  143.6340 C   0  0  1  0  0  3  0  0  0  0  0  0
  188.6420  176.9670  143.2770 C   0  0  0  0  0  0  0  0  0  0  0  0
  193.9030  174.6900  146.0930 O   0  0  0  0  0  1  0  0  0  0  0  0
  190.0240  176.2310  144.7410 C   0  0  0  0  0  0  0  0  0  0  0  0
  187.0230  178.1820  144.7320 N   0  0  0  0  0  2  0  0  0  0  0  0
  186.1910  178.0360  142.3980 C   0  0  0  0  0  2  0  0  0  0  0  0
  193.5210  175.6770  145.1850 C   0  0  2  0  0  3  0  0  0  0  0  0
  190.2970  175.2790  142.4300 C   0  0  0  0  0  0  0  0  0  0  0  0
  190.2890  175.7430  146.9460 C   0  0  0  0  0  0  0  0  0  0  0  0
  185.0610  179.4690  144.0920 C   0  0  0  0  0  1  0  0  0  0  0  0
  192.2660  176.3860  145.6840 C   0  0  0  0  0  2  0  0  0  0  0  0
  189.4210  174.3830  141.7970 C   0  0  0  0  0  3  0  0  0  0  0  0
  192.1070  174.3760  141.0710 C   0  0  0  0  0  3  0  0  0  0  0  0
  191.2130  173.5170  140.4320 C   0  0  0  0  0  3  0  0  0  0  0  0
  193.3540  175.0640  143.8050 C   0  0  0  0  0  2  0  0  0  0  0  0
  189.0810  176.9120  145.4260 C   0  0  0  0  0  0  0  0  0  0  0  0
  190.9970  175.5350  145.6230 C   0  0  2  0  0  3  0  0  0  0  0  0
  188.2070  177.4170  144.5050 C   0  0  0  0  0  0  0  0  0  0  0  0
  187.8430  175.9520  147.3180 C   0  0  0  0  0  1  0  0  0  0  0  0
  189.7680  176.2020  143.4060 N   0  0  0  0  0  0  0  0  0  0  0  0
  1 16  1  0  0  0  0
  1  6  1  0  0  0  0
  2  8  2  0  0  0  0
  4 20  1  0  0  0  0
  5 17  1  0  0  0  0
  5 27  1  6  0  0  0
  6 23  1  0  0  0  0
  7  8  2  0  0  0  0
  8 14  1  0  0  0  0
  8 10  1  0  0  0  0
  9 18  1  1  0  0  0
  9 13  1  0  0  0  0
 10 28  1  0  0  0  0
 10 26  2  0  0  0  0
 12 24  2  0  0  0  0
 12 25  1  0  0  0  0
 14  9  1  0  0  0  0
 15 19  1  0  0  0  0
 15 11  1  1  0  0  0
 16 28  1  0  0  0  0
 17  3  2  0  0  0  0
 20 16  2  0  0  0  0
 21  1  2  0  0  0  0
 22  4  2  0  0  0  0
 22 21  1  0  0  0  0
 23 15  1  0  0  0  0
 24  5  1  0  0  0  0
 25 19  1  1  0  0  0
 25 17  1  0  0  0  0
 26 13  1  0  0  0  0
 26 24  1  0  0  0  0
 28 12  1  0  0  0  0
M  END
>  <MODEL>
6

>  <REMARK>
 VINA RESULT:      -7.8      2.245      5.560
  Name = 
  0 active torsions:
  status: ('A' for Active; 'I' for Inactive)
                            x       y       z     vdW  Elec       q    Type
                         _______ _______ _______ _____ _____    ______ ____

>  <TORSDO>
F 0

$$$$
=
 OpenBabel11112417343D

 28 32  0  0  1  0  0  0  0  0999 V2000
  189.0740  176.1790  145.2220 C   0  0  0  0  0  0  0  0  0  0  0  0
  187.9760  173.0780  142.0120 O   0  0  0  0  0  0  0  0  0  0  0  0
  194.9350  176.3900  143.9880 O   0  0  0  0  0  0  0  0  0  0  0  0
  187.6870  177.9270  143.5260 C   0  0  0  0  0  3  0  0  0  0  0  0
  193.8120  174.9400  142.4320 C   0  0  1  0  0  3  0  0  0  0  0  0
  189.8850  175.4040  146.1970 C   0  0  0  0  0  2  0  0  0  0  0  0
  187.8160  175.3350  141.0390 O   0  0  0  0  0  0  0  0  0  0  0  0
  188.7130  174.1530  141.2640 S   0  0  0  0  0  0  0  0  0  0  0  0
  190.5100  172.6880  139.7990 C   0  0  1  0  0  3  0  0  0  0  0  0
  190.1960  174.5720  142.1090 C   0  0  0  0  0  0  0  0  0  0  0  0
  193.1660  176.7910  147.3100 O   0  0  0  0  0  1  0  0  0  0  0  0
  191.6950  175.3110  143.4500 C   0  0  0  0  0  0  0  0  0  0  0  0
  191.6130  173.4370  140.4010 N   0  0  0  0  0  2  0  0  0  0  0  0
  189.2440  173.5410  139.6680 C   0  0  0  0  0  2  0  0  0  0  0  0
  192.2690  175.7900  146.9400 C   0  0  2  0  0  3  0  0  0  0  0  0
  189.3730  176.1940  143.8400 C   0  0  0  0  0  0  0  0  0  0  0  0
  193.8960  175.8520  143.6380 C   0  0  0  0  0  0  0  0  0  0  0  0
  190.9270  172.1830  138.4350 C   0  0  0  0  0  1  0  0  0  0  0  0
  192.7330  175.1260  145.6470 C   0  0  0  0  0  2  0  0  0  0  0  0
  188.6830  177.0940  143.0150 C   0  0  0  0  0  3  0  0  0  0  0  0
  188.0670  177.0150  145.7270 C   0  0  0  0  0  3  0  0  0  0  0  0
  187.3700  177.8780  144.8820 C   0  0  0  0  0  3  0  0  0  0  0  0
  190.8670  176.3700  146.8440 C   0  0  0  0  0  2  0  0  0  0  0  0
  192.3580  174.6730  142.4630 C   0  0  0  0  0  0  0  0  0  0  0  0
  192.5980  176.0070  144.4040 C   0  0  2  0  0  3  0  0  0  0  0  0
  191.4160  174.1660  141.6140 C   0  0  0  0  0  0  0  0  0  0  0  0
  194.1730  175.7140  141.1750 C   0  0  0  0  0  1  0  0  0  0  0  0
  190.3500  175.3120  143.2480 N   0  0  0  0  0  0  0  0  0  0  0  0
  1 21  1  0  0  0  0
  1  6  1  0  0  0  0
  4 22  1  0  0  0  0
  5 27  1  6  0  0  0
  5 24  1  0  0  0  0
  5 17  1  0  0  0  0
  6 23  1  0  0  0  0
  7  8  2  0  0  0  0
  8  2  2  0  0  0  0
  8 10  1  0  0  0  0
  9 18  1  6  0  0  0
  9 13  1  0  0  0  0
 10 28  1  0  0  0  0
 12 25  1  0  0  0  0
 13 26  1  0  0  0  0
 14  9  1  0  0  0  0
 14  8  1  0  0  0  0
 15 11  1  6  0  0  0
 16  1  2  0  0  0  0
 17  3  2  0  0  0  0
 17 25  1  0  0  0  0
 19 15  1  0  0  0  0
 20  4  2  0  0  0  0
 20 16  1  0  0  0  0
 22 21  2  0  0  0  0
 23 15  1  0  0  0  0
 24 12  2  0  0  0  0
 25 19  1  1  0  0  0
 26 10  2  0  0  0  0
 26 24  1  0  0  0  0
 28 12  1  0  0  0  0
 28 16  1  0  0  0  0
M  END
>  <MODEL>
7

>  <REMARK>
 VINA RESULT:      -7.5      2.515      4.225
  Name = 
  0 active torsions:
  status: ('A' for Active; 'I' for Inactive)
                            x       y       z     vdW  Elec       q    Type
                         _______ _______ _______ _____ _____    ______ ____

>  <TORSDO>
F 0

$$$$
=
 OpenBabel11112417343D

 28 32  0  0  1  0  0  0  0  0999 V2000
  188.7840  176.3380  145.0150 C   0  0  0  0  0  0  0  0  0  0  0  0
  188.5600  172.4310  142.6040 O   0  0  0  0  0  0  0  0  0  0  0  0
  194.5690  175.8820  146.5140 O   0  0  0  0  0  0  0  0  0  0  0  0
  188.5530  177.5180  142.4840 C   0  0  0  0  0  3  0  0  0  0  0  0
  193.9410  174.0650  145.0680 C   0  0  1  0  0  3  0  0  0  0  0  0
  188.9700  175.8760  146.4160 C   0  0  0  0  0  2  0  0  0  0  0  0
  189.2220  174.2680  141.1020 O   0  0  0  0  0  0  0  0  0  0  0  0
  189.7180  173.1790  142.0080 S   0  0  0  0  0  0  0  0  0  0  0  0
  191.6620  171.2450  141.9430 C   0  0  1  0  0  3  0  0  0  0  0  0
  190.7730  173.7770  143.2790 C   0  0  0  0  0  0  0  0  0  0  0  0
  191.6970  177.3950  148.4610 O   0  0  0  0  0  1  0  0  0  0  0  0
  191.6980  174.8350  144.8970 C   0  0  0  0  0  0  0  0  0  0  0  0
  192.5370  172.0960  142.7510 N   0  0  0  0  0  2  0  0  0  0  0  0
  190.7370  172.0690  141.0420 C   0  0  0  0  0  2  0  0  0  0  0  0
  190.8670  176.3700  148.0100 C   0  0  2  0  0  3  0  0  0  0  0  0
  189.6210  175.9000  143.9630 C   0  0  0  0  0  0  0  0  0  0  0  0
  193.6860  175.3070  145.8950 C   0  0  0  0  0  0  0  0  0  0  0  0
  192.5030  170.3150  141.0960 C   0  0  0  0  0  1  0  0  0  0  0  0
  191.6920  175.3100  147.2870 C   0  0  0  0  0  2  0  0  0  0  0  0
  189.5030  176.5220  142.7110 C   0  0  0  0  0  3  0  0  0  0  0  0
  187.8270  177.3360  144.7770 C   0  0  0  0  0  3  0  0  0  0  0  0
  187.7050  177.9160  143.5150 C   0  0  0  0  0  3  0  0  0  0  0  0
  189.7570  176.9520  147.1510 C   0  0  0  0  0  2  0  0  0  0  0  0
  192.5800  173.8870  144.5180 C   0  0  0  0  0  0  0  0  0  0  0  0
  192.2400  175.7560  145.9310 C   0  0  2  0  0  3  0  0  0  0  0  0
  191.9940  173.1800  143.5070 C   0  0  0  0  0  0  0  0  0  0  0  0
  194.9180  174.3820  143.9480 C   0  0  0  0  0  1  0  0  0  0  0  0
  190.5780  174.8320  144.1260 N   0  0  0  0  0  0  0  0  0  0  0  0
  1  6  1  0  0  0  0
  4 20  2  0  0  0  0
  4 22  1  0  0  0  0
  5 27  1  6  0  0  0
  5 17  1  0  0  0  0
  6 23  1  0  0  0  0
  7  8  2  0  0  0  0
  8  2  2  0  0  0  0
  8 10  1  0  0  0  0
  9 18  1  6  0  0  0
  9 13  1  0  0  0  0
 10 26  2  0  0  0  0
 10 28  1  0  0  0  0
 12 25  1  0  0  0  0
 13 26  1  0  0  0  0
 14  9  1  0  0  0  0
 14  8  1  0  0  0  0
 15 11  1  6  0  0  0
 16 28  1  0  0  0  0
 16  1  2  0  0  0  0
 17 25  1  0  0  0  0
 17  3  2  0  0  0  0
 19 15  1  0  0  0  0
 20 16  1  0  0  0  0
 21  1  1  0  0  0  0
 22 21  2  0  0  0  0
 23 15  1  0  0  0  0
 24 12  2  0  0  0  0
 24  5  1  0  0  0  0
 25 19  1  1  0  0  0
 26 24  1  0  0  0  0
 28 12  1  0  0  0  0
M  END
>  <MODEL>
8

>  <REMARK>
 VINA RESULT:      -7.5      2.060      3.423
  Name = 
  0 active torsions:
  status: ('A' for Active; 'I' for Inactive)
                            x       y       z     vdW  Elec       q    Type
                         _______ _______ _______ _____ _____    ______ ____

>  <TORSDO>
F 0

$$$$
=
 OpenBabel11112417343D

 28 32  0  0  1  0  0  0  0  0999 V2000
  190.2230  176.8890  145.3710 C   0  0  0  0  0  0  0  0  0  0  0  0
  194.4820  176.2910  143.7490 O   0  0  0  0  0  0  0  0  0  0  0  0
  187.5800  172.8110  141.8630 O   0  0  0  0  0  0  0  0  0  0  0  0
  191.2770  175.6380  147.6470 C   0  0  0  0  0  3  0  0  0  0  0  0
  189.9560  172.8090  141.4920 C   0  0  1  0  0  3  0  0  0  0  0  0
  189.4970  177.5090  144.2320 C   0  0  0  0  0  2  0  0  0  0  0  0
  194.1090  174.7380  145.6250 O   0  0  0  0  0  0  0  0  0  0  0  0
  194.0270  174.9120  144.1360 S   0  0  0  0  0  0  0  0  0  0  0  0
  194.6810  173.4570  141.9050 C   0  0  1  0  0  3  0  0  0  0  0  0
  192.4170  174.6040  143.5010 C   0  0  0  0  0  0  0  0  0  0  0  0
  186.2090  176.0750  143.2020 O   0  0  0  0  0  1  0  0  0  0  0  0
  190.3150  174.5320  143.0900 C   0  0  0  0  0  0  0  0  0  0  0  0
  193.2860  173.0330  141.7720 N   0  0  0  0  0  2  0  0  0  0  0  0
  195.0730  173.6790  143.3700 C   0  0  0  0  0  2  0  0  0  0  0  0
  187.4560  176.6660  143.0040 C   0  0  2  0  0  3  0  0  0  0  0  0
  190.9540  175.6870  145.2310 C   0  0  0  0  0  0  0  0  0  0  0  0
  188.6680  173.3070  142.1120 C   0  0  0  0  0  0  0  0  0  0  0  0
  195.5880  172.4150  141.2880 C   0  0  0  0  0  1  0  0  0  0  0  0
  188.3660  175.7170  142.2310 C   0  0  0  0  0  2  0  0  0  0  0  0
  191.4520  175.0660  146.3860 C   0  0  0  0  0  3  0  0  0  0  0  0
  190.0570  177.4600  146.6410 C   0  0  0  0  0  3  0  0  0  0  0  0
  190.5900  176.8430  147.7730 C   0  0  0  0  0  3  0  0  0  0  0  0
  188.0360  177.0950  144.3410 C   0  0  0  0  0  2  0  0  0  0  0  0
  190.8990  173.6990  142.2030 C   0  0  0  0  0  0  0  0  0  0  0  0
  188.8300  174.4990  143.0320 C   0  0  2  0  0  3  0  0  0  0  0  0
  192.2450  173.7560  142.4290 C   0  0  0  0  0  0  0  0  0  0  0  0
  190.1990  171.3640  141.8970 C   0  0  0  0  0  1  0  0  0  0  0  0
  191.2170  175.0840  143.9450 N   0  0  0  0  0  0  0  0  0  0  0  0
  1 21  1  0  0  0  0
  2  8  2  0  0  0  0
  3 17  2  0  0  0  0
  4 22  1  0  0  0  0
  5 27  1  1  0  0  0
  5 17  1  0  0  0  0
  5 24  1  0  0  0  0
  6 23  1  0  0  0  0
  6  1  1  0  0  0  0
  8  7  2  0  0  0  0
  9 18  1  1  0  0  0
  9 14  1  0  0  0  0
 10 28  1  0  0  0  0
 10  8  1  0  0  0  0
 12 28  1  0  0  0  0
 13  9  1  0  0  0  0
 13 26  1  0  0  0  0
 14  8  1  0  0  0  0
 15 11  1  1  0  0  0
 15 23  1  0  0  0  0
 16  1  2  0  0  0  0
 16 20  1  0  0  0  0
 17 25  1  0  0  0  0
 19 15  1  0  0  0  0
 20  4  2  0  0  0  0
 21 22  2  0  0  0  0
 24 26  1  0  0  0  0
 24 12  2  0  0  0  0
 25 19  1  6  0  0  0
 25 12  1  0  0  0  0
 26 10  2  0  0  0  0
 28 16  1  0  0  0  0
M  END
>  <MODEL>
9

>  <REMARK>
 VINA RESULT:      -7.4      2.748      5.472
  Name = 
  0 active torsions:
  status: ('A' for Active; 'I' for Inactive)
                            x       y       z     vdW  Elec       q    Type
                         _______ _______ _______ _____ _____    ______ ____

>  <TORSDO>
F 0

$$$$
