=
 OpenBabel11112416293D

 32 37  0  0  1  0  0  0  0  0999 V2000
  185.0540  177.6570  146.2020 C   0  0  0  0  0  2  0  0  0  0  0  0
  190.4110  176.5250  144.8430 C   0  0  1  0  0  3  0  0  0  0  0  0
  187.9880  173.4430  142.0130 C   0  0  0  0  0  2  0  0  0  0  0  0
  189.2000  172.4970  141.9480 C   0  0  0  0  0  2  0  0  0  0  0  0
  192.6180  175.7970  145.8230 C   0  0  0  0  0  0  0  0  0  0  0  0
  193.8490  175.1230  145.5700 N   0  0  0  0  0  0  0  0  0  0  0  0
  188.3300  177.5500  145.8090 C   0  0  1  0  0  3  0  0  0  0  0  0
  188.6820  177.4640  143.3630 C   0  0  0  0  0  2  0  0  0  0  0  0
  195.2400  173.6540  144.6840 C   0  0  0  0  0  0  0  0  0  0  0  0
  186.5010  178.3000  144.2330 C   0  0  0  0  0  2  0  0  0  0  0  0
  188.4180  174.9140  142.0420 C   0  0  0  0  0  2  0  0  0  0  0  0
  189.7760  176.4840  143.5000 N   0  0  2  0  0  0  0  0  0  0  0  0
  189.3600  175.1050  143.2290 C   0  0  2  0  0  3  0  0  0  0  0  0
  191.7770  174.7040  143.7720 N   0  0  2  0  0  0  0  0  0  0  0  0
  195.9610  174.4060  145.5990 C   0  0  0  0  0  3  0  0  0  0  0  0
  186.1130  176.7890  146.8710 C   0  0  0  0  0  2  0  0  0  0  0  0
  187.6410  177.3230  144.4650 C   0  0  2  0  0  3  0  0  0  0  0  0
  195.0550  175.3190  146.1380 C   0  0  0  0  0  3  0  0  0  0  0  0
  187.4030  177.5860  147.0310 C   0  0  0  0  0  2  0  0  0  0  0  0
  185.1910  177.6630  144.6800 C   0  0  2  0  0  3  0  0  0  0  0  0
  190.2110  172.7910  143.0630 C   0  0  0  0  0  2  0  0  0  0  0  0
  190.6070  174.2660  142.9700 C   0  0  1  0  0  3  0  0  0  0  0  0
  192.7630  173.6190  143.9400 C   0  0  0  0  0  2  0  0  0  0  0  0
  189.3880  176.4800  145.9880 C   0  0  0  0  0  2  0  0  0  0  0  0
  192.5450  176.6890  146.7110 O   0  0  0  0  0  0  0  0  0  0  0  0
  195.7720  172.5300  143.8650 C   0  0  0  0  0  1  0  0  0  0  0  0
  191.3930  175.3450  145.0580 C   0  0  2  0  0  3  0  0  0  0  0  0
  193.9530  174.1310  144.6850 C   0  0  0  0  0  0  0  0  0  0  0  0
  184.0800  178.3960  144.0910 N   0  0  0  0  0  2  0  0  0  0  0  0
  183.7240  178.2800  142.7120 C   0  0  0  0  0  0  0  0  0  0  0  0
  184.3880  177.5410  141.9370 O   0  0  0  0  0  0  0  0  0  0  0  0
  182.5610  179.0410  142.1880 C   0  0  0  0  0  1  0  0  0  0  0  0
  1 16  1  0  0  0  0
  2 27  1  0  0  0  0
  2 24  1  1  0  0  0
  3 11  1  0  0  0  0
  4  3  1  0  0  0  0
  4 21  1  0  0  0  0
  5 25  2  0  0  0  0
  6  5  1  0  0  0  0
  6 18  1  0  0  0  0
  7 24  1  1  0  0  0
  7 19  1  0  0  0  0
  9 28  2  0  0  0  0
  9 15  1  0  0  0  0
 10 17  1  0  0  0  0
 10 20  1  0  0  0  0
 12  8  1  1  0  0  0
 12  2  1  0  0  0  0
 13 11  1  6  0  0  0
 13 12  1  0  0  0  0
 14 23  1  1  0  0  0
 14 27  1  0  0  0  0
 15 18  2  0  0  0  0
 16 19  1  0  0  0  0
 17  8  1  6  0  0  0
 17  7  1  0  0  0  0
 20 29  1  6  0  0  0
 20  1  1  0  0  0  0
 22 21  1  1  0  0  0
 22 13  1  0  0  0  0
 22 14  1  0  0  0  0
 23 28  1  0  0  0  0
 26  9  1  0  0  0  0
 27  5  1  6  0  0  0
 28  6  1  0  0  0  0
 30 29  1  0  0  0  0
 31 30  2  0  0  0  0
 32 30  1  0  0  0  0
M  END
>  <MODEL>
1

>  <REMARK>
 VINA RESULT:      -8.9      0.000      0.000
  Name = 
  1 active torsions:
  status: ('A' for Active; 'I' for Inactive)
    1  A    between atoms: C_20  and  N_29
                            x       y       z     vdW  Elec       q    Type
                         _______ _______ _______ _____ _____    ______ ____

>  <TORSDO>
F 1

$$$$
=
 OpenBabel11112416293D

 32 37  0  0  1  0  0  0  0  0999 V2000
  186.2550  177.2950  146.3450 C   0  0  0  0  0  2  0  0  0  0  0  0
  191.2920  176.5960  143.9020 C   0  0  1  0  0  3  0  0  0  0  0  0
  188.5540  173.4380  141.4710 C   0  0  0  0  0  2  0  0  0  0  0  0
  189.7870  172.5850  141.1250 C   0  0  0  0  0  2  0  0  0  0  0  0
  193.6930  175.9990  144.3910 C   0  0  0  0  0  0  0  0  0  0  0  0
  194.8890  175.4240  143.8690 N   0  0  0  0  0  0  0  0  0  0  0  0
  189.3860  177.4380  145.3070 C   0  0  1  0  0  3  0  0  0  0  0  0
  189.2450  177.4540  142.8380 C   0  0  0  0  0  2  0  0  0  0  0  0
  196.1660  174.0890  142.6600 C   0  0  0  0  0  0  0  0  0  0  0  0
  187.2330  178.1020  144.1600 C   0  0  0  0  0  2  0  0  0  0  0  0
  188.8860  174.9350  141.4810 C   0  0  0  0  0  2  0  0  0  0  0  0
  190.4050  176.5520  142.7110 N   0  0  2  0  0  0  0  0  0  0  0  0
  190.0330  175.1560  142.4660 C   0  0  2  0  0  3  0  0  0  0  0  0
  192.5300  174.9140  142.5000 N   0  0  2  0  0  0  0  0  0  0  0  0
  197.0060  174.8620  143.4480 C   0  0  0  0  0  3  0  0  0  0  0  0
  187.4800  176.4850  146.7510 C   0  0  0  0  0  2  0  0  0  0  0  0
  188.4570  177.2040  144.1170 C   0  0  2  0  0  3  0  0  0  0  0  0
  196.1700  175.6890  144.1950 C   0  0  0  0  0  3  0  0  0  0  0  0
  188.7220  177.3680  146.6890 C   0  0  0  0  0  2  0  0  0  0  0  0
  186.0840  177.3590  144.8280 C   0  0  2  0  0  3  0  0  0  0  0  0
  190.9810  172.9160  142.0300 C   0  0  0  0  0  2  0  0  0  0  0  0
  191.2540  174.4180  141.9270 C   0  0  1  0  0  3  0  0  0  0  0  0
  193.5970  173.8980  142.4210 C   0  0  0  0  0  2  0  0  0  0  0  0
  190.5250  176.4410  145.2240 C   0  0  0  0  0  2  0  0  0  0  0  0
  193.7430  176.8550  145.3160 O   0  0  0  0  0  0  0  0  0  0  0  0
  196.5950  173.0330  141.7020 C   0  0  0  0  0  1  0  0  0  0  0  0
  192.3710  175.4840  143.8650 C   0  0  2  0  0  3  0  0  0  0  0  0
  194.8770  174.4710  142.9380 C   0  0  0  0  0  0  0  0  0  0  0  0
  184.8320  178.0280  144.5040 N   0  0  0  0  0  2  0  0  0  0  0  0
  184.3080  178.0830  143.1760 C   0  0  0  0  0  0  0  0  0  0  0  0
  184.9360  177.5640  142.2150 O   0  0  0  0  0  0  0  0  0  0  0  0
  183.0110  178.7630  142.9270 C   0  0  0  0  0  1  0  0  0  0  0  0
  1 16  1  0  0  0  0
  2 24  1  1  0  0  0
  3 11  1  0  0  0  0
  4  3  1  0  0  0  0
  4 21  1  0  0  0  0
  5 25  2  0  0  0  0
  6 18  1  0  0  0  0
  6  5  1  0  0  0  0
  7 24  1  1  0  0  0
  7 19  1  0  0  0  0
  9 28  2  0  0  0  0
  9 15  1  0  0  0  0
 10 20  1  0  0  0  0
 12  8  1  1  0  0  0
 12  2  1  0  0  0  0
 13 11  1  6  0  0  0
 13 12  1  0  0  0  0
 14 23  1  1  0  0  0
 14 27  1  0  0  0  0
 15 18  2  0  0  0  0
 17  8  1  6  0  0  0
 17 10  1  0  0  0  0
 17  7  1  0  0  0  0
 19 16  1  0  0  0  0
 20 29  1  1  0  0  0
 20  1  1  0  0  0  0
 22 21  1  1  0  0  0
 22 13  1  0  0  0  0
 22 14  1  0  0  0  0
 23 28  1  0  0  0  0
 26  9  1  0  0  0  0
 27  2  1  0  0  0  0
 27  5  1  6  0  0  0
 28  6  1  0  0  0  0
 30 29  1  0  0  0  0
 31 30  2  0  0  0  0
 32 30  1  0  0  0  0
M  END
>  <MODEL>
2

>  <REMARK>
 VINA RESULT:      -8.7      1.374      1.454
  Name = 
  1 active torsions:
  status: ('A' for Active; 'I' for Inactive)
    1  A    between atoms: C_20  and  N_29
                            x       y       z     vdW  Elec       q    Type
                         _______ _______ _______ _____ _____    ______ ____

>  <TORSDO>
F 1

$$$$
=
 OpenBabel11112416293D

 32 37  0  0  1  0  0  0  0  0999 V2000
  186.6370  177.3810  146.1720 C   0  0  0  0  0  2  0  0  0  0  0  0
  191.7980  175.5710  144.7880 C   0  0  1  0  0  3  0  0  0  0  0  0
  188.9730  172.3270  142.5790 C   0  0  0  0  0  2  0  0  0  0  0  0
  190.0960  171.2760  142.6140 C   0  0  0  0  0  2  0  0  0  0  0  0
  193.9860  174.8030  145.7780 C   0  0  0  0  0  0  0  0  0  0  0  0
  195.1410  173.9890  145.5840 N   0  0  0  0  0  0  0  0  0  0  0  0
  189.8660  176.9180  145.6660 C   0  0  1  0  0  3  0  0  0  0  0  0
  190.0750  176.4270  143.2520 C   0  0  0  0  0  2  0  0  0  0  0  0
  196.3540  172.2810  144.8830 C   0  0  0  0  0  0  0  0  0  0  0  0
  188.0220  177.5810  144.0690 C   0  0  0  0  0  2  0  0  0  0  0  0
  189.5260  173.7400  142.3590 C   0  0  0  0  0  2  0  0  0  0  0  0
  191.0890  175.3840  143.4950 N   0  0  2  0  0  0  0  0  0  0  0  0
  190.5440  174.0230  143.4620 C   0  0  2  0  0  3  0  0  0  0  0  0
  192.9450  173.4910  143.9600 N   0  0  2  0  0  0  0  0  0  0  0  0
  197.1840  173.0960  145.6380 C   0  0  0  0  0  3  0  0  0  0  0  0
  187.6540  176.5330  146.9250 C   0  0  0  0  0  2  0  0  0  0  0  0
  189.0880  176.5520  144.4040 C   0  0  2  0  0  3  0  0  0  0  0  0
  196.3890  174.1590  146.0630 C   0  0  0  0  0  3  0  0  0  0  0  0
  189.0130  177.2240  146.9050 C   0  0  0  0  0  2  0  0  0  0  0  0
  186.6900  177.1420  144.6630 C   0  0  2  0  0  3  0  0  0  0  0  0
  191.1880  171.6430  143.6260 C   0  0  0  0  0  2  0  0  0  0  0  0
  191.7010  173.0440  143.2870 C   0  0  1  0  0  3  0  0  0  0  0  0
  193.8450  172.3590  144.2560 C   0  0  0  0  0  2  0  0  0  0  0  0
  190.8380  175.7950  145.9680 C   0  0  0  0  0  2  0  0  0  0  0  0
  194.0370  175.8230  146.5170 O   0  0  0  0  0  0  0  0  0  0  0  0
  196.7440  171.0020  144.2290 C   0  0  0  0  0  1  0  0  0  0  0  0
  192.6870  174.3530  145.1450 C   0  0  2  0  0  3  0  0  0  0  0  0
  195.1130  172.8680  144.8620 C   0  0  0  0  0  0  0  0  0  0  0  0
  185.6140  177.8750  144.0130 N   0  0  0  0  0  2  0  0  0  0  0  0
  185.2340  177.6430  142.6560 C   0  0  0  0  0  0  0  0  0  0  0  0
  185.8450  176.7950  141.9530 O   0  0  0  0  0  0  0  0  0  0  0  0
  184.1080  178.4130  142.0670 C   0  0  0  0  0  1  0  0  0  0  0  0
  1 16  1  0  0  0  0
  2 27  1  0  0  0  0
  2 24  1  1  0  0  0
  3  4  1  0  0  0  0
  4 21  1  0  0  0  0
  5 25  2  0  0  0  0
  6  5  1  0  0  0  0
  6 18  1  0  0  0  0
  7 24  1  1  0  0  0
  7 19  1  0  0  0  0
  9 15  1  0  0  0  0
 10 17  1  0  0  0  0
 10 20  1  0  0  0  0
 11  3  1  0  0  0  0
 12  8  1  1  0  0  0
 12  2  1  0  0  0  0
 13 11  1  6  0  0  0
 13 12  1  0  0  0  0
 14 23  1  1  0  0  0
 14 27  1  0  0  0  0
 15 18  2  0  0  0  0
 17  8  1  6  0  0  0
 17  7  1  0  0  0  0
 19 16  1  0  0  0  0
 20 29  1  6  0  0  0
 20  1  1  0  0  0  0
 22 13  1  0  0  0  0
 22 21  1  1  0  0  0
 22 14  1  0  0  0  0
 23 28  1  0  0  0  0
 26  9  1  0  0  0  0
 27  5  1  6  0  0  0
 28  9  2  0  0  0  0
 28  6  1  0  0  0  0
 30 29  1  0  0  0  0
 31 30  2  0  0  0  0
 32 30  1  0  0  0  0
M  END
>  <MODEL>
3

>  <REMARK>
 VINA RESULT:      -8.6      1.311      1.676
  Name = 
  1 active torsions:
  status: ('A' for Active; 'I' for Inactive)
    1  A    between atoms: C_20  and  N_29
                            x       y       z     vdW  Elec       q    Type
                         _______ _______ _______ _____ _____    ______ ____

>  <TORSDO>
F 1

$$$$
=
 OpenBabel11112416293D

 32 37  0  0  1  0  0  0  0  0999 V2000
  193.2740  172.4320  141.0480 C   0  0  0  0  0  2  0  0  0  0  0  0
  189.6630  176.2440  143.1130 C   0  0  1  0  0  3  0  0  0  0  0  0
  192.3010  175.1470  147.0140 C   0  0  0  0  0  2  0  0  0  0  0  0
  191.1500  175.5580  147.9490 C   0  0  0  0  0  2  0  0  0  0  0  0
  187.2050  176.7260  143.4040 C   0  0  0  0  0  0  0  0  0  0  0  0
  186.2250  177.3860  144.2030 N   0  0  0  0  0  0  0  0  0  0  0  0
  190.9740  174.7390  141.5850 C   0  0  1  0  0  3  0  0  0  0  0  0
  192.1070  176.4760  142.9310 C   0  0  0  0  0  2  0  0  0  0  0  0
  185.2700  178.2050  146.0180 C   0  0  0  0  0  0  0  0  0  0  0  0
  193.4980  174.8850  141.6080 C   0  0  0  0  0  2  0  0  0  0  0  0
  192.3660  176.0410  145.7700 C   0  0  0  0  0  2  0  0  0  0  0  0
  190.9190  176.6690  143.7840 N   0  0  2  0  0  0  0  0  0  0  0  0
  191.0090  175.9770  145.0730 C   0  0  2  0  0  3  0  0  0  0  0  0
  188.7370  177.0120  145.3210 N   0  0  2  0  0  0  0  0  0  0  0  0
  184.3970  178.4130  144.9610 C   0  0  0  0  0  3  0  0  0  0  0  0
  191.8340  172.3130  141.5310 C   0  0  0  0  0  2  0  0  0  0  0  0
  192.2190  175.0490  142.4120 C   0  0  2  0  0  3  0  0  0  0  0  0
  185.0280  177.8850  143.8360 C   0  0  0  0  0  3  0  0  0  0  0  0
  190.9790  173.3850  140.8630 C   0  0  0  0  0  2  0  0  0  0  0  0
  194.0580  173.4870  141.8280 C   0  0  2  0  0  3  0  0  0  0  0  0
  189.8100  175.6290  147.2050 C   0  0  0  0  0  2  0  0  0  0  0  0
  189.9740  176.5790  146.0180 C   0  0  1  0  0  3  0  0  0  0  0  0
  187.5840  177.0700  146.2400 C   0  0  0  0  0  2  0  0  0  0  0  0
  189.7630  174.8420  142.4910 C   0  0  0  0  0  2  0  0  0  0  0  0
  186.9920  176.5030  142.1810 O   0  0  0  0  0  0  0  0  0  0  0  0
  185.0270  178.5800  147.4380 C   0  0  0  0  0  1  0  0  0  0  0  0
  188.4590  176.2280  144.0890 C   0  0  2  0  0  3  0  0  0  0  0  0
  186.3840  177.5830  145.5120 C   0  0  0  0  0  0  0  0  0  0  0  0
  195.4540  173.4630  141.4160 N   0  0  0  0  0  2  0  0  0  0  0  0
  196.5290  173.7230  142.3190 C   0  0  0  0  0  0  0  0  0  0  0  0
  196.3010  174.0120  143.5240 O   0  0  0  0  0  0  0  0  0  0  0  0
  197.9310  173.6560  141.8310 C   0  0  0  0  0  1  0  0  0  0  0  0
  1 16  1  0  0  0  0
  1 20  1  0  0  0  0
  2 24  1  1  0  0  0
  2 12  1  0  0  0  0
  2 27  1  0  0  0  0
  3  4  1  0  0  0  0
  5  6  1  0  0  0  0
  6 28  1  0  0  0  0
  7 19  1  1  0  0  0
  7 17  1  0  0  0  0
  7 24  1  0  0  0  0
  9 26  1  0  0  0  0
 10 20  1  0  0  0  0
 11  3  1  0  0  0  0
 12  8  1  6  0  0  0
 12 13  1  0  0  0  0
 13 11  1  1  0  0  0
 13 22  1  0  0  0  0
 14 22  1  0  0  0  0
 14 23  1  1  0  0  0
 15  9  1  0  0  0  0
 17 10  1  6  0  0  0
 17  8  1  0  0  0  0
 18  6  1  0  0  0  0
 18 15  2  0  0  0  0
 19 16  1  0  0  0  0
 20 29  1  6  0  0  0
 21  4  1  0  0  0  0
 22 21  1  1  0  0  0
 25  5  2  0  0  0  0
 27  5  1  6  0  0  0
 27 14  1  0  0  0  0
 28  9  2  0  0  0  0
 28 23  1  0  0  0  0
 29 30  1  0  0  0  0
 30 31  2  0  0  0  0
 32 30  1  0  0  0  0
M  END
>  <MODEL>
4

>  <REMARK>
 VINA RESULT:      -8.5      2.223      8.522
  Name = 
  1 active torsions:
  status: ('A' for Active; 'I' for Inactive)
    1  A    between atoms: C_20  and  N_29
                            x       y       z     vdW  Elec       q    Type
                         _______ _______ _______ _____ _____    ______ ____

>  <TORSDO>
F 1

$$$$
=
 OpenBabel11112416293D

 32 37  0  0  1  0  0  0  0  0999 V2000
  191.7930  171.0820  141.2280 C   0  0  0  0  0  2  0  0  0  0  0  0
  189.1240  175.6770  143.1220 C   0  0  1  0  0  3  0  0  0  0  0  0
  192.3750  174.8960  146.6150 C   0  0  0  0  0  2  0  0  0  0  0  0
  191.4930  175.6250  147.6440 C   0  0  0  0  0  2  0  0  0  0  0  0
  186.8470  176.5550  143.7550 C   0  0  0  0  0  0  0  0  0  0  0  0
  186.1300  177.4780  144.5730 N   0  0  0  0  0  0  0  0  0  0  0  0
  189.9190  173.7570  141.7090 C   0  0  1  0  0  3  0  0  0  0  0  0
  191.4880  175.5160  142.4550 C   0  0  0  0  0  2  0  0  0  0  0  0
  185.6660  178.7290  146.3340 C   0  0  0  0  0  0  0  0  0  0  0  0
  192.3940  173.5360  141.2410 C   0  0  0  0  0  2  0  0  0  0  0  0
  192.2790  175.5430  145.2280 C   0  0  0  0  0  2  0  0  0  0  0  0
  190.5300  176.0240  143.4550 N   0  0  2  0  0  0  0  0  0  0  0  0
  190.8080  175.5580  144.8170 C   0  0  2  0  0  3  0  0  0  0  0  0
  188.7630  176.9410  145.2660 N   0  0  2  0  0  0  0  0  0  0  0  0
  184.6210  178.8770  145.4340 C   0  0  0  0  0  3  0  0  0  0  0  0
  190.4790  171.2590  141.9790 C   0  0  0  0  0  2  0  0  0  0  0  0
  191.3350  174.0200  142.2170 C   0  0  2  0  0  3  0  0  0  0  0  0
  184.9450  178.0770  144.3400 C   0  0  0  0  0  3  0  0  0  0  0  0
  189.6270  172.3130  141.2800 C   0  0  0  0  0  2  0  0  0  0  0  0
  192.8320  172.1290  141.6270 C   0  0  2  0  0  3  0  0  0  0  0  0
  190.0450  175.7610  147.1580 C   0  0  0  0  0  2  0  0  0  0  0  0
  190.0630  176.4590  145.7970 C   0  0  1  0  0  3  0  0  0  0  0  0
  187.8380  177.3240  146.3500 C   0  0  0  0  0  2  0  0  0  0  0  0
  188.9400  174.1900  142.7820 C   0  0  0  0  0  2  0  0  0  0  0  0
  186.3620  176.1580  142.6610 O   0  0  0  0  0  0  0  0  0  0  0  0
  185.7640  179.3730  147.6720 C   0  0  0  0  0  1  0  0  0  0  0  0
  188.1530  176.0050  144.2850 C   0  0  2  0  0  3  0  0  0  0  0  0
  186.5770  177.8730  145.7660 C   0  0  0  0  0  0  0  0  0  0  0  0
  194.1010  171.8320  140.9800 N   0  0  0  0  0  2  0  0  0  0  0  0
  195.3600  172.0350  141.6230 C   0  0  0  0  0  0  0  0  0  0  0  0
  195.4180  172.5110  142.7880 O   0  0  0  0  0  0  0  0  0  0  0  0
  196.6150  171.6840  140.9090 C   0  0  0  0  0  1  0  0  0  0  0  0
  1 20  1  0  0  0  0
  1 16  1  0  0  0  0
  2 24  1  1  0  0  0
  2 12  1  0  0  0  0
  2 27  1  0  0  0  0
  3  4  1  0  0  0  0
  5  6  1  0  0  0  0
  6 28  1  0  0  0  0
  7 19  1  1  0  0  0
  7 17  1  0  0  0  0
  7 24  1  0  0  0  0
  9 26  1  0  0  0  0
 10 20  1  0  0  0  0
 11  3  1  0  0  0  0
 12  8  1  6  0  0  0
 12 13  1  0  0  0  0
 13 11  1  1  0  0  0
 13 22  1  0  0  0  0
 14 22  1  0  0  0  0
 14 23  1  1  0  0  0
 15  9  1  0  0  0  0
 17 10  1  6  0  0  0
 17  8  1  0  0  0  0
 18  6  1  0  0  0  0
 18 15  2  0  0  0  0
 19 16  1  0  0  0  0
 20 29  1  6  0  0  0
 21  4  1  0  0  0  0
 22 21  1  1  0  0  0
 25  5  2  0  0  0  0
 27  5  1  6  0  0  0
 27 14  1  0  0  0  0
 28  9  2  0  0  0  0
 28 23  1  0  0  0  0
 29 30  1  0  0  0  0
 30 31  2  0  0  0  0
 32 30  1  0  0  0  0
M  END
>  <MODEL>
5

>  <REMARK>
 VINA RESULT:      -8.5      2.252      8.381
  Name = 
  1 active torsions:
  status: ('A' for Active; 'I' for Inactive)
    1  A    between atoms: C_20  and  N_29
                            x       y       z     vdW  Elec       q    Type
                         _______ _______ _______ _____ _____    ______ ____

>  <TORSDO>
F 1

$$$$
=
 OpenBabel11112416293D

 32 37  0  0  1  0  0  0  0  0999 V2000
  194.8300  174.9650  145.7090 C   0  0  0  0  0  2  0  0  0  0  0  0
  189.2640  175.8500  145.4510 C   0  0  1  0  0  3  0  0  0  0  0  0
  190.1820  173.9700  141.0910 C   0  0  0  0  0  2  0  0  0  0  0  0
  188.9460  174.6640  140.4950 C   0  0  0  0  0  2  0  0  0  0  0  0
  187.5080  177.6480  145.6530 C   0  0  0  0  0  0  0  0  0  0  0  0
  186.2100  178.0740  145.2400 N   0  0  0  0  0  0  0  0  0  0  0  0
  191.6420  175.6410  146.2370 C   0  0  1  0  0  3  0  0  0  0  0  0
  190.4160  173.6750  145.3730 C   0  0  0  0  0  2  0  0  0  0  0  0
  184.4580  178.3300  143.9200 C   0  0  0  0  0  0  0  0  0  0  0  0
  192.8330  173.4330  145.9300 C   0  0  0  0  0  2  0  0  0  0  0  0
  189.9350  173.5140  142.5350 C   0  0  0  0  0  2  0  0  0  0  0  0
  189.3580  174.5220  144.7900 N   0  0  2  0  0  0  0  0  0  0  0  0
  189.5130  174.7360  143.3480 C   0  0  2  0  0  3  0  0  0  0  0  0
  187.4340  176.0850  143.7410 N   0  0  2  0  0  0  0  0  0  0  0  0
  184.1970  179.0210  145.0940 C   0  0  0  0  0  3  0  0  0  0  0  0
  194.0100  176.2130  145.4070 C   0  0  0  0  0  2  0  0  0  0  0  0
  191.7680  174.3740  145.3940 C   0  0  2  0  0  3  0  0  0  0  0  0
  185.3190  178.8390  145.9000 C   0  0  0  0  0  3  0  0  0  0  0  0
  192.9500  176.4040  146.4860 C   0  0  0  0  0  2  0  0  0  0  0  0
  194.1480  173.6930  145.2070 C   0  0  2  0  0  3  0  0  0  0  0  0
  188.4430  175.8020  141.3920 C   0  0  0  0  0  2  0  0  0  0  0  0
  188.1830  175.2300  142.7870 C   0  0  1  0  0  3  0  0  0  0  0  0
  186.4790  176.9700  143.0480 C   0  0  0  0  0  2  0  0  0  0  0  0
  190.6250  176.5520  145.5780 C   0  0  0  0  0  2  0  0  0  0  0  0
  187.9840  178.0220  146.7590 O   0  0  0  0  0  0  0  0  0  0  0  0
  183.5600  178.2480  142.7360 C   0  0  0  0  0  1  0  0  0  0  0  0
  188.3200  176.8140  144.6870 C   0  0  2  0  0  3  0  0  0  0  0  0
  185.6970  177.7530  144.0520 C   0  0  0  0  0  0  0  0  0  0  0  0
  195.0330  172.5530  145.4030 N   0  0  0  0  0  2  0  0  0  0  0  0
  195.9780  172.1330  144.4180 C   0  0  0  0  0  0  0  0  0  0  0  0
  196.0650  172.7320  143.3130 O   0  0  0  0  0  0  0  0  0  0  0  0
  196.8660  170.9760  144.6990 C   0  0  0  0  0  1  0  0  0  0  0  0
  2 24  1  6  0  0  0
  3 11  1  0  0  0  0
  4  3  1  0  0  0  0
  4 21  1  0  0  0  0
  5 25  2  0  0  0  0
  6  5  1  0  0  0  0
  6 18  1  0  0  0  0
  7 24  1  6  0  0  0
  7 19  1  0  0  0  0
  9 28  2  0  0  0  0
  9 15  1  0  0  0  0
 12  8  1  1  0  0  0
 12  2  1  0  0  0  0
 13 11  1  6  0  0  0
 13 12  1  0  0  0  0
 14 23  1  6  0  0  0
 14 27  1  0  0  0  0
 15 18  2  0  0  0  0
 16  1  1  0  0  0  0
 16 19  1  0  0  0  0
 17  8  1  1  0  0  0
 17 10  1  0  0  0  0
 17  7  1  0  0  0  0
 20 29  1  1  0  0  0
 20  1  1  0  0  0  0
 20 10  1  0  0  0  0
 22 21  1  6  0  0  0
 22 13  1  0  0  0  0
 22 14  1  0  0  0  0
 23 28  1  0  0  0  0
 26  9  1  0  0  0  0
 27  2  1  0  0  0  0
 27  5  1  1  0  0  0
 28  6  1  0  0  0  0
 30 32  1  0  0  0  0
 30 29  1  0  0  0  0
 31 30  2  0  0  0  0
M  END
>  <MODEL>
6

>  <REMARK>
 VINA RESULT:      -8.4      2.001      8.164
  Name = 
  1 active torsions:
  status: ('A' for Active; 'I' for Inactive)
    1  A    between atoms: C_20  and  N_29
                            x       y       z     vdW  Elec       q    Type
                         _______ _______ _______ _____ _____    ______ ____

>  <TORSDO>
F 1

$$$$
=
 OpenBabel11112416293D

 32 37  0  0  1  0  0  0  0  0999 V2000
  196.0170  174.9210  144.7600 C   0  0  0  0  0  2  0  0  0  0  0  0
  190.5810  175.7170  146.0450 C   0  0  1  0  0  3  0  0  0  0  0  0
  190.3180  174.2520  141.4440 C   0  0  0  0  0  2  0  0  0  0  0  0
  188.9720  174.9730  141.2580 C   0  0  0  0  0  2  0  0  0  0  0  0
  188.9470  177.4550  146.8620 C   0  0  0  0  0  0  0  0  0  0  0  0
  187.5890  177.8910  146.8430 N   0  0  0  0  0  0  0  0  0  0  0  0
  193.0810  175.4850  146.1610 C   0  0  1  0  0  3  0  0  0  0  0  0
  191.6630  173.5810  145.4720 C   0  0  0  0  0  2  0  0  0  0  0  0
  185.5540  178.2300  146.0550 C   0  0  0  0  0  0  0  0  0  0  0  0
  194.1410  173.3370  145.3540 C   0  0  0  0  0  2  0  0  0  0  0  0
  190.4550  173.6650  142.8540 C   0  0  0  0  0  2  0  0  0  0  0  0
  190.4930  174.4560  145.2640 N   0  0  2  0  0  0  0  0  0  0  0  0
  190.2670  174.8010  143.8580 C   0  0  2  0  0  3  0  0  0  0  0  0
  188.3690  176.0680  144.9010 N   0  0  2  0  0  0  0  0  0  0  0  0
  185.6120  178.8080  147.3140 C   0  0  0  0  0  3  0  0  0  0  0  0
  195.1520  176.1750  144.7980 C   0  0  0  0  0  2  0  0  0  0  0  0
  192.9760  174.3010  145.2020 C   0  0  2  0  0  3  0  0  0  0  0  0
  186.9050  178.5760  147.7800 C   0  0  0  0  0  3  0  0  0  0  0  0
  194.4120  176.2480  146.1290 C   0  0  0  0  0  2  0  0  0  0  0  0
  195.2210  173.6860  144.3390 C   0  0  2  0  0  3  0  0  0  0  0  0
  188.7270  176.0160  142.3540 C   0  0  0  0  0  2  0  0  0  0  0  0
  188.8380  175.3160  143.7100 C   0  0  1  0  0  3  0  0  0  0  0  0
  187.2690  176.9930  144.5650 C   0  0  0  0  0  2  0  0  0  0  0  0
  191.9310  176.4310  145.8760 C   0  0  0  0  0  2  0  0  0  0  0  0
  189.6980  177.7380  147.8350 O   0  0  0  0  0  0  0  0  0  0  0  0
  184.3760  178.2360  145.1450 C   0  0  0  0  0  1  0  0  0  0  0  0
  189.4750  176.7270  145.6460 C   0  0  2  0  0  3  0  0  0  0  0  0
  186.7810  177.6680  145.8060 C   0  0  0  0  0  0  0  0  0  0  0  0
  196.1210  172.5510  144.1930 N   0  0  0  0  0  2  0  0  0  0  0  0
  196.6850  172.1720  142.9360 C   0  0  0  0  0  0  0  0  0  0  0  0
  196.3980  172.8050  141.8850 O   0  0  0  0  0  0  0  0  0  0  0  0
  197.6160  171.0160  142.8680 C   0  0  0  0  0  1  0  0  0  0  0  0
  1 16  1  0  0  0  0
  2 24  1  6  0  0  0
  3 11  1  0  0  0  0
  4  3  1  0  0  0  0
  4 21  1  0  0  0  0
  5 25  2  0  0  0  0
  6  5  1  0  0  0  0
  6 18  1  0  0  0  0
  7 24  1  6  0  0  0
  9 15  1  0  0  0  0
 12  8  1  6  0  0  0
 12  2  1  0  0  0  0
 13 11  1  6  0  0  0
 13 12  1  0  0  0  0
 14 23  1  6  0  0  0
 14 27  1  0  0  0  0
 15 18  2  0  0  0  0
 16 19  1  0  0  0  0
 17 10  1  1  0  0  0
 17  8  1  0  0  0  0
 17  7  1  0  0  0  0
 19  7  1  0  0  0  0
 20 29  1  1  0  0  0
 20  1  1  0  0  0  0
 20 10  1  0  0  0  0
 22 21  1  6  0  0  0
 22 13  1  0  0  0  0
 22 14  1  0  0  0  0
 23 28  1  0  0  0  0
 26  9  1  0  0  0  0
 27  2  1  0  0  0  0
 27  5  1  1  0  0  0
 28  9  2  0  0  0  0
 28  6  1  0  0  0  0
 30 29  1  0  0  0  0
 31 30  2  0  0  0  0
 32 30  1  0  0  0  0
M  END
>  <MODEL>
7

>  <REMARK>
 VINA RESULT:      -8.3      2.288      8.204
  Name = 
  1 active torsions:
  status: ('A' for Active; 'I' for Inactive)
    1  A    between atoms: C_20  and  N_29
                            x       y       z     vdW  Elec       q    Type
                         _______ _______ _______ _____ _____    ______ ____

>  <TORSDO>
F 1

$$$$
=
 OpenBabel11112416293D

 32 37  0  0  1  0  0  0  0  0999 V2000
  193.4900  170.7150  143.4480 C   0  0  0  0  0  2  0  0  0  0  0  0
  190.3440  175.3370  142.6980 C   0  0  1  0  0  3  0  0  0  0  0  0
  191.9770  175.9580  147.2070 C   0  0  0  0  0  2  0  0  0  0  0  0
  190.7730  176.8500  147.5560 C   0  0  0  0  0  2  0  0  0  0  0  0
  188.0090  176.1040  142.1360 C   0  0  0  0  0  0  0  0  0  0  0  0
  187.0410  177.1390  142.3010 N   0  0  0  0  0  0  0  0  0  0  0  0
  191.6040  173.1920  142.3480 C   0  0  1  0  0  3  0  0  0  0  0  0
  192.7800  175.2530  143.0440 C   0  0  0  0  0  2  0  0  0  0  0  0
  185.9430  178.7840  143.2850 C   0  0  0  0  0  0  0  0  0  0  0  0
  194.0640  173.1190  142.9270 C   0  0  0  0  0  2  0  0  0  0  0  0
  192.4330  176.1640  145.7580 C   0  0  0  0  0  2  0  0  0  0  0  0
  191.5140  175.9180  143.4070 N   0  0  2  0  0  0  0  0  0  0  0  0
  191.2380  175.8980  144.8460 C   0  0  2  0  0  3  0  0  0  0  0  0
  189.1930  177.1170  144.0530 N   0  0  2  0  0  0  0  0  0  0  0  0
  185.3310  178.5510  142.0630 C   0  0  0  0  0  3  0  0  0  0  0  0
  191.9900  170.9550  143.5620 C   0  0  0  0  0  2  0  0  0  0  0  0
  192.7150  173.7440  143.2390 C   0  0  2  0  0  3  0  0  0  0  0  0
  186.0460  177.5100  141.4720 C   0  0  0  0  0  3  0  0  0  0  0  0
  191.4860  171.6620  142.3080 C   0  0  0  0  0  2  0  0  0  0  0  0
  194.3030  171.9410  143.8610 C   0  0  2  0  0  3  0  0  0  0  0  0
  189.6280  176.6800  146.5500 C   0  0  0  0  0  2  0  0  0  0  0  0
  190.1800  176.9540  145.1490 C   0  0  1  0  0  3  0  0  0  0  0  0
  187.9240  177.6910  144.5400 C   0  0  0  0  0  2  0  0  0  0  0  0
  190.2910  173.8040  142.7910 C   0  0  0  0  0  2  0  0  0  0  0  0
  187.9820  175.3580  141.1190 O   0  0  0  0  0  0  0  0  0  0  0  0
  185.5210  179.7930  144.2950 C   0  0  0  0  0  1  0  0  0  0  0  0
  189.0010  175.8770  143.2550 C   0  0  2  0  0  3  0  0  0  0  0  0
  186.9940  177.9070  143.3900 C   0  0  0  0  0  0  0  0  0  0  0  0
  195.7210  171.6110  143.8590 N   0  0  0  0  0  2  0  0  0  0  0  0
  196.3820  171.0410  144.9890 C   0  0  0  0  0  0  0  0  0  0  0  0
  195.7530  170.8200  146.0580 O   0  0  0  0  0  0  0  0  0  0  0  0
  197.8280  170.7070  144.9040 C   0  0  0  0  0  1  0  0  0  0  0  0
  1 16  1  0  0  0  0
  1 20  1  0  0  0  0
  2 24  1  1  0  0  0
  2 27  1  0  0  0  0
  2 12  1  0  0  0  0
  3  4  1  0  0  0  0
  5  6  1  0  0  0  0
  6 28  1  0  0  0  0
  7 19  1  1  0  0  0
  7 24  1  0  0  0  0
  7 17  1  0  0  0  0
  8 17  1  0  0  0  0
  9 28  2  0  0  0  0
  9 26  1  0  0  0  0
 10 20  1  0  0  0  0
 11  3  1  0  0  0  0
 12  8  1  1  0  0  0
 12 13  1  0  0  0  0
 13 22  1  0  0  0  0
 13 11  1  1  0  0  0
 14 23  1  1  0  0  0
 14 22  1  0  0  0  0
 15  9  1  0  0  0  0
 17 10  1  6  0  0  0
 18 15  2  0  0  0  0
 18  6  1  0  0  0  0
 19 16  1  0  0  0  0
 20 29  1  6  0  0  0
 21  4  1  0  0  0  0
 22 21  1  1  0  0  0
 25  5  2  0  0  0  0
 27  5  1  6  0  0  0
 27 14  1  0  0  0  0
 28 23  1  0  0  0  0
 29 30  1  0  0  0  0
 30 31  2  0  0  0  0
 32 30  1  0  0  0  0
M  END
>  <MODEL>
8

>  <REMARK>
 VINA RESULT:      -8.3      2.371      8.829
  Name = 
  1 active torsions:
  status: ('A' for Active; 'I' for Inactive)
    1  A    between atoms: C_20  and  N_29
                            x       y       z     vdW  Elec       q    Type
                         _______ _______ _______ _____ _____    ______ ____

>  <TORSDO>
F 1

$$$$
=
 OpenBabel11112416293D

 32 37  0  0  1  0  0  0  0  0999 V2000
  194.8840  173.8990  144.6020 C   0  0  0  0  0  2  0  0  0  0  0  0
  189.4310  175.3200  144.8810 C   0  0  1  0  0  3  0  0  0  0  0  0
  189.7460  173.4240  140.4440 C   0  0  0  0  0  2  0  0  0  0  0  0
  188.5320  174.2430  139.9720 C   0  0  0  0  0  2  0  0  0  0  0  0
  187.8860  177.2750  145.2610 C   0  0  0  0  0  0  0  0  0  0  0  0
  186.6030  177.8300  144.9760 N   0  0  0  0  0  0  0  0  0  0  0  0
  191.8410  174.8710  145.4360 C   0  0  1  0  0  3  0  0  0  0  0  0
  190.3530  173.0460  144.6830 C   0  0  0  0  0  2  0  0  0  0  0  0
  184.7670  178.2740  143.8300 C   0  0  0  0  0  0  0  0  0  0  0  0
  192.7780  172.5630  145.0050 C   0  0  0  0  0  2  0  0  0  0  0  0
  189.5930  172.9730  141.9020 C   0  0  0  0  0  2  0  0  0  0  0  0
  189.3330  173.9990  144.2070 N   0  0  2  0  0  0  0  0  0  0  0  0
  189.3710  174.2180  142.7580 C   0  0  2  0  0  3  0  0  0  0  0  0
  187.4800  175.7550  143.3550 N   0  0  2  0  0  0  0  0  0  0  0  0
  184.6860  178.9690  145.0280 C   0  0  0  0  0  3  0  0  0  0  0  0
  194.1650  175.2250  144.3870 C   0  0  0  0  0  2  0  0  0  0  0  0
  191.7630  173.6100  144.5780 C   0  0  2  0  0  3  0  0  0  0  0  0
  185.8560  178.6680  145.7220 C   0  0  0  0  0  3  0  0  0  0  0  0
  193.2350  175.5010  145.5630 C   0  0  0  0  0  2  0  0  0  0  0  0
  194.0370  172.7060  144.1600 C   0  0  2  0  0  3  0  0  0  0  0  0
  188.2300  175.4110  140.9190 C   0  0  0  0  0  2  0  0  0  0  0  0
  188.0490  174.8460  142.3290 C   0  0  1  0  0  3  0  0  0  0  0  0
  186.5540  176.7380  142.7610 C   0  0  0  0  0  2  0  0  0  0  0  0
  190.8600  175.8850  144.8820 C   0  0  0  0  0  2  0  0  0  0  0  0
  188.4980  177.5860  146.3180 O   0  0  0  0  0  0  0  0  0  0  0  0
  183.7570  178.2960  142.7380 C   0  0  0  0  0  1  0  0  0  0  0  0
  188.5180  176.3810  144.2170 C   0  0  2  0  0  3  0  0  0  0  0  0
  185.9510  177.5780  143.8410 C   0  0  0  0  0  0  0  0  0  0  0  0
  194.8220  171.4830  144.2650 N   0  0  0  0  0  2  0  0  0  0  0  0
  195.6760  171.0240  143.2170 C   0  0  0  0  0  0  0  0  0  0  0  0
  195.7650  171.6620  142.1340 O   0  0  0  0  0  0  0  0  0  0  0  0
  196.4660  169.7800  143.4050 C   0  0  0  0  0  1  0  0  0  0  0  0
  2 24  1  6  0  0  0
  3 11  1  0  0  0  0
  4  3  1  0  0  0  0
  4 21  1  0  0  0  0
  5 25  2  0  0  0  0
  6  5  1  0  0  0  0
  6 18  1  0  0  0  0
  7 24  1  6  0  0  0
  7 19  1  0  0  0  0
  9 28  2  0  0  0  0
  9 15  1  0  0  0  0
 12  8  1  1  0  0  0
 12  2  1  0  0  0  0
 13 11  1  6  0  0  0
 13 12  1  0  0  0  0
 14 23  1  6  0  0  0
 14 27  1  0  0  0  0
 15 18  2  0  0  0  0
 16  1  1  0  0  0  0
 16 19  1  0  0  0  0
 17  8  1  1  0  0  0
 17 10  1  0  0  0  0
 17  7  1  0  0  0  0
 20 29  1  1  0  0  0
 20  1  1  0  0  0  0
 20 10  1  0  0  0  0
 22 21  1  6  0  0  0
 22 13  1  0  0  0  0
 22 14  1  0  0  0  0
 23 28  1  0  0  0  0
 26  9  1  0  0  0  0
 27  2  1  0  0  0  0
 27  5  1  1  0  0  0
 28  6  1  0  0  0  0
 30 32  1  0  0  0  0
 30 29  1  0  0  0  0
 31 30  2  0  0  0  0
M  END
>  <MODEL>
9

>  <REMARK>
 VINA RESULT:      -8.0      2.231      8.196
  Name = 
  1 active torsions:
  status: ('A' for Active; 'I' for Inactive)
    1  A    between atoms: C_20  and  N_29
                            x       y       z     vdW  Elec       q    Type
                         _______ _______ _______ _____ _____    ______ ____

>  <TORSDO>
F 1

$$$$
