=
 OpenBabel11112416393D

 32 38  0  0  1  0  0  0  0  0999 V2000
  185.5660  179.2540  143.3930 C   0  0  1  0  0  3  0  0  0  0  0  0
  188.9890  175.7050  142.8700 C   0  0  2  0  0  3  0  0  0  0  0  0
  192.4110  176.2740  146.4880 C   0  0  0  0  0  2  0  0  0  0  0  0
  192.9810  174.8920  146.1940 C   0  0  0  0  0  2  0  0  0  0  0  0
  189.5530  174.1210  140.9550 C   0  0  0  0  0  0  0  0  0  0  0  0
  190.4080  173.1690  140.4110 C   0  0  0  0  0  0  0  0  0  0  0  0
  186.8160  176.5720  143.0090 C   0  0  1  0  0  3  0  0  0  0  0  0
  188.3510  177.0030  144.9550 C   0  0  0  0  0  2  0  0  0  0  0  0
  192.1290  171.8570  140.2630 N   0  0  0  0  0  0  0  0  0  0  0  0
  186.5270  178.6940  144.4470 C   0  0  2  0  0  3  0  0  0  0  0  0
  190.9160  176.2570  146.2120 C   0  0  0  0  0  2  0  0  0  0  0  0
  189.2010  175.8460  144.3940 C   0  0  2  0  0  3  0  0  0  0  0  0
  190.6840  176.0170  144.7160 C   0  0  2  0  0  3  0  0  0  0  0  0
  191.0800  174.2310  142.8900 C   0  0  0  0  0  0  0  0  0  0  0  0
  191.3870  171.7340  139.1680 N   0  0  0  0  0  0  0  0  0  0  0  0
  185.7420  178.6660  141.9710 C   0  0  0  0  0  2  0  0  0  0  0  0
  187.5020  177.6550  143.8700 C   0  0  2  0  0  3  0  0  0  0  0  0
  190.3200  172.5300  139.2280 N   0  0  0  0  0  0  0  0  0  0  0  0
  186.0290  177.1580  141.8410 C   0  0  0  0  0  2  0  0  0  0  0  0
  185.0630  178.2580  144.4240 C   0  0  1  0  0  3  0  0  0  0  0  0
  192.5550  174.3800  144.8470 C   0  0  0  0  0  3  0  0  0  0  0  0
  191.4640  174.8250  144.1960 C   0  0  0  0  0  0  0  0  0  0  0  0
  191.9140  173.2600  142.2850 C   0  0  0  0  0  3  0  0  0  0  0  0
  187.6200  175.4690  142.6050 O   0  0  0  0  0  0  0  0  0  0  0  0
  188.4390  174.5460  140.2390 O   0  0  0  0  0  1  0  0  0  0  0  0
  193.3680  171.1410  140.5120 C   0  0  0  0  0  1  0  0  0  0  0  0
  189.8680  174.6390  142.2420 C   0  0  0  0  0  0  0  0  0  0  0  0
  191.5280  172.7560  141.0520 C   0  0  0  0  0  0  0  0  0  0  0  0
  184.3060  178.9990  145.5100 C   0  0  0  0  0  2  0  0  0  0  0  0
  184.4620  178.2910  146.8450 C   0  0  0  0  0  3  0  0  0  0  0  0
  184.8160  176.8330  146.6280 C   0  0  0  0  0  1  0  0  0  0  0  0
  185.5660  178.9570  147.6380 C   0  0  0  0  0  1  0  0  0  0  0  0
  1 16  1  6  0  0  0
  1 20  1  0  0  0  0
  1 10  1  0  0  0  0
  2 27  1  1  0  0  0
  2 12  1  0  0  0  0
  4  3  1  0  0  0  0
  5 27  1  0  0  0  0
  6  5  2  0  0  0  0
  6 28  1  0  0  0  0
  7 19  1  6  0  0  0
  7 17  1  0  0  0  0
  9 26  1  0  0  0  0
  9 28  1  0  0  0  0
 11  3  1  0  0  0  0
 12 13  1  0  0  0  0
 12  8  1  0  0  0  0
 13 11  1  0  0  0  0
 14 22  1  0  0  0  0
 15 18  2  0  0  0  0
 15  9  1  0  0  0  0
 17 10  1  0  0  0  0
 17  8  1  0  0  0  0
 18  6  1  0  0  0  0
 19 16  1  0  0  0  0
 20 10  1  0  0  0  0
 20 29  1  0  0  0  0
 21  4  1  0  0  0  0
 22 13  1  0  0  0  0
 22 21  2  0  0  0  0
 23 14  1  0  0  0  0
 24  2  1  0  0  0  0
 24  7  1  0  0  0  0
 25  5  1  0  0  0  0
 27 14  2  0  0  0  0
 28 23  2  0  0  0  0
 29 30  1  0  0  0  0
 30 32  1  0  0  0  0
 31 30  1  0  0  0  0
M  END
>  <MODEL>
1

>  <REMARK>
 VINA RESULT:      -9.4      0.000      0.000
  Name = 
  2 active torsions:
  status: ('A' for Active; 'I' for Inactive)
    1  A    between atoms: C_20  and  C_29
    2  A    between atoms: C_29  and  C_30
                            x       y       z     vdW  Elec       q    Type
                         _______ _______ _______ _____ _____    ______ ____

>  <TORSDO>
F 2

$$$$
=
 OpenBabel11112416393D

 32 38  0  0  1  0  0  0  0  0999 V2000
  192.3240  174.9830  144.0730 C   0  0  1  0  0  3  0  0  0  0  0  0
  187.8290  177.0250  143.6120 C   0  0  2  0  0  3  0  0  0  0  0  0
  185.9620  177.7700  148.2040 C   0  0  0  0  0  2  0  0  0  0  0  0
  184.8660  178.6640  147.6350 C   0  0  0  0  0  2  0  0  0  0  0  0
  186.2300  177.2510  141.6410 C   0  0  0  0  0  0  0  0  0  0  0  0
  184.9730  177.6010  141.1630 C   0  0  0  0  0  0  0  0  0  0  0  0
  190.1200  176.7860  143.1810 C   0  0  1  0  0  3  0  0  0  0  0  0
  189.4340  177.1400  145.5740 C   0  0  0  0  0  2  0  0  0  0  0  0
  182.9180  178.2930  141.2170 N   0  0  0  0  0  0  0  0  0  0  0  0
  191.5450  175.8120  145.0980 C   0  0  2  0  0  3  0  0  0  0  0  0
  187.2120  177.9250  147.3530 C   0  0  0  0  0  2  0  0  0  0  0  0
  188.1010  177.6540  144.9970 C   0  0  2  0  0  3  0  0  0  0  0  0
  186.9300  177.3960  145.9420 C   0  0  2  0  0  3  0  0  0  0  0  0
  185.4300  177.8690  143.8910 C   0  0  0  0  0  0  0  0  0  0  0  0
  183.2400  177.9710  139.9700 N   0  0  0  0  0  0  0  0  0  0  0  0
  191.5690  174.7050  142.7490 C   0  0  0  0  0  2  0  0  0  0  0  0
  190.1390  176.1970  144.6080 C   0  0  2  0  0  3  0  0  0  0  0  0
  184.4990  177.5410  139.9030 N   0  0  0  0  0  0  0  0  0  0  0  0
  190.7240  175.8420  142.1450 C   0  0  0  0  0  2  0  0  0  0  0  0
  192.6810  176.4430  144.2960 C   0  0  1  0  0  3  0  0  0  0  0  0
  184.6960  178.4750  146.1540 C   0  0  0  0  0  3  0  0  0  0  0  0
  185.6570  177.9750  145.3550 C   0  0  0  0  0  0  0  0  0  0  0  0
  184.1680  178.2080  143.3470 C   0  0  0  0  0  3  0  0  0  0  0  0
  188.8900  177.3450  142.7340 O   0  0  0  0  0  0  0  0  0  0  0  0
  187.1870  176.7370  140.7710 O   0  0  0  0  0  1  0  0  0  0  0  0
  181.6180  178.7840  141.6400 C   0  0  0  0  0  1  0  0  0  0  0  0
  186.4860  177.4230  143.0290 C   0  0  0  0  0  0  0  0  0  0  0  0
  183.9950  178.0650  141.9780 C   0  0  0  0  0  0  0  0  0  0  0  0
  193.9190  176.5290  145.1680 C   0  0  0  0  0  2  0  0  0  0  0  0
  195.0090  175.6150  144.6360 C   0  0  0  0  0  3  0  0  0  0  0  0
  196.0420  176.4180  143.8710 C   0  0  0  0  0  1  0  0  0  0  0  0
  195.6840  174.9150  145.7970 C   0  0  0  0  0  1  0  0  0  0  0  0
  1 16  1  6  0  0  0
  1 20  1  0  0  0  0
  1 10  1  0  0  0  0
  2 24  1  6  0  0  0
  2 12  1  0  0  0  0
  4  3  1  0  0  0  0
  5 27  1  0  0  0  0
  6  5  2  0  0  0  0
  6 28  1  0  0  0  0
  7 19  1  6  0  0  0
  7 17  1  0  0  0  0
  9 26  1  0  0  0  0
  9 28  1  0  0  0  0
 11  3  1  0  0  0  0
 12  8  1  0  0  0  0
 12 13  1  0  0  0  0
 13 11  1  0  0  0  0
 14 22  1  0  0  0  0
 15  9  1  0  0  0  0
 17 10  1  0  0  0  0
 17  8  1  0  0  0  0
 18 15  2  0  0  0  0
 18  6  1  0  0  0  0
 19 16  1  0  0  0  0
 20 10  1  0  0  0  0
 20 29  1  0  0  0  0
 21  4  1  0  0  0  0
 22 13  1  0  0  0  0
 22 21  2  0  0  0  0
 23 14  1  0  0  0  0
 24  7  1  0  0  0  0
 25  5  1  0  0  0  0
 27  2  1  0  0  0  0
 27 14  2  0  0  0  0
 28 23  2  0  0  0  0
 30 29  1  0  0  0  0
 30 32  1  0  0  0  0
 31 30  1  0  0  0  0
M  END
>  <MODEL>
2

>  <REMARK>
 VINA RESULT:      -9.3      3.206      7.587
  Name = 
  2 active torsions:
  status: ('A' for Active; 'I' for Inactive)
    1  A    between atoms: C_20  and  C_29
    2  A    between atoms: C_29  and  C_30
                            x       y       z     vdW  Elec       q    Type
                         _______ _______ _______ _____ _____    ______ ____

>  <TORSDO>
F 2

$$$$
=
 OpenBabel11112416393D

 32 38  0  0  1  0  0  0  0  0999 V2000
  185.4130  177.0810  146.7090 C   0  0  1  0  0  3  0  0  0  0  0  0
  189.7960  175.8870  144.7220 C   0  0  2  0  0  3  0  0  0  0  0  0
  188.9620  173.4250  140.4370 C   0  0  0  0  0  2  0  0  0  0  0  0
  190.4240  173.5840  140.0370 C   0  0  0  0  0  2  0  0  0  0  0  0
  192.1630  175.8390  145.6660 C   0  0  0  0  0  0  0  0  0  0  0  0
  193.5000  175.4930  145.5080 C   0  0  0  0  0  0  0  0  0  0  0  0
  188.2180  177.3060  145.7160 C   0  0  1  0  0  3  0  0  0  0  0  0
  187.5540  176.1760  143.5700 C   0  0  0  0  0  2  0  0  0  0  0  0
  195.2700  174.6770  144.5580 N   0  0  0  0  0  0  0  0  0  0  0  0
  185.7400  176.7590  145.2480 C   0  0  2  0  0  3  0  0  0  0  0  0
  188.5410  174.6370  141.2510 C   0  0  0  0  0  2  0  0  0  0  0  0
  189.0620  175.9340  143.3640 C   0  0  2  0  0  3  0  0  0  0  0  0
  189.3340  174.6630  142.5630 C   0  0  2  0  0  3  0  0  0  0  0  0
  191.7590  174.8750  143.4310 C   0  0  0  0  0  0  0  0  0  0  0  0
  195.5940  175.1510  145.7560 N   0  0  0  0  0  0  0  0  0  0  0  0
  186.6060  176.9530  147.6890 C   0  0  0  0  0  2  0  0  0  0  0  0
  187.2080  176.3510  145.0440 C   0  0  2  0  0  3  0  0  0  0  0  0
  194.5240  175.6590  146.3670 N   0  0  0  0  0  0  0  0  0  0  0  0
  187.9870  177.4460  147.2180 C   0  0  0  0  0  2  0  0  0  0  0  0
  185.5510  178.2070  145.6980 C   0  0  1  0  0  3  0  0  0  0  0  0
  191.2940  173.9380  141.2100 C   0  0  0  0  0  3  0  0  0  0  0  0
  190.8250  174.5050  142.3370 C   0  0  0  0  0  0  0  0  0  0  0  0
  193.1320  174.5440  143.3280 C   0  0  0  0  0  3  0  0  0  0  0  0
  189.5930  177.1070  145.4090 O   0  0  0  0  0  0  0  0  0  0  0  0
  191.7300  176.4230  146.8530 O   0  0  0  0  0  1  0  0  0  0  0  0
  196.1980  174.0440  143.6370 C   0  0  0  0  0  1  0  0  0  0  0  0
  191.2720  175.5630  144.5920 C   0  0  0  0  0  0  0  0  0  0  0  0
  193.9590  174.8840  144.3890 C   0  0  0  0  0  0  0  0  0  0  0  0
  184.1720  178.6810  145.2830 C   0  0  0  0  0  2  0  0  0  0  0  0
  184.2280  179.3510  143.9210 C   0  0  0  0  0  3  0  0  0  0  0  0
  185.6460  179.7830  143.6050 C   0  0  0  0  0  1  0  0  0  0  0  0
  183.7600  178.3730  142.8640 C   0  0  0  0  0  1  0  0  0  0  0  0
  1 16  1  1  0  0  0
  2 27  1  6  0  0  0
  2 24  1  0  0  0  0
  3 11  1  0  0  0  0
  4  3  1  0  0  0  0
  4 21  1  0  0  0  0
  5 25  1  0  0  0  0
  6  5  1  0  0  0  0
  6 18  1  0  0  0  0
  7 19  1  1  0  0  0
  8 17  1  0  0  0  0
  9 15  1  0  0  0  0
 10 20  1  0  0  0  0
 10  1  1  0  0  0  0
 11 13  1  0  0  0  0
 12  8  1  0  0  0  0
 12  2  1  0  0  0  0
 13 12  1  0  0  0  0
 14 27  1  0  0  0  0
 15 18  2  0  0  0  0
 17 10  1  0  0  0  0
 17  7  1  0  0  0  0
 19 16  1  0  0  0  0
 20  1  1  0  0  0  0
 21 22  2  0  0  0  0
 22 13  1  0  0  0  0
 22 14  1  0  0  0  0
 23 14  2  0  0  0  0
 23 28  1  0  0  0  0
 24  7  1  0  0  0  0
 26  9  1  0  0  0  0
 27  5  2  0  0  0  0
 28  9  1  0  0  0  0
 28  6  2  0  0  0  0
 29 20  1  0  0  0  0
 30 29  1  0  0  0  0
 31 30  1  0  0  0  0
 32 30  1  0  0  0  0
M  END
>  <MODEL>
3

>  <REMARK>
 VINA RESULT:      -9.2      2.802      4.761
  Name = 
  2 active torsions:
  status: ('A' for Active; 'I' for Inactive)
    1  A    between atoms: C_20  and  C_29
    2  A    between atoms: C_29  and  C_30
                            x       y       z     vdW  Elec       q    Type
                         _______ _______ _______ _____ _____    ______ ____

>  <TORSDO>
F 2

$$$$
=
 OpenBabel11112416393D

 32 38  0  0  1  0  0  0  0  0999 V2000
  186.7970  178.2470  142.8310 C   0  0  1  0  0  3  0  0  0  0  0  0
  190.1300  174.6780  143.6930 C   0  0  2  0  0  3  0  0  0  0  0  0
  194.0650  176.7300  146.0220 C   0  0  0  0  0  2  0  0  0  0  0  0
  194.5960  175.3490  146.3860 C   0  0  0  0  0  2  0  0  0  0  0  0
  190.4050  172.3160  142.7760 C   0  0  0  0  0  0  0  0  0  0  0  0
  191.1740  171.1630  142.6700 C   0  0  0  0  0  0  0  0  0  0  0  0
  187.9970  175.6490  143.6780 C   0  0  1  0  0  3  0  0  0  0  0  0
  189.8110  176.8820  144.9090 C   0  0  0  0  0  2  0  0  0  0  0  0
  192.8620  169.8340  142.9640 N   0  0  0  0  0  0  0  0  0  0  0  0
  187.9150  178.2200  143.8790 C   0  0  2  0  0  3  0  0  0  0  0  0
  192.5470  176.6830  146.0010 C   0  0  0  0  0  2  0  0  0  0  0  0
  190.5740  175.5430  144.8930 C   0  0  2  0  0  3  0  0  0  0  0  0
  192.0870  175.7480  144.8770 C   0  0  2  0  0  3  0  0  0  0  0  0
  192.2120  173.2670  144.1610 C   0  0  0  0  0  0  0  0  0  0  0  0
  191.9610  169.2350  142.1950 N   0  0  0  0  0  0  0  0  0  0  0  0
  186.7560  177.0190  141.8880 C   0  0  0  0  0  2  0  0  0  0  0  0
  188.7980  176.9660  143.7740 C   0  0  2  0  0  3  0  0  0  0  0  0
  190.9090  170.0280  141.9940 N   0  0  0  0  0  0  0  0  0  0  0  0
  187.0330  175.6300  142.4950 C   0  0  0  0  0  2  0  0  0  0  0  0
  186.4690  177.9340  144.2810 C   0  0  1  0  0  3  0  0  0  0  0  0
  193.9710  174.2660  145.5520 C   0  0  0  0  0  3  0  0  0  0  0  0
  192.7890  174.4040  144.9240 C   0  0  0  0  0  0  0  0  0  0  0  0
  192.9510  172.0680  144.0160 C   0  0  0  0  0  3  0  0  0  0  0  0
  188.7380  174.4380  143.7750 O   0  0  0  0  0  0  0  0  0  0  0  0
  189.1890  172.4060  142.1050 O   0  0  0  0  0  1  0  0  0  0  0  0
  194.1320  169.2520  143.3650 C   0  0  0  0  0  1  0  0  0  0  0  0
  190.9100  173.3830  143.5700 C   0  0  0  0  0  0  0  0  0  0  0  0
  192.3830  171.0460  143.2700 C   0  0  0  0  0  0  0  0  0  0  0  0
  185.8830  179.1680  144.9410 C   0  0  0  0  0  2  0  0  0  0  0  0
  185.0960  178.7840  146.1820 C   0  0  0  0  0  3  0  0  0  0  0  0
  184.8880  177.2830  146.2290 C   0  0  0  0  0  1  0  0  0  0  0  0
  185.8620  179.2180  147.4140 C   0  0  0  0  0  1  0  0  0  0  0  0
  1 16  1  6  0  0  0
  1 10  1  0  0  0  0
  1 20  1  0  0  0  0
  2 27  1  1  0  0  0
  2 24  1  0  0  0  0
  2 12  1  0  0  0  0
  3  4  1  0  0  0  0
  5 27  1  0  0  0  0
  6  5  2  0  0  0  0
  6 28  1  0  0  0  0
  7 19  1  6  0  0  0
  7 17  1  0  0  0  0
  7 24  1  0  0  0  0
  9 28  1  0  0  0  0
  9 26  1  0  0  0  0
 10 20  1  0  0  0  0
 11  3  1  0  0  0  0
 12  8  1  0  0  0  0
 13 12  1  0  0  0  0
 13 22  1  0  0  0  0
 13 11  1  0  0  0  0
 14 22  1  0  0  0  0
 15  9  1  0  0  0  0
 16 19  1  0  0  0  0
 17 10  1  0  0  0  0
 17  8  1  0  0  0  0
 18 15  2  0  0  0  0
 18  6  1  0  0  0  0
 20 29  1  0  0  0  0
 21  4  1  0  0  0  0
 22 21  2  0  0  0  0
 23 14  1  0  0  0  0
 25  5  1  0  0  0  0
 27 14  2  0  0  0  0
 28 23  2  0  0  0  0
 29 30  1  0  0  0  0
 30 31  1  0  0  0  0
 30 32  1  0  0  0  0
M  END
>  <MODEL>
4

>  <REMARK>
 VINA RESULT:      -8.6      1.787      2.190
  Name = 
  2 active torsions:
  status: ('A' for Active; 'I' for Inactive)
    1  A    between atoms: C_20  and  C_29
    2  A    between atoms: C_29  and  C_30
                            x       y       z     vdW  Elec       q    Type
                         _______ _______ _______ _____ _____    ______ ____

>  <TORSDO>
F 2

$$$$
=
 OpenBabel11112416393D

 32 38  0  0  1  0  0  0  0  0999 V2000
  186.3240  178.7350  143.6620 C   0  0  1  0  0  3  0  0  0  0  0  0
  189.1190  174.9370  142.1300 C   0  0  2  0  0  3  0  0  0  0  0  0
  192.7120  174.1540  145.5360 C   0  0  0  0  0  2  0  0  0  0  0  0
  193.0460  172.8080  144.9050 C   0  0  0  0  0  2  0  0  0  0  0  0
  189.3580  173.7680  139.8780 C   0  0  0  0  0  0  0  0  0  0  0  0
  190.0320  172.8520  139.0780 C   0  0  0  0  0  0  0  0  0  0  0  0
  187.1180  176.0580  142.6090 C   0  0  1  0  0  3  0  0  0  0  0  0
  188.7680  175.8020  144.4890 C   0  0  0  0  0  2  0  0  0  0  0  0
  191.5160  171.3710  138.5240 N   0  0  0  0  0  0  0  0  0  0  0  0
  187.2190  177.8140  144.4960 C   0  0  2  0  0  3  0  0  0  0  0  0
  191.2250  174.4210  145.3680 C   0  0  0  0  0  2  0  0  0  0  0  0
  189.4040  174.6930  143.6280 C   0  0  2  0  0  3  0  0  0  0  0  0
  190.9060  174.5660  143.8760 C   0  0  2  0  0  3  0  0  0  0  0  0
  190.9490  173.2070  141.6780 C   0  0  0  0  0  0  0  0  0  0  0  0
  190.7260  171.6120  137.4840 N   0  0  0  0  0  0  0  0  0  0  0  0
  186.3540  178.4680  142.1360 C   0  0  0  0  0  2  0  0  0  0  0  0
  187.9960  176.8020  143.6370 C   0  0  2  0  0  3  0  0  0  0  0  0
  189.8020  172.5210  137.7930 N   0  0  0  0  0  0  0  0  0  0  0  0
  186.3930  177.0050  141.6560 C   0  0  0  0  0  2  0  0  0  0  0  0
  185.7050  177.6140  144.4800 C   0  0  1  0  0  3  0  0  0  0  0  0
  192.4970  172.6870  143.5110 C   0  0  0  0  0  3  0  0  0  0  0  0
  191.4690  173.4240  143.0520 C   0  0  0  0  0  0  0  0  0  0  0  0
  191.5970  172.2890  140.8170 C   0  0  0  0  0  3  0  0  0  0  0  0
  187.7220  174.9710  141.9160 O   0  0  0  0  0  0  0  0  0  0  0  0
  188.3010  174.5050  139.3530 O   0  0  0  0  0  1  0  0  0  0  0  0
  192.6340  170.4440  138.5220 C   0  0  0  0  0  1  0  0  0  0  0  0
  189.7960  173.9270  141.2220 C   0  0  0  0  0  0  0  0  0  0  0  0
  191.0930  172.1430  139.5320 C   0  0  0  0  0  0  0  0  0  0  0  0
  185.1130  178.1890  145.7530 C   0  0  0  0  0  2  0  0  0  0  0  0
  186.1620  178.2410  146.8500 C   0  0  0  0  0  3  0  0  0  0  0  0
  185.9520  179.4630  147.7220 C   0  0  0  0  0  1  0  0  0  0  0  0
  186.0530  176.9960  147.7050 C   0  0  0  0  0  1  0  0  0  0  0  0
  1 16  1  6  0  0  0
  1 20  1  0  0  0  0
  1 10  1  0  0  0  0
  2 27  1  6  0  0  0
  2 12  1  0  0  0  0
  4  3  1  0  0  0  0
  5 27  1  0  0  0  0
  6 28  1  0  0  0  0
  6  5  2  0  0  0  0
  7 19  1  6  0  0  0
  7 17  1  0  0  0  0
  9 28  1  0  0  0  0
 11  3  1  0  0  0  0
 12 13  1  0  0  0  0
 12  8  1  0  0  0  0
 13 11  1  0  0  0  0
 14 22  1  0  0  0  0
 15 18  2  0  0  0  0
 15  9  1  0  0  0  0
 17  8  1  0  0  0  0
 17 10  1  0  0  0  0
 18  6  1  0  0  0  0
 19 16  1  0  0  0  0
 20 10  1  0  0  0  0
 20 29  1  0  0  0  0
 21  4  1  0  0  0  0
 22 21  2  0  0  0  0
 22 13  1  0  0  0  0
 23 14  1  0  0  0  0
 24  2  1  0  0  0  0
 24  7  1  0  0  0  0
 25  5  1  0  0  0  0
 26  9  1  0  0  0  0
 27 14  2  0  0  0  0
 28 23  2  0  0  0  0
 29 30  1  0  0  0  0
 30 32  1  0  0  0  0
 30 31  1  0  0  0  0
M  END
>  <MODEL>
5

>  <REMARK>
 VINA RESULT:      -8.5      1.185      1.616
  Name = 
  2 active torsions:
  status: ('A' for Active; 'I' for Inactive)
    1  A    between atoms: C_20  and  C_29
    2  A    between atoms: C_29  and  C_30
                            x       y       z     vdW  Elec       q    Type
                         _______ _______ _______ _____ _____    ______ ____

>  <TORSDO>
F 2

$$$$
=
 OpenBabel11112416393D

 32 38  0  0  1  0  0  0  0  0999 V2000
  195.4380  175.9360  145.2930 C   0  0  1  0  0  3  0  0  0  0  0  0
  190.4900  176.2560  145.2370 C   0  0  2  0  0  3  0  0  0  0  0  0
  188.8600  174.6350  140.7830 C   0  0  0  0  0  2  0  0  0  0  0  0
  187.4320  174.5610  141.3100 C   0  0  0  0  0  2  0  0  0  0  0  0
  188.8230  177.4800  146.7260 C   0  0  0  0  0  0  0  0  0  0  0  0
  187.5150  177.8860  146.9640 C   0  0  0  0  0  0  0  0  0  0  0  0
  192.5830  175.6850  146.1240 C   0  0  1  0  0  3  0  0  0  0  0  0
  192.0010  174.7520  143.8630 C   0  0  0  0  0  2  0  0  0  0  0  0
  185.3880  178.1310  146.6200 N   0  0  0  0  0  0  0  0  0  0  0  0
  194.4440  175.1730  144.4130 C   0  0  2  0  0  3  0  0  0  0  0  0
  189.8190  174.3240  141.9200 C   0  0  0  0  0  2  0  0  0  0  0  0
  190.5430  175.0920  144.2230 C   0  0  2  0  0  3  0  0  0  0  0  0
  189.7090  175.4190  142.9860 C   0  0  2  0  0  3  0  0  0  0  0  0
  188.0070  176.4290  144.6490 C   0  0  0  0  0  0  0  0  0  0  0  0
  185.7230  178.7460  147.7480 N   0  0  0  0  0  0  0  0  0  0  0  0
  194.8010  176.9830  146.2410 C   0  0  0  0  0  2  0  0  0  0  0  0
  192.9890  175.6170  144.6360 C   0  0  2  0  0  3  0  0  0  0  0  0
  187.0280  178.6140  147.9870 N   0  0  0  0  0  0  0  0  0  0  0  0
  193.4750  176.6190  146.9370 C   0  0  0  0  0  2  0  0  0  0  0  0
  195.0840  174.4960  145.6240 C   0  0  1  0  0  3  0  0  0  0  0  0
  187.2550  175.3560  142.5730 C   0  0  0  0  0  3  0  0  0  0  0  0
  188.2710  175.6860  143.3900 C   0  0  0  0  0  0  0  0  0  0  0  0
  186.6940  176.8720  144.9420 C   0  0  0  0  0  3  0  0  0  0  0  0
  191.2030  175.8960  146.4040 O   0  0  0  0  0  0  0  0  0  0  0  0
  189.8370  177.8490  147.6040 O   0  0  0  0  0  1  0  0  0  0  0  0
  184.0470  178.0920  146.0620 C   0  0  0  0  0  1  0  0  0  0  0  0
  189.0760  176.6990  145.5650 C   0  0  0  0  0  0  0  0  0  0  0  0
  186.5020  177.5870  146.1160 C   0  0  0  0  0  0  0  0  0  0  0  0
  196.2000  173.5840  145.1520 C   0  0  0  0  0  2  0  0  0  0  0  0
  196.0890  172.2220  145.8140 C   0  0  0  0  0  3  0  0  0  0  0  0
  194.7460  171.5930  145.5010 C   0  0  0  0  0  1  0  0  0  0  0  0
  197.1910  171.3220  145.2940 C   0  0  0  0  0  1  0  0  0  0  0  0
  1 20  1  0  0  0  0
  1 16  1  1  0  0  0
  2 27  1  1  0  0  0
  2 24  1  0  0  0  0
  3  4  1  0  0  0  0
  3 11  1  0  0  0  0
  4 21  1  0  0  0  0
  5  6  1  0  0  0  0
  5 25  1  0  0  0  0
  6 18  1  0  0  0  0
  7 24  1  0  0  0  0
  7 19  1  6  0  0  0
  8 12  1  0  0  0  0
  8 17  1  0  0  0  0
  9 15  1  0  0  0  0
 10 17  1  0  0  0  0
 10  1  1  0  0  0  0
 10 20  1  0  0  0  0
 11 13  1  0  0  0  0
 12  2  1  0  0  0  0
 13 22  1  0  0  0  0
 13 12  1  0  0  0  0
 14 23  2  0  0  0  0
 14 27  1  0  0  0  0
 15 18  2  0  0  0  0
 16 19  1  0  0  0  0
 17  7  1  0  0  0  0
 21 22  2  0  0  0  0
 22 14  1  0  0  0  0
 23 28  1  0  0  0  0
 26  9  1  0  0  0  0
 27  5  2  0  0  0  0
 28  9  1  0  0  0  0
 28  6  2  0  0  0  0
 29 20  1  0  0  0  0
 29 30  1  0  0  0  0
 31 30  1  0  0  0  0
 32 30  1  0  0  0  0
M  END
>  <MODEL>
6

>  <REMARK>
 VINA RESULT:      -8.4      4.183      8.627
  Name = 
  2 active torsions:
  status: ('A' for Active; 'I' for Inactive)
    1  A    between atoms: C_20  and  C_29
    2  A    between atoms: C_29  and  C_30
                            x       y       z     vdW  Elec       q    Type
                         _______ _______ _______ _____ _____    ______ ____

>  <TORSDO>
F 2

$$$$
=
 OpenBabel11112416393D

 32 38  0  0  1  0  0  0  0  0999 V2000
  186.8930  177.8220  144.3750 C   0  0  1  0  0  3  0  0  0  0  0  0
  190.8300  175.0980  143.0860 C   0  0  2  0  0  3  0  0  0  0  0  0
  194.5650  176.1280  146.2670 C   0  0  0  0  0  2  0  0  0  0  0  0
  195.3460  174.9160  145.7740 C   0  0  0  0  0  2  0  0  0  0  0  0
  191.4080  173.7920  140.9760 C   0  0  0  0  0  0  0  0  0  0  0  0
  192.3440  173.0750  140.2390 C   0  0  0  0  0  0  0  0  0  0  0  0
  188.5740  175.4860  143.5860 C   0  0  1  0  0  3  0  0  0  0  0  0
  190.2610  176.0990  145.3470 C   0  0  0  0  0  2  0  0  0  0  0  0
  194.2470  172.1590  139.7480 N   0  0  0  0  0  0  0  0  0  0  0  0
  188.0870  177.4070  145.2390 C   0  0  2  0  0  3  0  0  0  0  0  0
  193.0790  175.8210  146.1860 C   0  0  0  0  0  2  0  0  0  0  0  0
  191.2300  175.1820  144.5760 C   0  0  2  0  0  3  0  0  0  0  0  0
  192.6820  175.6350  144.7170 C   0  0  2  0  0  3  0  0  0  0  0  0
  193.1490  174.0900  142.6980 C   0  0  0  0  0  0  0  0  0  0  0  0
  193.3930  171.9550  138.7520 N   0  0  0  0  0  0  0  0  0  0  0  0
  186.9710  177.3760  142.8940 C   0  0  0  0  0  2  0  0  0  0  0  0
  189.1520  176.6300  144.4470 C   0  0  2  0  0  3  0  0  0  0  0  0
  192.2110  172.5080  139.0240 N   0  0  0  0  0  0  0  0  0  0  0  0
  187.5250  175.9710  142.5890 C   0  0  0  0  0  2  0  0  0  0  0  0
  186.7500  176.6790  145.3660 C   0  0  1  0  0  3  0  0  0  0  0  0
  194.8360  174.4150  144.4520 C   0  0  0  0  0  3  0  0  0  0  0  0
  193.5960  174.6660  143.9920 C   0  0  0  0  0  0  0  0  0  0  0  0
  194.0600  173.3540  141.9030 C   0  0  0  0  0  3  0  0  0  0  0  0
  189.5100  174.6020  142.9810 O   0  0  0  0  0  0  0  0  0  0  0  0
  190.1400  174.0230  140.4530 O   0  0  0  0  0  1  0  0  0  0  0  0
  195.6260  171.7000  139.7670 C   0  0  0  0  0  1  0  0  0  0  0  0
  191.7990  174.2800  142.2530 C   0  0  0  0  0  0  0  0  0  0  0  0
  193.6040  172.8610  140.6880 C   0  0  0  0  0  0  0  0  0  0  0  0
  186.0290  177.1760  146.6050 C   0  0  0  0  0  2  0  0  0  0  0  0
  185.5720  178.6120  146.4130 C   0  0  0  0  0  3  0  0  0  0  0  0
  184.0700  178.6640  146.2150 C   0  0  0  0  0  1  0  0  0  0  0  0
  185.9390  179.4210  147.6400 C   0  0  0  0  0  1  0  0  0  0  0  0
  1 16  1  6  0  0  0
  1 10  1  0  0  0  0
  1 20  1  0  0  0  0
  2 27  1  6  0  0  0
  2 12  1  0  0  0  0
  4  3  1  0  0  0  0
  5 27  1  0  0  0  0
  6 28  1  0  0  0  0
  6  5  2  0  0  0  0
  7 19  1  6  0  0  0
  7 17  1  0  0  0  0
  9 26  1  0  0  0  0
  9 28  1  0  0  0  0
 10 20  1  0  0  0  0
 11  3  1  0  0  0  0
 12 13  1  0  0  0  0
 12  8  1  0  0  0  0
 13 11  1  0  0  0  0
 14 22  1  0  0  0  0
 15 18  2  0  0  0  0
 15  9  1  0  0  0  0
 17 10  1  0  0  0  0
 17  8  1  0  0  0  0
 18  6  1  0  0  0  0
 19 16  1  0  0  0  0
 20 29  1  0  0  0  0
 21  4  1  0  0  0  0
 22 21  2  0  0  0  0
 22 13  1  0  0  0  0
 23 14  1  0  0  0  0
 24  2  1  0  0  0  0
 24  7  1  0  0  0  0
 25  5  1  0  0  0  0
 27 14  2  0  0  0  0
 28 23  2  0  0  0  0
 30 29  1  0  0  0  0
 30 32  1  0  0  0  0
 31 30  1  0  0  0  0
M  END
>  <MODEL>
7

>  <REMARK>
 VINA RESULT:      -8.2      1.474      2.089
  Name = 
  2 active torsions:
  status: ('A' for Active; 'I' for Inactive)
    1  A    between atoms: C_20  and  C_29
    2  A    between atoms: C_29  and  C_30
                            x       y       z     vdW  Elec       q    Type
                         _______ _______ _______ _____ _____    ______ ____

>  <TORSDO>
F 2

$$$$
=
 OpenBabel11112416393D

 32 38  0  0  1  0  0  0  0  0999 V2000
  195.4960  175.4450  145.3610 C   0  0  1  0  0  3  0  0  0  0  0  0
  190.7780  175.7700  143.8720 C   0  0  2  0  0  3  0  0  0  0  0  0
  190.3700  173.4870  139.4280 C   0  0  0  0  0  2  0  0  0  0  0  0
  188.8500  173.5000  139.5380 C   0  0  0  0  0  2  0  0  0  0  0  0
  188.8230  177.2150  144.6360 C   0  0  0  0  0  0  0  0  0  0  0  0
  187.5210  177.6580  144.4350 C   0  0  0  0  0  0  0  0  0  0  0  0
  192.5140  175.3360  145.3840 C   0  0  1  0  0  3  0  0  0  0  0  0
  192.5380  174.0660  143.2140 C   0  0  0  0  0  2  0  0  0  0  0  0
  185.5860  177.8540  143.4760 N   0  0  0  0  0  0  0  0  0  0  0  0
  194.7510  174.5590  144.3590 C   0  0  2  0  0  3  0  0  0  0  0  0
  190.9620  173.3520  140.8220 C   0  0  0  0  0  2  0  0  0  0  0  0
  191.0540  174.4630  143.0960 C   0  0  2  0  0  3  0  0  0  0  0  0
  190.6120  174.5990  141.6410 C   0  0  2  0  0  3  0  0  0  0  0  0
  188.5650  175.8590  142.5920 C   0  0  0  0  0  0  0  0  0  0  0  0
  185.6240  178.6350  144.5500 N   0  0  0  0  0  0  0  0  0  0  0  0
  194.6710  176.6280  145.9270 C   0  0  0  0  0  2  0  0  0  0  0  0
  193.3130  175.0370  144.0970 C   0  0  2  0  0  3  0  0  0  0  0  0
  186.8040  178.5370  145.1620 N   0  0  0  0  0  0  0  0  0  0  0  0
  193.1900  176.3800  146.2680 C   0  0  0  0  0  2  0  0  0  0  0  0
  194.9980  174.0740  145.7870 C   0  0  1  0  0  3  0  0  0  0  0  0
  188.3680  174.4810  140.5690 C   0  0  0  0  0  3  0  0  0  0  0  0
  189.1330  174.9300  141.5810 C   0  0  0  0  0  0  0  0  0  0  0  0
  187.2450  176.3470  142.4370 C   0  0  0  0  0  3  0  0  0  0  0  0
  191.1230  175.5920  145.2320 O   0  0  0  0  0  0  0  0  0  0  0  0
  189.5700  177.7120  145.6990 O   0  0  0  0  0  1  0  0  0  0  0  0
  184.4520  177.7350  142.5760 C   0  0  0  0  0  1  0  0  0  0  0  0
  189.3510  176.2630  143.7210 C   0  0  0  0  0  0  0  0  0  0  0  0
  186.7690  177.2360  143.3900 C   0  0  0  0  0  0  0  0  0  0  0  0
  196.1570  173.0970  145.7870 C   0  0  0  0  0  2  0  0  0  0  0  0
  195.7140  171.7470  145.2490 C   0  0  0  0  0  3  0  0  0  0  0  0
  196.6280  170.6510  145.7590 C   0  0  0  0  0  1  0  0  0  0  0  0
  194.2990  171.4670  145.7080 C   0  0  0  0  0  1  0  0  0  0  0  0
  1 20  1  0  0  0  0
  1 16  1  1  0  0  0
  2 27  1  1  0  0  0
  2 24  1  0  0  0  0
  3  4  1  0  0  0  0
  3 11  1  0  0  0  0
  4 21  1  0  0  0  0
  5 25  1  0  0  0  0
  6  5  1  0  0  0  0
  6 18  1  0  0  0  0
  7 19  1  6  0  0  0
  8 17  1  0  0  0  0
  9 15  1  0  0  0  0
 10  1  1  0  0  0  0
 10 20  1  0  0  0  0
 11 13  1  0  0  0  0
 12  8  1  0  0  0  0
 12  2  1  0  0  0  0
 13 12  1  0  0  0  0
 14 27  1  0  0  0  0
 15 18  2  0  0  0  0
 16 19  1  0  0  0  0
 17 10  1  0  0  0  0
 17  7  1  0  0  0  0
 20 29  1  0  0  0  0
 21 22  2  0  0  0  0
 22 13  1  0  0  0  0
 22 14  1  0  0  0  0
 23 14  2  0  0  0  0
 23 28  1  0  0  0  0
 24  7  1  0  0  0  0
 26  9  1  0  0  0  0
 27  5  2  0  0  0  0
 28  9  1  0  0  0  0
 28  6  2  0  0  0  0
 30 32  1  0  0  0  0
 30 31  1  0  0  0  0
 30 29  1  0  0  0  0
M  END
>  <MODEL>
8

>  <REMARK>
 VINA RESULT:      -8.2      3.522      8.154
  Name = 
  2 active torsions:
  status: ('A' for Active; 'I' for Inactive)
    1  A    between atoms: C_20  and  C_29
    2  A    between atoms: C_29  and  C_30
                            x       y       z     vdW  Elec       q    Type
                         _______ _______ _______ _____ _____    ______ ____

>  <TORSDO>
F 2

$$$$
=
 OpenBabel11112416393D

 32 38  0  0  1  0  0  0  0  0999 V2000
  190.0690  172.1640  139.5360 C   0  0  1  0  0  3  0  0  0  0  0  0
  188.9100  175.3560  143.1490 C   0  0  2  0  0  3  0  0  0  0  0  0
  192.3760  174.9820  146.7500 C   0  0  0  0  0  2  0  0  0  0  0  0
  191.8770  176.2710  147.3920 C   0  0  0  0  0  2  0  0  0  0  0  0
  186.7800  176.6450  143.6940 C   0  0  0  0  0  0  0  0  0  0  0  0
  186.0730  177.4560  144.5740 C   0  0  0  0  0  0  0  0  0  0  0  0
  189.2780  174.6770  140.9360 C   0  0  1  0  0  3  0  0  0  0  0  0
  191.1750  174.3760  142.5600 C   0  0  0  0  0  2  0  0  0  0  0  0
  185.6640  178.6070  146.3660 N   0  0  0  0  0  0  0  0  0  0  0  0
  190.9880  172.7750  140.5980 C   0  0  2  0  0  3  0  0  0  0  0  0
  192.1830  175.0760  145.2460 C   0  0  0  0  0  2  0  0  0  0  0  0
  190.4250  175.3870  143.4480 C   0  0  2  0  0  3  0  0  0  0  0  0
  190.6840  175.1470  144.9340 C   0  0  2  0  0  3  0  0  0  0  0  0
  188.6260  176.6600  145.3310 C   0  0  0  0  0  0  0  0  0  0  0  0
  184.6050  178.6500  145.5650 N   0  0  0  0  0  0  0  0  0  0  0  0
  188.5760  172.5580  139.6590 C   0  0  0  0  0  2  0  0  0  0  0  0
  190.2310  173.6600  141.6010 C   0  0  2  0  0  3  0  0  0  0  0  0
  184.8250  177.9500  144.4530 N   0  0  0  0  0  0  0  0  0  0  0  0
  188.2390  174.0120  140.0380 C   0  0  0  0  0  2  0  0  0  0  0  0
  190.9920  173.3140  139.1680 C   0  0  1  0  0  3  0  0  0  0  0  0
  190.5010  176.6430  146.9150 C   0  0  0  0  0  3  0  0  0  0  0  0
  189.9740  176.2040  145.7580 C   0  0  0  0  0  0  0  0  0  0  0  0
  187.8570  177.4840  146.1880 C   0  0  0  0  0  3  0  0  0  0  0  0
  188.6930  175.6590  141.7850 O   0  0  0  0  0  0  0  0  0  0  0  0
  186.1870  176.2200  142.5100 O   0  0  0  0  0  1  0  0  0  0  0  0
  185.7500  179.2540  147.6640 C   0  0  0  0  0  1  0  0  0  0  0  0
  188.1030  176.2670  144.0550 C   0  0  0  0  0  0  0  0  0  0  0  0
  186.5930  177.8600  145.7580 C   0  0  0  0  0  0  0  0  0  0  0  0
  192.2030  172.7710  138.4340 C   0  0  0  0  0  2  0  0  0  0  0  0
  192.1560  173.1630  136.9680 C   0  0  0  0  0  3  0  0  0  0  0  0
  191.6360  172.0110  136.1310 C   0  0  0  0  0  1  0  0  0  0  0  0
  191.2360  174.3540  136.7990 C   0  0  0  0  0  1  0  0  0  0  0  0
  1 16  1  1  0  0  0
  1 10  1  0  0  0  0
  2 24  1  6  0  0  0
  2 12  1  0  0  0  0
  2 27  1  0  0  0  0
  3  4  1  0  0  0  0
  5 27  2  0  0  0  0
  5  6  1  0  0  0  0
  6 28  2  0  0  0  0
  7 19  1  1  0  0  0
  7 17  1  0  0  0  0
  7 24  1  0  0  0  0
  8 12  1  0  0  0  0
  9 26  1  0  0  0  0
 10 17  1  0  0  0  0
 11  3  1  0  0  0  0
 12 13  1  0  0  0  0
 13 11  1  0  0  0  0
 13 22  1  0  0  0  0
 14 22  1  0  0  0  0
 14 23  2  0  0  0  0
 15  9  1  0  0  0  0
 16 19  1  0  0  0  0
 17  8  1  0  0  0  0
 18  6  1  0  0  0  0
 18 15  2  0  0  0  0
 20  1  1  0  0  0  0
 20 10  1  0  0  0  0
 21  4  1  0  0  0  0
 22 21  2  0  0  0  0
 25  5  1  0  0  0  0
 27 14  1  0  0  0  0
 28 23  1  0  0  0  0
 28  9  1  0  0  0  0
 29 20  1  0  0  0  0
 30 29  1  0  0  0  0
 31 30  1  0  0  0  0
 32 30  1  0  0  0  0
M  END
>  <MODEL>
9

>  <REMARK>
 VINA RESULT:      -8.0      3.528      7.613
  Name = 
  2 active torsions:
  status: ('A' for Active; 'I' for Inactive)
    1  A    between atoms: C_20  and  C_29
    2  A    between atoms: C_29  and  C_30
                            x       y       z     vdW  Elec       q    Type
                         _______ _______ _______ _____ _____    ______ ____

>  <TORSDO>
F 2

$$$$
