=
 OpenBabel11112417283D

 37 44  0  0  1  0  0  0  0  0999 V2000
  193.1960  173.8720  144.3210 C   0  0  2  0  0  3  0  0  0  0  0  0
  192.3020  172.6680  139.7390 C   0  0  0  0  0  0  0  0  0  0  0  0
  189.3490  174.9220  141.5910 C   0  0  0  0  0  0  0  0  0  0  0  0
  193.5640  173.2530  145.6530 C   0  0  2  0  0  3  0  0  0  0  0  0
  190.5820  177.4830  144.2570 C   0  0  0  0  0  2  0  0  0  0  0  0
  189.8600  173.3100  139.8840 C   0  0  0  0  0  0  0  0  0  0  0  0
  190.0980  175.5520  142.6850 C   0  0  0  0  0  0  0  0  0  0  0  0
  193.0300  175.5700  146.3360 C   0  0  2  0  0  3  0  0  0  0  0  0
  190.1330  173.9250  141.0910 C   0  0  0  0  0  0  0  0  0  0  0  0
  189.6630  176.6000  143.4220 C   0  0  0  0  0  0  0  0  0  0  0  0
  188.7450  173.6840  139.1980 N   0  0  0  0  0  0  0  0  0  0  0  0
  193.9000  174.7190  145.3980 C   0  0  2  0  0  3  0  0  0  0  0  0
  191.3830  173.8350  141.7280 N   0  0  0  0  0  0  0  0  0  0  0  0
  192.7730  173.8790  138.9500 C   0  0  0  0  0  1  0  0  0  0  0  0
  187.4990  176.5960  141.1600 C   0  0  0  0  0  3  0  0  0  0  0  0
  187.9480  174.7000  139.6500 C   0  0  0  0  0  3  0  0  0  0  0  0
  192.4450  172.9490  141.2500 C   0  0  0  0  0  2  0  0  0  0  0  0
  191.6830  175.9870  145.7550 C   0  0  1  0  0  3  0  0  0  0  0  0
  191.8640  176.8840  144.6120 N   0  0  0  0  0  2  0  0  0  0  0  0
  188.2500  175.3760  140.8500 C   0  0  0  0  0  0  0  0  0  0  0  0
  191.4480  174.8290  142.7960 C   0  0  2  0  0  3  0  0  0  0  0  0
  190.8470  172.3170  139.3410 C   0  0  0  0  0  2  0  0  0  0  0  0
  188.2530  176.9140  143.4790 N   0  0  0  0  0  0  0  0  0  0  0  0
  193.1910  171.4970  139.3840 C   0  0  0  0  0  1  0  0  0  0  0  0
  190.9680  174.7140  145.3360 C   0  0  0  0  0  2  0  0  0  0  0  0
  193.8120  176.7710  146.8360 C   0  0  0  0  0  1  0  0  0  0  0  0
  191.6780  174.0840  144.1330 C   0  0  2  0  0  3  0  0  0  0  0  0
  187.5030  177.2700  142.3070 C   0  0  0  0  0  3  0  0  0  0  0  0
  187.8770  176.2350  145.8370 C   0  0  0  0  0  3  0  0  0  0  0  0
  187.6250  177.1130  144.7660 C   0  0  0  0  0  0  0  0  0  0  0  0
  186.7740  178.2100  144.9830 C   0  0  0  0  0  3  0  0  0  0  0  0
  185.3560  179.4770  146.4190 F   0  0  0  0  0  0  0  0  0  0  0  0
  186.4310  177.5320  147.2810 C   0  0  0  0  0  3  0  0  0  0  0  0
  186.1780  178.4160  146.2290 C   0  0  0  0  0  0  0  0  0  0  0  0
  187.2820  176.4410  147.0840 C   0  0  0  0  0  3  0  0  0  0  0  0
  194.6910  171.1850  145.5910 C   0  0  0  0  0  2  0  0  0  0  0  0
  194.7530  172.4610  145.4970 N   0  0  0  0  0  0  0  0  0  0  0  0
  1 12  1  0  0  0  0
  1  4  1  0  0  0  0
  2 17  1  0  0  0  0
  3  7  1  0  0  0  0
  5 19  1  0  0  0  0
  6  9  2  0  0  0  0
  7 21  1  0  0  0  0
  7 10  2  0  0  0  0
  8 26  1  0  0  0  0
  9  3  1  0  0  0  0
  9 13  1  0  0  0  0
 10 23  1  0  0  0  0
 10  5  1  0  0  0  0
 11 16  2  0  0  0  0
 11  6  1  0  0  0  0
 12  4  1  0  0  0  0
 12  8  1  0  0  0  0
 13 21  1  0  0  0  0
 14  2  1  0  0  0  0
 15 28  2  0  0  0  0
 16 20  1  0  0  0  0
 17 13  1  0  0  0  0
 18  8  1  0  0  0  0
 19 18  1  0  0  0  0
 20 15  1  0  0  0  0
 20  3  2  0  0  0  0
 21 27  1  0  0  0  0
 22  2  1  0  0  0  0
 22  6  1  0  0  0  0
 23 30  1  0  0  0  0
 24  2  1  0  0  0  0
 25 18  1  0  0  0  0
 27  1  1  0  0  0  0
 27 25  1  0  0  0  0
 28 23  1  0  0  0  0
 29 35  1  0  0  0  0
 30 31  1  0  0  0  0
 30 29  2  0  0  0  0
 31 34  2  0  0  0  0
 34 32  1  0  0  0  0
 34 33  1  0  0  0  0
 35 33  2  0  0  0  0
 37 36  2  0  0  0  0
 37  4  1  0  0  0  0
M  END
>  <MODEL>
1

>  <REMARK>
 VINA RESULT:      -9.0      0.000      0.000
  Name = 
  2 active torsions:
  status: ('A' for Active; 'I' for Inactive)
    1  A    between atoms: C_4  and  N_37
    2  A    between atoms: N_23  and  C_30
                            x       y       z     vdW  Elec       q    Type
                         _______ _______ _______ _____ _____    ______ ____

>  <TORSDO>
F 2

$$$$
=
 OpenBabel11112417283D

 37 44  0  0  1  0  0  0  0  0999 V2000
  189.7360  173.7600  140.9710 C   0  0  2  0  0  3  0  0  0  0  0  0
  187.1260  176.8960  143.5390 C   0  0  0  0  0  0  0  0  0  0  0  0
  190.7070  175.7220  145.2790 C   0  0  0  0  0  0  0  0  0  0  0  0
  189.6240  172.4150  140.2850 C   0  0  2  0  0  3  0  0  0  0  0  0
  193.6210  174.9370  142.8150 C   0  0  0  0  0  2  0  0  0  0  0  0
  188.4740  176.5290  145.6470 C   0  0  0  0  0  0  0  0  0  0  0  0
  191.4660  175.2550  144.1130 C   0  0  0  0  0  0  0  0  0  0  0  0
  192.0640  172.8080  140.1660 C   0  0  2  0  0  3  0  0  0  0  0  0
  189.4080  175.8520  144.8860 C   0  0  0  0  0  0  0  0  0  0  0  0
  192.7990  175.0250  144.0940 C   0  0  0  0  0  0  0  0  0  0  0  0
  188.8570  177.0410  146.8490 N   0  0  0  0  0  0  0  0  0  0  0  0
  190.6900  173.4000  139.8160 C   0  0  2  0  0  3  0  0  0  0  0  0
  189.2100  175.5470  143.5280 N   0  0  0  0  0  0  0  0  0  0  0  0
  187.7160  178.2460  143.1660 C   0  0  0  0  0  1  0  0  0  0  0  0
  192.5390  176.4670  146.8600 C   0  0  0  0  0  3  0  0  0  0  0  0
  190.1580  176.9580  147.2670 C   0  0  0  0  0  3  0  0  0  0  0  0
  187.9330  175.7730  142.8520 C   0  0  0  0  0  2  0  0  0  0  0  0
  192.5970  173.2000  141.5400 C   0  0  1  0  0  3  0  0  0  0  0  0
  192.8600  174.6380  141.6070 N   0  0  0  0  0  2  0  0  0  0  0  0
  191.1330  176.3230  146.4710 C   0  0  0  0  0  0  0  0  0  0  0  0
  190.4780  175.1210  142.9440 C   0  0  2  0  0  3  0  0  0  0  0  0
  187.1010  176.7440  145.0800 C   0  0  0  0  0  2  0  0  0  0  0  0
  193.5170  174.8100  145.3290 N   0  0  0  0  0  0  0  0  0  0  0  0
  185.7030  176.8440  143.0290 C   0  0  0  0  0  1  0  0  0  0  0  0
  191.5420  172.7950  142.5560 C   0  0  0  0  0  2  0  0  0  0  0  0
  193.0680  173.1250  139.0730 C   0  0  0  0  0  1  0  0  0  0  0  0
  190.3010  173.6810  142.4070 C   0  0  2  0  0  3  0  0  0  0  0  0
  193.5810  175.8090  146.3590 C   0  0  0  0  0  3  0  0  0  0  0  0
  195.7830  173.8340  145.6040 C   0  0  0  0  0  3  0  0  0  0  0  0
  194.3940  173.6660  145.4470 C   0  0  0  0  0  0  0  0  0  0  0  0
  193.8720  172.3620  145.4410 C   0  0  0  0  0  3  0  0  0  0  0  0
  194.1920  170.0030  145.5580 F   0  0  0  0  0  0  0  0  0  0  0  0
  196.0900  171.4350  145.7190 C   0  0  0  0  0  3  0  0  0  0  0  0
  194.7130  171.2540  145.5720 C   0  0  0  0  0  0  0  0  0  0  0  0
  196.6250  172.7260  145.7360 C   0  0  0  0  0  3  0  0  0  0  0  0
  188.4030  173.4000  138.5280 C   0  0  0  0  0  2  0  0  0  0  0  0
  188.5190  172.4390  139.3680 N   0  0  0  0  0  0  0  0  0  0  0  0
  1 27  1  0  0  0  0
  2 22  1  0  0  0  0
  3 20  1  0  0  0  0
  4  1  1  0  0  0  0
  5 10  1  0  0  0  0
  6 11  2  0  0  0  0
  7  3  1  0  0  0  0
  8 18  1  0  0  0  0
  9  3  2  0  0  0  0
  9  6  1  0  0  0  0
 10  7  2  0  0  0  0
 10 23  1  0  0  0  0
 11 16  1  0  0  0  0
 12  8  1  0  0  0  0
 12  4  1  0  0  0  0
 12  1  1  0  0  0  0
 13  9  1  0  0  0  0
 14  2  1  0  0  0  0
 17 13  1  0  0  0  0
 17  2  1  0  0  0  0
 18 19  1  0  0  0  0
 18 25  1  0  0  0  0
 19  5  1  0  0  0  0
 20 15  1  0  0  0  0
 20 16  2  0  0  0  0
 21 13  1  0  0  0  0
 21  7  1  0  0  0  0
 22  6  1  0  0  0  0
 23 30  1  0  0  0  0
 23 28  1  0  0  0  0
 24  2  1  0  0  0  0
 26  8  1  0  0  0  0
 27 25  1  0  0  0  0
 27 21  1  0  0  0  0
 28 15  2  0  0  0  0
 29 35  1  0  0  0  0
 30 29  2  0  0  0  0
 31 30  1  0  0  0  0
 31 34  2  0  0  0  0
 32 34  1  0  0  0  0
 33 35  2  0  0  0  0
 34 33  1  0  0  0  0
 36 37  2  0  0  0  0
 37  4  1  0  0  0  0
M  END
>  <MODEL>
2

>  <REMARK>
 VINA RESULT:      -9.0      2.598      7.302
  Name = 
  2 active torsions:
  status: ('A' for Active; 'I' for Inactive)
    1  A    between atoms: C_4  and  N_37
    2  A    between atoms: N_23  and  C_30
                            x       y       z     vdW  Elec       q    Type
                         _______ _______ _______ _____ _____    ______ ____

>  <TORSDO>
F 2

$$$$
=
 OpenBabel11112417283D

 37 44  0  0  1  0  0  0  0  0999 V2000
  193.1180  173.9300  144.3800 C   0  0  2  0  0  3  0  0  0  0  0  0
  192.3050  172.6110  139.8140 C   0  0  0  0  0  0  0  0  0  0  0  0
  189.3400  174.9450  141.5430 C   0  0  0  0  0  0  0  0  0  0  0  0
  193.4510  173.3430  145.7350 C   0  0  2  0  0  3  0  0  0  0  0  0
  190.5440  177.5640  144.1640 C   0  0  0  0  0  2  0  0  0  0  0  0
  189.8680  173.2820  139.8900 C   0  0  0  0  0  0  0  0  0  0  0  0
  190.0720  175.5970  142.6340 C   0  0  0  0  0  0  0  0  0  0  0  0
  192.9280  175.6830  146.3450 C   0  0  2  0  0  3  0  0  0  0  0  0
  190.1230  173.9260  141.0860 C   0  0  0  0  0  0  0  0  0  0  0  0
  189.6330  176.6690  143.3340 C   0  0  0  0  0  0  0  0  0  0  0  0
  188.7720  173.6480  139.1710 N   0  0  0  0  0  0  0  0  0  0  0  0
  193.8070  174.7980  145.4480 C   0  0  2  0  0  3  0  0  0  0  0  0
  191.3580  173.8410  141.7510 N   0  0  0  0  0  0  0  0  0  0  0  0
  192.8060  173.7950  139.0030 C   0  0  0  0  0  1  0  0  0  0  0  0
  187.5170  176.6250  141.0270 C   0  0  0  0  0  3  0  0  0  0  0  0
  187.9770  174.6850  139.5790 C   0  0  0  0  0  3  0  0  0  0  0  0
  192.4210  172.9320  141.3200 C   0  0  0  0  0  2  0  0  0  0  0  0
  191.5980  176.0990  145.7240 C   0  0  1  0  0  3  0  0  0  0  0  0
  191.8120  176.9620  144.5610 N   0  0  0  0  0  2  0  0  0  0  0  0
  188.2610  175.3900  140.7660 C   0  0  0  0  0  0  0  0  0  0  0  0
  191.4120  174.8620  142.7930 C   0  0  2  0  0  3  0  0  0  0  0  0
  190.8550  172.2650  139.3950 C   0  0  0  0  0  2  0  0  0  0  0  0
  188.2270  176.9980  143.3520 N   0  0  0  0  0  0  0  0  0  0  0  0
  193.1890  171.4210  139.5090 C   0  0  0  0  0  1  0  0  0  0  0  0
  190.8780  174.8220  145.3240 C   0  0  0  0  0  2  0  0  0  0  0  0
  193.7120  176.8890  146.8280 C   0  0  0  0  0  1  0  0  0  0  0  0
  191.6050  174.1520  144.1540 C   0  0  2  0  0  3  0  0  0  0  0  0
  187.5040  177.3300  142.1560 C   0  0  0  0  0  3  0  0  0  0  0  0
  186.7310  178.3510  144.7990 C   0  0  0  0  0  3  0  0  0  0  0  0
  187.5740  177.2390  144.6200 C   0  0  0  0  0  0  0  0  0  0  0  0
  187.7400  176.3430  145.6900 C   0  0  0  0  0  3  0  0  0  0  0  0
  187.2750  175.6900  147.9340 F   0  0  0  0  0  0  0  0  0  0  0  0
  186.2720  177.6750  147.0780 C   0  0  0  0  0  3  0  0  0  0  0  0
  187.0980  176.5610  146.9110 C   0  0  0  0  0  0  0  0  0  0  0  0
  186.0880  178.5700  146.0210 C   0  0  0  0  0  3  0  0  0  0  0  0
  194.5520  171.2610  145.7270 C   0  0  0  0  0  2  0  0  0  0  0  0
  194.6340  172.5350  145.6260 N   0  0  0  0  0  0  0  0  0  0  0  0
  1 12  1  0  0  0  0
  1  4  1  0  0  0  0
  2 17  1  0  0  0  0
  3  7  1  0  0  0  0
  5 19  1  0  0  0  0
  6  9  2  0  0  0  0
  7 21  1  0  0  0  0
  7 10  2  0  0  0  0
  8 26  1  0  0  0  0
  9  3  1  0  0  0  0
  9 13  1  0  0  0  0
 10 23  1  0  0  0  0
 10  5  1  0  0  0  0
 11 16  2  0  0  0  0
 11  6  1  0  0  0  0
 12  4  1  0  0  0  0
 12  8  1  0  0  0  0
 13 21  1  0  0  0  0
 14  2  1  0  0  0  0
 15 28  2  0  0  0  0
 16 20  1  0  0  0  0
 17 13  1  0  0  0  0
 18  8  1  0  0  0  0
 19 18  1  0  0  0  0
 20 15  1  0  0  0  0
 20  3  2  0  0  0  0
 21 27  1  0  0  0  0
 22  2  1  0  0  0  0
 22  6  1  0  0  0  0
 23 30  1  0  0  0  0
 24  2  1  0  0  0  0
 25 18  1  0  0  0  0
 27  1  1  0  0  0  0
 27 25  1  0  0  0  0
 28 23  1  0  0  0  0
 29 35  1  0  0  0  0
 30 29  2  0  0  0  0
 30 31  1  0  0  0  0
 31 34  2  0  0  0  0
 34 33  1  0  0  0  0
 34 32  1  0  0  0  0
 35 33  2  0  0  0  0
 37 36  2  0  0  0  0
 37  4  1  0  0  0  0
M  END
>  <MODEL>
3

>  <REMARK>
 VINA RESULT:      -8.8      0.756      1.097
  Name = 
  2 active torsions:
  status: ('A' for Active; 'I' for Inactive)
    1  A    between atoms: C_4  and  N_37
    2  A    between atoms: N_23  and  C_30
                            x       y       z     vdW  Elec       q    Type
                         _______ _______ _______ _____ _____    ______ ____

>  <TORSDO>
F 2

$$$$
=
 OpenBabel11112417283D

 37 44  0  0  1  0  0  0  0  0999 V2000
  192.0880  173.7900  143.9790 C   0  0  2  0  0  3  0  0  0  0  0  0
  191.1790  172.9940  139.3120 C   0  0  0  0  0  0  0  0  0  0  0  0
  188.5130  175.5300  141.2320 C   0  0  0  0  0  0  0  0  0  0  0  0
  192.3240  173.0480  145.2780 C   0  0  2  0  0  3  0  0  0  0  0  0
  190.0060  177.7310  144.0800 C   0  0  0  0  0  2  0  0  0  0  0  0
  188.8470  173.9650  139.4400 C   0  0  0  0  0  0  0  0  0  0  0  0
  189.3080  175.9830  142.3800 C   0  0  0  0  0  0  0  0  0  0  0  0
  192.0970  175.3730  146.0920 C   0  0  2  0  0  3  0  0  0  0  0  0
  189.1660  174.4630  140.6890 C   0  0  0  0  0  0  0  0  0  0  0  0
  189.0000  177.0370  143.1710 C   0  0  0  0  0  0  0  0  0  0  0  0
  187.8180  174.5310  138.7530 N   0  0  0  0  0  0  0  0  0  0  0  0
  192.8680  174.4650  145.1220 C   0  0  2  0  0  3  0  0  0  0  0  0
  190.3700  174.1610  141.3480 N   0  0  0  0  0  0  0  0  0  0  0  0
  191.8390  174.1690  138.6110 C   0  0  0  0  0  1  0  0  0  0  0  0
  186.9290  177.4710  140.8640 C   0  0  0  0  0  3  0  0  0  0  0  0
  187.1560  175.6220  139.2500 C   0  0  0  0  0  3  0  0  0  0  0  0
  191.3130  173.1630  140.8410 C   0  0  0  0  0  2  0  0  0  0  0  0
  190.8410  176.0100  145.5070 C   0  0  1  0  0  3  0  0  0  0  0  0
  191.1800  176.9370  144.4260 N   0  0  0  0  0  2  0  0  0  0  0  0
  187.5120  176.1780  140.4950 C   0  0  0  0  0  0  0  0  0  0  0  0
  190.5400  175.0710  142.4770 C   0  0  2  0  0  3  0  0  0  0  0  0
  189.7030  172.8760  138.8600 C   0  0  0  0  0  2  0  0  0  0  0  0
  187.6470  177.5430  143.2150 N   0  0  0  0  0  0  0  0  0  0  0  0
  191.9070  171.7310  138.9050 C   0  0  0  0  0  1  0  0  0  0  0  0
  189.9680  174.8770  144.9930 C   0  0  0  0  0  2  0  0  0  0  0  0
  193.0220  176.4210  146.6830 C   0  0  0  0  0  1  0  0  0  0  0  0
  190.6200  174.2250  143.7700 C   0  0  2  0  0  3  0  0  0  0  0  0
  186.9910  178.0700  142.0500 C   0  0  0  0  0  3  0  0  0  0  0  0
  186.2000  178.8790  144.7250 C   0  0  0  0  0  3  0  0  0  0  0  0
  187.0120  177.7530  144.4970 C   0  0  0  0  0  0  0  0  0  0  0  0
  187.1660  176.8160  145.5320 C   0  0  0  0  0  3  0  0  0  0  0  0
  186.7060  176.0940  147.7560 F   0  0  0  0  0  0  0  0  0  0  0  0
  185.7450  178.1320  146.9820 C   0  0  0  0  0  3  0  0  0  0  0  0
  186.5410  177.0050  146.7670 C   0  0  0  0  0  0  0  0  0  0  0  0
  185.5730  179.0690  145.9590 C   0  0  0  0  0  3  0  0  0  0  0  0
  194.6030  172.4550  145.3440 C   0  0  0  0  0  2  0  0  0  0  0  0
  193.3940  172.1070  145.1010 N   0  0  0  0  0  0  0  0  0  0  0  0
  1 12  1  0  0  0  0
  1  4  1  0  0  0  0
  2 17  1  0  0  0  0
  3  7  1  0  0  0  0
  5 19  1  0  0  0  0
  6  9  2  0  0  0  0
  7 21  1  0  0  0  0
  7 10  2  0  0  0  0
  8 26  1  0  0  0  0
  9  3  1  0  0  0  0
  9 13  1  0  0  0  0
 10 23  1  0  0  0  0
 10  5  1  0  0  0  0
 11 16  2  0  0  0  0
 11  6  1  0  0  0  0
 12  4  1  0  0  0  0
 12  8  1  0  0  0  0
 13 21  1  0  0  0  0
 14  2  1  0  0  0  0
 15 28  2  0  0  0  0
 16 20  1  0  0  0  0
 17 13  1  0  0  0  0
 18  8  1  0  0  0  0
 19 18  1  0  0  0  0
 20 15  1  0  0  0  0
 20  3  2  0  0  0  0
 21 27  1  0  0  0  0
 22  2  1  0  0  0  0
 22  6  1  0  0  0  0
 23 30  1  0  0  0  0
 24  2  1  0  0  0  0
 25 18  1  0  0  0  0
 27  1  1  0  0  0  0
 27 25  1  0  0  0  0
 28 23  1  0  0  0  0
 29 35  1  0  0  0  0
 30 29  2  0  0  0  0
 30 31  1  0  0  0  0
 31 34  2  0  0  0  0
 34 33  1  0  0  0  0
 34 32  1  0  0  0  0
 35 33  2  0  0  0  0
 37  4  1  0  0  0  0
 37 36  2  0  0  0  0
M  END
>  <MODEL>
4

>  <REMARK>
 VINA RESULT:      -8.5      1.183      1.483
  Name = 
  2 active torsions:
  status: ('A' for Active; 'I' for Inactive)
    1  A    between atoms: C_4  and  N_37
    2  A    between atoms: N_23  and  C_30
                            x       y       z     vdW  Elec       q    Type
                         _______ _______ _______ _____ _____    ______ ____

>  <TORSDO>
F 2

$$$$
=
 OpenBabel11112417283D

 37 44  0  0  1  0  0  0  0  0999 V2000
  191.1360  173.7520  140.9730 C   0  0  2  0  0  3  0  0  0  0  0  0
  195.6360  174.2550  142.6290 C   0  0  0  0  0  0  0  0  0  0  0  0
  192.6840  176.0400  144.9370 C   0  0  0  0  0  0  0  0  0  0  0  0
  190.3050  173.9790  139.7280 C   0  0  2  0  0  3  0  0  0  0  0  0
  189.2280  174.2410  144.9730 C   0  0  0  0  0  2  0  0  0  0  0  0
  194.9940  176.0650  144.2750 C   0  0  0  0  0  0  0  0  0  0  0  0
  191.4900  175.2960  144.5210 C   0  0  0  0  0  0  0  0  0  0  0  0
  188.5450  173.4470  141.3840 C   0  0  2  0  0  3  0  0  0  0  0  0
  193.6680  175.7560  144.0370 C   0  0  0  0  0  0  0  0  0  0  0  0
  190.3050  175.3000  145.1740 C   0  0  0  0  0  0  0  0  0  0  0  0
  195.3180  176.7130  145.4260 N   0  0  0  0  0  0  0  0  0  0  0  0
  189.8480  172.9390  140.7460 C   0  0  2  0  0  3  0  0  0  0  0  0
  193.2610  174.8460  143.0460 N   0  0  0  0  0  0  0  0  0  0  0  0
  195.7790  173.1230  143.6330 C   0  0  0  0  0  1  0  0  0  0  0  0
  192.0960  176.7400  147.2990 C   0  0  0  0  0  3  0  0  0  0  0  0
  194.3650  176.9900  146.3700 C   0  0  0  0  0  3  0  0  0  0  0  0
  194.1950  174.2740  142.0750 C   0  0  0  0  0  2  0  0  0  0  0  0
  188.7370  174.2930  142.6390 C   0  0  1  0  0  3  0  0  0  0  0  0
  189.3160  173.4960  143.7220 N   0  0  0  0  0  2  0  0  0  0  0  0
  193.0190  176.6260  146.1660 C   0  0  0  0  0  0  0  0  0  0  0  0
  191.8560  174.5080  143.2540 C   0  0  2  0  0  3  0  0  0  0  0  0
  196.0290  175.5970  143.2930 C   0  0  0  0  0  2  0  0  0  0  0  0
  189.9850  176.3670  146.0940 N   0  0  0  0  0  0  0  0  0  0  0  0
  196.5860  173.9910  141.4810 C   0  0  0  0  0  1  0  0  0  0  0  0
  189.6570  175.4420  142.2620 C   0  0  0  0  0  2  0  0  0  0  0  0
  187.5960  172.2910  141.6380 C   0  0  0  0  0  1  0  0  0  0  0  0
  191.0700  174.9160  141.9860 C   0  0  2  0  0  3  0  0  0  0  0  0
  190.7710  176.6230  147.2690 C   0  0  0  0  0  3  0  0  0  0  0  0
  188.3290  177.6500  144.7640 C   0  0  0  0  0  3  0  0  0  0  0  0
  188.7140  177.0460  145.9750 C   0  0  0  0  0  0  0  0  0  0  0  0
  187.8210  177.0870  147.0590 C   0  0  0  0  0  3  0  0  0  0  0  0
  185.7400  177.7610  148.0030 F   0  0  0  0  0  0  0  0  0  0  0  0
  186.2200  178.3300  145.7390 C   0  0  0  0  0  3  0  0  0  0  0  0
  186.5850  177.7270  146.9450 C   0  0  0  0  0  0  0  0  0  0  0  0
  187.0920  178.2900  144.6480 C   0  0  0  0  0  3  0  0  0  0  0  0
  190.7990  173.7900  137.4330 C   0  0  0  0  0  2  0  0  0  0  0  0
  190.9230  173.3140  138.6150 N   0  0  0  0  0  0  0  0  0  0  0  0
  1 27  1  0  0  0  0
  2 22  1  0  0  0  0
  2 14  1  0  0  0  0
  3 20  1  0  0  0  0
  4 12  1  0  0  0  0
  4  1  1  0  0  0  0
  5 10  1  0  0  0  0
  6 11  2  0  0  0  0
  7  3  1  0  0  0  0
  7 10  2  0  0  0  0
  8 26  1  0  0  0  0
  8 18  1  0  0  0  0
  9  6  1  0  0  0  0
  9  3  2  0  0  0  0
 10 23  1  0  0  0  0
 11 16  1  0  0  0  0
 12  1  1  0  0  0  0
 12  8  1  0  0  0  0
 13 21  1  0  0  0  0
 13  9  1  0  0  0  0
 17  2  1  0  0  0  0
 17 13  1  0  0  0  0
 18 19  1  0  0  0  0
 19  5  1  0  0  0  0
 20 16  2  0  0  0  0
 20 15  1  0  0  0  0
 21  7  1  0  0  0  0
 22  6  1  0  0  0  0
 23 28  1  0  0  0  0
 24  2  1  0  0  0  0
 25 18  1  0  0  0  0
 27 25  1  0  0  0  0
 27 21  1  0  0  0  0
 28 15  2  0  0  0  0
 29 30  1  0  0  0  0
 30 23  1  0  0  0  0
 30 31  2  0  0  0  0
 33 34  2  0  0  0  0
 34 31  1  0  0  0  0
 34 32  1  0  0  0  0
 35 29  2  0  0  0  0
 35 33  1  0  0  0  0
 36 37  2  0  0  0  0
 37  4  1  0  0  0  0
M  END
>  <MODEL>
5

>  <REMARK>
 VINA RESULT:      -8.2      1.976      5.413
  Name = 
  2 active torsions:
  status: ('A' for Active; 'I' for Inactive)
    1  A    between atoms: C_4  and  N_37
    2  A    between atoms: N_23  and  C_30
                            x       y       z     vdW  Elec       q    Type
                         _______ _______ _______ _____ _____    ______ ____

>  <TORSDO>
F 2

$$$$
=
 OpenBabel11112417283D

 37 44  0  0  1  0  0  0  0  0999 V2000
  194.9160  174.2490  144.6030 C   0  0  2  0  0  3  0  0  0  0  0  0
  194.3560  171.3230  140.8120 C   0  0  0  0  0  0  0  0  0  0  0  0
  190.9550  173.4040  141.9680 C   0  0  0  0  0  0  0  0  0  0  0  0
  195.4030  174.2430  146.0360 C   0  0  2  0  0  3  0  0  0  0  0  0
  191.5550  176.9490  143.4680 C   0  0  0  0  0  2  0  0  0  0  0  0
  191.8310  171.4370  140.9010 C   0  0  0  0  0  0  0  0  0  0  0  0
  191.5330  174.5280  142.7130 C   0  0  0  0  0  0  0  0  0  0  0  0
  194.3540  176.4790  145.9010 C   0  0  2  0  0  3  0  0  0  0  0  0
  191.9480  172.4860  141.7930 C   0  0  0  0  0  0  0  0  0  0  0  0
  190.8660  175.6520  143.0650 C   0  0  0  0  0  0  0  0  0  0  0  0
  190.6670  171.2920  140.2110 N   0  0  0  0  0  0  0  0  0  0  0  0
  195.4010  175.5550  145.2600 C   0  0  2  0  0  3  0  0  0  0  0  0
  193.1800  172.9000  142.3270 N   0  0  0  0  0  0  0  0  0  0  0  0
  194.5480  172.2410  139.6170 C   0  0  0  0  0  1  0  0  0  0  0  0
  188.7780  174.3750  141.1130 C   0  0  0  0  0  3  0  0  0  0  0  0
  189.6570  172.2070  140.3360 C   0  0  0  0  0  3  0  0  0  0  0  0
  194.4190  172.1510  142.1140 C   0  0  0  0  0  2  0  0  0  0  0  0
  192.9530  176.3620  145.3100 C   0  0  1  0  0  3  0  0  0  0  0  0
  192.9360  176.8060  143.9150 N   0  0  0  0  0  2  0  0  0  0  0  0
  189.7880  173.3160  141.1960 C   0  0  0  0  0  0  0  0  0  0  0  0
  193.0110  174.1990  142.9720 C   0  0  2  0  0  3  0  0  0  0  0  0
  193.0210  170.5510  140.6710 C   0  0  0  0  0  2  0  0  0  0  0  0
  189.4220  175.6560  143.1120 N   0  0  0  0  0  0  0  0  0  0  0  0
  195.4900  170.3210  140.8270 C   0  0  0  0  0  1  0  0  0  0  0  0
  192.5470  174.9020  145.4180 C   0  0  0  0  0  2  0  0  0  0  0  0
  194.8400  177.9160  145.8890 C   0  0  0  0  0  1  0  0  0  0  0  0
  193.3910  174.0500  144.4640 C   0  0  2  0  0  3  0  0  0  0  0  0
  188.6200  175.4000  141.9470 C   0  0  0  0  0  3  0  0  0  0  0  0
  188.9390  175.5540  145.5440 C   0  0  0  0  0  3  0  0  0  0  0  0
  188.7540  176.1630  144.2890 C   0  0  0  0  0  0  0  0  0  0  0  0
  187.9310  177.3000  144.2100 C   0  0  0  0  0  3  0  0  0  0  0  0
  186.5030  178.8980  145.2510 F   0  0  0  0  0  0  0  0  0  0  0  0
  187.4830  177.1840  146.5850 C   0  0  0  0  0  3  0  0  0  0  0  0
  187.2970  177.8040  145.3470 C   0  0  0  0  0  0  0  0  0  0  0  0
  188.3050  176.0580  146.6830 C   0  0  0  0  0  3  0  0  0  0  0  0
  197.1490  172.9200  145.1690 C   0  0  0  0  0  2  0  0  0  0  0  0
  196.7410  173.7210  146.0820 N   0  0  0  0  0  0  0  0  0  0  0  0
  1 12  1  0  0  0  0
  1  4  1  0  0  0  0
  2 24  1  0  0  0  0
  2 17  1  0  0  0  0
  3  7  1  0  0  0  0
  4 37  1  0  0  0  0
  5 19  1  0  0  0  0
  6  9  2  0  0  0  0
  7 21  1  0  0  0  0
  7 10  2  0  0  0  0
  9  3  1  0  0  0  0
  9 13  1  0  0  0  0
 10 23  1  0  0  0  0
 10  5  1  0  0  0  0
 11 16  2  0  0  0  0
 11  6  1  0  0  0  0
 12  8  1  0  0  0  0
 12  4  1  0  0  0  0
 13 21  1  0  0  0  0
 14  2  1  0  0  0  0
 15 20  1  0  0  0  0
 15 28  2  0  0  0  0
 16 20  1  0  0  0  0
 17 13  1  0  0  0  0
 18 25  1  0  0  0  0
 18  8  1  0  0  0  0
 19 18  1  0  0  0  0
 20  3  2  0  0  0  0
 21 27  1  0  0  0  0
 22  2  1  0  0  0  0
 22  6  1  0  0  0  0
 23 30  1  0  0  0  0
 26  8  1  0  0  0  0
 27  1  1  0  0  0  0
 27 25  1  0  0  0  0
 28 23  1  0  0  0  0
 29 35  1  0  0  0  0
 30 29  2  0  0  0  0
 31 30  1  0  0  0  0
 31 34  2  0  0  0  0
 32 34  1  0  0  0  0
 33 35  2  0  0  0  0
 34 33  1  0  0  0  0
 36 37  2  0  0  0  0
M  END
>  <MODEL>
6

>  <REMARK>
 VINA RESULT:      -8.2      1.598      2.136
  Name = 
  2 active torsions:
  status: ('A' for Active; 'I' for Inactive)
    1  A    between atoms: C_4  and  N_37
    2  A    between atoms: N_23  and  C_30
                            x       y       z     vdW  Elec       q    Type
                         _______ _______ _______ _____ _____    ______ ____

>  <TORSDO>
F 2

$$$$
=
 OpenBabel11112417283D

 37 44  0  0  1  0  0  0  0  0999 V2000
  193.7630  172.2520  143.8580 C   0  0  2  0  0  3  0  0  0  0  0  0
  192.4050  170.7410  139.4850 C   0  0  0  0  0  0  0  0  0  0  0  0
  189.8460  173.4600  141.2990 C   0  0  0  0  0  0  0  0  0  0  0  0
  194.1670  171.7200  145.2170 C   0  0  2  0  0  3  0  0  0  0  0  0
  191.5320  176.1040  143.6120 C   0  0  0  0  0  2  0  0  0  0  0  0
  190.0590  171.6540  139.7280 C   0  0  0  0  0  0  0  0  0  0  0  0
  190.7360  174.1020  142.2730 C   0  0  0  0  0  0  0  0  0  0  0  0
  193.9240  174.1330  145.7030 C   0  0  2  0  0  3  0  0  0  0  0  0
  190.4840  172.3430  140.8480 C   0  0  0  0  0  0  0  0  0  0  0  0
  190.4670  175.2540  142.9310 C   0  0  0  0  0  0  0  0  0  0  0  0
  188.9390  172.0820  139.0830 N   0  0  0  0  0  0  0  0  0  0  0  0
  194.6290  173.1120  144.7970 C   0  0  2  0  0  3  0  0  0  0  0  0
  191.7640  172.1760  141.4070 N   0  0  0  0  0  0  0  0  0  0  0  0
  192.9350  171.8170  138.5520 C   0  0  0  0  0  1  0  0  0  0  0  0
  188.1480  175.2790  140.8280 C   0  0  0  0  0  3  0  0  0  0  0  0
  188.2860  173.2160  139.4860 C   0  0  0  0  0  3  0  0  0  0  0  0
  192.6910  171.1410  140.9490 C   0  0  0  0  0  2  0  0  0  0  0  0
  192.5860  174.6400  145.1740 C   0  0  1  0  0  3  0  0  0  0  0  0
  192.7690  175.4040  143.9380 N   0  0  0  0  0  2  0  0  0  0  0  0
  188.7460  173.9620  140.5900 C   0  0  0  0  0  0  0  0  0  0  0  0
  192.0110  173.2500  142.3650 C   0  0  2  0  0  3  0  0  0  0  0  0
  190.8960  170.5150  139.2210 C   0  0  0  0  0  2  0  0  0  0  0  0
  189.1050  175.7220  143.0500 N   0  0  0  0  0  0  0  0  0  0  0  0
  193.1410  169.4530  139.1890 C   0  0  0  0  0  1  0  0  0  0  0  0
  191.7150  173.4190  144.9300 C   0  0  0  0  0  2  0  0  0  0  0  0
  194.8590  175.2830  146.0290 C   0  0  0  0  0  1  0  0  0  0  0  0
  192.2640  172.6090  143.7500 C   0  0  2  0  0  3  0  0  0  0  0  0
  188.3080  176.0500  141.9010 C   0  0  0  0  0  3  0  0  0  0  0  0
  188.9660  175.3900  145.5050 C   0  0  0  0  0  3  0  0  0  0  0  0
  188.6000  176.1040  144.3490 C   0  0  0  0  0  0  0  0  0  0  0  0
  187.7590  177.2210  144.4890 C   0  0  0  0  0  3  0  0  0  0  0  0
  186.4660  178.6810  145.8580 F   0  0  0  0  0  0  0  0  0  0  0  0
  187.6460  176.8810  146.8820 C   0  0  0  0  0  3  0  0  0  0  0  0
  187.2810  177.6040  145.7440 C   0  0  0  0  0  0  0  0  0  0  0  0
  188.4890  175.7730  146.7620 C   0  0  0  0  0  3  0  0  0  0  0  0
  196.4630  171.2140  145.0770 C   0  0  0  0  0  2  0  0  0  0  0  0
  195.2530  170.7930  145.0610 N   0  0  0  0  0  0  0  0  0  0  0  0
  1 12  1  0  0  0  0
  1  4  1  0  0  0  0
  2 17  1  0  0  0  0
  3  7  1  0  0  0  0
  5 19  1  0  0  0  0
  6  9  2  0  0  0  0
  7 21  1  0  0  0  0
  7 10  2  0  0  0  0
  8 26  1  0  0  0  0
  9  3  1  0  0  0  0
  9 13  1  0  0  0  0
 10 23  1  0  0  0  0
 10  5  1  0  0  0  0
 11 16  2  0  0  0  0
 11  6  1  0  0  0  0
 12  4  1  0  0  0  0
 12  8  1  0  0  0  0
 13 21  1  0  0  0  0
 14  2  1  0  0  0  0
 15 28  2  0  0  0  0
 16 20  1  0  0  0  0
 17 13  1  0  0  0  0
 18  8  1  0  0  0  0
 19 18  1  0  0  0  0
 20 15  1  0  0  0  0
 20  3  2  0  0  0  0
 21 27  1  0  0  0  0
 22  2  1  0  0  0  0
 22  6  1  0  0  0  0
 23 30  1  0  0  0  0
 24  2  1  0  0  0  0
 25 18  1  0  0  0  0
 27  1  1  0  0  0  0
 27 25  1  0  0  0  0
 28 23  1  0  0  0  0
 29 35  1  0  0  0  0
 30 31  1  0  0  0  0
 30 29  2  0  0  0  0
 31 34  2  0  0  0  0
 34 32  1  0  0  0  0
 34 33  1  0  0  0  0
 35 33  2  0  0  0  0
 37 36  2  0  0  0  0
 37  4  1  0  0  0  0
M  END
>  <MODEL>
7

>  <REMARK>
 VINA RESULT:      -8.0      1.358      1.688
  Name = 
  2 active torsions:
  status: ('A' for Active; 'I' for Inactive)
    1  A    between atoms: C_4  and  N_37
    2  A    between atoms: N_23  and  C_30
                            x       y       z     vdW  Elec       q    Type
                         _______ _______ _______ _____ _____    ______ ____

>  <TORSDO>
F 2

$$$$
=
 OpenBabel11112417283D

 37 44  0  0  1  0  0  0  0  0999 V2000
  192.7380  172.1160  144.6030 C   0  0  2  0  0  3  0  0  0  0  0  0
  190.4490  175.7840  146.7360 C   0  0  0  0  0  0  0  0  0  0  0  0
  189.6330  175.2910  142.6960 C   0  0  0  0  0  0  0  0  0  0  0  0
  194.1280  171.5540  144.3940 C   0  0  2  0  0  3  0  0  0  0  0  0
  189.6950  171.6230  141.3810 C   0  0  0  0  0  2  0  0  0  0  0  0
  189.7470  176.8260  144.5410 C   0  0  0  0  0  0  0  0  0  0  0  0
  189.9990  173.8850  142.4880 C   0  0  0  0  0  0  0  0  0  0  0  0
  192.8120  170.1570  142.8330 C   0  0  2  0  0  3  0  0  0  0  0  0
  190.1370  175.6610  143.9080 C   0  0  0  0  0  0  0  0  0  0  0  0
  189.6630  173.1460  141.4050 C   0  0  0  0  0  0  0  0  0  0  0  0
  188.8660  177.6500  143.9100 N   0  0  0  0  0  0  0  0  0  0  0  0
  192.9280  170.6190  144.2940 C   0  0  2  0  0  3  0  0  0  0  0  0
  190.7940  174.6130  144.5750 N   0  0  0  0  0  0  0  0  0  0  0  0
  189.0990  175.1960  147.1110 C   0  0  0  0  0  1  0  0  0  0  0  0
  187.8690  175.6650  140.9190 C   0  0  0  0  0  3  0  0  0  0  0  0
  188.3150  177.3010  142.7070 C   0  0  0  0  0  3  0  0  0  0  0  0
  191.2690  174.7350  145.9540 C   0  0  0  0  0  2  0  0  0  0  0  0
  191.9370  171.0420  141.9520 C   0  0  1  0  0  3  0  0  0  0  0  0
  190.5420  171.0040  142.3940 N   0  0  0  0  0  2  0  0  0  0  0  0
  188.6580  176.0870  142.0800 C   0  0  0  0  0  0  0  0  0  0  0  0
  190.7860  173.4250  143.7250 C   0  0  2  0  0  3  0  0  0  0  0  0
  190.2460  177.0910  145.9320 C   0  0  0  0  0  2  0  0  0  0  0  0
  189.2820  173.7950  140.1720 N   0  0  0  0  0  0  0  0  0  0  0  0
  191.1910  176.1160  148.0120 C   0  0  0  0  0  1  0  0  0  0  0  0
  192.4970  172.4520  142.0460 C   0  0  0  0  0  2  0  0  0  0  0  0
  192.3680  168.7070  142.7720 C   0  0  0  0  0  1  0  0  0  0  0  0
  192.2530  173.0210  143.4480 C   0  0  2  0  0  3  0  0  0  0  0  0
  188.1390  174.6620  140.0870 C   0  0  0  0  0  3  0  0  0  0  0  0
  191.2830  173.5950  138.7180 C   0  0  0  0  0  3  0  0  0  0  0  0
  189.9090  173.3870  138.9350 C   0  0  0  0  0  0  0  0  0  0  0  0
  189.1620  172.7390  137.9360 C   0  0  0  0  0  3  0  0  0  0  0  0
  189.0290  171.7100  135.7910 F   0  0  0  0  0  0  0  0  0  0  0  0
  191.1300  172.5480  136.5410 C   0  0  0  0  0  3  0  0  0  0  0  0
  189.7660  172.3270  136.7460 C   0  0  0  0  0  0  0  0  0  0  0  0
  191.8890  173.1820  137.5280 C   0  0  0  0  0  3  0  0  0  0  0  0
  194.9450  170.1960  146.1360 C   0  0  0  0  0  2  0  0  0  0  0  0
  194.7650  171.3750  145.6690 N   0  0  0  0  0  0  0  0  0  0  0  0
  2 14  1  0  0  0  0
  2 24  1  0  0  0  0
  3  9  1  0  0  0  0
  4  1  1  0  0  0  0
  4 37  1  0  0  0  0
  5 10  1  0  0  0  0
  5 19  1  0  0  0  0
  6 22  1  0  0  0  0
  7  3  1  0  0  0  0
  7 21  1  0  0  0  0
  8 12  1  0  0  0  0
  9  6  2  0  0  0  0
  9 13  1  0  0  0  0
 10  7  2  0  0  0  0
 11  6  1  0  0  0  0
 12  4  1  0  0  0  0
 12  1  1  0  0  0  0
 13 17  1  0  0  0  0
 15 20  1  0  0  0  0
 16 11  2  0  0  0  0
 17  2  1  0  0  0  0
 18 25  1  0  0  0  0
 18 19  1  0  0  0  0
 18  8  1  0  0  0  0
 20  3  2  0  0  0  0
 20 16  1  0  0  0  0
 21 13  1  0  0  0  0
 22  2  1  0  0  0  0
 23 10  1  0  0  0  0
 25 27  1  0  0  0  0
 26  8  1  0  0  0  0
 27 21  1  0  0  0  0
 27  1  1  0  0  0  0
 28 23  1  0  0  0  0
 28 15  2  0  0  0  0
 29 30  1  0  0  0  0
 30 23  1  0  0  0  0
 31 30  2  0  0  0  0
 32 34  1  0  0  0  0
 33 34  2  0  0  0  0
 33 35  1  0  0  0  0
 34 31  1  0  0  0  0
 35 29  2  0  0  0  0
 37 36  2  0  0  0  0
M  END
>  <MODEL>
8

>  <REMARK>
 VINA RESULT:      -7.7      2.915      6.626
  Name = 
  2 active torsions:
  status: ('A' for Active; 'I' for Inactive)
    1  A    between atoms: C_4  and  N_37
    2  A    between atoms: N_23  and  C_30
                            x       y       z     vdW  Elec       q    Type
                         _______ _______ _______ _____ _____    ______ ____

>  <TORSDO>
F 2

$$$$
=
 OpenBabel11112417283D

 37 44  0  0  1  0  0  0  0  0999 V2000
  193.8500  172.7000  144.9990 C   0  0  2  0  0  3  0  0  0  0  0  0
  190.7590  175.8100  147.0020 C   0  0  0  0  0  0  0  0  0  0  0  0
  189.7590  174.5230  143.1860 C   0  0  0  0  0  0  0  0  0  0  0  0
  195.3200  172.5440  144.6700 C   0  0  2  0  0  3  0  0  0  0  0  0
  190.8160  170.8830  142.2830 C   0  0  0  0  0  2  0  0  0  0  0  0
  189.5700  176.2750  144.8190 C   0  0  0  0  0  0  0  0  0  0  0  0
  190.5170  173.2700  143.0850 C   0  0  0  0  0  0  0  0  0  0  0  0
  194.3540  170.6140  143.4610 C   0  0  2  0  0  3  0  0  0  0  0  0
  190.2360  175.1950  144.2720 C   0  0  0  0  0  0  0  0  0  0  0  0
  190.3220  172.3180  142.1450 C   0  0  0  0  0  0  0  0  0  0  0  0
  188.4240  176.7060  144.2250 N   0  0  0  0  0  0  0  0  0  0  0  0
  194.4600  171.2950  144.8340 C   0  0  2  0  0  3  0  0  0  0  0  0
  191.2420  174.4910  144.9560 N   0  0  0  0  0  0  0  0  0  0  0  0
  189.6950  174.9160  147.6160 C   0  0  0  0  0  1  0  0  0  0  0  0
  187.8070  174.1070  141.6280 C   0  0  0  0  0  3  0  0  0  0  0  0
  187.8960  176.0420  143.1510 C   0  0  0  0  0  3  0  0  0  0  0  0
  191.7830  174.9440  146.2380 C   0  0  0  0  0  2  0  0  0  0  0  0
  193.1730  171.0690  142.6110 C   0  0  1  0  0  3  0  0  0  0  0  0
  191.9040  170.6910  143.2360 N   0  0  0  0  0  2  0  0  0  0  0  0
  188.5330  174.9030  142.6200 C   0  0  0  0  0  0  0  0  0  0  0  0
  191.5180  173.2430  144.2500 C   0  0  2  0  0  3  0  0  0  0  0  0
  190.0920  176.8720  146.0940 C   0  0  0  0  0  2  0  0  0  0  0  0
  189.6470  172.6420  140.9090 N   0  0  0  0  0  0  0  0  0  0  0  0
  191.4800  176.5250  148.1250 C   0  0  0  0  0  1  0  0  0  0  0  0
  193.2800  172.5780  142.4760 C   0  0  0  0  0  2  0  0  0  0  0  0
  194.3720  169.1040  143.6180 C   0  0  0  0  0  1  0  0  0  0  0  0
  193.0060  173.2480  143.8260 C   0  0  2  0  0  3  0  0  0  0  0  0
  188.2910  173.1160  140.8820 C   0  0  0  0  0  3  0  0  0  0  0  0
  191.4950  172.7830  139.2590 C   0  0  0  0  0  3  0  0  0  0  0  0
  190.2500  172.2590  139.6520 C   0  0  0  0  0  0  0  0  0  0  0  0
  189.6190  171.3270  138.8120 C   0  0  0  0  0  3  0  0  0  0  0  0
  189.5790  170.0440  136.8040 F   0  0  0  0  0  0  0  0  0  0  0  0
  191.4380  171.4760  137.2230 C   0  0  0  0  0  3  0  0  0  0  0  0
  190.2050  170.9410  137.6040 C   0  0  0  0  0  0  0  0  0  0  0  0
  192.0830  172.3970  138.0510 C   0  0  0  0  0  3  0  0  0  0  0  0
  196.8230  173.7920  145.9860 C   0  0  0  0  0  2  0  0  0  0  0  0
  196.0980  172.7440  145.8610 N   0  0  0  0  0  0  0  0  0  0  0  0
  2 14  1  0  0  0  0
  2 24  1  0  0  0  0
  3  9  1  0  0  0  0
  4 12  1  0  0  0  0
  4  1  1  0  0  0  0
  4 37  1  0  0  0  0
  5 19  1  0  0  0  0
  6 22  1  0  0  0  0
  7  3  1  0  0  0  0
  7 21  1  0  0  0  0
  8 26  1  0  0  0  0
  8 12  1  0  0  0  0
  9  6  2  0  0  0  0
  9 13  1  0  0  0  0
 10  5  1  0  0  0  0
 10  7  2  0  0  0  0
 11  6  1  0  0  0  0
 12  1  1  0  0  0  0
 13 17  1  0  0  0  0
 15 20  1  0  0  0  0
 16 11  2  0  0  0  0
 17  2  1  0  0  0  0
 18 19  1  0  0  0  0
 18  8  1  0  0  0  0
 20 16  1  0  0  0  0
 20  3  2  0  0  0  0
 21 13  1  0  0  0  0
 22  2  1  0  0  0  0
 23 10  1  0  0  0  0
 25 18  1  0  0  0  0
 25 27  1  0  0  0  0
 27 21  1  0  0  0  0
 27  1  1  0  0  0  0
 28 23  1  0  0  0  0
 28 15  2  0  0  0  0
 29 30  1  0  0  0  0
 30 23  1  0  0  0  0
 31 30  2  0  0  0  0
 32 34  1  0  0  0  0
 33 34  2  0  0  0  0
 33 35  1  0  0  0  0
 34 31  1  0  0  0  0
 35 29  2  0  0  0  0
 37 36  2  0  0  0  0
M  END
>  <MODEL>
9

>  <REMARK>
 VINA RESULT:      -7.6      3.011      6.729
  Name = 
  2 active torsions:
  status: ('A' for Active; 'I' for Inactive)
    1  A    between atoms: C_4  and  N_37
    2  A    between atoms: N_23  and  C_30
                            x       y       z     vdW  Elec       q    Type
                         _______ _______ _______ _____ _____    ______ ____

>  <TORSDO>
F 2

$$$$
