=
 OpenBabel11112416413D

 32 37  0  0  1  0  0  0  0  0999 V2000
  189.9280  175.3000  145.4280 C   0  0  1  0  0  3  0  0  0  0  0  0
  189.1320  174.9380  141.1370 O   0  0  0  0  0  0  0  0  0  0  0  0
  187.9420  175.6540  141.3630 C   0  0  0  0  0  2  0  0  0  0  0  0
  187.8730  176.0910  146.7420 C   0  0  0  0  0  0  0  0  0  0  0  0
  186.6000  176.8930  146.8140 C   0  0  1  0  0  3  0  0  0  0  0  0
  191.9140  175.2740  146.7460 C   0  0  2  0  0  3  0  0  0  0  0  0
  191.9720  174.8730  144.2910 O   0  0  0  0  0  0  0  0  0  0  0  0
  185.1340  178.3530  145.8620 C   0  0  1  0  0  3  0  0  0  0  0  0
  189.6970  174.6790  142.3990 C   0  0  0  0  0  2  0  0  0  0  0  0
  190.9070  175.7750  144.3540 C   0  0  1  0  0  3  0  0  0  0  0  0
  190.2130  175.9880  143.0130 C   0  0  2  0  0  3  0  0  0  0  0  0
  188.1180  176.6370  144.3460 C   0  0  2  0  0  3  0  0  0  0  0  0
  185.7820  179.1430  146.9860 C   0  0  0  0  0  2  0  0  0  0  0  0
  192.7520  175.1060  145.4460 C   0  0  2  0  0  3  0  0  0  0  0  0
  186.7490  178.1700  147.6270 C   0  0  0  0  0  2  0  0  0  0  0  0
  188.2640  177.0680  141.8570 C   0  0  0  0  0  2  0  0  0  0  0  0
  189.0530  176.9970  143.1700 C   0  0  2  0  0  3  0  0  0  0  0  0
  187.0870  177.7320  144.5890 C   0  0  0  0  0  2  0  0  0  0  0  0
  190.5610  174.8530  146.6240 O   0  0  0  0  0  0  0  0  0  0  0  0
  188.1020  175.2630  147.6100 O   0  0  0  0  0  0  0  0  0  0  0  0
  184.7010  179.2330  144.6940 C   0  0  0  0  0  1  0  0  0  0  0  0
  188.8790  176.3950  145.6570 C   0  0  2  0  0  3  0  0  0  0  0  0
  186.0340  177.2510  145.5030 N   0  0  1  0  0  0  0  0  0  0  0  0
  194.2360  173.5020  144.2700 C   0  0  0  0  0  2  0  0  0  0  0  0
  193.7420  173.9700  145.6230 C   0  0  1  0  0  3  0  0  0  0  0  0
  195.1010  174.4120  145.1160 C   0  0  1  0  0  3  0  0  0  0  0  0
  196.1320  173.6270  145.7730 N   0  0  0  0  0  2  0  0  0  0  0  0
  197.3940  173.9480  145.1290 C   0  0  2  0  0  3  0  0  0  0  0  0
  197.2210  175.0340  144.2710 O   0  0  0  0  0  1  0  0  0  0  0  0
  197.8530  172.8010  144.3680 N   0  0  0  0  0  1  0  0  0  0  0  0
  191.2030  176.8240  148.4250 O   0  0  0  0  0  1  0  0  0  0  0  0
  191.9890  176.7000  147.2780 C   0  0  0  0  0  2  0  0  0  0  0  0
  1 22  1  0  0  0  0
  1 19  1  1  0  0  0
  2  3  1  0  0  0  0
  2  9  1  0  0  0  0
  3 16  1  0  0  0  0
  4  5  1  0  0  0  0
  4 20  2  0  0  0  0
  5 15  1  1  0  0  0
  6 32  1  6  0  0  0
  8 21  1  6  0  0  0
  8 13  1  0  0  0  0
 10  7  1  6  0  0  0
 10  1  1  0  0  0  0
 11  9  1  1  0  0  0
 11 17  1  0  0  0  0
 11 10  1  0  0  0  0
 12 18  1  1  0  0  0
 12 22  1  0  0  0  0
 13 15  1  0  0  0  0
 14  7  1  6  0  0  0
 14 25  1  0  0  0  0
 14  6  1  0  0  0  0
 17 16  1  6  0  0  0
 17 12  1  0  0  0  0
 19  6  1  0  0  0  0
 22  4  1  1  0  0  0
 23 18  1  6  0  0  0
 23  8  1  0  0  0  0
 23  5  1  0  0  0  0
 24 26  1  0  0  0  0
 25 24  1  6  0  0  0
 26 25  1  0  0  0  0
 26 27  1  1  0  0  0
 28 29  1  6  0  0  0
 28 27  1  0  0  0  0
 30 28  1  0  0  0  0
 32 31  1  0  0  0  0
M  END
>  <MODEL>
1

>  <REMARK>
 VINA RESULT:      -8.1      0.000      0.000
  Name = 
  4 active torsions:
  status: ('A' for Active; 'I' for Inactive)
    1  A    between atoms: C_7  and  C_19
    2  A    between atoms: C_10  and  C_17
    3  A    between atoms: C_20  and  N_29
    4  A    between atoms: N_29  and  C_30
                            x       y       z     vdW  Elec       q    Type
                         _______ _______ _______ _____ _____    ______ ____

>  <TORSDO>
F 4

$$$$
=
 OpenBabel11112416413D

 32 37  0  0  1  0  0  0  0  0999 V2000
  188.6660  177.4360  144.3320 C   0  0  1  0  0  3  0  0  0  0  0  0
  186.2320  178.1680  147.8970 O   0  0  0  0  0  0  0  0  0  0  0  0
  185.1660  178.4690  147.0290 C   0  0  0  0  0  2  0  0  0  0  0  0
  187.5490  178.2950  142.1900 C   0  0  0  0  0  0  0  0  0  0  0  0
  186.3030  178.5870  141.3940 C   0  0  1  0  0  3  0  0  0  0  0  0
  190.6020  176.1150  143.8980 C   0  0  2  0  0  3  0  0  0  0  0  0
  189.6500  176.3230  146.1870 O   0  0  0  0  0  0  0  0  0  0  0  0
  184.0360  178.5150  141.1870 C   0  0  1  0  0  3  0  0  0  0  0  0
  187.3740  177.9910  147.0940 C   0  0  0  0  0  2  0  0  0  0  0  0
  188.4740  176.3990  145.4390 C   0  0  1  0  0  3  0  0  0  0  0  0
  187.2380  176.6960  146.2810 C   0  0  2  0  0  3  0  0  0  0  0  0
  186.1880  177.6870  144.1580 C   0  0  2  0  0  3  0  0  0  0  0  0
  184.5440  177.5160  140.1620 C   0  0  0  0  0  2  0  0  0  0  0  0
  190.5860  175.6390  145.3790 C   0  0  2  0  0  3  0  0  0  0  0  0
  186.0520  177.5720  140.2910 C   0  0  0  0  0  2  0  0  0  0  0  0
  184.7850  177.2280  146.2140 C   0  0  0  0  0  2  0  0  0  0  0  0
  185.9850  176.7620  145.3800 C   0  0  2  0  0  3  0  0  0  0  0  0
  185.0090  177.6030  143.1980 C   0  0  0  0  0  2  0  0  0  0  0  0
  189.9290  177.3470  143.6760 O   0  0  0  0  0  0  0  0  0  0  0  0
  188.6150  178.7560  141.8110 O   0  0  0  0  0  0  0  0  0  0  0  0
  182.6600  178.1510  141.7350 C   0  0  0  0  0  1  0  0  0  0  0  0
  187.4690  177.3640  143.3770 C   0  0  2  0  0  3  0  0  0  0  0  0
  185.0780  178.6920  142.2040 N   0  0  1  0  0  0  0  0  0  0  0  0
  192.0900  174.9380  147.2240 C   0  0  0  0  0  2  0  0  0  0  0  0
  191.9730  175.7880  145.9760 C   0  0  1  0  0  3  0  0  0  0  0  0
  192.6840  174.4500  145.9200 C   0  0  1  0  0  3  0  0  0  0  0  0
  194.1200  174.6750  145.9280 N   0  0  0  0  0  2  0  0  0  0  0  0
  194.7430  173.5000  145.3440 C   0  0  2  0  0  3  0  0  0  0  0  0
  194.0510  172.3540  145.7390 O   0  0  0  0  0  1  0  0  0  0  0  0
  196.1200  173.4100  145.7930 N   0  0  0  0  0  1  0  0  0  0  0  0
  189.9810  173.8200  143.6340 O   0  0  0  0  0  1  0  0  0  0  0  0
  190.0770  175.0370  142.9580 C   0  0  0  0  0  2  0  0  0  0  0  0
  1 19  1  6  0  0  0
  1 10  1  0  0  0  0
  3  2  1  0  0  0  0
  5 15  1  6  0  0  0
  5  4  1  0  0  0  0
  5 23  1  0  0  0  0
  6 32  1  6  0  0  0
  6 14  1  0  0  0  0
  8 21  1  1  0  0  0
  8 23  1  0  0  0  0
  9  2  1  0  0  0  0
 10  7  1  1  0  0  0
 10 11  1  0  0  0  0
 11  9  1  6  0  0  0
 12 18  1  6  0  0  0
 12 17  1  0  0  0  0
 13 15  1  0  0  0  0
 13  8  1  0  0  0  0
 14 25  1  0  0  0  0
 14  7  1  1  0  0  0
 16  3  1  0  0  0  0
 17 16  1  1  0  0  0
 17 11  1  0  0  0  0
 19  6  1  0  0  0  0
 20  4  2  0  0  0  0
 22  4  1  6  0  0  0
 22 12  1  0  0  0  0
 22  1  1  0  0  0  0
 23 18  1  1  0  0  0
 25 24  1  1  0  0  0
 26 27  1  1  0  0  0
 26 25  1  0  0  0  0
 26 24  1  0  0  0  0
 28 29  1  1  0  0  0
 28 30  1  0  0  0  0
 28 27  1  0  0  0  0
 32 31  1  0  0  0  0
M  END
>  <MODEL>
2

>  <REMARK>
 VINA RESULT:      -7.9      2.222      4.600
  Name = 
  4 active torsions:
  status: ('A' for Active; 'I' for Inactive)
    1  A    between atoms: C_7  and  C_19
    2  A    between atoms: C_10  and  C_17
    3  A    between atoms: C_20  and  N_29
    4  A    between atoms: N_29  and  C_30
                            x       y       z     vdW  Elec       q    Type
                         _______ _______ _______ _____ _____    ______ ____

>  <TORSDO>
F 4

$$$$
=
 OpenBabel11112416413D

 32 37  0  0  1  0  0  0  0  0999 V2000
  188.8690  177.0900  144.7310 C   0  0  1  0  0  3  0  0  0  0  0  0
  186.1590  178.1690  147.9960 O   0  0  0  0  0  0  0  0  0  0  0  0
  185.2250  178.5420  147.0120 C   0  0  0  0  0  2  0  0  0  0  0  0
  188.0730  177.9800  142.4620 C   0  0  0  0  0  0  0  0  0  0  0  0
  186.9520  178.3630  141.5310 C   0  0  1  0  0  3  0  0  0  0  0  0
  190.7010  175.5760  144.5380 C   0  0  2  0  0  3  0  0  0  0  0  0
  189.5390  175.9500  146.7070 O   0  0  0  0  0  0  0  0  0  0  0  0
  184.7230  178.5010  141.0830 C   0  0  1  0  0  3  0  0  0  0  0  0
  187.3560  177.8580  147.3250 C   0  0  0  0  0  2  0  0  0  0  0  0
  188.4610  176.1130  145.8340 C   0  0  1  0  0  3  0  0  0  0  0  0
  187.1790  176.5550  146.5320 C   0  0  2  0  0  3  0  0  0  0  0  0
  186.4600  177.5700  144.2870 C   0  0  2  0  0  3  0  0  0  0  0  0
  185.2350  177.4240  140.1410 C   0  0  0  0  0  2  0  0  0  0  0  0
  190.4820  175.1540  146.0190 C   0  0  2  0  0  3  0  0  0  0  0  0
  186.7190  177.3400  140.4310 C   0  0  0  0  0  2  0  0  0  0  0  0
  184.8110  177.3170  146.1890 C   0  0  0  0  0  2  0  0  0  0  0  0
  186.0390  176.7110  145.5000 C   0  0  2  0  0  3  0  0  0  0  0  0
  185.3850  177.5680  143.2070 C   0  0  0  0  0  2  0  0  0  0  0  0
  190.1790  176.8590  144.2170 O   0  0  0  0  0  0  0  0  0  0  0  0
  189.2130  178.3230  142.1900 O   0  0  0  0  0  0  0  0  0  0  0  0
  183.2680  178.2890  141.4880 C   0  0  0  0  0  1  0  0  0  0  0  0
  187.7780  177.1010  143.6550 C   0  0  2  0  0  3  0  0  0  0  0  0
  185.6650  178.6120  142.2020 N   0  0  1  0  0  0  0  0  0  0  0  0
  192.7260  174.1110  146.2200 C   0  0  0  0  0  2  0  0  0  0  0  0
  191.8070  175.1890  146.7580 C   0  0  1  0  0  3  0  0  0  0  0  0
  192.9110  175.5480  145.7820 C   0  0  1  0  0  3  0  0  0  0  0  0
  194.0190  176.1390  146.5150 N   0  0  0  0  0  2  0  0  0  0  0  0
  194.9230  176.7170  145.5350 C   0  0  2  0  0  3  0  0  0  0  0  0
  194.9850  178.1000  145.7100 O   0  0  0  0  0  1  0  0  0  0  0  0
  194.4390  176.4220  144.1990 N   0  0  0  0  0  1  0  0  0  0  0  0
  189.8780  173.3460  144.2640 O   0  0  0  0  0  1  0  0  0  0  0  0
  190.1720  174.5220  143.5730 C   0  0  0  0  0  2  0  0  0  0  0  0
  1 19  1  6  0  0  0
  1 10  1  0  0  0  0
  3  2  1  0  0  0  0
  5 15  1  6  0  0  0
  5 23  1  0  0  0  0
  5  4  1  0  0  0  0
  6 32  1  6  0  0  0
  6 14  1  0  0  0  0
  8 21  1  1  0  0  0
  8 23  1  0  0  0  0
  9  2  1  0  0  0  0
 10 11  1  0  0  0  0
 10  7  1  1  0  0  0
 11  9  1  6  0  0  0
 12 18  1  6  0  0  0
 12 17  1  0  0  0  0
 13 15  1  0  0  0  0
 13  8  1  0  0  0  0
 14  7  1  1  0  0  0
 14 25  1  0  0  0  0
 16  3  1  0  0  0  0
 17 16  1  1  0  0  0
 17 11  1  0  0  0  0
 19  6  1  0  0  0  0
 20  4  2  0  0  0  0
 22  4  1  6  0  0  0
 22 12  1  0  0  0  0
 22  1  1  0  0  0  0
 23 18  1  1  0  0  0
 25 24  1  6  0  0  0
 26 24  1  0  0  0  0
 26 27  1  1  0  0  0
 26 25  1  0  0  0  0
 28 30  1  6  0  0  0
 28 29  1  0  0  0  0
 28 27  1  0  0  0  0
 32 31  1  0  0  0  0
M  END
>  <MODEL>
3

>  <REMARK>
 VINA RESULT:      -7.8      2.271      4.562
  Name = 
  4 active torsions:
  status: ('A' for Active; 'I' for Inactive)
    1  A    between atoms: C_7  and  C_19
    2  A    between atoms: C_10  and  C_17
    3  A    between atoms: C_20  and  N_29
    4  A    between atoms: N_29  and  C_30
                            x       y       z     vdW  Elec       q    Type
                         _______ _______ _______ _____ _____    ______ ____

>  <TORSDO>
F 4

$$$$
=
 OpenBabel11112416413D

 32 37  0  0  1  0  0  0  0  0999 V2000
  188.4000  177.0130  143.1630 C   0  0  1  0  0  3  0  0  0  0  0  0
  188.5970  174.0500  139.9450 O   0  0  0  0  0  0  0  0  0  0  0  0
  189.7730  173.5680  140.5480 C   0  0  0  0  0  2  0  0  0  0  0  0
  190.5820  177.1510  144.5030 C   0  0  0  0  0  0  0  0  0  0  0  0
  191.8150  176.4880  145.0600 C   0  0  1  0  0  3  0  0  0  0  0  0
  186.6230  178.2490  144.1620 C   0  0  2  0  0  3  0  0  0  0  0  0
  186.2370  176.7540  142.2100 O   0  0  0  0  0  0  0  0  0  0  0  0
  193.0640  174.6140  145.3950 C   0  0  1  0  0  3  0  0  0  0  0  0
  188.2280  175.2130  140.6450 C   0  0  0  0  0  2  0  0  0  0  0  0
  187.2580  176.0450  142.8480 C   0  0  1  0  0  3  0  0  0  0  0  0
  187.7450  174.8390  142.0520 C   0  0  2  0  0  3  0  0  0  0  0  0
  189.9770  175.0810  143.2980 C   0  0  2  0  0  3  0  0  0  0  0  0
  192.5470  174.9770  146.7750 C   0  0  0  0  0  2  0  0  0  0  0  0
  185.6190  177.5360  143.2110 C   0  0  2  0  0  3  0  0  0  0  0  0
  191.7250  176.2300  146.5550 C   0  0  0  0  0  2  0  0  0  0  0  0
  189.4610  173.0100  141.9400 C   0  0  0  0  0  2  0  0  0  0  0  0
  188.8690  174.1130  142.8260 C   0  0  2  0  0  3  0  0  0  0  0  0
  190.9810  174.3760  144.2010 C   0  0  0  0  0  2  0  0  0  0  0  0
  187.9630  178.2650  143.6850 O   0  0  0  0  0  0  0  0  0  0  0  0
  190.5150  178.3700  144.4970 O   0  0  0  0  0  0  0  0  0  0  0  0
  193.2870  173.1150  145.2230 C   0  0  0  0  0  1  0  0  0  0  0  0
  189.4200  176.2950  144.0550 C   0  0  2  0  0  3  0  0  0  0  0  0
  192.1740  175.2220  144.4000 N   0  0  1  0  0  0  0  0  0  0  0  0
  184.5330  178.2380  141.0930 C   0  0  0  0  0  2  0  0  0  0  0  0
  184.7160  178.5670  142.5610 C   0  0  1  0  0  3  0  0  0  0  0  0
  183.4460  177.8870  142.0860 C   0  0  1  0  0  3  0  0  0  0  0  0
  182.3800  178.8720  142.0070 N   0  0  0  0  0  2  0  0  0  0  0  0
  181.1910  178.1820  141.5380 C   0  0  2  0  0  3  0  0  0  0  0  0
  181.2340  178.0580  140.1490 O   0  0  0  0  0  1  0  0  0  0  0  0
  180.0130  178.9400  141.9170 N   0  0  0  0  0  1  0  0  0  0  0  0
  185.4520  176.8390  145.6990 O   0  0  0  0  0  1  0  0  0  0  0  0
  186.5600  177.6770  145.5730 C   0  0  0  0  0  2  0  0  0  0  0  0
  1 19  1  1  0  0  0
  1 22  1  0  0  0  0
  2  3  1  0  0  0  0
  2  9  1  0  0  0  0
  3 16  1  0  0  0  0
  4  5  1  0  0  0  0
  5 15  1  1  0  0  0
  6 32  1  1  0  0  0
  8 21  1  1  0  0  0
  8 13  1  0  0  0  0
 10  7  1  6  0  0  0
 10  1  1  0  0  0  0
 11  9  1  6  0  0  0
 11 17  1  0  0  0  0
 11 10  1  0  0  0  0
 12 22  1  0  0  0  0
 12 18  1  1  0  0  0
 14  7  1  6  0  0  0
 14  6  1  0  0  0  0
 15 13  1  0  0  0  0
 17 16  1  6  0  0  0
 17 12  1  0  0  0  0
 19  6  1  0  0  0  0
 20  4  2  0  0  0  0
 22  4  1  6  0  0  0
 23 18  1  1  0  0  0
 23  5  1  0  0  0  0
 23  8  1  0  0  0  0
 24 26  1  0  0  0  0
 25 24  1  6  0  0  0
 25 14  1  0  0  0  0
 26 27  1  6  0  0  0
 26 25  1  0  0  0  0
 28 29  1  6  0  0  0
 28 30  1  0  0  0  0
 28 27  1  0  0  0  0
 32 31  1  0  0  0  0
M  END
>  <MODEL>
4

>  <REMARK>
 VINA RESULT:      -7.4      3.156      8.510
  Name = 
  4 active torsions:
  status: ('A' for Active; 'I' for Inactive)
    1  A    between atoms: C_7  and  C_19
    2  A    between atoms: C_10  and  C_17
    3  A    between atoms: C_20  and  N_29
    4  A    between atoms: N_29  and  C_30
                            x       y       z     vdW  Elec       q    Type
                         _______ _______ _______ _____ _____    ______ ____

>  <TORSDO>
F 4

$$$$
=
 OpenBabel11112416413D

 32 37  0  0  1  0  0  0  0  0999 V2000
  189.5890  175.4280  143.3390 C   0  0  1  0  0  3  0  0  0  0  0  0
  192.1190  174.9910  146.8870 O   0  0  0  0  0  0  0  0  0  0  0  0
  191.1890  175.7960  147.5700 C   0  0  0  0  0  2  0  0  0  0  0  0
  187.8300  177.2730  143.6120 C   0  0  0  0  0  0  0  0  0  0  0  0
  186.8990  178.0700  144.4890 C   0  0  1  0  0  3  0  0  0  0  0  0
  189.2520  174.1120  141.3800 C   0  0  2  0  0  3  0  0  0  0  0  0
  190.9540  173.4970  143.0890 O   0  0  0  0  0  0  0  0  0  0  0  0
  185.9710  178.4620  146.5310 C   0  0  1  0  0  3  0  0  0  0  0  0
  191.7330  174.9820  145.5340 C   0  0  0  0  0  2  0  0  0  0  0  0
  189.9870  174.0700  143.9190 C   0  0  1  0  0  3  0  0  0  0  0  0
  190.4300  174.1860  145.3730 C   0  0  2  0  0  3  0  0  0  0  0  0
  188.7670  176.1300  145.5900 C   0  0  2  0  0  3  0  0  0  0  0  0
  184.8290  177.9150  145.6930 C   0  0  0  0  0  2  0  0  0  0  0  0
  190.2700  173.0710  141.9280 C   0  0  2  0  0  3  0  0  0  0  0  0
  185.4430  177.6640  144.3310 C   0  0  0  0  0  2  0  0  0  0  0  0
  189.8300  175.0910  147.6370 C   0  0  0  0  0  2  0  0  0  0  0  0
  189.3070  174.8270  146.2200 C   0  0  2  0  0  3  0  0  0  0  0  0
  187.5510  176.6490  146.3470 C   0  0  0  0  0  2  0  0  0  0  0  0
  189.4050  175.4160  141.9250 O   0  0  0  0  0  0  0  0  0  0  0  0
  188.0600  177.6690  142.4790 O   0  0  0  0  0  0  0  0  0  0  0  0
  185.8270  178.1330  148.0130 C   0  0  0  0  0  1  0  0  0  0  0  0
  188.3780  175.9580  144.1150 C   0  0  2  0  0  3  0  0  0  0  0  0
  187.2320  178.0260  145.9220 N   0  0  1  0  0  0  0  0  0  0  0  0
  192.1950  171.6230  141.3290 C   0  0  0  0  0  2  0  0  0  0  0  0
  191.2780  172.7280  140.8460 C   0  0  1  0  0  3  0  0  0  0  0  0
  191.0510  171.2990  140.3910 C   0  0  1  0  0  3  0  0  0  0  0  0
  191.5630  171.1450  139.0400 N   0  0  0  0  0  2  0  0  0  0  0  0
  190.5740  170.3890  138.2890 C   0  0  2  0  0  3  0  0  0  0  0  0
  189.3410  171.0390  138.3470 O   0  0  0  0  0  1  0  0  0  0  0  0
  190.4460  169.0620  138.8620 N   0  0  0  0  0  1  0  0  0  0  0  0
  187.8060  172.3160  142.0150 O   0  0  0  0  0  1  0  0  0  0  0  0
  187.8170  173.6270  141.5380 C   0  0  0  0  0  2  0  0  0  0  0  0
  1 19  1  6  0  0  0
  1 10  1  0  0  0  0
  1 22  1  0  0  0  0
  2  3  1  0  0  0  0
  3 16  1  0  0  0  0
  4  5  1  0  0  0  0
  5 15  1  1  0  0  0
  5 23  1  0  0  0  0
  6 32  1  1  0  0  0
  6 19  1  0  0  0  0
  6 14  1  0  0  0  0
  8 21  1  1  0  0  0
  9  2  1  0  0  0  0
 10  7  1  6  0  0  0
 10 11  1  0  0  0  0
 11  9  1  6  0  0  0
 11 17  1  0  0  0  0
 12 17  1  0  0  0  0
 12 18  1  1  0  0  0
 13  8  1  0  0  0  0
 14  7  1  1  0  0  0
 15 13  1  0  0  0  0
 17 16  1  1  0  0  0
 20  4  2  0  0  0  0
 22  4  1  6  0  0  0
 22 12  1  0  0  0  0
 23 18  1  1  0  0  0
 23  8  1  0  0  0  0
 25 24  1  1  0  0  0
 25 14  1  0  0  0  0
 26 27  1  6  0  0  0
 26 25  1  0  0  0  0
 26 24  1  0  0  0  0
 28 29  1  1  0  0  0
 28 30  1  0  0  0  0
 28 27  1  0  0  0  0
 32 31  1  0  0  0  0
M  END
>  <MODEL>
5

>  <REMARK>
 VINA RESULT:      -7.4      3.216      5.524
  Name = 
  4 active torsions:
  status: ('A' for Active; 'I' for Inactive)
    1  A    between atoms: C_7  and  C_19
    2  A    between atoms: C_10  and  C_17
    3  A    between atoms: C_20  and  N_29
    4  A    between atoms: N_29  and  C_30
                            x       y       z     vdW  Elec       q    Type
                         _______ _______ _______ _____ _____    ______ ____

>  <TORSDO>
F 4

$$$$
=
 OpenBabel11112416413D

 32 37  0  0  1  0  0  0  0  0999 V2000
  188.0660  176.0870  143.1290 C   0  0  1  0  0  3  0  0  0  0  0  0
  190.9950  177.1190  146.2160 O   0  0  0  0  0  0  0  0  0  0  0  0
  191.8200  176.1140  145.6790 C   0  0  0  0  0  2  0  0  0  0  0  0
  188.6170  173.8740  141.9570 C   0  0  0  0  0  0  0  0  0  0  0  0
  189.6320  172.8770  141.4600 C   0  0  1  0  0  3  0  0  0  0  0  0
  186.3020  177.2840  142.0620 C   0  0  2  0  0  3  0  0  0  0  0  0
  187.6290  178.2890  143.9110 O   0  0  0  0  0  0  0  0  0  0  0  0
  191.8030  172.2740  141.1330 C   0  0  1  0  0  3  0  0  0  0  0  0
  189.7610  177.0350  145.5450 C   0  0  0  0  0  2  0  0  0  0  0  0
  188.6170  177.5010  143.3180 C   0  0  1  0  0  3  0  0  0  0  0  0
  189.9320  177.4950  144.0910 C   0  0  2  0  0  3  0  0  0  0  0  0
  190.4010  175.2090  143.0210 C   0  0  2  0  0  3  0  0  0  0  0  0
  191.2650  172.5310  139.7360 C   0  0  0  0  0  2  0  0  0  0  0  0
  186.6690  178.5390  142.9040 C   0  0  2  0  0  3  0  0  0  0  0  0
  189.8180  172.9220  139.9520 C   0  0  0  0  0  2  0  0  0  0  0  0
  192.2200  176.4730  144.2440 C   0  0  0  0  0  2  0  0  0  0  0  0
  190.9680  176.6040  143.3690 C   0  0  2  0  0  3  0  0  0  0  0  0
  191.3760  174.4140  142.1620 C   0  0  0  0  0  2  0  0  0  0  0  0
  186.7300  176.0540  142.6340 O   0  0  0  0  0  0  0  0  0  0  0  0
  187.4410  173.5450  142.0130 O   0  0  0  0  0  0  0  0  0  0  0  0
  193.2970  172.5590  141.2530 C   0  0  0  0  0  1  0  0  0  0  0  0
  189.0580  175.2820  142.2810 C   0  0  2  0  0  3  0  0  0  0  0  0
  190.9580  173.0000  142.0870 N   0  0  1  0  0  0  0  0  0  0  0  0
  184.2100  178.2910  143.1230 C   0  0  0  0  0  2  0  0  0  0  0  0
  185.4140  179.1130  143.5340 C   0  0  1  0  0  3  0  0  0  0  0  0
  184.8270  178.0930  144.4910 C   0  0  1  0  0  3  0  0  0  0  0  0
  184.0270  178.7840  145.4880 N   0  0  0  0  0  2  0  0  0  0  0  0
  184.4410  178.2910  146.7910 C   0  0  2  0  0  3  0  0  0  0  0  0
  185.4670  179.0920  147.2930 O   0  0  0  0  0  1  0  0  0  0  0  0
  184.9170  176.9260  146.6600 N   0  0  0  0  0  1  0  0  0  0  0  0
  185.7100  177.5460  139.7590 O   0  0  0  0  0  1  0  0  0  0  0  0
  186.7950  177.4100  140.6250 C   0  0  0  0  0  2  0  0  0  0  0  0
  1 19  1  6  0  0  0
  1 10  1  0  0  0  0
  3  2  1  0  0  0  0
  4 20  2  0  0  0  0
  5 15  1  6  0  0  0
  5  4  1  0  0  0  0
  5 23  1  0  0  0  0
  6 32  1  6  0  0  0
  6 19  1  0  0  0  0
  6 14  1  0  0  0  0
  8 21  1  6  0  0  0
  8 23  1  0  0  0  0
  9  2  1  0  0  0  0
 10  7  1  1  0  0  0
 10 11  1  0  0  0  0
 11  9  1  1  0  0  0
 12 18  1  6  0  0  0
 12 17  1  0  0  0  0
 13 15  1  0  0  0  0
 13  8  1  0  0  0  0
 14 25  1  0  0  0  0
 14  7  1  1  0  0  0
 16  3  1  0  0  0  0
 17 11  1  0  0  0  0
 17 16  1  1  0  0  0
 22  4  1  1  0  0  0
 22 12  1  0  0  0  0
 22  1  1  0  0  0  0
 23 18  1  6  0  0  0
 24 26  1  0  0  0  0
 25 24  1  6  0  0  0
 25 26  1  0  0  0  0
 26 27  1  1  0  0  0
 27 28  1  0  0  0  0
 28 30  1  6  0  0  0
 28 29  1  0  0  0  0
 31 32  1  0  0  0  0
M  END
>  <MODEL>
6

>  <REMARK>
 VINA RESULT:      -7.3      3.048      8.346
  Name = 
  4 active torsions:
  status: ('A' for Active; 'I' for Inactive)
    1  A    between atoms: C_7  and  C_19
    2  A    between atoms: C_10  and  C_17
    3  A    between atoms: C_20  and  N_29
    4  A    between atoms: N_29  and  C_30
                            x       y       z     vdW  Elec       q    Type
                         _______ _______ _______ _____ _____    ______ ____

>  <TORSDO>
F 4

$$$$
=
 OpenBabel11112416413D

 32 37  0  0  1  0  0  0  0  0999 V2000
  188.8790  175.5830  144.1200 C   0  0  1  0  0  3  0  0  0  0  0  0
  190.8390  176.6990  147.8730 O   0  0  0  0  0  0  0  0  0  0  0  0
  191.9120  175.8780  147.4810 C   0  0  0  0  0  2  0  0  0  0  0  0
  190.0230  173.5970  142.9700 C   0  0  0  0  0  0  0  0  0  0  0  0
  191.2690  172.8070  142.6630 C   0  0  1  0  0  3  0  0  0  0  0  0
  187.2310  176.6220  142.7460 C   0  0  2  0  0  3  0  0  0  0  0  0
  187.9320  177.6130  144.9180 O   0  0  0  0  0  0  0  0  0  0  0  0
  193.5260  172.5490  142.8200 C   0  0  1  0  0  3  0  0  0  0  0  0
  189.8160  176.5110  146.9250 C   0  0  0  0  0  2  0  0  0  0  0  0
  189.1410  177.0340  144.5250 C   0  0  1  0  0  3  0  0  0  0  0  0
  190.2330  177.1340  145.5860 C   0  0  2  0  0  3  0  0  0  0  0  0
  191.2880  175.0550  144.5100 C   0  0  2  0  0  3  0  0  0  0  0  0
  193.2800  172.8680  141.3560 C   0  0  0  0  0  2  0  0  0  0  0  0
  187.1960  177.8250  143.7320 C   0  0  2  0  0  3  0  0  0  0  0  0
  191.7780  173.0290  141.2480 C   0  0  0  0  0  2  0  0  0  0  0  0
  192.5620  176.4320  146.2080 C   0  0  0  0  0  2  0  0  0  0  0  0
  191.5330  176.4740  145.0720 C   0  0  2  0  0  3  0  0  0  0  0  0
  192.5440  174.4940  143.8560 C   0  0  0  0  0  2  0  0  0  0  0  0
  187.7100  175.4140  143.3210 O   0  0  0  0  0  0  0  0  0  0  0  0
  188.9320  173.1040  142.7240 O   0  0  0  0  0  0  0  0  0  0  0  0
  194.8900  173.0270  143.3080 C   0  0  0  0  0  1  0  0  0  0  0  0
  190.1500  175.0140  143.4800 C   0  0  2  0  0  3  0  0  0  0  0  0
  192.3840  173.0510  143.5930 N   0  0  1  0  0  0  0  0  0  0  0  0
  185.5630  179.6550  144.1140 C   0  0  0  0  0  2  0  0  0  0  0  0
  185.7560  178.1530  144.0830 C   0  0  1  0  0  3  0  0  0  0  0  0
  185.1070  178.8600  142.9090 C   0  0  1  0  0  3  0  0  0  0  0  0
  183.6680  178.6650  142.9730 N   0  0  0  0  0  2  0  0  0  0  0  0
  183.2400  178.1880  141.6690 C   0  0  2  0  0  3  0  0  0  0  0  0
  184.1060  178.6660  140.6850 O   0  0  0  0  0  1  0  0  0  0  0  0
  181.8960  178.6650  141.4000 N   0  0  0  0  0  1  0  0  0  0  0  0
  188.4040  178.2970  141.5040 O   0  0  0  0  0  1  0  0  0  0  0  0
  188.0060  176.9600  141.4790 C   0  0  0  0  0  2  0  0  0  0  0  0
  1 19  1  6  0  0  0
  1 10  1  0  0  0  0
  3  2  1  0  0  0  0
  5 15  1  6  0  0  0
  5  4  1  0  0  0  0
  5 23  1  0  0  0  0
  6 32  1  6  0  0  0
  6 19  1  0  0  0  0
  6 14  1  0  0  0  0
  8 21  1  1  0  0  0
  8 23  1  0  0  0  0
  9  2  1  0  0  0  0
 10  7  1  1  0  0  0
 10 11  1  0  0  0  0
 11  9  1  1  0  0  0
 12 18  1  6  0  0  0
 12 17  1  0  0  0  0
 13  8  1  0  0  0  0
 14 25  1  0  0  0  0
 14  7  1  1  0  0  0
 15 13  1  0  0  0  0
 16  3  1  0  0  0  0
 17 11  1  0  0  0  0
 17 16  1  1  0  0  0
 20  4  2  0  0  0  0
 22  4  1  1  0  0  0
 22  1  1  0  0  0  0
 22 12  1  0  0  0  0
 23 18  1  6  0  0  0
 25 24  1  1  0  0  0
 26 27  1  1  0  0  0
 26 25  1  0  0  0  0
 26 24  1  0  0  0  0
 28 29  1  6  0  0  0
 28 27  1  0  0  0  0
 30 28  1  0  0  0  0
 32 31  1  0  0  0  0
M  END
>  <MODEL>
7

>  <REMARK>
 VINA RESULT:      -7.2      2.713      8.607
  Name = 
  4 active torsions:
  status: ('A' for Active; 'I' for Inactive)
    1  A    between atoms: C_7  and  C_19
    2  A    between atoms: C_10  and  C_17
    3  A    between atoms: C_20  and  N_29
    4  A    between atoms: N_29  and  C_30
                            x       y       z     vdW  Elec       q    Type
                         _______ _______ _______ _____ _____    ______ ____

>  <TORSDO>
F 4

$$$$
=
 OpenBabel11112416413D

 32 37  0  0  1  0  0  0  0  0999 V2000
  191.5370  175.3050  144.0690 C   0  0  1  0  0  3  0  0  0  0  0  0
  190.0730  171.9220  141.7050 O   0  0  0  0  0  0  0  0  0  0  0  0
  191.3500  171.3490  141.8540 C   0  0  0  0  0  2  0  0  0  0  0  0
  194.0870  175.2810  144.3390 C   0  0  0  0  0  0  0  0  0  0  0  0
  195.3790  174.5160  144.4600 C   0  0  1  0  0  3  0  0  0  0  0  0
  190.4770  176.9390  145.4440 C   0  0  2  0  0  3  0  0  0  0  0  0
  189.1610  175.2630  144.1590 O   0  0  0  0  0  0  0  0  0  0  0  0
  196.4870  172.5330  144.6140 C   0  0  1  0  0  3  0  0  0  0  0  0
  190.1420  173.2170  142.2510 C   0  0  0  0  0  2  0  0  0  0  0  0
  190.2940  174.4980  144.4470 C   0  0  1  0  0  3  0  0  0  0  0  0
  190.2860  173.1280  143.7760 C   0  0  2  0  0  3  0  0  0  0  0  0
  192.8480  173.1850  143.9220 C   0  0  2  0  0  3  0  0  0  0  0  0
  196.6500  173.1670  145.9840 C   0  0  0  0  0  2  0  0  0  0  0  0
  189.1050  176.2680  145.1500 C   0  0  2  0  0  3  0  0  0  0  0  0
  195.9230  174.4910  145.8790 C   0  0  0  0  0  2  0  0  0  0  0  0
  191.6250  171.0510  143.3320 C   0  0  0  0  0  2  0  0  0  0  0  0
  191.5690  172.3490  144.1460 C   0  0  2  0  0  3  0  0  0  0  0  0
  194.0810  172.4640  144.4520 C   0  0  0  0  0  2  0  0  0  0  0  0
  191.4750  176.6720  144.4660 O   0  0  0  0  0  0  0  0  0  0  0  0
  194.1270  176.4820  144.1210 O   0  0  0  0  0  0  0  0  0  0  0  0
  196.4870  171.0080  144.6640 C   0  0  0  0  0  1  0  0  0  0  0  0
  192.7780  174.5680  144.5860 C   0  0  2  0  0  3  0  0  0  0  0  0
  195.3090  173.1280  143.9730 N   0  0  1  0  0  0  0  0  0  0  0  0
  186.8040  176.6680  144.3100 C   0  0  0  0  0  2  0  0  0  0  0  0
  188.0990  177.3270  144.7380 C   0  0  1  0  0  3  0  0  0  0  0  0
  186.9170  177.2850  145.6870 C   0  0  1  0  0  3  0  0  0  0  0  0
  186.2650  178.5840  145.6910 N   0  0  0  0  0  2  0  0  0  0  0  0
  185.4570  178.6570  146.8960 C   0  0  2  0  0  3  0  0  0  0  0  0
  186.0490  177.8990  147.9070 O   0  0  0  0  0  1  0  0  0  0  0  0
  184.1300  178.1370  146.6190 N   0  0  0  0  0  1  0  0  0  0  0  0
  189.9940  175.9080  147.5480 O   0  0  0  0  0  1  0  0  0  0  0  0
  190.9830  176.5910  146.8380 C   0  0  0  0  0  2  0  0  0  0  0  0
  1 10  1  0  0  0  0
  1 19  1  1  0  0  0
  1 22  1  0  0  0  0
  2  3  1  0  0  0  0
  2  9  1  0  0  0  0
  3 16  1  0  0  0  0
  4  5  1  0  0  0  0
  5 15  1  1  0  0  0
  6 32  1  1  0  0  0
  8 21  1  1  0  0  0
  8 13  1  0  0  0  0
 10  7  1  6  0  0  0
 11  9  1  6  0  0  0
 11 17  1  0  0  0  0
 11 10  1  0  0  0  0
 12 17  1  0  0  0  0
 12 18  1  1  0  0  0
 12 22  1  0  0  0  0
 14  7  1  6  0  0  0
 14  6  1  0  0  0  0
 15 13  1  0  0  0  0
 17 16  1  6  0  0  0
 19  6  1  0  0  0  0
 20  4  2  0  0  0  0
 22  4  1  6  0  0  0
 23 18  1  1  0  0  0
 23  5  1  0  0  0  0
 23  8  1  0  0  0  0
 24 26  1  0  0  0  0
 25 24  1  6  0  0  0
 25 14  1  0  0  0  0
 25 26  1  0  0  0  0
 26 27  1  6  0  0  0
 27 28  1  0  0  0  0
 28 30  1  6  0  0  0
 28 29  1  0  0  0  0
 32 31  1  0  0  0  0
M  END
>  <MODEL>
8

>  <REMARK>
 VINA RESULT:      -7.2      2.025      8.039
  Name = 
  4 active torsions:
  status: ('A' for Active; 'I' for Inactive)
    1  A    between atoms: C_7  and  C_19
    2  A    between atoms: C_10  and  C_17
    3  A    between atoms: C_20  and  N_29
    4  A    between atoms: N_29  and  C_30
                            x       y       z     vdW  Elec       q    Type
                         _______ _______ _______ _____ _____    ______ ____

>  <TORSDO>
F 4

$$$$
=
 OpenBabel11112416413D

 32 37  0  0  1  0  0  0  0  0999 V2000
  189.3490  175.8060  143.0200 C   0  0  1  0  0  3  0  0  0  0  0  0
  190.7870  176.6740  147.0640 O   0  0  0  0  0  0  0  0  0  0  0  0
  189.6890  177.5420  147.1990 C   0  0  0  0  0  2  0  0  0  0  0  0
  187.5500  177.4610  142.2440 C   0  0  0  0  0  0  0  0  0  0  0  0
  186.3960  178.3770  142.5600 C   0  0  1  0  0  3  0  0  0  0  0  0
  189.6010  173.9540  141.5410 C   0  0  2  0  0  3  0  0  0  0  0  0
  190.7640  174.0360  143.7390 O   0  0  0  0  0  0  0  0  0  0  0  0
  184.9240  179.2440  144.0650 C   0  0  1  0  0  3  0  0  0  0  0  0
  190.7970  176.2350  145.7270 C   0  0  0  0  0  2  0  0  0  0  0  0
  189.5930  174.7220  144.0700 C   0  0  1  0  0  3  0  0  0  0  0  0
  189.6070  175.2970  145.4820 C   0  0  2  0  0  3  0  0  0  0  0  0
  187.9150  177.0390  144.6500 C   0  0  2  0  0  3  0  0  0  0  0  0
  184.0740  178.3630  143.1660 C   0  0  0  0  0  2  0  0  0  0  0  0
  190.4430  173.2250  142.6270 C   0  0  2  0  0  3  0  0  0  0  0  0
  185.0510  177.7950  142.1580 C   0  0  0  0  0  2  0  0  0  0  0  0
  188.3790  176.7500  147.1210 C   0  0  0  0  0  2  0  0  0  0  0  0
  188.2800  176.0360  145.7670 C   0  0  2  0  0  3  0  0  0  0  0  0
  186.5260  177.6270  144.8650 C   0  0  0  0  0  2  0  0  0  0  0  0
  189.5700  175.3680  141.6810 O   0  0  0  0  0  0  0  0  0  0  0  0
  188.0830  177.5340  141.1470 O   0  0  0  0  0  0  0  0  0  0  0  0
  184.3750  179.3430  145.4850 C   0  0  0  0  0  1  0  0  0  0  0  0
  187.9590  176.4100  143.2500 C   0  0  2  0  0  3  0  0  0  0  0  0
  186.3140  178.7820  143.9730 N   0  0  1  0  0  0  0  0  0  0  0  0
  192.5550  171.9980  143.0640 C   0  0  0  0  0  2  0  0  0  0  0  0
  191.7200  172.6910  142.0060 C   0  0  1  0  0  3  0  0  0  0  0  0
  191.7220  171.1770  142.1020 C   0  0  1  0  0  3  0  0  0  0  0  0
  192.5790  170.6370  141.0590 N   0  0  0  0  0  2  0  0  0  0  0  0
  191.8430  169.5660  140.4090 C   0  0  2  0  0  3  0  0  0  0  0  0
  191.2010  170.0590  139.2720 O   0  0  0  0  0  1  0  0  0  0  0  0
  190.8540  169.0340  141.3280 N   0  0  0  0  0  1  0  0  0  0  0  0
  188.0620  172.2880  142.3050 O   0  0  0  0  0  1  0  0  0  0  0  0
  188.1870  173.3900  141.4570 C   0  0  0  0  0  2  0  0  0  0  0  0
  1 19  1  6  0  0  0
  1 22  1  0  0  0  0
  1 10  1  0  0  0  0
  2  3  1  0  0  0  0
  4  5  1  0  0  0  0
  5 15  1  1  0  0  0
  5 23  1  0  0  0  0
  6 32  1  1  0  0  0
  6 19  1  0  0  0  0
  6 14  1  0  0  0  0
  8 21  1  1  0  0  0
  9  2  1  0  0  0  0
 10  7  1  6  0  0  0
 10 11  1  0  0  0  0
 11  9  1  6  0  0  0
 11 17  1  0  0  0  0
 12 18  1  1  0  0  0
 12 17  1  0  0  0  0
 13  8  1  0  0  0  0
 14  7  1  1  0  0  0
 15 13  1  0  0  0  0
 16  3  1  0  0  0  0
 17 16  1  1  0  0  0
 20  4  2  0  0  0  0
 22  4  1  6  0  0  0
 22 12  1  0  0  0  0
 23  8  1  0  0  0  0
 23 18  1  1  0  0  0
 25 26  1  0  0  0  0
 25 14  1  0  0  0  0
 25 24  1  1  0  0  0
 26 27  1  6  0  0  0
 26 24  1  0  0  0  0
 28 29  1  6  0  0  0
 28 27  1  0  0  0  0
 28 30  1  0  0  0  0
 32 31  1  0  0  0  0
M  END
>  <MODEL>
9

>  <REMARK>
 VINA RESULT:      -7.1      2.944      5.133
  Name = 
  4 active torsions:
  status: ('A' for Active; 'I' for Inactive)
    1  A    between atoms: C_7  and  C_19
    2  A    between atoms: C_10  and  C_17
    3  A    between atoms: C_20  and  N_29
    4  A    between atoms: N_29  and  C_30
                            x       y       z     vdW  Elec       q    Type
                         _______ _______ _______ _____ _____    ______ ____

>  <TORSDO>
F 4

$$$$
