=
 OpenBabel11112418053D

 34 40  0  0  1  0  0  0  0  0999 V2000
  192.4870  176.3270  146.2760 C   0  0  1  0  0  3  0  0  0  0  0  0
  194.7010  175.3260  146.3600 C   0  0  0  0  0  2  0  0  0  0  0  0
  186.8700  176.5300  143.2820 C   0  0  0  0  0  0  0  0  0  0  0  0
  190.1180  177.1640  146.1180 C   0  0  2  0  0  3  0  0  0  0  0  0
  189.1230  177.5500  143.8080 C   0  0  2  0  0  3  0  0  0  0  0  0
  188.1090  177.7780  141.4540 C   0  0  0  0  0  1  0  0  0  0  0  0
  186.6940  175.5560  142.5010 O   0  0  0  0  0  0  0  0  0  0  0  0
  186.3070  177.6740  145.3990 C   0  0  0  0  0  2  0  0  0  0  0  0
  193.7930  175.9300  144.3700 C   0  0  2  0  0  3  0  0  0  0  0  0
  194.3280  174.2620  141.6900 C   0  0  0  0  0  2  0  0  0  0  0  0
  190.1760  176.6200  143.1980 C   0  0  0  0  0  2  0  0  0  0  0  0
  187.7260  177.9490  145.9360 C   0  0  0  0  0  2  0  0  0  0  0  0
  192.6020  175.8830  143.3920 C   0  0  1  0  0  3  0  0  0  0  0  0
  195.7300  174.9080  145.3120 C   0  0  0  0  0  2  0  0  0  0  0  0
  188.8370  177.1260  145.2740 C   0  0  2  0  0  3  0  0  0  0  0  0
  186.2290  176.5460  144.5250 O   0  0  0  0  0  0  0  0  0  0  0  0
  194.8880  173.9760  143.0970 C   0  0  1  0  0  3  0  0  0  0  0  0
  191.1950  176.2990  145.4480 C   0  0  1  0  0  3  0  0  0  0  0  0
  187.8470  177.6220  142.9480 C   0  0  1  0  0  3  0  0  0  0  0  0
  191.4700  176.7300  144.0000 C   0  0  2  0  0  3  0  0  0  0  0  0
  191.0060  176.8660  148.1940 C   0  0  0  0  0  2  0  0  0  0  0  0
  194.2010  175.7510  141.3580 C   0  0  0  0  0  2  0  0  0  0  0  0
  189.8560  176.6510  147.4090 O   0  0  0  0  0  0  0  0  0  0  0  0
  192.9690  176.4090  141.9950 C   0  0  0  0  0  2  0  0  0  0  0  0
  195.0880  175.2370  143.9720 C   0  0  1  0  0  3  0  0  0  0  0  0
  192.1460  175.9600  147.7220 C   0  0  0  0  0  2  0  0  0  0  0  0
  193.4200  175.3810  145.6660 N   0  0  2  0  0  0  0  0  0  0  0  0
  194.0440  172.9900  143.7580 N   0  0  0  0  0  2  0  0  0  0  0  0
  193.2170  172.4750  142.8180 O   0  0  0  0  0  0  0  0  0  0  0  0
  190.4400  172.8440  144.4530 C   0  0  0  0  0  3  0  0  0  0  0  0
  191.0500  171.5430  142.7030 C   0  0  0  0  0  3  0  0  0  0  0  0
  192.2650  171.7570  143.5460 C   0  0  2  0  0  3  0  0  0  0  0  0
  190.0130  172.1730  143.2320 C   0  0  0  0  0  3  0  0  0  0  0  0
  191.7300  172.6100  144.6470 C   0  0  0  0  0  3  0  0  0  0  0  0
  1 26  1  1  0  0  0
  3 16  1  0  0  0  0
  4 23  1  1  0  0  0
  5 11  1  6  0  0  0
  5 15  1  0  0  0  0
  6 19  1  0  0  0  0
  7  3  2  0  0  0  0
  8 12  1  0  0  0  0
  9 27  1  0  0  0  0
 10 17  1  0  0  0  0
 11 20  1  0  0  0  0
 13 20  1  0  0  0  0
 13  9  1  0  0  0  0
 14  2  1  0  0  0  0
 15 12  1  0  0  0  0
 15  4  1  0  0  0  0
 16  8  1  0  0  0  0
 17 28  1  0  0  0  0
 17 25  1  0  0  0  0
 18  4  1  0  0  0  0
 18  1  1  0  0  0  0
 19  3  1  0  0  0  0
 19  5  1  0  0  0  0
 20 18  1  0  0  0  0
 22 10  1  0  0  0  0
 22 24  1  0  0  0  0
 23 21  1  0  0  0  0
 24 13  1  0  0  0  0
 25  9  1  0  0  0  0
 25 14  1  0  0  0  0
 26 21  1  0  0  0  0
 27  1  1  0  0  0  0
 27  2  1  0  0  0  0
 29 32  1  0  0  0  0
 29 28  1  0  0  0  0
 30 34  2  0  0  0  0
 31 33  2  0  0  0  0
 31 32  1  0  0  0  0
 32 34  1  0  0  0  0
 33 30  1  0  0  0  0
M  END
>  <MODEL>
1

>  <REMARK>
 VINA RESULT:      -7.4      0.000      0.000
  Name = 
  3 active torsions:
  status: ('A' for Active; 'I' for Inactive)
    1  A    between atoms: C_17  and  N_28
    2  A    between atoms: N_28  and  O_29
    3  A    between atoms: O_29  and  C_32
                            x       y       z     vdW  Elec       q    Type
                         _______ _______ _______ _____ _____    ______ ____

>  <TORSDO>
F 3

$$$$
=
 OpenBabel11112418053D

 34 40  0  0  1  0  0  0  0  0999 V2000
  189.5250  174.7120  142.8490 C   0  0  1  0  0  3  0  0  0  0  0  0
  191.7840  173.8310  143.0190 C   0  0  0  0  0  2  0  0  0  0  0  0
  185.4380  179.2210  144.7270 C   0  0  0  0  0  0  0  0  0  0  0  0
  187.2750  175.8310  142.6960 C   0  0  2  0  0  3  0  0  0  0  0  0
  186.2770  176.8370  144.8090 C   0  0  2  0  0  3  0  0  0  0  0  0
  185.3800  177.9750  146.9350 C   0  0  0  0  0  1  0  0  0  0  0  0
  186.0070  180.1960  145.2900 O   0  0  0  0  0  0  0  0  0  0  0  0
  184.2510  178.3100  142.7600 C   0  0  0  0  0  2  0  0  0  0  0  0
  190.6950  174.5500  144.8750 C   0  0  2  0  0  3  0  0  0  0  0  0
  192.2330  175.9740  147.2950 C   0  0  0  0  0  2  0  0  0  0  0  0
  187.6710  176.8860  145.4440 C   0  0  0  0  0  2  0  0  0  0  0  0
  185.0460  177.0060  142.5520 C   0  0  0  0  0  2  0  0  0  0  0  0
  189.8890  175.6520  145.5910 C   0  0  1  0  0  3  0  0  0  0  0  0
  192.7870  173.6610  144.1580 C   0  0  0  0  0  2  0  0  0  0  0  0
  186.4020  176.9560  143.2660 C   0  0  2  0  0  3  0  0  0  0  0  0
  184.9970  179.3450  143.4060 O   0  0  0  0  0  0  0  0  0  0  0  0
  192.8440  175.4270  145.9910 C   0  0  1  0  0  3  0  0  0  0  0  0
  188.6380  175.8350  143.4040 C   0  0  1  0  0  3  0  0  0  0  0  0
  185.3280  177.8890  145.4140 C   0  0  1  0  0  3  0  0  0  0  0  0
  188.5000  175.7140  144.9290 C   0  0  2  0  0  3  0  0  0  0  0  0
  188.1320  174.8970  140.8030 C   0  0  0  0  0  2  0  0  0  0  0  0
  191.0700  175.1400  147.8380 C   0  0  0  0  0  2  0  0  0  0  0  0
  187.4780  176.0370  141.3120 O   0  0  0  0  0  0  0  0  0  0  0  0
  189.7490  175.3920  147.0990 C   0  0  0  0  0  2  0  0  0  0  0  0
  192.0880  174.2190  145.3890 C   0  0  1  0  0  3  0  0  0  0  0  0
  189.5700  174.8360  141.3250 C   0  0  0  0  0  2  0  0  0  0  0  0
  190.8460  174.8560  143.4590 N   0  0  2  0  0  0  0  0  0  0  0  0
  192.9750  176.5140  145.0300 N   0  0  0  0  0  2  0  0  0  0  0  0
  194.2890  176.8240  144.9520 O   0  0  0  0  0  0  0  0  0  0  0  0
  196.0800  176.5010  142.2660 C   0  0  0  0  0  3  0  0  0  0  0  0
  196.2870  175.7040  144.3750 C   0  0  0  0  0  3  0  0  0  0  0  0
  194.8280  175.8580  144.0970 C   0  0  2  0  0  3  0  0  0  0  0  0
  196.9930  176.0780  143.3200 C   0  0  0  0  0  3  0  0  0  0  0  0
  194.8330  176.3760  142.6990 C   0  0  0  0  0  3  0  0  0  0  0  0
  1 26  1  6  0  0  0
  1 18  1  0  0  0  0
  1 27  1  0  0  0  0
  2 27  1  0  0  0  0
  2 14  1  0  0  0  0
  3  7  2  0  0  0  0
  3 19  1  0  0  0  0
  4 23  1  6  0  0  0
  4 15  1  0  0  0  0
  4 18  1  0  0  0  0
  5 19  1  0  0  0  0
  5 11  1  1  0  0  0
  8 16  1  0  0  0  0
  9 25  1  0  0  0  0
  9 13  1  0  0  0  0
 10 22  1  0  0  0  0
 12  8  1  0  0  0  0
 12 15  1  0  0  0  0
 13 24  1  0  0  0  0
 14 25  1  0  0  0  0
 15  5  1  0  0  0  0
 16  3  1  0  0  0  0
 17 10  1  0  0  0  0
 18 20  1  0  0  0  0
 19  6  1  0  0  0  0
 20 11  1  0  0  0  0
 20 13  1  0  0  0  0
 21 23  1  0  0  0  0
 21 26  1  0  0  0  0
 24 22  1  0  0  0  0
 25 17  1  0  0  0  0
 27  9  1  0  0  0  0
 28 17  1  0  0  0  0
 29 28  1  0  0  0  0
 30 34  2  0  0  0  0
 30 33  1  0  0  0  0
 32 31  1  0  0  0  0
 32 29  1  0  0  0  0
 33 31  2  0  0  0  0
 34 32  1  0  0  0  0
M  END
>  <MODEL>
2

>  <REMARK>
 VINA RESULT:      -7.1      2.196      5.047
  Name = 
  3 active torsions:
  status: ('A' for Active; 'I' for Inactive)
    1  A    between atoms: C_17  and  N_28
    2  A    between atoms: N_28  and  O_29
    3  A    between atoms: O_29  and  C_32
                            x       y       z     vdW  Elec       q    Type
                         _______ _______ _______ _____ _____    ______ ____

>  <TORSDO>
F 3

$$$$
=
 OpenBabel11112418053D

 34 40  0  0  1  0  0  0  0  0999 V2000
  190.7040  173.5180  141.6830 C   0  0  1  0  0  3  0  0  0  0  0  0
  188.3460  174.0250  141.9830 C   0  0  0  0  0  2  0  0  0  0  0  0
  196.5990  174.1390  144.0110 C   0  0  0  0  0  0  0  0  0  0  0  0
  193.1610  172.9780  141.5970 C   0  0  2  0  0  3  0  0  0  0  0  0
  194.8190  174.7650  142.3280 C   0  0  2  0  0  3  0  0  0  0  0  0
  196.4470  176.5460  143.2230 C   0  0  0  0  0  1  0  0  0  0  0  0
  196.6150  174.5310  145.2090 O   0  0  0  0  0  0  0  0  0  0  0  0
  196.9380  172.3190  142.3730 C   0  0  0  0  0  2  0  0  0  0  0  0
  189.9170  175.6120  142.3830 C   0  0  2  0  0  3  0  0  0  0  0  0
  189.5660  177.7960  144.6980 C   0  0  0  0  0  2  0  0  0  0  0  0
  193.7090  175.4760  143.1100 C   0  0  0  0  0  2  0  0  0  0  0  0
  195.6270  172.4390  141.5710 C   0  0  0  0  0  2  0  0  0  0  0  0
  191.2270  176.0290  143.0790 C   0  0  1  0  0  3  0  0  0  0  0  0
  187.5630  175.2430  142.4680 C   0  0  0  0  0  2  0  0  0  0  0  0
  194.5190  173.2440  142.2610 C   0  0  2  0  0  3  0  0  0  0  0  0
  196.8370  172.7930  143.7190 O   0  0  0  0  0  0  0  0  0  0  0  0
  188.5800  176.6780  144.3100 C   0  0  1  0  0  3  0  0  0  0  0  0
  192.0710  173.7680  142.3350 C   0  0  1  0  0  3  0  0  0  0  0  0
  196.2170  175.0740  142.8970 C   0  0  1  0  0  3  0  0  0  0  0  0
  192.3780  175.2710  142.3930 C   0  0  2  0  0  3  0  0  0  0  0  0
  191.6960  171.3830  140.8960 C   0  0  0  0  0  2  0  0  0  0  0  0
  190.3100  178.4130  143.5120 C   0  0  0  0  0  2  0  0  0  0  0  0
  192.8560  171.6000  141.6650 O   0  0  0  0  0  0  0  0  0  0  0  0
  191.4730  177.5450  143.0110 C   0  0  0  0  0  2  0  0  0  0  0  0
  188.6210  176.2820  142.8140 C   0  0  1  0  0  3  0  0  0  0  0  0
  190.4800  172.0070  141.5850 C   0  0  0  0  0  2  0  0  0  0  0  0
  189.6960  174.1790  142.5100 N   0  0  2  0  0  0  0  0  0  0  0  0
  188.7930  175.5270  145.1770 N   0  0  0  0  0  2  0  0  0  0  0  0
  188.9280  175.9960  146.4390 O   0  0  0  0  0  0  0  0  0  0  0  0
  191.8090  174.5440  146.0990 C   0  0  0  0  0  3  0  0  0  0  0  0
  190.8940  175.8130  147.7360 C   0  0  0  0  0  3  0  0  0  0  0  0
  189.7800  175.0800  147.0630 C   0  0  2  0  0  3  0  0  0  0  0  0
  192.0500  175.5000  147.1730 C   0  0  0  0  0  3  0  0  0  0  0  0
  190.5090  174.2920  146.0280 C   0  0  0  0  0  3  0  0  0  0  0  0
  1 26  1  1  0  0  0
  1 18  1  0  0  0  0
  1 27  1  0  0  0  0
  2 14  1  0  0  0  0
  2 27  1  0  0  0  0
  3  7  2  0  0  0  0
  4 23  1  1  0  0  0
  4 15  1  0  0  0  0
  4 18  1  0  0  0  0
  5 19  1  0  0  0  0
  5 11  1  1  0  0  0
  8 16  1  0  0  0  0
  9 27  1  0  0  0  0
  9 25  1  0  0  0  0
  9 13  1  0  0  0  0
 12 15  1  0  0  0  0
 12  8  1  0  0  0  0
 14 25  1  0  0  0  0
 15  5  1  0  0  0  0
 16  3  1  0  0  0  0
 17 10  1  0  0  0  0
 17 28  1  0  0  0  0
 18 20  1  0  0  0  0
 19  6  1  0  0  0  0
 19  3  1  0  0  0  0
 20 13  1  0  0  0  0
 20 11  1  0  0  0  0
 21 26  1  0  0  0  0
 21 23  1  0  0  0  0
 22 10  1  0  0  0  0
 24 13  1  0  0  0  0
 24 22  1  0  0  0  0
 25 17  1  0  0  0  0
 28 29  1  0  0  0  0
 29 32  1  0  0  0  0
 30 33  1  0  0  0  0
 32 31  1  0  0  0  0
 33 31  2  0  0  0  0
 34 30  2  0  0  0  0
 34 32  1  0  0  0  0
M  END
>  <MODEL>
3

>  <REMARK>
 VINA RESULT:      -6.9      2.218      7.110
  Name = 
  3 active torsions:
  status: ('A' for Active; 'I' for Inactive)
    1  A    between atoms: C_17  and  N_28
    2  A    between atoms: N_28  and  O_29
    3  A    between atoms: O_29  and  C_32
                            x       y       z     vdW  Elec       q    Type
                         _______ _______ _______ _____ _____    ______ ____

>  <TORSDO>
F 3

$$$$
=
 OpenBabel11112418053D

 34 40  0  0  1  0  0  0  0  0999 V2000
  192.3800  176.5250  146.3190 C   0  0  1  0  0  3  0  0  0  0  0  0
  194.6230  175.6030  146.4850 C   0  0  0  0  0  2  0  0  0  0  0  0
  186.8220  176.4190  143.2120 C   0  0  0  0  0  0  0  0  0  0  0  0
  189.9880  177.2730  146.0820 C   0  0  2  0  0  3  0  0  0  0  0  0
  189.0280  177.5350  143.7400 C   0  0  2  0  0  3  0  0  0  0  0  0
  188.0560  177.6340  141.3590 C   0  0  0  0  0  1  0  0  0  0  0  0
  186.6940  175.4090  142.4670 O   0  0  0  0  0  0  0  0  0  0  0  0
  186.1780  177.6260  145.2710 C   0  0  0  0  0  2  0  0  0  0  0  0
  193.7370  176.0960  144.4550 C   0  0  2  0  0  3  0  0  0  0  0  0
  194.3820  174.3430  141.8550 C   0  0  0  0  0  2  0  0  0  0  0  0
  190.1240  176.6170  143.1870 C   0  0  0  0  0  2  0  0  0  0  0  0
  187.5760  177.9700  145.8230 C   0  0  0  0  0  2  0  0  0  0  0  0
  192.5690  175.9710  143.4570 C   0  0  1  0  0  3  0  0  0  0  0  0
  195.6870  175.1780  145.4750 C   0  0  0  0  0  2  0  0  0  0  0  0
  188.7270  177.1590  145.2160 C   0  0  2  0  0  3  0  0  0  0  0  0
  186.1550  176.4620  144.4410 O   0  0  0  0  0  0  0  0  0  0  0  0
  194.9210  174.1320  143.2820 C   0  0  1  0  0  3  0  0  0  0  0  0
  191.1070  176.4200  145.4670 C   0  0  1  0  0  3  0  0  0  0  0  0
  187.7690  177.5290  142.8530 C   0  0  1  0  0  3  0  0  0  0  0  0
  191.3970  176.8030  144.0090 C   0  0  2  0  0  3  0  0  0  0  0  0
  190.8430  177.0890  148.1850 C   0  0  0  0  0  2  0  0  0  0  0  0
  194.2120  175.8120  141.4610 C   0  0  0  0  0  2  0  0  0  0  0  0
  189.7170  176.8030  147.3870 O   0  0  0  0  0  0  0  0  0  0  0  0
  192.9460  176.4530  142.0470 C   0  0  0  0  0  2  0  0  0  0  0  0
  195.0620  175.4330  144.1110 C   0  0  1  0  0  3  0  0  0  0  0  0
  192.0220  176.2030  147.7710 C   0  0  0  0  0  2  0  0  0  0  0  0
  193.3560  175.5870  145.7650 N   0  0  2  0  0  0  0  0  0  0  0  0
  194.0970  173.1450  143.9660 N   0  0  0  0  0  2  0  0  0  0  0  0
  194.8150  172.0000  144.0330 O   0  0  0  0  0  0  0  0  0  0  0  0
  195.5130  169.6360  146.1420 C   0  0  0  0  0  3  0  0  0  0  0  0
  196.4000  171.6830  145.7560 C   0  0  0  0  0  3  0  0  0  0  0  0
  194.9500  171.7500  145.4020 C   0  0  2  0  0  3  0  0  0  0  0  0
  196.7090  170.4670  146.1760 C   0  0  0  0  0  3  0  0  0  0  0  0
  194.4940  170.3620  145.7030 C   0  0  0  0  0  3  0  0  0  0  0  0
  1 26  1  1  0  0  0
  3 16  1  0  0  0  0
  4 23  1  1  0  0  0
  5 11  1  6  0  0  0
  5 15  1  0  0  0  0
  6 19  1  0  0  0  0
  7  3  2  0  0  0  0
  8 12  1  0  0  0  0
  9 27  1  0  0  0  0
 10 17  1  0  0  0  0
 11 20  1  0  0  0  0
 13 20  1  0  0  0  0
 13  9  1  0  0  0  0
 14  2  1  0  0  0  0
 15 12  1  0  0  0  0
 15  4  1  0  0  0  0
 16  8  1  0  0  0  0
 17 28  1  0  0  0  0
 17 25  1  0  0  0  0
 18  4  1  0  0  0  0
 18  1  1  0  0  0  0
 19  3  1  0  0  0  0
 19  5  1  0  0  0  0
 20 18  1  0  0  0  0
 22 10  1  0  0  0  0
 22 24  1  0  0  0  0
 23 21  1  0  0  0  0
 24 13  1  0  0  0  0
 25  9  1  0  0  0  0
 25 14  1  0  0  0  0
 26 21  1  0  0  0  0
 27  1  1  0  0  0  0
 27  2  1  0  0  0  0
 28 29  1  0  0  0  0
 29 32  1  0  0  0  0
 30 33  1  0  0  0  0
 31 33  2  0  0  0  0
 32 34  1  0  0  0  0
 32 31  1  0  0  0  0
 34 30  2  0  0  0  0
M  END
>  <MODEL>
4

>  <REMARK>
 VINA RESULT:      -6.8      1.548      2.190
  Name = 
  3 active torsions:
  status: ('A' for Active; 'I' for Inactive)
    1  A    between atoms: C_17  and  N_28
    2  A    between atoms: N_28  and  O_29
    3  A    between atoms: O_29  and  C_32
                            x       y       z     vdW  Elec       q    Type
                         _______ _______ _______ _____ _____    ______ ____

>  <TORSDO>
F 3

$$$$
=
 OpenBabel11112418053D

 34 40  0  0  1  0  0  0  0  0999 V2000
  190.7640  174.5600  142.1930 C   0  0  1  0  0  3  0  0  0  0  0  0
  189.5860  176.6030  142.7860 C   0  0  0  0  0  2  0  0  0  0  0  0
  193.1200  169.0110  144.2450 C   0  0  0  0  0  0  0  0  0  0  0  0
  191.8570  172.3400  141.7320 C   0  0  2  0  0  3  0  0  0  0  0  0
  193.4560  171.3940  143.4710 C   0  0  2  0  0  3  0  0  0  0  0  0
  194.9430  170.4070  145.3240 C   0  0  0  0  0  1  0  0  0  0  0  0
  192.6900  168.6870  145.3860 O   0  0  0  0  0  0  0  0  0  0  0  0
  193.1270  168.6410  141.8020 C   0  0  0  0  0  2  0  0  0  0  0  0
  191.2030  175.7780  144.1480 C   0  0  2  0  0  3  0  0  0  0  0  0
  191.0270  176.0390  147.3340 C   0  0  0  0  0  2  0  0  0  0  0  0
  192.8270  172.2940  144.5400 C   0  0  0  0  0  2  0  0  0  0  0  0
  192.9200  170.0890  141.3140 C   0  0  0  0  0  2  0  0  0  0  0  0
  191.7950  174.5860  144.9250 C   0  0  1  0  0  3  0  0  0  0  0  0
  189.6160  177.5500  143.9830 C   0  0  0  0  0  2  0  0  0  0  0  0
  192.4010  171.0610  142.3810 C   0  0  2  0  0  3  0  0  0  0  0  0
  192.5980  168.3900  143.1060 O   0  0  0  0  0  0  0  0  0  0  0  0
  190.0160  176.5610  146.2960 C   0  0  1  0  0  3  0  0  0  0  0  0
  191.3100  173.2720  142.8230 C   0  0  1  0  0  3  0  0  0  0  0  0
  194.1030  170.1360  144.0810 C   0  0  1  0  0  3  0  0  0  0  0  0
  192.3640  173.5960  143.8930 C   0  0  2  0  0  3  0  0  0  0  0  0
  190.4640  173.1910  140.1440 C   0  0  0  0  0  2  0  0  0  0  0  0
  192.4880  176.1310  146.8860 C   0  0  0  0  0  2  0  0  0  0  0  0
  190.8100  172.0150  140.8400 O   0  0  0  0  0  0  0  0  0  0  0  0
  192.8920  175.0150  145.9120 C   0  0  0  0  0  2  0  0  0  0  0  0
  190.6420  176.9530  144.9360 C   0  0  1  0  0  3  0  0  0  0  0  0
  189.7750  174.1810  141.0880 C   0  0  0  0  0  2  0  0  0  0  0  0
  190.1360  175.3390  143.2600 N   0  0  2  0  0  0  0  0  0  0  0  0
  188.9460  175.5860  146.1350 N   0  0  0  0  0  2  0  0  0  0  0  0
  187.9740  175.9090  147.0190 O   0  0  0  0  0  0  0  0  0  0  0  0
  185.1780  177.2330  146.0410 C   0  0  0  0  0  3  0  0  0  0  0  0
  186.6970  177.8040  147.6190 C   0  0  0  0  0  3  0  0  0  0  0  0
  187.4330  177.0990  146.5260 C   0  0  2  0  0  3  0  0  0  0  0  0
  185.4080  177.8710  147.3310 C   0  0  0  0  0  3  0  0  0  0  0  0
  186.3340  176.7880  145.5660 C   0  0  0  0  0  3  0  0  0  0  0  0
  1 26  1  6  0  0  0
  1 18  1  0  0  0  0
  1 27  1  0  0  0  0
  2 27  1  0  0  0  0
  2 14  1  0  0  0  0
  3  7  2  0  0  0  0
  4 23  1  6  0  0  0
  4 15  1  0  0  0  0
  4 18  1  0  0  0  0
  5 19  1  0  0  0  0
  5 11  1  1  0  0  0
  8 16  1  0  0  0  0
  9 13  1  0  0  0  0
  9 25  1  0  0  0  0
 12  8  1  0  0  0  0
 12 15  1  0  0  0  0
 13 24  1  0  0  0  0
 14 25  1  0  0  0  0
 15  5  1  0  0  0  0
 16  3  1  0  0  0  0
 17 10  1  0  0  0  0
 18 20  1  0  0  0  0
 19  3  1  0  0  0  0
 19  6  1  0  0  0  0
 20 11  1  0  0  0  0
 20 13  1  0  0  0  0
 21 23  1  0  0  0  0
 21 26  1  0  0  0  0
 22 10  1  0  0  0  0
 24 22  1  0  0  0  0
 25 17  1  0  0  0  0
 27  9  1  0  0  0  0
 28 17  1  0  0  0  0
 28 29  1  0  0  0  0
 30 33  1  0  0  0  0
 32 29  1  0  0  0  0
 32 31  1  0  0  0  0
 33 31  2  0  0  0  0
 34 30  2  0  0  0  0
 34 32  1  0  0  0  0
M  END
>  <MODEL>
5

>  <REMARK>
 VINA RESULT:      -6.6      2.404      7.429
  Name = 
  3 active torsions:
  status: ('A' for Active; 'I' for Inactive)
    1  A    between atoms: C_17  and  N_28
    2  A    between atoms: N_28  and  O_29
    3  A    between atoms: O_29  and  C_32
                            x       y       z     vdW  Elec       q    Type
                         _______ _______ _______ _____ _____    ______ ____

>  <TORSDO>
F 3

$$$$
=
 OpenBabel11112418053D

 34 40  0  0  1  0  0  0  0  0999 V2000
  189.6910  174.1030  141.1710 C   0  0  1  0  0  3  0  0  0  0  0  0
  187.9120  175.7590  141.1460 C   0  0  0  0  0  2  0  0  0  0  0  0
  194.2740  171.2970  144.5890 C   0  0  0  0  0  0  0  0  0  0  0  0
  191.4810  172.3500  141.4130 C   0  0  2  0  0  3  0  0  0  0  0  0
  193.5490  172.9130  142.7840 C   0  0  2  0  0  3  0  0  0  0  0  0
  195.5470  173.4720  144.3060 C   0  0  0  0  0  1  0  0  0  0  0  0
  194.1680  171.5170  145.8260 O   0  0  0  0  0  0  0  0  0  0  0  0
  194.0790  169.7210  142.6950 C   0  0  0  0  0  2  0  0  0  0  0  0
  189.8960  176.2280  142.1420 C   0  0  2  0  0  3  0  0  0  0  0  0
  190.0840  178.0590  144.7620 C   0  0  0  0  0  2  0  0  0  0  0  0
  192.7790  174.0360  143.4870 C   0  0  0  0  0  2  0  0  0  0  0  0
  193.2620  170.5870  141.7150 C   0  0  0  0  0  2  0  0  0  0  0  0
  191.0060  175.8240  143.1320 C   0  0  1  0  0  3  0  0  0  0  0  0
  187.7410  177.1610  141.7270 C   0  0  0  0  0  2  0  0  0  0  0  0
  192.5630  171.7960  142.3490 C   0  0  2  0  0  3  0  0  0  0  0  0
  193.8780  170.0600  144.0690 O   0  0  0  0  0  0  0  0  0  0  0  0
  188.8140  177.6740  143.9800 C   0  0  1  0  0  3  0  0  0  0  0  0
  190.7760  173.5320  142.0940 C   0  0  1  0  0  3  0  0  0  0  0  0
  194.7110  172.3820  143.6460 C   0  0  1  0  0  3  0  0  0  0  0  0
  191.7620  174.6310  142.5180 C   0  0  2  0  0  3  0  0  0  0  0  0
  189.6580  171.8430  140.1450 C   0  0  0  0  0  2  0  0  0  0  0  0
  191.3160  178.2830  143.8820 C   0  0  0  0  0  2  0  0  0  0  0  0
  190.5270  171.3450  141.1370 O   0  0  0  0  0  0  0  0  0  0  0  0
  191.9790  176.9760  143.4260 C   0  0  0  0  0  2  0  0  0  0  0  0
  189.0420  177.4450  142.4650 C   0  0  1  0  0  3  0  0  0  0  0  0
  188.7810  172.9580  140.7230 C   0  0  0  0  0  2  0  0  0  0  0  0
  188.9680  175.1270  141.9250 N   0  0  2  0  0  0  0  0  0  0  0  0
  188.1930  176.5170  144.6110 N   0  0  0  0  0  2  0  0  0  0  0  0
  187.4850  176.9710  145.6710 O   0  0  0  0  0  0  0  0  0  0  0  0
  184.4950  177.8350  146.5880 C   0  0  0  0  0  3  0  0  0  0  0  0
  185.9080  178.5940  144.9900 C   0  0  0  0  0  3  0  0  0  0  0  0
  186.1870  177.1380  145.1780 C   0  0  2  0  0  3  0  0  0  0  0  0
  184.9400  178.9810  145.8050 C   0  0  0  0  0  3  0  0  0  0  0  0
  185.2010  176.7700  146.2360 C   0  0  0  0  0  3  0  0  0  0  0  0
  1 26  1  1  0  0  0
  1 27  1  0  0  0  0
  1 18  1  0  0  0  0
  2 14  1  0  0  0  0
  2 27  1  0  0  0  0
  3  7  2  0  0  0  0
  4 23  1  1  0  0  0
  4 18  1  0  0  0  0
  4 15  1  0  0  0  0
  5 11  1  1  0  0  0
  5 19  1  0  0  0  0
  8 16  1  0  0  0  0
  9 25  1  0  0  0  0
  9 13  1  0  0  0  0
 12 15  1  0  0  0  0
 12  8  1  0  0  0  0
 13 24  1  0  0  0  0
 14 25  1  0  0  0  0
 15  5  1  0  0  0  0
 16  3  1  0  0  0  0
 17 28  1  0  0  0  0
 17 10  1  0  0  0  0
 18 20  1  0  0  0  0
 19  6  1  0  0  0  0
 19  3  1  0  0  0  0
 20 13  1  0  0  0  0
 20 11  1  0  0  0  0
 21 26  1  0  0  0  0
 21 23  1  0  0  0  0
 22 10  1  0  0  0  0
 24 22  1  0  0  0  0
 25 17  1  0  0  0  0
 27  9  1  0  0  0  0
 28 29  1  0  0  0  0
 31 32  1  0  0  0  0
 31 33  2  0  0  0  0
 32 29  1  0  0  0  0
 32 34  1  0  0  0  0
 33 30  1  0  0  0  0
 34 30  2  0  0  0  0
M  END
>  <MODEL>
6

>  <REMARK>
 VINA RESULT:      -6.6      2.516      7.561
  Name = 
  3 active torsions:
  status: ('A' for Active; 'I' for Inactive)
    1  A    between atoms: C_17  and  N_28
    2  A    between atoms: N_28  and  O_29
    3  A    between atoms: O_29  and  C_32
                            x       y       z     vdW  Elec       q    Type
                         _______ _______ _______ _____ _____    ______ ____

>  <TORSDO>
F 3

$$$$
=
 OpenBabel11112418053D

 34 40  0  0  1  0  0  0  0  0999 V2000
  193.8790  175.3420  143.6470 C   0  0  1  0  0  3  0  0  0  0  0  0
  193.8270  176.2890  145.8850 C   0  0  0  0  0  2  0  0  0  0  0  0
  190.4810  173.5700  138.5600 C   0  0  0  0  0  0  0  0  0  0  0  0
  193.7590  174.4970  141.2790 C   0  0  2  0  0  3  0  0  0  0  0  0
  191.8150  172.9900  140.6280 C   0  0  2  0  0  3  0  0  0  0  0  0
  189.7510  171.5980  139.9780 C   0  0  0  0  0  1  0  0  0  0  0  0
  189.3030  174.0200  138.5760 O   0  0  0  0  0  0  0  0  0  0  0  0
  192.7580  173.6280  137.5990 C   0  0  0  0  0  2  0  0  0  0  0  0
  192.2780  174.7560  145.2560 C   0  0  2  0  0  3  0  0  0  0  0  0
  189.2580  174.8690  146.3140 C   0  0  0  0  0  2  0  0  0  0  0  0
  191.0120  173.5080  141.8260 C   0  0  0  0  0  2  0  0  0  0  0  0
  193.5900  173.6840  138.8950 C   0  0  0  0  0  2  0  0  0  0  0  0
  191.2210  174.2860  144.2380 C   0  0  1  0  0  3  0  0  0  0  0  0
  192.9010  176.1460  147.0900 C   0  0  0  0  0  2  0  0  0  0  0  0
  192.8050  174.0850  140.1500 C   0  0  2  0  0  3  0  0  0  0  0  0
  191.4400  174.1660  137.7350 O   0  0  0  0  0  0  0  0  0  0  0  0
  190.4090  175.8300  146.6680 C   0  0  1  0  0  3  0  0  0  0  0  0
  192.9410  174.9300  142.5040 C   0  0  1  0  0  3  0  0  0  0  0  0
  190.9020  172.4740  139.4990 C   0  0  1  0  0  3  0  0  0  0  0  0
  191.9670  173.8370  142.9690 C   0  0  2  0  0  3  0  0  0  0  0  0
  195.5310  175.8080  141.8530 C   0  0  0  0  0  2  0  0  0  0  0  0
  189.6920  173.4120  146.1370 C   0  0  0  0  0  2  0  0  0  0  0  0
  194.5610  175.5820  140.8560 O   0  0  0  0  0  0  0  0  0  0  0  0
  190.3520  173.1390  144.7790 C   0  0  0  0  0  2  0  0  0  0  0  0
  191.8140  175.1800  146.6420 C   0  0  1  0  0  3  0  0  0  0  0  0
  194.8710  176.3770  143.1120 C   0  0  0  0  0  2  0  0  0  0  0  0
  193.0480  175.8730  144.7260 N   0  0  2  0  0  0  0  0  0  0  0  0
  190.3420  176.9990  145.8020 N   0  0  0  0  0  2  0  0  0  0  0  0
  189.0330  177.2630  145.5850 O   0  0  0  0  0  0  0  0  0  0  0  0
  190.5830  177.5280  142.7470 C   0  0  0  0  0  3  0  0  0  0  0  0
  188.4270  177.1210  143.3060 C   0  0  0  0  0  3  0  0  0  0  0  0
  189.0140  177.9750  144.3820 C   0  0  2  0  0  3  0  0  0  0  0  0
  189.3360  176.8710  142.3770 C   0  0  0  0  0  3  0  0  0  0  0  0
  190.4100  178.1690  143.8950 C   0  0  0  0  0  3  0  0  0  0  0  0
  1 26  1  6  0  0  0
  1 27  1  0  0  0  0
  2 14  1  0  0  0  0
  3  7  2  0  0  0  0
  3 19  1  0  0  0  0
  4 23  1  6  0  0  0
  4 18  1  0  0  0  0
  5 11  1  1  0  0  0
  8 16  1  0  0  0  0
  8 12  1  0  0  0  0
  9 25  1  0  0  0  0
 10 17  1  0  0  0  0
 11 20  1  0  0  0  0
 12 15  1  0  0  0  0
 13 24  1  0  0  0  0
 13  9  1  0  0  0  0
 15  5  1  0  0  0  0
 15  4  1  0  0  0  0
 16  3  1  0  0  0  0
 18 20  1  0  0  0  0
 18  1  1  0  0  0  0
 19  6  1  0  0  0  0
 19  5  1  0  0  0  0
 20 13  1  0  0  0  0
 21 26  1  0  0  0  0
 22 10  1  0  0  0  0
 23 21  1  0  0  0  0
 24 22  1  0  0  0  0
 25 17  1  0  0  0  0
 25 14  1  0  0  0  0
 27  9  1  0  0  0  0
 27  2  1  0  0  0  0
 28 17  1  0  0  0  0
 29 28  1  0  0  0  0
 30 34  2  0  0  0  0
 31 32  1  0  0  0  0
 32 29  1  0  0  0  0
 33 30  1  0  0  0  0
 33 31  2  0  0  0  0
 34 32  1  0  0  0  0
M  END
>  <MODEL>
7

>  <REMARK>
 VINA RESULT:      -6.5      2.525      6.057
  Name = 
  3 active torsions:
  status: ('A' for Active; 'I' for Inactive)
    1  A    between atoms: C_17  and  N_28
    2  A    between atoms: N_28  and  O_29
    3  A    between atoms: O_29  and  C_32
                            x       y       z     vdW  Elec       q    Type
                         _______ _______ _______ _____ _____    ______ ____

>  <TORSDO>
F 3

$$$$
=
 OpenBabel11112418053D

 34 40  0  0  1  0  0  0  0  0999 V2000
  192.5200  175.4350  145.3750 C   0  0  1  0  0  3  0  0  0  0  0  0
  190.4410  175.9770  146.5120 C   0  0  0  0  0  2  0  0  0  0  0  0
  195.5450  174.9810  139.7900 C   0  0  0  0  0  0  0  0  0  0  0  0
  194.6210  175.0360  144.0480 C   0  0  2  0  0  3  0  0  0  0  0  0
  194.4230  173.8990  141.7800 C   0  0  2  0  0  3  0  0  0  0  0  0
  194.1570  172.8890  139.4290 C   0  0  0  0  0  1  0  0  0  0  0  0
  194.9300  175.5540  138.8500 O   0  0  0  0  0  0  0  0  0  0  0  0
  197.4570  174.9430  141.3560 C   0  0  0  0  0  2  0  0  0  0  0  0
  190.4130  174.7660  144.5940 C   0  0  2  0  0  3  0  0  0  0  0  0
  188.0480  175.0400  142.4530 C   0  0  0  0  0  2  0  0  0  0  0  0
  192.9430  174.2900  141.7130 C   0  0  0  0  0  2  0  0  0  0  0  0
  196.7100  174.6760  142.6780 C   0  0  0  0  0  2  0  0  0  0  0  0
  190.8520  174.6060  143.1250 C   0  0  1  0  0  3  0  0  0  0  0  0
  188.9620  175.7340  146.2190 C   0  0  0  0  0  2  0  0  0  0  0  0
  195.2000  174.9400  142.6310 C   0  0  2  0  0  3  0  0  0  0  0  0
  196.6610  175.5980  140.3650 O   0  0  0  0  0  0  0  0  0  0  0  0
  188.1860  175.7850  143.7940 C   0  0  1  0  0  3  0  0  0  0  0  0
  193.1180  175.3390  143.9650 C   0  0  1  0  0  3  0  0  0  0  0  0
  195.0320  173.6970  140.3800 C   0  0  1  0  0  3  0  0  0  0  0  0
  192.3610  174.3020  143.1230 C   0  0  2  0  0  3  0  0  0  0  0  0
  194.8240  176.0130  146.0950 C   0  0  0  0  0  2  0  0  0  0  0  0
  188.5540  173.5960  142.4850 C   0  0  0  0  0  2  0  0  0  0  0  0
  195.2610  176.0780  144.7570 O   0  0  0  0  0  0  0  0  0  0  0  0
  190.0830  173.4900  142.4000 C   0  0  0  0  0  2  0  0  0  0  0  0
  188.9380  174.9920  144.8910 C   0  0  1  0  0  3  0  0  0  0  0  0
  193.3530  176.4260  146.1910 C   0  0  0  0  0  2  0  0  0  0  0  0
  191.1280  175.8620  145.2320 N   0  0  2  0  0  0  0  0  0  0  0  0
  188.7950  177.0880  143.5600 N   0  0  0  0  0  2  0  0  0  0  0  0
  188.2090  177.9630  144.4090 O   0  0  0  0  0  0  0  0  0  0  0  0
  185.3320  179.2180  145.2280 C   0  0  0  0  0  3  0  0  0  0  0  0
  186.4140  178.9770  143.2540 C   0  0  0  0  0  3  0  0  0  0  0  0
  186.8420  177.8510  144.1390 C   0  0  2  0  0  3  0  0  0  0  0  0
  185.5520  179.7530  143.8900 C   0  0  0  0  0  3  0  0  0  0  0  0
  186.0640  178.1240  145.3820 C   0  0  0  0  0  3  0  0  0  0  0  0
  1 26  1  1  0  0  0
  3 16  1  0  0  0  0
  3 19  1  0  0  0  0
  4 23  1  1  0  0  0
  5 11  1  6  0  0  0
  5 15  1  0  0  0  0
  6 19  1  0  0  0  0
  7  3  2  0  0  0  0
  8 12  1  0  0  0  0
  9 25  1  0  0  0  0
  9 27  1  0  0  0  0
 10 22  1  0  0  0  0
 10 17  1  0  0  0  0
 11 20  1  0  0  0  0
 13  9  1  0  0  0  0
 14  2  1  0  0  0  0
 15 12  1  0  0  0  0
 15  4  1  0  0  0  0
 16  8  1  0  0  0  0
 17 25  1  0  0  0  0
 18  4  1  0  0  0  0
 18  1  1  0  0  0  0
 19  5  1  0  0  0  0
 20 13  1  0  0  0  0
 20 18  1  0  0  0  0
 21 26  1  0  0  0  0
 23 21  1  0  0  0  0
 24 22  1  0  0  0  0
 24 13  1  0  0  0  0
 25 14  1  0  0  0  0
 27  1  1  0  0  0  0
 27  2  1  0  0  0  0
 28 17  1  0  0  0  0
 28 29  1  0  0  0  0
 30 34  2  0  0  0  0
 31 33  2  0  0  0  0
 31 32  1  0  0  0  0
 32 29  1  0  0  0  0
 32 34  1  0  0  0  0
 33 30  1  0  0  0  0
M  END
>  <MODEL>
8

>  <REMARK>
 VINA RESULT:      -6.4      2.449      6.926
  Name = 
  3 active torsions:
  status: ('A' for Active; 'I' for Inactive)
    1  A    between atoms: C_17  and  N_28
    2  A    between atoms: N_28  and  O_29
    3  A    between atoms: O_29  and  C_32
                            x       y       z     vdW  Elec       q    Type
                         _______ _______ _______ _____ _____    ______ ____

>  <TORSDO>
F 3

$$$$
=
 OpenBabel11112418053D

 34 40  0  0  1  0  0  0  0  0999 V2000
  187.8230  175.6650  141.6820 C   0  0  1  0  0  3  0  0  0  0  0  0
  189.5550  174.5770  140.3670 C   0  0  0  0  0  2  0  0  0  0  0  0
  186.3390  178.4860  147.1940 C   0  0  0  0  0  0  0  0  0  0  0  0
  186.1930  176.9220  143.1290 C   0  0  2  0  0  3  0  0  0  0  0  0
  186.2230  176.4970  145.6380 C   0  0  2  0  0  3  0  0  0  0  0  0
  186.3960  176.1500  148.1810 C   0  0  0  0  0  1  0  0  0  0  0  0
  187.3530  178.8000  147.8740 O   0  0  0  0  0  0  0  0  0  0  0  0
  184.4320  179.1890  145.7870 C   0  0  0  0  0  2  0  0  0  0  0  0
  189.3310  174.1070  142.5750 C   0  0  2  0  0  3  0  0  0  0  0  0
  191.8570  173.4630  144.4330 C   0  0  0  0  0  2  0  0  0  0  0  0
  187.6480  175.9460  145.5270 C   0  0  0  0  0  2  0  0  0  0  0  0
  184.6040  178.2140  144.6040 C   0  0  0  0  0  2  0  0  0  0  0  0
  189.2070  174.6080  144.0270 C   0  0  1  0  0  3  0  0  0  0  0  0
  190.6810  173.5940  140.6780 C   0  0  0  0  0  2  0  0  0  0  0  0
  185.9790  177.5430  144.5160 C   0  0  2  0  0  3  0  0  0  0  0  0
  185.6490  179.4730  146.4820 O   0  0  0  0  0  0  0  0  0  0  0  0
  191.8620  173.7830  142.9270 C   0  0  1  0  0  3  0  0  0  0  0  0
  187.5930  176.2940  143.0620 C   0  0  1  0  0  3  0  0  0  0  0  0
  185.9240  177.0490  147.0440 C   0  0  1  0  0  3  0  0  0  0  0  0
  187.8200  175.2610  144.1750 C   0  0  2  0  0  3  0  0  0  0  0  0
  186.1200  177.2830  140.8810 C   0  0  0  0  0  2  0  0  0  0  0  0
  190.6510  172.6410  144.8940 C   0  0  0  0  0  2  0  0  0  0  0  0
  186.0920  177.9240  142.1360 O   0  0  0  0  0  0  0  0  0  0  0  0
  189.3750  173.4780  145.0560 C   0  0  0  0  0  2  0  0  0  0  0  0
  190.5830  173.3400  142.1760 C   0  0  1  0  0  3  0  0  0  0  0  0
  187.5150  176.7130  140.6100 C   0  0  0  0  0  2  0  0  0  0  0  0
  189.2130  175.2110  141.6340 N   0  0  2  0  0  0  0  0  0  0  0  0
  192.1330  175.2020  142.7380 N   0  0  0  0  0  2  0  0  0  0  0  0
  192.7910  175.6350  143.8380 O   0  0  0  0  0  0  0  0  0  0  0  0
  190.5520  177.8850  143.1680 C   0  0  0  0  0  3  0  0  0  0  0  0
  191.7390  177.3820  145.0290 C   0  0  0  0  0  3  0  0  0  0  0  0
  192.5810  177.0160  143.8510 C   0  0  2  0  0  3  0  0  0  0  0  0
  190.5800  177.8760  144.6250 C   0  0  0  0  0  3  0  0  0  0  0  0
  191.6970  177.3970  142.7110 C   0  0  0  0  0  3  0  0  0  0  0  0
  1 26  1  6  0  0  0
  1 18  1  0  0  0  0
  2 14  1  0  0  0  0
  2 27  1  0  0  0  0
  3  7  2  0  0  0  0
  4 23  1  6  0  0  0
  4 15  1  0  0  0  0
  5 11  1  1  0  0  0
  5 19  1  0  0  0  0
  8 16  1  0  0  0  0
  9 13  1  0  0  0  0
 10 22  1  0  0  0  0
 12  8  1  0  0  0  0
 13 20  1  0  0  0  0
 13 24  1  0  0  0  0
 14 25  1  0  0  0  0
 15 12  1  0  0  0  0
 15  5  1  0  0  0  0
 16  3  1  0  0  0  0
 17 10  1  0  0  0  0
 18  4  1  0  0  0  0
 18 20  1  0  0  0  0
 19  3  1  0  0  0  0
 19  6  1  0  0  0  0
 20 11  1  0  0  0  0
 21 23  1  0  0  0  0
 22 24  1  0  0  0  0
 25  9  1  0  0  0  0
 25 17  1  0  0  0  0
 26 21  1  0  0  0  0
 27  1  1  0  0  0  0
 27  9  1  0  0  0  0
 28 17  1  0  0  0  0
 28 29  1  0  0  0  0
 29 32  1  0  0  0  0
 30 33  1  0  0  0  0
 32 31  1  0  0  0  0
 33 31  2  0  0  0  0
 34 30  2  0  0  0  0
 34 32  1  0  0  0  0
M  END
>  <MODEL>
9

>  <REMARK>
 VINA RESULT:      -6.4      2.351      5.341
  Name = 
  3 active torsions:
  status: ('A' for Active; 'I' for Inactive)
    1  A    between atoms: C_17  and  N_28
    2  A    between atoms: N_28  and  O_29
    3  A    between atoms: O_29  and  C_32
                            x       y       z     vdW  Elec       q    Type
                         _______ _______ _______ _____ _____    ______ ____

>  <TORSDO>
F 3

$$$$
