=
 OpenBabel11112417473D

 34 40  0  0  1  0  0  0  0  0999 V2000
  190.2330  174.6550  143.2890 C   0  0  0  0  0  0  0  0  0  0  0  0
  192.4420  173.5240  142.7920 C   0  0  0  0  0  3  0  0  0  0  0  0
  186.6260  178.0840  147.2730 C   0  0  1  0  0  3  0  0  0  0  0  0
  188.4250  176.2350  143.6600 C   0  0  0  0  0  0  0  0  0  0  0  0
  188.5650  177.8480  145.5460 C   0  0  1  0  0  3  0  0  0  0  0  0
  187.7940  175.8720  146.9800 C   0  0  0  0  0  1  0  0  0  0  0  0
  186.9260  179.1570  148.3000 C   0  0  0  0  0  1  0  0  0  0  0  0
  185.5070  177.6810  145.0400 C   0  0  0  0  0  2  0  0  0  0  0  0
  192.1540  174.5200  144.9050 C   0  0  2  0  0  3  0  0  0  0  0  0
  194.6960  175.5010  146.2680 C   0  0  0  0  0  2  0  0  0  0  0  0
  189.9600  177.5390  145.5500 O   0  0  0  0  0  0  0  0  0  0  0  0
  186.5330  177.8130  143.9260 C   0  0  0  0  0  2  0  0  0  0  0  0
  191.9270  176.0230  145.1460 C   0  0  1  0  0  3  0  0  0  0  0  0
  193.6380  173.4690  143.3460 C   0  0  0  0  0  3  0  0  0  0  0  0
  187.8700  177.2650  144.3320 C   0  0  2  0  0  3  0  0  0  0  0  0
  185.8080  178.6920  146.1330 C   0  0  0  0  0  2  0  0  0  0  0  0
  194.5870  175.1730  144.8500 N   0  0  0  0  0  0  0  0  0  0  0  0
  189.7190  175.7650  143.9860 C   0  0  0  0  0  0  0  0  0  0  0  0
  187.9310  177.3830  146.8700 C   0  0  2  0  0  3  0  0  0  0  0  0
  190.4800  176.4120  144.9000 C   0  0  2  0  0  3  0  0  0  0  0  0
  188.2420  174.5910  141.9390 C   0  0  0  0  0  3  0  0  0  0  0  0
  193.8500  176.7230  146.5930 C   0  0  0  0  0  2  0  0  0  0  0  0
  187.7390  175.6410  142.6390 N   0  0  0  0  0  0  0  0  0  0  0  0
  192.3630  176.3960  146.5570 C   0  0  0  0  0  2  0  0  0  0  0  0
  193.6250  174.0680  144.7280 C   0  0  1  0  0  3  0  0  0  0  0  0
  189.4970  174.0740  142.2550 C   0  0  0  0  0  3  0  0  0  0  0  0
  191.5090  174.1310  143.6660 N   0  0  0  0  0  0  0  0  0  0  0  0
  195.8090  174.7120  144.4810 O   0  0  0  0  0  0  0  0  0  0  0  0
  196.3950  174.2600  145.6670 C   0  0  0  0  0  2  0  0  0  0  0  0
  196.0170  171.1450  144.8470 O   0  0  0  0  0  0  0  0  0  0  0  0
  197.3700  172.8300  143.9010 C   0  0  0  0  0  2  0  0  0  0  0  0
  197.2920  173.0670  145.3810 C   0  0  2  0  0  3  0  0  0  0  0  0
  196.7940  171.4470  143.7210 C   0  0  0  0  0  2  0  0  0  0  0  0
  196.6400  171.8110  145.9130 C   0  0  0  0  0  2  0  0  0  0  0  0
  1 27  1  0  0  0  0
  1 18  1  0  0  0  0
  2 14  2  0  0  0  0
  2 27  1  0  0  0  0
  3  7  1  1  0  0  0
  4 18  2  0  0  0  0
  4 15  1  0  0  0  0
  5 11  1  1  0  0  0
  5 19  1  0  0  0  0
  8 16  1  0  0  0  0
  9 27  1  6  0  0  0
  9 13  1  0  0  0  0
 10 22  1  0  0  0  0
 12  8  1  0  0  0  0
 13 24  1  1  0  0  0
 15 12  1  1  0  0  0
 15  5  1  0  0  0  0
 16  3  1  0  0  0  0
 17 10  1  0  0  0  0
 19  6  1  6  0  0  0
 19  3  1  0  0  0  0
 20 18  1  6  0  0  0
 20 13  1  0  0  0  0
 20 11  1  0  0  0  0
 21 26  1  0  0  0  0
 21 23  2  0  0  0  0
 23  4  1  0  0  0  0
 24 22  1  0  0  0  0
 25 14  1  6  0  0  0
 25 17  1  0  0  0  0
 25  9  1  0  0  0  0
 26  1  2  0  0  0  0
 28 17  1  0  0  0  0
 28 29  1  0  0  0  0
 30 34  1  0  0  0  0
 31 32  1  0  0  0  0
 32 29  1  6  0  0  0
 32 34  1  0  0  0  0
 33 31  1  0  0  0  0
 33 30  1  0  0  0  0
M  END
>  <MODEL>
1

>  <REMARK>
 VINA RESULT:      -8.7      0.000      0.000
  Name = 
  3 active torsions:
  status: ('A' for Active; 'I' for Inactive)
    1  A    between atoms: N_17  and  O_28
    2  A    between atoms: O_28  and  C_29
    3  A    between atoms: C_29  and  C_32
                            x       y       z     vdW  Elec       q    Type
                         _______ _______ _______ _____ _____    ______ ____

>  <TORSDO>
F 3

$$$$
=
 OpenBabel11112417473D

 34 40  0  0  1  0  0  0  0  0999 V2000
  189.6130  174.5390  143.3750 C   0  0  0  0  0  0  0  0  0  0  0  0
  191.7220  173.2300  142.8830 C   0  0  0  0  0  3  0  0  0  0  0  0
  186.3410  178.3570  147.2950 C   0  0  1  0  0  3  0  0  0  0  0  0
  187.9340  176.2630  143.7190 C   0  0  0  0  0  0  0  0  0  0  0  0
  188.2270  177.9210  145.5480 C   0  0  1  0  0  3  0  0  0  0  0  0
  187.3350  176.0540  147.0580 C   0  0  0  0  0  1  0  0  0  0  0  0
  186.7380  179.4360  148.2800 C   0  0  0  0  0  1  0  0  0  0  0  0
  185.1560  177.9670  145.0930 C   0  0  0  0  0  2  0  0  0  0  0  0
  191.5460  174.3130  144.9660 C   0  0  2  0  0  3  0  0  0  0  0  0
  194.1770  175.1430  146.2580 C   0  0  0  0  0  2  0  0  0  0  0  0
  189.5940  177.5080  145.5420 O   0  0  0  0  0  0  0  0  0  0  0  0
  186.1700  177.9860  143.9600 C   0  0  0  0  0  2  0  0  0  0  0  0
  191.4350  175.8350  145.1600 C   0  0  1  0  0  3  0  0  0  0  0  0
  192.9200  173.1030  143.4210 C   0  0  0  0  0  3  0  0  0  0  0  0
  187.4690  177.3520  144.3640 C   0  0  2  0  0  3  0  0  0  0  0  0
  185.5520  178.9880  146.1480 C   0  0  0  0  0  2  0  0  0  0  0  0
  194.0190  174.7790  144.8530 N   0  0  0  0  0  0  0  0  0  0  0  0
  189.1950  175.7070  144.0410 C   0  0  0  0  0  0  0  0  0  0  0  0
  187.5830  177.5470  146.8960 C   0  0  2  0  0  3  0  0  0  0  0  0
  190.0180  176.3240  144.9220 C   0  0  2  0  0  3  0  0  0  0  0  0
  187.6000  174.5820  142.0570 C   0  0  0  0  0  3  0  0  0  0  0  0
  193.4300  176.4360  146.5540 C   0  0  0  0  0  2  0  0  0  0  0  0
  187.1880  175.6890  142.7290 N   0  0  0  0  0  0  0  0  0  0  0  0
  191.9230  176.2200  146.5500 C   0  0  0  0  0  2  0  0  0  0  0  0
  192.9760  173.7460  144.7820 C   0  0  1  0  0  3  0  0  0  0  0  0
  188.8180  173.9820  142.3710 C   0  0  0  0  0  3  0  0  0  0  0  0
  190.8520  173.9340  143.7500 N   0  0  0  0  0  0  0  0  0  0  0  0
  195.1970  174.2150  144.4810 O   0  0  0  0  0  0  0  0  0  0  0  0
  196.1490  175.2240  144.6580 C   0  0  0  0  0  2  0  0  0  0  0  0
  195.5710  175.4800  141.4770 O   0  0  0  0  0  0  0  0  0  0  0  0
  196.8810  176.8160  142.9140 C   0  0  0  0  0  2  0  0  0  0  0  0
  196.9660  175.3950  143.3890 C   0  0  2  0  0  3  0  0  0  0  0  0
  196.2380  176.7090  141.5530 C   0  0  0  0  0  2  0  0  0  0  0  0
  196.3260  174.6030  142.2700 C   0  0  0  0  0  2  0  0  0  0  0  0
  1 27  1  0  0  0  0
  1 18  1  0  0  0  0
  2 14  2  0  0  0  0
  2 27  1  0  0  0  0
  3  7  1  1  0  0  0
  4 18  2  0  0  0  0
  4 15  1  0  0  0  0
  5 11  1  1  0  0  0
  5 19  1  0  0  0  0
  8 16  1  0  0  0  0
  9 27  1  6  0  0  0
  9 13  1  0  0  0  0
 10 22  1  0  0  0  0
 12  8  1  0  0  0  0
 13 24  1  1  0  0  0
 15 12  1  1  0  0  0
 15  5  1  0  0  0  0
 16  3  1  0  0  0  0
 17 10  1  0  0  0  0
 19  6  1  6  0  0  0
 19  3  1  0  0  0  0
 20 18  1  6  0  0  0
 20 13  1  0  0  0  0
 20 11  1  0  0  0  0
 21 26  1  0  0  0  0
 21 23  2  0  0  0  0
 23  4  1  0  0  0  0
 24 22  1  0  0  0  0
 25 14  1  6  0  0  0
 25 17  1  0  0  0  0
 25  9  1  0  0  0  0
 26  1  2  0  0  0  0
 28 29  1  0  0  0  0
 28 17  1  0  0  0  0
 30 33  1  0  0  0  0
 30 34  1  0  0  0  0
 31 32  1  0  0  0  0
 32 29  1  1  0  0  0
 33 31  1  0  0  0  0
 34 32  1  0  0  0  0
M  END
>  <MODEL>
2

>  <REMARK>
 VINA RESULT:      -8.5      1.426      1.892
  Name = 
  3 active torsions:
  status: ('A' for Active; 'I' for Inactive)
    1  A    between atoms: N_17  and  O_28
    2  A    between atoms: O_28  and  C_29
    3  A    between atoms: C_29  and  C_32
                            x       y       z     vdW  Elec       q    Type
                         _______ _______ _______ _____ _____    ______ ____

>  <TORSDO>
F 3

$$$$
=
 OpenBabel11112417473D

 34 40  0  0  1  0  0  0  0  0999 V2000
  190.0650  176.2640  145.7450 C   0  0  0  0  0  0  0  0  0  0  0  0
  192.1640  175.1800  146.6520 C   0  0  0  0  0  3  0  0  0  0  0  0
  186.4680  177.8560  140.7280 C   0  0  1  0  0  3  0  0  0  0  0  0
  187.8840  176.7420  144.7860 C   0  0  0  0  0  0  0  0  0  0  0  0
  187.4120  176.1170  142.4260 C   0  0  1  0  0  3  0  0  0  0  0  0
  188.6830  178.2650  141.8540 C   0  0  0  0  0  1  0  0  0  0  0  0
  186.2240  177.2280  139.3710 C   0  0  0  0  0  1  0  0  0  0  0  0
  185.3550  178.3850  142.9380 C   0  0  0  0  0  2  0  0  0  0  0  0
  191.9000  175.3110  144.3160 C   0  0  2  0  0  3  0  0  0  0  0  0
  193.3040  173.1440  142.6980 C   0  0  0  0  0  2  0  0  0  0  0  0
  188.5500  175.2630  142.5500 O   0  0  0  0  0  0  0  0  0  0  0  0
  185.6190  177.2570  143.9230 C   0  0  0  0  0  2  0  0  0  0  0  0
  190.7820  174.6190  143.5170 C   0  0  1  0  0  3  0  0  0  0  0  0
  193.1560  174.4550  146.1690 C   0  0  0  0  0  3  0  0  0  0  0  0
  187.0010  176.6930  143.7670 C   0  0  2  0  0  3  0  0  0  0  0  0
  185.1740  177.8110  141.5420 C   0  0  0  0  0  2  0  0  0  0  0  0
  193.0440  173.0730  144.1330 N   0  0  0  0  0  0  0  0  0  0  0  0
  189.1600  176.1420  144.6730 C   0  0  0  0  0  0  0  0  0  0  0  0
  187.6980  177.2080  141.3780 C   0  0  2  0  0  3  0  0  0  0  0  0
  189.4840  175.4030  143.5860 C   0  0  2  0  0  3  0  0  0  0  0  0
  188.3970  177.4590  147.0040 C   0  0  0  0  0  3  0  0  0  0  0  0
  191.9930  173.1090  141.9250 C   0  0  0  0  0  2  0  0  0  0  0  0
  187.5430  177.3660  145.9510 N   0  0  0  0  0  0  0  0  0  0  0  0
  191.2240  174.4140  142.0740 C   0  0  0  0  0  2  0  0  0  0  0  0
  193.1350  174.4410  144.6630 C   0  0  1  0  0  3  0  0  0  0  0  0
  189.6780  176.9150  146.9180 C   0  0  0  0  0  3  0  0  0  0  0  0
  191.3810  175.7240  145.6060 N   0  0  0  0  0  0  0  0  0  0  0  0
  194.0650  172.3490  144.6590 O   0  0  0  0  0  0  0  0  0  0  0  0
  195.0440  172.3320  143.6610 C   0  0  0  0  0  2  0  0  0  0  0  0
  196.9310  174.5080  145.1520 O   0  0  0  0  0  0  0  0  0  0  0  0
  196.3080  172.3220  145.7860 C   0  0  0  0  0  2  0  0  0  0  0  0
  196.4260  172.3610  144.2900 C   0  0  2  0  0  3  0  0  0  0  0  0
  196.9330  173.6200  146.2360 C   0  0  0  0  0  2  0  0  0  0  0  0
  197.0740  173.6990  144.0150 C   0  0  0  0  0  2  0  0  0  0  0  0
  1 26  1  0  0  0  0
  3  7  1  6  0  0  0
  3 19  1  0  0  0  0
  3 16  1  0  0  0  0
  4 23  2  0  0  0  0
  5 11  1  1  0  0  0
  5 15  1  0  0  0  0
  8 12  1  0  0  0  0
  9 25  1  0  0  0  0
  9 27  1  1  0  0  0
 10 17  1  0  0  0  0
 13 24  1  6  0  0  0
 13 20  1  0  0  0  0
 13  9  1  0  0  0  0
 14  2  2  0  0  0  0
 15 12  1  6  0  0  0
 15  4  1  0  0  0  0
 16  8  1  0  0  0  0
 17 28  1  0  0  0  0
 17 25  1  0  0  0  0
 18  4  1  0  0  0  0
 18  1  2  0  0  0  0
 19  6  1  1  0  0  0
 19  5  1  0  0  0  0
 20 11  1  1  0  0  0
 20 18  1  0  0  0  0
 22 24  1  0  0  0  0
 22 10  1  0  0  0  0
 23 21  1  0  0  0  0
 25 14  1  1  0  0  0
 26 21  2  0  0  0  0
 27  1  1  0  0  0  0
 27  2  1  0  0  0  0
 29 28  1  0  0  0  0
 30 33  1  0  0  0  0
 31 33  1  0  0  0  0
 32 29  1  6  0  0  0
 32 31  1  0  0  0  0
 34 32  1  0  0  0  0
 34 30  1  0  0  0  0
M  END
>  <MODEL>
3

>  <REMARK>
 VINA RESULT:      -8.2      1.937      3.951
  Name = 
  3 active torsions:
  status: ('A' for Active; 'I' for Inactive)
    1  A    between atoms: N_17  and  O_28
    2  A    between atoms: O_28  and  C_29
    3  A    between atoms: C_29  and  C_32
                            x       y       z     vdW  Elec       q    Type
                         _______ _______ _______ _____ _____    ______ ____

>  <TORSDO>
F 3

$$$$
=
 OpenBabel11112417473D

 34 40  0  0  1  0  0  0  0  0999 V2000
  192.3290  176.2560  145.6220 C   0  0  0  0  0  0  0  0  0  0  0  0
  190.0910  176.7550  146.6920 C   0  0  0  0  0  3  0  0  0  0  0  0
  195.6330  173.7160  140.7970 C   0  0  1  0  0  3  0  0  0  0  0  0
  194.3170  176.2120  144.2240 C   0  0  0  0  0  0  0  0  0  0  0  0
  194.1250  175.5760  141.8280 C   0  0  1  0  0  3  0  0  0  0  0  0
  194.0940  173.1740  142.7160 C   0  0  0  0  0  1  0  0  0  0  0  0
  195.3600  173.5390  139.3170 C   0  0  0  0  0  1  0  0  0  0  0  0
  197.1020  174.9480  142.4470 C   0  0  0  0  0  2  0  0  0  0  0  0
  190.1170  175.4880  144.7080 C   0  0  2  0  0  3  0  0  0  0  0  0
  187.6210  175.6890  142.9720 C   0  0  0  0  0  2  0  0  0  0  0  0
  192.7320  175.8460  141.9920 O   0  0  0  0  0  0  0  0  0  0  0  0
  196.4060  176.2250  142.8920 C   0  0  0  0  0  2  0  0  0  0  0  0
  190.6160  175.9980  143.3440 C   0  0  1  0  0  3  0  0  0  0  0  0
  188.8200  176.6540  146.3510 C   0  0  0  0  0  3  0  0  0  0  0  0
  194.9250  176.0320  143.0330 C   0  0  2  0  0  3  0  0  0  0  0  0
  196.7990  174.6870  140.9810 C   0  0  0  0  0  2  0  0  0  0  0  0
  187.9680  176.6220  144.0410 N   0  0  0  0  0  0  0  0  0  0  0  0
  192.9110  176.1100  144.3480 C   0  0  0  0  0  0  0  0  0  0  0  0
  194.3280  174.0820  141.5170 C   0  0  2  0  0  3  0  0  0  0  0  0
  192.1300  175.9470  143.2540 C   0  0  2  0  0  3  0  0  0  0  0  0
  194.5050  176.6870  146.5560 C   0  0  0  0  0  3  0  0  0  0  0  0
  188.6260  175.7970  141.8340 C   0  0  0  0  0  2  0  0  0  0  0  0
  195.0620  176.5110  145.3290 N   0  0  0  0  0  0  0  0  0  0  0  0
  189.9710  175.1970  142.2210 C   0  0  0  0  0  2  0  0  0  0  0  0
  188.6590  175.8540  145.0860 C   0  0  1  0  0  3  0  0  0  0  0  0
  193.1280  176.5560  146.7270 C   0  0  0  0  0  3  0  0  0  0  0  0
  190.9180  176.0800  145.7620 N   0  0  0  0  0  0  0  0  0  0  0  0
  186.7870  177.0580  144.5490 O   0  0  0  0  0  0  0  0  0  0  0  0
  186.5090  178.2380  143.8510 C   0  0  0  0  0  2  0  0  0  0  0  0
  183.6360  178.7150  145.2770 O   0  0  0  0  0  0  0  0  0  0  0  0
  185.8160  178.7020  146.1790 C   0  0  0  0  0  2  0  0  0  0  0  0
  185.8870  179.2600  144.7870 C   0  0  2  0  0  3  0  0  0  0  0  0
  184.3390  178.6790  146.4880 C   0  0  0  0  0  2  0  0  0  0  0  0
  184.4380  179.4690  144.4090 C   0  0  0  0  0  2  0  0  0  0  0  0
  1 27  1  0  0  0  0
  1 26  1  0  0  0  0
  3  7  1  6  0  0  0
  3 16  1  0  0  0  0
  3 19  1  0  0  0  0
  4 18  1  0  0  0  0
  4 23  2  0  0  0  0
  5 11  1  1  0  0  0
  5 15  1  0  0  0  0
  8 12  1  0  0  0  0
  9 25  1  0  0  0  0
  9 27  1  1  0  0  0
 10 17  1  0  0  0  0
 13 24  1  6  0  0  0
 13  9  1  0  0  0  0
 14  2  2  0  0  0  0
 15 12  1  1  0  0  0
 15  4  1  0  0  0  0
 16  8  1  0  0  0  0
 17 28  1  0  0  0  0
 17 25  1  0  0  0  0
 18  1  2  0  0  0  0
 19  5  1  0  0  0  0
 19  6  1  1  0  0  0
 20 11  1  6  0  0  0
 20 13  1  0  0  0  0
 20 18  1  0  0  0  0
 21 26  2  0  0  0  0
 22 24  1  0  0  0  0
 22 10  1  0  0  0  0
 23 21  1  0  0  0  0
 25 14  1  1  0  0  0
 27  2  1  0  0  0  0
 29 28  1  0  0  0  0
 30 33  1  0  0  0  0
 31 33  1  0  0  0  0
 32 29  1  6  0  0  0
 32 31  1  0  0  0  0
 34 32  1  0  0  0  0
 34 30  1  0  0  0  0
M  END
>  <MODEL>
4

>  <REMARK>
 VINA RESULT:      -8.1      2.417      8.953
  Name = 
  3 active torsions:
  status: ('A' for Active; 'I' for Inactive)
    1  A    between atoms: N_17  and  O_28
    2  A    between atoms: O_28  and  C_29
    3  A    between atoms: C_29  and  C_32
                            x       y       z     vdW  Elec       q    Type
                         _______ _______ _______ _____ _____    ______ ____

>  <TORSDO>
F 3

$$$$
=
 OpenBabel11112417473D

 34 40  0  0  1  0  0  0  0  0999 V2000
  190.4790  172.7280  142.7580 C   0  0  0  0  0  0  0  0  0  0  0  0
  188.3180  173.9180  142.1950 C   0  0  0  0  0  3  0  0  0  0  0  0
  196.3860  172.9660  145.1430 C   0  0  1  0  0  3  0  0  0  0  0  0
  192.3520  171.6350  143.8550 C   0  0  0  0  0  0  0  0  0  0  0  0
  193.7930  172.9290  145.4130 C   0  0  1  0  0  3  0  0  0  0  0  0
  194.9100  173.7970  143.2780 C   0  0  0  0  0  1  0  0  0  0  0  0
  197.0450  173.7860  146.2330 C   0  0  0  0  0  1  0  0  0  0  0  0
  195.6700  170.6170  144.5350 C   0  0  0  0  0  2  0  0  0  0  0  0
  190.1010  175.1960  143.0480 C   0  0  2  0  0  3  0  0  0  0  0  0
  189.3190  177.7150  144.5730 C   0  0  0  0  0  2  0  0  0  0  0  0
  192.7140  173.8650  145.4440 O   0  0  0  0  0  0  0  0  0  0  0  0
  194.2170  170.4100  144.9320 C   0  0  0  0  0  2  0  0  0  0  0  0
  190.7160  175.0250  144.4480 C   0  0  1  0  0  3  0  0  0  0  0  0
  187.7920  175.1090  142.4140 C   0  0  0  0  0  3  0  0  0  0  0  0
  193.3960  171.6470  144.7080 C   0  0  2  0  0  3  0  0  0  0  0  0
  196.3590  171.4970  145.5650 C   0  0  0  0  0  2  0  0  0  0  0  0
  188.4100  176.6160  144.2610 N   0  0  0  0  0  0  0  0  0  0  0  0
  191.5260  172.7730  143.6990 C   0  0  0  0  0  0  0  0  0  0  0  0
  195.0310  173.5910  144.7810 C   0  0  2  0  0  3  0  0  0  0  0  0
  191.6910  173.8610  144.4870 C   0  0  2  0  0  3  0  0  0  0  0  0
  191.0430  170.4430  142.2530 C   0  0  0  0  0  3  0  0  0  0  0  0
  190.3880  177.2500  145.5530 C   0  0  0  0  0  2  0  0  0  0  0  0
  192.0730  170.5070  143.1380 N   0  0  0  0  0  0  0  0  0  0  0  0
  191.3900  176.3200  144.8830 C   0  0  0  0  0  2  0  0  0  0  0  0
  188.8200  176.0630  142.9620 C   0  0  1  0  0  3  0  0  0  0  0  0
  190.2300  171.5560  142.0420 C   0  0  0  0  0  3  0  0  0  0  0  0
  189.6890  173.9000  142.5450 N   0  0  0  0  0  0  0  0  0  0  0  0
  187.1840  177.1810  144.1110 O   0  0  0  0  0  0  0  0  0  0  0  0
  186.5930  177.0950  145.3750 C   0  0  0  0  0  2  0  0  0  0  0  0
  184.4250  179.1950  144.1890 O   0  0  0  0  0  0  0  0  0  0  0  0
  184.6430  178.2640  146.3460 C   0  0  0  0  0  2  0  0  0  0  0  0
  186.0180  178.4440  145.7710 C   0  0  2  0  0  3  0  0  0  0  0  0
  183.7500  179.0380  145.4070 C   0  0  0  0  0  2  0  0  0  0  0  0
  185.7830  179.2730  144.5290 C   0  0  0  0  0  2  0  0  0  0  0  0
  1 18  1  0  0  0  0
  2 14  2  0  0  0  0
  2 27  1  0  0  0  0
  3 16  1  0  0  0  0
  3  7  1  1  0  0  0
  4 15  1  0  0  0  0
  5 11  1  6  0  0  0
  8 12  1  0  0  0  0
  8 16  1  0  0  0  0
  9 27  1  1  0  0  0
  9 13  1  0  0  0  0
 10 22  1  0  0  0  0
 13 20  1  0  0  0  0
 13 24  1  6  0  0  0
 15 12  1  6  0  0  0
 15  5  1  0  0  0  0
 17 10  1  0  0  0  0
 18  4  2  0  0  0  0
 19  6  1  6  0  0  0
 19  3  1  0  0  0  0
 19  5  1  0  0  0  0
 20 18  1  1  0  0  0
 20 11  1  0  0  0  0
 21 23  2  0  0  0  0
 23  4  1  0  0  0  0
 24 22  1  0  0  0  0
 25 14  1  1  0  0  0
 25  9  1  0  0  0  0
 25 17  1  0  0  0  0
 26 21  1  0  0  0  0
 26  1  2  0  0  0  0
 27  1  1  0  0  0  0
 28 17  1  0  0  0  0
 28 29  1  0  0  0  0
 30 34  1  0  0  0  0
 30 33  1  0  0  0  0
 32 29  1  6  0  0  0
 32 31  1  0  0  0  0
 33 31  1  0  0  0  0
 34 32  1  0  0  0  0
M  END
>  <MODEL>
5

>  <REMARK>
 VINA RESULT:      -8.0      2.108      8.479
  Name = 
  3 active torsions:
  status: ('A' for Active; 'I' for Inactive)
    1  A    between atoms: N_17  and  O_28
    2  A    between atoms: O_28  and  C_29
    3  A    between atoms: C_29  and  C_32
                            x       y       z     vdW  Elec       q    Type
                         _______ _______ _______ _____ _____    ______ ____

>  <TORSDO>
F 3

$$$$
=
 OpenBabel11112417473D

 34 40  0  0  1  0  0  0  0  0999 V2000
  187.5590  177.3930  145.2230 C   0  0  0  0  0  0  0  0  0  0  0  0
  185.1730  178.1950  144.9600 C   0  0  0  0  0  3  0  0  0  0  0  0
  192.6600  174.5070  142.7150 C   0  0  1  0  0  3  0  0  0  0  0  0
  189.9680  177.0870  145.1240 C   0  0  0  0  0  0  0  0  0  0  0  0
  191.0530  176.5470  142.9540 C   0  0  1  0  0  3  0  0  0  0  0  0
  190.2720  174.1550  143.4320 C   0  0  0  0  0  1  0  0  0  0  0  0
  193.2270  174.4100  141.3140 C   0  0  0  0  0  1  0  0  0  0  0  0
  193.1090  175.4650  145.0130 C   0  0  0  0  0  2  0  0  0  0  0  0
  186.1420  176.9880  143.1870 C   0  0  2  0  0  3  0  0  0  0  0  0
  185.0500  177.6020  140.4100 C   0  0  0  0  0  2  0  0  0  0  0  0
  189.8390  177.0170  142.3660 O   0  0  0  0  0  0  0  0  0  0  0  0
  192.4310  176.8200  145.1400 C   0  0  0  0  0  2  0  0  0  0  0  0
  187.3610  177.4510  142.3690 C   0  0  1  0  0  3  0  0  0  0  0  0
  184.2960  178.2940  143.9790 C   0  0  0  0  0  3  0  0  0  0  0  0
  191.1050  176.8480  144.4390 C   0  0  2  0  0  3  0  0  0  0  0  0
  193.6340  175.2890  143.5980 C   0  0  0  0  0  2  0  0  0  0  0  0
  184.8540  178.4460  141.5850 N   0  0  0  0  0  0  0  0  0  0  0  0
  188.7240  177.1930  144.4580 C   0  0  0  0  0  0  0  0  0  0  0  0
  191.2250  175.0470  142.6500 C   0  0  2  0  0  3  0  0  0  0  0  0
  188.6600  177.1760  143.1060 C   0  0  2  0  0  3  0  0  0  0  0  0
  188.8960  177.4710  147.2230 C   0  0  0  0  0  3  0  0  0  0  0  0
  186.5190  177.5860  140.0120 C   0  0  0  0  0  2  0  0  0  0  0  0
  190.0120  177.2440  146.4800 N   0  0  0  0  0  0  0  0  0  0  0  0
  187.3530  176.7830  141.0000 C   0  0  0  0  0  2  0  0  0  0  0  0
  184.7680  177.5580  142.7530 C   0  0  1  0  0  3  0  0  0  0  0  0
  187.6470  177.5430  146.6090 C   0  0  0  0  0  3  0  0  0  0  0  0
  186.2930  177.4270  144.5600 N   0  0  0  0  0  0  0  0  0  0  0  0
  183.6460  179.0410  141.4180 O   0  0  0  0  0  0  0  0  0  0  0  0
  182.9290  178.1710  140.5900 C   0  0  0  0  0  2  0  0  0  0  0  0
  180.2840  179.9360  141.2270 O   0  0  0  0  0  0  0  0  0  0  0  0
  180.5300  177.9010  140.0590 C   0  0  0  0  0  2  0  0  0  0  0  0
  181.5440  177.9320  141.1650 C   0  0  2  0  0  3  0  0  0  0  0  0
  179.6080  179.0530  140.3760 C   0  0  0  0  0  2  0  0  0  0  0  0
  181.1330  179.1270  141.9960 C   0  0  0  0  0  2  0  0  0  0  0  0
  1 26  1  0  0  0  0
  3  7  1  6  0  0  0
  3 16  1  0  0  0  0
  4 23  2  0  0  0  0
  5 11  1  1  0  0  0
  5 15  1  0  0  0  0
  8 12  1  0  0  0  0
  9 27  1  1  0  0  0
 10 17  1  0  0  0  0
 13 24  1  6  0  0  0
 13 20  1  0  0  0  0
 13  9  1  0  0  0  0
 14  2  2  0  0  0  0
 15  4  1  0  0  0  0
 15 12  1  1  0  0  0
 16  8  1  0  0  0  0
 17 25  1  0  0  0  0
 18  4  1  0  0  0  0
 18  1  2  0  0  0  0
 19  3  1  0  0  0  0
 19  5  1  0  0  0  0
 19  6  1  1  0  0  0
 20 11  1  6  0  0  0
 20 18  1  0  0  0  0
 22 10  1  0  0  0  0
 22 24  1  0  0  0  0
 23 21  1  0  0  0  0
 25  9  1  0  0  0  0
 25 14  1  1  0  0  0
 26 21  2  0  0  0  0
 27  2  1  0  0  0  0
 27  1  1  0  0  0  0
 28 17  1  0  0  0  0
 29 28  1  0  0  0  0
 30 34  1  0  0  0  0
 31 33  1  0  0  0  0
 31 32  1  0  0  0  0
 32 29  1  6  0  0  0
 32 34  1  0  0  0  0
 33 30  1  0  0  0  0
M  END
>  <MODEL>
6

>  <REMARK>
 VINA RESULT:      -7.9      3.825     10.006
  Name = 
  3 active torsions:
  status: ('A' for Active; 'I' for Inactive)
    1  A    between atoms: N_17  and  O_28
    2  A    between atoms: O_28  and  C_29
    3  A    between atoms: C_29  and  C_32
                            x       y       z     vdW  Elec       q    Type
                         _______ _______ _______ _____ _____    ______ ____

>  <TORSDO>
F 3

$$$$
=
 OpenBabel11112417473D

 34 40  0  0  1  0  0  0  0  0999 V2000
  190.1050  175.9470  144.3930 C   0  0  0  0  0  0  0  0  0  0  0  0
  192.0590  174.5000  143.6910 C   0  0  0  0  0  3  0  0  0  0  0  0
  184.5290  178.6770  142.9420 C   0  0  1  0  0  3  0  0  0  0  0  0
  187.9440  176.8170  145.0850 C   0  0  0  0  0  0  0  0  0  0  0  0
  185.9870  176.6070  143.5650 C   0  0  1  0  0  3  0  0  0  0  0  0
  186.9870  178.6500  142.3880 C   0  0  0  0  0  1  0  0  0  0  0  0
  183.3760  178.2910  142.0400 C   0  0  0  0  0  1  0  0  0  0  0  0
  185.1780  179.0030  145.3660 C   0  0  0  0  0  2  0  0  0  0  0  0
  190.4150  175.0050  142.0830 C   0  0  2  0  0  3  0  0  0  0  0  0
  190.0540  172.9490  139.8630 C   0  0  0  0  0  2  0  0  0  0  0  0
  186.7660  175.6150  142.8940 O   0  0  0  0  0  0  0  0  0  0  0  0
  185.7870  177.7190  145.9060 C   0  0  0  0  0  2  0  0  0  0  0  0
  188.9400  174.5760  142.1680 C   0  0  1  0  0  3  0  0  0  0  0  0
  192.3690  173.7420  142.6560 C   0  0  0  0  0  3  0  0  0  0  0  0
  186.6270  177.0240  144.8750 C   0  0  2  0  0  3  0  0  0  0  0  0
  184.0570  178.6660  144.3960 C   0  0  0  0  0  2  0  0  0  0  0  0
  190.7480  172.6990  141.1230 N   0  0  0  0  0  0  0  0  0  0  0  0
  188.7250  176.0930  144.1540 C   0  0  0  0  0  0  0  0  0  0  0  0
  185.7470  177.7990  142.6210 C   0  0  2  0  0  3  0  0  0  0  0  0
  188.1480  175.4890  143.0870 C   0  0  2  0  0  3  0  0  0  0  0  0
  189.8600  177.1320  146.4740 C   0  0  0  0  0  3  0  0  0  0  0  0
  188.5720  173.1840  140.1170 C   0  0  0  0  0  2  0  0  0  0  0  0
  188.5350  177.2980  146.2180 N   0  0  0  0  0  0  0  0  0  0  0  0
  188.3280  174.5350  140.7740 C   0  0  0  0  0  2  0  0  0  0  0  0
  191.4030  173.9530  141.5200 C   0  0  1  0  0  3  0  0  0  0  0  0
  190.6720  176.4590  145.5620 C   0  0  0  0  0  3  0  0  0  0  0  0
  190.9110  175.2810  143.4180 N   0  0  0  0  0  0  0  0  0  0  0  0
  191.7150  171.7890  140.8390 O   0  0  0  0  0  0  0  0  0  0  0  0
  191.0940  170.5450  140.9930 C   0  0  0  0  0  2  0  0  0  0  0  0
  190.5330  169.9930  137.8470 O   0  0  0  0  0  0  0  0  0  0  0  0
  192.5600  170.2810  139.0200 C   0  0  0  0  0  2  0  0  0  0  0  0
  191.5880  169.5830  139.9270 C   0  0  2  0  0  3  0  0  0  0  0  0
  191.9040  170.2170  137.6630 C   0  0  0  0  0  2  0  0  0  0  0  0
  190.4410  169.2170  139.0120 C   0  0  0  0  0  2  0  0  0  0  0  0
  1 26  1  0  0  0  0
  3  7  1  6  0  0  0
  3 16  1  0  0  0  0
  4 23  2  0  0  0  0
  5 11  1  6  0  0  0
  5 15  1  0  0  0  0
  8 12  1  0  0  0  0
  9 13  1  0  0  0  0
  9 27  1  1  0  0  0
 10 22  1  0  0  0  0
 10 17  1  0  0  0  0
 13 24  1  6  0  0  0
 13 20  1  0  0  0  0
 14  2  2  0  0  0  0
 15  4  1  0  0  0  0
 15 12  1  6  0  0  0
 16  8  1  0  0  0  0
 17 25  1  0  0  0  0
 18  1  2  0  0  0  0
 18  4  1  0  0  0  0
 19  6  1  1  0  0  0
 19  3  1  0  0  0  0
 19  5  1  0  0  0  0
 20 11  1  1  0  0  0
 20 18  1  0  0  0  0
 22 24  1  0  0  0  0
 23 21  1  0  0  0  0
 25  9  1  0  0  0  0
 25 14  1  1  0  0  0
 26 21  2  0  0  0  0
 27  2  1  0  0  0  0
 27  1  1  0  0  0  0
 28 29  1  0  0  0  0
 28 17  1  0  0  0  0
 30 34  1  0  0  0  0
 31 32  1  0  0  0  0
 32 29  1  1  0  0  0
 33 30  1  0  0  0  0
 33 31  1  0  0  0  0
 34 32  1  0  0  0  0
M  END
>  <MODEL>
7

>  <REMARK>
 VINA RESULT:      -7.9      3.252      5.458
  Name = 
  3 active torsions:
  status: ('A' for Active; 'I' for Inactive)
    1  A    between atoms: N_17  and  O_28
    2  A    between atoms: O_28  and  C_29
    3  A    between atoms: C_29  and  C_32
                            x       y       z     vdW  Elec       q    Type
                         _______ _______ _______ _____ _____    ______ ____

>  <TORSDO>
F 3

$$$$
=
 OpenBabel11112417473D

 34 40  0  0  1  0  0  0  0  0999 V2000
  192.1690  176.1860  145.5740 C   0  0  0  0  0  0  0  0  0  0  0  0
  190.1500  177.3000  146.6170 C   0  0  0  0  0  3  0  0  0  0  0  0
  194.6330  172.6110  140.9070 C   0  0  1  0  0  3  0  0  0  0  0  0
  194.0550  175.5570  144.1770 C   0  0  0  0  0  0  0  0  0  0  0  0
  193.6660  174.8510  141.8260 C   0  0  1  0  0  3  0  0  0  0  0  0
  193.0420  172.5920  142.8590 C   0  0  0  0  0  1  0  0  0  0  0  0
  194.2990  172.4220  139.4420 C   0  0  0  0  0  1  0  0  0  0  0  0
  196.3960  173.5240  142.4750 C   0  0  0  0  0  2  0  0  0  0  0  0
  189.8180  175.9540  144.7140 C   0  0  2  0  0  3  0  0  0  0  0  0
  187.4240  176.6810  142.9750 C   0  0  0  0  0  2  0  0  0  0  0  0
  192.3900  175.4750  141.9750 O   0  0  0  0  0  0  0  0  0  0  0  0
  196.0550  174.9600  142.8420 C   0  0  0  0  0  2  0  0  0  0  0  0
  190.4060  176.2390  143.3210 C   0  0  1  0  0  3  0  0  0  0  0  0
  188.8890  177.5060  146.2850 C   0  0  0  0  0  3  0  0  0  0  0  0
  194.5760  175.1590  142.9980 C   0  0  2  0  0  3  0  0  0  0  0  0
  196.0110  173.2630  141.0280 C   0  0  0  0  0  2  0  0  0  0  0  0
  188.0150  177.5560  143.9840 N   0  0  0  0  0  0  0  0  0  0  0  0
  192.6720  175.8230  144.3100 C   0  0  0  0  0  0  0  0  0  0  0  0
  193.4770  173.3380  141.6060 C   0  0  2  0  0  3  0  0  0  0  0  0
  191.8560  175.8000  143.2300 C   0  0  2  0  0  3  0  0  0  0  0  0
  194.3990  176.1040  146.4750 C   0  0  0  0  0  3  0  0  0  0  0  0
  188.4030  176.4620  141.8300 C   0  0  0  0  0  2  0  0  0  0  0  0
  194.8710  175.7200  145.2600 N   0  0  0  0  0  0  0  0  0  0  0  0
  189.5590  175.5640  142.2510 C   0  0  0  0  0  2  0  0  0  0  0  0
  188.5080  176.7000  145.0720 C   0  0  1  0  0  3  0  0  0  0  0  0
  193.0370  176.3380  146.6570 C   0  0  0  0  0  3  0  0  0  0  0  0
  190.7610  176.3840  145.7280 N   0  0  0  0  0  0  0  0  0  0  0  0
  186.9930  178.3070  144.4670 O   0  0  0  0  0  0  0  0  0  0  0  0
  185.8580  177.5020  144.3260 C   0  0  0  0  0  2  0  0  0  0  0  0
  185.8080  177.3380  147.5640 O   0  0  0  0  0  0  0  0  0  0  0  0
  185.2240  179.0970  146.1050 C   0  0  0  0  0  2  0  0  0  0  0  0
  184.8690  177.7990  145.4400 C   0  0  2  0  0  3  0  0  0  0  0  0
  185.5180  178.7080  147.5330 C   0  0  0  0  0  2  0  0  0  0  0  0
  185.0320  176.7750  146.5400 C   0  0  0  0  0  2  0  0  0  0  0  0
  1 27  1  0  0  0  0
  1 26  1  0  0  0  0
  3  7  1  6  0  0  0
  3 16  1  0  0  0  0
  3 19  1  0  0  0  0
  4 18  1  0  0  0  0
  4 23  2  0  0  0  0
  5 11  1  1  0  0  0
  5 15  1  0  0  0  0
  8 12  1  0  0  0  0
  9 25  1  0  0  0  0
  9 27  1  1  0  0  0
 10 17  1  0  0  0  0
 13 24  1  6  0  0  0
 13  9  1  0  0  0  0
 14  2  2  0  0  0  0
 15 12  1  1  0  0  0
 15  4  1  0  0  0  0
 16  8  1  0  0  0  0
 17 28  1  0  0  0  0
 17 25  1  0  0  0  0
 18  1  2  0  0  0  0
 19  5  1  0  0  0  0
 19  6  1  1  0  0  0
 20 11  1  6  0  0  0
 20 13  1  0  0  0  0
 20 18  1  0  0  0  0
 21 26  2  0  0  0  0
 22 24  1  0  0  0  0
 22 10  1  0  0  0  0
 23 21  1  0  0  0  0
 25 14  1  1  0  0  0
 27  2  1  0  0  0  0
 29 28  1  0  0  0  0
 31 33  1  0  0  0  0
 32 29  1  6  0  0  0
 32 31  1  0  0  0  0
 32 34  1  0  0  0  0
 33 30  1  0  0  0  0
 34 30  1  0  0  0  0
M  END
>  <MODEL>
8

>  <REMARK>
 VINA RESULT:      -7.9      2.175      8.745
  Name = 
  3 active torsions:
  status: ('A' for Active; 'I' for Inactive)
    1  A    between atoms: N_17  and  O_28
    2  A    between atoms: O_28  and  C_29
    3  A    between atoms: C_29  and  C_32
                            x       y       z     vdW  Elec       q    Type
                         _______ _______ _______ _____ _____    ______ ____

>  <TORSDO>
F 3

$$$$
=
 OpenBabel11112417473D

 34 40  0  0  1  0  0  0  0  0999 V2000
  190.0470  175.9890  144.7960 C   0  0  0  0  0  0  0  0  0  0  0  0
  192.0440  174.5440  144.2280 C   0  0  0  0  0  3  0  0  0  0  0  0
  184.5630  178.6880  142.9800 C   0  0  1  0  0  3  0  0  0  0  0  0
  187.8430  176.8560  145.3450 C   0  0  0  0  0  0  0  0  0  0  0  0
  185.9860  176.6280  143.7080 C   0  0  1  0  0  3  0  0  0  0  0  0
  187.0500  178.6660  142.5800 C   0  0  0  0  0  1  0  0  0  0  0  0
  183.4690  178.2910  142.0110 C   0  0  0  0  0  1  0  0  0  0  0  0
  185.0580  179.0340  145.4370 C   0  0  0  0  0  2  0  0  0  0  0  0
  190.5020  175.0310  142.5170 C   0  0  2  0  0  3  0  0  0  0  0  0
  190.2870  172.9580  140.2950 C   0  0  0  0  0  2  0  0  0  0  0  0
  186.8080  175.6340  143.0950 O   0  0  0  0  0  0  0  0  0  0  0  0
  185.6370  177.7560  146.0240 C   0  0  0  0  0  2  0  0  0  0  0  0
  189.0260  174.5970  142.5140 C   0  0  1  0  0  3  0  0  0  0  0  0
  192.4210  173.7790  143.2200 C   0  0  0  0  0  3  0  0  0  0  0  0
  186.5420  177.0570  145.0520 C   0  0  2  0  0  3  0  0  0  0  0  0
  184.0010  178.6860  144.4020 C   0  0  0  0  0  2  0  0  0  0  0  0
  190.9020  172.7190  141.5970 N   0  0  0  0  0  0  0  0  0  0  0  0
  188.6840  176.1280  144.4700 C   0  0  0  0  0  0  0  0  0  0  0  0
  185.8010  177.8120  142.7420 C   0  0  2  0  0  3  0  0  0  0  0  0
  188.1760  175.5140  143.3750 C   0  0  2  0  0  3  0  0  0  0  0  0
  189.6680  177.1880  146.8480 C   0  0  0  0  0  3  0  0  0  0  0  0
  188.7910  173.1890  140.4540 C   0  0  0  0  0  2  0  0  0  0  0  0
  188.3620  177.3470  146.5090 N   0  0  0  0  0  0  0  0  0  0  0  0
  188.5020  174.5440  141.0850 C   0  0  0  0  0  2  0  0  0  0  0  0
  191.5270  173.9790  142.0240 C   0  0  1  0  0  3  0  0  0  0  0  0
  190.5370  176.5120  145.9940 C   0  0  0  0  0  3  0  0  0  0  0  0
  190.9130  175.3190  143.8780 N   0  0  0  0  0  0  0  0  0  0  0  0
  191.8870  171.8100  141.3810 O   0  0  0  0  0  0  0  0  0  0  0  0
  192.2040  171.9400  140.0250 C   0  0  0  0  0  2  0  0  0  0  0  0
  194.9250  173.5900  140.6520 O   0  0  0  0  0  0  0  0  0  0  0  0
  194.3430  171.3510  141.1160 C   0  0  0  0  0  2  0  0  0  0  0  0
  193.6960  171.7450  139.8200 C   0  0  2  0  0  3  0  0  0  0  0  0
  195.3210  172.4680  141.3910 C   0  0  0  0  0  2  0  0  0  0  0  0
  194.3350  173.0750  139.4880 C   0  0  0  0  0  2  0  0  0  0  0  0
  1 26  1  0  0  0  0
  3  7  1  6  0  0  0
  3 16  1  0  0  0  0
  4 23  2  0  0  0  0
  5 11  1  6  0  0  0
  5 15  1  0  0  0  0
  8 12  1  0  0  0  0
  9 27  1  1  0  0  0
 10 22  1  0  0  0  0
 10 17  1  0  0  0  0
 13 24  1  6  0  0  0
 13  9  1  0  0  0  0
 13 20  1  0  0  0  0
 14  2  2  0  0  0  0
 15  4  1  0  0  0  0
 15 12  1  6  0  0  0
 16  8  1  0  0  0  0
 17 25  1  0  0  0  0
 18  1  2  0  0  0  0
 18  4  1  0  0  0  0
 19  6  1  1  0  0  0
 19  3  1  0  0  0  0
 19  5  1  0  0  0  0
 20 11  1  1  0  0  0
 20 18  1  0  0  0  0
 22 24  1  0  0  0  0
 23 21  1  0  0  0  0
 25  9  1  0  0  0  0
 25 14  1  1  0  0  0
 26 21  2  0  0  0  0
 27  2  1  0  0  0  0
 27  1  1  0  0  0  0
 28 17  1  0  0  0  0
 29 28  1  0  0  0  0
 30 33  1  0  0  0  0
 31 33  1  0  0  0  0
 32 29  1  1  0  0  0
 32 31  1  0  0  0  0
 34 32  1  0  0  0  0
 34 30  1  0  0  0  0
M  END
>  <MODEL>
9

>  <REMARK>
 VINA RESULT:      -7.8      2.633      4.716
  Name = 
  3 active torsions:
  status: ('A' for Active; 'I' for Inactive)
    1  A    between atoms: N_17  and  O_28
    2  A    between atoms: O_28  and  C_29
    3  A    between atoms: C_29  and  C_32
                            x       y       z     vdW  Elec       q    Type
                         _______ _______ _______ _____ _____    ______ ____

>  <TORSDO>
F 3

$$$$
