=
 OpenBabel11112417403D

 28 32  0  0  1  0  0  0  0  0999 V2000
  191.1270  174.4500  143.0740 C   0  0  0  0  0  0  0  0  0  0  0  0
  187.3650  178.1080  143.3830 C   0  0  0  0  0  1  0  0  0  0  0  0
  192.8560  175.9750  146.9540 O   0  0  0  0  0  0  0  0  0  0  0  0
  190.1920  172.3390  144.6580 C   0  0  0  0  0  3  0  0  0  0  0  0
  190.4940  176.3980  147.2440 C   0  0  1  0  0  3  0  0  0  0  0  0
  191.6180  175.5140  142.3160 O   0  0  0  0  0  0  0  0  0  0  0  0
  186.6340  175.8930  142.5760 C   0  0  0  0  0  1  0  0  0  0  0  0
  186.9280  176.7130  143.8180 C   0  0  0  0  0  0  0  0  0  0  0  0
  185.7700  177.2110  145.9240 C   0  0  0  0  0  0  0  0  0  0  0  0
  188.0150  175.9990  144.6550 C   0  0  2  0  0  3  0  0  0  0  0  0
  194.4940  175.8520  144.0930 O   0  0  0  0  0  0  0  0  0  0  0  0
  190.2040  177.0580  144.8750 C   0  0  1  0  0  3  0  0  0  0  0  0
  187.0870  177.5020  146.5640 C   0  0  0  0  0  2  0  0  0  0  0  0
  185.7300  176.8130  144.5870 O   0  0  0  0  0  0  0  0  0  0  0  0
  193.4690  176.2990  143.6060 C   0  0  0  0  0  0  0  0  0  0  0  0
  190.0310  174.6580  143.9290 C   0  0  0  0  0  0  0  0  0  0  0  0
  191.7460  176.3080  146.4590 C   0  0  0  0  0  0  0  0  0  0  0  0
  184.7040  177.3470  146.5770 O   0  0  0  0  0  0  0  0  0  0  0  0
  192.6740  177.3240  144.3540 C   0  0  0  0  0  2  0  0  0  0  0  0
  189.5770  173.5900  144.7250 C   0  0  0  0  0  3  0  0  0  0  0  0
  191.7480  173.1940  143.0190 C   0  0  0  0  0  3  0  0  0  0  0  0
  191.2780  172.1410  143.8050 C   0  0  0  0  0  3  0  0  0  0  0  0
  193.0080  175.8120  142.2660 C   0  0  0  0  0  2  0  0  0  0  0  0
  189.5370  177.1020  146.2530 C   0  0  1  0  0  3  0  0  0  0  0  0
  191.5940  176.6910  145.1030 N   0  0  0  0  0  0  0  0  0  0  0  0
  188.1470  176.4900  146.1130 C   0  0  2  0  0  3  0  0  0  0  0  0
  190.0500  175.0000  147.6570 C   0  0  0  0  0  1  0  0  0  0  0  0
  189.4110  176.0400  144.0330 C   0  0  1  0  0  3  0  0  0  0  0  0
  1 16  1  0  0  0  0
  2  8  1  0  0  0  0
  4 20  1  0  0  0  0
  5 27  1  6  0  0  0
  6  1  1  0  0  0  0
  7  8  1  0  0  0  0
  8 14  1  0  0  0  0
  9 13  1  0  0  0  0
  9 18  2  0  0  0  0
 10  8  1  6  0  0  0
 10 26  1  0  0  0  0
 12 25  1  1  0  0  0
 12 24  1  0  0  0  0
 14  9  1  0  0  0  0
 15 11  2  0  0  0  0
 15 19  1  0  0  0  0
 16 28  1  0  0  0  0
 16 20  2  0  0  0  0
 17  3  2  0  0  0  0
 17  5  1  0  0  0  0
 19 25  1  0  0  0  0
 21  1  2  0  0  0  0
 21 22  1  0  0  0  0
 22  4  2  0  0  0  0
 23  6  1  0  0  0  0
 23 15  1  0  0  0  0
 24  5  1  0  0  0  0
 25 17  1  0  0  0  0
 26 24  1  0  0  0  0
 26 13  1  0  0  0  0
 28 10  1  0  0  0  0
 28 12  1  0  0  0  0
M  END
>  <MODEL>
1

>  <REMARK>
 VINA RESULT:      -8.7      0.000      0.000
  Name = 
  0 active torsions:
  status: ('A' for Active; 'I' for Inactive)
                            x       y       z     vdW  Elec       q    Type
                         _______ _______ _______ _____ _____    ______ ____

>  <TORSDO>
F 0

$$$$
=
 OpenBabel11112417403D

 28 32  0  0  1  0  0  0  0  0999 V2000
  189.1790  176.7960  144.9460 C   0  0  0  0  0  0  0  0  0  0  0  0
  194.2330  175.8330  143.8720 C   0  0  0  0  0  1  0  0  0  0  0  0
  188.0300  173.1400  142.5610 O   0  0  0  0  0  0  0  0  0  0  0  0
  188.6050  175.1760  147.1570 C   0  0  0  0  0  3  0  0  0  0  0  0
  190.1830  172.5100  143.4610 C   0  0  1  0  0  3  0  0  0  0  0  0
  189.4460  177.5760  143.8190 O   0  0  0  0  0  0  0  0  0  0  0  0
  193.7610  176.6120  146.1650 C   0  0  0  0  0  1  0  0  0  0  0  0
  193.7870  175.3930  145.2620 C   0  0  0  0  0  0  0  0  0  0  0  0
  194.7310  173.1300  145.3720 C   0  0  0  0  0  0  0  0  0  0  0  0
  192.3850  174.7420  145.2430 C   0  0  2  0  0  3  0  0  0  0  0  0
  186.9920  176.2040  141.9120 O   0  0  0  0  0  0  0  0  0  0  0  0
  191.1030  174.7890  143.1650 C   0  0  1  0  0  3  0  0  0  0  0  0
  193.7030  172.6690  144.3910 C   0  0  0  0  0  2  0  0  0  0  0  0
  194.7320  174.4620  145.7870 O   0  0  0  0  0  0  0  0  0  0  0  0
  188.1520  176.5270  142.1070 C   0  0  0  0  0  0  0  0  0  0  0  0
  190.0860  175.7890  145.3220 C   0  0  0  0  0  0  0  0  0  0  0  0
  189.2000  173.4630  142.8990 C   0  0  0  0  0  0  0  0  0  0  0  0
  195.6010  172.3310  145.8010 O   0  0  0  0  0  0  0  0  0  0  0  0
  189.2620  175.6380  141.6380 C   0  0  0  0  0  2  0  0  0  0  0  0
  189.7800  174.9790  146.4300 C   0  0  0  0  0  3  0  0  0  0  0  0
  187.9950  176.9830  145.6730 C   0  0  0  0  0  3  0  0  0  0  0  0
  187.7110  176.1780  146.7780 C   0  0  0  0  0  3  0  0  0  0  0  0
  188.4560  177.8060  142.8240 C   0  0  0  0  0  2  0  0  0  0  0  0
  191.4930  173.3320  143.4250 C   0  0  1  0  0  3  0  0  0  0  0  0
  189.7170  174.7700  142.7180 N   0  0  0  0  0  0  0  0  0  0  0  0
  192.3390  173.3000  144.6930 C   0  0  2  0  0  3  0  0  0  0  0  0
  189.7430  172.0900  144.8590 C   0  0  0  0  0  1  0  0  0  0  0  0
  191.3300  175.5500  144.4860 C   0  0  1  0  0  3  0  0  0  0  0  0
  1 16  2  0  0  0  0
  1 21  1  0  0  0  0
  2  8  1  0  0  0  0
  3 17  2  0  0  0  0
  5 27  1  1  0  0  0
  6  1  1  0  0  0  0
  8 14  1  0  0  0  0
  8  7  1  0  0  0  0
  9 14  1  0  0  0  0
  9 18  2  0  0  0  0
 10  8  1  6  0  0  0
 11 15  2  0  0  0  0
 12 25  1  1  0  0  0
 12 24  1  0  0  0  0
 12 28  1  0  0  0  0
 13 26  1  0  0  0  0
 13  9  1  0  0  0  0
 15 23  1  0  0  0  0
 16 20  1  0  0  0  0
 17  5  1  0  0  0  0
 19 15  1  0  0  0  0
 19 25  1  0  0  0  0
 20  4  2  0  0  0  0
 21 22  2  0  0  0  0
 22  4  1  0  0  0  0
 23  6  1  0  0  0  0
 24  5  1  0  0  0  0
 24 26  1  0  0  0  0
 25 17  1  0  0  0  0
 26 10  1  0  0  0  0
 28 10  1  0  0  0  0
 28 16  1  0  0  0  0
M  END
>  <MODEL>
2

>  <REMARK>
 VINA RESULT:      -7.8      2.209      6.143
  Name = 
  0 active torsions:
  status: ('A' for Active; 'I' for Inactive)
                            x       y       z     vdW  Elec       q    Type
                         _______ _______ _______ _____ _____    ______ ____

>  <TORSDO>
F 0

$$$$
=
 OpenBabel11112417403D

 28 32  0  0  1  0  0  0  0  0999 V2000
  190.5010  175.9280  144.8560 C   0  0  0  0  0  0  0  0  0  0  0  0
  185.4820  176.4210  146.3360 C   0  0  0  0  0  1  0  0  0  0  0  0
  189.1160  174.9070  140.6830 O   0  0  0  0  0  0  0  0  0  0  0  0
  191.1490  178.4040  143.7210 C   0  0  0  0  0  3  0  0  0  0  0  0
  187.3910  176.4220  141.4400 C   0  0  1  0  0  3  0  0  0  0  0  0
  190.1730  174.6770  145.3830 O   0  0  0  0  0  0  0  0  0  0  0  0
  187.0380  178.0900  147.2740 C   0  0  0  0  0  1  0  0  0  0  0  0
  186.1930  177.7420  146.0630 C   0  0  0  0  0  0  0  0  0  0  0  0
  184.5350  178.8980  144.6700 C   0  0  0  0  0  0  0  0  0  0  0  0
  187.1000  177.6650  144.8140 C   0  0  2  0  0  3  0  0  0  0  0  0
  190.9740  172.9440  142.5740 O   0  0  0  0  0  0  0  0  0  0  0  0
  187.4250  175.4970  143.7360 C   0  0  1  0  0  3  0  0  0  0  0  0
  184.8490  177.9640  143.5480 C   0  0  0  0  0  2  0  0  0  0  0  0
  185.2220  178.7700  145.8790 O   0  0  0  0  0  0  0  0  0  0  0  0
  190.2040  173.2500  143.4690 C   0  0  0  0  0  0  0  0  0  0  0  0
  189.4770  176.8430  144.5550 C   0  0  0  0  0  0  0  0  0  0  0  0
  188.3900  175.3430  141.6160 C   0  0  0  0  0  0  0  0  0  0  0  0
  183.6440  179.7740  144.5370 O   0  0  0  0  0  0  0  0  0  0  0  0
  188.7440  173.4030  143.1750 C   0  0  0  0  0  2  0  0  0  0  0  0
  189.8170  178.0790  143.9780 C   0  0  0  0  0  3  0  0  0  0  0  0
  191.8370  176.2550  144.5850 C   0  0  0  0  0  3  0  0  0  0  0  0
  192.1610  177.4910  144.0240 C   0  0  0  0  0  3  0  0  0  0  0  0
  190.7280  173.4800  144.8530 C   0  0  0  0  0  2  0  0  0  0  0  0
  186.6100  176.3650  142.7740 C   0  0  1  0  0  3  0  0  0  0  0  0
  188.4140  174.8010  142.9250 N   0  0  0  0  0  0  0  0  0  0  0  0
  186.3570  177.7030  143.4610 C   0  0  2  0  0  3  0  0  0  0  0  0
  188.1080  177.7440  141.1890 C   0  0  0  0  0  1  0  0  0  0  0  0
  188.0290  176.4500  144.7870 C   0  0  1  0  0  3  0  0  0  0  0  0
  1  6  1  0  0  0  0
  3 17  2  0  0  0  0
  4 20  2  0  0  0  0
  4 22  1  0  0  0  0
  5 27  1  1  0  0  0
  5 17  1  0  0  0  0
  5 24  1  0  0  0  0
  8  2  1  0  0  0  0
  8  7  1  0  0  0  0
  9 14  1  0  0  0  0
 10  8  1  1  0  0  0
 11 15  2  0  0  0  0
 12 25  1  6  0  0  0
 12 28  1  0  0  0  0
 13  9  1  0  0  0  0
 14  8  1  0  0  0  0
 15 23  1  0  0  0  0
 16 28  1  0  0  0  0
 16  1  2  0  0  0  0
 17 25  1  0  0  0  0
 18  9  2  0  0  0  0
 19 15  1  0  0  0  0
 20 16  1  0  0  0  0
 21  1  1  0  0  0  0
 22 21  2  0  0  0  0
 23  6  1  0  0  0  0
 24 26  1  0  0  0  0
 24 12  1  0  0  0  0
 25 19  1  0  0  0  0
 26 13  1  0  0  0  0
 26 10  1  0  0  0  0
 28 10  1  0  0  0  0
M  END
>  <MODEL>
3

>  <REMARK>
 VINA RESULT:      -7.8      2.063      4.466
  Name = 
  0 active torsions:
  status: ('A' for Active; 'I' for Inactive)
                            x       y       z     vdW  Elec       q    Type
                         _______ _______ _______ _____ _____    ______ ____

>  <TORSDO>
F 0

$$$$
=
 OpenBabel11112417403D

 28 32  0  0  1  0  0  0  0  0999 V2000
  189.9070  174.6650  146.2570 C   0  0  0  0  0  0  0  0  0  0  0  0
  185.2560  176.3860  144.5150 C   0  0  0  0  0  1  0  0  0  0  0  0
  191.8040  176.0560  142.4040 O   0  0  0  0  0  0  0  0  0  0  0  0
  191.1390  176.9330  147.3420 C   0  0  0  0  0  3  0  0  0  0  0  0
  190.0230  177.6610  142.7070 C   0  0  1  0  0  3  0  0  0  0  0  0
  189.3170  173.5380  145.6800 O   0  0  0  0  0  0  0  0  0  0  0  0
  185.7150  176.7910  146.9060 C   0  0  0  0  0  1  0  0  0  0  0  0
  185.9460  177.3200  145.5040 C   0  0  0  0  0  0  0  0  0  0  0  0
  185.7040  179.4820  144.3660 C   0  0  0  0  0  0  0  0  0  0  0  0
  187.4670  177.4210  145.2410 C   0  0  2  0  0  3  0  0  0  0  0  0
  191.8540  172.9450  143.5020 O   0  0  0  0  0  0  0  0  0  0  0  0
  188.4660  175.9420  143.5740 C   0  0  1  0  0  3  0  0  0  0  0  0
  186.7150  179.0480  143.3560 C   0  0  0  0  0  2  0  0  0  0  0  0
  185.3640  178.6190  145.4090 O   0  0  0  0  0  0  0  0  0  0  0  0
  190.6760  173.1260  143.7600 C   0  0  0  0  0  0  0  0  0  0  0  0
  189.3680  175.9370  145.9980 C   0  0  0  0  0  0  0  0  0  0  0  0
  190.6310  176.3130  142.7840 C   0  0  0  0  0  0  0  0  0  0  0  0
  185.1450  180.6030  144.2630 O   0  0  0  0  0  0  0  0  0  0  0  0
  189.8240  173.9320  142.8290 C   0  0  0  0  0  2  0  0  0  0  0  0
  190.0020  177.0680  146.5440 C   0  0  0  0  0  3  0  0  0  0  0  0
  191.0560  174.5360  147.0500 C   0  0  0  0  0  3  0  0  0  0  0  0
  191.6670  175.6660  147.5950 C   0  0  0  0  0  3  0  0  0  0  0  0
  190.0940  172.5510  145.0150 C   0  0  0  0  0  2  0  0  0  0  0  0
  188.5360  177.3660  143.0180 C   0  0  1  0  0  3  0  0  0  0  0  0
  189.7470  175.3190  143.2720 N   0  0  0  0  0  0  0  0  0  0  0  0
  187.8660  178.2910  144.0290 C   0  0  2  0  0  3  0  0  0  0  0  0
  190.7020  178.5840  143.7110 C   0  0  0  0  0  1  0  0  0  0  0  0
  188.1660  176.0700  145.0800 C   0  0  1  0  0  3  0  0  0  0  0  0
  1 21  1  0  0  0  0
  2  8  1  0  0  0  0
  3 17  2  0  0  0  0
  4 22  1  0  0  0  0
  5 17  1  0  0  0  0
  5 24  1  0  0  0  0
  5 27  1  1  0  0  0
  6  1  1  0  0  0  0
  8  7  1  0  0  0  0
  9 14  1  0  0  0  0
 10  8  1  6  0  0  0
 11 15  2  0  0  0  0
 12 25  1  1  0  0  0
 12 28  1  0  0  0  0
 13 26  1  0  0  0  0
 13  9  1  0  0  0  0
 14  8  1  0  0  0  0
 15 23  1  0  0  0  0
 16  1  2  0  0  0  0
 16 20  1  0  0  0  0
 17 25  1  0  0  0  0
 18  9  2  0  0  0  0
 19 25  1  0  0  0  0
 19 15  1  0  0  0  0
 20  4  2  0  0  0  0
 21 22  2  0  0  0  0
 23  6  1  0  0  0  0
 24 12  1  0  0  0  0
 24 26  1  0  0  0  0
 26 10  1  0  0  0  0
 28 10  1  0  0  0  0
 28 16  1  0  0  0  0
M  END
>  <MODEL>
4

>  <REMARK>
 VINA RESULT:      -7.5      1.847      3.836
  Name = 
  0 active torsions:
  status: ('A' for Active; 'I' for Inactive)
                            x       y       z     vdW  Elec       q    Type
                         _______ _______ _______ _____ _____    ______ ____

>  <TORSDO>
F 0

$$$$
=
 OpenBabel11112417403D

 28 32  0  0  1  0  0  0  0  0999 V2000
  186.9440  176.8090  143.6760 C   0  0  0  0  0  0  0  0  0  0  0  0
  188.9410  171.9490  143.5130 C   0  0  0  0  0  1  0  0  0  0  0  0
  190.0660  177.9330  146.7360 O   0  0  0  0  0  0  0  0  0  0  0  0
  188.5470  178.2910  141.9240 C   0  0  0  0  0  3  0  0  0  0  0  0
  191.2280  176.2900  145.3970 C   0  0  1  0  0  3  0  0  0  0  0  0
  186.1660  176.0860  144.5830 O   0  0  0  0  0  0  0  0  0  0  0  0
  188.2420  172.8870  141.3410 C   0  0  0  0  0  1  0  0  0  0  0  0
  189.3680  172.8480  142.3570 C   0  0  0  0  0  0  0  0  0  0  0  0
  191.7880  172.4380  142.3030 C   0  0  0  0  0  0  0  0  0  0  0  0
  189.6830  174.2870  142.8260 C   0  0  2  0  0  3  0  0  0  0  0  0
  186.8090  178.1200  147.2260 O   0  0  0  0  0  0  0  0  0  0  0  0
  189.1990  174.8940  145.1420 C   0  0  1  0  0  3  0  0  0  0  0  0
  191.9330  173.2160  143.5690 C   0  0  0  0  0  2  0  0  0  0  0  0
  190.5230  172.2920  141.7310 O   0  0  0  0  0  0  0  0  0  0  0  0
  186.7700  177.0230  146.6950 C   0  0  0  0  0  0  0  0  0  0  0  0
  188.1530  176.2620  143.2120 C   0  0  0  0  0  0  0  0  0  0  0  0
  190.0400  176.8660  146.0660 C   0  0  0  0  0  0  0  0  0  0  0  0
  192.7910  171.8990  141.7700 O   0  0  0  0  0  0  0  0  0  0  0  0
  187.8500  176.0230  146.9710 C   0  0  0  0  0  2  0  0  0  0  0  0
  188.9520  177.0210  142.3380 C   0  0  0  0  0  3  0  0  0  0  0  0
  186.5480  178.0890  143.2650 C   0  0  0  0  0  3  0  0  0  0  0  0
  187.3450  178.8250  142.3880 C   0  0  0  0  0  3  0  0  0  0  0  0
  185.6470  176.6880  145.7620 C   0  0  0  0  0  2  0  0  0  0  0  0
  190.7220  174.8880  144.9820 C   0  0  1  0  0  3  0  0  0  0  0  0
  188.8740  176.0720  145.9330 N   0  0  0  0  0  0  0  0  0  0  0  0
  191.0350  174.4580  143.5520 C   0  0  2  0  0  3  0  0  0  0  0  0
  191.6370  177.1800  144.2290 C   0  0  0  0  0  1  0  0  0  0  0  0
  188.6060  174.9040  143.7190 C   0  0  1  0  0  3  0  0  0  0  0  0
  1  6  1  0  0  0  0
  4 20  2  0  0  0  0
  4 22  1  0  0  0  0
  5 27  1  6  0  0  0
  5 17  1  0  0  0  0
  6 23  1  0  0  0  0
  7  8  1  0  0  0  0
  8  2  1  0  0  0  0
  9 13  1  0  0  0  0
 10  8  1  1  0  0  0
 10 26  1  0  0  0  0
 10 28  1  0  0  0  0
 12 25  1  1  0  0  0
 14  9  1  0  0  0  0
 14  8  1  0  0  0  0
 15 19  1  0  0  0  0
 15 11  2  0  0  0  0
 16  1  2  0  0  0  0
 16 28  1  0  0  0  0
 17  3  2  0  0  0  0
 18  9  2  0  0  0  0
 20 16  1  0  0  0  0
 21  1  1  0  0  0  0
 22 21  2  0  0  0  0
 23 15  1  0  0  0  0
 24 12  1  0  0  0  0
 24  5  1  0  0  0  0
 25 17  1  0  0  0  0
 25 19  1  0  0  0  0
 26 13  1  0  0  0  0
 26 24  1  0  0  0  0
 28 12  1  0  0  0  0
M  END
>  <MODEL>
5

>  <REMARK>
 VINA RESULT:      -7.2      1.922      5.761
  Name = 
  0 active torsions:
  status: ('A' for Active; 'I' for Inactive)
                            x       y       z     vdW  Elec       q    Type
                         _______ _______ _______ _____ _____    ______ ____

>  <TORSDO>
F 0

$$$$
=
 OpenBabel11112417403D

 28 32  0  0  1  0  0  0  0  0999 V2000
  194.2550  175.0650  141.5080 C   0  0  0  0  0  0  0  0  0  0  0  0
  190.8500  177.5750  144.6280 C   0  0  0  0  0  1  0  0  0  0  0  0
  196.8550  174.2340  145.1040 O   0  0  0  0  0  0  0  0  0  0  0  0
  193.5690  172.3610  141.7440 C   0  0  0  0  0  3  0  0  0  0  0  0
  194.6360  174.2240  146.0620 C   0  0  1  0  0  3  0  0  0  0  0  0
  194.6300  176.4070  141.4180 O   0  0  0  0  0  0  0  0  0  0  0  0
  189.8450  176.1690  142.8670 C   0  0  0  0  0  1  0  0  0  0  0  0
  190.4410  176.1520  144.2610 C   0  0  0  0  0  0  0  0  0  0  0  0
  189.7890  175.2630  146.4540 C   0  0  0  0  0  0  0  0  0  0  0  0
  191.6420  175.1780  144.2910 C   0  0  2  0  0  3  0  0  0  0  0  0
  197.8330  175.8990  142.4290 O   0  0  0  0  0  0  0  0  0  0  0  0
  193.8820  176.0930  144.6240 C   0  0  1  0  0  3  0  0  0  0  0  0
  191.2270  175.2410  146.8570 C   0  0  0  0  0  2  0  0  0  0  0  0
  189.4430  175.6990  145.1750 O   0  0  0  0  0  0  0  0  0  0  0  0
  196.7530  176.4600  142.5100 C   0  0  0  0  0  0  0  0  0  0  0  0
  193.3810  174.6580  142.5310 C   0  0  0  0  0  0  0  0  0  0  0  0
  195.6840  174.6990  145.1310 C   0  0  0  0  0  0  0  0  0  0  0  0
  188.8970  174.9160  147.2690 O   0  0  0  0  0  0  0  0  0  0  0  0
  196.1930  176.8060  143.8560 C   0  0  0  0  0  2  0  0  0  0  0  0
  193.0510  173.2960  142.6420 C   0  0  0  0  0  3  0  0  0  0  0  0
  194.7810  174.1210  140.6160 C   0  0  0  0  0  3  0  0  0  0  0  0
  194.4350  172.7740  140.7310 C   0  0  0  0  0  3  0  0  0  0  0  0
  195.9910  176.7900  141.2640 C   0  0  0  0  0  2  0  0  0  0  0  0
  193.5280  175.2890  145.8780 C   0  0  1  0  0  3  0  0  0  0  0  0
  195.2660  175.7740  144.3070 N   0  0  0  0  0  0  0  0  0  0  0  0
  192.1100  174.7580  145.7010 C   0  0  2  0  0  3  0  0  0  0  0  0
  194.2160  172.8100  145.6780 C   0  0  0  0  0  1  0  0  0  0  0  0
  192.8730  175.6790  143.5340 C   0  0  1  0  0  3  0  0  0  0  0  0
  1 16  1  0  0  0  0
  3 17  2  0  0  0  0
  4 20  1  0  0  0  0
  5 27  1  6  0  0  0
  6  1  1  0  0  0  0
  7  8  1  0  0  0  0
  8  2  1  0  0  0  0
  8 14  1  0  0  0  0
  9 13  1  0  0  0  0
  9 18  2  0  0  0  0
 10  8  1  1  0  0  0
 10 26  1  0  0  0  0
 11 15  2  0  0  0  0
 12 25  1  6  0  0  0
 12 24  1  0  0  0  0
 14  9  1  0  0  0  0
 15 19  1  0  0  0  0
 16 20  2  0  0  0  0
 16 28  1  0  0  0  0
 17  5  1  0  0  0  0
 19 25  1  0  0  0  0
 21 22  1  0  0  0  0
 21  1  2  0  0  0  0
 22  4  2  0  0  0  0
 23  6  1  0  0  0  0
 23 15  1  0  0  0  0
 24  5  1  0  0  0  0
 25 17  1  0  0  0  0
 26 24  1  0  0  0  0
 26 13  1  0  0  0  0
 28 10  1  0  0  0  0
 28 12  1  0  0  0  0
M  END
>  <MODEL>
6

>  <REMARK>
 VINA RESULT:      -7.1      2.707      4.067
  Name = 
  0 active torsions:
  status: ('A' for Active; 'I' for Inactive)
                            x       y       z     vdW  Elec       q    Type
                         _______ _______ _______ _____ _____    ______ ____

>  <TORSDO>
F 0

$$$$
=
 OpenBabel11112417403D

 28 32  0  0  1  0  0  0  0  0999 V2000
  191.7160  173.6730  142.6460 C   0  0  0  0  0  0  0  0  0  0  0  0
  189.4980  174.5720  147.3260 C   0  0  0  0  0  1  0  0  0  0  0  0
  188.1920  175.6670  140.6510 O   0  0  0  0  0  0  0  0  0  0  0  0
  193.0460  176.0580  142.0240 C   0  0  0  0  0  3  0  0  0  0  0  0
  188.3470  176.8700  142.7420 C   0  0  1  0  0  3  0  0  0  0  0  0
  191.0220  172.4950  142.9300 O   0  0  0  0  0  0  0  0  0  0  0  0
  191.9430  174.8940  147.2260 C   0  0  0  0  0  1  0  0  0  0  0  0
  190.6050  175.5530  146.9510 C   0  0  0  0  0  0  0  0  0  0  0  0
  189.5440  177.6990  147.4960 C   0  0  0  0  0  0  0  0  0  0  0  0
  190.5350  175.9650  145.4630 C   0  0  2  0  0  3  0  0  0  0  0  0
  189.1460  172.5580  140.0990 O   0  0  0  0  0  0  0  0  0  0  0  0
  188.9380  174.8260  144.0070 C   0  0  1  0  0  3  0  0  0  0  0  0
  188.6480  177.5400  146.3120 C   0  0  0  0  0  2  0  0  0  0  0  0
  190.4980  176.7170  147.7690 O   0  0  0  0  0  0  0  0  0  0  0  0
  189.2660  172.4890  141.3100 C   0  0  0  0  0  0  0  0  0  0  0  0
  191.4520  174.8310  143.3980 C   0  0  0  0  0  0  0  0  0  0  0  0
  188.4370  175.6650  141.8870 C   0  0  0  0  0  0  0  0  0  0  0  0
  189.4240  178.6940  148.2540 O   0  0  0  0  0  0  0  0  0  0  0  0
  188.2750  173.1750  142.1980 C   0  0  0  0  0  2  0  0  0  0  0  0
  192.1210  176.0230  143.0690 C   0  0  0  0  0  3  0  0  0  0  0  0
  192.6380  173.7160  141.5900 C   0  0  0  0  0  3  0  0  0  0  0  0
  193.3040  174.9030  141.2830 C   0  0  0  0  0  3  0  0  0  0  0  0
  190.4130  171.7260  141.9010 C   0  0  0  0  0  2  0  0  0  0  0  0
  188.4590  176.2720  144.1640 C   0  0  1  0  0  3  0  0  0  0  0  0
  188.7680  174.4870  142.6020 N   0  0  0  0  0  0  0  0  0  0  0  0
  189.4210  176.9770  145.1140 C   0  0  2  0  0  3  0  0  0  0  0  0
  189.4670  177.8370  142.3780 C   0  0  0  0  0  1  0  0  0  0  0  0
  190.4000  174.7900  144.4930 C   0  0  1  0  0  3  0  0  0  0  0  0
  1  6  1  0  0  0  0
  1 16  1  0  0  0  0
  3 17  2  0  0  0  0
  4 20  1  0  0  0  0
  5 27  1  6  0  0  0
  5 24  1  0  0  0  0
  8  7  1  0  0  0  0
  8  2  1  0  0  0  0
  8 14  1  0  0  0  0
  9 14  1  0  0  0  0
  9 18  2  0  0  0  0
 10  8  1  1  0  0  0
 11 15  2  0  0  0  0
 12 25  1  6  0  0  0
 12 24  1  0  0  0  0
 12 28  1  0  0  0  0
 13  9  1  0  0  0  0
 15 23  1  0  0  0  0
 15 19  1  0  0  0  0
 16 28  1  0  0  0  0
 17 25  1  0  0  0  0
 17  5  1  0  0  0  0
 19 25  1  0  0  0  0
 20 16  2  0  0  0  0
 21  1  2  0  0  0  0
 22 21  1  0  0  0  0
 22  4  2  0  0  0  0
 23  6  1  0  0  0  0
 24 26  1  0  0  0  0
 26 10  1  0  0  0  0
 26 13  1  0  0  0  0
 28 10  1  0  0  0  0
M  END
>  <MODEL>
7

>  <REMARK>
 VINA RESULT:      -7.0      2.375      4.721
  Name = 
  0 active torsions:
  status: ('A' for Active; 'I' for Inactive)
                            x       y       z     vdW  Elec       q    Type
                         _______ _______ _______ _____ _____    ______ ____

>  <TORSDO>
F 0

$$$$
=
 OpenBabel11112417403D

 28 32  0  0  1  0  0  0  0  0999 V2000
  194.6540  172.6190  143.0020 C   0  0  0  0  0  0  0  0  0  0  0  0
  189.6840  174.2510  143.5180 C   0  0  0  0  0  1  0  0  0  0  0  0
  196.0690  176.7990  143.9530 O   0  0  0  0  0  0  0  0  0  0  0  0
  195.4870  172.0570  145.6150 C   0  0  0  0  0  3  0  0  0  0  0  0
  194.0340  176.6400  145.2470 C   0  0  1  0  0  3  0  0  0  0  0  0
  194.2590  172.9370  141.7010 O   0  0  0  0  0  0  0  0  0  0  0  0
  190.1730  172.0150  144.4410 C   0  0  0  0  0  1  0  0  0  0  0  0
  190.2330  173.5030  144.7290 C   0  0  0  0  0  0  0  0  0  0  0  0
  189.5340  174.9810  146.5600 C   0  0  0  0  0  0  0  0  0  0  0  0
  191.6930  173.9030  145.0440 C   0  0  2  0  0  3  0  0  0  0  0  0
  196.7550  175.1770  141.1630 O   0  0  0  0  0  0  0  0  0  0  0  0
  192.8710  175.3580  143.4760 C   0  0  1  0  0  3  0  0  0  0  0  0
  190.5590  175.9780  146.1280 C   0  0  0  0  0  2  0  0  0  0  0  0
  189.4130  173.7780  145.8630 O   0  0  0  0  0  0  0  0  0  0  0  0
  195.5780  174.8590  141.1800 C   0  0  0  0  0  0  0  0  0  0  0  0
  193.8730  173.0540  144.0880 C   0  0  0  0  0  0  0  0  0  0  0  0
  194.8870  176.3760  144.0670 C   0  0  0  0  0  0  0  0  0  0  0  0
  188.7700  175.2350  147.5250 O   0  0  0  0  0  0  0  0  0  0  0  0
  194.5460  175.8460  141.6330 C   0  0  0  0  0  2  0  0  0  0  0  0
  194.3080  172.7700  145.3950 C   0  0  0  0  0  3  0  0  0  0  0  0
  195.8430  171.9130  143.2290 C   0  0  0  0  0  3  0  0  0  0  0  0
  196.2560  171.6280  144.5320 C   0  0  0  0  0  3  0  0  0  0  0  0
  195.1750  173.4800  140.7580 C   0  0  0  0  0  2  0  0  0  0  0  0
  192.6450  176.1620  144.7600 C   0  0  1  0  0  3  0  0  0  0  0  0
  194.2310  175.6490  143.0430 N   0  0  0  0  0  0  0  0  0  0  0  0
  191.8630  175.2780  145.7260 C   0  0  2  0  0  3  0  0  0  0  0  0
  194.5740  175.8740  146.4490 C   0  0  0  0  0  1  0  0  0  0  0  0
  192.6250  173.8790  143.8320 C   0  0  1  0  0  3  0  0  0  0  0  0
  1 21  2  0  0  0  0
  1 16  1  0  0  0  0
  2  8  1  0  0  0  0
  3 17  2  0  0  0  0
  5 27  1  1  0  0  0
  6  1  1  0  0  0  0
  7  8  1  0  0  0  0
  8 14  1  0  0  0  0
  9 18  2  0  0  0  0
 10  8  1  6  0  0  0
 10 26  1  0  0  0  0
 11 15  2  0  0  0  0
 12 25  1  1  0  0  0
 12 28  1  0  0  0  0
 12 24  1  0  0  0  0
 13  9  1  0  0  0  0
 14  9  1  0  0  0  0
 15 19  1  0  0  0  0
 16 20  2  0  0  0  0
 17  5  1  0  0  0  0
 19 25  1  0  0  0  0
 20  4  1  0  0  0  0
 21 22  1  0  0  0  0
 22  4  2  0  0  0  0
 23 15  1  0  0  0  0
 23  6  1  0  0  0  0
 24  5  1  0  0  0  0
 24 26  1  0  0  0  0
 25 17  1  0  0  0  0
 26 13  1  0  0  0  0
 28 16  1  0  0  0  0
 28 10  1  0  0  0  0
M  END
>  <MODEL>
8

>  <REMARK>
 VINA RESULT:      -6.9      2.819      4.268
  Name = 
  0 active torsions:
  status: ('A' for Active; 'I' for Inactive)
                            x       y       z     vdW  Elec       q    Type
                         _______ _______ _______ _____ _____    ______ ____

>  <TORSDO>
F 0

$$$$
=
 OpenBabel11112417403D

 28 32  0  0  1  0  0  0  0  0999 V2000
  188.6780  175.6940  145.4620 C   0  0  0  0  0  0  0  0  0  0  0  0
  190.0310  171.6310  142.4140 C   0  0  0  0  0  1  0  0  0  0  0  0
  192.9540  177.1360  145.3470 O   0  0  0  0  0  0  0  0  0  0  0  0
  188.2260  177.8000  143.6720 C   0  0  0  0  0  3  0  0  0  0  0  0
  192.7080  176.0870  143.1830 C   0  0  1  0  0  3  0  0  0  0  0  0
  188.9410  174.6600  146.3630 O   0  0  0  0  0  0  0  0  0  0  0  0
  187.8500  172.6660  141.9030 C   0  0  0  0  0  1  0  0  0  0  0  0
  189.3450  172.7750  141.6750 C   0  0  0  0  0  0  0  0  0  0  0  0
  190.8240  173.0420  139.7330 C   0  0  0  0  0  0  0  0  0  0  0  0
  189.8360  174.1570  142.1630 C   0  0  2  0  0  3  0  0  0  0  0  0
  191.3080  176.3670  148.1010 O   0  0  0  0  0  0  0  0  0  0  0  0
  191.3190  174.2540  144.1010 C   0  0  1  0  0  3  0  0  0  0  0  0
  191.8670  173.6290  140.6260 C   0  0  0  0  0  2  0  0  0  0  0  0
  189.5990  172.6510  140.2760 O   0  0  0  0  0  0  0  0  0  0  0  0
  190.9230  175.3930  147.4760 C   0  0  0  0  0  0  0  0  0  0  0  0
  189.0920  175.5680  144.1240 C   0  0  0  0  0  0  0  0  0  0  0  0
  192.4660  176.2160  144.6380 C   0  0  0  0  0  0  0  0  0  0  0  0
  191.0550  172.8790  138.5090 O   0  0  0  0  0  0  0  0  0  0  0  0
  191.8590  174.6900  146.5420 C   0  0  0  0  0  2  0  0  0  0  0  0
  188.8650  176.6370  143.2390 C   0  0  0  0  0  3  0  0  0  0  0  0
  188.0470  176.8680  145.8950 C   0  0  0  0  0  3  0  0  0  0  0  0
  187.8170  177.9160  145.0010 C   0  0  0  0  0  3  0  0  0  0  0  0
  189.5130  174.9160  147.6390 C   0  0  0  0  0  2  0  0  0  0  0  0
  192.1390  174.6810  142.8800 C   0  0  1  0  0  3  0  0  0  0  0  0
  191.6780  175.1680  145.1760 N   0  0  0  0  0  0  0  0  0  0  0  0
  191.2350  174.5720  141.6560 C   0  0  2  0  0  3  0  0  0  0  0  0
  192.0030  177.2210  142.4470 C   0  0  0  0  0  1  0  0  0  0  0  0
  189.8370  174.3210  143.6840 C   0  0  1  0  0  3  0  0  0  0  0  0
  1 21  1  0  0  0  0
  1  6  1  0  0  0  0
  4 22  1  0  0  0  0
  5 27  1  6  0  0  0
  5 17  1  0  0  0  0
  6 23  1  0  0  0  0
  8  7  1  0  0  0  0
  8  2  1  0  0  0  0
  9 14  1  0  0  0  0
  9 13  1  0  0  0  0
 10  8  1  1  0  0  0
 10 28  1  0  0  0  0
 12 25  1  1  0  0  0
 13 26  1  0  0  0  0
 14  8  1  0  0  0  0
 15 23  1  0  0  0  0
 15 11  2  0  0  0  0
 16  1  2  0  0  0  0
 17 25  1  0  0  0  0
 17  3  2  0  0  0  0
 18  9  2  0  0  0  0
 19 15  1  0  0  0  0
 20  4  2  0  0  0  0
 20 16  1  0  0  0  0
 22 21  2  0  0  0  0
 24  5  1  0  0  0  0
 24 12  1  0  0  0  0
 25 19  1  0  0  0  0
 26 10  1  0  0  0  0
 26 24  1  0  0  0  0
 28 12  1  0  0  0  0
 28 16  1  0  0  0  0
M  END
>  <MODEL>
9

>  <REMARK>
 VINA RESULT:      -6.8      2.151      5.479
  Name = 
  0 active torsions:
  status: ('A' for Active; 'I' for Inactive)
                            x       y       z     vdW  Elec       q    Type
                         _______ _______ _______ _____ _____    ______ ____

>  <TORSDO>
F 0

$$$$
