=
 OpenBabel11112416593D

 31 35  0  0  0  0  0  0  0  0999 V2000
  184.7130  177.9220  141.2440 C   0  0  0  0  0  0  0  0  0  0  0  0
  187.2360  177.5470  144.0160 C   0  0  0  0  0  0  0  0  0  0  0  0
  186.4930  177.5320  145.2360 C   0  0  0  0  0  0  0  0  0  0  0  0
  184.5160  178.3970  146.4790 C   0  0  0  0  0  0  0  0  0  0  0  0
  186.6460  177.6710  142.7200 C   0  0  0  0  0  0  0  0  0  0  0  0
  185.5460  177.9190  140.1270 C   0  0  0  0  0  3  0  0  0  0  0  0
  184.9850  177.5970  145.2960 C   0  0  0  0  0  2  0  0  0  0  0  0
  189.4570  177.4380  142.9450 C   0  0  0  0  0  0  0  0  0  0  0  0
  183.3400  178.0450  141.0850 O   0  0  0  0  0  1  0  0  0  0  0  0
  188.5300  177.2980  146.4870 N   0  0  0  0  0  0  0  0  0  0  0  0
  183.4820  179.0380  146.3990 O   0  0  0  0  0  0  0  0  0  0  0  0
  188.8550  177.5590  141.6940 C   0  0  0  0  0  3  0  0  0  0  0  0
  188.6550  177.4330  144.1010 C   0  0  0  0  0  0  0  0  0  0  0  0
  185.2600  177.7990  142.5230 C   0  0  0  0  0  3  0  0  0  0  0  0
  185.2940  178.3990  147.7680 C   0  0  0  0  0  2  0  0  0  0  0  0
  187.4770  177.6750  141.5700 C   0  0  0  0  0  0  0  0  0  0  0  0
  186.9260  177.7970  140.2910 C   0  0  0  0  0  3  0  0  0  0  0  0
  189.2660  177.3100  145.3520 C   0  0  0  0  0  3  0  0  0  0  0  0
  187.1810  177.4090  146.4610 C   0  0  0  0  0  0  0  0  0  0  0  0
  186.4200  177.3640  147.7530 C   0  0  0  0  0  2  0  0  0  0  0  0
  191.1060  175.0020  142.8460 O   0  0  0  0  0  0  0  0  0  0  0  0
  191.6700  176.1160  143.0150 C   0  0  0  0  0  0  0  0  0  0  0  0
  190.8860  177.3190  143.0670 N   0  0  0  0  0  2  0  0  0  0  0  0
  195.9560  176.3590  143.2820 C   0  0  0  0  0  0  0  0  0  0  0  0
  193.9250  176.1300  141.9970 C   0  0  0  0  0  3  0  0  0  0  0  0
  192.9650  176.4710  145.9510 Cl  0  0  0  0  0  0  0  0  0  0  0  0
  197.3400  176.4330  143.3410 O   0  0  0  0  0  1  0  0  0  0  0  0
  195.3180  176.2050  142.0530 C   0  0  0  0  0  3  0  0  0  0  0  0
  193.8050  176.3620  144.4100 C   0  0  0  0  0  0  0  0  0  0  0  0
  193.1450  176.2050  143.1630 C   0  0  0  0  0  0  0  0  0  0  0  0
  195.2010  176.4360  144.4530 C   0  0  0  0  0  3  0  0  0  0  0  0
  1 14  1  0  0  0  0
  2 13  2  0  0  0  0
  2  3  1  0  0  0  0
  3  7  1  0  0  0  0
  3 19  2  0  0  0  0
  4 15  1  0  0  0  0
  5  2  1  0  0  0  0
  6 17  1  0  0  0  0
  6  1  2  0  0  0  0
  7  4  1  0  0  0  0
  8 23  1  0  0  0  0
  8 13  1  0  0  0  0
  9  1  1  0  0  0  0
 11  4  2  0  0  0  0
 12  8  2  0  0  0  0
 13 18  1  0  0  0  0
 14  5  2  0  0  0  0
 16 12  1  0  0  0  0
 16  5  1  0  0  0  0
 17 16  2  0  0  0  0
 18 10  2  0  0  0  0
 19 10  1  0  0  0  0
 19 20  1  0  0  0  0
 20 15  1  0  0  0  0
 21 22  2  0  0  0  0
 22 23  1  0  0  0  0
 22 30  1  0  0  0  0
 24 27  1  0  0  0  0
 24 31  1  0  0  0  0
 25 28  1  0  0  0  0
 25 30  2  0  0  0  0
 28 24  2  0  0  0  0
 29 31  2  0  0  0  0
 29 26  1  0  0  0  0
 30 29  1  0  0  0  0
M  END
>  <MODEL>
1

>  <REMARK>
 VINA RESULT:      -9.4      0.000      0.000
  Name = 
  2 active torsions:
  status: ('A' for Active; 'I' for Inactive)
    1  A    between atoms: C_5  and  C_30
    2  A    between atoms: C_10  and  N_16
                            x       y       z     vdW  Elec       q    Type
                         _______ _______ _______ _____ _____    ______ ____

>  <TORSDO>
F 2

$$$$
=
 OpenBabel11112416593D

 31 35  0  0  0  0  0  0  0  0999 V2000
  184.6290  178.5810  146.4410 C   0  0  0  0  0  0  0  0  0  0  0  0
  187.3760  177.7480  144.0020 C   0  0  0  0  0  0  0  0  0  0  0  0
  186.8490  178.0090  142.7000 C   0  0  0  0  0  0  0  0  0  0  0  0
  184.8460  177.9750  141.2210 C   0  0  0  0  0  0  0  0  0  0  0  0
  186.6450  177.9410  145.2160 C   0  0  0  0  0  0  0  0  0  0  0  0
  185.2560  178.2940  147.6530 C   0  0  0  0  0  3  0  0  0  0  0  0
  185.4670  178.5680  142.4550 C   0  0  0  0  0  2  0  0  0  0  0  0
  189.3050  176.9840  145.3390 C   0  0  0  0  0  0  0  0  0  0  0  0
  183.3200  179.0420  146.4300 O   0  0  0  0  0  1  0  0  0  0  0  0
  188.9260  177.3210  141.7090 N   0  0  0  0  0  0  0  0  0  0  0  0
  183.6370  177.8220  141.1710 O   0  0  0  0  0  0  0  0  0  0  0  0
  188.5690  177.1830  146.5060 C   0  0  0  0  0  3  0  0  0  0  0  0
  188.7140  177.2630  144.0930 C   0  0  0  0  0  0  0  0  0  0  0  0
  185.3180  178.4050  145.2400 C   0  0  0  0  0  3  0  0  0  0  0  0
  185.6930  177.5910  140.0380 C   0  0  0  0  0  2  0  0  0  0  0  0
  187.2640  177.6510  146.4590 C   0  0  0  0  0  0  0  0  0  0  0  0
  186.5710  177.8290  147.6600 C   0  0  0  0  0  3  0  0  0  0  0  0
  189.4580  177.0630  142.9270 C   0  0  0  0  0  3  0  0  0  0  0  0
  187.6590  177.7780  141.5690 C   0  0  0  0  0  0  0  0  0  0  0  0
  187.1370  178.0690  140.1930 C   0  0  0  0  0  2  0  0  0  0  0  0
  190.2550  174.3030  146.0950 O   0  0  0  0  0  0  0  0  0  0  0  0
  191.0970  175.1810  145.7670 C   0  0  0  0  0  0  0  0  0  0  0  0
  190.6580  176.4970  145.3940 N   0  0  0  0  0  2  0  0  0  0  0  0
  195.3330  174.4360  145.8200 C   0  0  0  0  0  0  0  0  0  0  0  0
  193.4240  175.8330  146.3000 C   0  0  0  0  0  3  0  0  0  0  0  0
  192.1370  172.3810  144.5380 Cl  0  0  0  0  0  0  0  0  0  0  0  0
  196.7040  174.2210  145.8480 O   0  0  0  0  0  1  0  0  0  0  0  0
  194.8030  175.6190  146.3300 C   0  0  0  0  0  3  0  0  0  0  0  0
  193.1020  173.6720  145.2430 C   0  0  0  0  0  0  0  0  0  0  0  0
  192.5510  174.8730  145.7610 C   0  0  0  0  0  0  0  0  0  0  0  0
  194.4850  173.4690  145.2800 C   0  0  0  0  0  3  0  0  0  0  0  0
  1  6  1  0  0  0  0
  2 13  2  0  0  0  0
  2  5  1  0  0  0  0
  3  2  1  0  0  0  0
  4  7  1  0  0  0  0
  5 14  1  0  0  0  0
  5 16  2  0  0  0  0
  6 17  2  0  0  0  0
  7  3  1  0  0  0  0
  8 23  1  0  0  0  0
  8 12  2  0  0  0  0
  9  1  1  0  0  0  0
 10 18  2  0  0  0  0
 11  4  2  0  0  0  0
 13  8  1  0  0  0  0
 14  1  2  0  0  0  0
 15 20  1  0  0  0  0
 15  4  1  0  0  0  0
 16 12  1  0  0  0  0
 16 17  1  0  0  0  0
 18 13  1  0  0  0  0
 19 10  1  0  0  0  0
 19  3  2  0  0  0  0
 20 19  1  0  0  0  0
 22 21  2  0  0  0  0
 23 22  1  0  0  0  0
 24 27  1  0  0  0  0
 24 28  1  0  0  0  0
 25 28  2  0  0  0  0
 26 29  1  0  0  0  0
 29 31  1  0  0  0  0
 29 30  2  0  0  0  0
 30 22  1  0  0  0  0
 30 25  1  0  0  0  0
 31 24  2  0  0  0  0
M  END
>  <MODEL>
2

>  <REMARK>
 VINA RESULT:      -8.8      2.027      4.450
  Name = 
  2 active torsions:
  status: ('A' for Active; 'I' for Inactive)
    1  A    between atoms: C_5  and  C_30
    2  A    between atoms: C_10  and  N_16
                            x       y       z     vdW  Elec       q    Type
                         _______ _______ _______ _____ _____    ______ ____

>  <TORSDO>
F 2

$$$$
=
 OpenBabel11112416593D

 31 35  0  0  0  0  0  0  0  0999 V2000
  184.6830  178.3050  146.4270 C   0  0  0  0  0  0  0  0  0  0  0  0
  187.2110  177.0660  143.9250 C   0  0  0  0  0  0  0  0  0  0  0  0
  186.7660  177.5200  142.6450 C   0  0  0  0  0  0  0  0  0  0  0  0
  184.8180  178.0170  141.1770 C   0  0  0  0  0  0  0  0  0  0  0  0
  186.5270  177.3290  145.1520 C   0  0  0  0  0  0  0  0  0  0  0  0
  185.2210  177.8100  147.6140 C   0  0  0  0  0  3  0  0  0  0  0  0
  185.5400  178.3780  142.4450 C   0  0  0  0  0  2  0  0  0  0  0  0
  188.9180  175.8160  145.1980 C   0  0  0  0  0  0  0  0  0  0  0  0
  183.5040  179.0370  146.4530 O   0  0  0  0  0  1  0  0  0  0  0  0
  188.6570  176.4690  141.6020 N   0  0  0  0  0  0  0  0  0  0  0  0
  183.6060  178.1320  141.1220 O   0  0  0  0  0  0  0  0  0  0  0  0
  188.2300  176.0900  146.3800 C   0  0  0  0  0  3  0  0  0  0  0  0
  188.4130  176.2980  143.9770 C   0  0  0  0  0  0  0  0  0  0  0  0
  185.3300  178.0660  145.2130 C   0  0  0  0  0  3  0  0  0  0  0  0
  185.5750  177.5400  139.9660 C   0  0  0  0  0  2  0  0  0  0  0  0
  187.0560  176.8310  146.3700 C   0  0  0  0  0  0  0  0  0  0  0  0
  186.4050  177.0730  147.5840 C   0  0  0  0  0  3  0  0  0  0  0  0
  189.1080  176.0210  142.7960 C   0  0  0  0  0  3  0  0  0  0  0  0
  187.5200  177.1960  141.4980 C   0  0  0  0  0  0  0  0  0  0  0  0
  187.0860  177.6840  140.1480 C   0  0  0  0  0  2  0  0  0  0  0  0
  191.6910  176.7830  145.3830 O   0  0  0  0  0  0  0  0  0  0  0  0
  191.4790  175.5430  145.3060 C   0  0  0  0  0  0  0  0  0  0  0  0
  190.1340  175.0470  145.2150 N   0  0  0  0  0  2  0  0  0  0  0  0
  194.6500  172.6380  145.2400 C   0  0  0  0  0  0  0  0  0  0  0  0
  192.3730  173.2960  144.7820 C   0  0  0  0  0  3  0  0  0  0  0  0
  194.3470  176.4350  146.4920 Cl  0  0  0  0  0  0  0  0  0  0  0  0
  195.6560  171.6820  145.2070 O   0  0  0  0  0  1  0  0  0  0  0  0
  193.3830  172.3330  144.7480 C   0  0  0  0  0  3  0  0  0  0  0  0
  193.9030  174.8780  145.8060 C   0  0  0  0  0  0  0  0  0  0  0  0
  192.6090  174.5780  145.3070 C   0  0  0  0  0  0  0  0  0  0  0  0
  194.9060  173.9040  145.7660 C   0  0  0  0  0  3  0  0  0  0  0  0
  1  9  1  0  0  0  0
  1  6  1  0  0  0  0
  2 13  2  0  0  0  0
  2  5  1  0  0  0  0
  3  2  1  0  0  0  0
  4  7  1  0  0  0  0
  5 14  1  0  0  0  0
  5 16  2  0  0  0  0
  7  3  1  0  0  0  0
  8 23  1  0  0  0  0
  8 12  2  0  0  0  0
 10 18  2  0  0  0  0
 11  4  2  0  0  0  0
 13  8  1  0  0  0  0
 14  1  2  0  0  0  0
 15 20  1  0  0  0  0
 15  4  1  0  0  0  0
 16 12  1  0  0  0  0
 16 17  1  0  0  0  0
 17  6  2  0  0  0  0
 18 13  1  0  0  0  0
 19 10  1  0  0  0  0
 19  3  2  0  0  0  0
 20 19  1  0  0  0  0
 22 30  1  0  0  0  0
 22 21  2  0  0  0  0
 23 22  1  0  0  0  0
 24 31  1  0  0  0  0
 25 30  2  0  0  0  0
 27 24  1  0  0  0  0
 28 25  1  0  0  0  0
 28 24  2  0  0  0  0
 29 26  1  0  0  0  0
 30 29  1  0  0  0  0
 31 29  2  0  0  0  0
M  END
>  <MODEL>
3

>  <REMARK>
 VINA RESULT:      -8.6      2.106      4.506
  Name = 
  2 active torsions:
  status: ('A' for Active; 'I' for Inactive)
    1  A    between atoms: C_5  and  C_30
    2  A    between atoms: C_10  and  N_16
                            x       y       z     vdW  Elec       q    Type
                         _______ _______ _______ _____ _____    ______ ____

>  <TORSDO>
F 2

$$$$
=
 OpenBabel11112416593D

 31 35  0  0  0  0  0  0  0  0999 V2000
  191.2340  176.7680  147.5730 C   0  0  0  0  0  0  0  0  0  0  0  0
  188.7210  176.3930  144.7930 C   0  0  0  0  0  0  0  0  0  0  0  0
  187.5270  177.0370  145.2410 C   0  0  0  0  0  0  0  0  0  0  0  0
  186.0510  177.5720  147.1750 C   0  0  0  0  0  0  0  0  0  0  0  0
  189.9250  176.3130  145.5590 C   0  0  0  0  0  0  0  0  0  0  0  0
  192.3360  176.1140  147.0230 C   0  0  0  0  0  3  0  0  0  0  0  0
  187.4130  177.7560  146.5650 C   0  0  0  0  0  2  0  0  0  0  0  0
  189.8410  175.1370  142.9870 C   0  0  0  0  0  0  0  0  0  0  0  0
  191.3200  177.3240  148.8420 O   0  0  0  0  0  1  0  0  0  0  0  0
  186.4320  176.4690  143.1810 N   0  0  0  0  0  0  0  0  0  0  0  0
  185.9360  177.5410  148.3880 O   0  0  0  0  0  0  0  0  0  0  0  0
  191.0020  175.0760  143.7560 C   0  0  0  0  0  3  0  0  0  0  0  0
  188.7050  175.7900  143.5010 C   0  0  0  0  0  0  0  0  0  0  0  0
  190.0450  176.8640  146.8480 C   0  0  0  0  0  3  0  0  0  0  0  0
  184.8270  177.4500  146.3080 C   0  0  0  0  0  2  0  0  0  0  0  0
  191.0560  175.6480  145.0190 C   0  0  0  0  0  0  0  0  0  0  0  0
  192.2450  175.5550  145.7490 C   0  0  0  0  0  3  0  0  0  0  0  0
  187.5440  175.8480  142.7240 C   0  0  0  0  0  3  0  0  0  0  0  0
  186.3930  177.0510  144.4020 C   0  0  0  0  0  0  0  0  0  0  0  0
  185.1380  177.7450  144.8400 C   0  0  0  0  0  2  0  0  0  0  0  0
  188.9260  172.4420  142.2390 O   0  0  0  0  0  0  0  0  0  0  0  0
  189.3390  173.2200  141.3380 C   0  0  0  0  0  0  0  0  0  0  0  0
  189.7910  174.5410  141.6780 N   0  0  0  0  0  2  0  0  0  0  0  0
  189.3330  172.1060  137.1830 C   0  0  0  0  0  0  0  0  0  0  0  0
  188.7270  173.6100  138.9720 C   0  0  0  0  0  3  0  0  0  0  0  0
  190.8380  170.4780  140.5250 Cl  0  0  0  0  0  0  0  0  0  0  0  0
  189.3160  171.7690  135.8370 O   0  0  0  0  0  1  0  0  0  0  0  0
  188.7090  173.2730  137.6170 C   0  0  0  0  0  3  0  0  0  0  0  0
  189.9990  171.6020  139.4630 C   0  0  0  0  0  0  0  0  0  0  0  0
  189.3670  172.7890  139.9160 C   0  0  0  0  0  0  0  0  0  0  0  0
  189.9740  171.2760  138.1030 C   0  0  0  0  0  3  0  0  0  0  0  0
  1  9  1  0  0  0  0
  2  3  1  0  0  0  0
  2  5  1  0  0  0  0
  3  7  1  0  0  0  0
  4 11  2  0  0  0  0
  5 14  1  0  0  0  0
  6  1  1  0  0  0  0
  7  4  1  0  0  0  0
  8 13  1  0  0  0  0
  8 12  2  0  0  0  0
 10 19  1  0  0  0  0
 12 16  1  0  0  0  0
 13  2  2  0  0  0  0
 14  1  2  0  0  0  0
 15  4  1  0  0  0  0
 16  5  2  0  0  0  0
 16 17  1  0  0  0  0
 17  6  2  0  0  0  0
 18 10  2  0  0  0  0
 18 13  1  0  0  0  0
 19 20  1  0  0  0  0
 19  3  2  0  0  0  0
 20 15  1  0  0  0  0
 22 23  1  0  0  0  0
 22 21  2  0  0  0  0
 23  8  1  0  0  0  0
 24 28  2  0  0  0  0
 24 31  1  0  0  0  0
 25 30  2  0  0  0  0
 27 24  1  0  0  0  0
 28 25  1  0  0  0  0
 29 30  1  0  0  0  0
 29 26  1  0  0  0  0
 30 22  1  0  0  0  0
 31 29  2  0  0  0  0
M  END
>  <MODEL>
4

>  <REMARK>
 VINA RESULT:      -8.4      4.041      6.264
  Name = 
  2 active torsions:
  status: ('A' for Active; 'I' for Inactive)
    1  A    between atoms: C_5  and  C_30
    2  A    between atoms: C_10  and  N_16
                            x       y       z     vdW  Elec       q    Type
                         _______ _______ _______ _____ _____    ______ ____

>  <TORSDO>
F 2

$$$$
=
 OpenBabel11112416593D

 31 35  0  0  0  0  0  0  0  0999 V2000
  186.2660  177.3810  146.7840 C   0  0  0  0  0  0  0  0  0  0  0  0
  189.1500  175.8210  144.9310 C   0  0  0  0  0  0  0  0  0  0  0  0
  190.2080  175.6780  145.8810 C   0  0  0  0  0  0  0  0  0  0  0  0
  191.3570  176.6320  147.8740 C   0  0  0  0  0  0  0  0  0  0  0  0
  187.8680  176.3740  145.2360 C   0  0  0  0  0  0  0  0  0  0  0  0
  185.3140  177.4630  145.7700 C   0  0  0  0  0  3  0  0  0  0  0  0
  190.0770  176.0530  147.3390 C   0  0  0  0  0  2  0  0  0  0  0  0
  188.4030  175.4900  142.6020 C   0  0  0  0  0  0  0  0  0  0  0  0
  185.9610  177.8340  148.0610 O   0  0  0  0  0  1  0  0  0  0  0  0
  191.6150  174.7180  144.1880 N   0  0  0  0  0  0  0  0  0  0  0  0
  191.3130  177.4820  148.7470 O   0  0  0  0  0  0  0  0  0  0  0  0
  187.1610  176.0320  142.9290 C   0  0  0  0  0  3  0  0  0  0  0  0
  189.3930  175.3850  143.5950 C   0  0  0  0  0  0  0  0  0  0  0  0
  187.5260  176.8430  146.5180 C   0  0  0  0  0  3  0  0  0  0  0  0
  192.6920  176.1590  147.3640 C   0  0  0  0  0  2  0  0  0  0  0  0
  186.8860  176.4700  144.2170 C   0  0  0  0  0  0  0  0  0  0  0  0
  185.6250  177.0090  144.4890 C   0  0  0  0  0  3  0  0  0  0  0  0
  190.6360  174.8390  143.2620 C   0  0  0  0  0  3  0  0  0  0  0  0
  191.4360  175.1220  145.4680 C   0  0  0  0  0  0  0  0  0  0  0  0
  192.5520  174.9380  146.4540 C   0  0  0  0  0  2  0  0  0  0  0  0
  187.8440  172.8600  141.4050 O   0  0  0  0  0  0  0  0  0  0  0  0
  188.3980  173.7470  140.7020 C   0  0  0  0  0  0  0  0  0  0  0  0
  188.6810  175.0380  141.2640 N   0  0  0  0  0  2  0  0  0  0  0  0
  189.3780  173.0880  136.5660 C   0  0  0  0  0  0  0  0  0  0  0  0
  188.2550  174.3330  138.3030 C   0  0  0  0  0  3  0  0  0  0  0  0
  190.3200  171.2480  140.0020 Cl  0  0  0  0  0  0  0  0  0  0  0  0
  189.6780  172.8970  135.2250 O   0  0  0  0  0  1  0  0  0  0  0  0
  188.5550  174.1440  136.9530 C   0  0  0  0  0  3  0  0  0  0  0  0
  189.6050  172.4020  138.8850 C   0  0  0  0  0  0  0  0  0  0  0  0
  188.7680  173.4750  139.2890 C   0  0  0  0  0  0  0  0  0  0  0  0
  189.8990  172.2230  137.5290 C   0  0  0  0  0  3  0  0  0  0  0  0
  1  9  1  0  0  0  0
  2  5  1  0  0  0  0
  2  3  1  0  0  0  0
  3  7  1  0  0  0  0
  4 11  2  0  0  0  0
  5 14  2  0  0  0  0
  6  1  2  0  0  0  0
  7  4  1  0  0  0  0
  8 12  2  0  0  0  0
  8 13  1  0  0  0  0
 10 19  1  0  0  0  0
 12 16  1  0  0  0  0
 13  2  2  0  0  0  0
 14  1  1  0  0  0  0
 15  4  1  0  0  0  0
 16 17  2  0  0  0  0
 16  5  1  0  0  0  0
 17  6  1  0  0  0  0
 18 13  1  0  0  0  0
 18 10  2  0  0  0  0
 19  3  2  0  0  0  0
 19 20  1  0  0  0  0
 20 15  1  0  0  0  0
 22 23  1  0  0  0  0
 22 21  2  0  0  0  0
 23  8  1  0  0  0  0
 24 28  2  0  0  0  0
 24 31  1  0  0  0  0
 25 30  2  0  0  0  0
 27 24  1  0  0  0  0
 28 25  1  0  0  0  0
 29 30  1  0  0  0  0
 29 26  1  0  0  0  0
 30 22  1  0  0  0  0
 31 29  2  0  0  0  0
M  END
>  <MODEL>
5

>  <REMARK>
 VINA RESULT:      -8.4      4.028      6.280
  Name = 
  2 active torsions:
  status: ('A' for Active; 'I' for Inactive)
    1  A    between atoms: C_5  and  C_30
    2  A    between atoms: C_10  and  N_16
                            x       y       z     vdW  Elec       q    Type
                         _______ _______ _______ _____ _____    ______ ____

>  <TORSDO>
F 2

$$$$
=
 OpenBabel11112416593D

 31 35  0  0  0  0  0  0  0  0999 V2000
  185.1900  177.9590  146.8530 C   0  0  0  0  0  0  0  0  0  0  0  0
  186.9880  177.0120  143.6820 C   0  0  0  0  0  0  0  0  0  0  0  0
  186.2380  177.5820  142.6080 C   0  0  0  0  0  0  0  0  0  0  0  0
  183.9860  178.1910  141.7380 C   0  0  0  0  0  0  0  0  0  0  0  0
  186.6400  177.1430  145.0620 C   0  0  0  0  0  0  0  0  0  0  0  0
  186.0060  177.3580  147.8090 C   0  0  0  0  0  3  0  0  0  0  0  0
  185.0090  178.4370  142.8110 C   0  0  0  0  0  2  0  0  0  0  0  0
  188.9500  175.6710  144.3520 C   0  0  0  0  0  0  0  0  0  0  0  0
  184.0630  178.6670  147.2490 O   0  0  0  0  0  1  0  0  0  0  0  0
  187.7920  176.6700  141.0210 N   0  0  0  0  0  0  0  0  0  0  0  0
  182.8000  178.2900  142.0040 O   0  0  0  0  0  0  0  0  0  0  0  0
  188.5870  175.8170  145.6900 C   0  0  0  0  0  3  0  0  0  0  0  0
  188.1560  176.2630  143.3520 C   0  0  0  0  0  0  0  0  0  0  0  0
  185.5050  177.8510  145.4970 C   0  0  0  0  0  3  0  0  0  0  0  0
  184.4060  177.8460  140.3340 C   0  0  0  0  0  2  0  0  0  0  0  0
  187.4560  176.5360  146.0510 C   0  0  0  0  0  0  0  0  0  0  0  0
  187.1370  176.6470  147.4080 C   0  0  0  0  0  3  0  0  0  0  0  0
  188.5270  176.1140  142.0120 C   0  0  0  0  0  3  0  0  0  0  0  0
  186.6720  177.3850  141.2810 C   0  0  0  0  0  0  0  0  0  0  0  0
  185.9150  177.9970  140.1400 C   0  0  0  0  0  2  0  0  0  0  0  0
  189.3620  172.7580  144.4310 O   0  0  0  0  0  0  0  0  0  0  0  0
  190.3000  173.4980  144.0310 C   0  0  0  0  0  0  0  0  0  0  0  0
  190.1230  174.9230  143.9830 N   0  0  0  0  0  2  0  0  0  0  0  0
  193.9820  171.7400  142.6680 C   0  0  0  0  0  0  0  0  0  0  0  0
  191.6110  172.1320  142.4370 C   0  0  0  0  0  3  0  0  0  0  0  0
  192.9570  174.0560  145.7780 Cl  0  0  0  0  0  0  0  0  0  0  0  0
  195.1560  171.1620  142.2070 O   0  0  0  0  0  1  0  0  0  0  0  0
  192.7900  171.5480  141.9720 C   0  0  0  0  0  3  0  0  0  0  0  0
  192.8170  173.1040  144.3060 C   0  0  0  0  0  0  0  0  0  0  0  0
  191.5980  172.9140  143.6040 C   0  0  0  0  0  0  0  0  0  0  0  0
  193.9920  172.5140  143.8290 C   0  0  0  0  0  3  0  0  0  0  0  0
  1  9  1  0  0  0  0
  1  6  1  0  0  0  0
  2  5  1  0  0  0  0
  3  7  1  0  0  0  0
  3  2  1  0  0  0  0
  4 11  2  0  0  0  0
  4  7  1  0  0  0  0
  5 14  1  0  0  0  0
  5 16  2  0  0  0  0
  8 12  2  0  0  0  0
 10 19  1  0  0  0  0
 10 18  2  0  0  0  0
 12 16  1  0  0  0  0
 13  2  2  0  0  0  0
 13  8  1  0  0  0  0
 14  1  2  0  0  0  0
 15  4  1  0  0  0  0
 16 17  1  0  0  0  0
 17  6  2  0  0  0  0
 18 13  1  0  0  0  0
 19  3  2  0  0  0  0
 20 15  1  0  0  0  0
 20 19  1  0  0  0  0
 22 21  2  0  0  0  0
 23 22  1  0  0  0  0
 23  8  1  0  0  0  0
 24 31  1  0  0  0  0
 25 30  2  0  0  0  0
 27 24  1  0  0  0  0
 28 25  1  0  0  0  0
 28 24  2  0  0  0  0
 29 26  1  0  0  0  0
 30 22  1  0  0  0  0
 30 29  1  0  0  0  0
 31 29  2  0  0  0  0
M  END
>  <MODEL>
6

>  <REMARK>
 VINA RESULT:      -8.3      2.505      4.659
  Name = 
  2 active torsions:
  status: ('A' for Active; 'I' for Inactive)
    1  A    between atoms: C_5  and  C_30
    2  A    between atoms: C_10  and  N_16
                            x       y       z     vdW  Elec       q    Type
                         _______ _______ _______ _____ _____    ______ ____

>  <TORSDO>
F 2

$$$$
=
 OpenBabel11112416593D

 31 35  0  0  0  0  0  0  0  0999 V2000
  185.2870  178.0010  146.8680 C   0  0  0  0  0  0  0  0  0  0  0  0
  186.7990  177.2830  143.4940 C   0  0  0  0  0  0  0  0  0  0  0  0
  185.8990  177.8270  142.5260 C   0  0  0  0  0  0  0  0  0  0  0  0
  183.5290  178.2910  141.9190 C   0  0  0  0  0  0  0  0  0  0  0  0
  186.5920  177.3470  144.9060 C   0  0  0  0  0  0  0  0  0  0  0  0
  186.2420  177.4350  147.7110 C   0  0  0  0  0  3  0  0  0  0  0  0
  184.6410  178.5810  142.8880 C   0  0  0  0  0  2  0  0  0  0  0  0
  188.9110  176.0730  143.9040 C   0  0  0  0  0  0  0  0  0  0  0  0
  184.1610  178.6100  147.4050 O   0  0  0  0  0  1  0  0  0  0  0  0
  187.3350  177.0800  140.7520 N   0  0  0  0  0  0  0  0  0  0  0  0
  182.3750  178.2940  142.3110 O   0  0  0  0  0  0  0  0  0  0  0  0
  188.6840  176.1530  145.2770 C   0  0  0  0  0  3  0  0  0  0  0  0
  187.9750  176.6330  143.0160 C   0  0  0  0  0  0  0  0  0  0  0  0
  185.4630  177.9560  145.4840 C   0  0  0  0  0  3  0  0  0  0  0  0
  183.8200  178.0200  140.4680 C   0  0  0  0  0  2  0  0  0  0  0  0
  187.5500  176.7740  145.7820 C   0  0  0  0  0  0  0  0  0  0  0  0
  187.3710  176.8220  147.1670 C   0  0  0  0  0  3  0  0  0  0  0  0
  188.2100  176.5520  141.6400 C   0  0  0  0  0  3  0  0  0  0  0  0
  186.2020  177.7010  141.1550 C   0  0  0  0  0  0  0  0  0  0  0  0
  185.2860  178.2880  140.1220 C   0  0  0  0  0  2  0  0  0  0  0  0
  191.5300  177.2640  143.2840 O   0  0  0  0  0  0  0  0  0  0  0  0
  191.3580  176.0310  143.0930 C   0  0  0  0  0  0  0  0  0  0  0  0
  190.0880  175.4260  143.3880 N   0  0  0  0  0  2  0  0  0  0  0  0
  194.4460  173.5460  141.4230 C   0  0  0  0  0  0  0  0  0  0  0  0
  192.2490  174.5410  141.3290 C   0  0  0  0  0  3  0  0  0  0  0  0
  194.1020  175.7300  144.7680 Cl  0  0  0  0  0  0  0  0  0  0  0  0
  195.4260  172.7380  140.8630 O   0  0  0  0  0  1  0  0  0  0  0  0
  193.2320  173.7280  140.7640 C   0  0  0  0  0  3  0  0  0  0  0  0
  193.6970  174.9920  143.2240 C   0  0  0  0  0  0  0  0  0  0  0  0
  192.4570  175.1840  142.5610 C   0  0  0  0  0  0  0  0  0  0  0  0
  194.6750  174.1750  142.6460 C   0  0  0  0  0  3  0  0  0  0  0  0
  1  9  1  0  0  0  0
  1  6  1  0  0  0  0
  2  5  1  0  0  0  0
  3  7  1  0  0  0  0
  3  2  1  0  0  0  0
  4 11  2  0  0  0  0
  4  7  1  0  0  0  0
  5 14  1  0  0  0  0
  5 16  2  0  0  0  0
  8 12  2  0  0  0  0
 10 19  1  0  0  0  0
 10 18  2  0  0  0  0
 12 16  1  0  0  0  0
 13  2  2  0  0  0  0
 13  8  1  0  0  0  0
 14  1  2  0  0  0  0
 15  4  1  0  0  0  0
 16 17  1  0  0  0  0
 17  6  2  0  0  0  0
 18 13  1  0  0  0  0
 19  3  2  0  0  0  0
 20 15  1  0  0  0  0
 20 19  1  0  0  0  0
 22 21  2  0  0  0  0
 22 23  1  0  0  0  0
 23  8  1  0  0  0  0
 24 31  1  0  0  0  0
 25 30  2  0  0  0  0
 27 24  1  0  0  0  0
 28 25  1  0  0  0  0
 28 24  2  0  0  0  0
 29 26  1  0  0  0  0
 30 22  1  0  0  0  0
 30 29  1  0  0  0  0
 31 29  2  0  0  0  0
M  END
>  <MODEL>
7

>  <REMARK>
 VINA RESULT:      -8.2      1.844      4.268
  Name = 
  2 active torsions:
  status: ('A' for Active; 'I' for Inactive)
    1  A    between atoms: C_5  and  C_30
    2  A    between atoms: C_10  and  N_16
                            x       y       z     vdW  Elec       q    Type
                         _______ _______ _______ _____ _____    ______ ____

>  <TORSDO>
F 2

$$$$
=
 OpenBabel11112416593D

 31 35  0  0  0  0  0  0  0  0999 V2000
  190.3870  177.3990  147.6720 C   0  0  0  0  0  0  0  0  0  0  0  0
  188.2000  176.5640  144.7210 C   0  0  0  0  0  0  0  0  0  0  0  0
  187.0860  177.4560  144.7820 C   0  0  0  0  0  0  0  0  0  0  0  0
  185.4990  178.7070  146.2370 C   0  0  0  0  0  0  0  0  0  0  0  0
  189.2730  176.5550  145.6660 C   0  0  0  0  0  0  0  0  0  0  0  0
  191.4220  176.4810  147.5020 C   0  0  0  0  0  3  0  0  0  0  0  0
  186.9350  178.5330  145.8300 C   0  0  0  0  0  2  0  0  0  0  0  0
  189.3040  174.7110  143.5210 C   0  0  0  0  0  0  0  0  0  0  0  0
  190.4120  178.2810  148.7440 O   0  0  0  0  0  1  0  0  0  0  0  0
  186.1680  176.4640  142.7970 N   0  0  0  0  0  0  0  0  0  0  0  0
  185.2340  179.0400  147.3800 O   0  0  0  0  0  0  0  0  0  0  0  0
  190.3370  174.7270  144.4560 C   0  0  0  0  0  3  0  0  0  0  0  0
  188.2400  175.6220  143.6510 C   0  0  0  0  0  0  0  0  0  0  0  0
  189.3280  177.4330  146.7640 C   0  0  0  0  0  3  0  0  0  0  0  0
  184.3840  178.4970  145.2480 C   0  0  0  0  0  2  0  0  0  0  0  0
  190.3330  175.6260  145.5130 C   0  0  0  0  0  0  0  0  0  0  0  0
  191.3930  175.5950  146.4250 C   0  0  0  0  0  3  0  0  0  0  0  0
  187.2080  175.6020  142.7080 C   0  0  0  0  0  3  0  0  0  0  0  0
  186.0800  177.3720  143.7970 C   0  0  0  0  0  0  0  0  0  0  0  0
  184.9150  178.3160  143.8250 C   0  0  0  0  0  2  0  0  0  0  0  0
  191.2640  174.4660  141.3390 O   0  0  0  0  0  0  0  0  0  0  0  0
  190.2840  173.6750  141.3720 C   0  0  0  0  0  0  0  0  0  0  0  0
  189.3130  173.7750  142.4270 N   0  0  0  0  0  2  0  0  0  0  0  0
  189.9020  170.5660  138.4250 C   0  0  0  0  0  0  0  0  0  0  0  0
  190.8840  171.4640  140.4390 C   0  0  0  0  0  3  0  0  0  0  0  0
  188.1930  174.1540  138.9580 Cl  0  0  0  0  0  0  0  0  0  0  0  0
  189.7990  169.5480  137.4870 O   0  0  0  0  0  1  0  0  0  0  0  0
  190.7820  170.4380  139.4980 C   0  0  0  0  0  3  0  0  0  0  0  0
  189.2210  172.7530  139.2300 C   0  0  0  0  0  0  0  0  0  0  0  0
  190.1130  172.6330  140.3280 C   0  0  0  0  0  0  0  0  0  0  0  0
  189.1270  171.7180  138.2940 C   0  0  0  0  0  3  0  0  0  0  0  0
  1  9  1  0  0  0  0
  2  3  1  0  0  0  0
  2  5  1  0  0  0  0
  3  7  1  0  0  0  0
  4 11  2  0  0  0  0
  5 14  1  0  0  0  0
  6  1  1  0  0  0  0
  7  4  1  0  0  0  0
  8 13  1  0  0  0  0
  8 12  2  0  0  0  0
 10 19  1  0  0  0  0
 12 16  1  0  0  0  0
 13  2  2  0  0  0  0
 14  1  2  0  0  0  0
 15  4  1  0  0  0  0
 16  5  2  0  0  0  0
 16 17  1  0  0  0  0
 17  6  2  0  0  0  0
 18 10  2  0  0  0  0
 18 13  1  0  0  0  0
 19 20  1  0  0  0  0
 19  3  2  0  0  0  0
 20 15  1  0  0  0  0
 21 22  2  0  0  0  0
 22 23  1  0  0  0  0
 23  8  1  0  0  0  0
 24 28  1  0  0  0  0
 26 29  1  0  0  0  0
 27 24  1  0  0  0  0
 28 25  2  0  0  0  0
 29 30  2  0  0  0  0
 30 25  1  0  0  0  0
 30 22  1  0  0  0  0
 31 24  2  0  0  0  0
 31 29  1  0  0  0  0
M  END
>  <MODEL>
8

>  <REMARK>
 VINA RESULT:      -8.0      4.115      6.079
  Name = 
  2 active torsions:
  status: ('A' for Active; 'I' for Inactive)
    1  A    between atoms: C_5  and  C_30
    2  A    between atoms: C_10  and  N_16
                            x       y       z     vdW  Elec       q    Type
                         _______ _______ _______ _____ _____    ______ ____

>  <TORSDO>
F 2

$$$$
=
 OpenBabel11112416593D

 31 35  0  0  0  0  0  0  0  0999 V2000
  191.7680  175.8320  146.4270 C   0  0  0  0  0  0  0  0  0  0  0  0
  189.6770  175.2700  143.3450 C   0  0  0  0  0  0  0  0  0  0  0  0
  190.4680  174.4710  142.4630 C   0  0  0  0  0  0  0  0  0  0  0  0
  192.7490  173.9430  141.6170 C   0  0  0  0  0  0  0  0  0  0  0  0
  190.1080  175.7060  144.6360 C   0  0  0  0  0  0  0  0  0  0  0  0
  190.9010  176.6060  147.1970 C   0  0  0  0  0  3  0  0  0  0  0  0
  191.8410  173.9500  142.8150 C   0  0  0  0  0  2  0  0  0  0  0  0
  187.5360  176.4430  143.7150 C   0  0  0  0  0  0  0  0  0  0  0  0
  193.0230  175.5010  146.9180 O   0  0  0  0  0  1  0  0  0  0  0  0
  188.6980  174.4920  140.8390 N   0  0  0  0  0  0  0  0  0  0  0  0
  193.9440  174.1320  141.7680 O   0  0  0  0  0  0  0  0  0  0  0  0
  187.9830  176.8520  144.9710 C   0  0  0  0  0  3  0  0  0  0  0  0
  188.3760  175.6580  142.9050 C   0  0  0  0  0  0  0  0  0  0  0  0
  191.3730  175.3900  145.1630 C   0  0  0  0  0  3  0  0  0  0  0  0
  192.2070  173.6840  140.2380 C   0  0  0  0  0  2  0  0  0  0  0  0
  189.2430  176.4980  145.4340 C   0  0  0  0  0  0  0  0  0  0  0  0
  189.6410  176.9390  146.6990 C   0  0  0  0  0  3  0  0  0  0  0  0
  187.9220  175.2500  141.6470 C   0  0  0  0  0  3  0  0  0  0  0  0
  189.9420  174.1030  141.2080 C   0  0  0  0  0  0  0  0  0  0  0  0
  190.7430  173.2420  140.2760 C   0  0  0  0  0  2  0  0  0  0  0  0
  186.7560  178.8390  142.1950 O   0  0  0  0  0  0  0  0  0  0  0  0
  185.8730  177.9920  142.4980 C   0  0  0  0  0  0  0  0  0  0  0  0
  186.2300  176.8150  143.2400 N   0  0  0  0  0  2  0  0  0  0  0  0
  181.8130  178.5360  141.1870 C   0  0  0  0  0  0  0  0  0  0  0  0
  184.1150  177.9510  140.7570 C   0  0  0  0  0  3  0  0  0  0  0  0
  183.7120  178.9630  144.6920 Cl  0  0  0  0  0  0  0  0  0  0  0  0
  180.5110  178.7040  140.7380 O   0  0  0  0  0  1  0  0  0  0  0  0
  182.8060  178.1190  140.3030 C   0  0  0  0  0  3  0  0  0  0  0  0
  183.4370  178.6190  142.9900 C   0  0  0  0  0  0  0  0  0  0  0  0
  184.4570  178.1950  142.0980 C   0  0  0  0  0  0  0  0  0  0  0  0
  182.1290  178.7840  142.5220 C   0  0  0  0  0  3  0  0  0  0  0  0
  1  9  1  0  0  0  0
  1  6  1  0  0  0  0
  2  5  1  0  0  0  0
  3  7  1  0  0  0  0
  3  2  1  0  0  0  0
  4 11  2  0  0  0  0
  4  7  1  0  0  0  0
  5 14  1  0  0  0  0
  5 16  2  0  0  0  0
  8 12  2  0  0  0  0
 10 19  1  0  0  0  0
 10 18  2  0  0  0  0
 12 16  1  0  0  0  0
 13  2  2  0  0  0  0
 13  8  1  0  0  0  0
 14  1  2  0  0  0  0
 15 20  1  0  0  0  0
 15  4  1  0  0  0  0
 16 17  1  0  0  0  0
 17  6  2  0  0  0  0
 18 13  1  0  0  0  0
 19  3  2  0  0  0  0
 20 19  1  0  0  0  0
 21 22  2  0  0  0  0
 22 23  1  0  0  0  0
 23  8  1  0  0  0  0
 24 31  1  0  0  0  0
 25 30  2  0  0  0  0
 27 24  1  0  0  0  0
 28 25  1  0  0  0  0
 28 24  2  0  0  0  0
 29 26  1  0  0  0  0
 30 22  1  0  0  0  0
 30 29  1  0  0  0  0
 31 29  2  0  0  0  0
M  END
>  <MODEL>
9

>  <REMARK>
 VINA RESULT:      -7.8      3.353      8.958
  Name = 
  2 active torsions:
  status: ('A' for Active; 'I' for Inactive)
    1  A    between atoms: C_5  and  C_30
    2  A    between atoms: C_10  and  N_16
                            x       y       z     vdW  Elec       q    Type
                         _______ _______ _______ _____ _____    ______ ____

>  <TORSDO>
F 2

$$$$
