=
 OpenBabel11112416403D

 32 37  0  0  1  0  0  0  0  0999 V2000
  189.3450  175.8240  143.0080 C   0  0  1  0  0  3  0  0  0  0  0  0
  191.5710  176.5770  146.5680 C   0  0  0  0  0  2  0  0  0  0  0  0
  190.2390  177.0430  147.1430 C   0  0  0  0  0  2  0  0  0  0  0  0
  187.5560  177.6680  143.0930 C   0  0  0  0  0  0  0  0  0  0  0  0
  186.6340  178.3840  143.8430 C   0  0  0  0  0  0  0  0  0  0  0  0
  189.0570  173.9050  141.2970 C   0  0  2  0  0  3  0  0  0  0  0  0
  190.8960  174.0100  143.0880 C   0  0  0  0  0  2  0  0  0  0  0  0
  185.4690  179.1220  145.6790 C   0  0  1  0  0  3  0  0  0  0  0  0
  191.3360  176.0810  145.1510 C   0  0  0  0  0  2  0  0  0  0  0  0
  189.7860  174.6520  143.7890 N   0  0  1  0  0  0  0  0  0  0  0  0
  190.2140  175.0270  145.1420 C   0  0  2  0  0  3  0  0  0  0  0  0
  188.1460  176.5050  145.1640 C   0  0  0  0  0  0  0  0  0  0  0  0
  185.1420  179.8610  144.4510 N   0  0  0  0  0  0  0  0  0  0  0  0
  190.4180  173.3680  141.7790 C   0  0  2  0  0  3  0  0  0  0  0  0
  185.7960  179.4470  143.4350 N   0  0  0  0  0  0  0  0  0  0  0  0
  189.3330  175.9630  147.2350 O   0  0  0  0  0  0  0  0  0  0  0  0
  188.9890  175.5160  145.9340 C   0  0  2  0  0  3  0  0  0  0  0  0
  187.2190  177.2500  145.8410 N   0  0  0  0  0  0  0  0  0  0  0  0
  188.8620  175.3950  141.6050 C   0  0  0  0  0  2  0  0  0  0  0  0
  187.7410  177.9690  141.7480 O   0  0  0  0  0  1  0  0  0  0  0  0
  184.2380  178.3850  146.1730 C   0  0  0  0  0  1  0  0  0  0  0  0
  188.3000  176.6500  143.7480 C   0  0  0  0  0  0  0  0  0  0  0  0
  186.4690  178.1530  145.1670 C   0  0  0  0  0  0  0  0  0  0  0  0
  192.0880  172.2240  140.3340 C   0  0  0  0  0  2  0  0  0  0  0  0
  191.4710  173.5610  140.7010 C   0  0  1  0  0  3  0  0  0  0  0  0
  191.0330  172.8400  139.4400 C   0  0  1  0  0  3  0  0  0  0  0  0
  191.6990  173.4920  138.2450 C   0  0  0  0  0  2  0  0  0  0  0  0
  190.6630  174.0210  137.3150 C   0  0  0  0  0  0  0  0  0  0  0  0
  189.2830  173.8580  137.6190 N   0  0  0  0  0  1  0  0  0  0  0  0
  191.0080  174.5840  136.2430 O   0  0  0  0  0  0  0  0  0  0  0  0
  188.4200  171.9740  142.5530 O   0  0  0  0  0  1  0  0  0  0  0  0
  187.9150  173.0940  141.8900 C   0  0  0  0  0  2  0  0  0  0  0  0
  1 19  1  6  0  0  0
  1 22  1  0  0  0  0
  1 10  1  0  0  0  0
  2  3  1  0  0  0  0
  3 16  1  0  0  0  0
  4 22  2  0  0  0  0
  4  5  1  0  0  0  0
  5 23  2  0  0  0  0
  6 19  1  0  0  0  0
  6 14  1  0  0  0  0
  6 32  1  1  0  0  0
  8 21  1  6  0  0  0
  9  2  1  0  0  0  0
 10  7  1  6  0  0  0
 10 11  1  0  0  0  0
 11  9  1  6  0  0  0
 11 17  1  0  0  0  0
 12 18  2  0  0  0  0
 13  8  1  0  0  0  0
 14  7  1  1  0  0  0
 15  5  1  0  0  0  0
 15 13  2  0  0  0  0
 17 12  1  6  0  0  0
 17 16  1  0  0  0  0
 20  4  1  0  0  0  0
 22 12  1  0  0  0  0
 23  8  1  0  0  0  0
 23 18  1  0  0  0  0
 25 24  1  1  0  0  0
 25 14  1  0  0  0  0
 26 27  1  6  0  0  0
 26 24  1  0  0  0  0
 26 25  1  0  0  0  0
 28 29  1  0  0  0  0
 28 27  1  0  0  0  0
 30 28  2  0  0  0  0
 32 31  1  0  0  0  0
M  END
>  <MODEL>
1

>  <REMARK>
 VINA RESULT:      -7.6      0.000      0.000
  Name = 
  4 active torsions:
  status: ('A' for Active; 'I' for Inactive)
    1  A    between atoms: C_7  and  C_19
    2  A    between atoms: C_10  and  C_17
    3  A    between atoms: C_20  and  C_29
    4  A    between atoms: C_29  and  C_30
                            x       y       z     vdW  Elec       q    Type
                         _______ _______ _______ _____ _____    ______ ____

>  <TORSDO>
F 4

$$$$
=
 OpenBabel11112416403D

 32 37  0  0  1  0  0  0  0  0999 V2000
  190.6160  175.1420  144.7400 C   0  0  1  0  0  3  0  0  0  0  0  0
  194.1180  176.7250  146.5910 C   0  0  0  0  0  2  0  0  0  0  0  0
  194.8710  175.7460  145.6980 C   0  0  0  0  0  2  0  0  0  0  0  0
  191.2960  172.7030  144.3020 C   0  0  0  0  0  0  0  0  0  0  0  0
  192.2610  171.8060  143.8660 C   0  0  0  0  0  0  0  0  0  0  0  0
  188.4680  176.0450  143.6160 C   0  0  2  0  0  3  0  0  0  0  0  0
  190.1170  177.4650  144.9820 C   0  0  0  0  0  2  0  0  0  0  0  0
  194.2900  171.0290  143.1220 C   0  0  1  0  0  3  0  0  0  0  0  0
  192.6360  176.6200  146.2770 C   0  0  0  0  0  2  0  0  0  0  0  0
  191.0260  176.5080  144.3550 N   0  0  1  0  0  0  0  0  0  0  0  0
  192.4040  176.8000  144.7670 C   0  0  2  0  0  3  0  0  0  0  0  0
  192.9390  174.4710  143.9010 C   0  0  0  0  0  0  0  0  0  0  0  0
  193.3280  169.9540  143.4070 N   0  0  0  0  0  0  0  0  0  0  0  0
  188.7110  177.3630  144.3750 C   0  0  2  0  0  3  0  0  0  0  0  0
  192.2030  170.3940  143.8230 N   0  0  0  0  0  0  0  0  0  0  0  0
  194.7180  176.0950  144.3380 O   0  0  0  0  0  0  0  0  0  0  0  0
  193.3650  175.9200  143.9490 C   0  0  2  0  0  3  0  0  0  0  0  0
  193.8420  173.5320  143.4850 N   0  0  0  0  0  0  0  0  0  0  0  0
  189.1780  174.8480  144.2590 C   0  0  0  0  0  2  0  0  0  0  0  0
  190.0740  172.2330  144.7720 O   0  0  0  0  0  1  0  0  0  0  0  0
  194.6330  171.0270  141.6440 C   0  0  0  0  0  1  0  0  0  0  0  0
  191.6090  174.0880  144.2660 C   0  0  0  0  0  0  0  0  0  0  0  0
  193.4800  172.2280  143.4540 C   0  0  0  0  0  0  0  0  0  0  0  0
  186.7260  178.6720  145.1020 C   0  0  0  0  0  2  0  0  0  0  0  0
  187.6690  177.5410  145.4660 C   0  0  1  0  0  3  0  0  0  0  0  0
  186.2960  177.2350  144.9000 C   0  0  1  0  0  3  0  0  0  0  0  0
  185.3800  176.8150  146.0330 C   0  0  0  0  0  2  0  0  0  0  0  0
  184.6340  177.9980  146.5450 C   0  0  0  0  0  0  0  0  0  0  0  0
  183.7290  178.6920  145.6960 N   0  0  0  0  0  1  0  0  0  0  0  0
  184.8290  178.4040  147.7200 O   0  0  0  0  0  0  0  0  0  0  0  0
  188.5670  177.4520  141.6860 O   0  0  0  0  0  1  0  0  0  0  0  0
  188.8820  176.1770  142.1580 C   0  0  0  0  0  2  0  0  0  0  0  0
  1 19  1  6  0  0  0
  3  2  1  0  0  0  0
  4 20  1  0  0  0  0
  5  4  2  0  0  0  0
  6 32  1  6  0  0  0
  6 19  1  0  0  0  0
  6 14  1  0  0  0  0
  8 21  1  6  0  0  0
  8 13  1  0  0  0  0
  8 23  1  0  0  0  0
  9  2  1  0  0  0  0
 10  1  1  0  0  0  0
 10 11  1  0  0  0  0
 10  7  1  1  0  0  0
 11  9  1  1  0  0  0
 12 22  2  0  0  0  0
 13 15  2  0  0  0  0
 14  7  1  1  0  0  0
 14 25  1  0  0  0  0
 15  5  1  0  0  0  0
 16  3  1  0  0  0  0
 17 12  1  1  0  0  0
 17 16  1  0  0  0  0
 17 11  1  0  0  0  0
 18 12  1  0  0  0  0
 22  4  1  0  0  0  0
 22  1  1  0  0  0  0
 23 18  2  0  0  0  0
 23  5  1  0  0  0  0
 25 24  1  6  0  0  0
 26 24  1  0  0  0  0
 26 25  1  0  0  0  0
 26 27  1  1  0  0  0
 27 28  1  0  0  0  0
 28 30  2  0  0  0  0
 29 28  1  0  0  0  0
 31 32  1  0  0  0  0
M  END
>  <MODEL>
2

>  <REMARK>
 VINA RESULT:      -7.5      3.125      7.840
  Name = 
  4 active torsions:
  status: ('A' for Active; 'I' for Inactive)
    1  A    between atoms: C_7  and  C_19
    2  A    between atoms: C_10  and  C_17
    3  A    between atoms: C_20  and  C_29
    4  A    between atoms: C_29  and  C_30
                            x       y       z     vdW  Elec       q    Type
                         _______ _______ _______ _____ _____    ______ ____

>  <TORSDO>
F 4

$$$$
=
 OpenBabel11112416403D

 32 37  0  0  1  0  0  0  0  0999 V2000
  190.3490  175.2180  144.6500 C   0  0  1  0  0  3  0  0  0  0  0  0
  188.1880  175.2700  140.9730 C   0  0  0  0  0  2  0  0  0  0  0  0
  187.3240  176.3280  141.6490 C   0  0  0  0  0  2  0  0  0  0  0  0
  188.5040  175.7250  146.3640 C   0  0  0  0  0  0  0  0  0  0  0  0
  187.3920  176.4780  146.7150 C   0  0  0  0  0  0  0  0  0  0  0  0
  192.8160  175.3220  145.4240 C   0  0  2  0  0  3  0  0  0  0  0  0
  192.0540  174.9580  142.9980 C   0  0  0  0  0  2  0  0  0  0  0  0
  185.6770  177.9930  146.5210 C   0  0  1  0  0  3  0  0  0  0  0  0
  189.3000  174.8740  141.9280 C   0  0  0  0  0  2  0  0  0  0  0  0
  191.0060  175.8500  143.4880 N   0  0  1  0  0  0  0  0  0  0  0  0
  190.0540  176.1270  142.4060 C   0  0  2  0  0  3  0  0  0  0  0  0
  188.5150  176.9580  144.2510 C   0  0  0  0  0  0  0  0  0  0  0  0
  185.6300  177.2230  147.7730 N   0  0  0  0  0  0  0  0  0  0  0  0
  193.2040  174.8570  144.0080 C   0  0  2  0  0  3  0  0  0  0  0  0
  186.5850  176.3810  147.8720 N   0  0  0  0  0  0  0  0  0  0  0  0
  188.0770  177.4950  141.9040 O   0  0  0  0  0  0  0  0  0  0  0  0
  189.0750  177.2190  142.8730 C   0  0  2  0  0  3  0  0  0  0  0  0
  187.4160  177.6620  144.6610 N   0  0  0  0  0  0  0  0  0  0  0  0
  191.3660  174.9760  145.7870 C   0  0  0  0  0  2  0  0  0  0  0  0
  188.9560  174.7210  147.2130 O   0  0  0  0  0  1  0  0  0  0  0  0
  185.8910  179.4620  146.8340 C   0  0  0  0  0  1  0  0  0  0  0  0
  189.1330  176.0050  145.1230 C   0  0  0  0  0  0  0  0  0  0  0  0
  186.8930  177.4260  145.8870 C   0  0  0  0  0  0  0  0  0  0  0  0
  195.1580  173.3900  143.5440 C   0  0  0  0  0  2  0  0  0  0  0  0
  193.7270  173.4310  144.0480 C   0  0  1  0  0  3  0  0  0  0  0  0
  194.8790  173.3480  145.0310 C   0  0  1  0  0  3  0  0  0  0  0  0
  194.9970  171.9220  145.5300 C   0  0  0  0  0  2  0  0  0  0  0  0
  196.3890  171.6600  145.9910 C   0  0  0  0  0  0  0  0  0  0  0  0
  196.8610  170.3230  146.1070 N   0  0  0  0  0  1  0  0  0  0  0  0
  197.1380  172.6200  146.3080 O   0  0  0  0  0  0  0  0  0  0  0  0
  194.3970  177.1120  145.3540 O   0  0  0  0  0  1  0  0  0  0  0  0
  193.0540  176.8150  145.5880 C   0  0  0  0  0  2  0  0  0  0  0  0
  1 22  1  0  0  0  0
  1 19  1  1  0  0  0
  2  3  1  0  0  0  0
  2  9  1  0  0  0  0
  3 16  1  0  0  0  0
  4  5  1  0  0  0  0
  4 20  1  0  0  0  0
  5 15  1  0  0  0  0
  6 32  1  6  0  0  0
  6 19  1  0  0  0  0
  8 21  1  1  0  0  0
  8 13  1  0  0  0  0
 10  7  1  6  0  0  0
 10  1  1  0  0  0  0
 11  9  1  1  0  0  0
 11 17  1  0  0  0  0
 11 10  1  0  0  0  0
 12 18  2  0  0  0  0
 12 22  1  0  0  0  0
 13 15  2  0  0  0  0
 14  7  1  6  0  0  0
 14 25  1  0  0  0  0
 14  6  1  0  0  0  0
 17 16  1  6  0  0  0
 17 12  1  0  0  0  0
 18 23  1  0  0  0  0
 22  4  2  0  0  0  0
 23  8  1  0  0  0  0
 23  5  2  0  0  0  0
 24 26  1  0  0  0  0
 25 24  1  6  0  0  0
 25 26  1  0  0  0  0
 26 27  1  6  0  0  0
 27 28  1  0  0  0  0
 28 29  1  0  0  0  0
 28 30  2  0  0  0  0
 31 32  1  0  0  0  0
M  END
>  <MODEL>
3

>  <REMARK>
 VINA RESULT:      -7.3      3.301      5.695
  Name = 
  4 active torsions:
  status: ('A' for Active; 'I' for Inactive)
    1  A    between atoms: C_7  and  C_19
    2  A    between atoms: C_10  and  C_17
    3  A    between atoms: C_20  and  C_29
    4  A    between atoms: C_29  and  C_30
                            x       y       z     vdW  Elec       q    Type
                         _______ _______ _______ _____ _____    ______ ____

>  <TORSDO>
F 4

$$$$
=
 OpenBabel11112416403D

 32 37  0  0  1  0  0  0  0  0999 V2000
  190.1390  175.2870  143.7540 C   0  0  1  0  0  3  0  0  0  0  0  0
  193.9200  176.7930  145.0300 C   0  0  0  0  0  2  0  0  0  0  0  0
  194.5030  175.7970  144.0340 C   0  0  0  0  0  2  0  0  0  0  0  0
  190.6890  172.8330  143.2250 C   0  0  0  0  0  0  0  0  0  0  0  0
  191.5550  171.9150  142.6470 C   0  0  0  0  0  0  0  0  0  0  0  0
  187.8610  176.2370  142.9750 C   0  0  2  0  0  3  0  0  0  0  0  0
  189.7330  177.6200  144.0620 C   0  0  0  0  0  2  0  0  0  0  0  0
  193.4250  171.0930  141.5990 C   0  0  1  0  0  3  0  0  0  0  0  0
  192.4050  176.7200  144.9520 C   0  0  0  0  0  2  0  0  0  0  0  0
  190.5130  176.6430  143.3050 N   0  0  1  0  0  0  0  0  0  0  0  0
  191.9440  176.9050  143.4950 C   0  0  2  0  0  3  0  0  0  0  0  0
  192.2870  174.5640  142.5660 C   0  0  0  0  0  0  0  0  0  0  0  0
  192.4960  170.0400  142.0350 N   0  0  0  0  0  0  0  0  0  0  0  0
  188.2480  177.5490  143.6820 C   0  0  2  0  0  3  0  0  0  0  0  0
  191.4600  170.5050  142.6200 N   0  0  0  0  0  0  0  0  0  0  0  0
  194.1470  176.1490  142.7140 O   0  0  0  0  0  0  0  0  0  0  0  0
  192.7460  176.0030  142.5410 C   0  0  2  0  0  3  0  0  0  0  0  0
  193.0940  173.6050  142.0180 N   0  0  0  0  0  0  0  0  0  0  0  0
  188.6370  175.0240  143.5050 C   0  0  0  0  0  2  0  0  0  0  0  0
  189.5450  172.3900  143.8820 O   0  0  0  0  0  1  0  0  0  0  0  0
  193.5330  171.0830  140.0860 C   0  0  0  0  0  1  0  0  0  0  0  0
  191.0220  174.2100  143.1350 C   0  0  0  0  0  0  0  0  0  0  0  0
  192.7030  172.3090  142.0490 C   0  0  0  0  0  0  0  0  0  0  0  0
  186.3100  178.7740  144.6420 C   0  0  0  0  0  2  0  0  0  0  0  0
  187.3930  177.7500  144.9210 C   0  0  1  0  0  3  0  0  0  0  0  0
  185.9750  177.2990  144.6290 C   0  0  1  0  0  3  0  0  0  0  0  0
  185.3020  176.9190  145.9330 C   0  0  0  0  0  2  0  0  0  0  0  0
  184.7280  178.1320  146.5780 C   0  0  0  0  0  0  0  0  0  0  0  0
  185.3300  178.6670  147.7510 N   0  0  0  0  0  1  0  0  0  0  0  0
  183.6910  178.6660  146.1060 O   0  0  0  0  0  0  0  0  0  0  0  0
  188.1910  175.0910  140.9040 O   0  0  0  0  0  1  0  0  0  0  0  0
  188.0460  176.3580  141.4700 C   0  0  0  0  0  2  0  0  0  0  0  0
  1 19  1  6  0  0  0
  3  2  1  0  0  0  0
  4 20  1  0  0  0  0
  5  4  2  0  0  0  0
  6 32  1  6  0  0  0
  6 19  1  0  0  0  0
  6 14  1  0  0  0  0
  8 21  1  6  0  0  0
  8 13  1  0  0  0  0
  8 23  1  0  0  0  0
  9  2  1  0  0  0  0
 10 11  1  0  0  0  0
 10  1  1  0  0  0  0
 10  7  1  1  0  0  0
 11  9  1  1  0  0  0
 12 22  2  0  0  0  0
 13 15  2  0  0  0  0
 14  7  1  1  0  0  0
 14 25  1  0  0  0  0
 15  5  1  0  0  0  0
 16  3  1  0  0  0  0
 17 12  1  1  0  0  0
 17 16  1  0  0  0  0
 17 11  1  0  0  0  0
 18 23  2  0  0  0  0
 18 12  1  0  0  0  0
 22  4  1  0  0  0  0
 22  1  1  0  0  0  0
 23  5  1  0  0  0  0
 25 24  1  6  0  0  0
 26 24  1  0  0  0  0
 26 25  1  0  0  0  0
 26 27  1  1  0  0  0
 27 28  1  0  0  0  0
 28 29  1  0  0  0  0
 30 28  2  0  0  0  0
 31 32  1  0  0  0  0
M  END
>  <MODEL>
4

>  <REMARK>
 VINA RESULT:      -7.0      2.796      7.698
  Name = 
  4 active torsions:
  status: ('A' for Active; 'I' for Inactive)
    1  A    between atoms: C_7  and  C_19
    2  A    between atoms: C_10  and  C_17
    3  A    between atoms: C_20  and  C_29
    4  A    between atoms: C_29  and  C_30
                            x       y       z     vdW  Elec       q    Type
                         _______ _______ _______ _____ _____    ______ ____

>  <TORSDO>
F 4

$$$$
=
 OpenBabel11112416403D

 32 37  0  0  1  0  0  0  0  0999 V2000
  189.6520  174.6120  142.9930 C   0  0  1  0  0  3  0  0  0  0  0  0
  192.7100  172.0750  144.5430 C   0  0  0  0  0  2  0  0  0  0  0  0
  193.1990  172.0060  143.1020 C   0  0  0  0  0  2  0  0  0  0  0  0
  189.2980  173.6490  140.6370 C   0  0  0  0  0  0  0  0  0  0  0  0
  189.8580  173.1530  139.4680 C   0  0  0  0  0  0  0  0  0  0  0  0
  188.5910  176.9030  143.5610 C   0  0  2  0  0  3  0  0  0  0  0  0
  190.1690  175.5930  145.1080 C   0  0  0  0  0  2  0  0  0  0  0  0
  191.4620  172.4170  137.9990 C   0  0  1  0  0  3  0  0  0  0  0  0
  191.5140  173.0100  144.6020 C   0  0  0  0  0  2  0  0  0  0  0  0
  190.7150  175.2490  143.7970 N   0  0  1  0  0  0  0  0  0  0  0  0
  191.8740  174.3640  143.9670 C   0  0  2  0  0  3  0  0  0  0  0  0
  191.5810  173.8460  141.4950 C   0  0  0  0  0  0  0  0  0  0  0  0
  190.0930  172.2470  137.4920 N   0  0  0  0  0  0  0  0  0  0  0  0
  189.1310  176.7170  144.9910 C   0  0  2  0  0  3  0  0  0  0  0  0
  189.2060  172.6560  138.3160 N   0  0  0  0  0  0  0  0  0  0  0  0
  193.6510  173.2720  142.6690 O   0  0  0  0  0  0  0  0  0  0  0  0
  192.5570  174.1730  142.6010 C   0  0  2  0  0  3  0  0  0  0  0  0
  192.0630  173.3490  140.3160 N   0  0  0  0  0  0  0  0  0  0  0  0
  188.4630  175.5790  142.7960 C   0  0  0  0  0  2  0  0  0  0  0  0
  187.9150  173.7030  140.7760 O   0  0  0  0  0  1  0  0  0  0  0  0
  192.2170  173.3900  137.1120 C   0  0  0  0  0  1  0  0  0  0  0  0
  190.1780  174.0700  141.6690 C   0  0  0  0  0  0  0  0  0  0  0  0
  191.1990  173.0360  139.3220 C   0  0  0  0  0  0  0  0  0  0  0  0
  187.8890  177.5940  146.9590 C   0  0  0  0  0  2  0  0  0  0  0  0
  187.9870  176.4600  145.9570 C   0  0  1  0  0  3  0  0  0  0  0  0
  186.9360  177.5390  145.7850 C   0  0  1  0  0  3  0  0  0  0  0  0
  185.5960  176.9980  146.2440 C   0  0  0  0  0  2  0  0  0  0  0  0
  184.6490  178.1230  146.4770 C   0  0  0  0  0  0  0  0  0  0  0  0
  184.0040  178.7510  145.3740 N   0  0  0  0  0  1  0  0  0  0  0  0
  184.4420  178.5410  147.6450 O   0  0  0  0  0  0  0  0  0  0  0  0
  188.7860  178.2910  141.6260 O   0  0  0  0  0  1  0  0  0  0  0  0
  189.4570  177.8780  142.7780 C   0  0  0  0  0  2  0  0  0  0  0  0
  1 19  1  6  0  0  0
  1 10  1  0  0  0  0
  2  9  1  0  0  0  0
  3  2  1  0  0  0  0
  4 20  1  0  0  0  0
  4 22  1  0  0  0  0
  5  4  2  0  0  0  0
  6 32  1  6  0  0  0
  6 14  1  0  0  0  0
  8 21  1  6  0  0  0
  8 23  1  0  0  0  0
 10 11  1  0  0  0  0
 10  7  1  1  0  0  0
 11  9  1  6  0  0  0
 12 22  2  0  0  0  0
 13  8  1  0  0  0  0
 13 15  2  0  0  0  0
 14  7  1  6  0  0  0
 14 25  1  0  0  0  0
 15  5  1  0  0  0  0
 16  3  1  0  0  0  0
 17 12  1  6  0  0  0
 17 16  1  0  0  0  0
 17 11  1  0  0  0  0
 18 12  1  0  0  0  0
 19  6  1  0  0  0  0
 22  1  1  0  0  0  0
 23  5  1  0  0  0  0
 23 18  2  0  0  0  0
 25 24  1  1  0  0  0
 26 25  1  0  0  0  0
 26 27  1  1  0  0  0
 26 24  1  0  0  0  0
 27 28  1  0  0  0  0
 28 30  2  0  0  0  0
 29 28  1  0  0  0  0
 31 32  1  0  0  0  0
M  END
>  <MODEL>
5

>  <REMARK>
 VINA RESULT:      -7.0      2.112      7.651
  Name = 
  4 active torsions:
  status: ('A' for Active; 'I' for Inactive)
    1  A    between atoms: C_7  and  C_19
    2  A    between atoms: C_10  and  C_17
    3  A    between atoms: C_20  and  C_29
    4  A    between atoms: C_29  and  C_30
                            x       y       z     vdW  Elec       q    Type
                         _______ _______ _______ _____ _____    ______ ____

>  <TORSDO>
F 4

$$$$
=
 OpenBabel11112416403D

 32 37  0  0  1  0  0  0  0  0999 V2000
  188.9610  175.6180  144.2740 C   0  0  1  0  0  3  0  0  0  0  0  0
  191.0120  175.5890  148.0140 C   0  0  0  0  0  2  0  0  0  0  0  0
  192.1400  174.9190  147.2390 C   0  0  0  0  0  2  0  0  0  0  0  0
  189.8420  173.4750  143.1620 C   0  0  0  0  0  0  0  0  0  0  0  0
  190.9220  172.6540  142.8720 C   0  0  0  0  0  0  0  0  0  0  0  0
  187.6410  177.3070  142.8250 C   0  0  2  0  0  3  0  0  0  0  0  0
  188.3380  177.6990  145.2660 C   0  0  0  0  0  2  0  0  0  0  0  0
  193.0720  171.8480  142.8890 C   0  0  1  0  0  3  0  0  0  0  0  0
  189.8910  175.9190  147.0430 C   0  0  0  0  0  2  0  0  0  0  0  0
  189.4670  176.9110  144.7770 N   0  0  1  0  0  0  0  0  0  0  0  0
  190.4430  176.7310  145.8580 C   0  0  2  0  0  3  0  0  0  0  0  0
  191.4100  174.8860  144.4010 C   0  0  0  0  0  0  0  0  0  0  0  0
  192.1300  170.9670  142.1840 N   0  0  0  0  0  0  0  0  0  0  0  0
  187.4300  178.1330  144.1080 C   0  0  2  0  0  3  0  0  0  0  0  0
  190.9360  171.4200  142.1820 N   0  0  0  0  0  0  0  0  0  0  0  0
  192.6790  175.8070  146.2810 O   0  0  0  0  0  0  0  0  0  0  0  0
  191.7100  176.0770  145.2810 C   0  0  2  0  0  3  0  0  0  0  0  0
  192.4280  174.0310  144.0790 N   0  0  0  0  0  0  0  0  0  0  0  0
  187.9680  175.8360  143.1110 C   0  0  0  0  0  2  0  0  0  0  0  0
  188.5640  173.1120  142.7500 O   0  0  0  0  0  1  0  0  0  0  0  0
  194.1110  172.3680  141.9130 C   0  0  0  0  0  1  0  0  0  0  0  0
  190.0890  174.6650  143.8970 C   0  0  0  0  0  0  0  0  0  0  0  0
  192.1700  172.9500  143.3060 C   0  0  0  0  0  0  0  0  0  0  0  0
  185.5770  179.3650  145.2160 C   0  0  0  0  0  2  0  0  0  0  0  0
  185.9770  178.0650  144.5430 C   0  0  1  0  0  3  0  0  0  0  0  0
  185.1770  179.1030  143.7800 C   0  0  1  0  0  3  0  0  0  0  0  0
  183.7270  178.6660  143.7280 C   0  0  0  0  0  2  0  0  0  0  0  0
  183.3320  178.3900  142.3190 C   0  0  0  0  0  0  0  0  0  0  0  0
  184.3280  178.2790  141.3090 N   0  0  0  0  0  1  0  0  0  0  0  0
  182.1150  178.2860  142.0150 O   0  0  0  0  0  0  0  0  0  0  0  0
  188.1690  178.4190  140.7760 O   0  0  0  0  0  1  0  0  0  0  0  0
  188.7260  177.9240  141.9560 C   0  0  0  0  0  2  0  0  0  0  0  0
  1 19  1  6  0  0  0
  1 10  1  0  0  0  0
  3  2  1  0  0  0  0
  4 22  1  0  0  0  0
  5  4  2  0  0  0  0
  5 23  1  0  0  0  0
  6 32  1  1  0  0  0
  6 19  1  0  0  0  0
  6 14  1  0  0  0  0
  8 21  1  6  0  0  0
  8 23  1  0  0  0  0
  9  2  1  0  0  0  0
 10  7  1  1  0  0  0
 10 11  1  0  0  0  0
 11  9  1  1  0  0  0
 13  8  1  0  0  0  0
 14 25  1  0  0  0  0
 14  7  1  1  0  0  0
 15 13  2  0  0  0  0
 15  5  1  0  0  0  0
 16  3  1  0  0  0  0
 17 12  1  1  0  0  0
 17 11  1  0  0  0  0
 17 16  1  0  0  0  0
 18 12  1  0  0  0  0
 20  4  1  0  0  0  0
 22  1  1  0  0  0  0
 22 12  2  0  0  0  0
 23 18  2  0  0  0  0
 25 24  1  1  0  0  0
 26 27  1  1  0  0  0
 26 25  1  0  0  0  0
 26 24  1  0  0  0  0
 28 27  1  0  0  0  0
 29 28  1  0  0  0  0
 30 28  2  0  0  0  0
 31 32  1  0  0  0  0
M  END
>  <MODEL>
6

>  <REMARK>
 VINA RESULT:      -7.0      2.695      7.063
  Name = 
  4 active torsions:
  status: ('A' for Active; 'I' for Inactive)
    1  A    between atoms: C_7  and  C_19
    2  A    between atoms: C_10  and  C_17
    3  A    between atoms: C_20  and  C_29
    4  A    between atoms: C_29  and  C_30
                            x       y       z     vdW  Elec       q    Type
                         _______ _______ _______ _____ _____    ______ ____

>  <TORSDO>
F 4

$$$$
=
 OpenBabel11112416403D

 32 37  0  0  1  0  0  0  0  0999 V2000
  191.3250  175.1650  144.1290 C   0  0  1  0  0  3  0  0  0  0  0  0
  191.0970  171.1230  142.7840 C   0  0  0  0  0  2  0  0  0  0  0  0
  192.6020  171.2470  142.5770 C   0  0  0  0  0  2  0  0  0  0  0  0
  193.2360  176.1030  142.6900 C   0  0  0  0  0  0  0  0  0  0  0  0
  194.5020  175.9260  142.1470 C   0  0  0  0  0  0  0  0  0  0  0  0
  190.4900  176.5660  146.1380 C   0  0  2  0  0  3  0  0  0  0  0  0
  189.7000  174.1860  145.5800 C   0  0  0  0  0  2  0  0  0  0  0  0
  196.4720  174.8890  141.5870 C   0  0  1  0  0  3  0  0  0  0  0  0
  190.5840  172.4240  143.3770 C   0  0  0  0  0  2  0  0  0  0  0  0
  191.0960  174.1240  145.1510 N   0  0  1  0  0  0  0  0  0  0  0  0
  191.3910  172.7810  144.6380 C   0  0  2  0  0  3  0  0  0  0  0  0
  193.4590  173.8490  143.6170 C   0  0  0  0  0  0  0  0  0  0  0  0
  196.3280  176.2220  140.9830 N   0  0  0  0  0  0  0  0  0  0  0  0
  189.4250  175.4770  146.3620 C   0  0  2  0  0  3  0  0  0  0  0  0
  195.2290  176.7910  141.2970 N   0  0  0  0  0  0  0  0  0  0  0  0
  193.2600  171.4170  143.8140 O   0  0  0  0  0  0  0  0  0  0  0  0
  192.9030  172.6690  144.3780 C   0  0  2  0  0  3  0  0  0  0  0  0
  194.7000  173.7430  143.0510 N   0  0  0  0  0  0  0  0  0  0  0  0
  191.0460  176.5690  144.7080 C   0  0  0  0  0  2  0  0  0  0  0  0
  192.5190  177.2620  142.4150 O   0  0  0  0  0  1  0  0  0  0  0  0
  197.6530  174.8860  142.5390 C   0  0  0  0  0  1  0  0  0  0  0  0
  192.7110  175.0640  143.5040 C   0  0  0  0  0  0  0  0  0  0  0  0
  195.2040  174.7870  142.3500 C   0  0  0  0  0  0  0  0  0  0  0  0
  187.2240  176.2040  147.2620 C   0  0  0  0  0  2  0  0  0  0  0  0
  188.0470  176.0080  146.0040 C   0  0  1  0  0  3  0  0  0  0  0  0
  187.8770  177.3940  146.5940 C   0  0  1  0  0  3  0  0  0  0  0  0
  186.8440  178.1500  145.7820 C   0  0  0  0  0  2  0  0  0  0  0  0
  185.7330  178.5980  146.6670 C   0  0  0  0  0  0  0  0  0  0  0  0
  184.4060  178.1410  146.4320 N   0  0  0  0  0  1  0  0  0  0  0  0
  185.9610  179.4070  147.6040 O   0  0  0  0  0  0  0  0  0  0  0  0
  191.1710  175.7790  148.2890 O   0  0  0  0  0  1  0  0  0  0  0  0
  191.6260  176.4260  147.1400 C   0  0  0  0  0  2  0  0  0  0  0  0
  1 19  1  1  0  0  0
  1 10  1  0  0  0  0
  2  9  1  0  0  0  0
  3  2  1  0  0  0  0
  3 16  1  0  0  0  0
  4 22  1  0  0  0  0
  5 23  1  0  0  0  0
  5  4  2  0  0  0  0
  6 14  1  0  0  0  0
  6 32  1  1  0  0  0
  8 23  1  0  0  0  0
  8 21  1  1  0  0  0
 10  7  1  6  0  0  0
 11  9  1  6  0  0  0
 11 10  1  0  0  0  0
 13 15  2  0  0  0  0
 13  8  1  0  0  0  0
 14  7  1  6  0  0  0
 15  5  1  0  0  0  0
 16 17  1  0  0  0  0
 17 12  1  6  0  0  0
 17 11  1  0  0  0  0
 18 12  1  0  0  0  0
 19  6  1  0  0  0  0
 20  4  1  0  0  0  0
 22 12  2  0  0  0  0
 22  1  1  0  0  0  0
 23 18  2  0  0  0  0
 25 14  1  0  0  0  0
 25 26  1  0  0  0  0
 25 24  1  1  0  0  0
 26 27  1  6  0  0  0
 26 24  1  0  0  0  0
 27 28  1  0  0  0  0
 28 30  2  0  0  0  0
 29 28  1  0  0  0  0
 32 31  1  0  0  0  0
M  END
>  <MODEL>
7

>  <REMARK>
 VINA RESULT:      -6.9      3.436      8.142
  Name = 
  4 active torsions:
  status: ('A' for Active; 'I' for Inactive)
    1  A    between atoms: C_7  and  C_19
    2  A    between atoms: C_10  and  C_17
    3  A    between atoms: C_20  and  C_29
    4  A    between atoms: C_29  and  C_30
                            x       y       z     vdW  Elec       q    Type
                         _______ _______ _______ _____ _____    ______ ____

>  <TORSDO>
F 4

$$$$
=
 OpenBabel11112416403D

 32 37  0  0  1  0  0  0  0  0999 V2000
  191.2310  175.5410  144.2830 C   0  0  1  0  0  3  0  0  0  0  0  0
  190.7560  173.0350  140.8640 C   0  0  0  0  0  2  0  0  0  0  0  0
  192.0840  172.4240  141.2930 C   0  0  0  0  0  2  0  0  0  0  0  0
  193.7840  175.7970  144.4100 C   0  0  0  0  0  0  0  0  0  0  0  0
  195.0360  175.2030  144.3340 C   0  0  0  0  0  0  0  0  0  0  0  0
  189.8110  176.3180  146.3020 C   0  0  2  0  0  3  0  0  0  0  0  0
  188.8840  175.0980  144.2390 C   0  0  0  0  0  2  0  0  0  0  0  0
  196.6260  173.5830  143.9850 C   0  0  1  0  0  3  0  0  0  0  0  0
  190.3580  174.0870  141.8850 C   0  0  0  0  0  2  0  0  0  0  0  0
  190.2040  174.4820  144.3590 N   0  0  1  0  0  0  0  0  0  0  0  0
  190.3740  173.4810  143.2990 C   0  0  2  0  0  3  0  0  0  0  0  0
  192.8500  173.6040  143.8640 C   0  0  0  0  0  0  0  0  0  0  0  0
  197.2010  174.9080  144.2630 N   0  0  0  0  0  0  0  0  0  0  0  0
  188.5650  175.9500  145.4740 C   0  0  2  0  0  3  0  0  0  0  0  0
  196.3100  175.8030  144.4530 N   0  0  0  0  0  0  0  0  0  0  0  0
  191.9480  171.7580  142.5310 O   0  0  0  0  0  0  0  0  0  0  0  0
  191.6770  172.7030  143.5540 C   0  0  2  0  0  3  0  0  0  0  0  0
  194.1140  173.0840  143.8030 N   0  0  0  0  0  0  0  0  0  0  0  0
  191.0520  176.5570  145.4330 C   0  0  0  0  0  2  0  0  0  0  0  0
  193.6790  177.1660  144.6360 O   0  0  0  0  0  1  0  0  0  0  0  0
  197.0150  172.6170  145.0880 C   0  0  0  0  0  1  0  0  0  0  0  0
  192.6430  174.9710  144.2320 C   0  0  0  0  0  0  0  0  0  0  0  0
  195.1750  173.8840  144.0610 C   0  0  0  0  0  0  0  0  0  0  0  0
  186.4340  176.8510  144.5620 C   0  0  0  0  0  2  0  0  0  0  0  0
  187.8250  177.2080  145.0510 C   0  0  1  0  0  3  0  0  0  0  0  0
  186.6250  177.4100  145.9550 C   0  0  1  0  0  3  0  0  0  0  0  0
  186.2600  178.8810  145.9660 C   0  0  0  0  0  2  0  0  0  0  0  0
  184.8670  179.0610  145.4710 C   0  0  0  0  0  0  0  0  0  0  0  0
  184.6270  179.7730  144.2630 N   0  0  0  0  0  1  0  0  0  0  0  0
  183.8990  178.6120  146.1380 O   0  0  0  0  0  0  0  0  0  0  0  0
  188.9360  174.5410  147.6380 O   0  0  0  0  0  1  0  0  0  0  0  0
  190.1010  175.2520  147.3470 C   0  0  0  0  0  2  0  0  0  0  0  0
  1 10  1  0  0  0  0
  1 19  1  1  0  0  0
  2  3  1  0  0  0  0
  2  9  1  0  0  0  0
  3 16  1  0  0  0  0
  4 20  1  0  0  0  0
  5  4  1  0  0  0  0
  5 15  1  0  0  0  0
  6 32  1  1  0  0  0
  8 23  1  0  0  0  0
  8 13  1  0  0  0  0
  8 21  1  1  0  0  0
 10  7  1  6  0  0  0
 11  9  1  6  0  0  0
 11 17  1  0  0  0  0
 11 10  1  0  0  0  0
 12 22  1  0  0  0  0
 13 15  2  0  0  0  0
 14  7  1  6  0  0  0
 14  6  1  0  0  0  0
 17 16  1  6  0  0  0
 17 12  1  0  0  0  0
 18 12  2  0  0  0  0
 18 23  1  0  0  0  0
 19  6  1  0  0  0  0
 22  1  1  0  0  0  0
 22  4  2  0  0  0  0
 23  5  2  0  0  0  0
 24 26  1  0  0  0  0
 25 24  1  6  0  0  0
 25 14  1  0  0  0  0
 25 26  1  0  0  0  0
 26 27  1  6  0  0  0
 28 27  1  0  0  0  0
 28 30  2  0  0  0  0
 29 28  1  0  0  0  0
 32 31  1  0  0  0  0
M  END
>  <MODEL>
8

>  <REMARK>
 VINA RESULT:      -6.9      3.279      8.103
  Name = 
  4 active torsions:
  status: ('A' for Active; 'I' for Inactive)
    1  A    between atoms: C_7  and  C_19
    2  A    between atoms: C_10  and  C_17
    3  A    between atoms: C_20  and  C_29
    4  A    between atoms: C_29  and  C_30
                            x       y       z     vdW  Elec       q    Type
                         _______ _______ _______ _____ _____    ______ ____

>  <TORSDO>
F 4

$$$$
=
 OpenBabel11112416403D

 32 37  0  0  1  0  0  0  0  0999 V2000
  188.2770  177.1110  144.5910 C   0  0  1  0  0  3  0  0  0  0  0  0
  185.9140  178.8800  147.6700 C   0  0  0  0  0  2  0  0  0  0  0  0
  184.7600  178.7350  146.6840 C   0  0  0  0  0  2  0  0  0  0  0  0
  187.1310  177.9860  142.4640 C   0  0  0  0  0  0  0  0  0  0  0  0
  185.9510  178.2510  141.7820 C   0  0  0  0  0  0  0  0  0  0  0  0
  190.0110  175.2050  144.3620 C   0  0  2  0  0  3  0  0  0  0  0  0
  189.1720  176.1640  146.5920 C   0  0  0  0  0  2  0  0  0  0  0  0
  183.6980  178.4640  141.3910 C   0  0  1  0  0  3  0  0  0  0  0  0
  187.1620  178.2850  147.0410 C   0  0  0  0  0  2  0  0  0  0  0  0
  187.9690  176.2770  145.7700 N   0  0  1  0  0  0  0  0  0  0  0  0
  186.8800  176.8470  146.5710 C   0  0  2  0  0  3  0  0  0  0  0  0
  185.7350  177.2690  144.3410 C   0  0  0  0  0  0  0  0  0  0  0  0
  184.5270  178.9440  140.2760 N   0  0  0  0  0  0  0  0  0  0  0  0
  190.2470  175.3350  145.8780 C   0  0  2  0  0  3  0  0  0  0  0  0
  185.7780  178.8250  140.5020 N   0  0  0  0  0  0  0  0  0  0  0  0
  184.4830  177.3710  146.4430 O   0  0  0  0  0  0  0  0  0  0  0  0
  185.5750  176.7750  145.7600 C   0  0  2  0  0  3  0  0  0  0  0  0
  184.6140  177.5540  143.6120 N   0  0  0  0  0  0  0  0  0  0  0  0
  189.3980  176.4680  143.7440 C   0  0  0  0  0  2  0  0  0  0  0  0
  188.3540  178.2930  141.8780 O   0  0  0  0  0  1  0  0  0  0  0  0
  182.8670  177.2790  140.9350 C   0  0  0  0  0  1  0  0  0  0  0  0
  187.0350  177.4200  143.7630 C   0  0  0  0  0  0  0  0  0  0  0  0
  184.7430  178.0150  142.3450 C   0  0  0  0  0  0  0  0  0  0  0  0
  192.5300  174.8860  146.7560 C   0  0  0  0  0  2  0  0  0  0  0  0
  191.6170  175.9330  146.1480 C   0  0  1  0  0  3  0  0  0  0  0  0
  192.6480  175.2290  145.2870 C   0  0  1  0  0  3  0  0  0  0  0  0
  193.8290  176.1560  145.0760 C   0  0  0  0  0  2  0  0  0  0  0  0
  194.2910  176.0740  143.6630 C   0  0  0  0  0  0  0  0  0  0  0  0
  195.6490  176.3520  143.3410 N   0  0  0  0  0  1  0  0  0  0  0  0
  193.4740  175.7910  142.7490 O   0  0  0  0  0  0  0  0  0  0  0  0
  189.6000  172.8840  144.7610 O   0  0  0  0  0  1  0  0  0  0  0  0
  189.1420  173.9960  144.0510 C   0  0  0  0  0  2  0  0  0  0  0  0
  1 19  1  6  0  0  0
  1 10  1  0  0  0  0
  3  2  1  0  0  0  0
  4 22  1  0  0  0  0
  5 23  1  0  0  0  0
  5  4  2  0  0  0  0
  6 32  1  1  0  0  0
  6 14  1  0  0  0  0
  8 21  1  6  0  0  0
  8 23  1  0  0  0  0
  9  2  1  0  0  0  0
 10 11  1  0  0  0  0
 10  7  1  1  0  0  0
 11  9  1  6  0  0  0
 13 15  2  0  0  0  0
 13  8  1  0  0  0  0
 14 25  1  0  0  0  0
 14  7  1  6  0  0  0
 15  5  1  0  0  0  0
 16  3  1  0  0  0  0
 17 12  1  6  0  0  0
 17 16  1  0  0  0  0
 17 11  1  0  0  0  0
 18 12  1  0  0  0  0
 19  6  1  0  0  0  0
 20  4  1  0  0  0  0
 22 12  2  0  0  0  0
 22  1  1  0  0  0  0
 23 18  2  0  0  0  0
 25 24  1  1  0  0  0
 26 27  1  1  0  0  0
 26 25  1  0  0  0  0
 26 24  1  0  0  0  0
 28 27  1  0  0  0  0
 29 28  1  0  0  0  0
 30 28  2  0  0  0  0
 32 31  1  0  0  0  0
M  END
>  <MODEL>
9

>  <REMARK>
 VINA RESULT:      -6.8      3.277      4.779
  Name = 
  4 active torsions:
  status: ('A' for Active; 'I' for Inactive)
    1  A    between atoms: C_7  and  C_19
    2  A    between atoms: C_10  and  C_17
    3  A    between atoms: C_20  and  C_29
    4  A    between atoms: C_29  and  C_30
                            x       y       z     vdW  Elec       q    Type
                         _______ _______ _______ _____ _____    ______ ____

>  <TORSDO>
F 4

$$$$
