=
 OpenBabel11112416223D

 30 35  0  0  1  0  0  0  0  0999 V2000
  187.5410  176.4420  145.4890 C   0  0  0  0  0  0  0  0  0  0  0  0
  185.7180  177.5870  146.7880 C   0  0  0  0  0  0  0  0  0  0  0  0
  185.9160  177.8330  141.8600 N   0  0  0  0  0  2  0  0  0  0  0  0
  188.1250  176.1390  144.2260 C   0  0  0  0  0  0  0  0  0  0  0  0
  188.1200  175.8070  146.7280 C   0  0  0  0  0  2  0  0  0  0  0  0
  191.2410  174.3660  145.3500 O   0  0  0  0  0  1  0  0  0  0  0  0
  188.3950  173.9420  142.2300 C   0  0  1  0  0  3  0  0  0  0  0  0
  189.8820  174.6840  145.4070 C   0  0  1  0  0  3  0  0  0  0  0  0
  187.7430  174.9390  141.2690 C   0  0  2  0  0  3  0  0  0  0  0  0
  186.8550  177.2460  140.9650 C   0  0  0  0  0  0  0  0  0  0  0  0
  189.6170  175.5690  146.6170 C   0  0  2  0  0  3  0  0  0  0  0  0
  189.4670  175.4150  144.1260 C   0  0  1  0  0  3  0  0  0  0  0  0
  184.5640  178.3740  146.7880 C   0  0  0  0  0  3  0  0  0  0  0  0
  188.3330  174.6320  139.9120 C   0  0  0  0  0  2  0  0  0  0  0  0
  188.7490  172.7290  141.3800 C   0  0  0  0  0  2  0  0  0  0  0  0
  186.2100  177.1690  148.0200 O   0  0  0  0  0  1  0  0  0  0  0  0
  186.3760  177.4210  143.1390 C   0  0  0  0  0  0  0  0  0  0  0  0
  184.0170  178.8410  145.5950 C   0  0  0  0  0  3  0  0  0  0  0  0
  186.3560  177.2440  145.5630 C   0  0  0  0  0  0  0  0  0  0  0  0
  187.5100  176.6480  143.0720 C   0  0  0  0  0  0  0  0  0  0  0  0
  186.7990  177.4240  139.7200 O   0  0  0  0  0  0  0  0  0  0  0  0
  187.9080  176.4220  141.6440 C   0  0  1  0  0  3  0  0  0  0  0  0
  188.5860  173.1380  139.9230 C   0  0  0  0  0  2  0  0  0  0  0  0
  190.7310  174.3270  142.4590 O   0  0  0  0  0  0  0  0  0  0  0  0
  184.6230  178.5250  144.3830 C   0  0  0  0  0  3  0  0  0  0  0  0
  185.7790  177.7390  144.3550 C   0  0  0  0  0  0  0  0  0  0  0  0
  189.6140  174.5180  142.9180 C   0  0  0  0  0  0  0  0  0  0  0  0
  190.0660  174.9380  147.7810 O   0  0  0  0  0  0  0  0  0  0  0  0
  191.1500  177.0340  148.0660 C   0  0  0  0  0  1  0  0  0  0  0  0
  191.3010  175.5270  148.0540 C   0  0  0  0  0  2  0  0  0  0  0  0
  1 19  1  0  0  0  0
  1  5  1  0  0  0  0
  2 13  1  0  0  0  0
  2 16  1  0  0  0  0
  3 17  1  0  0  0  0
  4  1  2  0  0  0  0
  7 15  1  6  0  0  0
  7 27  1  0  0  0  0
  8  6  1  6  0  0  0
  8 11  1  0  0  0  0
  9 14  1  6  0  0  0
  9 22  1  0  0  0  0
  9  7  1  0  0  0  0
 10  3  1  0  0  0  0
 11  5  1  0  0  0  0
 11 28  1  1  0  0  0
 12 27  1  6  0  0  0
 12  4  1  0  0  0  0
 12  8  1  0  0  0  0
 14 23  1  0  0  0  0
 17 26  1  0  0  0  0
 18 13  2  0  0  0  0
 19  2  2  0  0  0  0
 20 17  2  0  0  0  0
 20  4  1  0  0  0  0
 21 10  2  0  0  0  0
 22 10  1  6  0  0  0
 22 20  1  0  0  0  0
 23 15  1  0  0  0  0
 24 27  2  0  0  0  0
 25 18  1  0  0  0  0
 26 25  2  0  0  0  0
 26 19  1  0  0  0  0
 28 30  1  0  0  0  0
 30 29  1  0  0  0  0
M  END
>  <MODEL>
1

>  <REMARK>
 VINA RESULT:      -9.5      0.000      0.000
  Name = 
  2 active torsions:
  status: ('A' for Active; 'I' for Inactive)
    1  A    between atoms: C_11  and  O_28
    2  A    between atoms: O_28  and  C_30
                            x       y       z     vdW  Elec       q    Type
                         _______ _______ _______ _____ _____    ______ ____

>  <TORSDO>
F 2

$$$$
=
 OpenBabel11112416223D

 30 35  0  0  1  0  0  0  0  0999 V2000
  187.8400  177.3320  145.4700 C   0  0  0  0  0  0  0  0  0  0  0  0
  185.9090  178.2920  146.7630 C   0  0  0  0  0  0  0  0  0  0  0  0
  185.6520  177.5990  141.8800 N   0  0  0  0  0  2  0  0  0  0  0  0
  188.3760  176.9190  144.2170 C   0  0  0  0  0  0  0  0  0  0  0  0
  188.6470  177.0930  146.7200 C   0  0  0  0  0  2  0  0  0  0  0  0
  191.8990  176.1130  145.2440 O   0  0  0  0  0  1  0  0  0  0  0  0
  188.9940  174.4820  142.6160 C   0  0  1  0  0  3  0  0  0  0  0  0
  190.5130  176.1360  145.4100 C   0  0  1  0  0  3  0  0  0  0  0  0
  188.0520  175.1070  141.5830 C   0  0  2  0  0  3  0  0  0  0  0  0
  186.6280  177.0620  140.9930 C   0  0  0  0  0  0  0  0  0  0  0  0
  190.1450  177.1640  146.4710 C   0  0  2  0  0  3  0  0  0  0  0  0
  189.8380  176.4940  144.0810 C   0  0  1  0  0  3  0  0  0  0  0  0
  184.6060  178.7970  146.7660 C   0  0  0  0  0  3  0  0  0  0  0  0
  188.5880  174.6720  140.2380 C   0  0  0  0  0  2  0  0  0  0  0  0
  189.5520  173.2290  141.9530 C   0  0  0  0  0  2  0  0  0  0  0  0
  186.5810  178.2410  147.9790 O   0  0  0  0  0  1  0  0  0  0  0  0
  186.2960  177.5560  143.1450 C   0  0  0  0  0  0  0  0  0  0  0  0
  183.8730  178.8920  145.5860 C   0  0  0  0  0  3  0  0  0  0  0  0
  186.5100  177.8600  145.5470 C   0  0  0  0  0  0  0  0  0  0  0  0
  187.5700  177.0470  143.0760 C   0  0  0  0  0  0  0  0  0  0  0  0
  186.4330  176.9760  139.7520 O   0  0  0  0  0  0  0  0  0  0  0  0
  187.8950  176.6350  141.6720 C   0  0  1  0  0  3  0  0  0  0  0  0
  189.1830  173.2990  140.4780 C   0  0  0  0  0  2  0  0  0  0  0  0
  191.1850  175.3960  142.4880 O   0  0  0  0  0  0  0  0  0  0  0  0
  184.4380  178.4810  144.3830 C   0  0  0  0  0  3  0  0  0  0  0  0
  185.7390  177.9710  144.3510 C   0  0  0  0  0  0  0  0  0  0  0  0
  190.0940  175.4300  143.0400 C   0  0  0  0  0  0  0  0  0  0  0  0
  190.8200  176.8860  147.6630 O   0  0  0  0  0  0  0  0  0  0  0  0
  191.5260  178.0170  149.6310 C   0  0  0  0  0  1  0  0  0  0  0  0
  190.5160  177.9570  148.5040 C   0  0  0  0  0  2  0  0  0  0  0  0
  1 19  1  0  0  0  0
  1  5  1  0  0  0  0
  2 13  1  0  0  0  0
  2 16  1  0  0  0  0
  3 17  1  0  0  0  0
  4  1  2  0  0  0  0
  7 15  1  6  0  0  0
  7 27  1  0  0  0  0
  8  6  1  6  0  0  0
  8 11  1  0  0  0  0
  9 14  1  6  0  0  0
  9 22  1  0  0  0  0
  9  7  1  0  0  0  0
 10  3  1  0  0  0  0
 11  5  1  0  0  0  0
 11 28  1  1  0  0  0
 12 27  1  6  0  0  0
 12  4  1  0  0  0  0
 12  8  1  0  0  0  0
 14 23  1  0  0  0  0
 17 26  1  0  0  0  0
 18 13  2  0  0  0  0
 19  2  2  0  0  0  0
 20 17  2  0  0  0  0
 20  4  1  0  0  0  0
 21 10  2  0  0  0  0
 22 10  1  6  0  0  0
 22 20  1  0  0  0  0
 23 15  1  0  0  0  0
 24 27  2  0  0  0  0
 25 18  1  0  0  0  0
 26 25  2  0  0  0  0
 26 19  1  0  0  0  0
 28 30  1  0  0  0  0
 30 29  1  0  0  0  0
M  END
>  <MODEL>
2

>  <REMARK>
 VINA RESULT:      -9.3      1.064      1.113
  Name = 
  2 active torsions:
  status: ('A' for Active; 'I' for Inactive)
    1  A    between atoms: C_11  and  O_28
    2  A    between atoms: O_28  and  C_30
                            x       y       z     vdW  Elec       q    Type
                         _______ _______ _______ _____ _____    ______ ____

>  <TORSDO>
F 2

$$$$
=
 OpenBabel11112416223D

 30 35  0  0  1  0  0  0  0  0999 V2000
  186.3220  177.3670  143.8020 C   0  0  0  0  0  0  0  0  0  0  0  0
  184.5460  178.5430  145.1390 C   0  0  0  0  0  0  0  0  0  0  0  0
  188.1770  176.0170  147.3360 N   0  0  0  0  0  2  0  0  0  0  0  0
  187.5000  176.5670  143.7880 C   0  0  0  0  0  0  0  0  0  0  0  0
  185.7920  177.9030  142.4970 C   0  0  0  0  0  2  0  0  0  0  0  0
  187.8500  175.9780  140.0940 O   0  0  0  0  0  1  0  0  0  0  0  0
  190.4460  176.7320  143.3660 C   0  0  1  0  0  3  0  0  0  0  0  0
  187.5690  176.7460  141.2260 C   0  0  1  0  0  3  0  0  0  0  0  0
  190.5290  176.1650  144.7850 C   0  0  2  0  0  3  0  0  0  0  0  0
  189.2630  175.3070  146.7510 C   0  0  0  0  0  0  0  0  0  0  0  0
  186.0670  176.9710  141.3280 C   0  0  2  0  0  3  0  0  0  0  0  0
  188.0740  176.0240  142.4800 C   0  0  1  0  0  3  0  0  0  0  0  0
  184.0140  178.8760  146.3870 C   0  0  0  0  0  3  0  0  0  0  0  0
  191.7820  175.3210  144.8060 C   0  0  0  0  0  2  0  0  0  0  0  0
  191.8850  176.8000  142.8690 C   0  0  0  0  0  2  0  0  0  0  0  0
  183.8810  179.0100  144.0110 O   0  0  0  0  0  1  0  0  0  0  0  0
  187.4710  176.5250  146.2130 C   0  0  0  0  0  0  0  0  0  0  0  0
  184.6170  178.4360  147.5620 C   0  0  0  0  0  3  0  0  0  0  0  0
  185.7230  177.7460  145.0480 C   0  0  0  0  0  0  0  0  0  0  0  0
  188.0440  176.1660  145.0180 C   0  0  0  0  0  0  0  0  0  0  0  0
  190.1040  174.6750  147.4430 O   0  0  0  0  0  0  0  0  0  0  0  0
  189.2950  175.3730  145.2530 C   0  0  1  0  0  3  0  0  0  0  0  0
  192.7360  176.0110  143.8530 C   0  0  0  0  0  2  0  0  0  0  0  0
  190.0820  175.0280  141.7470 O   0  0  0  0  0  0  0  0  0  0  0  0
  185.7640  177.6510  147.5010 C   0  0  0  0  0  3  0  0  0  0  0  0
  186.3180  177.3040  146.2660 C   0  0  0  0  0  0  0  0  0  0  0  0
  189.5790  175.8880  142.4570 C   0  0  0  0  0  0  0  0  0  0  0  0
  185.5890  177.5590  140.1530 O   0  0  0  0  0  0  0  0  0  0  0  0
  183.2470  177.9580  140.2490 C   0  0  0  0  0  1  0  0  0  0  0  0
  184.6300  178.4800  140.5790 C   0  0  0  0  0  2  0  0  0  0  0  0
  1 19  1  0  0  0  0
  2 13  1  0  0  0  0
  4  1  2  0  0  0  0
  4 20  1  0  0  0  0
  5  1  1  0  0  0  0
  7 15  1  6  0  0  0
  7  9  1  0  0  0  0
  8  6  1  6  0  0  0
  8 11  1  0  0  0  0
  8 12  1  0  0  0  0
  9 14  1  6  0  0  0
  9 22  1  0  0  0  0
 10  3  1  0  0  0  0
 10 21  2  0  0  0  0
 11 28  1  6  0  0  0
 11  5  1  0  0  0  0
 12 27  1  1  0  0  0
 12  4  1  0  0  0  0
 13 18  2  0  0  0  0
 15 23  1  0  0  0  0
 16  2  1  0  0  0  0
 17 26  1  0  0  0  0
 17  3  1  0  0  0  0
 19  2  2  0  0  0  0
 19 26  1  0  0  0  0
 20 17  2  0  0  0  0
 22 20  1  1  0  0  0
 22 10  1  0  0  0  0
 23 14  1  0  0  0  0
 24 27  2  0  0  0  0
 25 18  1  0  0  0  0
 26 25  2  0  0  0  0
 27  7  1  0  0  0  0
 28 30  1  0  0  0  0
 29 30  1  0  0  0  0
M  END
>  <MODEL>
3

>  <REMARK>
 VINA RESULT:      -9.1      2.132      5.342
  Name = 
  2 active torsions:
  status: ('A' for Active; 'I' for Inactive)
    1  A    between atoms: C_11  and  O_28
    2  A    between atoms: O_28  and  C_30
                            x       y       z     vdW  Elec       q    Type
                         _______ _______ _______ _____ _____    ______ ____

>  <TORSDO>
F 2

$$$$
=
 OpenBabel11112416223D

 30 35  0  0  1  0  0  0  0  0999 V2000
  188.6270  175.8570  142.0320 C   0  0  0  0  0  0  0  0  0  0  0  0
  190.1690  174.0590  141.1910 C   0  0  0  0  0  0  0  0  0  0  0  0
  190.6540  175.9580  145.7240 N   0  0  0  0  0  2  0  0  0  0  0  0
  188.2470  176.7350  143.0870 C   0  0  0  0  0  0  0  0  0  0  0  0
  187.7760  175.8040  140.7890 C   0  0  0  0  0  2  0  0  0  0  0  0
  185.5790  178.7320  141.3530 O   0  0  0  0  0  1  0  0  0  0  0  0
  186.1960  177.0930  145.2190 C   0  0  1  0  0  3  0  0  0  0  0  0
  186.2730  177.5610  141.6660 C   0  0  1  0  0  3  0  0  0  0  0  0
  187.3970  177.0780  146.1680 C   0  0  2  0  0  3  0  0  0  0  0  0
  189.8770  176.9610  146.3690 C   0  0  0  0  0  0  0  0  0  0  0  0
  187.1200  177.1390  140.4730 C   0  0  2  0  0  3  0  0  0  0  0  0
  187.1720  177.8020  142.8840 C   0  0  1  0  0  3  0  0  0  0  0  0
  191.2560  173.2120  141.4220 C   0  0  0  0  0  3  0  0  0  0  0  0
  187.0170  177.9910  147.3110 C   0  0  0  0  0  2  0  0  0  0  0  0
  184.9870  177.3910  146.0980 C   0  0  0  0  0  2  0  0  0  0  0  0
  189.5510  173.9840  139.9480 O   0  0  0  0  0  1  0  0  0  0  0  0
  190.0470  175.8400  144.4450 C   0  0  0  0  0  0  0  0  0  0  0  0
  191.9360  173.2360  142.6380 C   0  0  0  0  0  3  0  0  0  0  0  0
  189.7330  174.9620  142.2010 C   0  0  0  0  0  0  0  0  0  0  0  0
  188.9840  176.6950  144.2810 C   0  0  0  0  0  0  0  0  0  0  0  0
  190.1410  177.3740  147.5290 O   0  0  0  0  0  0  0  0  0  0  0  0
  188.7420  177.4780  145.5360 C   0  0  1  0  0  3  0  0  0  0  0  0
  185.5160  177.8370  147.4530 C   0  0  0  0  0  2  0  0  0  0  0  0
  185.8690  179.2320  144.2320 O   0  0  0  0  0  0  0  0  0  0  0  0
  191.5330  174.1130  143.6400 C   0  0  0  0  0  3  0  0  0  0  0  0
  190.4480  174.9710  143.4350 C   0  0  0  0  0  0  0  0  0  0  0  0
  186.3480  178.1130  144.1120 C   0  0  0  0  0  0  0  0  0  0  0  0
  186.3140  176.9940  139.3400 O   0  0  0  0  0  0  0  0  0  0  0  0
  186.3780  176.0980  137.1390 C   0  0  0  0  0  1  0  0  0  0  0  0
  187.0150  176.1150  138.5130 C   0  0  0  0  0  2  0  0  0  0  0  0
  1 19  2  0  0  0  0
  1  4  1  0  0  0  0
  2 13  2  0  0  0  0
  2 19  1  0  0  0  0
  3 10  1  0  0  0  0
  4 20  2  0  0  0  0
  5  1  1  0  0  0  0
  7 15  1  1  0  0  0
  7  9  1  0  0  0  0
  8  6  1  6  0  0  0
  8 12  1  0  0  0  0
  9 14  1  1  0  0  0
 10 21  2  0  0  0  0
 11 28  1  6  0  0  0
 11  5  1  0  0  0  0
 11  8  1  0  0  0  0
 12  4  1  1  0  0  0
 12 27  1  0  0  0  0
 13 18  1  0  0  0  0
 14 23  1  0  0  0  0
 15 23  1  0  0  0  0
 16  2  1  0  0  0  0
 17  3  1  0  0  0  0
 18 25  2  0  0  0  0
 19 26  1  0  0  0  0
 20 17  1  0  0  0  0
 22 20  1  6  0  0  0
 22  9  1  0  0  0  0
 22 10  1  0  0  0  0
 26 25  1  0  0  0  0
 26 17  2  0  0  0  0
 27 24  2  0  0  0  0
 27  7  1  0  0  0  0
 29 30  1  0  0  0  0
 30 28  1  0  0  0  0
M  END
>  <MODEL>
4

>  <REMARK>
 VINA RESULT:      -8.8      2.152      7.224
  Name = 
  2 active torsions:
  status: ('A' for Active; 'I' for Inactive)
    1  A    between atoms: C_11  and  O_28
    2  A    between atoms: O_28  and  C_30
                            x       y       z     vdW  Elec       q    Type
                         _______ _______ _______ _____ _____    ______ ____

>  <TORSDO>
F 2

$$$$
=
 OpenBabel11112416223D

 30 35  0  0  1  0  0  0  0  0999 V2000
  188.4460  175.7070  143.7920 C   0  0  0  0  0  0  0  0  0  0  0  0
  186.2970  177.0110  143.7310 C   0  0  0  0  0  0  0  0  0  0  0  0
  189.5270  177.5380  147.4290 N   0  0  0  0  0  2  0  0  0  0  0  0
  189.6650  175.4080  144.4650 C   0  0  0  0  0  0  0  0  0  0  0  0
  188.1930  175.0930  142.4390 C   0  0  0  0  0  2  0  0  0  0  0  0
  190.9410  172.6150  142.2990 O   0  0  0  0  0  1  0  0  0  0  0  0
  192.5970  175.9360  144.3580 C   0  0  1  0  0  3  0  0  0  0  0  0
  190.3250  173.8460  142.5340 C   0  0  1  0  0  3  0  0  0  0  0  0
  192.3930  176.4990  145.7670 C   0  0  2  0  0  3  0  0  0  0  0  0
  190.7850  176.9010  147.6250 C   0  0  0  0  0  0  0  0  0  0  0  0
  188.8280  173.7200  142.2920 C   0  0  2  0  0  3  0  0  0  0  0  0
  190.5850  174.2880  143.9790 C   0  0  1  0  0  3  0  0  0  0  0  0
  185.4530  177.9530  144.3250 C   0  0  0  0  0  3  0  0  0  0  0  0
  193.6820  176.2090  146.5030 C   0  0  0  0  0  2  0  0  0  0  0  0
  194.0990  175.9920  144.1090 C   0  0  0  0  0  2  0  0  0  0  0  0
  185.8780  176.4350  142.5370 O   0  0  0  0  0  1  0  0  0  0  0  0
  189.0630  176.9840  146.2070 C   0  0  0  0  0  0  0  0  0  0  0  0
  185.7980  178.5640  145.5280 C   0  0  0  0  0  3  0  0  0  0  0  0
  187.5330  176.6630  144.3460 C   0  0  0  0  0  0  0  0  0  0  0  0
  189.9370  176.0700  145.6710 C   0  0  0  0  0  0  0  0  0  0  0  0
  191.4940  177.1110  148.6450 O   0  0  0  0  0  0  0  0  0  0  0  0
  191.1660  175.9590  146.5230 C   0  0  1  0  0  3  0  0  0  0  0  0
  194.7640  176.2890  145.4450 C   0  0  0  0  0  2  0  0  0  0  0  0
  192.7960  173.5670  144.3660 O   0  0  0  0  0  0  0  0  0  0  0  0
  186.9980  178.2380  146.1520 C   0  0  0  0  0  3  0  0  0  0  0  0
  187.8610  177.3000  145.5790 C   0  0  0  0  0  0  0  0  0  0  0  0
  192.0580  174.5300  144.2150 C   0  0  0  0  0  0  0  0  0  0  0  0
  188.5880  173.2420  141.0000 O   0  0  0  0  0  0  0  0  0  0  0  0
  188.4040  173.9880  138.7510 C   0  0  0  0  0  1  0  0  0  0  0  0
  188.4830  174.3870  140.2100 C   0  0  0  0  0  2  0  0  0  0  0  0
  1 19  2  0  0  0  0
  1  4  1  0  0  0  0
  2 13  2  0  0  0  0
  2 19  1  0  0  0  0
  3 10  1  0  0  0  0
  4 20  2  0  0  0  0
  5  1  1  0  0  0  0
  7 15  1  1  0  0  0
  7  9  1  0  0  0  0
  8  6  1  1  0  0  0
  8 12  1  0  0  0  0
  9 14  1  1  0  0  0
  9 22  1  0  0  0  0
 10 21  2  0  0  0  0
 11 28  1  6  0  0  0
 11  5  1  0  0  0  0
 11  8  1  0  0  0  0
 12 27  1  6  0  0  0
 12  4  1  0  0  0  0
 13 18  1  0  0  0  0
 15 23  1  0  0  0  0
 16  2  1  0  0  0  0
 17  3  1  0  0  0  0
 18 25  2  0  0  0  0
 19 26  1  0  0  0  0
 20 17  1  0  0  0  0
 22 20  1  6  0  0  0
 22 10  1  0  0  0  0
 23 14  1  0  0  0  0
 26 25  1  0  0  0  0
 26 17  2  0  0  0  0
 27  7  1  0  0  0  0
 27 24  2  0  0  0  0
 29 30  1  0  0  0  0
 30 28  1  0  0  0  0
M  END
>  <MODEL>
5

>  <REMARK>
 VINA RESULT:      -8.7      2.372      5.551
  Name = 
  2 active torsions:
  status: ('A' for Active; 'I' for Inactive)
    1  A    between atoms: C_11  and  O_28
    2  A    between atoms: O_28  and  C_30
                            x       y       z     vdW  Elec       q    Type
                         _______ _______ _______ _____ _____    ______ ____

>  <TORSDO>
F 2

$$$$
=
 OpenBabel11112416223D

 30 35  0  0  1  0  0  0  0  0999 V2000
  189.9900  174.9750  143.5910 C   0  0  0  0  0  0  0  0  0  0  0  0
  191.9310  173.3780  143.6730 C   0  0  0  0  0  0  0  0  0  0  0  0
  191.1060  176.6220  147.3050 N   0  0  0  0  0  2  0  0  0  0  0  0
  189.2590  176.0290  144.2090 C   0  0  0  0  0  0  0  0  0  0  0  0
  189.4550  174.3660  142.3210 C   0  0  0  0  0  2  0  0  0  0  0  0
  186.7770  176.7860  141.4920 O   0  0  0  0  0  1  0  0  0  0  0  0
  186.7540  176.5710  145.7310 C   0  0  1  0  0  3  0  0  0  0  0  0
  187.5500  175.9430  142.2930 C   0  0  1  0  0  3  0  0  0  0  0  0
  187.7030  177.1020  146.8090 C   0  0  2  0  0  3  0  0  0  0  0  0
  190.0640  177.5830  147.4360 C   0  0  0  0  0  0  0  0  0  0  0  0
  188.6940  175.3690  141.4680 C   0  0  2  0  0  3  0  0  0  0  0  0
  188.1090  176.7280  143.4840 C   0  0  1  0  0  3  0  0  0  0  0  0
  193.0530  172.8950  144.3520 C   0  0  0  0  0  3  0  0  0  0  0  0
  186.9460  178.2150  147.4950 C   0  0  0  0  0  2  0  0  0  0  0  0
  185.3500  176.8560  146.2480 C   0  0  0  0  0  2  0  0  0  0  0  0
  191.6230  172.8000  142.4480 O   0  0  0  0  0  1  0  0  0  0  0  0
  190.8240  175.9950  146.0620 C   0  0  0  0  0  0  0  0  0  0  0  0
  193.4330  173.4310  145.5790 C   0  0  0  0  0  3  0  0  0  0  0  0
  191.1510  174.4310  144.2310 C   0  0  0  0  0  0  0  0  0  0  0  0
  189.7090  176.5110  145.4470 C   0  0  0  0  0  0  0  0  0  0  0  0
  189.9990  178.3760  148.4120 O   0  0  0  0  0  0  0  0  0  0  0  0
  189.0800  177.5680  146.3050 C   0  0  1  0  0  3  0  0  0  0  0  0
  185.4910  177.7950  147.4370 C   0  0  0  0  0  2  0  0  0  0  0  0
  186.3410  178.1870  144.0360 O   0  0  0  0  0  0  0  0  0  0  0  0
  192.6920  174.4640  146.1440 C   0  0  0  0  0  3  0  0  0  0  0  0
  191.5640  174.9660  145.4870 C   0  0  0  0  0  0  0  0  0  0  0  0
  186.9960  177.2140  144.3830 C   0  0  0  0  0  0  0  0  0  0  0  0
  188.1920  174.7180  140.3370 O   0  0  0  0  0  0  0  0  0  0  0  0
  188.4880  172.6680  139.1720 C   0  0  0  0  0  1  0  0  0  0  0  0
  188.5480  173.3800  140.5070 C   0  0  0  0  0  2  0  0  0  0  0  0
  1  4  2  0  0  0  0
  1 19  1  0  0  0  0
  2 19  2  0  0  0  0
  2 13  1  0  0  0  0
  3 10  1  0  0  0  0
  4 20  1  0  0  0  0
  5  1  1  0  0  0  0
  7 15  1  1  0  0  0
  7  9  1  0  0  0  0
  8  6  1  6  0  0  0
  8 12  1  0  0  0  0
  9 14  1  6  0  0  0
 10 21  2  0  0  0  0
 11 28  1  6  0  0  0
 11  8  1  0  0  0  0
 11  5  1  0  0  0  0
 12  4  1  1  0  0  0
 12 27  1  0  0  0  0
 13 18  2  0  0  0  0
 15 23  1  0  0  0  0
 16  2  1  0  0  0  0
 17  3  1  0  0  0  0
 18 25  1  0  0  0  0
 19 26  1  0  0  0  0
 20 17  2  0  0  0  0
 22 20  1  6  0  0  0
 22  9  1  0  0  0  0
 22 10  1  0  0  0  0
 23 14  1  0  0  0  0
 24 27  2  0  0  0  0
 26 17  1  0  0  0  0
 26 25  2  0  0  0  0
 27  7  1  0  0  0  0
 28 30  1  0  0  0  0
 29 30  1  0  0  0  0
M  END
>  <MODEL>
6

>  <REMARK>
 VINA RESULT:      -8.7      2.420      7.011
  Name = 
  2 active torsions:
  status: ('A' for Active; 'I' for Inactive)
    1  A    between atoms: C_11  and  O_28
    2  A    between atoms: O_28  and  C_30
                            x       y       z     vdW  Elec       q    Type
                         _______ _______ _______ _____ _____    ______ ____

>  <TORSDO>
F 2

$$$$
=
 OpenBabel11112416223D

 30 35  0  0  1  0  0  0  0  0999 V2000
  188.2910  175.4190  143.0790 C   0  0  0  0  0  0  0  0  0  0  0  0
  186.5450  177.2150  142.8630 C   0  0  0  0  0  0  0  0  0  0  0  0
  189.3680  176.8370  146.8980 N   0  0  0  0  0  2  0  0  0  0  0  0
  189.3170  174.8110  143.8580 C   0  0  0  0  0  0  0  0  0  0  0  0
  188.0510  174.9200  141.6770 C   0  0  0  0  0  2  0  0  0  0  0  0
  190.1110  171.8430  141.6950 O   0  0  0  0  0  1  0  0  0  0  0  0
  192.2820  174.6010  144.0820 C   0  0  1  0  0  3  0  0  0  0  0  0
  189.7910  173.1830  141.9280 C   0  0  1  0  0  3  0  0  0  0  0  0
  192.0640  175.1610  145.4900 C   0  0  2  0  0  3  0  0  0  0  0  0
  190.4030  175.9040  147.1900 C   0  0  0  0  0  0  0  0  0  0  0  0
  188.3450  173.4360  141.5270 C   0  0  2  0  0  3  0  0  0  0  0  0
  189.9860  173.5110  143.4120 C   0  0  1  0  0  3  0  0  0  0  0  0
  185.8940  178.3210  143.4150 C   0  0  0  0  0  3  0  0  0  0  0  0
  193.1520  174.5450  146.3390 C   0  0  0  0  0  2  0  0  0  0  0  0
  193.7700  174.2900  143.9930 C   0  0  0  0  0  2  0  0  0  0  0  0
  186.1360  176.7900  141.6040 O   0  0  0  0  0  1  0  0  0  0  0  0
  188.9240  176.4450  145.6070 C   0  0  0  0  0  0  0  0  0  0  0  0
  186.2390  178.7990  144.6760 C   0  0  0  0  0  3  0  0  0  0  0  0
  187.5820  176.5570  143.5840 C   0  0  0  0  0  0  0  0  0  0  0  0
  189.6040  175.3560  145.1190 C   0  0  0  0  0  0  0  0  0  0  0  0
  191.0210  175.9070  148.2860 O   0  0  0  0  0  0  0  0  0  0  0  0
  190.6650  174.9240  146.0860 C   0  0  1  0  0  3  0  0  0  0  0  0
  194.3330  174.3790  145.4040 C   0  0  0  0  0  2  0  0  0  0  0  0
  191.8970  172.2560  143.9890 O   0  0  0  0  0  0  0  0  0  0  0  0
  187.2450  178.1720  145.4040 C   0  0  0  0  0  3  0  0  0  0  0  0
  187.9140  177.0630  144.8760 C   0  0  0  0  0  0  0  0  0  0  0  0
  191.4370  173.3750  143.8120 C   0  0  0  0  0  0  0  0  0  0  0  0
  188.1440  173.0650  140.1940 O   0  0  0  0  0  0  0  0  0  0  0  0
  189.3250  173.6880  138.2280 C   0  0  0  0  0  1  0  0  0  0  0  0
  188.5660  174.1660  139.4480 C   0  0  0  0  0  2  0  0  0  0  0  0
  1 19  2  0  0  0  0
  1  4  1  0  0  0  0
  2 13  2  0  0  0  0
  2 19  1  0  0  0  0
  3 10  1  0  0  0  0
  4 20  2  0  0  0  0
  5  1  1  0  0  0  0
  7 15  1  1  0  0  0
  7  9  1  0  0  0  0
  8  6  1  1  0  0  0
  8 12  1  0  0  0  0
  9 22  1  0  0  0  0
  9 14  1  1  0  0  0
 10 21  2  0  0  0  0
 11 28  1  6  0  0  0
 11  5  1  0  0  0  0
 11  8  1  0  0  0  0
 12 27  1  6  0  0  0
 12  4  1  0  0  0  0
 13 18  1  0  0  0  0
 15 23  1  0  0  0  0
 16  2  1  0  0  0  0
 17  3  1  0  0  0  0
 18 25  2  0  0  0  0
 19 26  1  0  0  0  0
 20 17  1  0  0  0  0
 22 20  1  6  0  0  0
 22 10  1  0  0  0  0
 23 14  1  0  0  0  0
 26 25  1  0  0  0  0
 26 17  2  0  0  0  0
 27 24  2  0  0  0  0
 27  7  1  0  0  0  0
 29 30  1  0  0  0  0
 30 28  1  0  0  0  0
M  END
>  <MODEL>
7

>  <REMARK>
 VINA RESULT:      -8.3      2.258      5.582
  Name = 
  2 active torsions:
  status: ('A' for Active; 'I' for Inactive)
    1  A    between atoms: C_11  and  O_28
    2  A    between atoms: O_28  and  C_30
                            x       y       z     vdW  Elec       q    Type
                         _______ _______ _______ _____ _____    ______ ____

>  <TORSDO>
F 2

$$$$
=
 OpenBabel11112416223D

 30 35  0  0  1  0  0  0  0  0999 V2000
  187.1310  176.3500  142.0000 C   0  0  0  0  0  0  0  0  0  0  0  0
  185.3290  177.5860  140.7560 C   0  0  0  0  0  0  0  0  0  0  0  0
  185.4640  177.5060  145.6920 N   0  0  0  0  0  2  0  0  0  0  0  0
  187.6990  175.9650  143.2480 C   0  0  0  0  0  0  0  0  0  0  0  0
  187.8580  175.9910  140.7290 C   0  0  0  0  0  2  0  0  0  0  0  0
  190.4090  173.6550  142.0500 O   0  0  0  0  0  1  0  0  0  0  0  0
  189.9590  176.5810  145.0900 C   0  0  1  0  0  3  0  0  0  0  0  0
  189.6190  174.8050  141.9950 C   0  0  1  0  0  3  0  0  0  0  0  0
  188.8520  176.8680  146.1080 C   0  0  2  0  0  3  0  0  0  0  0  0
  186.4030  176.8770  146.5590 C   0  0  0  0  0  0  0  0  0  0  0  0
  188.6280  174.6860  140.8450 C   0  0  2  0  0  3  0  0  0  0  0  0
  188.8650  174.9780  143.3170 C   0  0  1  0  0  3  0  0  0  0  0  0
  184.1790  178.3790  140.7940 C   0  0  0  0  0  3  0  0  0  0  0  0
  189.4330  176.4820  147.4490 C   0  0  0  0  0  2  0  0  0  0  0  0
  191.2670  176.7220  145.8590 C   0  0  0  0  0  2  0  0  0  0  0  0
  185.8230  177.2300  139.5060 O   0  0  0  0  0  1  0  0  0  0  0  0
  185.9380  177.1750  144.3950 C   0  0  0  0  0  0  0  0  0  0  0  0
  183.6170  178.7670  142.0080 C   0  0  0  0  0  3  0  0  0  0  0  0
  185.9510  177.1630  141.9650 C   0  0  0  0  0  0  0  0  0  0  0  0
  187.0710  176.3990  144.4250 C   0  0  0  0  0  0  0  0  0  0  0  0
  186.2910  176.9140  147.8120 O   0  0  0  0  0  0  0  0  0  0  0  0
  187.5100  176.1660  145.8390 C   0  0  1  0  0  3  0  0  0  0  0  0
  190.9130  176.7840  147.3380 C   0  0  0  0  0  2  0  0  0  0  0  0
  190.4330  174.2570  144.9230 O   0  0  0  0  0  0  0  0  0  0  0  0
  184.2030  178.3630  143.2040 C   0  0  0  0  0  3  0  0  0  0  0  0
  185.3540  177.5700  143.1950 C   0  0  0  0  0  0  0  0  0  0  0  0
  189.8240  175.2120  144.4620 C   0  0  0  0  0  0  0  0  0  0  0  0
  189.3080  174.4490  139.6470 O   0  0  0  0  0  0  0  0  0  0  0  0
  188.1190  172.4240  139.2850 C   0  0  0  0  0  1  0  0  0  0  0  0
  188.3670  173.8420  138.8150 C   0  0  0  0  0  2  0  0  0  0  0  0
  1  4  1  0  0  0  0
  2 13  2  0  0  0  0
  2 19  1  0  0  0  0
  3 10  1  0  0  0  0
  4 20  2  0  0  0  0
  5 11  1  0  0  0  0
  5  1  1  0  0  0  0
  7 15  1  1  0  0  0
  7  9  1  0  0  0  0
  8  6  1  1  0  0  0
  8 12  1  0  0  0  0
  9 14  1  1  0  0  0
 10 21  2  0  0  0  0
 11 28  1  6  0  0  0
 11  8  1  0  0  0  0
 12  4  1  6  0  0  0
 12 27  1  0  0  0  0
 13 18  1  0  0  0  0
 15 23  1  0  0  0  0
 16  2  1  0  0  0  0
 17 20  1  0  0  0  0
 17  3  1  0  0  0  0
 18 25  2  0  0  0  0
 19  1  2  0  0  0  0
 19 26  1  0  0  0  0
 22 20  1  6  0  0  0
 22  9  1  0  0  0  0
 22 10  1  0  0  0  0
 23 14  1  0  0  0  0
 26 25  1  0  0  0  0
 26 17  2  0  0  0  0
 27 24  2  0  0  0  0
 27  7  1  0  0  0  0
 30 29  1  0  0  0  0
 30 28  1  0  0  0  0
M  END
>  <MODEL>
8

>  <REMARK>
 VINA RESULT:      -8.3      1.551      5.545
  Name = 
  2 active torsions:
  status: ('A' for Active; 'I' for Inactive)
    1  A    between atoms: C_11  and  O_28
    2  A    between atoms: O_28  and  C_30
                            x       y       z     vdW  Elec       q    Type
                         _______ _______ _______ _____ _____    ______ ____

>  <TORSDO>
F 2

$$$$
=
 OpenBabel11112416223D

 30 35  0  0  1  0  0  0  0  0999 V2000
  187.6270  177.0570  144.0610 C   0  0  0  0  0  0  0  0  0  0  0  0
  185.8310  178.4540  145.1310 C   0  0  0  0  0  0  0  0  0  0  0  0
  189.5340  176.5440  147.7830 N   0  0  0  0  0  2  0  0  0  0  0  0
  188.8240  176.2990  144.2070 C   0  0  0  0  0  0  0  0  0  0  0  0
  187.0770  177.2870  142.6770 C   0  0  0  0  0  2  0  0  0  0  0  0
  189.1660  174.9350  140.7230 O   0  0  0  0  0  1  0  0  0  0  0  0
  191.7620  176.4350  143.7270 C   0  0  1  0  0  3  0  0  0  0  0  0
  188.8740  175.9230  141.6660 C   0  0  1  0  0  3  0  0  0  0  0  0
  191.8670  176.1900  145.2350 C   0  0  2  0  0  3  0  0  0  0  0  0
  190.6340  175.7490  147.3530 C   0  0  0  0  0  0  0  0  0  0  0  0
  187.3670  176.1310  141.7330 C   0  0  2  0  0  3  0  0  0  0  0  0
  189.4040  175.5000  143.0410 C   0  0  1  0  0  3  0  0  0  0  0  0
  185.2980  179.0370  146.2840 C   0  0  0  0  0  3  0  0  0  0  0  0
  193.1410  175.3980  145.4240 C   0  0  0  0  0  2  0  0  0  0  0  0
  193.1960  176.4260  143.2120 C   0  0  0  0  0  2  0  0  0  0  0  0
  185.1480  178.6520  143.9370 O   0  0  0  0  0  1  0  0  0  0  0  0
  188.8090  176.7810  146.5850 C   0  0  0  0  0  0  0  0  0  0  0  0
  185.9180  178.8740  147.5200 C   0  0  0  0  0  3  0  0  0  0  0  0
  187.0260  177.6830  145.2010 C   0  0  0  0  0  0  0  0  0  0  0  0
  189.3850  176.1860  145.4880 C   0  0  0  0  0  0  0  0  0  0  0  0
  191.4930  175.2990  148.1560 O   0  0  0  0  0  0  0  0  0  0  0  0
  190.6560  175.4910  145.8760 C   0  0  1  0  0  3  0  0  0  0  0  0
  194.0720  175.8870  144.3340 C   0  0  0  0  0  2  0  0  0  0  0  0
  191.4300  174.4140  142.5190 O   0  0  0  0  0  0  0  0  0  0  0  0
  187.0840  178.1210  147.6180 C   0  0  0  0  0  3  0  0  0  0  0  0
  187.6390  177.5270  146.4800 C   0  0  0  0  0  0  0  0  0  0  0  0
  190.9110  175.3950  143.0320 C   0  0  0  0  0  0  0  0  0  0  0  0
  186.8680  176.4400  140.4650 O   0  0  0  0  0  0  0  0  0  0  0  0
  185.0340  177.9160  140.1380 C   0  0  0  0  0  1  0  0  0  0  0  0
  186.4850  177.7790  140.5480 C   0  0  0  0  0  2  0  0  0  0  0  0
  1  4  2  0  0  0  0
  1 19  1  0  0  0  0
  2 19  2  0  0  0  0
  2 13  1  0  0  0  0
  4 20  1  0  0  0  0
  5  1  1  0  0  0  0
  7 15  1  6  0  0  0
  7  9  1  0  0  0  0
  8  6  1  6  0  0  0
  8 11  1  0  0  0  0
  8 12  1  0  0  0  0
  9 14  1  6  0  0  0
  9 22  1  0  0  0  0
 10  3  1  0  0  0  0
 10 21  2  0  0  0  0
 11 28  1  6  0  0  0
 11  5  1  0  0  0  0
 12 27  1  6  0  0  0
 12  4  1  0  0  0  0
 13 18  2  0  0  0  0
 15 23  1  0  0  0  0
 16  2  1  0  0  0  0
 17  3  1  0  0  0  0
 18 25  1  0  0  0  0
 19 26  1  0  0  0  0
 20 17  2  0  0  0  0
 22 20  1  6  0  0  0
 22 10  1  0  0  0  0
 23 14  1  0  0  0  0
 24 27  2  0  0  0  0
 26 17  1  0  0  0  0
 26 25  2  0  0  0  0
 27  7  1  0  0  0  0
 28 30  1  0  0  0  0
 29 30  1  0  0  0  0
M  END
>  <MODEL>
9

>  <REMARK>
 VINA RESULT:      -8.1      2.362      5.382
  Name = 
  2 active torsions:
  status: ('A' for Active; 'I' for Inactive)
    1  A    between atoms: C_11  and  O_28
    2  A    between atoms: O_28  and  C_30
                            x       y       z     vdW  Elec       q    Type
                         _______ _______ _______ _____ _____    ______ ____

>  <TORSDO>
F 2

$$$$
