=
 OpenBabel11112417003D

 31 35  0  0  1  0  0  0  0  0999 V2000
  184.7980  178.3420  146.7930 C   0  0  0  0  0  0  0  0  0  0  0  0
  187.3480  175.8900  145.3880 C   0  0  2  0  0  3  0  0  0  0  0  0
  187.5020  176.2380  143.9140 C   0  0  0  0  0  0  0  0  0  0  0  0
  186.6650  177.2830  141.8810 C   0  0  0  0  0  0  0  0  0  0  0  0
  186.7380  177.0130  146.1900 C   0  0  0  0  0  0  0  0  0  0  0  0
  185.5980  179.1490  147.6060 C   0  0  0  0  0  3  0  0  0  0  0  0
  186.5280  176.9940  143.2410 C   0  0  0  0  0  3  0  0  0  0  0  0
  189.5510  176.6410  146.2080 N   0  0  0  0  0  0  0  0  0  0  0  0
  183.4710  178.5950  146.6850 F   0  0  0  0  0  0  0  0  0  0  0  0
  189.5590  174.9360  143.8080 O   0  0  0  0  0  0  0  0  0  0  0  0
  185.6330  178.0970  141.1870 C   0  0  0  0  0  1  0  0  0  0  0  0
  188.9790  177.4750  147.2700 C   0  0  0  0  0  2  0  0  0  0  0  0
  188.6920  175.4610  146.0190 C   0  0  2  0  0  3  0  0  0  0  0  0
  185.3650  177.2760  146.0910 C   0  0  0  0  0  3  0  0  0  0  0  0
  187.7710  176.8060  141.1740 C   0  0  0  0  0  3  0  0  0  0  0  0
  187.5420  177.8270  147.0120 C   0  0  0  0  0  0  0  0  0  0  0  0
  186.9660  178.8850  147.7230 C   0  0  0  0  0  3  0  0  0  0  0  0
  189.3540  174.4120  145.1170 C   0  0  0  0  0  2  0  0  0  0  0  0
  188.5960  175.7300  143.1820 C   0  0  0  0  0  0  0  0  0  0  0  0
  188.7330  176.0300  141.8230 C   0  0  0  0  0  3  0  0  0  0  0  0
  191.9550  177.0110  144.8280 O   0  0  0  0  0  0  0  0  0  0  0  0
  191.9970  176.4220  145.9430 C   0  0  0  0  0  0  0  0  0  0  0  0
  190.7980  176.2030  146.6850 N   0  0  0  0  0  2  0  0  0  0  0  0
  195.5340  176.2510  144.5960 C   0  0  1  0  0  3  0  0  0  0  0  0
  194.3290  177.0570  146.6460 C   0  0  0  0  0  2  0  0  0  0  0  0
  192.9340  173.7430  145.5320 O   0  0  0  0  0  1  0  0  0  0  0  0
  196.0520  176.6380  143.3760 F   0  0  0  0  0  0  0  0  0  0  0  0
  194.9190  177.4610  145.2950 C   0  0  0  0  0  2  0  0  0  0  0  0
  193.8920  174.7390  145.7240 C   0  0  2  0  0  3  0  0  0  0  0  0
  193.3020  175.9280  146.5000 C   0  0  2  0  0  3  0  0  0  0  0  0
  194.4770  175.1730  144.3810 C   0  0  0  0  0  2  0  0  0  0  0  0
  1  6  1  0  0  0  0
  2  3  1  6  0  0  0
  2 13  1  0  0  0  0
  2  5  1  0  0  0  0
  4  7  2  0  0  0  0
  5 16  2  0  0  0  0
  6 17  2  0  0  0  0
  7  3  1  0  0  0  0
  8 23  1  0  0  0  0
  8 12  1  0  0  0  0
  9  1  1  0  0  0  0
 10 18  1  0  0  0  0
 11  4  1  0  0  0  0
 13 18  1  6  0  0  0
 13  8  1  0  0  0  0
 14  5  1  0  0  0  0
 14  1  2  0  0  0  0
 15 20  2  0  0  0  0
 15  4  1  0  0  0  0
 16 12  1  0  0  0  0
 16 17  1  0  0  0  0
 19 10  1  0  0  0  0
 19  3  2  0  0  0  0
 20 19  1  0  0  0  0
 21 22  2  0  0  0  0
 22 23  1  0  0  0  0
 24 27  1  6  0  0  0
 24 28  1  0  0  0  0
 28 25  1  0  0  0  0
 29 26  1  6  0  0  0
 29 30  1  0  0  0  0
 30 22  1  6  0  0  0
 30 25  1  0  0  0  0
 31 24  1  0  0  0  0
 31 29  1  0  0  0  0
M  END
>  <MODEL>
1

>  <REMARK>
 VINA RESULT:      -8.9      0.000      0.000
  Name = 
  2 active torsions:
  status: ('A' for Active; 'I' for Inactive)
    1  A    between atoms: C_5  and  C_30
    2  A    between atoms: N_10  and  N_16
                            x       y       z     vdW  Elec       q    Type
                         _______ _______ _______ _____ _____    ______ ____

>  <TORSDO>
F 2

$$$$
=
 OpenBabel11112417003D

 31 35  0  0  1  0  0  0  0  0999 V2000
  184.9990  177.8460  146.9010 C   0  0  0  0  0  0  0  0  0  0  0  0
  187.3250  175.8480  144.6460 C   0  0  2  0  0  3  0  0  0  0  0  0
  187.1120  176.3860  143.2380 C   0  0  0  0  0  0  0  0  0  0  0  0
  185.7610  177.5800  141.6020 C   0  0  0  0  0  0  0  0  0  0  0  0
  186.8380  176.8000  145.7110 C   0  0  0  0  0  0  0  0  0  0  0  0
  185.9060  178.6260  147.6250 C   0  0  0  0  0  3  0  0  0  0  0  0
  185.9600  177.1160  142.9050 C   0  0  0  0  0  3  0  0  0  0  0  0
  189.5990  176.7110  145.0640 N   0  0  0  0  0  0  0  0  0  0  0  0
  183.6680  177.9770  147.1210 F   0  0  0  0  0  0  0  0  0  0  0  0
  189.1770  175.3180  142.5050 O   0  0  0  0  0  0  0  0  0  0  0  0
  184.5440  178.3650  141.2700 C   0  0  0  0  0  1  0  0  0  0  0  0
  189.2280  177.3500  146.3310 C   0  0  0  0  0  2  0  0  0  0  0  0
  188.8050  175.4830  144.9030 C   0  0  2  0  0  3  0  0  0  0  0  0
  185.4630  176.9350  145.9500 C   0  0  0  0  0  3  0  0  0  0  0  0
  186.7070  177.3050  140.6110 C   0  0  0  0  0  3  0  0  0  0  0  0
  187.7500  177.5850  146.4440 C   0  0  0  0  0  0  0  0  0  0  0  0
  187.2780  178.4860  147.4040 C   0  0  0  0  0  3  0  0  0  0  0  0
  189.3150  174.6220  143.7410 C   0  0  0  0  0  2  0  0  0  0  0  0
  188.0430  176.0810  142.2210 C   0  0  0  0  0  0  0  0  0  0  0  0
  187.8440  176.5560  140.9200 C   0  0  0  0  0  3  0  0  0  0  0  0
  191.6980  178.0690  143.8100 O   0  0  0  0  0  0  0  0  0  0  0  0
  191.9840  177.0760  144.5340 C   0  0  0  0  0  0  0  0  0  0  0  0
  190.9500  176.3450  145.1910 N   0  0  0  0  0  2  0  0  0  0  0  0
  193.6490  173.7300  145.1510 C   0  0  1  0  0  3  0  0  0  0  0  0
  193.8560  175.6850  143.5890 C   0  0  0  0  0  2  0  0  0  0  0  0
  193.2420  176.8840  147.1040 O   0  0  0  0  0  1  0  0  0  0  0  0
  193.1060  172.4690  145.3020 F   0  0  0  0  0  0  0  0  0  0  0  0
  193.2750  174.2830  143.7780 C   0  0  0  0  0  2  0  0  0  0  0  0
  193.7120  176.0460  146.0910 C   0  0  2  0  0  3  0  0  0  0  0  0
  193.4100  176.6380  144.7040 C   0  0  2  0  0  3  0  0  0  0  0  0
  193.1230  174.6460  146.2500 C   0  0  0  0  0  2  0  0  0  0  0  0
  1  9  1  0  0  0  0
  1  6  1  0  0  0  0
  2  3  1  6  0  0  0
  2 13  1  0  0  0  0
  2  5  1  0  0  0  0
  4  7  2  0  0  0  0
  5 14  1  0  0  0  0
  5 16  2  0  0  0  0
  7  3  1  0  0  0  0
  8 23  1  0  0  0  0
  8 12  1  0  0  0  0
 10 18  1  0  0  0  0
 11  4  1  0  0  0  0
 12 16  1  0  0  0  0
 13 18  1  6  0  0  0
 13  8  1  0  0  0  0
 14  1  2  0  0  0  0
 15 20  2  0  0  0  0
 15  4  1  0  0  0  0
 16 17  1  0  0  0  0
 17  6  2  0  0  0  0
 19 10  1  0  0  0  0
 19  3  2  0  0  0  0
 20 19  1  0  0  0  0
 21 22  2  0  0  0  0
 22 23  1  0  0  0  0
 24 27  1  1  0  0  0
 24 31  1  0  0  0  0
 25 28  1  0  0  0  0
 25 30  1  0  0  0  0
 28 24  1  0  0  0  0
 29 31  1  0  0  0  0
 29 26  1  1  0  0  0
 30 22  1  1  0  0  0
 30 29  1  0  0  0  0
M  END
>  <MODEL>
2

>  <REMARK>
 VINA RESULT:      -8.6      1.560      1.933
  Name = 
  2 active torsions:
  status: ('A' for Active; 'I' for Inactive)
    1  A    between atoms: C_5  and  C_30
    2  A    between atoms: N_10  and  N_16
                            x       y       z     vdW  Elec       q    Type
                         _______ _______ _______ _____ _____    ______ ____

>  <TORSDO>
F 2

$$$$
=
 OpenBabel11112417003D

 31 35  0  0  1  0  0  0  0  0999 V2000
  194.3340  176.4690  145.1690 C   0  0  0  0  0  0  0  0  0  0  0  0
  190.9440  177.1050  143.5580 C   0  0  2  0  0  3  0  0  0  0  0  0
  190.6350  175.8700  142.7230 C   0  0  0  0  0  0  0  0  0  0  0  0
  191.3600  173.8670  141.5460 C   0  0  0  0  0  0  0  0  0  0  0  0
  192.0040  176.8500  144.6010 C   0  0  0  0  0  0  0  0  0  0  0  0
  193.9820  176.2920  146.5090 C   0  0  0  0  0  3  0  0  0  0  0  0
  191.6510  174.9810  142.3370 C   0  0  0  0  0  3  0  0  0  0  0  0
  189.2660  176.8090  145.3440 N   0  0  0  0  0  0  0  0  0  0  0  0
  195.6300  176.3650  144.7900 F   0  0  0  0  0  0  0  0  0  0  0  0
  188.2960  176.5390  142.5780 O   0  0  0  0  0  0  0  0  0  0  0  0
  192.4440  172.9270  141.1600 C   0  0  0  0  0  1  0  0  0  0  0  0
  190.2510  176.9360  146.4220 C   0  0  0  0  0  2  0  0  0  0  0  0
  189.6740  177.6770  144.2270 C   0  0  2  0  0  3  0  0  0  0  0  0
  193.3490  176.7500  144.2190 C   0  0  0  0  0  3  0  0  0  0  0  0
  190.0510  173.6370  141.1170 C   0  0  0  0  0  3  0  0  0  0  0  0
  191.6530  176.6740  145.9540 C   0  0  0  0  0  0  0  0  0  0  0  0
  192.6460  176.4050  146.9020 C   0  0  0  0  0  3  0  0  0  0  0  0
  188.5690  177.8050  143.1720 C   0  0  0  0  0  2  0  0  0  0  0  0
  189.3220  175.6500  142.2520 C   0  0  0  0  0  0  0  0  0  0  0  0
  189.0350  174.5280  141.4690 C   0  0  0  0  0  3  0  0  0  0  0  0
  187.7650  175.4860  147.2970 O   0  0  0  0  0  0  0  0  0  0  0  0
  187.3300  176.5870  146.8620 C   0  0  0  0  0  0  0  0  0  0  0  0
  188.0550  177.3000  145.8600 N   0  0  0  0  0  2  0  0  0  0  0  0
  184.8980  179.1800  145.5530 C   0  0  1  0  0  3  0  0  0  0  0  0
  184.8590  176.8360  146.4510 C   0  0  0  0  0  2  0  0  0  0  0  0
  187.2250  178.9640  148.4630 O   0  0  0  0  0  1  0  0  0  0  0  0
  184.9250  179.9370  144.3980 F   0  0  0  0  0  0  0  0  0  0  0  0
  184.8790  177.6980  145.1880 C   0  0  0  0  0  2  0  0  0  0  0  0
  186.1100  178.6650  147.6790 C   0  0  2  0  0  3  0  0  0  0  0  0
  186.0390  177.1580  147.3750 C   0  0  2  0  0  3  0  0  0  0  0  0
  186.1250  179.5000  146.4000 C   0  0  0  0  0  2  0  0  0  0  0  0
  1  6  1  0  0  0  0
  2  3  1  1  0  0  0
  2 13  1  0  0  0  0
  2  5  1  0  0  0  0
  4  7  2  0  0  0  0
  5 16  2  0  0  0  0
  6 17  2  0  0  0  0
  7  3  1  0  0  0  0
  8 23  1  0  0  0  0
  8 12  1  0  0  0  0
  9  1  1  0  0  0  0
 10 18  1  0  0  0  0
 11  4  1  0  0  0  0
 13 18  1  6  0  0  0
 13  8  1  0  0  0  0
 14  5  1  0  0  0  0
 14  1  2  0  0  0  0
 15 20  2  0  0  0  0
 15  4  1  0  0  0  0
 16 12  1  0  0  0  0
 16 17  1  0  0  0  0
 19 10  1  0  0  0  0
 19  3  2  0  0  0  0
 20 19  1  0  0  0  0
 22 21  2  0  0  0  0
 23 22  1  0  0  0  0
 24 27  1  6  0  0  0
 24 31  1  0  0  0  0
 25 30  1  0  0  0  0
 28 24  1  0  0  0  0
 28 25  1  0  0  0  0
 29 26  1  6  0  0  0
 30 22  1  6  0  0  0
 30 29  1  0  0  0  0
 31 29  1  0  0  0  0
M  END
>  <MODEL>
3

>  <REMARK>
 VINA RESULT:      -8.5      2.345      6.986
  Name = 
  2 active torsions:
  status: ('A' for Active; 'I' for Inactive)
    1  A    between atoms: C_5  and  C_30
    2  A    between atoms: N_10  and  N_16
                            x       y       z     vdW  Elec       q    Type
                         _______ _______ _______ _____ _____    ______ ____

>  <TORSDO>
F 2

$$$$
=
 OpenBabel11112417003D

 31 35  0  0  1  0  0  0  0  0999 V2000
  186.4030  177.9160  140.7610 C   0  0  0  0  0  0  0  0  0  0  0  0
  188.8410  177.7940  143.6820 C   0  0  2  0  0  3  0  0  0  0  0  0
  187.9970  177.5660  144.9280 C   0  0  0  0  0  0  0  0  0  0  0  0
  185.8580  177.6460  146.0870 C   0  0  0  0  0  0  0  0  0  0  0  0
  188.1140  177.4250  142.4120 C   0  0  0  0  0  0  0  0  0  0  0  0
  186.6910  176.7180  140.1000 C   0  0  0  0  0  3  0  0  0  0  0  0
  186.6180  177.8310  144.9290 C   0  0  0  0  0  3  0  0  0  0  0  0
  189.9630  175.5990  143.5520 N   0  0  0  0  0  0  0  0  0  0  0  0
  185.4320  178.7330  140.2870 F   0  0  0  0  0  0  0  0  0  0  0  0
  189.9910  176.9300  146.1770 O   0  0  0  0  0  0  0  0  0  0  0  0
  184.3970  177.9160  146.0680 C   0  0  0  0  0  1  0  0  0  0  0  0
  189.5760  175.3760  142.1550 C   0  0  0  0  0  2  0  0  0  0  0  0
  190.1880  177.0400  143.7560 C   0  0  2  0  0  3  0  0  0  0  0  0
  187.1140  178.2690  141.9100 C   0  0  0  0  0  3  0  0  0  0  0  0
  186.4720  177.2060  147.2620 C   0  0  0  0  0  3  0  0  0  0  0  0
  188.4050  176.2200  141.7420 C   0  0  0  0  0  0  0  0  0  0  0  0
  187.6980  175.8780  140.5840 C   0  0  0  0  0  3  0  0  0  0  0  0
  190.8470  177.3280  145.1100 C   0  0  0  0  0  2  0  0  0  0  0  0
  188.6130  177.1590  146.1300 C   0  0  0  0  0  0  0  0  0  0  0  0
  187.8470  176.9660  147.2840 C   0  0  0  0  0  3  0  0  0  0  0  0
  190.2480  173.2320  145.0130 O   0  0  0  0  0  0  0  0  0  0  0  0
  191.2790  173.7260  144.4800 C   0  0  0  0  0  0  0  0  0  0  0  0
  191.1890  174.9360  143.7280 N   0  0  0  0  0  2  0  0  0  0  0  0
  194.8590  174.8940  144.0710 C   0  0  1  0  0  3  0  0  0  0  0  0
  193.4440  173.6940  145.7630 C   0  0  0  0  0  2  0  0  0  0  0  0
  192.6460  172.4720  142.2920 O   0  0  0  0  0  1  0  0  0  0  0  0
  195.3680  176.1250  143.7070 F   0  0  0  0  0  0  0  0  0  0  0  0
  194.0280  175.0430  145.3430 C   0  0  0  0  0  2  0  0  0  0  0  0
  193.4240  172.9840  143.3320 C   0  0  2  0  0  3  0  0  0  0  0  0
  192.6160  173.0610  144.6380 C   0  0  2  0  0  3  0  0  0  0  0  0
  193.9980  174.3440  142.9400 C   0  0  0  0  0  2  0  0  0  0  0  0
  1 14  1  0  0  0  0
  2  5  1  6  0  0  0
  2 13  1  0  0  0  0
  2  3  1  0  0  0  0
  3  7  2  0  0  0  0
  3 19  1  0  0  0  0
  4 15  2  0  0  0  0
  6 17  1  0  0  0  0
  6  1  2  0  0  0  0
  7  4  1  0  0  0  0
  8 23  1  0  0  0  0
  8 13  1  0  0  0  0
  9  1  1  0  0  0  0
 11  4  1  0  0  0  0
 12  8  1  0  0  0  0
 13 18  1  1  0  0  0
 14  5  2  0  0  0  0
 15 20  1  0  0  0  0
 16 12  1  0  0  0  0
 16  5  1  0  0  0  0
 17 16  2  0  0  0  0
 18 10  1  0  0  0  0
 19 10  1  0  0  0  0
 19 20  2  0  0  0  0
 22 21  2  0  0  0  0
 23 22  1  0  0  0  0
 24 27  1  6  0  0  0
 24 28  1  0  0  0  0
 28 25  1  0  0  0  0
 29 26  1  6  0  0  0
 29 30  1  0  0  0  0
 30 22  1  6  0  0  0
 30 25  1  0  0  0  0
 31 29  1  0  0  0  0
 31 24  1  0  0  0  0
M  END
>  <MODEL>
4

>  <REMARK>
 VINA RESULT:      -8.2      2.126      4.340
  Name = 
  2 active torsions:
  status: ('A' for Active; 'I' for Inactive)
    1  A    between atoms: C_5  and  C_30
    2  A    between atoms: N_10  and  N_16
                            x       y       z     vdW  Elec       q    Type
                         _______ _______ _______ _____ _____    ______ ____

>  <TORSDO>
F 2

$$$$
=
 OpenBabel11112417003D

 31 35  0  0  1  0  0  0  0  0999 V2000
  191.8120  173.2970  141.5380 C   0  0  0  0  0  0  0  0  0  0  0  0
  191.0500  174.0600  145.1890 C   0  0  2  0  0  3  0  0  0  0  0  0
  192.0940  175.0730  145.6350 C   0  0  0  0  0  0  0  0  0  0  0  0
  194.2550  176.1590  145.3560 C   0  0  0  0  0  0  0  0  0  0  0  0
  190.9170  173.9860  143.6870 C   0  0  0  0  0  0  0  0  0  0  0  0
  190.7360  173.9090  140.8890 C   0  0  0  0  0  3  0  0  0  0  0  0
  193.2910  175.2470  144.9200 C   0  0  0  0  0  3  0  0  0  0  0  0
  189.0560  175.5160  145.1870 N   0  0  0  0  0  0  0  0  0  0  0  0
  192.7710  172.6710  140.8140 F   0  0  0  0  0  0  0  0  0  0  0  0
  190.7480  175.6160  147.5940 O   0  0  0  0  0  0  0  0  0  0  0  0
  195.5080  176.3430  144.5790 C   0  0  0  0  0  1  0  0  0  0  0  0
  188.6820  175.1630  143.8140 C   0  0  0  0  0  2  0  0  0  0  0  0
  189.6700  174.3400  145.8260 C   0  0  2  0  0  3  0  0  0  0  0  0
  191.9010  173.3320  142.9320 C   0  0  0  0  0  3  0  0  0  0  0  0
  194.0410  176.8980  146.5220 C   0  0  0  0  0  3  0  0  0  0  0  0
  189.8320  174.6000  143.0310 C   0  0  0  0  0  0  0  0  0  0  0  0
  189.7430  174.5490  141.6360 C   0  0  0  0  0  3  0  0  0  0  0  0
  189.8490  174.5410  147.3360 C   0  0  0  0  0  2  0  0  0  0  0  0
  191.9050  175.7970  146.8320 C   0  0  0  0  0  0  0  0  0  0  0  0
  192.8690  176.7160  147.2590 C   0  0  0  0  0  3  0  0  0  0  0  0
  188.6320  177.8430  146.6790 O   0  0  0  0  0  0  0  0  0  0  0  0
  187.6890  177.0080  146.6020 C   0  0  0  0  0  0  0  0  0  0  0  0
  187.8560  175.8020  145.8580 N   0  0  0  0  0  2  0  0  0  0  0  0
  184.6000  179.0310  145.7570 C   0  0  1  0  0  3  0  0  0  0  0  0
  185.1910  176.7110  146.5130 C   0  0  0  0  0  2  0  0  0  0  0  0
  187.2820  179.2510  148.3430 O   0  0  0  0  0  1  0  0  0  0  0  0
  184.3080  179.8100  144.6550 F   0  0  0  0  0  0  0  0  0  0  0  0
  184.8560  177.5940  145.3100 C   0  0  0  0  0  2  0  0  0  0  0  0
  186.1650  178.7340  147.6840 C   0  0  2  0  0  3  0  0  0  0  0  0
  186.3850  177.2600  147.3030 C   0  0  2  0  0  3  0  0  0  0  0  0
  185.8290  179.5900  146.4650 C   0  0  0  0  0  2  0  0  0  0  0  0
  1 14  1  0  0  0  0
  2  5  1  6  0  0  0
  2  3  1  0  0  0  0
  2 13  1  0  0  0  0
  3 19  1  0  0  0  0
  4 15  2  0  0  0  0
  6  1  2  0  0  0  0
  6 17  1  0  0  0  0
  7  4  1  0  0  0  0
  7  3  2  0  0  0  0
  8 13  1  0  0  0  0
  8 23  1  0  0  0  0
  9  1  1  0  0  0  0
 11  4  1  0  0  0  0
 12  8  1  0  0  0  0
 13 18  1  1  0  0  0
 14  5  2  0  0  0  0
 15 20  1  0  0  0  0
 16  5  1  0  0  0  0
 16 12  1  0  0  0  0
 17 16  2  0  0  0  0
 18 10  1  0  0  0  0
 19 20  2  0  0  0  0
 19 10  1  0  0  0  0
 22 21  2  0  0  0  0
 23 22  1  0  0  0  0
 24 27  1  6  0  0  0
 24 31  1  0  0  0  0
 25 30  1  0  0  0  0
 28 24  1  0  0  0  0
 28 25  1  0  0  0  0
 29 26  1  6  0  0  0
 30 22  1  6  0  0  0
 30 29  1  0  0  0  0
 31 29  1  0  0  0  0
M  END
>  <MODEL>
5

>  <REMARK>
 VINA RESULT:      -7.8      2.435      7.661
  Name = 
  2 active torsions:
  status: ('A' for Active; 'I' for Inactive)
    1  A    between atoms: C_5  and  C_30
    2  A    between atoms: N_10  and  N_16
                            x       y       z     vdW  Elec       q    Type
                         _______ _______ _______ _____ _____    ______ ____

>  <TORSDO>
F 2

$$$$
=
 OpenBabel11112417003D

 31 35  0  0  1  0  0  0  0  0999 V2000
  193.3560  172.4590  140.3790 C   0  0  0  0  0  0  0  0  0  0  0  0
  191.5180  173.5810  143.5190 C   0  0  2  0  0  3  0  0  0  0  0  0
  192.3100  174.7550  144.0760 C   0  0  0  0  0  0  0  0  0  0  0  0
  194.3720  176.0370  144.2390 C   0  0  0  0  0  0  0  0  0  0  0  0
  191.8300  173.3040  142.0680 C   0  0  0  0  0  0  0  0  0  0  0  0
  192.4700  172.8580  139.3740 C   0  0  0  0  0  3  0  0  0  0  0  0
  193.6450  174.9740  143.6990 C   0  0  0  0  0  3  0  0  0  0  0  0
  189.5070  174.7860  142.7470 N   0  0  0  0  0  0  0  0  0  0  0  0
  194.5260  171.8620  140.0520 F   0  0  0  0  0  0  0  0  0  0  0  0
  190.4200  175.3800  145.4810 O   0  0  0  0  0  0  0  0  0  0  0  0
  195.7790  176.2650  143.8190 C   0  0  0  0  0  1  0  0  0  0  0  0
  189.5720  174.2240  141.3940 C   0  0  0  0  0  2  0  0  0  0  0  0
  189.9950  173.7780  143.7010 C   0  0  2  0  0  3  0  0  0  0  0  0
  193.0350  172.6780  141.7210 C   0  0  0  0  0  3  0  0  0  0  0  0
  193.7760  176.8870  145.1740 C   0  0  0  0  0  3  0  0  0  0  0  0
  190.9380  173.7030  141.0530 C   0  0  0  0  0  0  0  0  0  0  0  0
  191.2590  173.4680  139.7120 C   0  0  0  0  0  3  0  0  0  0  0  0
  189.7160  174.1850  145.1530 C   0  0  0  0  0  2  0  0  0  0  0  0
  191.7300  175.5960  145.0490 C   0  0  0  0  0  0  0  0  0  0  0  0
  192.4580  176.6650  145.5800 C   0  0  0  0  0  3  0  0  0  0  0  0
  188.4330  177.3140  143.2720 O   0  0  0  0  0  0  0  0  0  0  0  0
  187.6480  176.3270  143.2670 C   0  0  0  0  0  0  0  0  0  0  0  0
  188.1460  175.0140  143.0100 N   0  0  0  0  0  2  0  0  0  0  0  0
  185.4550  179.3470  143.9140 C   0  0  1  0  0  3  0  0  0  0  0  0
  185.4840  177.3140  142.4420 C   0  0  0  0  0  2  0  0  0  0  0  0
  186.5840  176.4150  145.9290 O   0  0  0  0  0  1  0  0  0  0  0  0
  185.7690  180.6910  143.9760 F   0  0  0  0  0  0  0  0  0  0  0  0
  185.8140  178.8040  142.5330 C   0  0  0  0  0  2  0  0  0  0  0  0
  185.8900  177.1060  144.9330 C   0  0  2  0  0  3  0  0  0  0  0  0
  186.1830  176.5110  143.5450 C   0  0  2  0  0  3  0  0  0  0  0  0
  186.2250  178.5950  144.9930 C   0  0  0  0  0  2  0  0  0  0  0  0
  1 14  1  0  0  0  0
  2  5  1  6  0  0  0
  2 13  1  0  0  0  0
  2  3  1  0  0  0  0
  3 19  1  0  0  0  0
  4 15  2  0  0  0  0
  6 17  1  0  0  0  0
  6  1  2  0  0  0  0
  7  3  2  0  0  0  0
  7  4  1  0  0  0  0
  8 23  1  0  0  0  0
  8 13  1  0  0  0  0
  9  1  1  0  0  0  0
 11  4  1  0  0  0  0
 12  8  1  0  0  0  0
 13 18  1  1  0  0  0
 14  5  2  0  0  0  0
 15 20  1  0  0  0  0
 16 12  1  0  0  0  0
 16  5  1  0  0  0  0
 17 16  2  0  0  0  0
 18 10  1  0  0  0  0
 19 10  1  0  0  0  0
 19 20  2  0  0  0  0
 22 21  2  0  0  0  0
 23 22  1  0  0  0  0
 24 27  1  6  0  0  0
 24 31  1  0  0  0  0
 25 28  1  0  0  0  0
 25 30  1  0  0  0  0
 28 24  1  0  0  0  0
 29 31  1  0  0  0  0
 29 26  1  1  0  0  0
 30 22  1  6  0  0  0
 30 29  1  0  0  0  0
M  END
>  <MODEL>
6

>  <REMARK>
 VINA RESULT:      -7.7      2.939      8.122
  Name = 
  2 active torsions:
  status: ('A' for Active; 'I' for Inactive)
    1  A    between atoms: C_5  and  C_30
    2  A    between atoms: N_10  and  N_16
                            x       y       z     vdW  Elec       q    Type
                         _______ _______ _______ _____ _____    ______ ____

>  <TORSDO>
F 2

$$$$
=
 OpenBabel11112417003D

 31 35  0  0  1  0  0  0  0  0999 V2000
  186.3030  178.2890  147.6450 C   0  0  0  0  0  0  0  0  0  0  0  0
  188.0180  175.6630  145.4880 C   0  0  2  0  0  3  0  0  0  0  0  0
  187.7980  176.0930  144.0450 C   0  0  0  0  0  0  0  0  0  0  0  0
  186.5710  177.3650  142.3720 C   0  0  0  0  0  0  0  0  0  0  0  0
  187.8080  176.7910  146.4690 C   0  0  0  0  0  0  0  0  0  0  0  0
  187.3970  178.9410  148.2220 C   0  0  0  0  0  3  0  0  0  0  0  0
  186.7820  177.0000  143.7040 C   0  0  0  0  0  3  0  0  0  0  0  0
  190.4410  176.0970  145.6700 N   0  0  0  0  0  0  0  0  0  0  0  0
  185.0440  178.7000  147.9290 F   0  0  0  0  0  0  0  0  0  0  0  0
  189.5570  174.5730  143.3120 O   0  0  0  0  0  0  0  0  0  0  0  0
  185.5010  178.3380  142.0290 C   0  0  0  0  0  1  0  0  0  0  0  0
  190.3010  176.9160  146.8780 C   0  0  0  0  0  2  0  0  0  0  0  0
  189.4180  175.0400  145.6940 C   0  0  2  0  0  3  0  0  0  0  0  0
  186.5080  177.2160  146.7750 C   0  0  0  0  0  3  0  0  0  0  0  0
  187.3640  176.8140  141.3620 C   0  0  0  0  0  3  0  0  0  0  0  0
  188.9090  177.4480  147.0540 C   0  0  0  0  0  0  0  0  0  0  0  0
  188.6960  178.5130  147.9350 C   0  0  0  0  0  3  0  0  0  0  0  0
  189.6600  173.9870  144.6060 C   0  0  0  0  0  2  0  0  0  0  0  0
  188.5690  175.5140  143.0130 C   0  0  0  0  0  0  0  0  0  0  0  0
  188.3600  175.8890  141.6830 C   0  0  0  0  0  3  0  0  0  0  0  0
  192.4460  176.4050  143.7430 O   0  0  0  0  0  0  0  0  0  0  0  0
  192.6940  175.6810  144.7460 C   0  0  0  0  0  0  0  0  0  0  0  0
  191.7040  175.4870  145.7550 N   0  0  0  0  0  2  0  0  0  0  0  0
  196.1010  176.2160  143.1790 C   0  0  1  0  0  3  0  0  0  0  0  0
  195.0940  175.9380  145.4620 C   0  0  0  0  0  2  0  0  0  0  0  0
  193.5150  173.5290  143.0380 O   0  0  0  0  0  1  0  0  0  0  0  0
  196.5270  177.1420  142.2470 F   0  0  0  0  0  0  0  0  0  0  0  0
  195.5820  176.9420  144.4170 C   0  0  0  0  0  2  0  0  0  0  0  0
  194.5150  174.3280  143.5940 C   0  0  2  0  0  3  0  0  0  0  0  0
  194.0250  175.0000  144.8880 C   0  0  2  0  0  3  0  0  0  0  0  0
  194.9990  175.3540  142.5720 C   0  0  0  0  0  2  0  0  0  0  0  0
  1  9  1  0  0  0  0
  1  6  1  0  0  0  0
  2  3  1  6  0  0  0
  2 13  1  0  0  0  0
  2  5  1  0  0  0  0
  4  7  2  0  0  0  0
  5 14  1  0  0  0  0
  5 16  2  0  0  0  0
  7  3  1  0  0  0  0
  8 13  1  0  0  0  0
  8 23  1  0  0  0  0
  8 12  1  0  0  0  0
 10 18  1  0  0  0  0
 11  4  1  0  0  0  0
 12 16  1  0  0  0  0
 13 18  1  6  0  0  0
 14  1  2  0  0  0  0
 15 20  2  0  0  0  0
 15  4  1  0  0  0  0
 16 17  1  0  0  0  0
 17  6  2  0  0  0  0
 19 10  1  0  0  0  0
 19  3  2  0  0  0  0
 20 19  1  0  0  0  0
 21 22  2  0  0  0  0
 22 23  1  0  0  0  0
 24 27  1  6  0  0  0
 24 28  1  0  0  0  0
 28 25  1  0  0  0  0
 29 26  1  6  0  0  0
 29 30  1  0  0  0  0
 30 22  1  6  0  0  0
 30 25  1  0  0  0  0
 31 24  1  0  0  0  0
 31 29  1  0  0  0  0
M  END
>  <MODEL>
7

>  <REMARK>
 VINA RESULT:      -7.7      1.160      1.405
  Name = 
  2 active torsions:
  status: ('A' for Active; 'I' for Inactive)
    1  A    between atoms: C_5  and  C_30
    2  A    between atoms: N_10  and  N_16
                            x       y       z     vdW  Elec       q    Type
                         _______ _______ _______ _____ _____    ______ ____

>  <TORSDO>
F 2

$$$$
=
 OpenBabel11112417003D

 31 35  0  0  1  0  0  0  0  0999 V2000
  191.6270  171.1780  143.0520 C   0  0  0  0  0  0  0  0  0  0  0  0
  190.5810  173.7920  145.6150 C   0  0  2  0  0  3  0  0  0  0  0  0
  191.8220  174.6260  145.8980 C   0  0  0  0  0  0  0  0  0  0  0  0
  194.2390  174.9110  145.8770 C   0  0  0  0  0  0  0  0  0  0  0  0
  190.6820  173.0190  144.3220 C   0  0  0  0  0  0  0  0  0  0  0  0
  190.9540  171.6170  141.9090 C   0  0  0  0  0  3  0  0  0  0  0  0
  193.1050  174.1490  145.5860 C   0  0  0  0  0  3  0  0  0  0  0  0
  189.2450  175.4650  144.3860 N   0  0  0  0  0  0  0  0  0  0  0  0
  192.4160  170.0780  142.9930 F   0  0  0  0  0  0  0  0  0  0  0  0
  190.4410  176.3520  146.9250 O   0  0  0  0  0  0  0  0  0  0  0  0
  195.5890  174.3980  145.5270 C   0  0  0  0  0  1  0  0  0  0  0  0
  189.0060  174.5770  143.2440 C   0  0  0  0  0  2  0  0  0  0  0  0
  189.2980  174.6540  145.6130 C   0  0  2  0  0  3  0  0  0  0  0  0
  191.4890  171.8750  144.2550 C   0  0  0  0  0  3  0  0  0  0  0  0
  194.1030  176.1550  146.4980 C   0  0  0  0  0  3  0  0  0  0  0  0
  190.0030  173.4570  143.1680 C   0  0  0  0  0  0  0  0  0  0  0  0
  190.1350  172.7470  141.9700 C   0  0  0  0  0  3  0  0  0  0  0  0
  189.2810  175.5260  146.8750 C   0  0  0  0  0  2  0  0  0  0  0  0
  191.6990  175.8670  146.5590 C   0  0  0  0  0  0  0  0  0  0  0  0
  192.8360  176.6310  146.8400 C   0  0  0  0  0  3  0  0  0  0  0  0
  189.1200  177.9940  143.1980 O   0  0  0  0  0  0  0  0  0  0  0  0
  188.1110  177.5890  143.8370 C   0  0  0  0  0  0  0  0  0  0  0  0
  188.1250  176.3090  144.4670 N   0  0  0  0  0  2  0  0  0  0  0  0
  184.9300  177.3600  145.8810 C   0  0  1  0  0  3  0  0  0  0  0  0
  186.7300  179.0330  145.3690 C   0  0  0  0  0  2  0  0  0  0  0  0
  185.7620  177.1630  142.2480 O   0  0  0  0  0  1  0  0  0  0  0  0
  184.5100  176.4080  146.7890 F   0  0  0  0  0  0  0  0  0  0  0  0
  186.2380  177.9810  146.3630 C   0  0  0  0  0  2  0  0  0  0  0  0
  185.5940  177.7520  143.5030 C   0  0  2  0  0  3  0  0  0  0  0  0
  186.8860  178.4500  143.9600 C   0  0  2  0  0  3  0  0  0  0  0  0
  185.1250  176.7100  144.5160 C   0  0  0  0  0  2  0  0  0  0  0  0
  1 14  1  0  0  0  0
  2  5  1  6  0  0  0
  2  3  1  0  0  0  0
  3 19  1  0  0  0  0
  4 15  2  0  0  0  0
  6 17  1  0  0  0  0
  6  1  2  0  0  0  0
  7  4  1  0  0  0  0
  7  3  2  0  0  0  0
  8 23  1  0  0  0  0
  8 13  1  0  0  0  0
  9  1  1  0  0  0  0
 11  4  1  0  0  0  0
 12  8  1  0  0  0  0
 13  2  1  0  0  0  0
 13 18  1  1  0  0  0
 14  5  2  0  0  0  0
 15 20  1  0  0  0  0
 16 12  1  0  0  0  0
 16  5  1  0  0  0  0
 17 16  2  0  0  0  0
 18 10  1  0  0  0  0
 19 20  2  0  0  0  0
 19 10  1  0  0  0  0
 21 22  2  0  0  0  0
 22 23  1  0  0  0  0
 24 28  1  0  0  0  0
 24 27  1  1  0  0  0
 25 28  1  0  0  0  0
 29 26  1  6  0  0  0
 29 30  1  0  0  0  0
 29 31  1  0  0  0  0
 30 22  1  1  0  0  0
 30 25  1  0  0  0  0
 31 24  1  0  0  0  0
M  END
>  <MODEL>
8

>  <REMARK>
 VINA RESULT:      -7.7      2.639      7.735
  Name = 
  2 active torsions:
  status: ('A' for Active; 'I' for Inactive)
    1  A    between atoms: C_5  and  C_30
    2  A    between atoms: N_10  and  N_16
                            x       y       z     vdW  Elec       q    Type
                         _______ _______ _______ _____ _____    ______ ____

>  <TORSDO>
F 2

$$$$
=
 OpenBabel11112417003D

 31 35  0  0  1  0  0  0  0  0999 V2000
  184.8000  178.2530  146.1950 C   0  0  0  0  0  0  0  0  0  0  0  0
  186.8310  175.8200  144.0870 C   0  0  2  0  0  3  0  0  0  0  0  0
  186.7860  176.3550  142.6630 C   0  0  0  0  0  0  0  0  0  0  0  0
  185.7520  177.7360  140.9460 C   0  0  0  0  0  0  0  0  0  0  0  0
  186.4740  176.8670  145.1140 C   0  0  0  0  0  0  0  0  0  0  0  0
  185.7970  178.8730  146.9540 C   0  0  0  0  0  3  0  0  0  0  0  0
  185.8020  177.2730  142.2630 C   0  0  0  0  0  3  0  0  0  0  0  0
  189.2010  176.2680  144.6090 N   0  0  0  0  0  0  0  0  0  0  0  0
  183.5060  178.6260  146.3450 F   0  0  0  0  0  0  0  0  0  0  0  0
  188.6560  174.9170  142.0510 O   0  0  0  0  0  0  0  0  0  0  0  0
  184.7150  178.7190  140.5420 C   0  0  0  0  0  1  0  0  0  0  0  0
  188.8920  176.9910  145.8470 C   0  0  0  0  0  2  0  0  0  0  0  0
  188.2060  175.1990  144.4240 C   0  0  2  0  0  3  0  0  0  0  0  0
  185.1360  177.2520  145.2810 C   0  0  0  0  0  3  0  0  0  0  0  0
  186.6790  177.2730  140.0080 C   0  0  0  0  0  3  0  0  0  0  0  0
  187.4770  177.4910  145.8820 C   0  0  0  0  0  0  0  0  0  0  0  0
  187.1310  178.4840  146.8050 C   0  0  0  0  0  3  0  0  0  0  0  0
  188.6060  174.2350  143.3010 C   0  0  0  0  0  2  0  0  0  0  0  0
  187.6930  175.8660  141.6990 C   0  0  0  0  0  0  0  0  0  0  0  0
  187.6460  176.3390  140.3840 C   0  0  0  0  0  3  0  0  0  0  0  0
  191.3670  176.5830  142.8680 O   0  0  0  0  0  0  0  0  0  0  0  0
  191.5300  175.8660  143.8920 C   0  0  0  0  0  0  0  0  0  0  0  0
  190.4550  175.6680  144.8100 N   0  0  0  0  0  2  0  0  0  0  0  0
  194.4200  176.5820  146.2350 C   0  0  1  0  0  3  0  0  0  0  0  0
  192.9440  174.6570  145.5880 C   0  0  0  0  0  2  0  0  0  0  0  0
  193.9410  176.6190  142.5340 O   0  0  0  0  0  1  0  0  0  0  0  0
  194.6020  177.5950  147.1560 F   0  0  0  0  0  0  0  0  0  0  0  0
  193.1740  175.7800  146.6000 C   0  0  0  0  0  2  0  0  0  0  0  0
  194.0650  176.0730  143.8120 C   0  0  2  0  0  3  0  0  0  0  0  0
  192.8490  175.1960  144.1560 C   0  0  2  0  0  3  0  0  0  0  0  0
  194.2710  177.1830  144.8410 C   0  0  0  0  0  2  0  0  0  0  0  0
  1  9  1  0  0  0  0
  1  6  1  0  0  0  0
  2  3  1  6  0  0  0
  2 13  1  0  0  0  0
  2  5  1  0  0  0  0
  4  7  2  0  0  0  0
  5 14  1  0  0  0  0
  5 16  2  0  0  0  0
  7  3  1  0  0  0  0
  8 23  1  0  0  0  0
  8 12  1  0  0  0  0
 10 18  1  0  0  0  0
 11  4  1  0  0  0  0
 12 16  1  0  0  0  0
 13 18  1  6  0  0  0
 13  8  1  0  0  0  0
 14  1  2  0  0  0  0
 15 20  2  0  0  0  0
 15  4  1  0  0  0  0
 16 17  1  0  0  0  0
 17  6  2  0  0  0  0
 19 10  1  0  0  0  0
 19  3  2  0  0  0  0
 20 19  1  0  0  0  0
 21 22  2  0  0  0  0
 22 23  1  0  0  0  0
 24 28  1  0  0  0  0
 24 27  1  1  0  0  0
 25 28  1  0  0  0  0
 29 26  1  6  0  0  0
 29 30  1  0  0  0  0
 29 31  1  0  0  0  0
 30 22  1  1  0  0  0
 30 25  1  0  0  0  0
 31 24  1  0  0  0  0
M  END
>  <MODEL>
9

>  <REMARK>
 VINA RESULT:      -7.6      1.584      2.004
  Name = 
  2 active torsions:
  status: ('A' for Active; 'I' for Inactive)
    1  A    between atoms: C_5  and  C_30
    2  A    between atoms: N_10  and  N_16
                            x       y       z     vdW  Elec       q    Type
                         _______ _______ _______ _____ _____    ______ ____

>  <TORSDO>
F 2

$$$$
