=
 OpenBabel11112417133D

 37 42  0  0  1  0  0  0  0  0999 V2000
  189.5490  172.6010  138.8060 C   0  0  0  0  0  0  0  0  0  0  0  0
  188.1070  176.0180  140.7310 C   0  0  0  0  0  0  0  0  0  0  0  0
  186.4830  175.3130  143.1240 C   0  0  0  0  0  1  0  0  0  0  0  0
  187.9860  174.6230  138.7910 C   0  0  0  0  0  0  0  0  0  0  0  0
  188.7170  175.9790  142.0950 C   0  0  1  0  0  3  0  0  0  0  0  0
  188.5170  174.9360  140.0290 C   0  0  0  0  0  0  0  0  0  0  0  0
  187.6910  176.2470  143.2020 C   0  0  1  0  0  3  0  0  0  0  0  0
  187.0340  175.4490  138.2670 N   0  0  0  0  0  0  0  0  0  0  0  0
  189.3380  174.0750  140.7750 N   0  0  0  0  0  0  0  0  0  0  0  0
  190.8260  173.2220  138.2670 C   0  0  0  0  0  1  0  0  0  0  0  0
  186.4560  177.8990  141.0840 C   0  0  0  0  0  2  0  0  0  0  0  0
  186.5900  176.5520  138.9520 C   0  0  0  0  0  3  0  0  0  0  0  0
  189.5390  172.6940  140.3480 C   0  0  0  0  0  2  0  0  0  0  0  0
  187.1150  176.8630  140.2220 C   0  0  0  0  0  0  0  0  0  0  0  0
  189.3920  174.5730  142.1510 C   0  0  1  0  0  3  0  0  0  0  0  0
  188.3240  173.2970  138.1620 C   0  0  0  0  0  2  0  0  0  0  0  0
  187.3040  177.7450  143.2260 C   0  0  1  0  0  3  0  0  0  0  0  0
  189.5310  171.1400  138.4120 C   0  0  0  0  0  1  0  0  0  0  0  0
  187.3680  178.4560  142.0000 O   0  0  0  0  0  0  0  0  0  0  0  0
  191.4320  176.0290  142.8550 C   0  0  0  0  0  2  0  0  0  0  0  0
  191.9530  176.2130  144.2080 N   0  0  0  0  0  0  0  0  0  0  0  0
  190.7420  174.8410  145.7800 C   0  0  0  0  0  0  0  0  0  0  0  0
  190.8280  176.1860  145.1290 C   0  0  0  0  0  2  0  0  0  0  0  0
  190.5480  173.5770  144.9870 C   0  0  1  0  0  3  0  0  0  0  0  0
  189.1970  173.2540  144.8750 O   0  0  0  0  0  1  0  0  0  0  0  0
  191.2570  173.5310  143.6270 C   0  0  0  0  0  2  0  0  0  0  0  0
  190.7970  174.7720  146.9960 O   0  0  0  0  0  0  0  0  0  0  0  0
  190.8520  174.6220  142.6240 C   0  0  1  0  0  3  0  0  0  0  0  0
  191.4460  178.5640  143.8620 C   0  0  0  0  0  1  0  0  0  0  0  0
  192.5040  177.5570  144.2670 C   0  0  0  0  0  2  0  0  0  0  0  0
  185.0010  178.7060  143.6520 C   0  0  0  0  0  3  0  0  0  0  0  0
  186.1930  178.1580  144.1480 C   0  0  0  0  0  0  0  0  0  0  0  0
  186.3470  177.9680  145.5250 C   0  0  0  0  0  3  0  0  0  0  0  0
  185.4750  178.1450  147.7370 F   0  0  0  0  0  0  0  0  0  0  0  0
  184.1350  178.8790  145.9070 C   0  0  0  0  0  3  0  0  0  0  0  0
  185.3220  178.3290  146.4040 C   0  0  0  0  0  0  0  0  0  0  0  0
  183.9760  179.0670  144.5320 C   0  0  0  0  0  3  0  0  0  0  0  0
  1 13  1  0  0  0  0
  4  6  1  0  0  0  0
  5  2  1  6  0  0  0
  5 15  1  0  0  0  0
  5  7  1  0  0  0  0
  6  2  2  0  0  0  0
  6  9  1  0  0  0  0
  7  3  1  6  0  0  0
  7 17  1  0  0  0  0
  8  4  2  0  0  0  0
  8 12  1  0  0  0  0
 10  1  1  0  0  0  0
 11 19  1  0  0  0  0
 12 14  2  0  0  0  0
 13  9  1  0  0  0  0
 14  2  1  0  0  0  0
 14 11  1  0  0  0  0
 15  9  1  6  0  0  0
 15 28  1  0  0  0  0
 16  4  1  0  0  0  0
 16  1  1  0  0  0  0
 17 32  1  6  0  0  0
 18  1  1  0  0  0  0
 19 17  1  0  0  0  0
 20 21  1  0  0  0  0
 21 30  1  0  0  0  0
 21 23  1  0  0  0  0
 22 27  2  0  0  0  0
 23 22  1  0  0  0  0
 24 25  1  6  0  0  0
 24 22  1  0  0  0  0
 26 24  1  0  0  0  0
 28 20  1  1  0  0  0
 28 26  1  0  0  0  0
 29 30  1  0  0  0  0
 31 32  2  0  0  0  0
 31 37  1  0  0  0  0
 32 33  1  0  0  0  0
 33 36  2  0  0  0  0
 35 36  1  0  0  0  0
 36 34  1  0  0  0  0
 37 35  2  0  0  0  0
M  END
>  <MODEL>
1

>  <REMARK>
 VINA RESULT:      -7.8      0.000      0.000
  Name = 
  3 active torsions:
  status: ('A' for Active; 'I' for Inactive)
    1  A    between atoms: N_4  and  C_37
    2  A    between atoms: C_21  and  C_27
    3  A    between atoms: C_23  and  C_30
                            x       y       z     vdW  Elec       q    Type
                         _______ _______ _______ _____ _____    ______ ____

>  <TORSDO>
F 3

$$$$
=
 OpenBabel11112417133D

 37 42  0  0  1  0  0  0  0  0999 V2000
  195.6280  176.0490  142.5900 C   0  0  0  0  0  0  0  0  0  0  0  0
  192.2200  175.7400  144.9880 C   0  0  0  0  0  0  0  0  0  0  0  0
  190.0750  177.5900  144.0720 C   0  0  0  0  0  1  0  0  0  0  0  0
  194.5020  176.4460  144.8500 C   0  0  0  0  0  0  0  0  0  0  0  0
  191.1390  175.2750  144.0650 C   0  0  1  0  0  3  0  0  0  0  0  0
  193.3720  175.8760  144.2920 C   0  0  0  0  0  0  0  0  0  0  0  0
  189.8480  176.0870  144.2220 C   0  0  1  0  0  3  0  0  0  0  0  0
  194.4430  176.8630  146.1480 N   0  0  0  0  0  0  0  0  0  0  0  0
  193.2240  175.5990  142.9230 N   0  0  0  0  0  0  0  0  0  0  0  0
  196.0920  174.6120  142.7490 C   0  0  0  0  0  1  0  0  0  0  0  0
  190.8090  176.2950  147.0100 C   0  0  0  0  0  2  0  0  0  0  0  0
  193.2900  176.7470  146.8830 C   0  0  0  0  0  3  0  0  0  0  0  0
  194.2160  176.0700  141.9620 C   0  0  0  0  0  2  0  0  0  0  0  0
  192.1320  176.1840  146.3120 C   0  0  0  0  0  0  0  0  0  0  0  0
  191.8040  175.3620  142.6560 C   0  0  1  0  0  3  0  0  0  0  0  0
  195.6770  176.7640  143.9640 C   0  0  0  0  0  2  0  0  0  0  0  0
  189.1300  175.7060  145.5390 C   0  0  1  0  0  3  0  0  0  0  0  0
  196.5830  176.7530  141.6500 C   0  0  0  0  0  1  0  0  0  0  0  0
  189.9370  175.2620  146.6190 O   0  0  0  0  0  0  0  0  0  0  0  0
  191.6880  172.7610  142.6290 C   0  0  0  0  0  2  0  0  0  0  0  0
  190.4950  171.9380  142.4380 N   0  0  0  0  0  0  0  0  0  0  0  0
  188.5710  173.3210  141.9850 C   0  0  0  0  0  0  0  0  0  0  0  0
  189.3710  172.6310  143.0460 C   0  0  0  0  0  2  0  0  0  0  0  0
  189.1650  174.3780  141.0940 C   0  0  1  0  0  3  0  0  0  0  0  0
  188.9670  175.6530  141.6230 O   0  0  0  0  0  1  0  0  0  0  0  0
  190.6250  174.1550  140.6820 C   0  0  0  0  0  2  0  0  0  0  0  0
  187.3900  173.0410  141.8630 O   0  0  0  0  0  0  0  0  0  0  0  0
  191.6420  174.0770  141.8310 C   0  0  1  0  0  3  0  0  0  0  0  0
  192.0950  170.7110  143.7940 C   0  0  0  0  0  1  0  0  0  0  0  0
  190.6970  170.7210  143.2050 C   0  0  0  0  0  2  0  0  0  0  0  0
  186.7140  176.3980  145.2350 C   0  0  0  0  0  3  0  0  0  0  0  0
  187.9260  176.5140  145.9300 C   0  0  0  0  0  0  0  0  0  0  0  0
  188.0150  177.3800  147.0250 C   0  0  0  0  0  3  0  0  0  0  0  0
  186.9960  178.9700  148.4800 F   0  0  0  0  0  0  0  0  0  0  0  0
  185.6980  178.0160  146.7220 C   0  0  0  0  0  3  0  0  0  0  0  0
  186.9050  178.1310  147.4200 C   0  0  0  0  0  0  0  0  0  0  0  0
  185.6040  177.1490  145.6300 C   0  0  0  0  0  3  0  0  0  0  0  0
  1 10  1  0  0  0  0
  1 16  1  0  0  0  0
  2 14  1  0  0  0  0
  4  8  2  0  0  0  0
  5  7  1  0  0  0  0
  5  2  1  1  0  0  0
  6  4  1  0  0  0  0
  6  2  2  0  0  0  0
  7  3  1  1  0  0  0
  7 17  1  0  0  0  0
  8 12  1  0  0  0  0
  9  6  1  0  0  0  0
 13  1  1  0  0  0  0
 13  9  1  0  0  0  0
 14 12  2  0  0  0  0
 14 11  1  0  0  0  0
 15  9  1  1  0  0  0
 15  5  1  0  0  0  0
 16  4  1  0  0  0  0
 17 32  1  1  0  0  0
 17 19  1  0  0  0  0
 18  1  1  0  0  0  0
 19 11  1  0  0  0  0
 21 20  1  0  0  0  0
 21 23  1  0  0  0  0
 21 30  1  0  0  0  0
 22 23  1  0  0  0  0
 24 25  1  1  0  0  0
 24 22  1  0  0  0  0
 26 24  1  0  0  0  0
 27 22  2  0  0  0  0
 28 26  1  1  0  0  0
 28 20  1  0  0  0  0
 28 15  1  0  0  0  0
 30 29  1  0  0  0  0
 31 37  2  0  0  0  0
 31 32  1  0  0  0  0
 32 33  2  0  0  0  0
 33 36  1  0  0  0  0
 35 36  2  0  0  0  0
 36 34  1  0  0  0  0
 37 35  1  0  0  0  0
M  END
>  <MODEL>
2

>  <REMARK>
 VINA RESULT:      -7.7      2.567      5.879
  Name = 
  3 active torsions:
  status: ('A' for Active; 'I' for Inactive)
    1  A    between atoms: N_4  and  C_37
    2  A    between atoms: C_21  and  C_27
    3  A    between atoms: C_23  and  C_30
                            x       y       z     vdW  Elec       q    Type
                         _______ _______ _______ _____ _____    ______ ____

>  <TORSDO>
F 3

$$$$
=
 OpenBabel11112417133D

 37 42  0  0  1  0  0  0  0  0999 V2000
  194.8920  174.6510  145.1950 C   0  0  0  0  0  0  0  0  0  0  0  0
  190.8660  175.6330  145.7260 C   0  0  0  0  0  0  0  0  0  0  0  0
  189.9370  177.5630  143.6580 C   0  0  0  0  0  1  0  0  0  0  0  0
  193.0930  175.8250  146.5790 C   0  0  0  0  0  0  0  0  0  0  0  0
  190.1870  175.1640  144.4790 C   0  0  1  0  0  3  0  0  0  0  0  0
  192.1890  175.3600  145.6410 C   0  0  0  0  0  0  0  0  0  0  0  0
  189.2440  176.2220  143.8940 C   0  0  1  0  0  3  0  0  0  0  0  0
  192.6200  176.5660  147.6240 N   0  0  0  0  0  0  0  0  0  0  0  0
  192.5530  174.7740  144.4190 N   0  0  0  0  0  0  0  0  0  0  0  0
  194.8100  173.2420  145.7550 C   0  0  0  0  0  1  0  0  0  0  0  0
  188.9660  176.9520  146.7450 C   0  0  0  0  0  2  0  0  0  0  0  0
  191.2860  176.8670  147.7380 C   0  0  0  0  0  3  0  0  0  0  0  0
  193.9460  174.7820  143.9820 C   0  0  0  0  0  2  0  0  0  0  0  0
  190.3650  176.4110  146.7750 C   0  0  0  0  0  0  0  0  0  0  0  0
  191.3730  174.7560  143.5510 C   0  0  1  0  0  3  0  0  0  0  0  0
  194.5670  175.6710  146.3150 C   0  0  0  0  0  2  0  0  0  0  0  0
  187.9650  176.3390  144.7570 C   0  0  1  0  0  3  0  0  0  0  0  0
  196.3120  174.8910  144.7260 C   0  0  0  0  0  1  0  0  0  0  0  0
  188.0800  176.0410  146.1400 O   0  0  0  0  0  0  0  0  0  0  0  0
  189.7770  172.9850  142.5050 C   0  0  0  0  0  2  0  0  0  0  0  0
  189.6900  172.6060  141.0960 N   0  0  0  0  0  0  0  0  0  0  0  0
  191.3690  173.7560  139.8010 C   0  0  0  0  0  0  0  0  0  0  0  0
  189.9570  173.7910  140.2970 C   0  0  0  0  0  2  0  0  0  0  0  0
  192.5460  173.7200  140.7360 C   0  0  1  0  0  3  0  0  0  0  0  0
  193.0130  175.0050  141.0120 O   0  0  0  0  0  1  0  0  0  0  0  0
  192.3510  172.9010  142.0190 C   0  0  0  0  0  2  0  0  0  0  0  0
  191.5720  173.7940  138.5990 O   0  0  0  0  0  0  0  0  0  0  0  0
  191.2070  173.3580  142.9370 C   0  0  1  0  0  3  0  0  0  0  0  0
  187.4410  172.6680  142.0130 C   0  0  0  0  0  1  0  0  0  0  0  0
  188.3070  172.2380  140.8450 C   0  0  0  0  0  2  0  0  0  0  0  0
  186.5450  178.3350  145.3940 C   0  0  0  0  0  3  0  0  0  0  0  0
  186.9990  177.4370  144.4180 C   0  0  0  0  0  0  0  0  0  0  0  0
  186.5660  177.5760  143.0950 C   0  0  0  0  0  3  0  0  0  0  0  0
  185.2610  178.7300  141.4670 F   0  0  0  0  0  0  0  0  0  0  0  0
  185.2250  179.4920  143.7250 C   0  0  0  0  0  3  0  0  0  0  0  0
  185.6790  178.6000  142.7490 C   0  0  0  0  0  0  0  0  0  0  0  0
  185.6590  179.3600  145.0470 C   0  0  0  0  0  3  0  0  0  0  0  0
  1 10  1  0  0  0  0
  1 16  1  0  0  0  0
  2 14  1  0  0  0  0
  4  8  2  0  0  0  0
  5  2  1  1  0  0  0
  6  2  2  0  0  0  0
  6  4  1  0  0  0  0
  7  3  1  1  0  0  0
  7  5  1  0  0  0  0
  7 17  1  0  0  0  0
  8 12  1  0  0  0  0
  9  6  1  0  0  0  0
 11 14  1  0  0  0  0
 13  9  1  0  0  0  0
 13  1  1  0  0  0  0
 14 12  2  0  0  0  0
 15  9  1  1  0  0  0
 15  5  1  0  0  0  0
 16  4  1  0  0  0  0
 17 32  1  1  0  0  0
 17 19  1  0  0  0  0
 18  1  1  0  0  0  0
 19 11  1  0  0  0  0
 20 28  1  0  0  0  0
 21 20  1  0  0  0  0
 22 23  1  0  0  0  0
 22 24  1  0  0  0  0
 23 21  1  0  0  0  0
 24 25  1  1  0  0  0
 24 26  1  0  0  0  0
 27 22  2  0  0  0  0
 28 26  1  6  0  0  0
 28 15  1  0  0  0  0
 30 21  1  0  0  0  0
 30 29  1  0  0  0  0
 32 31  2  0  0  0  0
 33 32  1  0  0  0  0
 34 36  1  0  0  0  0
 35 37  2  0  0  0  0
 36 33  2  0  0  0  0
 36 35  1  0  0  0  0
 37 31  1  0  0  0  0
M  END
>  <MODEL>
3

>  <REMARK>
 VINA RESULT:      -7.7      2.815      6.121
  Name = 
  3 active torsions:
  status: ('A' for Active; 'I' for Inactive)
    1  A    between atoms: N_4  and  C_37
    2  A    between atoms: C_21  and  C_27
    3  A    between atoms: C_23  and  C_30
                            x       y       z     vdW  Elec       q    Type
                         _______ _______ _______ _____ _____    ______ ____

>  <TORSDO>
F 3

$$$$
=
 OpenBabel11112417133D

 37 42  0  0  1  0  0  0  0  0999 V2000
  190.8780  169.8350  138.2620 C   0  0  0  0  0  0  0  0  0  0  0  0
  190.1860  173.2150  140.6190 C   0  0  0  0  0  0  0  0  0  0  0  0
  189.2700  172.4650  143.3510 C   0  0  0  0  0  1  0  0  0  0  0  0
  189.4630  171.9060  138.7510 C   0  0  0  0  0  0  0  0  0  0  0  0
  191.1520  173.0980  141.7540 C   0  0  1  0  0  3  0  0  0  0  0  0
  190.3340  172.1490  139.7980 C   0  0  0  0  0  0  0  0  0  0  0  0
  190.4900  173.3530  143.1130 C   0  0  1  0  0  3  0  0  0  0  0  0
  188.4400  172.7850  138.5420 N   0  0  0  0  0  0  0  0  0  0  0  0
  191.2920  171.2310  140.2550 N   0  0  0  0  0  0  0  0  0  0  0  0
  191.9780  170.4340  137.4040 C   0  0  0  0  0  1  0  0  0  0  0  0
  188.7840  175.1330  141.4820 C   0  0  0  0  0  2  0  0  0  0  0  0
  188.2550  173.8720  139.3590 C   0  0  0  0  0  3  0  0  0  0  0  0
  191.3060  169.8630  139.7470 C   0  0  0  0  0  2  0  0  0  0  0  0
  189.1280  174.1120  140.4380 C   0  0  0  0  0  0  0  0  0  0  0  0
  191.7530  171.6690  141.5740 C   0  0  1  0  0  3  0  0  0  0  0  0
  189.5530  170.5980  138.0110 C   0  0  0  0  0  2  0  0  0  0  0  0
  190.1910  174.8610  143.2920 C   0  0  1  0  0  3  0  0  0  0  0  0
  190.6860  168.3920  137.8440 C   0  0  0  0  0  1  0  0  0  0  0  0
  189.9400  175.6210  142.1200 O   0  0  0  0  0  0  0  0  0  0  0  0
  193.9730  173.0280  141.6440 C   0  0  0  0  0  2  0  0  0  0  0  0
  194.8610  173.1990  142.7910 N   0  0  0  0  0  0  0  0  0  0  0  0
  194.0810  171.9040  144.6710 C   0  0  0  0  0  0  0  0  0  0  0  0
  194.0400  173.2370  143.9910 C   0  0  0  0  0  2  0  0  0  0  0  0
  193.6140  170.6440  143.9940 C   0  0  1  0  0  3  0  0  0  0  0  0
  192.2720  170.3870  144.2730 O   0  0  0  0  0  1  0  0  0  0  0  0
  193.9090  170.5500  142.4910 C   0  0  0  0  0  2  0  0  0  0  0  0
  194.4730  171.8440  145.8240 O   0  0  0  0  0  0  0  0  0  0  0  0
  193.2880  171.6490  141.6170 C   0  0  1  0  0  3  0  0  0  0  0  0
  194.3840  175.5670  142.5330 C   0  0  0  0  0  1  0  0  0  0  0  0
  195.4670  174.5130  142.6610 C   0  0  0  0  0  2  0  0  0  0  0  0
  188.3890  176.2360  144.4170 C   0  0  0  0  0  3  0  0  0  0  0  0
  189.4040  175.2730  144.5020 C   0  0  0  0  0  0  0  0  0  0  0  0
  189.6760  174.6610  145.7300 C   0  0  0  0  0  3  0  0  0  0  0  0
  189.2140  174.4210  148.0570 F   0  0  0  0  0  0  0  0  0  0  0  0
  187.9370  175.9780  146.7820 C   0  0  0  0  0  3  0  0  0  0  0  0
  188.9460  175.0140  146.8690 C   0  0  0  0  0  0  0  0  0  0  0  0
  187.6590  176.5890  145.5560 C   0  0  0  0  0  3  0  0  0  0  0  0
  1 13  1  0  0  0  0
  4  6  1  0  0  0  0
  5  2  1  6  0  0  0
  5  7  1  0  0  0  0
  6  9  1  0  0  0  0
  6  2  2  0  0  0  0
  7 17  1  0  0  0  0
  7  3  1  6  0  0  0
  8  4  2  0  0  0  0
  8 12  1  0  0  0  0
 10  1  1  0  0  0  0
 11 19  1  0  0  0  0
 12 14  2  0  0  0  0
 13  9  1  0  0  0  0
 14  2  1  0  0  0  0
 14 11  1  0  0  0  0
 15  9  1  6  0  0  0
 15 28  1  0  0  0  0
 15  5  1  0  0  0  0
 16  1  1  0  0  0  0
 16  4  1  0  0  0  0
 17 32  1  1  0  0  0
 18  1  1  0  0  0  0
 19 17  1  0  0  0  0
 20 21  1  0  0  0  0
 21 23  1  0  0  0  0
 22 27  2  0  0  0  0
 23 22  1  0  0  0  0
 24 25  1  6  0  0  0
 24 22  1  0  0  0  0
 26 24  1  0  0  0  0
 28 20  1  1  0  0  0
 28 26  1  0  0  0  0
 29 30  1  0  0  0  0
 30 21  1  0  0  0  0
 31 32  2  0  0  0  0
 31 37  1  0  0  0  0
 32 33  1  0  0  0  0
 33 36  2  0  0  0  0
 35 36  1  0  0  0  0
 36 34  1  0  0  0  0
 37 35  2  0  0  0  0
M  END
>  <MODEL>
4

>  <REMARK>
 VINA RESULT:      -7.4      2.835      4.018
  Name = 
  3 active torsions:
  status: ('A' for Active; 'I' for Inactive)
    1  A    between atoms: N_4  and  C_37
    2  A    between atoms: C_21  and  C_27
    3  A    between atoms: C_23  and  C_30
                            x       y       z     vdW  Elec       q    Type
                         _______ _______ _______ _____ _____    ______ ____

>  <TORSDO>
F 3

$$$$
=
 OpenBabel11112417133D

 37 42  0  0  1  0  0  0  0  0999 V2000
  194.2970  169.2920  144.5430 C   0  0  0  0  0  0  0  0  0  0  0  0
  192.0130  172.3830  142.9030 C   0  0  0  0  0  0  0  0  0  0  0  0
  190.5490  173.8890  145.0130 C   0  0  0  0  0  1  0  0  0  0  0  0
  192.2870  170.0180  143.1410 C   0  0  0  0  0  0  0  0  0  0  0  0
  192.5780  173.6350  143.4930 C   0  0  1  0  0  3  0  0  0  0  0  0
  192.6930  171.3180  143.3860 C   0  0  0  0  0  0  0  0  0  0  0  0
  191.4890  174.5750  144.0220 C   0  0  1  0  0  3  0  0  0  0  0  0
  191.1760  169.8200  142.3730 N   0  0  0  0  0  0  0  0  0  0  0  0
  193.6800  171.6720  144.3200 N   0  0  0  0  0  0  0  0  0  0  0  0
  195.3970  169.3040  143.4960 C   0  0  0  0  0  1  0  0  0  0  0  0
  189.9430  173.3490  141.8210 C   0  0  0  0  0  2  0  0  0  0  0  0
  190.4580  170.8770  141.8720 C   0  0  0  0  0  3  0  0  0  0  0  0
  194.2250  170.6720  145.2340 C   0  0  0  0  0  2  0  0  0  0  0  0
  190.8580  172.2020  142.1350 C   0  0  0  0  0  0  0  0  0  0  0  0
  193.5750  173.1100  144.5720 C   0  0  1  0  0  3  0  0  0  0  0  0
  192.9560  168.8890  143.8800 C   0  0  0  0  0  2  0  0  0  0  0  0
  190.7470  175.2550  142.8460 C   0  0  1  0  0  3  0  0  0  0  0  0
  194.6480  168.2510  145.5840 C   0  0  0  0  0  1  0  0  0  0  0  0
  190.6670  174.5400  141.6230 O   0  0  0  0  0  0  0  0  0  0  0  0
  195.2750  174.4790  143.1520 C   0  0  0  0  0  2  0  0  0  0  0  0
  195.6550  175.8760  143.3450 N   0  0  0  0  0  0  0  0  0  0  0  0
  194.5900  176.7830  145.3110 C   0  0  0  0  0  0  0  0  0  0  0  0
  194.4870  176.5950  143.8290 C   0  0  0  0  0  2  0  0  0  0  0  0
  194.6760  175.6210  146.2620 C   0  0  1  0  0  3  0  0  0  0  0  0
  193.4130  175.2470  146.7190 O   0  0  0  0  0  1  0  0  0  0  0  0
  195.4800  174.4130  145.7630 C   0  0  0  0  0  2  0  0  0  0  0  0
  194.5670  177.9160  145.7630 O   0  0  0  0  0  0  0  0  0  0  0  0
  194.9660  173.7530  144.4740 C   0  0  1  0  0  3  0  0  0  0  0  0
  194.9160  175.9520  141.0320 C   0  0  0  0  0  1  0  0  0  0  0  0
  195.9590  176.4150  142.0310 C   0  0  0  0  0  2  0  0  0  0  0  0
  189.5200  176.9100  144.3150 C   0  0  0  0  0  3  0  0  0  0  0  0
  189.5450  176.0920  143.1770 C   0  0  0  0  0  0  0  0  0  0  0  0
  188.4430  176.0690  142.3160 C   0  0  0  0  0  3  0  0  0  0  0  0
  186.2520  176.8250  141.7580 F   0  0  0  0  0  0  0  0  0  0  0  0
  187.2940  177.6640  143.7310 C   0  0  0  0  0  3  0  0  0  0  0  0
  187.3180  176.8520  142.5930 C   0  0  0  0  0  0  0  0  0  0  0  0
  188.3950  177.6930  144.5920 C   0  0  0  0  0  3  0  0  0  0  0  0
  1 13  1  0  0  0  0
  1 18  1  0  0  0  0
  2  6  1  0  0  0  0
  4  6  2  0  0  0  0
  4 16  1  0  0  0  0
  5  2  1  1  0  0  0
  5  7  1  0  0  0  0
  5 15  1  0  0  0  0
  6  9  1  0  0  0  0
  7  3  1  6  0  0  0
  8  4  1  0  0  0  0
  9 13  1  0  0  0  0
 10  1  1  0  0  0  0
 11 14  1  0  0  0  0
 12 14  1  0  0  0  0
 12  8  2  0  0  0  0
 14  2  2  0  0  0  0
 15  9  1  6  0  0  0
 16  1  1  0  0  0  0
 17 32  1  1  0  0  0
 17  7  1  0  0  0  0
 19 11  1  0  0  0  0
 19 17  1  0  0  0  0
 20 21  1  0  0  0  0
 21 23  1  0  0  0  0
 22 27  2  0  0  0  0
 22 24  1  0  0  0  0
 23 22  1  0  0  0  0
 24 25  1  6  0  0  0
 26 24  1  0  0  0  0
 28 20  1  6  0  0  0
 28 15  1  0  0  0  0
 28 26  1  0  0  0  0
 29 30  1  0  0  0  0
 30 21  1  0  0  0  0
 31 37  1  0  0  0  0
 32 31  2  0  0  0  0
 33 36  2  0  0  0  0
 33 32  1  0  0  0  0
 34 36  1  0  0  0  0
 35 37  2  0  0  0  0
 36 35  1  0  0  0  0
M  END
>  <MODEL>
5

>  <REMARK>
 VINA RESULT:      -7.3      3.536      5.744
  Name = 
  3 active torsions:
  status: ('A' for Active; 'I' for Inactive)
    1  A    between atoms: N_4  and  C_37
    2  A    between atoms: C_21  and  C_27
    3  A    between atoms: C_23  and  C_30
                            x       y       z     vdW  Elec       q    Type
                         _______ _______ _______ _____ _____    ______ ____

>  <TORSDO>
F 3

$$$$
=
 OpenBabel11112417133D

 37 42  0  0  1  0  0  0  0  0999 V2000
  187.3940  176.5640  142.5360 C   0  0  0  0  0  0  0  0  0  0  0  0
  191.5030  175.9700  143.0150 C   0  0  0  0  0  0  0  0  0  0  0  0
  192.0640  173.6610  144.8090 C   0  0  0  0  0  1  0  0  0  0  0  0
  189.6250  177.3770  143.4840 C   0  0  0  0  0  0  0  0  0  0  0  0
  191.7620  174.6050  142.4620 C   0  0  1  0  0  3  0  0  0  0  0  0
  190.1830  176.2500  142.9070 C   0  0  0  0  0  0  0  0  0  0  0  0
  192.6310  173.7530  143.3930 C   0  0  1  0  0  3  0  0  0  0  0  0
  190.4440  178.2300  144.1640 N   0  0  0  0  0  0  0  0  0  0  0  0
  189.4370  175.1900  142.3670 N   0  0  0  0  0  0  0  0  0  0  0  0
  187.4570  177.1330  141.1290 C   0  0  0  0  0  1  0  0  0  0  0  0
  193.7480  176.3990  144.0930 C   0  0  0  0  0  2  0  0  0  0  0  0
  191.7860  177.9750  144.2990 C   0  0  0  0  0  3  0  0  0  0  0  0
  187.9900  175.1390  142.5450 C   0  0  0  0  0  2  0  0  0  0  0  0
  192.3540  176.8190  143.7300 C   0  0  0  0  0  0  0  0  0  0  0  0
  190.3310  174.0420  142.2000 C   0  0  1  0  0  3  0  0  0  0  0  0
  188.1260  177.5200  143.5130 C   0  0  0  0  0  2  0  0  0  0  0  0
  194.1000  174.2400  143.3550 C   0  0  1  0  0  3  0  0  0  0  0  0
  185.9400  176.4810  142.9480 C   0  0  0  0  0  1  0  0  0  0  0  0
  194.3260  175.6130  143.0770 O   0  0  0  0  0  0  0  0  0  0  0  0
  191.2810  173.7910  139.7890 C   0  0  0  0  0  2  0  0  0  0  0  0
  191.8980  172.6000  139.2090 N   0  0  0  0  0  0  0  0  0  0  0  0
  191.8080  170.7540  140.7600 C   0  0  0  0  0  0  0  0  0  0  0  0
  192.6210  171.9100  140.2660 C   0  0  0  0  0  2  0  0  0  0  0  0
  190.4410  170.9340  141.3610 C   0  0  1  0  0  3  0  0  0  0  0  0
  190.5120  171.0640  142.7480 O   0  0  0  0  0  1  0  0  0  0  0  0
  189.5790  172.0360  140.7320 C   0  0  0  0  0  2  0  0  0  0  0  0
  192.2860  169.6330  140.7050 O   0  0  0  0  0  0  0  0  0  0  0  0
  190.1600  173.4570  140.7900 C   0  0  1  0  0  3  0  0  0  0  0  0
  193.4510  174.4000  138.7100 C   0  0  0  0  0  1  0  0  0  0  0  0
  192.8940  173.0640  138.2590 C   0  0  0  0  0  2  0  0  0  0  0  0
  195.7910  174.3980  145.2310 C   0  0  0  0  0  3  0  0  0  0  0  0
  195.0620  173.6160  144.3240 C   0  0  0  0  0  0  0  0  0  0  0  0
  195.2110  172.2260  144.3330 C   0  0  0  0  0  3  0  0  0  0  0  0
  196.2320  170.2710  145.2410 F   0  0  0  0  0  0  0  0  0  0  0  0
  196.8170  172.4010  146.1380 C   0  0  0  0  0  3  0  0  0  0  0  0
  196.0880  171.6180  145.2360 C   0  0  0  0  0  0  0  0  0  0  0  0
  196.6680  173.7910  146.1350 C   0  0  0  0  0  3  0  0  0  0  0  0
  1 13  1  0  0  0  0
  1 18  1  0  0  0  0
  1 16  1  0  0  0  0
  2 14  1  0  0  0  0
  4 16  1  0  0  0  0
  4  8  2  0  0  0  0
  5  2  1  1  0  0  0
  5  7  1  0  0  0  0
  6  2  2  0  0  0  0
  6  4  1  0  0  0  0
  7  3  1  1  0  0  0
  8 12  1  0  0  0  0
  9 13  1  0  0  0  0
  9  6  1  0  0  0  0
 10  1  1  0  0  0  0
 14 11  1  0  0  0  0
 14 12  2  0  0  0  0
 15  9  1  6  0  0  0
 15  5  1  0  0  0  0
 17  7  1  0  0  0  0
 17 32  1  1  0  0  0
 19 17  1  0  0  0  0
 19 11  1  0  0  0  0
 21 20  1  0  0  0  0
 21 23  1  0  0  0  0
 22 24  1  0  0  0  0
 23 22  1  0  0  0  0
 24 25  1  1  0  0  0
 26 28  1  0  0  0  0
 26 24  1  0  0  0  0
 27 22  2  0  0  0  0
 28 20  1  1  0  0  0
 28 15  1  0  0  0  0
 30 29  1  0  0  0  0
 30 21  1  0  0  0  0
 31 37  1  0  0  0  0
 32 33  1  0  0  0  0
 32 31  2  0  0  0  0
 33 36  2  0  0  0  0
 36 34  1  0  0  0  0
 36 35  1  0  0  0  0
 37 35  2  0  0  0  0
M  END
>  <MODEL>
6

>  <REMARK>
 VINA RESULT:      -7.1      3.725      7.573
  Name = 
  3 active torsions:
  status: ('A' for Active; 'I' for Inactive)
    1  A    between atoms: N_4  and  C_37
    2  A    between atoms: C_21  and  C_27
    3  A    between atoms: C_23  and  C_30
                            x       y       z     vdW  Elec       q    Type
                         _______ _______ _______ _____ _____    ______ ____

>  <TORSDO>
F 3

$$$$
=
 OpenBabel11112417133D

 37 42  0  0  1  0  0  0  0  0999 V2000
  192.2790  169.7860  140.3690 C   0  0  0  0  0  0  0  0  0  0  0  0
  190.8390  173.4940  141.6470 C   0  0  0  0  0  0  0  0  0  0  0  0
  190.1340  173.4470  144.5390 C   0  0  0  0  0  1  0  0  0  0  0  0
  190.4280  171.5470  140.3180 C   0  0  0  0  0  0  0  0  0  0  0  0
  191.8120  173.9480  142.6880 C   0  0  1  0  0  3  0  0  0  0  0  0
  191.2240  172.2860  141.1750 C   0  0  0  0  0  0  0  0  0  0  0  0
  191.1160  174.4610  143.9530 C   0  0  1  0  0  3  0  0  0  0  0  0
  189.2280  172.0730  139.9340 N   0  0  0  0  0  0  0  0  0  0  0  0
  192.3710  171.7860  141.8120 N   0  0  0  0  0  0  0  0  0  0  0  0
  193.2070  170.3140  139.2890 C   0  0  0  0  0  1  0  0  0  0  0  0
  189.0370  175.2320  141.9970 C   0  0  0  0  0  2  0  0  0  0  0  0
  188.8020  173.2920  140.3980 C   0  0  0  0  0  3  0  0  0  0  0  0
  192.6960  170.3650  141.7390 C   0  0  0  0  0  2  0  0  0  0  0  0
  189.6020  174.0390  141.2850 C   0  0  0  0  0  0  0  0  0  0  0  0
  192.7240  172.7000  142.9000 C   0  0  1  0  0  3  0  0  0  0  0  0
  190.8120  170.1260  140.0020 C   0  0  0  0  0  2  0  0  0  0  0  0
  190.4790  175.8470  143.6930 C   0  0  1  0  0  3  0  0  0  0  0  0
  192.4220  168.2800  140.4190 C   0  0  0  0  0  1  0  0  0  0  0  0
  190.0530  176.1330  142.3690 O   0  0  0  0  0  0  0  0  0  0  0  0
  194.5790  174.3910  142.2070 C   0  0  0  0  0  2  0  0  0  0  0  0
  195.3770  175.2320  143.0980 N   0  0  0  0  0  0  0  0  0  0  0  0
  194.8610  174.7550  145.4060 C   0  0  0  0  0  0  0  0  0  0  0  0
  194.5380  175.6140  144.2230 C   0  0  0  0  0  2  0  0  0  0  0  0
  194.7070  173.2590  145.3760 C   0  0  1  0  0  3  0  0  0  0  0  0
  193.4510  172.8710  145.8400 O   0  0  0  0  0  1  0  0  0  0  0  0
  195.0530  172.5830  144.0430 C   0  0  0  0  0  2  0  0  0  0  0  0
  195.2270  175.2900  146.4390 O   0  0  0  0  0  0  0  0  0  0  0  0
  194.2230  173.0290  142.8300 C   0  0  1  0  0  3  0  0  0  0  0  0
  195.8510  176.1400  140.8950 C   0  0  0  0  0  1  0  0  0  0  0  0
  195.6740  176.4530  142.3680 C   0  0  0  0  0  2  0  0  0  0  0  0
  188.2240  176.3910  144.7060 C   0  0  0  0  0  3  0  0  0  0  0  0
  189.6230  176.4320  144.7800 C   0  0  0  0  0  0  0  0  0  0  0  0
  190.2410  177.0050  145.8960 C   0  0  0  0  0  3  0  0  0  0  0  0
  190.0700  178.0970  148.0090 F   0  0  0  0  0  0  0  0  0  0  0  0
  188.0720  177.5030  146.8520 C   0  0  0  0  0  3  0  0  0  0  0  0
  189.4680  177.5410  146.9300 C   0  0  0  0  0  0  0  0  0  0  0  0
  187.4510  176.9280  145.7400 C   0  0  0  0  0  3  0  0  0  0  0  0
  1 18  1  0  0  0  0
  1 13  1  0  0  0  0
  4  6  1  0  0  0  0
  5  2  1  6  0  0  0
  5 15  1  0  0  0  0
  5  7  1  0  0  0  0
  6  2  2  0  0  0  0
  6  9  1  0  0  0  0
  7  3  1  6  0  0  0
  8  4  2  0  0  0  0
  8 12  1  0  0  0  0
 10  1  1  0  0  0  0
 11 19  1  0  0  0  0
 12 14  2  0  0  0  0
 13  9  1  0  0  0  0
 14  2  1  0  0  0  0
 14 11  1  0  0  0  0
 15  9  1  6  0  0  0
 16  4  1  0  0  0  0
 16  1  1  0  0  0  0
 17  7  1  0  0  0  0
 17 32  1  1  0  0  0
 19 17  1  0  0  0  0
 20 21  1  0  0  0  0
 21 23  1  0  0  0  0
 22 27  2  0  0  0  0
 23 22  1  0  0  0  0
 24 22  1  0  0  0  0
 24 25  1  6  0  0  0
 26 24  1  0  0  0  0
 28 20  1  1  0  0  0
 28 15  1  0  0  0  0
 28 26  1  0  0  0  0
 29 30  1  0  0  0  0
 30 21  1  0  0  0  0
 31 32  2  0  0  0  0
 31 37  1  0  0  0  0
 32 33  1  0  0  0  0
 33 36  2  0  0  0  0
 35 36  1  0  0  0  0
 36 34  1  0  0  0  0
 37 35  2  0  0  0  0
M  END
>  <MODEL>
7

>  <REMARK>
 VINA RESULT:      -7.0      2.952      4.123
  Name = 
  3 active torsions:
  status: ('A' for Active; 'I' for Inactive)
    1  A    between atoms: N_4  and  C_37
    2  A    between atoms: C_21  and  C_27
    3  A    between atoms: C_23  and  C_30
                            x       y       z     vdW  Elec       q    Type
                         _______ _______ _______ _____ _____    ______ ____

>  <TORSDO>
F 3

$$$$
=
 OpenBabel11112417133D

 37 42  0  0  1  0  0  0  0  0999 V2000
  196.3890  174.7720  139.0980 C   0  0  0  0  0  0  0  0  0  0  0  0
  194.9010  175.0960  142.9890 C   0  0  0  0  0  0  0  0  0  0  0  0
  192.2950  176.5340  143.0390 C   0  0  0  0  0  1  0  0  0  0  0  0
  196.5820  175.7890  141.4350 C   0  0  0  0  0  0  0  0  0  0  0  0
  193.6050  174.3500  142.9700 C   0  0  1  0  0  3  0  0  0  0  0  0
  195.4590  175.0500  141.7570 C   0  0  0  0  0  0  0  0  0  0  0  0
  192.4680  175.1370  143.6320 C   0  0  1  0  0  3  0  0  0  0  0  0
  197.1440  176.5700  142.4040 N   0  0  0  0  0  0  0  0  0  0  0  0
  194.6620  174.3760  140.8170 N   0  0  0  0  0  0  0  0  0  0  0  0
  197.1270  173.4590  139.2950 C   0  0  0  0  0  1  0  0  0  0  0  0
  194.7010  176.1870  145.2610 C   0  0  0  0  0  2  0  0  0  0  0  0
  196.6010  176.6460  143.6620 C   0  0  0  0  0  3  0  0  0  0  0  0
  194.8850  174.5690  139.3870 C   0  0  0  0  0  2  0  0  0  0  0  0
  195.4460  175.9090  143.9880 C   0  0  0  0  0  0  0  0  0  0  0  0
  193.3910  174.0340  141.4570 C   0  0  1  0  0  3  0  0  0  0  0  0
  197.0250  175.8620  139.9970 C   0  0  0  0  0  2  0  0  0  0  0  0
  192.6440  175.1440  145.1700 C   0  0  1  0  0  3  0  0  0  0  0  0
  196.5490  175.1910  137.6530 C   0  0  0  0  0  1  0  0  0  0  0  0
  193.9660  175.0610  145.6770 O   0  0  0  0  0  0  0  0  0  0  0  0
  193.3880  171.5820  142.3330 C   0  0  0  0  0  2  0  0  0  0  0  0
  192.2280  170.8080  142.7700 N   0  0  0  0  0  0  0  0  0  0  0  0
  190.1940  172.0630  142.4400 C   0  0  0  0  0  0  0  0  0  0  0  0
  191.2910  171.7230  143.4010 C   0  0  0  0  0  2  0  0  0  0  0  0
  190.4650  172.7310  141.1200 C   0  0  1  0  0  3  0  0  0  0  0  0
  190.3670  174.1180  141.2250 O   0  0  0  0  0  1  0  0  0  0  0  0
  191.7580  172.3050  140.4130 C   0  0  0  0  0  2  0  0  0  0  0  0
  189.0410  171.8230  142.7550 O   0  0  0  0  0  0  0  0  0  0  0  0
  193.0600  172.5580  141.1890 C   0  0  1  0  0  3  0  0  0  0  0  0
  193.7620  170.5880  144.6400 C   0  0  0  0  0  1  0  0  0  0  0  0
  192.6920  169.9060  143.8100 C   0  0  0  0  0  2  0  0  0  0  0  0
  190.4630  176.3960  145.4540 C   0  0  0  0  0  3  0  0  0  0  0  0
  191.7040  175.9990  145.9700 C   0  0  0  0  0  0  0  0  0  0  0  0
  192.0700  176.3830  147.2650 C   0  0  0  0  0  3  0  0  0  0  0  0
  191.5650  177.5360  149.2890 F   0  0  0  0  0  0  0  0  0  0  0  0
  189.9700  177.5630  147.5180 C   0  0  0  0  0  3  0  0  0  0  0  0
  191.2060  177.1650  148.0370 C   0  0  0  0  0  0  0  0  0  0  0  0
  189.5990  177.1790  146.2260 C   0  0  0  0  0  3  0  0  0  0  0  0
  1 10  1  0  0  0  0
  1 13  1  0  0  0  0
  1 16  1  0  0  0  0
  2 14  1  0  0  0  0
  4  6  1  0  0  0  0
  4  8  2  0  0  0  0
  5  2  1  6  0  0  0
  5  7  1  0  0  0  0
  6  2  2  0  0  0  0
  7  3  1  6  0  0  0
  7 17  1  0  0  0  0
  8 12  1  0  0  0  0
  9  6  1  0  0  0  0
 11 19  1  0  0  0  0
 12 14  2  0  0  0  0
 13  9  1  0  0  0  0
 14 11  1  0  0  0  0
 15  9  1  6  0  0  0
 15  5  1  0  0  0  0
 16  4  1  0  0  0  0
 17 19  1  0  0  0  0
 17 32  1  6  0  0  0
 18  1  1  0  0  0  0
 20 21  1  0  0  0  0
 21 23  1  0  0  0  0
 21 30  1  0  0  0  0
 22 27  2  0  0  0  0
 22 23  1  0  0  0  0
 24 25  1  1  0  0  0
 24 22  1  0  0  0  0
 26 24  1  0  0  0  0
 28 26  1  1  0  0  0
 28 15  1  0  0  0  0
 28 20  1  0  0  0  0
 30 29  1  0  0  0  0
 31 32  2  0  0  0  0
 31 37  1  0  0  0  0
 32 33  1  0  0  0  0
 33 36  2  0  0  0  0
 35 36  1  0  0  0  0
 36 34  1  0  0  0  0
 37 35  2  0  0  0  0
M  END
>  <MODEL>
8

>  <REMARK>
 VINA RESULT:      -6.9      4.099      6.775
  Name = 
  3 active torsions:
  status: ('A' for Active; 'I' for Inactive)
    1  A    between atoms: N_4  and  C_37
    2  A    between atoms: C_21  and  C_27
    3  A    between atoms: C_23  and  C_30
                            x       y       z     vdW  Elec       q    Type
                         _______ _______ _______ _____ _____    ______ ____

>  <TORSDO>
F 3

$$$$
=
 OpenBabel11112417133D

 37 42  0  0  1  0  0  0  0  0999 V2000
  189.1590  176.1940  146.0980 C   0  0  0  0  0  0  0  0  0  0  0  0
  191.1650  174.4500  142.8740 C   0  0  0  0  0  0  0  0  0  0  0  0
  193.1180  176.3400  141.6590 C   0  0  0  0  0  1  0  0  0  0  0  0
  189.0880  175.2990  143.7050 C   0  0  0  0  0  0  0  0  0  0  0  0
  192.6050  174.4390  143.2750 C   0  0  1  0  0  3  0  0  0  0  0  0
  190.4310  175.0090  143.8640 C   0  0  0  0  0  0  0  0  0  0  0  0
  193.5250  174.9570  142.1640 C   0  0  1  0  0  3  0  0  0  0  0  0
  188.4950  174.9930  142.5140 N   0  0  0  0  0  0  0  0  0  0  0  0
  191.2110  175.4560  144.9420 N   0  0  0  0  0  0  0  0  0  0  0  0
  188.9410  174.9160  146.8890 C   0  0  0  0  0  1  0  0  0  0  0  0
  191.4200  173.7910  140.4470 C   0  0  0  0  0  2  0  0  0  0  0  0
  189.2090  174.4310  141.4850 C   0  0  0  0  0  3  0  0  0  0  0  0
  190.6730  176.4250  145.8920 C   0  0  0  0  0  2  0  0  0  0  0  0
  190.5820  174.1520  141.6380 C   0  0  0  0  0  0  0  0  0  0  0  0
  192.6210  175.2810  144.5890 C   0  0  1  0  0  3  0  0  0  0  0  0
  188.3840  176.1120  144.7590 C   0  0  0  0  0  2  0  0  0  0  0  0
  193.6500  173.9060  141.0350 C   0  0  1  0  0  3  0  0  0  0  0  0
  188.6020  177.3490  146.9030 C   0  0  0  0  0  1  0  0  0  0  0  0
  192.5470  173.0370  140.8260 O   0  0  0  0  0  0  0  0  0  0  0  0
  193.5830  173.0720  145.5760 C   0  0  0  0  0  2  0  0  0  0  0  0
  194.9920  172.6920  145.6690 N   0  0  0  0  0  0  0  0  0  0  0  0
  196.4080  174.4860  144.8970 C   0  0  0  0  0  0  0  0  0  0  0  0
  195.6790  173.2370  144.5090 C   0  0  0  0  0  2  0  0  0  0  0  0
  195.6970  175.6890  145.4530 C   0  0  1  0  0  3  0  0  0  0  0  0
  195.3550  176.5860  144.4410 O   0  0  0  0  0  1  0  0  0  0  0  0
  194.5060  175.3910  146.3720 C   0  0  0  0  0  2  0  0  0  0  0  0
  197.6140  174.5410  144.7240 O   0  0  0  0  0  0  0  0  0  0  0  0
  193.3590  174.5860  145.7430 C   0  0  1  0  0  3  0  0  0  0  0  0
  196.4400  170.7520  145.8760 C   0  0  0  0  0  1  0  0  0  0  0  0
  195.0460  171.2460  145.5410 C   0  0  0  0  0  2  0  0  0  0  0  0
  193.7410  174.4010  138.5550 C   0  0  0  0  0  3  0  0  0  0  0  0
  194.3920  174.3090  139.7930 C   0  0  0  0  0  0  0  0  0  0  0  0
  195.7520  174.6210  139.8860 C   0  0  0  0  0  3  0  0  0  0  0  0
  197.7800  175.3130  138.8410 F   0  0  0  0  0  0  0  0  0  0  0  0
  195.8120  175.1020  137.5130 C   0  0  0  0  0  3  0  0  0  0  0  0
  196.4620  175.0140  138.7480 C   0  0  0  0  0  0  0  0  0  0  0  0
  194.4510  174.7950  137.4170 C   0  0  0  0  0  3  0  0  0  0  0  0
  1 10  1  0  0  0  0
  1 18  1  0  0  0  0
  2  6  1  0  0  0  0
  4  6  2  0  0  0  0
  4 16  1  0  0  0  0
  5  2  1  6  0  0  0
  5 15  1  0  0  0  0
  6  9  1  0  0  0  0
  7  3  1  6  0  0  0
  7  5  1  0  0  0  0
  8  4  1  0  0  0  0
  9 13  1  0  0  0  0
 11 19  1  0  0  0  0
 11 14  1  0  0  0  0
 12 14  1  0  0  0  0
 12  8  2  0  0  0  0
 13  1  1  0  0  0  0
 14  2  2  0  0  0  0
 15  9  1  1  0  0  0
 15 28  1  0  0  0  0
 16  1  1  0  0  0  0
 17 32  1  6  0  0  0
 17  7  1  0  0  0  0
 19 17  1  0  0  0  0
 20 21  1  0  0  0  0
 22 24  1  0  0  0  0
 23 22  1  0  0  0  0
 23 21  1  0  0  0  0
 24 25  1  6  0  0  0
 24 26  1  0  0  0  0
 27 22  2  0  0  0  0
 28 20  1  6  0  0  0
 28 26  1  0  0  0  0
 30 21  1  0  0  0  0
 30 29  1  0  0  0  0
 31 32  1  0  0  0  0
 32 33  2  0  0  0  0
 35 36  2  0  0  0  0
 36 34  1  0  0  0  0
 36 33  1  0  0  0  0
 37 35  1  0  0  0  0
 37 31  2  0  0  0  0
M  END
>  <MODEL>
9

>  <REMARK>
 VINA RESULT:      -6.8      4.430      8.022
  Name = 
  3 active torsions:
  status: ('A' for Active; 'I' for Inactive)
    1  A    between atoms: N_4  and  C_37
    2  A    between atoms: C_21  and  C_27
    3  A    between atoms: C_23  and  C_30
                            x       y       z     vdW  Elec       q    Type
                         _______ _______ _______ _____ _____    ______ ____

>  <TORSDO>
F 3

$$$$
