=
 OpenBabel11112417243D

 37 42  0  0  1  0  0  0  0  0999 V2000
  196.2880  173.0970  141.1250 O   0  0  0  0  0  0  0  0  0  0  0  0
  186.7610  177.7890  143.2730 C   0  0  0  0  0  0  0  0  0  0  0  0
  189.7620  176.1900  145.7230 C   0  0  0  0  0  0  0  0  0  0  0  0
  195.2430  172.4040  141.2430 C   0  0  0  0  0  0  0  0  0  0  0  0
  192.6730  176.6300  143.8490 C   0  0  0  0  0  2  0  0  0  0  0  0
  187.7900  177.5750  145.6230 C   0  0  0  0  0  0  0  0  0  0  0  0
  190.5400  175.3610  144.7590 C   0  0  2  0  0  3  0  0  0  0  0  0
  193.7630  174.4430  141.6220 C   0  0  0  0  0  0  0  0  0  0  0  0
  188.6460  176.6260  145.0780 C   0  0  0  0  0  0  0  0  0  0  0  0
  192.0720  175.5680  144.7800 C   0  0  2  0  0  3  0  0  0  0  0  0
  188.0170  177.9800  146.9460 C   0  0  0  0  0  3  0  0  0  0  0  0
  193.9790  173.0290  141.5090 N   0  0  0  0  0  2  0  0  0  0  0  0
  188.5990  176.1180  143.7010 C   0  0  1  0  0  3  0  0  0  0  0  0
  186.3690  178.9520  142.3870 C   0  0  0  0  0  1  0  0  0  0  0  0
  191.1880  176.0870  147.8630 C   0  0  0  0  0  2  0  0  0  0  0  0
  189.1060  177.4480  147.6690 C   0  0  0  0  0  3  0  0  0  0  0  0
  188.1230  177.2450  142.7860 C   0  0  0  0  0  2  0  0  0  0  0  0
  192.4790  174.9430  142.0300 N   0  0  0  0  0  0  0  0  0  0  0  0
  192.3600  176.3670  142.3680 C   0  0  0  0  0  2  0  0  0  0  0  0
  190.0010  176.5430  147.0660 C   0  0  0  0  0  0  0  0  0  0  0  0
  189.9780  175.7040  143.4340 N   0  0  2  0  0  0  0  0  0  0  0  0
  186.7970  178.2860  144.7400 C   0  0  0  0  0  2  0  0  0  0  0  0
  192.8220  175.4070  146.1070 C   0  0  1  0  0  3  0  0  0  0  0  0
  185.6930  176.7160  143.1390 C   0  0  0  0  0  1  0  0  0  0  0  0
  191.4080  173.9690  142.3140 C   0  0  0  0  0  2  0  0  0  0  0  0
  194.7000  175.2500  141.3690 O   0  0  0  0  0  0  0  0  0  0  0  0
  189.9960  174.5570  142.5290 C   0  0  0  0  0  2  0  0  0  0  0  0
  191.9470  174.9160  147.2540 C   0  0  0  0  0  2  0  0  0  0  0  0
  195.2920  175.0000  146.1370 C   0  0  0  0  0  3  0  0  0  0  0  0
  194.0010  174.5020  145.9250 C   0  0  0  0  0  0  0  0  0  0  0  0
  193.8280  173.1570  145.5540 C   0  0  0  0  0  3  0  0  0  0  0  0
  194.7540  170.9060  144.9900 C   0  0  0  0  0  1  0  0  0  0  0  0
  196.2270  172.8300  145.5960 C   0  0  0  0  0  3  0  0  0  0  0  0
  194.9390  172.3270  145.3860 C   0  0  0  0  0  0  0  0  0  0  0  0
  196.4030  174.1650  145.9750 C   0  0  0  0  0  3  0  0  0  0  0  0
  194.2060  170.1740  141.3130 C   0  0  0  0  0  1  0  0  0  0  0  0
  195.3320  171.0160  141.1220 O   0  0  0  0  0  0  0  0  0  0  0  0
  1  4  2  0  0  0  0
  2 22  1  0  0  0  0
  3 20  1  0  0  0  0
  4 12  1  0  0  0  0
  6 11  2  0  0  0  0
  7 10  1  0  0  0  0
  7  3  1  1  0  0  0
  8 18  1  0  0  0  0
  9  6  1  0  0  0  0
  9  3  2  0  0  0  0
 10  5  1  1  0  0  0
 10 23  1  0  0  0  0
 11 16  1  0  0  0  0
 12  8  1  0  0  0  0
 13 17  1  6  0  0  0
 13  9  1  0  0  0  0
 14  2  1  0  0  0  0
 17  2  1  0  0  0  0
 18 25  1  0  0  0  0
 18 19  1  0  0  0  0
 19  5  1  0  0  0  0
 20 16  2  0  0  0  0
 20 15  1  0  0  0  0
 21 27  1  6  0  0  0
 21 13  1  0  0  0  0
 21  7  1  0  0  0  0
 22  6  1  0  0  0  0
 23 30  1  6  0  0  0
 23 28  1  0  0  0  0
 24  2  1  0  0  0  0
 25 27  1  0  0  0  0
 26  8  2  0  0  0  0
 28 15  1  0  0  0  0
 30 29  2  0  0  0  0
 31 30  1  0  0  0  0
 32 34  1  0  0  0  0
 33 35  2  0  0  0  0
 34 31  2  0  0  0  0
 34 33  1  0  0  0  0
 35 29  1  0  0  0  0
 37  4  1  0  0  0  0
 37 36  1  0  0  0  0
M  END
>  <MODEL>
1

>  <REMARK>
 VINA RESULT:      -8.7      0.000      0.000
  Name = 
  2 active torsions:
  status: ('A' for Active; 'I' for Inactive)
    1  A    between atoms: C_4  and  O_37
    2  A    between atoms: C_23  and  C_30
                            x       y       z     vdW  Elec       q    Type
                         _______ _______ _______ _____ _____    ______ ____

>  <TORSDO>
F 2

$$$$
=
 OpenBabel11112417243D

 37 42  0  0  1  0  0  0  0  0999 V2000
  186.9450  174.9550  142.3610 O   0  0  0  0  0  0  0  0  0  0  0  0
  197.0300  171.0060  142.0430 C   0  0  0  0  0  0  0  0  0  0  0  0
  195.2140  173.9890  144.3620 C   0  0  0  0  0  0  0  0  0  0  0  0
  187.8170  175.4800  141.6190 C   0  0  0  0  0  0  0  0  0  0  0  0
  191.8780  172.9760  144.5350 C   0  0  0  0  0  2  0  0  0  0  0  0
  197.1230  172.5370  144.1110 C   0  0  0  0  0  0  0  0  0  0  0  0
  193.9750  174.2750  143.5830 C   0  0  2  0  0  3  0  0  0  0  0  0
  189.6020  173.7840  142.2780 C   0  0  0  0  0  0  0  0  0  0  0  0
  195.9820  173.1520  143.6120 C   0  0  0  0  0  0  0  0  0  0  0  0
  192.6600  174.2900  144.3960 C   0  0  2  0  0  3  0  0  0  0  0  0
  197.5660  172.9130  145.3880 C   0  0  0  0  0  3  0  0  0  0  0  0
  189.1470  174.9440  141.5650 N   0  0  0  0  0  2  0  0  0  0  0  0
  195.3400  172.8550  142.3250 C   0  0  1  0  0  3  0  0  0  0  0  0
  197.1620  169.5150  141.8190 C   0  0  0  0  0  1  0  0  0  0  0  0
  194.8790  175.3620  146.5130 C   0  0  0  0  0  2  0  0  0  0  0  0
  196.8420  173.8680  146.1320 C   0  0  0  0  0  3  0  0  0  0  0  0
  195.5280  171.3700  142.0220 C   0  0  0  0  0  2  0  0  0  0  0  0
  190.9930  173.4250  142.2530 N   0  0  0  0  0  0  0  0  0  0  0  0
  191.4630  172.3870  143.1780 C   0  0  0  0  0  2  0  0  0  0  0  0
  195.6470  174.4200  145.6300 C   0  0  0  0  0  0  0  0  0  0  0  0
  193.9400  173.2260  142.5400 N   0  0  2  0  0  0  0  0  0  0  0  0
  197.7200  171.3580  143.3850 C   0  0  0  0  0  2  0  0  0  0  0  0
  192.5560  175.2070  145.6190 C   0  0  1  0  0  3  0  0  0  0  0  0
  197.7540  171.7170  140.9120 C   0  0  0  0  0  1  0  0  0  0  0  0
  191.9190  174.2720  141.4750 C   0  0  0  0  0  2  0  0  0  0  0  0
  188.7830  173.0800  142.9300 O   0  0  0  0  0  0  0  0  0  0  0  0
  193.3520  173.7230  141.2970 C   0  0  0  0  0  2  0  0  0  0  0  0
  193.7630  176.1200  145.8080 C   0  0  0  0  0  2  0  0  0  0  0  0
  191.2400  177.1350  144.7160 C   0  0  0  0  0  3  0  0  0  0  0  0
  191.2970  176.0130  145.5520 C   0  0  0  0  0  0  0  0  0  0  0  0
  190.1680  175.6540  146.3090 C   0  0  0  0  0  3  0  0  0  0  0  0
  187.8110  176.0410  147.0410 C   0  0  0  0  0  1  0  0  0  0  0  0
  188.9520  177.5410  145.4020 C   0  0  0  0  0  3  0  0  0  0  0  0
  189.0020  176.4200  146.2370 C   0  0  0  0  0  0  0  0  0  0  0  0
  190.0690  177.8970  144.6400 C   0  0  0  0  0  3  0  0  0  0  0  0
  187.5750  177.9160  141.3740 C   0  0  0  0  0  1  0  0  0  0  0  0
  187.4760  176.5980  140.8570 O   0  0  0  0  0  0  0  0  0  0  0  0
  2 22  1  0  0  0  0
  3 20  1  0  0  0  0
  4  1  2  0  0  0  0
  6 11  2  0  0  0  0
  7  3  1  1  0  0  0
  7 10  1  0  0  0  0
  8 26  2  0  0  0  0
  9  6  1  0  0  0  0
  9  3  2  0  0  0  0
 10  5  1  1  0  0  0
 10 23  1  0  0  0  0
 11 16  1  0  0  0  0
 12  4  1  0  0  0  0
 12  8  1  0  0  0  0
 13 17  1  1  0  0  0
 13 21  1  0  0  0  0
 13  9  1  0  0  0  0
 14  2  1  0  0  0  0
 17  2  1  0  0  0  0
 18  8  1  0  0  0  0
 18 19  1  0  0  0  0
 19  5  1  0  0  0  0
 20 16  2  0  0  0  0
 20 15  1  0  0  0  0
 21 27  1  6  0  0  0
 21  7  1  0  0  0  0
 22  6  1  0  0  0  0
 23 30  1  6  0  0  0
 23 28  1  0  0  0  0
 24  2  1  0  0  0  0
 25 18  1  0  0  0  0
 27 25  1  0  0  0  0
 28 15  1  0  0  0  0
 29 30  1  0  0  0  0
 30 31  2  0  0  0  0
 33 34  2  0  0  0  0
 34 31  1  0  0  0  0
 34 32  1  0  0  0  0
 35 29  2  0  0  0  0
 35 33  1  0  0  0  0
 37 36  1  0  0  0  0
 37  4  1  0  0  0  0
M  END
>  <MODEL>
2

>  <REMARK>
 VINA RESULT:      -7.9      2.639      7.664
  Name = 
  2 active torsions:
  status: ('A' for Active; 'I' for Inactive)
    1  A    between atoms: C_4  and  O_37
    2  A    between atoms: C_23  and  C_30
                            x       y       z     vdW  Elec       q    Type
                         _______ _______ _______ _____ _____    ______ ____

>  <TORSDO>
F 2

$$$$
=
 OpenBabel11112417243D

 37 42  0  0  1  0  0  0  0  0999 V2000
  184.5900  177.4370  143.2530 O   0  0  0  0  0  0  0  0  0  0  0  0
  195.1320  175.4690  141.7140 C   0  0  0  0  0  0  0  0  0  0  0  0
  192.8420  176.1740  145.1530 C   0  0  0  0  0  0  0  0  0  0  0  0
  185.4040  178.3850  143.0950 C   0  0  0  0  0  0  0  0  0  0  0  0
  189.6770  174.9830  144.2890 C   0  0  0  0  0  2  0  0  0  0  0  0
  194.9430  175.3730  144.2790 C   0  0  0  0  0  0  0  0  0  0  0  0
  191.6010  176.7720  144.5810 C   0  0  2  0  0  3  0  0  0  0  0  0
  187.3850  176.8170  142.7670 C   0  0  0  0  0  0  0  0  0  0  0  0
  193.7440  176.0610  144.1390 C   0  0  0  0  0  0  0  0  0  0  0  0
  190.2720  176.1590  145.0760 C   0  0  2  0  0  3  0  0  0  0  0  0
  195.2870  174.9080  145.5570 C   0  0  0  0  0  3  0  0  0  0  0  0
  186.7970  178.1210  142.8730 N   0  0  0  0  0  2  0  0  0  0  0  0
  193.1920  176.5770  142.8800 C   0  0  1  0  0  3  0  0  0  0  0  0
  195.4790  174.4630  140.6370 C   0  0  0  0  0  1  0  0  0  0  0  0
  192.2480  175.8660  147.6380 C   0  0  0  0  0  2  0  0  0  0  0  0
  194.4120  175.1190  146.6440 C   0  0  0  0  0  3  0  0  0  0  0  0
  193.5960  175.6300  141.7520 C   0  0  0  0  0  2  0  0  0  0  0  0
  188.8130  176.6780  142.6840 N   0  0  0  0  0  0  0  0  0  0  0  0
  189.3930  175.3360  142.8200 C   0  0  0  0  0  2  0  0  0  0  0  0
  193.1690  175.7550  146.4570 C   0  0  0  0  0  0  0  0  0  0  0  0
  191.7480  176.6060  143.1180 N   0  0  2  0  0  0  0  0  0  0  0  0
  195.7220  174.9650  143.0550 C   0  0  0  0  0  2  0  0  0  0  0  0
  190.0000  176.0970  146.5840 C   0  0  1  0  0  3  0  0  0  0  0  0
  195.7870  176.7910  141.3490 C   0  0  0  0  0  1  0  0  0  0  0  0
  189.6360  177.9030  142.7020 C   0  0  0  0  0  2  0  0  0  0  0  0
  186.6520  175.7900  142.7510 O   0  0  0  0  0  0  0  0  0  0  0  0
  191.1370  177.7150  142.3880 C   0  0  0  0  0  2  0  0  0  0  0  0
  191.0610  176.7950  147.4290 C   0  0  0  0  0  2  0  0  0  0  0  0
  187.5060  176.0030  146.3890 C   0  0  0  0  0  3  0  0  0  0  0  0
  188.6440  176.6530  146.8850 C   0  0  0  0  0  0  0  0  0  0  0  0
  188.4950  177.8100  147.6680 C   0  0  0  0  0  3  0  0  0  0  0  0
  187.0660  179.5440  148.7630 C   0  0  0  0  0  1  0  0  0  0  0  0
  186.0890  177.6660  147.4370 C   0  0  0  0  0  3  0  0  0  0  0  0
  187.2210  178.3170  147.9380 C   0  0  0  0  0  0  0  0  0  0  0  0
  186.2310  176.5080  146.6650 C   0  0  0  0  0  3  0  0  0  0  0  0
  185.1910  180.5410  144.2630 C   0  0  0  0  0  1  0  0  0  0  0  0
  184.9340  179.6980  143.1500 O   0  0  0  0  0  0  0  0  0  0  0  0
  2 17  1  0  0  0  0
  2 22  1  0  0  0  0
  3 20  1  0  0  0  0
  4 37  1  0  0  0  0
  4  1  2  0  0  0  0
  6 11  2  0  0  0  0
  7 10  1  0  0  0  0
  7  3  1  1  0  0  0
  8 12  1  0  0  0  0
  9  6  1  0  0  0  0
  9  3  2  0  0  0  0
 10  5  1  1  0  0  0
 10 23  1  0  0  0  0
 11 16  1  0  0  0  0
 12  4  1  0  0  0  0
 13 17  1  6  0  0  0
 13 21  1  0  0  0  0
 13  9  1  0  0  0  0
 14  2  1  0  0  0  0
 18 25  1  0  0  0  0
 18  8  1  0  0  0  0
 18 19  1  0  0  0  0
 19  5  1  0  0  0  0
 20 16  2  0  0  0  0
 20 15  1  0  0  0  0
 21 27  1  6  0  0  0
 21  7  1  0  0  0  0
 22  6  1  0  0  0  0
 23 30  1  6  0  0  0
 23 28  1  0  0  0  0
 24  2  1  0  0  0  0
 26  8  2  0  0  0  0
 27 25  1  0  0  0  0
 28 15  1  0  0  0  0
 29 35  2  0  0  0  0
 29 30  1  0  0  0  0
 30 31  2  0  0  0  0
 31 34  1  0  0  0  0
 33 34  2  0  0  0  0
 34 32  1  0  0  0  0
 35 33  1  0  0  0  0
 37 36  1  0  0  0  0
M  END
>  <MODEL>
3

>  <REMARK>
 VINA RESULT:      -7.5      3.278      7.801
  Name = 
  2 active torsions:
  status: ('A' for Active; 'I' for Inactive)
    1  A    between atoms: C_4  and  O_37
    2  A    between atoms: C_23  and  C_30
                            x       y       z     vdW  Elec       q    Type
                         _______ _______ _______ _____ _____    ______ ____

>  <TORSDO>
F 2

$$$$
=
 OpenBabel11112417243D

 37 42  0  0  1  0  0  0  0  0999 V2000
  194.9810  172.9600  144.7230 O   0  0  0  0  0  0  0  0  0  0  0  0
  185.9390  178.2720  147.4480 C   0  0  0  0  0  0  0  0  0  0  0  0
  187.5440  177.0910  143.7600 C   0  0  0  0  0  0  0  0  0  0  0  0
  194.9700  174.2180  144.7870 C   0  0  0  0  0  0  0  0  0  0  0  0
  189.3840  174.2310  144.5440 C   0  0  0  0  0  2  0  0  0  0  0  0
  185.5870  177.8800  144.9280 C   0  0  0  0  0  0  0  0  0  0  0  0
  188.9630  176.8060  144.1170 C   0  0  2  0  0  3  0  0  0  0  0  0
  192.5360  174.2990  145.5390 C   0  0  0  0  0  0  0  0  0  0  0  0
  186.9550  177.6570  144.8490 C   0  0  0  0  0  0  0  0  0  0  0  0
  189.5190  175.4510  143.6220 C   0  0  2  0  0  3  0  0  0  0  0  0
  184.8160  177.6430  143.7790 C   0  0  0  0  0  3  0  0  0  0  0  0
  193.7760  174.9180  145.1660 N   0  0  0  0  0  2  0  0  0  0  0  0
  187.9130  177.7990  145.9530 C   0  0  1  0  0  3  0  0  0  0  0  0
  185.2360  177.8040  148.7030 C   0  0  0  0  0  1  0  0  0  0  0  0
  187.3840  176.2860  141.3210 C   0  0  0  0  0  2  0  0  0  0  0  0
  185.4330  177.1640  142.6040 C   0  0  0  0  0  3  0  0  0  0  0  0
  187.2110  177.4160  147.2550 C   0  0  0  0  0  2  0  0  0  0  0  0
  191.3690  175.1070  145.7630 N   0  0  0  0  0  0  0  0  0  0  0  0
  190.0710  174.4350  145.9030 C   0  0  0  0  0  2  0  0  0  0  0  0
  186.8110  176.8770  142.5770 C   0  0  0  0  0  0  0  0  0  0  0  0
  188.9990  176.8840  145.5940 N   0  0  2  0  0  0  0  0  0  0  0  0
  184.9460  178.1570  146.2640 C   0  0  0  0  0  2  0  0  0  0  0  0
  189.4320  175.1150  142.1300 C   0  0  1  0  0  3  0  0  0  0  0  0
  186.3170  179.7320  147.6380 C   0  0  0  0  0  1  0  0  0  0  0  0
  191.4910  176.5700  145.6080 C   0  0  0  0  0  2  0  0  0  0  0  0
  192.4660  173.0460  145.6660 O   0  0  0  0  0  0  0  0  0  0  0  0
  190.2780  177.4040  146.0740 C   0  0  0  0  0  2  0  0  0  0  0  0
  188.9050  176.2600  141.2710 C   0  0  0  0  0  2  0  0  0  0  0  0
  191.9260  175.3130  142.0510 C   0  0  0  0  0  3  0  0  0  0  0  0
  190.7650  174.6550  141.6270 C   0  0  0  0  0  0  0  0  0  0  0  0
  190.8670  173.5670  140.7430 C   0  0  0  0  0  3  0  0  0  0  0  0
  192.2250  172.0050  139.3430 C   0  0  0  0  0  1  0  0  0  0  0  0
  193.2750  173.8160  140.7060 C   0  0  0  0  0  3  0  0  0  0  0  0
  192.1190  173.1530  140.2810 C   0  0  0  0  0  0  0  0  0  0  0  0
  193.1790  174.8930  141.5920 C   0  0  0  0  0  3  0  0  0  0  0  0
  196.0900  176.2020  143.8580 C   0  0  0  0  0  1  0  0  0  0  0  0
  196.1320  174.9240  144.4740 O   0  0  0  0  0  0  0  0  0  0  0  0
  1  4  2  0  0  0  0
  2 24  1  0  0  0  0
  2 14  1  0  0  0  0
  3  9  1  0  0  0  0
  4 12  1  0  0  0  0
  5 19  1  0  0  0  0
  6 22  1  0  0  0  0
  7  3  1  1  0  0  0
  7 21  1  0  0  0  0
  8 26  2  0  0  0  0
  8 18  1  0  0  0  0
  9  6  2  0  0  0  0
  9 13  1  0  0  0  0
 10  7  1  0  0  0  0
 10  5  1  1  0  0  0
 11  6  1  0  0  0  0
 12  8  1  0  0  0  0
 13 17  1  1  0  0  0
 15 20  1  0  0  0  0
 16 11  2  0  0  0  0
 17  2  1  0  0  0  0
 18 19  1  0  0  0  0
 20 16  1  0  0  0  0
 20  3  2  0  0  0  0
 21 13  1  0  0  0  0
 21 27  1  6  0  0  0
 22  2  1  0  0  0  0
 23 30  1  6  0  0  0
 23 10  1  0  0  0  0
 25 18  1  0  0  0  0
 25 27  1  0  0  0  0
 28 15  1  0  0  0  0
 28 23  1  0  0  0  0
 30 29  1  0  0  0  0
 31 30  2  0  0  0  0
 32 34  1  0  0  0  0
 33 35  1  0  0  0  0
 34 33  2  0  0  0  0
 34 31  1  0  0  0  0
 35 29  2  0  0  0  0
 36 37  1  0  0  0  0
 37  4  1  0  0  0  0
M  END
>  <MODEL>
4

>  <REMARK>
 VINA RESULT:      -7.3      2.155      4.853
  Name = 
  2 active torsions:
  status: ('A' for Active; 'I' for Inactive)
    1  A    between atoms: C_4  and  O_37
    2  A    between atoms: C_23  and  C_30
                            x       y       z     vdW  Elec       q    Type
                         _______ _______ _______ _____ _____    ______ ____

>  <TORSDO>
F 2

$$$$
=
 OpenBabel11112417243D

 37 42  0  0  1  0  0  0  0  0999 V2000
  186.7280  178.9570  146.3030 O   0  0  0  0  0  0  0  0  0  0  0  0
  194.5850  171.7050  144.5550 C   0  0  0  0  0  0  0  0  0  0  0  0
  191.2460  172.8800  142.3100 C   0  0  0  0  0  0  0  0  0  0  0  0
  186.5860  177.7580  146.6610 C   0  0  0  0  0  0  0  0  0  0  0  0
  190.7430  176.1990  143.2630 C   0  0  0  0  0  2  0  0  0  0  0  0
  193.3590  171.7160  142.2920 C   0  0  0  0  0  0  0  0  0  0  0  0
  190.4150  173.5770  143.3330 C   0  0  2  0  0  3  0  0  0  0  0  0
  188.9150  177.0970  145.8680 C   0  0  0  0  0  0  0  0  0  0  0  0
  192.2880  172.2940  142.9620 C   0  0  0  0  0  0  0  0  0  0  0  0
  189.8850  174.9710  142.9290 C   0  0  2  0  0  3  0  0  0  0  0  0
  193.2800  171.6120  140.8950 C   0  0  0  0  0  3  0  0  0  0  0  0
  187.6350  176.8030  146.4450 N   0  0  0  0  0  2  0  0  0  0  0  0
  192.2100  172.5360  144.4080 C   0  0  1  0  0  3  0  0  0  0  0  0
  195.9750  172.0950  145.0120 C   0  0  0  0  0  1  0  0  0  0  0  0
  189.9840  173.3470  140.1160 C   0  0  0  0  0  2  0  0  0  0  0  0
  192.1500  172.1120  140.2140 C   0  0  0  0  0  3  0  0  0  0  0  0
  193.6140  172.8500  144.9220 C   0  0  0  0  0  2  0  0  0  0  0  0
  189.8330  176.0310  145.5730 N   0  0  0  0  0  0  0  0  0  0  0  0
  191.0220  176.3360  144.7680 C   0  0  0  0  0  2  0  0  0  0  0  0
  191.1130  172.7590  140.9130 C   0  0  0  0  0  0  0  0  0  0  0  0
  191.2890  173.6680  144.5230 N   0  0  2  0  0  0  0  0  0  0  0  0
  194.6370  171.4190  143.0330 C   0  0  0  0  0  2  0  0  0  0  0  0
  189.0810  175.1100  141.6310 C   0  0  1  0  0  3  0  0  0  0  0  0
  194.1910  170.4320  145.2860 C   0  0  0  0  0  1  0  0  0  0  0  0
  189.4220  174.6490  145.8890 C   0  0  0  0  0  2  0  0  0  0  0  0
  189.2370  178.2910  145.6130 O   0  0  0  0  0  0  0  0  0  0  0  0
  190.5200  173.5700  145.7630 C   0  0  0  0  0  2  0  0  0  0  0  0
  188.7840  173.7810  140.9460 C   0  0  0  0  0  2  0  0  0  0  0  0
  187.1680  175.7200  143.1280 C   0  0  0  0  0  3  0  0  0  0  0  0
  187.8110  175.8590  141.8910 C   0  0  0  0  0  0  0  0  0  0  0  0
  187.2610  176.7080  140.9150 C   0  0  0  0  0  3  0  0  0  0  0  0
  185.4900  178.2910  140.1380 C   0  0  0  0  0  1  0  0  0  0  0  0
  185.4340  177.2520  142.4090 C   0  0  0  0  0  3  0  0  0  0  0  0
  186.0730  177.3970  141.1730 C   0  0  0  0  0  0  0  0  0  0  0  0
  185.9830  176.4160  143.3860 C   0  0  0  0  0  3  0  0  0  0  0  0
  184.1400  177.9170  146.8740 C   0  0  0  0  0  1  0  0  0  0  0  0
  185.3890  177.3660  147.2620 O   0  0  0  0  0  0  0  0  0  0  0  0
  1  4  2  0  0  0  0
  2 17  1  0  0  0  0
  2 14  1  0  0  0  0
  2 24  1  0  0  0  0
  3  9  1  0  0  0  0
  4 37  1  0  0  0  0
  5 19  1  0  0  0  0
  6  9  2  0  0  0  0
  6 22  1  0  0  0  0
  7  3  1  6  0  0  0
  7 21  1  0  0  0  0
  8 12  1  0  0  0  0
  9 13  1  0  0  0  0
 10  5  1  6  0  0  0
 10  7  1  0  0  0  0
 11  6  1  0  0  0  0
 12  4  1  0  0  0  0
 13 21  1  0  0  0  0
 13 17  1  6  0  0  0
 15 20  1  0  0  0  0
 15 28  1  0  0  0  0
 16 11  2  0  0  0  0
 16 20  1  0  0  0  0
 18  8  1  0  0  0  0
 18 25  1  0  0  0  0
 19 18  1  0  0  0  0
 20  3  2  0  0  0  0
 21 27  1  1  0  0  0
 22  2  1  0  0  0  0
 23 30  1  1  0  0  0
 23 10  1  0  0  0  0
 26  8  2  0  0  0  0
 27 25  1  0  0  0  0
 28 23  1  0  0  0  0
 29 35  1  0  0  0  0
 30 29  2  0  0  0  0
 31 34  2  0  0  0  0
 31 30  1  0  0  0  0
 32 34  1  0  0  0  0
 33 35  2  0  0  0  0
 34 33  1  0  0  0  0
 36 37  1  0  0  0  0
M  END
>  <MODEL>
5

>  <REMARK>
 VINA RESULT:      -7.2      3.332      8.670
  Name = 
  2 active torsions:
  status: ('A' for Active; 'I' for Inactive)
    1  A    between atoms: C_4  and  O_37
    2  A    between atoms: C_23  and  C_30
                            x       y       z     vdW  Elec       q    Type
                         _______ _______ _______ _____ _____    ______ ____

>  <TORSDO>
F 2

$$$$
=
 OpenBabel11112417243D

 37 42  0  0  1  0  0  0  0  0999 V2000
  188.1080  178.0000  146.2250 O   0  0  0  0  0  0  0  0  0  0  0  0
  194.1920  169.8700  142.4460 C   0  0  0  0  0  0  0  0  0  0  0  0
  190.8110  171.8340  140.9360 C   0  0  0  0  0  0  0  0  0  0  0  0
  187.8120  176.8030  146.4830 C   0  0  0  0  0  0  0  0  0  0  0  0
  191.0570  175.0440  142.2830 C   0  0  0  0  0  2  0  0  0  0  0  0
  192.6560  170.3610  140.4400 C   0  0  0  0  0  0  0  0  0  0  0  0
  190.2830  172.5200  142.1500 C   0  0  2  0  0  3  0  0  0  0  0  0
  189.8380  175.8860  145.2390 C   0  0  0  0  0  0  0  0  0  0  0  0
  191.8200  171.0130  141.3380 C   0  0  0  0  0  0  0  0  0  0  0  0
  189.9530  174.0200  141.9820 C   0  0  2  0  0  3  0  0  0  0  0  0
  192.3460  170.4480  139.0740 C   0  0  0  0  0  3  0  0  0  0  0  0
  188.6300  175.7290  145.9960 N   0  0  0  0  0  2  0  0  0  0  0  0
  192.0080  171.0800  142.7920 C   0  0  1  0  0  3  0  0  0  0  0  0
  195.6820  169.9740  142.6920 C   0  0  0  0  0  1  0  0  0  0  0  0
  189.3310  172.7690  139.0490 C   0  0  0  0  0  2  0  0  0  0  0  0
  191.2320  171.2030  138.6500 C   0  0  0  0  0  3  0  0  0  0  0  0
  193.5080  171.0990  143.0850 C   0  0  0  0  0  2  0  0  0  0  0  0
  190.4950  174.7330  144.6870 N   0  0  0  0  0  0  0  0  0  0  0  0
  191.5830  174.9440  143.7240 C   0  0  0  0  0  2  0  0  0  0  0  0
  190.4460  171.9130  139.5780 C   0  0  0  0  0  0  0  0  0  0  0  0
  191.3310  172.3200  143.1750 N   0  0  2  0  0  0  0  0  0  0  0  0
  193.9590  169.7740  140.9170 C   0  0  0  0  0  2  0  0  0  0  0  0
  188.9970  174.4480  140.8630 C   0  0  1  0  0  3  0  0  0  0  0  0
  193.6950  168.5940  143.1050 C   0  0  0  0  0  1  0  0  0  0  0  0
  189.8990  173.4060  144.9320 C   0  0  0  0  0  2  0  0  0  0  0  0
  190.3240  177.0350  145.0510 O   0  0  0  0  0  0  0  0  0  0  0  0
  190.7560  172.1900  144.5130 C   0  0  0  0  0  2  0  0  0  0  0  0
  188.3680  173.2800  140.1120 C   0  0  0  0  0  2  0  0  0  0  0  0
  187.4920  175.1750  142.7270 C   0  0  0  0  0  3  0  0  0  0  0  0
  187.9360  175.3500  141.4100 C   0  0  0  0  0  0  0  0  0  0  0  0
  187.3850  176.3770  140.6240 C   0  0  0  0  0  3  0  0  0  0  0  0
  185.8090  178.2910  140.3140 C   0  0  0  0  0  1  0  0  0  0  0  0
  185.9520  177.0270  142.4630 C   0  0  0  0  0  3  0  0  0  0  0  0
  186.3930  177.2080  141.1480 C   0  0  0  0  0  0  0  0  0  0  0  0
  186.5030  176.0120  143.2530 C   0  0  0  0  0  3  0  0  0  0  0  0
  185.3750  176.9170  146.8040 C   0  0  0  0  0  1  0  0  0  0  0  0
  186.6710  176.5340  147.2390 O   0  0  0  0  0  0  0  0  0  0  0  0
  1  4  2  0  0  0  0
  2 14  1  0  0  0  0
  2 17  1  0  0  0  0
  2 24  1  0  0  0  0
  3  9  1  0  0  0  0
  4 37  1  0  0  0  0
  5 19  1  0  0  0  0
  6 22  1  0  0  0  0
  6  9  2  0  0  0  0
  7  3  1  6  0  0  0
  7 21  1  0  0  0  0
  8 12  1  0  0  0  0
  9 13  1  0  0  0  0
 10  7  1  0  0  0  0
 10  5  1  6  0  0  0
 11  6  1  0  0  0  0
 12  4  1  0  0  0  0
 13 17  1  6  0  0  0
 13 21  1  0  0  0  0
 15 20  1  0  0  0  0
 15 28  1  0  0  0  0
 16 11  2  0  0  0  0
 16 20  1  0  0  0  0
 18 25  1  0  0  0  0
 18  8  1  0  0  0  0
 19 18  1  0  0  0  0
 20  3  2  0  0  0  0
 21 27  1  1  0  0  0
 22  2  1  0  0  0  0
 23 30  1  1  0  0  0
 23 10  1  0  0  0  0
 26  8  2  0  0  0  0
 27 25  1  0  0  0  0
 28 23  1  0  0  0  0
 29 35  1  0  0  0  0
 30 29  2  0  0  0  0
 31 34  2  0  0  0  0
 31 30  1  0  0  0  0
 32 34  1  0  0  0  0
 33 35  2  0  0  0  0
 34 33  1  0  0  0  0
 36 37  1  0  0  0  0
M  END
>  <MODEL>
6

>  <REMARK>
 VINA RESULT:      -7.1      3.268      8.769
  Name = 
  2 active torsions:
  status: ('A' for Active; 'I' for Inactive)
    1  A    between atoms: C_4  and  O_37
    2  A    between atoms: C_23  and  C_30
                            x       y       z     vdW  Elec       q    Type
                         _______ _______ _______ _____ _____    ______ ____

>  <TORSDO>
F 2

$$$$
=
 OpenBabel11112417243D

 37 42  0  0  1  0  0  0  0  0999 V2000
  192.6650  171.3790  138.8850 O   0  0  0  0  0  0  0  0  0  0  0  0
  186.7350  177.5990  145.4840 C   0  0  0  0  0  0  0  0  0  0  0  0
  190.4040  175.6290  145.9650 C   0  0  0  0  0  0  0  0  0  0  0  0
  191.8140  170.8660  139.6590 C   0  0  0  0  0  0  0  0  0  0  0  0
  191.7150  175.5350  142.7320 C   0  0  0  0  0  2  0  0  0  0  0  0
  188.9050  177.3060  146.8370 C   0  0  0  0  0  0  0  0  0  0  0  0
  190.3820  174.6540  144.8380 C   0  0  2  0  0  3  0  0  0  0  0  0
  191.0630  173.1270  140.5630 C   0  0  0  0  0  0  0  0  0  0  0  0
  189.1760  176.2150  146.0220 C   0  0  0  0  0  0  0  0  0  0  0  0
  191.6530  174.6150  143.9590 C   0  0  2  0  0  3  0  0  0  0  0  0
  189.9010  177.7160  147.7370 C   0  0  0  0  0  3  0  0  0  0  0  0
  191.0170  171.6930  140.5180 N   0  0  0  0  0  2  0  0  0  0  0  0
  188.2840  175.6730  144.9880 C   0  0  1  0  0  3  0  0  0  0  0  0
  186.0330  178.7780  144.8460 C   0  0  0  0  0  1  0  0  0  0  0  0
  192.7850  175.3750  146.9080 C   0  0  0  0  0  2  0  0  0  0  0  0
  191.1410  177.0430  147.7700 C   0  0  0  0  0  3  0  0  0  0  0  0
  187.4920  176.8290  144.3790 C   0  0  0  0  0  2  0  0  0  0  0  0
  190.3180  173.8380  141.5650 N   0  0  0  0  0  0  0  0  0  0  0  0
  190.5740  175.2740  141.7360 C   0  0  0  0  0  2  0  0  0  0  0  0
  191.4140  175.9870  146.8790 C   0  0  0  0  0  0  0  0  0  0  0  0
  189.1970  175.0360  144.0380 N   0  0  2  0  0  0  0  0  0  0  0  0
  187.6700  178.1350  146.5980 C   0  0  0  0  0  2  0  0  0  0  0  0
  193.0100  174.3830  144.6310 C   0  0  1  0  0  3  0  0  0  0  0  0
  185.6780  176.7060  146.1110 C   0  0  0  0  0  1  0  0  0  0  0  0
  189.5110  173.0570  142.5220 C   0  0  0  0  0  2  0  0  0  0  0  0
  191.7610  173.7650  139.7280 O   0  0  0  0  0  0  0  0  0  0  0  0
  188.5600  173.8700  143.4290 C   0  0  0  0  0  2  0  0  0  0  0  0
  192.9150  174.0780  146.1220 C   0  0  0  0  0  2  0  0  0  0  0  0
  193.0800  172.1310  143.5410 C   0  0  0  0  0  3  0  0  0  0  0  0
  193.7570  173.2960  143.9230 C   0  0  0  0  0  0  0  0  0  0  0  0
  195.1230  173.4340  143.6250 C   0  0  0  0  0  3  0  0  0  0  0  0
  197.2510  172.5540  142.6560 C   0  0  0  0  0  1  0  0  0  0  0  0
  195.1250  171.2450  142.5900 C   0  0  0  0  0  3  0  0  0  0  0  0
  195.8050  172.4080  142.9660 C   0  0  0  0  0  0  0  0  0  0  0  0
  193.7630  171.1080  142.8750 C   0  0  0  0  0  3  0  0  0  0  0  0
  190.7620  168.8110  138.8070 C   0  0  0  0  0  1  0  0  0  0  0  0
  191.6630  169.4790  139.6760 O   0  0  0  0  0  0  0  0  0  0  0  0
  1  4  2  0  0  0  0
  2 24  1  0  0  0  0
  2 22  1  0  0  0  0
  3  9  2  0  0  0  0
  3 20  1  0  0  0  0
  4 37  1  0  0  0  0
  4 12  1  0  0  0  0
  6 11  2  0  0  0  0
  7  3  1  1  0  0  0
  8 18  1  0  0  0  0
  9  6  1  0  0  0  0
 10  5  1  1  0  0  0
 10 23  1  0  0  0  0
 10  7  1  0  0  0  0
 11 16  1  0  0  0  0
 12  8  1  0  0  0  0
 13 17  1  6  0  0  0
 13  9  1  0  0  0  0
 14  2  1  0  0  0  0
 17  2  1  0  0  0  0
 18 19  1  0  0  0  0
 18 25  1  0  0  0  0
 19  5  1  0  0  0  0
 20 15  1  0  0  0  0
 20 16  2  0  0  0  0
 21 27  1  1  0  0  0
 21  7  1  0  0  0  0
 21 13  1  0  0  0  0
 22  6  1  0  0  0  0
 23 30  1  6  0  0  0
 23 28  1  0  0  0  0
 25 27  1  0  0  0  0
 26  8  2  0  0  0  0
 28 15  1  0  0  0  0
 29 30  1  0  0  0  0
 31 30  2  0  0  0  0
 32 34  1  0  0  0  0
 33 35  1  0  0  0  0
 33 34  2  0  0  0  0
 34 31  1  0  0  0  0
 35 29  2  0  0  0  0
 36 37  1  0  0  0  0
M  END
>  <MODEL>
7

>  <REMARK>
 VINA RESULT:      -7.0      2.044      2.763
  Name = 
  2 active torsions:
  status: ('A' for Active; 'I' for Inactive)
    1  A    between atoms: C_4  and  O_37
    2  A    between atoms: C_23  and  C_30
                            x       y       z     vdW  Elec       q    Type
                         _______ _______ _______ _____ _____    ______ ____

>  <TORSDO>
F 2

$$$$
=
 OpenBabel11112417243D

 37 42  0  0  1  0  0  0  0  0999 V2000
  186.0210  176.0740  142.8000 O   0  0  0  0  0  0  0  0  0  0  0  0
  193.9520  169.5060  139.4320 C   0  0  0  0  0  0  0  0  0  0  0  0
  193.4440  171.8100  142.8960 C   0  0  0  0  0  0  0  0  0  0  0  0
  186.9920  176.5270  142.1390 C   0  0  0  0  0  0  0  0  0  0  0  0
  189.9800  171.9440  143.2920 C   0  0  0  0  0  2  0  0  0  0  0  0
  194.6820  170.0270  141.8450 C   0  0  0  0  0  0  0  0  0  0  0  0
  192.3640  172.7520  142.4860 C   0  0  2  0  0  3  0  0  0  0  0  0
  188.0620  174.2300  141.8690 C   0  0  0  0  0  0  0  0  0  0  0  0
  193.8240  171.1180  141.7880 C   0  0  0  0  0  0  0  0  0  0  0  0
  191.1800  172.8840  143.4710 C   0  0  2  0  0  3  0  0  0  0  0  0
  195.2840  169.7300  143.0770 C   0  0  0  0  0  3  0  0  0  0  0  0
  188.0320  175.6520  141.6780 N   0  0  0  0  0  2  0  0  0  0  0  0
  193.0650  171.5510  140.6080 C   0  0  1  0  0  3  0  0  0  0  0  0
  193.5230  168.2520  138.7000 C   0  0  0  0  0  1  0  0  0  0  0  0
  193.7230  172.3010  145.4070 C   0  0  0  0  0  2  0  0  0  0  0  0
  194.9880  170.5130  144.2130 C   0  0  0  0  0  3  0  0  0  0  0  0
  192.6860  170.3140  139.7950 C   0  0  0  0  0  2  0  0  0  0  0  0
  189.2250  173.4780  141.4840 N   0  0  0  0  0  0  0  0  0  0  0  0
  189.3220  172.0770  141.9100 C   0  0  0  0  0  2  0  0  0  0  0  0
  194.0580  171.5680  144.1410 C   0  0  0  0  0  0  0  0  0  0  0  0
  191.9060  172.2450  141.1740 N   0  0  2  0  0  0  0  0  0  0  0  0
  194.7780  169.0840  140.6740 C   0  0  0  0  0  2  0  0  0  0  0  0
  191.4680  173.2540  144.9300 C   0  0  1  0  0  3  0  0  0  0  0  0
  194.8380  170.3140  138.4990 C   0  0  0  0  0  1  0  0  0  0  0  0
  190.3630  174.2070  140.8900 C   0  0  0  0  0  2  0  0  0  0  0  0
  187.0710  173.6370  142.3780 O   0  0  0  0  0  0  0  0  0  0  0  0
  191.4890  173.3340  140.2920 C   0  0  0  0  0  2  0  0  0  0  0  0
  192.9310  173.5850  145.2040 C   0  0  0  0  0  2  0  0  0  0  0  0
  189.7830  174.2430  146.4950 C   0  0  0  0  0  3  0  0  0  0  0  0
  190.5870  174.3860  145.3570 C   0  0  0  0  0  0  0  0  0  0  0  0
  190.5650  175.5940  144.6400 C   0  0  0  0  0  3  0  0  0  0  0  0
  189.7090  177.9150  144.2880 C   0  0  0  0  0  1  0  0  0  0  0  0
  188.9310  176.4900  146.1860 C   0  0  0  0  0  3  0  0  0  0  0  0
  189.7350  176.6400  145.0510 C   0  0  0  0  0  0  0  0  0  0  0  0
  188.9570  175.2930  146.9090 C   0  0  0  0  0  3  0  0  0  0  0  0
  186.4140  178.8510  142.7030 C   0  0  0  0  0  1  0  0  0  0  0  0
  187.0500  177.8950  141.8690 O   0  0  0  0  0  0  0  0  0  0  0  0
  2 17  1  0  0  0  0
  2 22  1  0  0  0  0
  3 20  1  0  0  0  0
  4  1  2  0  0  0  0
  6 11  2  0  0  0  0
  7  3  1  1  0  0  0
  7 10  1  0  0  0  0
  8 26  2  0  0  0  0
  9  6  1  0  0  0  0
  9  3  2  0  0  0  0
 10  5  1  1  0  0  0
 10 23  1  0  0  0  0
 11 16  1  0  0  0  0
 12  8  1  0  0  0  0
 12  4  1  0  0  0  0
 13 17  1  1  0  0  0
 13 21  1  0  0  0  0
 13  9  1  0  0  0  0
 14  2  1  0  0  0  0
 18  8  1  0  0  0  0
 18 19  1  0  0  0  0
 19  5  1  0  0  0  0
 20 16  2  0  0  0  0
 20 15  1  0  0  0  0
 21 27  1  6  0  0  0
 21  7  1  0  0  0  0
 22  6  1  0  0  0  0
 23 28  1  0  0  0  0
 23 30  1  6  0  0  0
 24  2  1  0  0  0  0
 25 18  1  0  0  0  0
 27 25  1  0  0  0  0
 28 15  1  0  0  0  0
 29 35  1  0  0  0  0
 30 29  2  0  0  0  0
 31 34  2  0  0  0  0
 31 30  1  0  0  0  0
 32 34  1  0  0  0  0
 33 35  2  0  0  0  0
 34 33  1  0  0  0  0
 37  4  1  0  0  0  0
 37 36  1  0  0  0  0
M  END
>  <MODEL>
8

>  <REMARK>
 VINA RESULT:      -6.9      3.095      7.937
  Name = 
  2 active torsions:
  status: ('A' for Active; 'I' for Inactive)
    1  A    between atoms: C_4  and  O_37
    2  A    between atoms: C_23  and  C_30
                            x       y       z     vdW  Elec       q    Type
                         _______ _______ _______ _____ _____    ______ ____

>  <TORSDO>
F 2

$$$$
=
 OpenBabel11112417243D

 37 42  0  0  1  0  0  0  0  0999 V2000
  197.3440  174.1840  145.0210 O   0  0  0  0  0  0  0  0  0  0  0  0
  190.7050  171.2590  136.9740 C   0  0  0  0  0  0  0  0  0  0  0  0
  190.1080  173.4330  140.5080 C   0  0  0  0  0  0  0  0  0  0  0  0
  196.6960  173.1050  145.0830 C   0  0  0  0  0  0  0  0  0  0  0  0
  193.2140  174.9090  141.0980 C   0  0  0  0  0  2  0  0  0  0  0  0
  189.2090  172.8390  138.3500 C   0  0  0  0  0  0  0  0  0  0  0  0
  191.3200  173.0760  141.2990 C   0  0  2  0  0  3  0  0  0  0  0  0
  195.6480  173.4380  142.7840 C   0  0  0  0  0  0  0  0  0  0  0  0
  190.0990  172.6440  139.3980 C   0  0  0  0  0  0  0  0  0  0  0  0
  192.0890  174.2650  141.9190 C   0  0  2  0  0  3  0  0  0  0  0  0
  188.1950  173.7950  138.5180 C   0  0  0  0  0  3  0  0  0  0  0  0
  195.8310  172.7110  144.0080 N   0  0  0  0  0  2  0  0  0  0  0  0
  191.2490  171.7320  139.3890 C   0  0  1  0  0  3  0  0  0  0  0  0
  191.2850  171.2960  135.5760 C   0  0  0  0  0  1  0  0  0  0  0  0
  188.9970  175.2640  141.9360 C   0  0  0  0  0  2  0  0  0  0  0  0
  188.1220  174.5410  139.7140 C   0  0  0  0  0  3  0  0  0  0  0  0
  191.8100  171.6750  137.9700 C   0  0  0  0  0  2  0  0  0  0  0  0
  194.6490  173.0170  141.8410 N   0  0  0  0  0  0  0  0  0  0  0  0
  194.3220  173.9110  140.7240 C   0  0  0  0  0  2  0  0  0  0  0  0
  189.0830  174.3730  140.7300 C   0  0  0  0  0  0  0  0  0  0  0  0
  192.1760  172.3290  140.3520 N   0  0  2  0  0  0  0  0  0  0  0  0
  189.4710  172.1960  137.0120 C   0  0  0  0  0  2  0  0  0  0  0  0
  191.3310  175.2510  142.8150 C   0  0  1  0  0  3  0  0  0  0  0  0
  190.2550  169.8360  137.2580 C   0  0  0  0  0  1  0  0  0  0  0  0
  193.8410  171.8260  142.1650 C   0  0  0  0  0  2  0  0  0  0  0  0
  196.3580  174.4510  142.5360 O   0  0  0  0  0  0  0  0  0  0  0  0
  192.9440  171.2860  141.0300 C   0  0  0  0  0  2  0  0  0  0  0  0
  189.8890  174.8440  143.0960 C   0  0  0  0  0  2  0  0  0  0  0  0
  191.7120  174.7200  145.2320 C   0  0  0  0  0  3  0  0  0  0  0  0
  192.0750  175.4580  144.0980 C   0  0  0  0  0  0  0  0  0  0  0  0
  193.1380  176.3730  144.1770 C   0  0  0  0  0  3  0  0  0  0  0  0
  194.9410  177.5270  145.4650 C   0  0  0  0  0  1  0  0  0  0  0  0
  193.4510  175.8180  146.5130 C   0  0  0  0  0  3  0  0  0  0  0  0
  193.8190  176.5550  145.3820 C   0  0  0  0  0  0  0  0  0  0  0  0
  192.4000  174.8990  146.4360 C   0  0  0  0  0  3  0  0  0  0  0  0
  196.8110  170.8850  146.1380 C   0  0  0  0  0  1  0  0  0  0  0  0
  196.8220  172.3020  146.2170 O   0  0  0  0  0  0  0  0  0  0  0  0
  1  4  2  0  0  0  0
  2 22  1  0  0  0  0
  2 24  1  0  0  0  0
  2 17  1  0  0  0  0
  3 20  1  0  0  0  0
  4 37  1  0  0  0  0
  6 11  2  0  0  0  0
  6  9  1  0  0  0  0
  7  3  1  6  0  0  0
  7 10  1  0  0  0  0
  8 12  1  0  0  0  0
  9  3  2  0  0  0  0
 10  5  1  6  0  0  0
 10 23  1  0  0  0  0
 11 16  1  0  0  0  0
 12  4  1  0  0  0  0
 13 17  1  6  0  0  0
 13  9  1  0  0  0  0
 13 21  1  0  0  0  0
 14  2  1  0  0  0  0
 15 28  1  0  0  0  0
 16 20  2  0  0  0  0
 18 25  1  0  0  0  0
 18  8  1  0  0  0  0
 19  5  1  0  0  0  0
 19 18  1  0  0  0  0
 20 15  1  0  0  0  0
 21 27  1  1  0  0  0
 21  7  1  0  0  0  0
 22  6  1  0  0  0  0
 23 28  1  0  0  0  0
 23 30  1  1  0  0  0
 26  8  2  0  0  0  0
 27 25  1  0  0  0  0
 29 35  1  0  0  0  0
 30 31  1  0  0  0  0
 30 29  2  0  0  0  0
 31 34  2  0  0  0  0
 34 32  1  0  0  0  0
 34 33  1  0  0  0  0
 35 33  2  0  0  0  0
 36 37  1  0  0  0  0
M  END
>  <MODEL>
9

>  <REMARK>
 VINA RESULT:      -6.9      3.070      6.054
  Name = 
  2 active torsions:
  status: ('A' for Active; 'I' for Inactive)
    1  A    between atoms: C_4  and  O_37
    2  A    between atoms: C_23  and  C_30
                            x       y       z     vdW  Elec       q    Type
                         _______ _______ _______ _____ _____    ______ ____

>  <TORSDO>
F 2

$$$$
