=
 OpenBabel11112418073D

 34 42  0  0  1  0  0  0  0  0999 V2000
  188.0610  176.0440  142.0220 C   0  0  2  0  0  3  0  0  0  0  0  0
  186.5110  176.7470  140.3250 O   0  0  0  0  0  0  0  0  0  0  0  0
  191.3790  176.3770  147.8400 C   0  0  2  0  0  3  0  0  0  0  0  0
  189.4130  175.2570  143.9200 C   0  0  1  0  0  3  0  0  0  0  0  0
  189.7380  176.9030  145.9410 C   0  0  2  0  0  3  0  0  0  0  0  0
  189.7780  178.1460  147.9860 O   0  0  0  0  0  1  0  0  0  0  0  0
  192.3270  176.6080  146.8200 O   0  0  0  0  0  0  0  0  0  0  0  0
  191.1870  174.7360  145.7830 C   0  0  1  0  0  3  0  0  0  0  0  0
  186.8320  178.2810  142.1220 C   0  0  2  0  0  3  0  0  0  0  0  0
  184.0270  178.9610  143.5060 C   0  0  0  0  0  2  0  0  0  0  0  0
  188.3110  177.3040  145.5890 C   0  0  0  0  0  2  0  0  0  0  0  0
  189.8500  174.4670  146.1400 O   0  0  0  0  0  0  0  0  0  0  0  0
  186.8090  177.9140  143.6200 C   0  0  1  0  0  3  0  0  0  0  0  0
  185.5970  177.8010  140.1670 C   0  0  0  0  0  2  0  0  0  0  0  0
  190.0580  175.5620  145.2760 C   0  0  2  0  0  0  0  0  0  0  0  0
  191.9530  175.2610  147.0190 C   0  0  2  0  0  3  0  0  0  0  0  0
  184.2620  178.0610  142.2920 C   0  0  2  0  0  3  0  0  0  0  0  0
  188.9230  176.5210  143.1950 C   0  0  2  0  0  3  0  0  0  0  0  0
  189.9770  176.8740  147.4470 C   0  0  2  0  0  3  0  0  0  0  0  0
  188.2300  177.5900  144.0870 C   0  0  2  0  0  3  0  0  0  0  0  0
  189.4710  173.9930  142.0420 C   0  0  0  0  0  2  0  0  0  0  0  0
  184.9660  178.5960  144.6510 C   0  0  0  0  0  2  0  0  0  0  0  0
  190.2760  174.5410  143.0660 O   0  0  0  0  0  0  0  0  0  0  0  0
  186.2780  178.9810  144.3530 O   0  0  0  0  0  0  0  0  0  0  0  0
  185.4800  178.5490  141.4820 C   0  0  1  0  0  3  0  0  0  0  0  0
  188.8840  175.0980  141.1510 C   0  0  0  0  0  2  0  0  0  0  0  0
  187.4790  177.2160  141.2280 C   0  0  1  0  0  3  0  0  0  0  0  0
  183.0800  178.0730  141.4650 N   0  0  0  0  0  0  0  0  0  0  0  0
  181.9710  178.5460  141.9110 C   0  0  0  0  0  3  0  0  0  0  0  0
  178.8270  179.9890  140.7380 C   0  0  0  0  0  2  0  0  0  0  0  0
  179.5580  177.9330  141.7850 C   0  0  0  0  0  2  0  0  0  0  0  0
  180.7390  178.5610  141.0610 C   0  0  0  0  0  3  0  0  0  0  0  0
  178.4460  178.9640  141.7830 C   0  0  0  0  0  2  0  0  0  0  0  0
  180.3370  179.9800  140.7060 C   0  0  0  0  0  2  0  0  0  0  0  0
  1 26  1  6  0  0  0
  1 18  1  0  0  0  0
  2 27  1  0  0  0  0
  3  7  1  6  0  0  0
  4 23  1  6  0  0  0
  4 15  1  0  0  0  0
  5 11  1  1  0  0  0
  5 19  1  0  0  0  0
  7 16  1  0  0  0  0
  8 12  1  1  0  0  0
  8 16  1  0  0  0  0
  9 13  1  0  0  0  0
 10 22  1  0  0  0  0
 13 20  1  0  0  0  0
 13 24  1  0  0  0  0
 14  2  1  0  0  0  0
 14 25  1  0  0  0  0
 15  8  1  0  0  0  0
 15  5  1  0  0  0  0
 15 12  1  0  0  0  0
 16  3  1  0  0  0  0
 17 10  1  0  0  0  0
 18  4  1  0  0  0  0
 18 20  1  0  0  0  0
 19  3  1  0  0  0  0
 19  6  1  0  0  0  0
 20 11  1  0  0  0  0
 21 23  1  0  0  0  0
 24 22  1  0  0  0  0
 25  9  1  0  0  0  0
 25 17  1  0  0  0  0
 26 21  1  0  0  0  0
 27  1  1  0  0  0  0
 27  9  1  0  0  0  0
 28 29  2  0  0  0  0
 28 17  1  0  0  0  0
 30 33  1  0  0  0  0
 32 31  1  0  0  0  0
 32 29  1  0  0  0  0
 33 31  1  0  0  0  0
 34 30  1  0  0  0  0
 34 32  1  0  0  0  0
M  END
>  <MODEL>
1

>  <REMARK>
 VINA RESULT:      -9.8      0.000      0.000
  Name = 
  2 active torsions:
  status: ('A' for Active; 'I' for Inactive)
    1  A    between atoms: C_17  and  N_28
    2  A    between atoms: C_29  and  C_32
                            x       y       z     vdW  Elec       q    Type
                         _______ _______ _______ _____ _____    ______ ____

>  <TORSDO>
F 2

$$$$
=
 OpenBabel11112418073D

 34 42  0  0  1  0  0  0  0  0999 V2000
  189.1100  175.4300  143.1010 C   0  0  2  0  0  3  0  0  0  0  0  0
  191.0120  174.0060  142.7340 O   0  0  0  0  0  0  0  0  0  0  0  0
  184.6110  178.8830  146.6770 C   0  0  2  0  0  3  0  0  0  0  0  0
  187.3560  177.0930  143.5560 C   0  0  1  0  0  3  0  0  0  0  0  0
  186.6400  177.4440  146.0590 C   0  0  2  0  0  3  0  0  0  0  0  0
  186.1870  178.1260  148.3080 O   0  0  0  0  0  1  0  0  0  0  0  0
  183.9150  177.8100  146.0800 O   0  0  0  0  0  0  0  0  0  0  0  0
  185.2050  178.4790  144.1390 C   0  0  1  0  0  3  0  0  0  0  0  0
  190.3460  174.2670  145.0090 C   0  0  2  0  0  3  0  0  0  0  0  0
  192.7980  175.3510  146.7590 C   0  0  0  0  0  2  0  0  0  0  0  0
  188.1200  177.1840  146.3130 C   0  0  0  0  0  2  0  0  0  0  0  0
  186.4240  179.1610  144.3300 O   0  0  0  0  0  0  0  0  0  0  0  0
  190.0320  175.6110  145.6960 C   0  0  1  0  0  3  0  0  0  0  0  0
  191.9660  173.3690  143.5430 C   0  0  0  0  0  2  0  0  0  0  0  0
  186.4380  177.7730  144.5780 C   0  0  2  0  0  0  0  0  0  0  0  0
  184.2010  178.9050  145.2350 C   0  0  2  0  0  3  0  0  0  0  0  0
  192.8110  175.0040  145.2690 C   0  0  2  0  0  3  0  0  0  0  0  0
  188.0260  175.8230  144.1080 C   0  0  2  0  0  3  0  0  0  0  0  0
  186.0770  178.5250  146.9750 C   0  0  2  0  0  3  0  0  0  0  0  0
  188.5350  175.9070  145.5740 C   0  0  2  0  0  3  0  0  0  0  0  0
  187.6770  176.5280  141.3870 C   0  0  0  0  0  2  0  0  0  0  0  0
  191.6220  176.2590  147.1020 C   0  0  0  0  0  2  0  0  0  0  0  0
  186.6820  176.7750  142.3590 O   0  0  0  0  0  0  0  0  0  0  0  0
  190.4170  175.5500  147.0400 O   0  0  0  0  0  0  0  0  0  0  0  0
  191.8130  173.8670  144.9680 C   0  0  1  0  0  3  0  0  0  0  0  0
  188.4730  175.2580  141.7230 C   0  0  0  0  0  2  0  0  0  0  0  0
  189.8830  174.1880  143.5490 C   0  0  1  0  0  3  0  0  0  0  0  0
  194.1440  174.6040  144.8930 N   0  0  0  0  0  0  0  0  0  0  0  0
  195.1360  174.7930  145.6900 C   0  0  0  0  0  3  0  0  0  0  0  0
  197.5560  172.8280  143.7860 C   0  0  0  0  0  2  0  0  0  0  0  0
  196.9860  173.1770  146.1120 C   0  0  0  0  0  2  0  0  0  0  0  0
  196.5240  174.3820  145.3080 C   0  0  0  0  0  3  0  0  0  0  0  0
  197.3960  172.1150  145.1100 C   0  0  0  0  0  2  0  0  0  0  0  0
  196.5960  173.9930  143.8440 C   0  0  0  0  0  2  0  0  0  0  0  0
  1 26  1  6  0  0  0
  1 27  1  0  0  0  0
  1 18  1  0  0  0  0
  2 14  1  0  0  0  0
  2 27  1  0  0  0  0
  3  7  1  1  0  0  0
  3 19  1  0  0  0  0
  4 23  1  6  0  0  0
  4 18  1  0  0  0  0
  4 15  1  0  0  0  0
  5 11  1  6  0  0  0
  5 19  1  0  0  0  0
  8 12  1  1  0  0  0
  8 15  1  0  0  0  0
  8 16  1  0  0  0  0
  9 13  1  0  0  0  0
 10 22  1  0  0  0  0
 12 15  1  0  0  0  0
 13 24  1  0  0  0  0
 14 25  1  0  0  0  0
 15  5  1  0  0  0  0
 16  7  1  0  0  0  0
 16  3  1  0  0  0  0
 17 10  1  0  0  0  0
 18 20  1  0  0  0  0
 19  6  1  0  0  0  0
 20 13  1  0  0  0  0
 20 11  1  0  0  0  0
 21 26  1  0  0  0  0
 21 23  1  0  0  0  0
 24 22  1  0  0  0  0
 25  9  1  0  0  0  0
 25 17  1  0  0  0  0
 27  9  1  0  0  0  0
 28 17  1  0  0  0  0
 28 29  2  0  0  0  0
 30 34  1  0  0  0  0
 30 33  1  0  0  0  0
 32 29  1  0  0  0  0
 32 31  1  0  0  0  0
 33 31  1  0  0  0  0
 34 32  1  0  0  0  0
M  END
>  <MODEL>
2

>  <REMARK>
 VINA RESULT:      -9.6      3.515      9.480
  Name = 
  2 active torsions:
  status: ('A' for Active; 'I' for Inactive)
    1  A    between atoms: C_17  and  N_28
    2  A    between atoms: C_29  and  C_32
                            x       y       z     vdW  Elec       q    Type
                         _______ _______ _______ _____ _____    ______ ____

>  <TORSDO>
F 2

$$$$
=
 OpenBabel11112418073D

 34 42  0  0  1  0  0  0  0  0999 V2000
  191.7760  174.8300  142.9630 C   0  0  2  0  0  3  0  0  0  0  0  0
  189.9080  176.3400  143.0740 O   0  0  0  0  0  0  0  0  0  0  0  0
  197.6610  172.1820  144.7830 C   0  0  2  0  0  3  0  0  0  0  0  0
  193.5800  173.1630  143.0910 C   0  0  1  0  0  3  0  0  0  0  0  0
  195.5500  173.6370  144.7630 C   0  0  2  0  0  3  0  0  0  0  0  0
  197.1790  173.7620  146.5110 O   0  0  0  0  0  1  0  0  0  0  0  0
  197.8700  172.8130  143.5370 O   0  0  0  0  0  0  0  0  0  0  0  0
  195.7720  171.7220  143.0000 C   0  0  1  0  0  3  0  0  0  0  0  0
  191.7090  176.8210  144.5610 C   0  0  2  0  0  3  0  0  0  0  0  0
  190.6480  176.9260  147.5800 C   0  0  0  0  0  2  0  0  0  0  0  0
  194.4300  174.2370  145.6040 C   0  0  0  0  0  2  0  0  0  0  0  0
  194.8840  171.3940  144.0460 O   0  0  0  0  0  0  0  0  0  0  0  0
  192.4120  175.7920  145.4700 C   0  0  1  0  0  3  0  0  0  0  0  0
  189.5120  177.3930  143.9130 C   0  0  0  0  0  2  0  0  0  0  0  0
  194.9360  172.7530  143.6730 C   0  0  2  0  0  0  0  0  0  0  0  0
  197.2280  171.5560  143.4910 C   0  0  2  0  0  3  0  0  0  0  0  0
  189.8160  176.6940  146.3180 C   0  0  2  0  0  3  0  0  0  0  0  0
  193.2510  174.6460  143.3320 C   0  0  2  0  0  3  0  0  0  0  0  0
  196.5720  172.8860  145.6100 C   0  0  2  0  0  3  0  0  0  0  0  0
  193.6190  175.2040  144.7350 C   0  0  2  0  0  3  0  0  0  0  0  0
  192.1110  172.9350  141.3830 C   0  0  0  0  0  2  0  0  0  0  0  0
  191.8670  176.0100  147.6100 C   0  0  0  0  0  2  0  0  0  0  0  0
  193.4840  172.8880  141.7120 O   0  0  0  0  0  0  0  0  0  0  0  0
  192.8100  176.4140  146.6580 O   0  0  0  0  0  0  0  0  0  0  0  0
  190.4350  177.4370  145.1160 C   0  0  1  0  0  3  0  0  0  0  0  0
  191.5590  174.3620  141.5250 C   0  0  0  0  0  2  0  0  0  0  0  0
  191.3070  176.2690  143.1880 C   0  0  1  0  0  3  0  0  0  0  0  0
  188.4720  177.1640  146.5510 N   0  0  0  0  0  0  0  0  0  0  0  0
  187.5410  176.3470  146.8940 C   0  0  0  0  0  3  0  0  0  0  0  0
  184.4420  178.0160  145.9190 C   0  0  0  0  0  2  0  0  0  0  0  0
  186.1270  178.2600  147.6390 C   0  0  0  0  0  2  0  0  0  0  0  0
  186.1430  176.8240  147.1360 C   0  0  0  0  0  3  0  0  0  0  0  0
  185.2370  179.0430  146.6920 C   0  0  0  0  0  2  0  0  0  0  0  0
  185.3250  176.7920  145.8590 C   0  0  0  0  0  2  0  0  0  0  0  0
  1 26  1  6  0  0  0
  1 27  1  0  0  0  0
  1 18  1  0  0  0  0
  2 27  1  0  0  0  0
  2 14  1  0  0  0  0
  3  7  1  6  0  0  0
  3 19  1  0  0  0  0
  4 23  1  6  0  0  0
  4 18  1  0  0  0  0
  4 15  1  0  0  0  0
  5 11  1  1  0  0  0
  5 19  1  0  0  0  0
  8 16  1  0  0  0  0
  8 15  1  0  0  0  0
  8 12  1  1  0  0  0
  9 25  1  0  0  0  0
  9 13  1  0  0  0  0
 10 22  1  0  0  0  0
 13 24  1  0  0  0  0
 14 25  1  0  0  0  0
 15 12  1  0  0  0  0
 15  5  1  0  0  0  0
 16  7  1  0  0  0  0
 16  3  1  0  0  0  0
 17 28  1  0  0  0  0
 17 10  1  0  0  0  0
 18 20  1  0  0  0  0
 19  6  1  0  0  0  0
 20 13  1  0  0  0  0
 20 11  1  0  0  0  0
 21 26  1  0  0  0  0
 21 23  1  0  0  0  0
 24 22  1  0  0  0  0
 25 17  1  0  0  0  0
 27  9  1  0  0  0  0
 28 29  2  0  0  0  0
 29 32  1  0  0  0  0
 30 33  1  0  0  0  0
 32 31  1  0  0  0  0
 33 31  1  0  0  0  0
 34 30  1  0  0  0  0
 34 32  1  0  0  0  0
M  END
>  <MODEL>
3

>  <REMARK>
 VINA RESULT:      -8.8      3.962      6.671
  Name = 
  2 active torsions:
  status: ('A' for Active; 'I' for Inactive)
    1  A    between atoms: C_17  and  N_28
    2  A    between atoms: C_29  and  C_32
                            x       y       z     vdW  Elec       q    Type
                         _______ _______ _______ _____ _____    ______ ____

>  <TORSDO>
F 2

$$$$
=
 OpenBabel11112418073D

 34 42  0  0  1  0  0  0  0  0999 V2000
  189.8450  174.0570  142.3710 C   0  0  2  0  0  3  0  0  0  0  0  0
  191.5690  172.5460  143.0940 O   0  0  0  0  0  0  0  0  0  0  0  0
  185.2220  178.8710  143.0080 C   0  0  2  0  0  3  0  0  0  0  0  0
  188.2780  175.8160  141.6640 C   0  0  1  0  0  3  0  0  0  0  0  0
  187.1180  177.2330  143.5480 C   0  0  2  0  0  3  0  0  0  0  0  0
  186.3110  178.8310  145.1360 O   0  0  0  0  0  1  0  0  0  0  0  0
  184.5230  177.6720  142.7520 O   0  0  0  0  0  0  0  0  0  0  0  0
  186.2620  177.3950  141.0850 C   0  0  1  0  0  3  0  0  0  0  0  0
  190.4910  173.7810  144.8260 C   0  0  2  0  0  3  0  0  0  0  0  0
  192.6560  175.4230  146.5200 C   0  0  0  0  0  2  0  0  0  0  0  0
  188.4650  177.0540  144.2380 C   0  0  0  0  0  2  0  0  0  0  0  0
  187.4980  178.0480  141.2720 O   0  0  0  0  0  0  0  0  0  0  0  0
  190.2300  175.3010  144.8040 C   0  0  1  0  0  3  0  0  0  0  0  0
  192.2400  172.2830  144.2990 C   0  0  0  0  0  2  0  0  0  0  0  0
  187.2720  176.9020  142.0610 C   0  0  2  0  0  0  0  0  0  0  0  0
  185.1230  178.2860  141.6310 C   0  0  2  0  0  3  0  0  0  0  0  0
  192.9270  174.4690  145.3540 C   0  0  2  0  0  3  0  0  0  0  0  0
  188.6410  174.8830  142.8310 C   0  0  2  0  0  3  0  0  0  0  0  0
  186.5320  178.6230  143.7730 C   0  0  2  0  0  3  0  0  0  0  0  0
  188.8440  175.5700  144.2110 C   0  0  2  0  0  3  0  0  0  0  0  0
  188.9570  174.3640  140.0650 C   0  0  0  0  0  2  0  0  0  0  0  0
  191.5700  176.4320  146.1630 C   0  0  0  0  0  2  0  0  0  0  0  0
  187.8270  175.0400  140.5770 O   0  0  0  0  0  0  0  0  0  0  0  0
  190.3190  175.8080  146.1050 O   0  0  0  0  0  0  0  0  0  0  0  0
  191.8670  173.3510  145.3110 C   0  0  1  0  0  3  0  0  0  0  0  0
  189.4860  173.3330  141.0740 C   0  0  0  0  0  2  0  0  0  0  0  0
  190.3310  173.1000  143.4610 C   0  0  1  0  0  3  0  0  0  0  0  0
  194.2420  173.8990  145.5120 N   0  0  0  0  0  0  0  0  0  0  0  0
  195.2730  174.4720  145.0010 C   0  0  0  0  0  3  0  0  0  0  0  0
  197.9370  172.1160  144.1650 C   0  0  0  0  0  2  0  0  0  0  0  0
  196.6320  172.7050  146.1170 C   0  0  0  0  0  2  0  0  0  0  0  0
  196.6420  173.8860  145.1590 C   0  0  0  0  0  3  0  0  0  0  0  0
  197.2300  171.5300  145.3670 C   0  0  0  0  0  2  0  0  0  0  0  0
  197.1750  173.3770  143.8330 C   0  0  0  0  0  2  0  0  0  0  0  0
  1 26  1  6  0  0  0
  1 18  1  0  0  0  0
  1 27  1  0  0  0  0
  2 27  1  0  0  0  0
  2 14  1  0  0  0  0
  3  7  1  1  0  0  0
  3 19  1  0  0  0  0
  4 23  1  6  0  0  0
  4 15  1  0  0  0  0
  4 18  1  0  0  0  0
  5 19  1  0  0  0  0
  5 11  1  1  0  0  0
  8 12  1  6  0  0  0
  8 16  1  0  0  0  0
  8 15  1  0  0  0  0
  9 25  1  0  0  0  0
 12 15  1  0  0  0  0
 13  9  1  0  0  0  0
 13 24  1  0  0  0  0
 14 25  1  0  0  0  0
 15  5  1  0  0  0  0
 16  7  1  0  0  0  0
 16  3  1  0  0  0  0
 17 28  1  0  0  0  0
 17 10  1  0  0  0  0
 18 20  1  0  0  0  0
 19  6  1  0  0  0  0
 20 11  1  0  0  0  0
 20 13  1  0  0  0  0
 21 23  1  0  0  0  0
 21 26  1  0  0  0  0
 22 10  1  0  0  0  0
 24 22  1  0  0  0  0
 25 17  1  0  0  0  0
 27  9  1  0  0  0  0
 29 32  1  0  0  0  0
 29 28  2  0  0  0  0
 30 33  1  0  0  0  0
 32 31  1  0  0  0  0
 33 31  1  0  0  0  0
 34 30  1  0  0  0  0
 34 32  1  0  0  0  0
M  END
>  <MODEL>
4

>  <REMARK>
 VINA RESULT:      -8.7      3.557      9.744
  Name = 
  2 active torsions:
  status: ('A' for Active; 'I' for Inactive)
    1  A    between atoms: C_17  and  N_28
    2  A    between atoms: C_29  and  C_32
                            x       y       z     vdW  Elec       q    Type
                         _______ _______ _______ _____ _____    ______ ____

>  <TORSDO>
F 2

$$$$
=
 OpenBabel11112418073D

 34 42  0  0  1  0  0  0  0  0999 V2000
  192.9050  176.1720  145.3790 C   0  0  2  0  0  3  0  0  0  0  0  0
  190.9030  176.1610  146.7090 O   0  0  0  0  0  0  0  0  0  0  0  0
  196.8990  174.4920  140.2610 C   0  0  2  0  0  3  0  0  0  0  0  0
  194.8020  176.3380  143.8220 C   0  0  1  0  0  3  0  0  0  0  0  0
  194.8450  174.6800  141.7840 C   0  0  2  0  0  3  0  0  0  0  0  0
  194.7940  173.5060  139.7000 O   0  0  0  0  0  1  0  0  0  0  0  0
  197.4600  173.9110  141.4190 O   0  0  0  0  0  0  0  0  0  0  0  0
  196.9660  176.0920  142.3570 C   0  0  1  0  0  3  0  0  0  0  0  0
  190.9430  174.6090  144.8980 C   0  0  2  0  0  3  0  0  0  0  0  0
  188.4270  175.0910  142.9780 C   0  0  0  0  0  2  0  0  0  0  0  0
  193.3360  174.8850  141.8390 C   0  0  0  0  0  2  0  0  0  0  0  0
  195.9400  176.8690  141.7800 O   0  0  0  0  0  0  0  0  0  0  0  0
  191.3600  174.9420  143.4510 C   0  0  1  0  0  3  0  0  0  0  0  0
  189.6370  175.5600  146.6210 C   0  0  0  0  0  2  0  0  0  0  0  0
  195.5280  175.7890  142.5890 C   0  0  2  0  0  0  0  0  0  0  0  0
  197.6910  175.2940  141.2490 C   0  0  2  0  0  3  0  0  0  0  0  0
  188.7530  175.8350  144.2740 C   0  0  2  0  0  3  0  0  0  0  0  0
  193.7220  175.3810  144.3540 C   0  0  2  0  0  3  0  0  0  0  0  0
  195.3670  174.5980  140.3530 C   0  0  2  0  0  3  0  0  0  0  0  0
  192.8560  174.6690  143.2770 C   0  0  2  0  0  3  0  0  0  0  0  0
  194.9810  177.4910  145.7620 C   0  0  0  0  0  2  0  0  0  0  0  0
  189.6390  175.0410  142.0540 C   0  0  0  0  0  2  0  0  0  0  0  0
  195.6900  176.6580  144.8680 O   0  0  0  0  0  0  0  0  0  0  0  0
  190.6080  174.1680  142.5600 O   0  0  0  0  0  0  0  0  0  0  0  0
  189.4960  174.9080  145.2580 C   0  0  1  0  0  3  0  0  0  0  0  0
  193.8450  176.7200  146.4510 C   0  0  0  0  0  2  0  0  0  0  0  0
  191.7660  175.3370  145.9680 C   0  0  1  0  0  3  0  0  0  0  0  0
  187.5240  176.3020  144.8670 N   0  0  0  0  0  0  0  0  0  0  0  0
  186.5570  176.7220  144.1310 C   0  0  0  0  0  3  0  0  0  0  0  0
  184.5080  179.1660  145.9100 C   0  0  0  0  0  2  0  0  0  0  0  0
  185.2010  176.8680  146.2170 C   0  0  0  0  0  2  0  0  0  0  0  0
  185.2790  177.2100  144.7370 C   0  0  0  0  0  3  0  0  0  0  0  0
  184.9620  178.1710  146.9550 C   0  0  0  0  0  2  0  0  0  0  0  0
  185.1600  178.7180  144.6240 C   0  0  0  0  0  2  0  0  0  0  0  0
  1 27  1  0  0  0  0
  1 26  1  1  0  0  0
  3 19  1  0  0  0  0
  3 16  1  0  0  0  0
  3  7  1  1  0  0  0
  4 18  1  0  0  0  0
  4 23  1  1  0  0  0
  5 11  1  6  0  0  0
  5 15  1  0  0  0  0
  6 19  1  0  0  0  0
  8 12  1  6  0  0  0
  8 15  1  0  0  0  0
  9 25  1  0  0  0  0
  9 27  1  0  0  0  0
 10 17  1  0  0  0  0
 11 20  1  0  0  0  0
 12 15  1  0  0  0  0
 13  9  1  0  0  0  0
 14  2  1  0  0  0  0
 15  4  1  0  0  0  0
 16  7  1  0  0  0  0
 16  8  1  0  0  0  0
 17 28  1  0  0  0  0
 17 25  1  0  0  0  0
 18  1  1  0  0  0  0
 19  5  1  0  0  0  0
 20 13  1  0  0  0  0
 20 18  1  0  0  0  0
 21 26  1  0  0  0  0
 22 24  1  0  0  0  0
 22 10  1  0  0  0  0
 23 21  1  0  0  0  0
 24 13  1  0  0  0  0
 25 14  1  0  0  0  0
 27  2  1  0  0  0  0
 29 32  1  0  0  0  0
 29 28  2  0  0  0  0
 30 33  1  0  0  0  0
 31 33  1  0  0  0  0
 32 31  1  0  0  0  0
 34 32  1  0  0  0  0
 34 30  1  0  0  0  0
M  END
>  <MODEL>
5

>  <REMARK>
 VINA RESULT:      -8.6      4.034      7.032
  Name = 
  2 active torsions:
  status: ('A' for Active; 'I' for Inactive)
    1  A    between atoms: C_17  and  N_28
    2  A    between atoms: C_29  and  C_32
                            x       y       z     vdW  Elec       q    Type
                         _______ _______ _______ _____ _____    ______ ____

>  <TORSDO>
F 2

$$$$
=
 OpenBabel11112418073D

 34 42  0  0  1  0  0  0  0  0999 V2000
  189.7050  174.9080  144.9690 C   0  0  2  0  0  3  0  0  0  0  0  0
  191.5150  173.7180  143.9260 O   0  0  0  0  0  0  0  0  0  0  0  0
  184.4200  179.0220  145.2810 C   0  0  2  0  0  3  0  0  0  0  0  0
  187.6750  175.9390  145.8990 C   0  0  1  0  0  3  0  0  0  0  0  0
  186.3560  177.6140  144.3640 C   0  0  2  0  0  3  0  0  0  0  0  0
  184.8710  178.8370  142.9400 O   0  0  0  0  0  1  0  0  0  0  0  0
  185.4720  179.6630  145.9700 O   0  0  0  0  0  0  0  0  0  0  0  0
  185.7770  177.4460  146.9050 C   0  0  1  0  0  3  0  0  0  0  0  0
  190.3670  175.2740  142.5300 C   0  0  2  0  0  3  0  0  0  0  0  0
  189.2580  173.7980  139.9140 C   0  0  0  0  0  2  0  0  0  0  0  0
  186.8010  176.6530  143.2680 C   0  0  0  0  0  2  0  0  0  0  0  0
  185.3260  176.3280  146.1730 O   0  0  0  0  0  0  0  0  0  0  0  0
  188.8350  175.3850  142.3940 C   0  0  1  0  0  3  0  0  0  0  0  0
  192.0130  173.5820  142.6210 C   0  0  0  0  0  2  0  0  0  0  0  0
  186.5190  176.9300  145.7240 C   0  0  2  0  0  0  0  0  0  0  0  0
  184.8120  178.6330  146.6750 C   0  0  2  0  0  3  0  0  0  0  0  0
  190.0890  173.1790  141.0400 C   0  0  2  0  0  3  0  0  0  0  0  0
  188.7860  176.1260  144.8510 C   0  0  2  0  0  3  0  0  0  0  0  0
  184.9380  178.1290  144.1410 C   0  0  2  0  0  3  0  0  0  0  0  0
  188.3080  176.4120  143.3990 C   0  0  2  0  0  3  0  0  0  0  0  0
  188.9980  174.8180  147.3550 C   0  0  0  0  0  2  0  0  0  0  0  0
  188.0740  174.5800  140.4710 C   0  0  0  0  0  2  0  0  0  0  0  0
  188.2420  176.0000  147.1870 O   0  0  0  0  0  0  0  0  0  0  0  0
  188.5090  175.7600  141.0860 O   0  0  0  0  0  0  0  0  0  0  0  0
  191.0380  174.2280  141.6540 C   0  0  1  0  0  3  0  0  0  0  0  0
  190.2080  174.7990  146.4070 C   0  0  0  0  0  2  0  0  0  0  0  0
  190.8470  174.9530  143.9510 C   0  0  1  0  0  3  0  0  0  0  0  0
  190.8490  172.0750  140.5080 N   0  0  0  0  0  0  0  0  0  0  0  0
  190.4960  171.5010  139.4130 C   0  0  0  0  0  3  0  0  0  0  0  0
  191.3230  169.0640  136.8210 C   0  0  0  0  0  2  0  0  0  0  0  0
  190.5850  169.0270  139.1260 C   0  0  0  0  0  2  0  0  0  0  0  0
  191.2780  170.3530  138.8540 C   0  0  0  0  0  3  0  0  0  0  0  0
  190.4020  168.3470  137.7820 C   0  0  0  0  0  2  0  0  0  0  0  0
  191.4280  170.4750  137.3490 C   0  0  0  0  0  2  0  0  0  0  0  0
  1 26  1  1  0  0  0
  2 27  1  0  0  0  0
  3  7  1  6  0  0  0
  3 16  1  0  0  0  0
  4 23  1  1  0  0  0
  5 11  1  6  0  0  0
  5 15  1  0  0  0  0
  6 19  1  0  0  0  0
  7 16  1  0  0  0  0
  8 12  1  6  0  0  0
  9 27  1  0  0  0  0
 10 22  1  0  0  0  0
 10 17  1  0  0  0  0
 11 20  1  0  0  0  0
 13  9  1  0  0  0  0
 13 20  1  0  0  0  0
 14  2  1  0  0  0  0
 15  4  1  0  0  0  0
 15 12  1  0  0  0  0
 15  8  1  0  0  0  0
 16  8  1  0  0  0  0
 17 25  1  0  0  0  0
 18  1  1  0  0  0  0
 18  4  1  0  0  0  0
 19  5  1  0  0  0  0
 19  3  1  0  0  0  0
 20 18  1  0  0  0  0
 22 24  1  0  0  0  0
 23 21  1  0  0  0  0
 24 13  1  0  0  0  0
 25  9  1  0  0  0  0
 25 14  1  0  0  0  0
 26 21  1  0  0  0  0
 27  1  1  0  0  0  0
 28 17  1  0  0  0  0
 29 28  2  0  0  0  0
 30 34  1  0  0  0  0
 30 33  1  0  0  0  0
 32 31  1  0  0  0  0
 32 29  1  0  0  0  0
 33 31  1  0  0  0  0
 34 32  1  0  0  0  0
M  END
>  <MODEL>
6

>  <REMARK>
 VINA RESULT:      -8.6      3.509      8.214
  Name = 
  2 active torsions:
  status: ('A' for Active; 'I' for Inactive)
    1  A    between atoms: C_17  and  N_28
    2  A    between atoms: C_29  and  C_32
                            x       y       z     vdW  Elec       q    Type
                         _______ _______ _______ _____ _____    ______ ____

>  <TORSDO>
F 2

$$$$
=
 OpenBabel11112418073D

 34 42  0  0  1  0  0  0  0  0999 V2000
  189.9370  176.3200  146.0510 C   0  0  2  0  0  3  0  0  0  0  0  0
  192.1200  175.8990  146.9660 O   0  0  0  0  0  0  0  0  0  0  0  0
  185.4570  178.0030  141.3550 C   0  0  2  0  0  3  0  0  0  0  0  0
  187.7380  176.5030  144.9640 C   0  0  1  0  0  3  0  0  0  0  0  0
  187.6740  177.4380  142.5090 C   0  0  2  0  0  3  0  0  0  0  0  0
  187.5280  177.8970  140.1660 O   0  0  0  0  0  1  0  0  0  0  0  0
  185.4510  179.0430  142.3090 O   0  0  0  0  0  0  0  0  0  0  0  0
  185.4550  177.1790  143.8610 C   0  0  1  0  0  3  0  0  0  0  0  0
  192.0870  176.7990  144.7570 C   0  0  2  0  0  3  0  0  0  0  0  0
  193.6880  174.8770  142.7590 C   0  0  0  0  0  2  0  0  0  0  0  0
  188.9920  176.6800  142.3970 C   0  0  0  0  0  2  0  0  0  0  0  0
  185.9780  175.9390  143.4390 O   0  0  0  0  0  0  0  0  0  0  0  0
  191.2070  176.2840  143.6000 C   0  0  1  0  0  3  0  0  0  0  0  0
  193.4370  175.9080  146.4790 C   0  0  0  0  0  2  0  0  0  0  0  0
  186.9190  176.9430  143.7460 C   0  0  2  0  0  0  0  0  0  0  0  0
  184.7510  177.8710  142.6710 C   0  0  2  0  0  3  0  0  0  0  0  0
  193.5090  174.6950  144.2680 C   0  0  2  0  0  3  0  0  0  0  0  0
  189.1700  177.0650  144.9550 C   0  0  2  0  0  3  0  0  0  0  0  0
  186.8370  177.3340  141.2390 C   0  0  2  0  0  3  0  0  0  0  0  0
  189.8900  177.0650  143.5770 C   0  0  2  0  0  3  0  0  0  0  0  0
  187.7360  176.0740  147.1870 C   0  0  0  0  0  2  0  0  0  0  0  0
  192.3530  175.1500  142.0760 C   0  0  0  0  0  2  0  0  0  0  0  0
  187.1160  176.8480  146.1810 O   0  0  0  0  0  0  0  0  0  0  0  0
  191.8930  176.4340  142.3900 O   0  0  0  0  0  0  0  0  0  0  0  0
  193.4010  176.0640  144.9700 C   0  0  1  0  0  3  0  0  0  0  0  0
  189.2020  176.4910  147.3780 C   0  0  0  0  0  2  0  0  0  0  0  0
  191.3990  176.7660  146.1280 C   0  0  1  0  0  3  0  0  0  0  0  0
  194.6350  173.9600  144.7880 N   0  0  0  0  0  0  0  0  0  0  0  0
  195.8140  174.1380  144.3080 C   0  0  0  0  0  3  0  0  0  0  0  0
  197.9410  171.1810  144.5850 C   0  0  0  0  0  2  0  0  0  0  0  0
  196.6110  172.5600  146.0650 C   0  0  0  0  0  2  0  0  0  0  0  0
  196.9890  173.3780  144.8400 C   0  0  0  0  0  3  0  0  0  0  0  0
  196.9990  171.1240  145.7670 C   0  0  0  0  0  2  0  0  0  0  0  0
  197.5260  172.4070  143.8060 C   0  0  0  0  0  2  0  0  0  0  0  0
  1 27  1  0  0  0  0
  1 26  1  1  0  0  0
  3  7  1  1  0  0  0
  3 16  1  0  0  0  0
  4 23  1  1  0  0  0
  5 11  1  6  0  0  0
  5 15  1  0  0  0  0
  6 19  1  0  0  0  0
  7 16  1  0  0  0  0
  8 12  1  6  0  0  0
  9 25  1  0  0  0  0
  9 27  1  0  0  0  0
 10 17  1  0  0  0  0
 11 20  1  0  0  0  0
 12 15  1  0  0  0  0
 13  9  1  0  0  0  0
 14  2  1  0  0  0  0
 15  8  1  0  0  0  0
 15  4  1  0  0  0  0
 16  8  1  0  0  0  0
 17 28  1  0  0  0  0
 17 25  1  0  0  0  0
 18  4  1  0  0  0  0
 18  1  1  0  0  0  0
 19  3  1  0  0  0  0
 19  5  1  0  0  0  0
 20 13  1  0  0  0  0
 20 18  1  0  0  0  0
 21 26  1  0  0  0  0
 22 24  1  0  0  0  0
 22 10  1  0  0  0  0
 23 21  1  0  0  0  0
 24 13  1  0  0  0  0
 25 14  1  0  0  0  0
 27  2  1  0  0  0  0
 29 28  2  0  0  0  0
 29 32  1  0  0  0  0
 30 33  1  0  0  0  0
 32 31  1  0  0  0  0
 33 31  1  0  0  0  0
 34 30  1  0  0  0  0
 34 32  1  0  0  0  0
M  END
>  <MODEL>
7

>  <REMARK>
 VINA RESULT:      -8.5      3.857     10.198
  Name = 
  2 active torsions:
  status: ('A' for Active; 'I' for Inactive)
    1  A    between atoms: C_17  and  N_28
    2  A    between atoms: C_29  and  C_32
                            x       y       z     vdW  Elec       q    Type
                         _______ _______ _______ _____ _____    ______ ____

>  <TORSDO>
F 2

$$$$
=
 OpenBabel11112418073D

 34 42  0  0  1  0  0  0  0  0999 V2000
  191.1940  173.0340  143.2830 C   0  0  2  0  0  3  0  0  0  0  0  0
  189.3090  174.5050  143.0290 O   0  0  0  0  0  0  0  0  0  0  0  0
  197.3290  171.1830  145.2560 C   0  0  2  0  0  3  0  0  0  0  0  0
  193.0480  171.5110  143.8260 C   0  0  1  0  0  3  0  0  0  0  0  0
  195.1890  172.5570  144.9320 C   0  0  2  0  0  3  0  0  0  0  0  0
  197.0100  173.3170  146.2850 O   0  0  0  0  0  1  0  0  0  0  0  0
  197.3690  171.2780  143.8490 O   0  0  0  0  0  0  0  0  0  0  0  0
  195.2540  170.1060  144.0330 C   0  0  1  0  0  3  0  0  0  0  0  0
  191.2600  175.4890  143.9850 C   0  0  2  0  0  3  0  0  0  0  0  0
  190.5640  176.7740  146.8330 C   0  0  0  0  0  2  0  0  0  0  0  0
  194.1600  173.4580  145.6050 C   0  0  0  0  0  2  0  0  0  0  0  0
  194.5080  170.2250  145.2240 O   0  0  0  0  0  0  0  0  0  0  0  0
  192.0960  174.8780  145.1280 C   0  0  1  0  0  3  0  0  0  0  0  0
  188.9850  175.8080  143.4370 C   0  0  0  0  0  2  0  0  0  0  0  0
  194.4760  171.3320  144.3520 C   0  0  2  0  0  0  0  0  0  0  0  0
  196.7630  170.1140  144.3700 C   0  0  2  0  0  3  0  0  0  0  0  0
  189.5940  176.0890  145.8690 C   0  0  2  0  0  3  0  0  0  0  0  0
  192.7060  172.9780  143.5130 C   0  0  2  0  0  3  0  0  0  0  0  0
  196.3260  172.1730  145.8730 C   0  0  2  0  0  3  0  0  0  0  0  0
  193.2230  174.0290  144.5360 C   0  0  2  0  0  3  0  0  0  0  0  0
  191.3930  170.6690  142.5300 C   0  0  0  0  0  2  0  0  0  0  0  0
  191.8040  175.9180  147.0660 C   0  0  0  0  0  2  0  0  0  0  0  0
  192.7960  170.7260  142.6830 O   0  0  0  0  0  0  0  0  0  0  0  0
  192.6150  175.9040  145.9250 O   0  0  0  0  0  0  0  0  0  0  0  0
  190.0430  176.2960  144.4080 C   0  0  1  0  0  3  0  0  0  0  0  0
  190.8210  172.0510  142.1760 C   0  0  0  0  0  2  0  0  0  0  0  0
  190.7130  174.4570  142.9910 C   0  0  1  0  0  3  0  0  0  0  0  0
  188.2750  176.6380  146.0640 N   0  0  0  0  0  0  0  0  0  0  0  0
  187.5870  176.3390  147.1080 C   0  0  0  0  0  3  0  0  0  0  0  0
  184.5540  178.0540  146.0100 C   0  0  0  0  0  2  0  0  0  0  0  0
  186.2730  178.3780  147.6830 C   0  0  0  0  0  2  0  0  0  0  0  0
  186.2160  176.9030  147.3180 C   0  0  0  0  0  3  0  0  0  0  0  0
  185.4070  179.1110  146.6760 C   0  0  0  0  0  2  0  0  0  0  0  0
  185.3790  176.7900  146.0580 C   0  0  0  0  0  2  0  0  0  0  0  0
  1 26  1  6  0  0  0
  1 18  1  0  0  0  0
  2 14  1  0  0  0  0
  3  7  1  6  0  0  0
  3 19  1  0  0  0  0
  4 23  1  6  0  0  0
  4 15  1  0  0  0  0
  5 11  1  1  0  0  0
  5 19  1  0  0  0  0
  7 16  1  0  0  0  0
  8 15  1  0  0  0  0
  8 16  1  0  0  0  0
  8 12  1  1  0  0  0
  9 25  1  0  0  0  0
  9 13  1  0  0  0  0
 10 22  1  0  0  0  0
 13 24  1  0  0  0  0
 14 25  1  0  0  0  0
 15  5  1  0  0  0  0
 15 12  1  0  0  0  0
 16  3  1  0  0  0  0
 17 28  1  0  0  0  0
 17 10  1  0  0  0  0
 18  4  1  0  0  0  0
 18 20  1  0  0  0  0
 19  6  1  0  0  0  0
 20 13  1  0  0  0  0
 20 11  1  0  0  0  0
 21 23  1  0  0  0  0
 24 22  1  0  0  0  0
 25 17  1  0  0  0  0
 26 21  1  0  0  0  0
 27  2  1  0  0  0  0
 27  1  1  0  0  0  0
 27  9  1  0  0  0  0
 28 29  2  0  0  0  0
 29 32  1  0  0  0  0
 30 34  1  0  0  0  0
 30 33  1  0  0  0  0
 32 31  1  0  0  0  0
 33 31  1  0  0  0  0
 34 32  1  0  0  0  0
M  END
>  <MODEL>
8

>  <REMARK>
 VINA RESULT:      -8.5      3.998      6.789
  Name = 
  2 active torsions:
  status: ('A' for Active; 'I' for Inactive)
    1  A    between atoms: C_17  and  N_28
    2  A    between atoms: C_29  and  C_32
                            x       y       z     vdW  Elec       q    Type
                         _______ _______ _______ _____ _____    ______ ____

>  <TORSDO>
F 2

$$$$
=
 OpenBabel11112418073D

 34 42  0  0  1  0  0  0  0  0999 V2000
  192.3360  176.0010  145.9630 C   0  0  2  0  0  3  0  0  0  0  0  0
  190.1740  176.9350  146.4440 O   0  0  0  0  0  0  0  0  0  0  0  0
  196.7020  171.5540  143.4900 C   0  0  2  0  0  3  0  0  0  0  0  0
  194.5000  175.1220  145.1930 C   0  0  1  0  0  3  0  0  0  0  0  0
  194.5090  172.7570  144.0480 C   0  0  2  0  0  3  0  0  0  0  0  0
  194.5880  170.8140  142.6550 O   0  0  0  0  0  1  0  0  0  0  0  0
  196.7760  171.4530  144.8960 O   0  0  0  0  0  0  0  0  0  0  0  0
  196.7650  173.8740  144.7440 C   0  0  1  0  0  3  0  0  0  0  0  0
  190.1590  174.7650  145.4560 C   0  0  2  0  0  3  0  0  0  0  0  0
  188.4250  174.7890  142.7650 C   0  0  0  0  0  2  0  0  0  0  0  0
  193.1640  173.2310  143.5110 C   0  0  0  0  0  2  0  0  0  0  0  0
  196.1860  174.4850  143.6130 O   0  0  0  0  0  0  0  0  0  0  0  0
  190.9810  174.3440  144.2210 C   0  0  1  0  0  3  0  0  0  0  0  0
  188.8420  176.5940  146.1610 C   0  0  0  0  0  2  0  0  0  0  0  0
  195.2900  173.9660  144.5700 C   0  0  2  0  0  0  0  0  0  0  0  0
  197.4490  172.5540  144.3210 C   0  0  2  0  0  3  0  0  0  0  0  0
  188.6520  175.9570  143.7270 C   0  0  2  0  0  3  0  0  0  0  0  0
  193.0880  174.7070  145.6410 C   0  0  2  0  0  3  0  0  0  0  0  0
  195.2970  171.9600  143.0150 C   0  0  2  0  0  3  0  0  0  0  0  0
  192.3210  173.7610  144.6750 C   0  0  2  0  0  3  0  0  0  0  0  0
  194.5660  176.9600  146.5130 C   0  0  0  0  0  2  0  0  0  0  0  0
  189.7440  174.1220  142.3920 C   0  0  0  0  0  2  0  0  0  0  0  0
  195.1760  175.7070  146.2830 O   0  0  0  0  0  0  0  0  0  0  0  0
  190.2580  173.4040  143.4780 O   0  0  0  0  0  0  0  0  0  0  0  0
  188.8300  175.4440  145.1710 C   0  0  1  0  0  3  0  0  0  0  0  0
  193.1220  176.7880  147.0090 C   0  0  0  0  0  2  0  0  0  0  0  0
  190.8930  175.7300  146.3950 C   0  0  1  0  0  3  0  0  0  0  0  0
  187.5200  176.8490  143.6550 N   0  0  0  0  0  0  0  0  0  0  0  0
  187.5640  177.9080  142.9280 C   0  0  0  0  0  3  0  0  0  0  0  0
  184.4350  179.3400  144.1520 C   0  0  0  0  0  2  0  0  0  0  0  0
  185.2040  178.1790  142.1730 C   0  0  0  0  0  2  0  0  0  0  0  0
  186.3960  178.8410  142.8470 C   0  0  0  0  0  3  0  0  0  0  0  0
  184.0390  178.2910  143.1380 C   0  0  0  0  0  2  0  0  0  0  0  0
  185.9410  179.2690  144.2300 C   0  0  0  0  0  2  0  0  0  0  0  0
  1 27  1  0  0  0  0
  1 26  1  1  0  0  0
  3 16  1  0  0  0  0
  3  7  1  1  0  0  0
  4 18  1  0  0  0  0
  4 23  1  1  0  0  0
  5 11  1  6  0  0  0
  5 15  1  0  0  0  0
  6 19  1  0  0  0  0
  8 12  1  6  0  0  0
  9 27  1  0  0  0  0
 10 17  1  0  0  0  0
 11 20  1  0  0  0  0
 12 15  1  0  0  0  0
 13 20  1  0  0  0  0
 13  9  1  0  0  0  0
 14  2  1  0  0  0  0
 15  8  1  0  0  0  0
 15  4  1  0  0  0  0
 16  8  1  0  0  0  0
 16  7  1  0  0  0  0
 17 25  1  0  0  0  0
 18  1  1  0  0  0  0
 19  3  1  0  0  0  0
 19  5  1  0  0  0  0
 20 18  1  0  0  0  0
 21 26  1  0  0  0  0
 22 10  1  0  0  0  0
 22 24  1  0  0  0  0
 23 21  1  0  0  0  0
 24 13  1  0  0  0  0
 25  9  1  0  0  0  0
 25 14  1  0  0  0  0
 27  2  1  0  0  0  0
 28 17  1  0  0  0  0
 29 28  2  0  0  0  0
 30 34  1  0  0  0  0
 31 32  1  0  0  0  0
 31 33  1  0  0  0  0
 32 29  1  0  0  0  0
 32 34  1  0  0  0  0
 33 30  1  0  0  0  0
M  END
>  <MODEL>
9

>  <REMARK>
 VINA RESULT:      -8.4      3.441      6.533
  Name = 
  2 active torsions:
  status: ('A' for Active; 'I' for Inactive)
    1  A    between atoms: C_17  and  N_28
    2  A    between atoms: C_29  and  C_32
                            x       y       z     vdW  Elec       q    Type
                         _______ _______ _______ _____ _____    ______ ____

>  <TORSDO>
F 2

$$$$
