=
 OpenBabel11112416593D

 31 35  0  0  0  0  0  0  0  0999 V2000
  184.2430  178.5600  146.0900 C   0  0  0  0  0  0  0  0  0  0  0  0
  186.8880  177.5330  143.6330 C   0  0  0  0  0  0  0  0  0  0  0  0
  186.3020  177.6880  142.3490 C   0  0  0  0  0  0  0  0  0  0  0  0
  190.4470  176.4410  147.3450 O   0  0  0  0  0  0  0  0  0  0  0  0
  190.9660  176.2120  146.2200 C   0  0  0  0  0  0  0  0  0  0  0  0
  184.4080  178.2690  140.9230 C   0  0  0  0  0  0  0  0  0  0  0  0
  186.2060  177.8230  144.8440 C   0  0  0  0  0  0  0  0  0  0  0  0
  184.9230  178.3720  147.2930 C   0  0  0  0  0  3  0  0  0  0  0  0
  185.0030  178.1830  142.1820 O   0  0  0  0  0  0  0  0  0  0  0  0
  188.8480  176.9010  144.9540 C   0  0  0  0  0  0  0  0  0  0  0  0
  182.9640  179.0060  146.0970 F   0  0  0  0  0  0  0  0  0  0  0  0
  188.3290  176.9340  141.3190 N   0  0  0  0  0  0  0  0  0  0  0  0
  183.2780  178.8090  140.8000 O   0  0  0  0  0  0  0  0  0  0  0  0
  188.1630  177.1890  146.0910 N   0  0  0  0  0  0  0  0  0  0  0  0
  188.2260  177.0670  143.7070 C   0  0  0  0  0  0  0  0  0  0  0  0
  190.2030  176.4290  145.0230 N   0  0  0  0  0  2  0  0  0  0  0  0
  184.8790  178.2860  144.8770 C   0  0  0  0  0  3  0  0  0  0  0  0
  185.0740  177.6530  139.7320 C   0  0  0  0  0  2  0  0  0  0  0  0
  186.8840  177.6370  146.0740 C   0  0  0  0  0  0  0  0  0  0  0  0
  186.2410  177.9110  147.2850 C   0  0  0  0  0  3  0  0  0  0  0  0
  188.9230  176.7780  142.5270 C   0  0  0  0  0  3  0  0  0  0  0  0
  187.0490  177.3670  141.2040 C   0  0  0  0  0  0  0  0  0  0  0  0
  186.4810  177.5170  139.9350 O   0  0  0  0  0  0  0  0  0  0  0  0
  195.0610  174.9230  145.9720 C   0  0  0  0  0  0  0  0  0  0  0  0
  193.3900  176.5580  146.5720 C   0  0  0  0  0  3  0  0  0  0  0  0
  191.5380  173.2980  144.9550 Cl  0  0  0  0  0  0  0  0  0  0  0  0
  196.3580  174.5390  145.9050 F   0  0  0  0  0  0  0  0  0  0  0  0
  194.7280  176.1660  146.5040 C   0  0  0  0  0  3  0  0  0  0  0  0
  192.7120  174.4540  145.5710 C   0  0  0  0  0  0  0  0  0  0  0  0
  192.3620  175.7190  146.1120 C   0  0  0  0  0  0  0  0  0  0  0  0
  194.0570  174.0720  145.5080 C   0  0  0  0  0  3  0  0  0  0  0  0
  1 11  1  0  0  0  0
  1  8  1  0  0  0  0
  2 15  1  0  0  0  0
  2  7  1  0  0  0  0
  3  2  2  0  0  0  0
  5  4  2  0  0  0  0
  6  9  1  0  0  0  0
  7 17  1  0  0  0  0
  7 19  2  0  0  0  0
  9  3  1  0  0  0  0
 10 16  1  0  0  0  0
 10 14  2  0  0  0  0
 12 21  1  0  0  0  0
 13  6  2  0  0  0  0
 15 10  1  0  0  0  0
 16  5  1  0  0  0  0
 17  1  2  0  0  0  0
 18 23  1  0  0  0  0
 18  6  1  0  0  0  0
 19 14  1  0  0  0  0
 19 20  1  0  0  0  0
 20  8  2  0  0  0  0
 21 15  2  0  0  0  0
 22 12  2  0  0  0  0
 22  3  1  0  0  0  0
 23 22  1  0  0  0  0
 24 28  1  0  0  0  0
 26 29  1  0  0  0  0
 27 24  1  0  0  0  0
 28 25  2  0  0  0  0
 29 30  2  0  0  0  0
 30  5  1  0  0  0  0
 30 25  1  0  0  0  0
 31 29  1  0  0  0  0
 31 24  2  0  0  0  0
M  END
>  <MODEL>
1

>  <REMARK>
 VINA RESULT:     -10.0      0.000      0.000
  Name = 
  1 active torsions:
  status: ('A' for Active; 'I' for Inactive)
    1  A    between atoms: C_5  and  C_30
                            x       y       z     vdW  Elec       q    Type
                         _______ _______ _______ _____ _____    ______ ____

>  <TORSDO>
F 1

$$$$
=
 OpenBabel11112416593D

 31 35  0  0  0  0  0  0  0  0999 V2000
  184.8780  178.0370  146.7930 C   0  0  0  0  0  0  0  0  0  0  0  0
  186.7640  177.7240  143.5620 C   0  0  0  0  0  0  0  0  0  0  0  0
  185.8040  177.9210  142.5350 C   0  0  0  0  0  0  0  0  0  0  0  0
  191.3820  176.8260  145.9080 O   0  0  0  0  0  0  0  0  0  0  0  0
  191.5620  176.8080  144.6610 C   0  0  0  0  0  0  0  0  0  0  0  0
  183.5110  178.3390  141.8080 C   0  0  0  0  0  0  0  0  0  0  0  0
  186.4490  177.7670  144.9460 C   0  0  0  0  0  0  0  0  0  0  0  0
  185.9070  177.8320  147.7110 C   0  0  0  0  0  3  0  0  0  0  0  0
  184.4650  178.2140  142.8190 O   0  0  0  0  0  0  0  0  0  0  0  0
  189.0930  177.2780  144.1640 C   0  0  0  0  0  0  0  0  0  0  0  0
  183.6160  178.2660  147.2280 F   0  0  0  0  0  0  0  0  0  0  0  0
  187.5020  177.6200  140.8730 N   0  0  0  0  0  0  0  0  0  0  0  0
  182.3390  178.6990  142.0920 O   0  0  0  0  0  0  0  0  0  0  0  0
  188.7530  177.3260  145.4790 N   0  0  0  0  0  0  0  0  0  0  0  0
  188.1080  177.4750  143.1840 C   0  0  0  0  0  0  0  0  0  0  0  0
  190.4530  177.0260  143.7750 N   0  0  0  0  0  2  0  0  0  0  0  0
  185.1470  178.0030  145.4220 C   0  0  0  0  0  3  0  0  0  0  0  0
  183.8570  177.9720  140.3980 C   0  0  0  0  0  2  0  0  0  0  0  0
  187.4830  177.5600  145.8920 C   0  0  0  0  0  0  0  0  0  0  0  0
  187.2070  177.5940  147.2620 C   0  0  0  0  0  3  0  0  0  0  0  0
  188.4470  177.4330  141.8260 C   0  0  0  0  0  3  0  0  0  0  0  0
  186.2040  177.8510  141.1910 C   0  0  0  0  0  0  0  0  0  0  0  0
  185.2660  178.0440  140.1720 O   0  0  0  0  0  0  0  0  0  0  0  0
  195.3970  176.0720  142.8610 C   0  0  0  0  0  0  0  0  0  0  0  0
  192.9970  176.2850  142.7150 C   0  0  0  0  0  3  0  0  0  0  0  0
  194.1570  176.9190  146.5790 Cl  0  0  0  0  0  0  0  0  0  0  0  0
  196.5940  175.8380  142.2700 F   0  0  0  0  0  0  0  0  0  0  0  0
  194.2280  176.0430  142.1040 C   0  0  0  0  0  3  0  0  0  0  0  0
  194.1070  176.5890  144.8520 C   0  0  0  0  0  0  0  0  0  0  0  0
  192.9100  176.5610  144.0890 C   0  0  0  0  0  0  0  0  0  0  0  0
  195.3360  176.3440  144.2270 C   0  0  0  0  0  3  0  0  0  0  0  0
  1 11  1  0  0  0  0
  1  8  1  0  0  0  0
  2  7  1  0  0  0  0
  3  9  1  0  0  0  0
  3  2  2  0  0  0  0
  5  4  2  0  0  0  0
  6 13  2  0  0  0  0
  6  9  1  0  0  0  0
  7 17  1  0  0  0  0
  7 19  2  0  0  0  0
 10 14  2  0  0  0  0
 12 22  2  0  0  0  0
 12 21  1  0  0  0  0
 14 19  1  0  0  0  0
 15  2  1  0  0  0  0
 15 10  1  0  0  0  0
 16 10  1  0  0  0  0
 16  5  1  0  0  0  0
 17  1  2  0  0  0  0
 18  6  1  0  0  0  0
 19 20  1  0  0  0  0
 20  8  2  0  0  0  0
 21 15  2  0  0  0  0
 22  3  1  0  0  0  0
 23 18  1  0  0  0  0
 23 22  1  0  0  0  0
 24 31  1  0  0  0  0
 25 30  2  0  0  0  0
 27 24  1  0  0  0  0
 28 25  1  0  0  0  0
 28 24  2  0  0  0  0
 29 26  1  0  0  0  0
 30  5  1  0  0  0  0
 30 29  1  0  0  0  0
 31 29  2  0  0  0  0
M  END
>  <MODEL>
2

>  <REMARK>
 VINA RESULT:     -10.0      1.931      2.076
  Name = 
  1 active torsions:
  status: ('A' for Active; 'I' for Inactive)
    1  A    between atoms: C_5  and  C_30
                            x       y       z     vdW  Elec       q    Type
                         _______ _______ _______ _____ _____    ______ ____

>  <TORSDO>
F 1

$$$$
=
 OpenBabel11112416593D

 31 35  0  0  0  0  0  0  0  0999 V2000
  184.8710  177.9290  146.6460 C   0  0  0  0  0  0  0  0  0  0  0  0
  186.0430  177.5080  143.1050 C   0  0  0  0  0  0  0  0  0  0  0  0
  184.9380  177.8650  142.2890 C   0  0  0  0  0  0  0  0  0  0  0  0
  190.8650  175.9380  144.4900 O   0  0  0  0  0  0  0  0  0  0  0  0
  190.7980  175.9460  143.2310 C   0  0  0  0  0  0  0  0  0  0  0  0
  182.6240  178.6000  142.0300 C   0  0  0  0  0  0  0  0  0  0  0  0
  186.0080  177.5350  144.5250 C   0  0  0  0  0  0  0  0  0  0  0  0
  186.0210  177.5590  147.3430 C   0  0  0  0  0  3  0  0  0  0  0  0
  183.7290  178.3150  142.8340 O   0  0  0  0  0  0  0  0  0  0  0  0
  188.3640  176.7450  143.2330 C   0  0  0  0  0  0  0  0  0  0  0  0
  183.7580  178.2990  147.3240 F   0  0  0  0  0  0  0  0  0  0  0  0
  186.2300  177.4180  140.3220 N   0  0  0  0  0  0  0  0  0  0  0  0
  181.5870  179.0940  142.5430 O   0  0  0  0  0  0  0  0  0  0  0  0
  188.2920  176.7840  144.5900 N   0  0  0  0  0  0  0  0  0  0  0  0
  187.2440  177.1050  142.4680 C   0  0  0  0  0  0  0  0  0  0  0  0
  189.5790  176.3390  142.5820 N   0  0  0  0  0  2  0  0  0  0  0  0
  184.8650  177.9150  145.2500 C   0  0  0  0  0  3  0  0  0  0  0  0
  182.6410  178.2480  140.5750 C   0  0  0  0  0  2  0  0  0  0  0  0
  187.1680  177.1610  145.2460 C   0  0  0  0  0  0  0  0  0  0  0  0
  187.1670  177.1760  146.6440 C   0  0  0  0  0  3  0  0  0  0  0  0
  187.3070  177.0740  141.0690 C   0  0  0  0  0  3  0  0  0  0  0  0
  185.0600  177.7980  140.8910 C   0  0  0  0  0  0  0  0  0  0  0  0
  183.9770  178.1490  140.0780 O   0  0  0  0  0  0  0  0  0  0  0  0
  194.2640  174.9350  140.8940 C   0  0  0  0  0  0  0  0  0  0  0  0
  193.1280  176.3380  142.4970 C   0  0  0  0  0  3  0  0  0  0  0  0
  190.5960  173.3650  141.3020 Cl  0  0  0  0  0  0  0  0  0  0  0  0
  195.3680  174.6370  140.1690 F   0  0  0  0  0  0  0  0  0  0  0  0
  194.2680  176.0330  141.7510 C   0  0  0  0  0  3  0  0  0  0  0  0
  191.9730  174.4370  141.5270 C   0  0  0  0  0  0  0  0  0  0  0  0
  191.9670  175.5540  142.4030 C   0  0  0  0  0  0  0  0  0  0  0  0
  193.1220  174.1420  140.7840 C   0  0  0  0  0  3  0  0  0  0  0  0
  1 11  1  0  0  0  0
  1  8  1  0  0  0  0
  2  7  1  0  0  0  0
  3  9  1  0  0  0  0
  3  2  2  0  0  0  0
  5  4  2  0  0  0  0
  6 13  2  0  0  0  0
  6  9  1  0  0  0  0
  7 19  2  0  0  0  0
  7 17  1  0  0  0  0
 10 14  2  0  0  0  0
 12 22  2  0  0  0  0
 12 21  1  0  0  0  0
 14 19  1  0  0  0  0
 15  2  1  0  0  0  0
 15 10  1  0  0  0  0
 16  5  1  0  0  0  0
 16 10  1  0  0  0  0
 17  1  2  0  0  0  0
 18  6  1  0  0  0  0
 19 20  1  0  0  0  0
 20  8  2  0  0  0  0
 21 15  2  0  0  0  0
 22  3  1  0  0  0  0
 23 18  1  0  0  0  0
 23 22  1  0  0  0  0
 24 28  1  0  0  0  0
 26 29  1  0  0  0  0
 27 24  1  0  0  0  0
 28 25  2  0  0  0  0
 29 30  2  0  0  0  0
 30 25  1  0  0  0  0
 30  5  1  0  0  0  0
 31 24  2  0  0  0  0
 31 29  1  0  0  0  0
M  END
>  <MODEL>
3

>  <REMARK>
 VINA RESULT:      -9.1      2.564      2.857
  Name = 
  1 active torsions:
  status: ('A' for Active; 'I' for Inactive)
    1  A    between atoms: C_5  and  C_30
                            x       y       z     vdW  Elec       q    Type
                         _______ _______ _______ _____ _____    ______ ____

>  <TORSDO>
F 1

$$$$
=
 OpenBabel11112416593D

 31 35  0  0  0  0  0  0  0  0999 V2000
  190.7200  177.0000  147.5010 C   0  0  0  0  0  0  0  0  0  0  0  0
  188.2280  176.4150  144.7550 C   0  0  0  0  0  0  0  0  0  0  0  0
  187.0770  177.1640  145.1140 C   0  0  0  0  0  0  0  0  0  0  0  0
  191.4210  173.2630  142.0150 O   0  0  0  0  0  0  0  0  0  0  0  0
  190.3320  173.3640  141.3890 C   0  0  0  0  0  0  0  0  0  0  0  0
  185.8810  178.6350  146.6520 C   0  0  0  0  0  0  0  0  0  0  0  0
  189.4100  176.3720  145.5410 C   0  0  0  0  0  0  0  0  0  0  0  0
  191.7900  176.2320  147.0440 C   0  0  0  0  0  3  0  0  0  0  0  0
  187.0380  177.9560  146.2680 O   0  0  0  0  0  0  0  0  0  0  0  0
  189.3110  174.9220  143.1470 C   0  0  0  0  0  0  0  0  0  0  0  0
  190.8230  177.6790  148.6680 F   0  0  0  0  0  0  0  0  0  0  0  0
  185.9610  176.4250  143.1270 N   0  0  0  0  0  0  0  0  0  0  0  0
  185.9110  179.4160  147.6390 O   0  0  0  0  0  0  0  0  0  0  0  0
  190.4240  174.9060  143.9270 N   0  0  0  0  0  0  0  0  0  0  0  0
  188.1960  175.6750  143.5460 C   0  0  0  0  0  0  0  0  0  0  0  0
  189.2720  174.1740  141.9210 N   0  0  0  0  0  2  0  0  0  0  0  0
  189.5400  177.0680  146.7560 C   0  0  0  0  0  3  0  0  0  0  0  0
  184.5870  178.3800  145.9420 C   0  0  0  0  0  2  0  0  0  0  0  0
  190.5060  175.5960  145.0900 C   0  0  0  0  0  0  0  0  0  0  0  0
  191.6830  175.5320  145.8410 C   0  0  0  0  0  3  0  0  0  0  0  0
  187.0440  175.7030  142.7490 C   0  0  0  0  0  3  0  0  0  0  0  0
  185.9470  177.1390  144.2800 C   0  0  0  0  0  0  0  0  0  0  0  0
  184.8080  177.8730  144.6250 O   0  0  0  0  0  0  0  0  0  0  0  0
  189.6910  171.4500  137.5910 C   0  0  0  0  0  0  0  0  0  0  0  0
  189.7200  173.4160  138.9920 C   0  0  0  0  0  3  0  0  0  0  0  0
  190.8160  170.1760  141.2240 Cl  0  0  0  0  0  0  0  0  0  0  0  0
  189.4840  170.8700  136.3850 F   0  0  0  0  0  0  0  0  0  0  0  0
  189.5050  172.8210  137.7480 C   0  0  0  0  0  3  0  0  0  0  0  0
  190.3130  171.2580  139.9310 C   0  0  0  0  0  0  0  0  0  0  0  0
  190.1250  172.6550  140.1010 C   0  0  0  0  0  0  0  0  0  0  0  0
  190.0940  170.6730  138.6780 C   0  0  0  0  0  3  0  0  0  0  0  0
  1 11  1  0  0  0  0
  2  3  2  0  0  0  0
  2  7  1  0  0  0  0
  3  9  1  0  0  0  0
  5 16  1  0  0  0  0
  5  4  2  0  0  0  0
  6 13  2  0  0  0  0
  7 17  1  0  0  0  0
  8  1  1  0  0  0  0
  9  6  1  0  0  0  0
 10 15  1  0  0  0  0
 10 14  2  0  0  0  0
 12 22  2  0  0  0  0
 14 19  1  0  0  0  0
 15  2  1  0  0  0  0
 16 10  1  0  0  0  0
 17  1  2  0  0  0  0
 18  6  1  0  0  0  0
 19  7  2  0  0  0  0
 19 20  1  0  0  0  0
 20  8  2  0  0  0  0
 21 12  1  0  0  0  0
 21 15  2  0  0  0  0
 22 23  1  0  0  0  0
 22  3  1  0  0  0  0
 23 18  1  0  0  0  0
 24 28  2  0  0  0  0
 24 31  1  0  0  0  0
 25 30  2  0  0  0  0
 27 24  1  0  0  0  0
 28 25  1  0  0  0  0
 29 30  1  0  0  0  0
 29 26  1  0  0  0  0
 30  5  1  0  0  0  0
 31 29  2  0  0  0  0
M  END
>  <MODEL>
4

>  <REMARK>
 VINA RESULT:      -8.7      4.428      6.328
  Name = 
  1 active torsions:
  status: ('A' for Active; 'I' for Inactive)
    1  A    between atoms: C_5  and  C_30
                            x       y       z     vdW  Elec       q    Type
                         _______ _______ _______ _____ _____    ______ ____

>  <TORSDO>
F 1

$$$$
=
 OpenBabel11112416593D

 31 35  0  0  0  0  0  0  0  0999 V2000
  185.7950  177.6890  141.1990 C   0  0  0  0  0  0  0  0  0  0  0  0
  187.3040  176.6740  144.4830 C   0  0  0  0  0  0  0  0  0  0  0  0
  186.4340  177.1860  145.4810 C   0  0  0  0  0  0  0  0  0  0  0  0
  191.3840  174.2010  142.2740 O   0  0  0  0  0  0  0  0  0  0  0  0
  191.4930  174.1040  143.5250 C   0  0  0  0  0  0  0  0  0  0  0  0
  184.4400  178.4300  146.1410 C   0  0  0  0  0  0  0  0  0  0  0  0
  187.0830  176.8440  143.0910 C   0  0  0  0  0  0  0  0  0  0  0  0
  186.7190  177.1380  140.3110 C   0  0  0  0  0  3  0  0  0  0  0  0
  185.2570  177.8700  145.1570 O   0  0  0  0  0  0  0  0  0  0  0  0
  189.3410  175.4270  143.9500 C   0  0  0  0  0  0  0  0  0  0  0  0
  184.7220  178.3670  140.7270 F   0  0  0  0  0  0  0  0  0  0  0  0
  187.8420  176.2750  147.1930 N   0  0  0  0  0  0  0  0  0  0  0  0
  183.3410  178.9520  145.8210 O   0  0  0  0  0  0  0  0  0  0  0  0
  189.0950  175.6100  142.6260 N   0  0  0  0  0  0  0  0  0  0  0  0
  188.4530  175.9540  144.9000 C   0  0  0  0  0  0  0  0  0  0  0  0
  190.5020  174.6980  144.3790 N   0  0  0  0  0  2  0  0  0  0  0  0
  185.9780  177.5440  142.5770 C   0  0  0  0  0  3  0  0  0  0  0  0
  184.9030  178.4800  147.5640 C   0  0  0  0  0  2  0  0  0  0  0  0
  188.0130  176.2900  142.1760 C   0  0  0  0  0  0  0  0  0  0  0  0
  187.8250  176.4400  140.7990 C   0  0  0  0  0  3  0  0  0  0  0  0
  188.6920  175.7680  146.2670 C   0  0  0  0  0  3  0  0  0  0  0  0
  186.7380  176.9790  146.8370 C   0  0  0  0  0  0  0  0  0  0  0  0
  185.8870  177.4780  147.8280 O   0  0  0  0  0  0  0  0  0  0  0  0
  194.7250  171.8710  145.2750 C   0  0  0  0  0  0  0  0  0  0  0  0
  192.5410  171.9850  144.2530 C   0  0  0  0  0  3  0  0  0  0  0  0
  194.0780  175.7580  144.5290 Cl  0  0  0  0  0  0  0  0  0  0  0  0
  195.7300  171.1450  145.8220 F   0  0  0  0  0  0  0  0  0  0  0  0
  193.5740  171.2340  144.8170 C   0  0  0  0  0  3  0  0  0  0  0  0
  193.8140  174.0200  144.6060 C   0  0  0  0  0  0  0  0  0  0  0  0
  192.6370  173.3810  144.1360 C   0  0  0  0  0  0  0  0  0  0  0  0
  194.8430  173.2570  145.1690 C   0  0  0  0  0  3  0  0  0  0  0  0
  1 17  1  0  0  0  0
  2 15  1  0  0  0  0
  2  3  2  0  0  0  0
  3 22  1  0  0  0  0
  4  5  2  0  0  0  0
  5 30  1  0  0  0  0
  5 16  1  0  0  0  0
  6 18  1  0  0  0  0
  7  2  1  0  0  0  0
  8 20  1  0  0  0  0
  8  1  2  0  0  0  0
  9  3  1  0  0  0  0
  9  6  1  0  0  0  0
 10 16  1  0  0  0  0
 10 15  1  0  0  0  0
 11  1  1  0  0  0  0
 13  6  2  0  0  0  0
 14 10  2  0  0  0  0
 15 21  2  0  0  0  0
 17  7  2  0  0  0  0
 18 23  1  0  0  0  0
 19 14  1  0  0  0  0
 19  7  1  0  0  0  0
 20 19  2  0  0  0  0
 21 12  1  0  0  0  0
 22 12  2  0  0  0  0
 22 23  1  0  0  0  0
 24 27  1  0  0  0  0
 25 28  1  0  0  0  0
 26 29  1  0  0  0  0
 28 24  2  0  0  0  0
 29 31  2  0  0  0  0
 30 25  2  0  0  0  0
 30 29  1  0  0  0  0
 31 24  1  0  0  0  0
M  END
>  <MODEL>
5

>  <REMARK>
 VINA RESULT:      -8.7      2.571      4.550
  Name = 
  1 active torsions:
  status: ('A' for Active; 'I' for Inactive)
    1  A    between atoms: C_5  and  C_30
                            x       y       z     vdW  Elec       q    Type
                         _______ _______ _______ _____ _____    ______ ____

>  <TORSDO>
F 1

$$$$
=
 OpenBabel11112416593D

 31 35  0  0  0  0  0  0  0  0999 V2000
  195.1790  174.1090  145.5260 C   0  0  0  0  0  0  0  0  0  0  0  0
  191.7270  173.3260  144.2770 C   0  0  0  0  0  0  0  0  0  0  0  0
  191.8400  172.0930  143.5830 C   0  0  0  0  0  0  0  0  0  0  0  0
  189.5880  177.6650  146.3350 O   0  0  0  0  0  0  0  0  0  0  0  0
  188.6810  177.0180  145.7470 C   0  0  0  0  0  0  0  0  0  0  0  0
  193.1710  170.2190  142.7610 C   0  0  0  0  0  0  0  0  0  0  0  0
  192.8230  173.9710  144.9080 C   0  0  0  0  0  0  0  0  0  0  0  0
  194.9460  175.3170  146.1830 C   0  0  0  0  0  3  0  0  0  0  0  0
  193.0510  171.3950  143.5030 O   0  0  0  0  0  0  0  0  0  0  0  0
  190.2900  175.1600  145.0240 C   0  0  0  0  0  0  0  0  0  0  0  0
  196.4260  173.5820  145.5000 F   0  0  0  0  0  0  0  0  0  0  0  0
  189.4980  172.1490  143.0770 N   0  0  0  0  0  0  0  0  0  0  0  0
  194.2470  169.5670  142.7920 O   0  0  0  0  0  0  0  0  0  0  0  0
  191.3640  175.7470  145.6160 N   0  0  0  0  0  0  0  0  0  0  0  0
  190.4510  173.9420  144.3460 C   0  0  0  0  0  0  0  0  0  0  0  0
  188.9950  175.7790  145.0900 N   0  0  0  0  0  2  0  0  0  0  0  0
  194.1260  173.4430  144.8940 C   0  0  0  0  0  3  0  0  0  0  0  0
  192.0530  169.7720  141.8710 C   0  0  0  0  0  2  0  0  0  0  0  0
  192.6020  175.1990  145.5790 C   0  0  0  0  0  0  0  0  0  0  0  0
  193.6600  175.8610  146.2090 C   0  0  0  0  0  3  0  0  0  0  0  0
  189.3520  173.3240  143.7360 C   0  0  0  0  0  3  0  0  0  0  0  0
  190.7020  171.5320  142.9790 C   0  0  0  0  0  0  0  0  0  0  0  0
  190.8020  170.3170  142.2930 O   0  0  0  0  0  0  0  0  0  0  0  0
  184.6180  178.4260  145.8260 C   0  0  0  0  0  0  0  0  0  0  0  0
  186.5400  177.4470  146.9100 C   0  0  0  0  0  3  0  0  0  0  0  0
  187.4610  178.2100  143.0050 Cl  0  0  0  0  0  0  0  0  0  0  0  0
  183.3370  178.8640  145.8770 F   0  0  0  0  0  0  0  0  0  0  0  0
  185.2200  177.8970  146.9650 C   0  0  0  0  0  3  0  0  0  0  0  0
  186.6600  178.0590  144.5650 C   0  0  0  0  0  0  0  0  0  0  0  0
  187.2830  177.5180  145.7200 C   0  0  0  0  0  0  0  0  0  0  0  0
  185.3360  178.5060  144.6330 C   0  0  0  0  0  3  0  0  0  0  0  0
  1  8  1  0  0  0  0
  2 15  1  0  0  0  0
  2  7  1  0  0  0  0
  3  2  2  0  0  0  0
  5  4  2  0  0  0  0
  6 13  2  0  0  0  0
  6  9  1  0  0  0  0
  7 19  2  0  0  0  0
  8 20  2  0  0  0  0
  9  3  1  0  0  0  0
 10 16  1  0  0  0  0
 10 14  2  0  0  0  0
 11  1  1  0  0  0  0
 12 21  1  0  0  0  0
 15 10  1  0  0  0  0
 16  5  1  0  0  0  0
 17  7  1  0  0  0  0
 17  1  2  0  0  0  0
 18 23  1  0  0  0  0
 18  6  1  0  0  0  0
 19 14  1  0  0  0  0
 19 20  1  0  0  0  0
 21 15  2  0  0  0  0
 22 12  2  0  0  0  0
 22  3  1  0  0  0  0
 23 22  1  0  0  0  0
 24 27  1  0  0  0  0
 24 28  1  0  0  0  0
 25 28  2  0  0  0  0
 26 29  1  0  0  0  0
 29 31  1  0  0  0  0
 29 30  2  0  0  0  0
 30  5  1  0  0  0  0
 30 25  1  0  0  0  0
 31 24  2  0  0  0  0
M  END
>  <MODEL>
6

>  <REMARK>
 VINA RESULT:      -8.6      3.550      8.613
  Name = 
  1 active torsions:
  status: ('A' for Active; 'I' for Inactive)
    1  A    between atoms: C_5  and  C_30
                            x       y       z     vdW  Elec       q    Type
                         _______ _______ _______ _____ _____    ______ ____

>  <TORSDO>
F 1

$$$$
=
 OpenBabel11112416593D

 31 35  0  0  0  0  0  0  0  0999 V2000
  195.0620  174.9980  145.5690 C   0  0  0  0  0  0  0  0  0  0  0  0
  192.0590  174.5950  143.3540 C   0  0  0  0  0  0  0  0  0  0  0  0
  192.4490  173.6830  142.3380 C   0  0  0  0  0  0  0  0  0  0  0  0
  189.0760  177.8900  146.1620 O   0  0  0  0  0  0  0  0  0  0  0  0
  188.3900  177.4600  145.1960 C   0  0  0  0  0  0  0  0  0  0  0  0
  194.1200  172.2490  141.2840 C   0  0  0  0  0  0  0  0  0  0  0  0
  192.9200  175.0140  144.4020 C   0  0  0  0  0  0  0  0  0  0  0  0
  194.5660  175.8960  146.5130 C   0  0  0  0  0  3  0  0  0  0  0  0
  193.7180  173.0920  142.3210 O   0  0  0  0  0  0  0  0  0  0  0  0
  190.3070  176.0150  144.3020 C   0  0  0  0  0  0  0  0  0  0  0  0
  196.3370  174.5490  145.6650 F   0  0  0  0  0  0  0  0  0  0  0  0
  190.2760  173.8430  141.3420 N   0  0  0  0  0  0  0  0  0  0  0  0
  195.2290  171.6580  141.3510 O   0  0  0  0  0  0  0  0  0  0  0  0
  191.1610  176.3920  145.2910 N   0  0  0  0  0  0  0  0  0  0  0  0
  190.7390  175.1120  143.3190 C   0  0  0  0  0  0  0  0  0  0  0  0
  188.9680  176.5350  144.2620 N   0  0  0  0  0  2  0  0  0  0  0  0
  194.2460  174.5620  144.5220 C   0  0  0  0  0  3  0  0  0  0  0  0
  193.2710  172.1050  140.0590 C   0  0  0  0  0  2  0  0  0  0  0  0
  192.4310  175.9270  145.3680 C   0  0  0  0  0  0  0  0  0  0  0  0
  193.2530  176.3600  146.4130 C   0  0  0  0  0  3  0  0  0  0  0  0
  189.8670  174.7120  142.2980 C   0  0  0  0  0  3  0  0  0  0  0  0
  191.5330  173.3330  141.3330 C   0  0  0  0  0  0  0  0  0  0  0  0
  191.9070  172.4340  140.3290 O   0  0  0  0  0  0  0  0  0  0  0  0
  184.3590  178.7930  144.5070 C   0  0  0  0  0  0  0  0  0  0  0  0
  186.6680  178.5960  143.8300 C   0  0  0  0  0  3  0  0  0  0  0  0
  186.1890  176.7910  147.4620 Cl  0  0  0  0  0  0  0  0  0  0  0  0
  183.0970  179.2220  144.2670 F   0  0  0  0  0  0  0  0  0  0  0  0
  185.3690  179.0400  143.5800 C   0  0  0  0  0  3  0  0  0  0  0  0
  185.9470  177.6500  145.9460 C   0  0  0  0  0  0  0  0  0  0  0  0
  186.9830  177.8970  145.0070 C   0  0  0  0  0  0  0  0  0  0  0  0
  184.6480  178.1010  145.6830 C   0  0  0  0  0  3  0  0  0  0  0  0
  1 11  1  0  0  0  0
  1  8  1  0  0  0  0
  2  7  1  0  0  0  0
  3  2  2  0  0  0  0
  5  4  2  0  0  0  0
  6 13  2  0  0  0  0
  6  9  1  0  0  0  0
  7 17  1  0  0  0  0
  7 19  2  0  0  0  0
  9  3  1  0  0  0  0
 10 14  2  0  0  0  0
 12 21  1  0  0  0  0
 14 19  1  0  0  0  0
 15  2  1  0  0  0  0
 15 10  1  0  0  0  0
 16 10  1  0  0  0  0
 16  5  1  0  0  0  0
 17  1  2  0  0  0  0
 18 23  1  0  0  0  0
 18  6  1  0  0  0  0
 19 20  1  0  0  0  0
 20  8  2  0  0  0  0
 21 15  2  0  0  0  0
 22 12  2  0  0  0  0
 22  3  1  0  0  0  0
 23 22  1  0  0  0  0
 24 31  1  0  0  0  0
 25 30  2  0  0  0  0
 27 24  1  0  0  0  0
 28 25  1  0  0  0  0
 28 24  2  0  0  0  0
 29 26  1  0  0  0  0
 30  5  1  0  0  0  0
 30 29  1  0  0  0  0
 31 29  2  0  0  0  0
M  END
>  <MODEL>
7

>  <REMARK>
 VINA RESULT:      -8.3      3.477      8.370
  Name = 
  1 active torsions:
  status: ('A' for Active; 'I' for Inactive)
    1  A    between atoms: C_5  and  C_30
                            x       y       z     vdW  Elec       q    Type
                         _______ _______ _______ _____ _____    ______ ____

>  <TORSDO>
F 1

$$$$
=
 OpenBabel11112416593D

 31 35  0  0  0  0  0  0  0  0999 V2000
  185.2560  178.2730  145.7300 C   0  0  0  0  0  0  0  0  0  0  0  0
  187.4620  176.7030  143.1310 C   0  0  0  0  0  0  0  0  0  0  0  0
  186.8410  176.9750  141.8840 C   0  0  0  0  0  0  0  0  0  0  0  0
  190.9410  174.8950  146.6330 O   0  0  0  0  0  0  0  0  0  0  0  0
  191.3270  174.5580  145.4820 C   0  0  0  0  0  0  0  0  0  0  0  0
  185.0240  177.9390  140.5690 C   0  0  0  0  0  0  0  0  0  0  0  0
  186.9360  177.1340  144.3780 C   0  0  0  0  0  0  0  0  0  0  0  0
  185.9570  177.9500  146.8920 C   0  0  0  0  0  3  0  0  0  0  0  0
  185.6680  177.7320  141.7900 O   0  0  0  0  0  0  0  0  0  0  0  0
  189.3260  175.6750  144.3380 C   0  0  0  0  0  0  0  0  0  0  0  0
  184.1030  178.9800  145.8090 F   0  0  0  0  0  0  0  0  0  0  0  0
  188.5930  175.8050  140.7430 N   0  0  0  0  0  0  0  0  0  0  0  0
  184.0280  178.7050  140.5070 O   0  0  0  0  0  0  0  0  0  0  0  0
  188.7900  176.1050  145.5110 N   0  0  0  0  0  0  0  0  0  0  0  0
  188.6730  175.9650  143.1300 C   0  0  0  0  0  0  0  0  0  0  0  0
  190.5520  174.9270  144.3310 N   0  0  0  0  0  2  0  0  0  0  0  0
  185.7410  177.8680  144.4850 C   0  0  0  0  0  3  0  0  0  0  0  0
  185.4670  177.1920  139.3490 C   0  0  0  0  0  2  0  0  0  0  0  0
  187.6360  176.8130  145.5660 C   0  0  0  0  0  0  0  0  0  0  0  0
  187.1450  177.2210  146.8090 C   0  0  0  0  0  3  0  0  0  0  0  0
  189.2170  175.5320  141.9140 C   0  0  0  0  0  3  0  0  0  0  0  0
  187.4290  176.4990  140.7000 C   0  0  0  0  0  0  0  0  0  0  0  0
  186.8250  176.7620  139.4660 O   0  0  0  0  0  0  0  0  0  0  0  0
  194.8640  172.1890  144.8710 C   0  0  0  0  0  0  0  0  0  0  0  0
  192.4840  172.5320  144.6580 C   0  0  0  0  0  3  0  0  0  0  0  0
  194.1310  175.7630  146.5360 Cl  0  0  0  0  0  0  0  0  0  0  0  0
  195.9630  171.4240  144.6660 F   0  0  0  0  0  0  0  0  0  0  0  0
  193.6150  171.7420  144.4460 C   0  0  0  0  0  3  0  0  0  0  0  0
  193.8560  174.2260  145.7250 C   0  0  0  0  0  0  0  0  0  0  0  0
  192.5780  173.7800  145.2960 C   0  0  0  0  0  0  0  0  0  0  0  0
  194.9820  173.4250  145.5060 C   0  0  0  0  0  3  0  0  0  0  0  0
  1 11  1  0  0  0  0
  1  8  1  0  0  0  0
  2  7  1  0  0  0  0
  3  2  2  0  0  0  0
  5  4  2  0  0  0  0
  6  9  1  0  0  0  0
  7 17  1  0  0  0  0
  7 19  2  0  0  0  0
  9  3  1  0  0  0  0
 10 14  2  0  0  0  0
 12 21  1  0  0  0  0
 13  6  2  0  0  0  0
 14 19  1  0  0  0  0
 15  2  1  0  0  0  0
 15 10  1  0  0  0  0
 16 10  1  0  0  0  0
 16  5  1  0  0  0  0
 17  1  2  0  0  0  0
 18 23  1  0  0  0  0
 18  6  1  0  0  0  0
 19 20  1  0  0  0  0
 20  8  2  0  0  0  0
 21 15  2  0  0  0  0
 22 12  2  0  0  0  0
 22  3  1  0  0  0  0
 23 22  1  0  0  0  0
 24 31  1  0  0  0  0
 25 30  2  0  0  0  0
 27 24  1  0  0  0  0
 28 25  1  0  0  0  0
 28 24  2  0  0  0  0
 29 26  1  0  0  0  0
 30  5  1  0  0  0  0
 30 29  1  0  0  0  0
 31 29  2  0  0  0  0
M  END
>  <MODEL>
8

>  <REMARK>
 VINA RESULT:      -8.2      1.540      1.995
  Name = 
  1 active torsions:
  status: ('A' for Active; 'I' for Inactive)
    1  A    between atoms: C_5  and  C_30
                            x       y       z     vdW  Elec       q    Type
                         _______ _______ _______ _____ _____    ______ ____

>  <TORSDO>
F 1

$$$$
=
 OpenBabel11112416593D

 31 35  0  0  0  0  0  0  0  0999 V2000
  192.4470  172.7600  139.8590 C   0  0  0  0  0  0  0  0  0  0  0  0
  192.0800  175.2160  142.6740 C   0  0  0  0  0  0  0  0  0  0  0  0
  193.3980  175.4750  143.1320 C   0  0  0  0  0  0  0  0  0  0  0  0
  186.8410  175.4370  142.3000 O   0  0  0  0  0  0  0  0  0  0  0  0
  187.2040  176.2010  143.2340 C   0  0  0  0  0  0  0  0  0  0  0  0
  195.8090  175.1030  143.0240 C   0  0  0  0  0  0  0  0  0  0  0  0
  191.7840  174.3290  141.6050 C   0  0  0  0  0  0  0  0  0  0  0  0
  191.1120  172.5860  139.4950 C   0  0  0  0  0  3  0  0  0  0  0  0
  194.5210  174.8980  142.5270 O   0  0  0  0  0  0  0  0  0  0  0  0
  189.6840  175.6550  142.8990 C   0  0  0  0  0  0  0  0  0  0  0  0
  193.4220  172.0900  139.2000 F   0  0  0  0  0  0  0  0  0  0  0  0
  192.5400  176.9810  144.7860 N   0  0  0  0  0  0  0  0  0  0  0  0
  196.8010  174.6490  142.3970 O   0  0  0  0  0  0  0  0  0  0  0  0
  189.4400  174.8000  141.8710 N   0  0  0  0  0  0  0  0  0  0  0  0
  191.0040  175.8780  143.3180 C   0  0  0  0  0  0  0  0  0  0  0  0
  188.5980  176.3300  143.5540 N   0  0  0  0  0  2  0  0  0  0  0  0
  192.7790  173.6230  140.9060 C   0  0  0  0  0  3  0  0  0  0  0  0
  196.0080  175.7940  144.3370 C   0  0  0  0  0  2  0  0  0  0  0  0
  190.4330  174.1420  141.2230 C   0  0  0  0  0  0  0  0  0  0  0  0
  190.1070  173.2760  140.1760 C   0  0  0  0  0  3  0  0  0  0  0  0
  191.2680  176.7610  144.3730 C   0  0  0  0  0  3  0  0  0  0  0  0
  193.5960  176.3600  144.2050 C   0  0  0  0  0  0  0  0  0  0  0  0
  194.8910  176.6240  144.6630 O   0  0  0  0  0  0  0  0  0  0  0  0
  184.3630  178.3660  145.6310 C   0  0  0  0  0  0  0  0  0  0  0  0
  186.1290  176.7370  145.3980 C   0  0  0  0  0  3  0  0  0  0  0  0
  185.3100  178.3430  141.7340 Cl  0  0  0  0  0  0  0  0  0  0  0  0
  183.4780  179.0350  146.4070 F   0  0  0  0  0  0  0  0  0  0  0  0
  185.2180  177.4240  146.2000 C   0  0  0  0  0  3  0  0  0  0  0  0
  185.3310  177.9370  143.4460 C   0  0  0  0  0  0  0  0  0  0  0  0
  186.2060  176.9760  144.0160 C   0  0  0  0  0  0  0  0  0  0  0  0
  184.4210  178.6200  144.2610 C   0  0  0  0  0  3  0  0  0  0  0  0
  1 17  1  0  0  0  0
  2  3  2  0  0  0  0
  2 15  1  0  0  0  0
  3 22  1  0  0  0  0
  4  5  2  0  0  0  0
  5 16  1  0  0  0  0
  5 30  1  0  0  0  0
  6 18  1  0  0  0  0
  7  2  1  0  0  0  0
  8  1  2  0  0  0  0
  8 20  1  0  0  0  0
  9  6  1  0  0  0  0
  9  3  1  0  0  0  0
 10 15  1  0  0  0  0
 10 16  1  0  0  0  0
 11  1  1  0  0  0  0
 13  6  2  0  0  0  0
 14 10  2  0  0  0  0
 15 21  2  0  0  0  0
 17  7  2  0  0  0  0
 18 23  1  0  0  0  0
 19  7  1  0  0  0  0
 19 14  1  0  0  0  0
 20 19  2  0  0  0  0
 21 12  1  0  0  0  0
 22 23  1  0  0  0  0
 22 12  2  0  0  0  0
 24 28  1  0  0  0  0
 24 27  1  0  0  0  0
 25 28  2  0  0  0  0
 26 29  1  0  0  0  0
 29 30  2  0  0  0  0
 29 31  1  0  0  0  0
 30 25  1  0  0  0  0
 31 24  2  0  0  0  0
M  END
>  <MODEL>
9

>  <REMARK>
 VINA RESULT:      -8.2      3.978      8.990
  Name = 
  1 active torsions:
  status: ('A' for Active; 'I' for Inactive)
    1  A    between atoms: C_5  and  C_30
                            x       y       z     vdW  Elec       q    Type
                         _______ _______ _______ _____ _____    ______ ____

>  <TORSDO>
F 1

$$$$
