=
 OpenBabel11112417023D

 31 35  0  0  1  0  0  0  0  0999 V2000
  184.4310  178.5210  146.3110 C   0  0  0  0  0  0  0  0  0  0  0  0
  187.0250  176.8660  144.1640 C   0  0  0  0  0  0  0  0  0  0  0  0
  186.6430  177.2290  142.7600 C   0  0  0  0  0  0  0  0  0  0  0  0
  184.9590  177.7550  141.0780 C   0  0  0  0  0  0  0  0  0  0  0  0
  186.2970  177.3180  145.3000 C   0  0  0  0  0  0  0  0  0  0  0  0
  184.9060  178.2090  147.5850 C   0  0  0  0  0  3  0  0  0  0  0  0
  185.3010  177.4220  142.3910 C   0  0  0  0  0  3  0  0  0  0  0  0
  188.6960  175.8760  145.6720 C   0  0  0  0  0  0  0  0  0  0  0  0
  183.2980  179.2490  146.1700 F   0  0  0  0  0  0  0  0  0  0  0  0
  189.0710  177.0870  142.0910 C   0  0  0  0  0  2  0  0  0  0  0  0
  183.6280  177.9510  140.7360 O   0  0  0  0  0  1  0  0  0  0  0  0
  187.9600  176.3200  146.7720 C   0  0  0  0  0  3  0  0  0  0  0  0
  188.2240  176.1320  144.3720 C   0  0  0  0  0  0  0  0  0  0  0  0
  185.1240  178.0820  145.1800 C   0  0  0  0  0  3  0  0  0  0  0  0
  185.9550  177.8920  140.1090 C   0  0  0  0  0  3  0  0  0  0  0  0
  186.7750  177.0260  146.6010 C   0  0  0  0  0  0  0  0  0  0  0  0
  186.0780  177.4660  147.7300 C   0  0  0  0  0  3  0  0  0  0  0  0
  189.1570  175.4980  142.9610 S   0  0  0  0  0  0  0  0  0  0  0  0
  187.6390  177.3490  141.7640 C   0  0  0  0  0  0  0  0  0  0  0  0
  187.2920  177.6850  140.4520 C   0  0  0  0  0  3  0  0  0  0  0  0
  191.4660  176.8860  145.5600 O   0  0  0  0  0  0  0  0  0  0  0  0
  191.2540  175.6650  145.7880 C   0  0  0  0  0  0  0  0  0  0  0  0
  189.9200  175.1440  145.8480 N   0  0  0  0  0  2  0  0  0  0  0  0
  194.6400  175.2770  144.2560 C   0  0  1  0  0  3  0  0  0  0  0  0
  193.6760  175.4710  146.4230 C   0  0  0  0  0  2  0  0  0  0  0  0
  191.5230  173.2350  144.3100 O   0  0  0  0  0  1  0  0  0  0  0  0
  195.3550  176.0230  143.1500 C   0  0  0  0  0  1  0  0  0  0  0  0
  194.2390  176.2200  145.2980 N   0  0  0  0  0  2  0  0  0  0  0  0
  192.6950  173.8180  144.7960 C   0  0  2  0  0  3  0  0  0  0  0  0
  192.4040  174.7230  146.0040 C   0  0  2  0  0  3  0  0  0  0  0  0
  193.4120  174.5760  143.6820 C   0  0  0  0  0  2  0  0  0  0  0  0
  1  6  1  0  0  0  0
  2 13  2  0  0  0  0
  2  5  1  0  0  0  0
  3  2  1  0  0  0  0
  4  7  2  0  0  0  0
  5 16  2  0  0  0  0
  6 17  2  0  0  0  0
  7  3  1  0  0  0  0
  8 23  1  0  0  0  0
  8 12  2  0  0  0  0
  9  1  1  0  0  0  0
 10 18  1  0  0  0  0
 11  4  1  0  0  0  0
 13  8  1  0  0  0  0
 14  5  1  0  0  0  0
 14  1  2  0  0  0  0
 15 20  2  0  0  0  0
 15  4  1  0  0  0  0
 16 12  1  0  0  0  0
 16 17  1  0  0  0  0
 18 13  1  0  0  0  0
 19 10  1  0  0  0  0
 19  3  2  0  0  0  0
 20 19  1  0  0  0  0
 21 22  2  0  0  0  0
 22 23  1  0  0  0  0
 24 27  1  6  0  0  0
 24 28  1  0  0  0  0
 28 25  1  0  0  0  0
 29 26  1  6  0  0  0
 29 30  1  0  0  0  0
 30 22  1  6  0  0  0
 30 25  1  0  0  0  0
 31 24  1  0  0  0  0
 31 29  1  0  0  0  0
M  END
>  <MODEL>
1

>  <REMARK>
 VINA RESULT:      -9.4      0.000      0.000
  Name = 
  2 active torsions:
  status: ('A' for Active; 'I' for Inactive)
    1  A    between atoms: C_5  and  C_30
    2  A    between atoms: C_10  and  N_16
                            x       y       z     vdW  Elec       q    Type
                         _______ _______ _______ _____ _____    ______ ____

>  <TORSDO>
F 2

$$$$
=
 OpenBabel11112417023D

 31 35  0  0  1  0  0  0  0  0999 V2000
  185.0710  178.1960  146.8560 C   0  0  0  0  0  0  0  0  0  0  0  0
  186.5550  176.8550  143.6810 C   0  0  0  0  0  0  0  0  0  0  0  0
  185.6960  177.4240  142.5910 C   0  0  0  0  0  0  0  0  0  0  0  0
  183.5400  178.2060  141.7660 C   0  0  0  0  0  0  0  0  0  0  0  0
  186.3390  177.1400  145.0590 C   0  0  0  0  0  0  0  0  0  0  0  0
  185.9700  177.6960  147.7980 C   0  0  0  0  0  3  0  0  0  0  0  0
  184.3290  177.6800  142.7920 C   0  0  0  0  0  3  0  0  0  0  0  0
  188.6050  175.6410  144.2900 C   0  0  0  0  0  0  0  0  0  0  0  0
  184.0170  178.9450  147.2570 F   0  0  0  0  0  0  0  0  0  0  0  0
  187.6800  177.3640  141.0340 C   0  0  0  0  0  2  0  0  0  0  0  0
  182.1940  178.4600  141.9870 O   0  0  0  0  0  1  0  0  0  0  0  0
  188.3660  175.9240  145.6370 C   0  0  0  0  0  3  0  0  0  0  0  0
  187.6950  176.0900  143.3160 C   0  0  0  0  0  0  0  0  0  0  0  0
  185.2580  177.9230  145.4990 C   0  0  0  0  0  3  0  0  0  0  0  0
  184.1050  178.4760  140.5180 C   0  0  0  0  0  3  0  0  0  0  0  0
  187.2520  176.6560  146.0270 C   0  0  0  0  0  0  0  0  0  0  0  0
  187.0600  176.9310  147.3840 C   0  0  0  0  0  3  0  0  0  0  0  0
  187.9860  175.6640  141.5850 S   0  0  0  0  0  0  0  0  0  0  0  0
  186.2490  177.6820  141.3160 C   0  0  0  0  0  0  0  0  0  0  0  0
  185.4560  178.2110  140.2930 C   0  0  0  0  0  3  0  0  0  0  0  0
  191.3920  176.5610  143.9910 O   0  0  0  0  0  0  0  0  0  0  0  0
  191.1010  175.3580  143.7510 C   0  0  0  0  0  0  0  0  0  0  0  0
  189.7560  174.8820  143.8870 N   0  0  0  0  0  2  0  0  0  0  0  0
  194.5240  174.5070  144.9840 C   0  0  1  0  0  3  0  0  0  0  0  0
  192.5020  173.3850  144.4200 C   0  0  0  0  0  2  0  0  0  0  0  0
  193.1530  176.0960  141.9050 O   0  0  0  0  0  1  0  0  0  0  0  0
  195.3640  175.0420  146.1240 C   0  0  0  0  0  1  0  0  0  0  0  0
  193.2460  174.0260  145.5060 N   0  0  0  0  0  2  0  0  0  0  0  0
  193.4480  175.0760  142.8110 C   0  0  2  0  0  3  0  0  0  0  0  0
  192.1660  174.3930  143.3140 C   0  0  2  0  0  3  0  0  0  0  0  0
  194.2890  175.6170  143.9640 C   0  0  0  0  0  2  0  0  0  0  0  0
  1  9  1  0  0  0  0
  1  6  1  0  0  0  0
  2  5  1  0  0  0  0
  3  7  1  0  0  0  0
  3  2  1  0  0  0  0
  4 11  1  0  0  0  0
  4  7  2  0  0  0  0
  5 14  1  0  0  0  0
  5 16  2  0  0  0  0
  8 12  2  0  0  0  0
 10 19  1  0  0  0  0
 10 18  1  0  0  0  0
 12 16  1  0  0  0  0
 13  2  2  0  0  0  0
 13  8  1  0  0  0  0
 14  1  2  0  0  0  0
 15  4  1  0  0  0  0
 16 17  1  0  0  0  0
 17  6  2  0  0  0  0
 18 13  1  0  0  0  0
 19  3  2  0  0  0  0
 20 15  2  0  0  0  0
 20 19  1  0  0  0  0
 22 23  1  0  0  0  0
 22 21  2  0  0  0  0
 23  8  1  0  0  0  0
 24 28  1  0  0  0  0
 24 27  1  1  0  0  0
 25 28  1  0  0  0  0
 29 26  1  6  0  0  0
 29 30  1  0  0  0  0
 29 31  1  0  0  0  0
 30 22  1  1  0  0  0
 30 25  1  0  0  0  0
 31 24  1  0  0  0  0
M  END
>  <MODEL>
2

>  <REMARK>
 VINA RESULT:      -9.3      1.422      1.850
  Name = 
  2 active torsions:
  status: ('A' for Active; 'I' for Inactive)
    1  A    between atoms: C_5  and  C_30
    2  A    between atoms: C_10  and  N_16
                            x       y       z     vdW  Elec       q    Type
                         _______ _______ _______ _____ _____    ______ ____

>  <TORSDO>
F 2

$$$$
=
 OpenBabel11112417023D

 31 35  0  0  1  0  0  0  0  0999 V2000
  185.0790  178.1870  146.8350 C   0  0  0  0  0  0  0  0  0  0  0  0
  186.5880  176.9440  143.6320 C   0  0  0  0  0  0  0  0  0  0  0  0
  185.6960  177.4910  142.5560 C   0  0  0  0  0  0  0  0  0  0  0  0
  183.5030  178.1930  141.7580 C   0  0  0  0  0  0  0  0  0  0  0  0
  186.3720  177.2050  145.0150 C   0  0  0  0  0  0  0  0  0  0  0  0
  186.0040  177.7130  147.7630 C   0  0  0  0  0  3  0  0  0  0  0  0
  184.3220  177.6880  142.7710 C   0  0  0  0  0  3  0  0  0  0  0  0
  188.6900  175.8070  144.2100 C   0  0  0  0  0  0  0  0  0  0  0  0
  183.9980  178.8880  147.2530 F   0  0  0  0  0  0  0  0  0  0  0  0
  187.6670  177.5290  140.9820 C   0  0  0  0  0  2  0  0  0  0  0  0
  182.1500  178.3900  141.9940 O   0  0  0  0  0  1  0  0  0  0  0  0
  188.4520  176.0650  145.5610 C   0  0  0  0  0  3  0  0  0  0  0  0
  187.7540  176.2300  143.2490 C   0  0  0  0  0  0  0  0  0  0  0  0
  185.2640  177.9370  145.4730 C   0  0  0  0  0  3  0  0  0  0  0  0
  184.0450  178.5010  140.5090 C   0  0  0  0  0  3  0  0  0  0  0  0
  187.3120  176.7470  145.9700 C   0  0  0  0  0  0  0  0  0  0  0  0
  187.1220  176.9980  147.3320 C   0  0  0  0  0  3  0  0  0  0  0  0
  188.0470  175.8360  141.5100 S   0  0  0  0  0  0  0  0  0  0  0  0
  186.2280  177.7850  141.2790 C   0  0  0  0  0  0  0  0  0  0  0  0
  185.4050  178.2940  140.2700 C   0  0  0  0  0  3  0  0  0  0  0  0
  191.4470  176.8280  143.9580 O   0  0  0  0  0  0  0  0  0  0  0  0
  191.1960  175.6250  143.6760 C   0  0  0  0  0  0  0  0  0  0  0  0
  189.8670  175.1000  143.7870 N   0  0  0  0  0  2  0  0  0  0  0  0
  191.3190  172.1000  142.4410 C   0  0  1  0  0  3  0  0  0  0  0  0
  192.0780  174.2520  141.7660 C   0  0  0  0  0  2  0  0  0  0  0  0
  192.5690  173.8760  145.4700 O   0  0  0  0  0  1  0  0  0  0  0  0
  190.2500  171.0470  142.2410 C   0  0  0  0  0  1  0  0  0  0  0  0
  190.9710  173.2970  141.6790 N   0  0  0  0  0  2  0  0  0  0  0  0
  192.5090  173.4940  144.1280 C   0  0  2  0  0  3  0  0  0  0  0  0
  192.2940  174.7100  143.2140 C   0  0  2  0  0  3  0  0  0  0  0  0
  191.4260  172.4370  143.9260 C   0  0  0  0  0  2  0  0  0  0  0  0
  1  9  1  0  0  0  0
  1  6  1  0  0  0  0
  2  5  1  0  0  0  0
  3  7  1  0  0  0  0
  3  2  1  0  0  0  0
  4 11  1  0  0  0  0
  4  7  2  0  0  0  0
  5 14  1  0  0  0  0
  5 16  2  0  0  0  0
  8 12  2  0  0  0  0
 10 19  1  0  0  0  0
 10 18  1  0  0  0  0
 12 16  1  0  0  0  0
 13  2  2  0  0  0  0
 13  8  1  0  0  0  0
 14  1  2  0  0  0  0
 15  4  1  0  0  0  0
 16 17  1  0  0  0  0
 17  6  2  0  0  0  0
 18 13  1  0  0  0  0
 19  3  2  0  0  0  0
 20 15  2  0  0  0  0
 20 19  1  0  0  0  0
 22 23  1  0  0  0  0
 22 21  2  0  0  0  0
 23  8  1  0  0  0  0
 24 27  1  1  0  0  0
 24 31  1  0  0  0  0
 25 30  1  0  0  0  0
 28 25  1  0  0  0  0
 28 24  1  0  0  0  0
 29 26  1  1  0  0  0
 30 22  1  1  0  0  0
 30 29  1  0  0  0  0
 31 29  1  0  0  0  0
M  END
>  <MODEL>
3

>  <REMARK>
 VINA RESULT:      -9.1      1.802      2.565
  Name = 
  2 active torsions:
  status: ('A' for Active; 'I' for Inactive)
    1  A    between atoms: C_5  and  C_30
    2  A    between atoms: C_10  and  N_16
                            x       y       z     vdW  Elec       q    Type
                         _______ _______ _______ _____ _____    ______ ____

>  <TORSDO>
F 2

$$$$
=
 OpenBabel11112417023D

 31 35  0  0  1  0  0  0  0  0999 V2000
  185.1930  177.8600  141.2420 C   0  0  0  0  0  0  0  0  0  0  0  0
  187.5060  177.6950  144.1910 C   0  0  0  0  0  0  0  0  0  0  0  0
  186.5980  177.6990  145.3860 C   0  0  0  0  0  0  0  0  0  0  0  0
  184.5330  178.3740  146.4910 C   0  0  0  0  0  0  0  0  0  0  0  0
  187.0170  177.7280  142.8550 C   0  0  0  0  0  0  0  0  0  0  0  0
  186.1010  177.7650  140.1890 C   0  0  0  0  0  3  0  0  0  0  0  0
  185.3660  178.3750  145.3700 C   0  0  0  0  0  3  0  0  0  0  0  0
  189.7840  177.4020  143.3150 C   0  0  0  0  0  0  0  0  0  0  0  0
  183.8680  177.9760  140.9840 F   0  0  0  0  0  0  0  0  0  0  0  0
  188.3180  176.3680  146.6640 C   0  0  0  0  0  2  0  0  0  0  0  0
  183.3160  179.0410  146.4510 O   0  0  0  0  0  1  0  0  0  0  0  0
  189.2840  177.4490  142.0130 C   0  0  0  0  0  3  0  0  0  0  0  0
  188.9020  177.5410  144.4020 C   0  0  0  0  0  0  0  0  0  0  0  0
  185.6470  177.8380  142.5620 C   0  0  0  0  0  3  0  0  0  0  0  0
  184.9230  177.7030  147.6510 C   0  0  0  0  0  3  0  0  0  0  0  0
  187.9250  177.6140  141.7740 C   0  0  0  0  0  0  0  0  0  0  0  0
  187.4650  177.6380  140.4540 C   0  0  0  0  0  3  0  0  0  0  0  0
  189.5730  177.5390  146.0790 S   0  0  0  0  0  0  0  0  0  0  0  0
  186.9900  177.0420  146.5750 C   0  0  0  0  0  0  0  0  0  0  0  0
  186.1510  177.0420  147.6940 C   0  0  0  0  0  3  0  0  0  0  0  0
  191.2540  174.9130  143.9080 O   0  0  0  0  0  0  0  0  0  0  0  0
  191.8750  176.0080  143.8480 C   0  0  0  0  0  0  0  0  0  0  0  0
  191.1890  177.2340  143.5630 N   0  0  0  0  0  2  0  0  0  0  0  0
  194.4220  173.5130  144.9700 C   0  0  1  0  0  3  0  0  0  0  0  0
  194.0970  175.0480  143.1800 C   0  0  0  0  0  2  0  0  0  0  0  0
  193.0020  176.6510  146.3930 O   0  0  0  0  0  1  0  0  0  0  0  0
  194.3180  172.0620  145.3880 C   0  0  0  0  0  1  0  0  0  0  0  0
  193.8650  173.6730  143.6280 N   0  0  0  0  0  2  0  0  0  0  0  0
  193.7640  175.8460  145.5440 C   0  0  2  0  0  3  0  0  0  0  0  0
  193.3590  176.0500  144.0750 C   0  0  2  0  0  3  0  0  0  0  0  0
  193.6540  174.3820  145.9620 C   0  0  0  0  0  2  0  0  0  0  0  0
  1 14  1  0  0  0  0
  2 13  2  0  0  0  0
  2  3  1  0  0  0  0
  3 19  1  0  0  0  0
  4 15  2  0  0  0  0
  5  2  1  0  0  0  0
  6 17  1  0  0  0  0
  6  1  2  0  0  0  0
  7  3  2  0  0  0  0
  7  4  1  0  0  0  0
  8 23  1  0  0  0  0
  8 13  1  0  0  0  0
  9  1  1  0  0  0  0
 11  4  1  0  0  0  0
 12  8  2  0  0  0  0
 13 18  1  0  0  0  0
 14  5  2  0  0  0  0
 15 20  1  0  0  0  0
 16 12  1  0  0  0  0
 16  5  1  0  0  0  0
 17 16  2  0  0  0  0
 18 10  1  0  0  0  0
 19 10  1  0  0  0  0
 19 20  2  0  0  0  0
 22 21  2  0  0  0  0
 23 22  1  0  0  0  0
 24 27  1  1  0  0  0
 24 31  1  0  0  0  0
 25 28  1  0  0  0  0
 25 30  1  0  0  0  0
 28 24  1  0  0  0  0
 29 31  1  0  0  0  0
 29 26  1  1  0  0  0
 30 22  1  1  0  0  0
 30 29  1  0  0  0  0
M  END
>  <MODEL>
4

>  <REMARK>
 VINA RESULT:      -8.6      2.051      4.399
  Name = 
  2 active torsions:
  status: ('A' for Active; 'I' for Inactive)
    1  A    between atoms: C_5  and  C_30
    2  A    between atoms: C_10  and  N_16
                            x       y       z     vdW  Elec       q    Type
                         _______ _______ _______ _____ _____    ______ ____

>  <TORSDO>
F 2

$$$$
=
 OpenBabel11112417023D

 31 35  0  0  1  0  0  0  0  0999 V2000
  190.4570  177.3270  147.6340 C   0  0  0  0  0  0  0  0  0  0  0  0
  188.7560  176.4270  144.4140 C   0  0  0  0  0  0  0  0  0  0  0  0
  187.6470  177.4280  144.2780 C   0  0  0  0  0  0  0  0  0  0  0  0
  185.9650  178.8920  145.2630 C   0  0  0  0  0  0  0  0  0  0  0  0
  189.6670  176.4320  145.5070 C   0  0  0  0  0  0  0  0  0  0  0  0
  191.5130  176.4150  147.6380 C   0  0  0  0  0  3  0  0  0  0  0  0
  187.0000  177.9640  145.4040 C   0  0  0  0  0  3  0  0  0  0  0  0
  190.0730  174.6330  143.3690 C   0  0  0  0  0  0  0  0  0  0  0  0
  190.3150  178.2030  148.6570 F   0  0  0  0  0  0  0  0  0  0  0  0
  187.8160  177.2350  141.7680 C   0  0  0  0  0  2  0  0  0  0  0  0
  185.3450  179.4160  146.3880 O   0  0  0  0  0  1  0  0  0  0  0  0
  190.9480  174.6480  144.4580 C   0  0  0  0  0  3  0  0  0  0  0  0
  188.9710  175.5070  143.3530 C   0  0  0  0  0  0  0  0  0  0  0  0
  189.5460  177.3360  146.5760 C   0  0  0  0  0  3  0  0  0  0  0  0
  185.5550  179.2930  143.9900 C   0  0  0  0  0  3  0  0  0  0  0  0
  190.7540  175.5250  145.5180 C   0  0  0  0  0  0  0  0  0  0  0  0
  191.6640  175.5190  146.5800 C   0  0  0  0  0  3  0  0  0  0  0  0
  187.8160  175.4320  141.9660 S   0  0  0  0  0  0  0  0  0  0  0  0
  187.2060  177.8260  142.9950 C   0  0  0  0  0  0  0  0  0  0  0  0
  186.1720  178.7570  142.8590 C   0  0  0  0  0  3  0  0  0  0  0  0
  189.0060  171.9020  143.0390 O   0  0  0  0  0  0  0  0  0  0  0  0
  189.7370  172.4000  142.1430 C   0  0  0  0  0  0  0  0  0  0  0  0
  190.2720  173.7240  142.2740 N   0  0  0  0  0  2  0  0  0  0  0  0
  191.9010  172.9980  139.1550 C   0  0  1  0  0  3  0  0  0  0  0  0
  191.5680  171.3180  140.8070 C   0  0  0  0  0  2  0  0  0  0  0  0
  188.2340  172.6660  139.7280 O   0  0  0  0  0  1  0  0  0  0  0  0
  192.7700  174.1660  138.7370 C   0  0  0  0  0  1  0  0  0  0  0  0
  192.3180  172.5310  140.4760 N   0  0  0  0  0  2  0  0  0  0  0  0
  189.5660  172.2620  139.6080 C   0  0  2  0  0  3  0  0  0  0  0  0
  190.0660  171.6110  140.9070 C   0  0  2  0  0  3  0  0  0  0  0  0
  190.4410  173.4410  139.1930 C   0  0  0  0  0  2  0  0  0  0  0  0
  1  6  1  0  0  0  0
  1  9  1  0  0  0  0
  2  5  1  0  0  0  0
  3  2  1  0  0  0  0
  3  7  1  0  0  0  0
  4  7  2  0  0  0  0
  4 11  1  0  0  0  0
  5 16  2  0  0  0  0
  5 14  1  0  0  0  0
  8 12  2  0  0  0  0
 10 18  1  0  0  0  0
 10 19  1  0  0  0  0
 12 16  1  0  0  0  0
 13  8  1  0  0  0  0
 13  2  2  0  0  0  0
 14  1  2  0  0  0  0
 15  4  1  0  0  0  0
 16 17  1  0  0  0  0
 17  6  2  0  0  0  0
 18 13  1  0  0  0  0
 19  3  2  0  0  0  0
 20 19  1  0  0  0  0
 20 15  2  0  0  0  0
 22 23  1  0  0  0  0
 22 21  2  0  0  0  0
 23  8  1  0  0  0  0
 24 27  1  1  0  0  0
 24 31  1  0  0  0  0
 24 28  1  0  0  0  0
 25 30  1  0  0  0  0
 28 25  1  0  0  0  0
 29 26  1  1  0  0  0
 29 30  1  0  0  0  0
 30 22  1  1  0  0  0
 31 29  1  0  0  0  0
M  END
>  <MODEL>
5

>  <REMARK>
 VINA RESULT:      -8.6      3.603      4.923
  Name = 
  2 active torsions:
  status: ('A' for Active; 'I' for Inactive)
    1  A    between atoms: C_5  and  C_30
    2  A    between atoms: C_10  and  N_16
                            x       y       z     vdW  Elec       q    Type
                         _______ _______ _______ _____ _____    ______ ____

>  <TORSDO>
F 2

$$$$
=
 OpenBabel11112417023D

 31 35  0  0  1  0  0  0  0  0999 V2000
  194.5000  175.5470  145.2840 C   0  0  0  0  0  0  0  0  0  0  0  0
  191.0440  175.5930  143.8240 C   0  0  0  0  0  0  0  0  0  0  0  0
  191.1690  174.8430  142.5310 C   0  0  0  0  0  0  0  0  0  0  0  0
  192.4570  174.1660  140.5750 C   0  0  0  0  0  0  0  0  0  0  0  0
  192.1420  175.7890  144.7080 C   0  0  0  0  0  0  0  0  0  0  0  0
  194.2780  176.1790  146.5070 C   0  0  0  0  0  3  0  0  0  0  0  0
  192.3570  174.8650  141.7810 C   0  0  0  0  0  3  0  0  0  0  0  0
  189.5620  176.6240  145.4920 C   0  0  0  0  0  0  0  0  0  0  0  0
  195.7440  175.1230  144.9580 F   0  0  0  0  0  0  0  0  0  0  0  0
  188.7610  174.1220  142.7480 C   0  0  0  0  0  2  0  0  0  0  0  0
  193.6420  174.1930  139.8540 O   0  0  0  0  0  1  0  0  0  0  0  0
  190.6550  176.8160  146.3390 C   0  0  0  0  0  3  0  0  0  0  0  0
  189.7560  176.0310  144.2320 C   0  0  0  0  0  0  0  0  0  0  0  0
  193.4400  175.3500  144.3960 C   0  0  0  0  0  3  0  0  0  0  0  0
  191.3660  173.4390  140.0960 C   0  0  0  0  0  3  0  0  0  0  0  0
  191.9310  176.4130  145.9610 C   0  0  0  0  0  0  0  0  0  0  0  0
  192.9950  176.6090  146.8470 C   0  0  0  0  0  3  0  0  0  0  0  0
  188.3410  175.8460  143.1250 S   0  0  0  0  0  0  0  0  0  0  0  0
  190.0650  174.1210  142.0220 C   0  0  0  0  0  0  0  0  0  0  0  0
  190.1710  173.4200  140.8170 C   0  0  0  0  0  3  0  0  0  0  0  0
  187.8360  175.5070  147.6090 O   0  0  0  0  0  0  0  0  0  0  0  0
  187.4290  176.4780  146.9170 C   0  0  0  0  0  0  0  0  0  0  0  0
  188.2430  177.0420  145.8810 N   0  0  0  0  0  2  0  0  0  0  0  0
  185.2940  178.9750  145.1350 C   0  0  1  0  0  3  0  0  0  0  0  0
  185.1040  176.7720  146.0130 C   0  0  0  0  0  2  0  0  0  0  0  0
  187.0730  178.8880  148.4090 O   0  0  0  0  0  1  0  0  0  0  0  0
  185.5060  179.7910  143.8770 C   0  0  0  0  0  1  0  0  0  0  0  0
  185.4480  177.5550  144.8250 N   0  0  0  0  0  2  0  0  0  0  0  0
  186.0980  178.5770  147.4590 C   0  0  2  0  0  3  0  0  0  0  0  0
  186.0700  177.0690  147.1660 C   0  0  2  0  0  3  0  0  0  0  0  0
  186.3160  179.3950  146.1890 C   0  0  0  0  0  2  0  0  0  0  0  0
  1  6  1  0  0  0  0
  2 13  2  0  0  0  0
  2  5  1  0  0  0  0
  3  2  1  0  0  0  0
  4  7  1  0  0  0  0
  5 16  2  0  0  0  0
  6 17  2  0  0  0  0
  7  3  2  0  0  0  0
  8 23  1  0  0  0  0
  8 12  2  0  0  0  0
  9  1  1  0  0  0  0
 10 18  1  0  0  0  0
 11  4  1  0  0  0  0
 13  8  1  0  0  0  0
 14  5  1  0  0  0  0
 14  1  2  0  0  0  0
 15  4  2  0  0  0  0
 15 20  1  0  0  0  0
 16 12  1  0  0  0  0
 16 17  1  0  0  0  0
 18 13  1  0  0  0  0
 19  3  1  0  0  0  0
 19 10  1  0  0  0  0
 20 19  2  0  0  0  0
 22 21  2  0  0  0  0
 23 22  1  0  0  0  0
 24 27  1  6  0  0  0
 24 31  1  0  0  0  0
 25 30  1  0  0  0  0
 28 24  1  0  0  0  0
 28 25  1  0  0  0  0
 29 26  1  1  0  0  0
 30 22  1  6  0  0  0
 30 29  1  0  0  0  0
 31 29  1  0  0  0  0
M  END
>  <MODEL>
6

>  <REMARK>
 VINA RESULT:      -8.3      3.824      7.288
  Name = 
  2 active torsions:
  status: ('A' for Active; 'I' for Inactive)
    1  A    between atoms: C_5  and  C_30
    2  A    between atoms: C_10  and  N_16
                            x       y       z     vdW  Elec       q    Type
                         _______ _______ _______ _____ _____    ______ ____

>  <TORSDO>
F 2

$$$$
=
 OpenBabel11112417023D

 31 35  0  0  1  0  0  0  0  0999 V2000
  191.1990  176.3960  147.4980 C   0  0  0  0  0  0  0  0  0  0  0  0
  188.7880  176.5600  144.6280 C   0  0  0  0  0  0  0  0  0  0  0  0
  187.6300  177.3570  145.1510 C   0  0  0  0  0  0  0  0  0  0  0  0
  186.1770  178.0590  146.9780 C   0  0  0  0  0  0  0  0  0  0  0  0
  189.9440  176.2810  145.4090 C   0  0  0  0  0  0  0  0  0  0  0  0
  192.2680  175.7240  146.9060 C   0  0  0  0  0  3  0  0  0  0  0  0
  187.2610  177.3150  146.5060 C   0  0  0  0  0  3  0  0  0  0  0  0
  189.8910  175.5260  142.6890 C   0  0  0  0  0  0  0  0  0  0  0  0
  191.2750  176.7790  148.7950 F   0  0  0  0  0  0  0  0  0  0  0  0
  187.1680  178.1720  142.8080 C   0  0  0  0  0  2  0  0  0  0  0  0
  185.8360  178.0100  148.3220 O   0  0  0  0  0  1  0  0  0  0  0  0
  191.0100  175.2530  143.4780 C   0  0  0  0  0  3  0  0  0  0  0  0
  188.7770  176.1630  143.2640 C   0  0  0  0  0  0  0  0  0  0  0  0
  190.0510  176.6750  146.7540 C   0  0  0  0  0  3  0  0  0  0  0  0
  185.4380  178.8520  146.0990 C   0  0  0  0  0  3  0  0  0  0  0  0
  191.0460  175.6150  144.8190 C   0  0  0  0  0  0  0  0  0  0  0  0
  192.1930  175.3370  145.5680 C   0  0  0  0  0  3  0  0  0  0  0  0
  187.3140  176.4550  142.2450 S   0  0  0  0  0  0  0  0  0  0  0  0
  186.8580  178.1470  144.2680 C   0  0  0  0  0  0  0  0  0  0  0  0
  185.7760  178.8920  144.7460 C   0  0  0  0  0  3  0  0  0  0  0  0
  189.8690  172.8140  141.5280 O   0  0  0  0  0  0  0  0  0  0  0  0
  189.8430  173.8200  140.7690 C   0  0  0  0  0  0  0  0  0  0  0  0
  189.8540  175.1500  141.3030 N   0  0  0  0  0  2  0  0  0  0  0  0
  190.1350  170.8870  138.4720 C   0  0  1  0  0  3  0  0  0  0  0  0
  188.6580  172.7130  138.8510 C   0  0  0  0  0  2  0  0  0  0  0  0
  192.2030  173.9090  139.1610 O   0  0  0  0  0  1  0  0  0  0  0  0
  190.3650  169.4110  138.7200 C   0  0  0  0  0  1  0  0  0  0  0  0
  188.9510  171.3240  139.2090 N   0  0  0  0  0  2  0  0  0  0  0  0
  191.1290  173.1610  138.6750 C   0  0  2  0  0  3  0  0  0  0  0  0
  189.8000  173.6430  139.2780 C   0  0  2  0  0  3  0  0  0  0  0  0
  191.3590  171.6750  138.9310 C   0  0  0  0  0  2  0  0  0  0  0  0
  1  9  1  0  0  0  0
  2  3  1  0  0  0  0
  2  5  1  0  0  0  0
  3  7  1  0  0  0  0
  4 11  1  0  0  0  0
  5 14  1  0  0  0  0
  6  1  1  0  0  0  0
  7  4  2  0  0  0  0
  8 13  1  0  0  0  0
  8 12  2  0  0  0  0
 10 19  1  0  0  0  0
 12 16  1  0  0  0  0
 13  2  2  0  0  0  0
 14  1  2  0  0  0  0
 15  4  1  0  0  0  0
 16  5  2  0  0  0  0
 16 17  1  0  0  0  0
 17  6  2  0  0  0  0
 18 10  1  0  0  0  0
 18 13  1  0  0  0  0
 19 20  1  0  0  0  0
 19  3  2  0  0  0  0
 20 15  2  0  0  0  0
 22 23  1  0  0  0  0
 22 21  2  0  0  0  0
 23  8  1  0  0  0  0
 24 27  1  1  0  0  0
 24 31  1  0  0  0  0
 24 28  1  0  0  0  0
 25 28  1  0  0  0  0
 25 30  1  0  0  0  0
 29 31  1  0  0  0  0
 29 26  1  1  0  0  0
 29 30  1  0  0  0  0
 30 22  1  1  0  0  0
M  END
>  <MODEL>
7

>  <REMARK>
 VINA RESULT:      -8.2      4.067      6.025
  Name = 
  2 active torsions:
  status: ('A' for Active; 'I' for Inactive)
    1  A    between atoms: C_5  and  C_30
    2  A    between atoms: C_10  and  N_16
                            x       y       z     vdW  Elec       q    Type
                         _______ _______ _______ _____ _____    ______ ____

>  <TORSDO>
F 2

$$$$
=
 OpenBabel11112417023D

 31 35  0  0  1  0  0  0  0  0999 V2000
  185.9710  179.0380  144.3880 C   0  0  0  0  0  0  0  0  0  0  0  0
  188.5480  176.3650  143.8430 C   0  0  0  0  0  0  0  0  0  0  0  0
  189.2420  176.2330  145.1670 C   0  0  0  0  0  0  0  0  0  0  0  0
  190.0490  177.1940  147.2560 C   0  0  0  0  0  0  0  0  0  0  0  0
  187.4730  177.2730  143.6270 C   0  0  0  0  0  0  0  0  0  0  0  0
  185.3240  179.0350  143.1530 C   0  0  0  0  0  3  0  0  0  0  0  0
  189.3970  177.3310  146.0280 C   0  0  0  0  0  3  0  0  0  0  0  0
  188.2000  175.4670  141.5810 C   0  0  0  0  0  0  0  0  0  0  0  0
  185.5700  179.8910  145.3610 F   0  0  0  0  0  0  0  0  0  0  0  0
  189.7110  173.8090  144.6470 C   0  0  0  0  0  2  0  0  0  0  0  0
  190.1830  178.2910  148.0960 O   0  0  0  0  0  1  0  0  0  0  0  0
  187.1560  176.3740  141.3870 C   0  0  0  0  0  3  0  0  0  0  0  0
  188.9050  175.4720  142.7980 C   0  0  0  0  0  0  0  0  0  0  0  0
  187.0330  178.1620  144.6230 C   0  0  0  0  0  3  0  0  0  0  0  0
  190.5670  175.9560  147.6380 C   0  0  0  0  0  3  0  0  0  0  0  0
  186.7930  177.2720  142.3840 C   0  0  0  0  0  0  0  0  0  0  0  0
  185.7320  178.1510  142.1540 C   0  0  0  0  0  3  0  0  0  0  0  0
  190.2910  174.3340  143.0110 S   0  0  0  0  0  0  0  0  0  0  0  0
  189.7900  174.9890  145.5570 C   0  0  0  0  0  0  0  0  0  0  0  0
  190.4400  174.8560  146.7870 C   0  0  0  0  0  3  0  0  0  0  0  0
  187.4440  172.6280  141.3030 O   0  0  0  0  0  0  0  0  0  0  0  0
  188.1910  173.1650  140.4420 C   0  0  0  0  0  0  0  0  0  0  0  0
  188.5770  174.5410  140.5500 N   0  0  0  0  0  2  0  0  0  0  0  0
  191.4090  173.0550  138.5430 C   0  0  1  0  0  3  0  0  0  0  0  0
  189.9370  171.5440  139.6470 C   0  0  0  0  0  2  0  0  0  0  0  0
  187.9130  174.0720  137.7470 O   0  0  0  0  0  1  0  0  0  0  0  0
  192.6980  173.8370  138.6690 C   0  0  0  0  0  1  0  0  0  0  0  0
  191.1060  172.4090  139.8190 N   0  0  0  0  0  2  0  0  0  0  0  0
  188.9780  173.2120  138.0230 C   0  0  2  0  0  3  0  0  0  0  0  0
  188.6970  172.3650  139.2750 C   0  0  2  0  0  3  0  0  0  0  0  0
  190.2770  174.0020  138.1560 C   0  0  0  0  0  2  0  0  0  0  0  0
  1 14  1  0  0  0  0
  1  9  1  0  0  0  0
  2  3  1  0  0  0  0
  3 19  2  0  0  0  0
  3  7  1  0  0  0  0
  4 15  1  0  0  0  0
  4 11  1  0  0  0  0
  5  2  1  0  0  0  0
  5 14  2  0  0  0  0
  6  1  2  0  0  0  0
  7  4  2  0  0  0  0
  8 13  1  0  0  0  0
 10 19  1  0  0  0  0
 12  8  2  0  0  0  0
 12 16  1  0  0  0  0
 13 18  1  0  0  0  0
 13  2  2  0  0  0  0
 16  5  1  0  0  0  0
 17 16  2  0  0  0  0
 17  6  1  0  0  0  0
 18 10  1  0  0  0  0
 19 20  1  0  0  0  0
 20 15  2  0  0  0  0
 22 23  1  0  0  0  0
 22 21  2  0  0  0  0
 23  8  1  0  0  0  0
 24 27  1  1  0  0  0
 24 28  1  0  0  0  0
 25 28  1  0  0  0  0
 29 26  1  1  0  0  0
 29 31  1  0  0  0  0
 29 30  1  0  0  0  0
 30 25  1  0  0  0  0
 30 22  1  1  0  0  0
 31 24  1  0  0  0  0
M  END
>  <MODEL>
8

>  <REMARK>
 VINA RESULT:      -8.1      3.612      5.935
  Name = 
  2 active torsions:
  status: ('A' for Active; 'I' for Inactive)
    1  A    between atoms: C_5  and  C_30
    2  A    between atoms: C_10  and  N_16
                            x       y       z     vdW  Elec       q    Type
                         _______ _______ _______ _____ _____    ______ ____

>  <TORSDO>
F 2

$$$$
=
 OpenBabel11112417023D

 31 35  0  0  1  0  0  0  0  0999 V2000
  185.4350  177.8320  141.3170 C   0  0  0  0  0  0  0  0  0  0  0  0
  187.7140  177.1970  144.2290 C   0  0  0  0  0  0  0  0  0  0  0  0
  186.8490  177.4010  145.4390 C   0  0  0  0  0  0  0  0  0  0  0  0
  184.9960  178.5060  146.5720 C   0  0  0  0  0  0  0  0  0  0  0  0
  187.2190  177.3250  142.9010 C   0  0  0  0  0  0  0  0  0  0  0  0
  186.2830  177.5400  140.2500 C   0  0  0  0  0  3  0  0  0  0  0  0
  185.7900  178.3230  145.4370 C   0  0  0  0  0  3  0  0  0  0  0  0
  189.8620  176.4220  143.3190 C   0  0  0  0  0  0  0  0  0  0  0  0
  184.1600  178.2250  141.0810 F   0  0  0  0  0  0  0  0  0  0  0  0
  188.2710  175.7430  146.7010 C   0  0  0  0  0  2  0  0  0  0  0  0
  183.9480  179.4160  146.5460 O   0  0  0  0  0  1  0  0  0  0  0  0
  189.3590  176.5660  142.0240 C   0  0  0  0  0  3  0  0  0  0  0  0
  189.0490  176.7520  144.4180 C   0  0  0  0  0  0  0  0  0  0  0  0
  185.8980  177.7220  142.6300 C   0  0  0  0  0  3  0  0  0  0  0  0
  185.2560  177.7750  147.7320 C   0  0  0  0  0  3  0  0  0  0  0  0
  188.0620  177.0140  141.8060 C   0  0  0  0  0  0  0  0  0  0  0  0
  187.5940  177.1280  140.4940 C   0  0  0  0  0  3  0  0  0  0  0  0
  189.7350  176.6180  146.0840 S   0  0  0  0  0  0  0  0  0  0  0  0
  187.1150  176.6840  146.6280 C   0  0  0  0  0  0  0  0  0  0  0  0
  186.3160  176.8680  147.7600 C   0  0  0  0  0  3  0  0  0  0  0  0
  190.8560  173.6450  143.3860 O   0  0  0  0  0  0  0  0  0  0  0  0
  191.6560  174.6010  143.5710 C   0  0  0  0  0  0  0  0  0  0  0  0
  191.2040  175.9610  143.5440 N   0  0  0  0  0  2  0  0  0  0  0  0
  194.2260  176.0510  145.8640 C   0  0  1  0  0  3  0  0  0  0  0  0
  193.3670  173.9110  145.2750 C   0  0  0  0  0  2  0  0  0  0  0  0
  193.7210  175.9950  142.1720 O   0  0  0  0  0  1  0  0  0  0  0  0
  194.1720  177.1660  146.8870 C   0  0  0  0  0  1  0  0  0  0  0  0
  193.2120  175.0480  146.1850 N   0  0  0  0  0  2  0  0  0  0  0  0
  194.0310  175.5040  143.4420 C   0  0  2  0  0  3  0  0  0  0  0  0
  193.1130  174.3320  143.8230 C   0  0  2  0  0  3  0  0  0  0  0  0
  193.9700  176.6270  144.4740 C   0  0  0  0  0  2  0  0  0  0  0  0
  1 14  1  0  0  0  0
  2 13  2  0  0  0  0
  2  3  1  0  0  0  0
  3 19  1  0  0  0  0
  4 15  2  0  0  0  0
  5  2  1  0  0  0  0
  6 17  1  0  0  0  0
  6  1  2  0  0  0  0
  7  3  2  0  0  0  0
  7  4  1  0  0  0  0
  8 23  1  0  0  0  0
  8 13  1  0  0  0  0
  9  1  1  0  0  0  0
 11  4  1  0  0  0  0
 12  8  2  0  0  0  0
 13 18  1  0  0  0  0
 14  5  2  0  0  0  0
 15 20  1  0  0  0  0
 16 12  1  0  0  0  0
 16  5  1  0  0  0  0
 17 16  2  0  0  0  0
 18 10  1  0  0  0  0
 19 10  1  0  0  0  0
 19 20  2  0  0  0  0
 21 22  2  0  0  0  0
 23 22  1  0  0  0  0
 24 28  1  0  0  0  0
 24 27  1  1  0  0  0
 25 28  1  0  0  0  0
 29 26  1  6  0  0  0
 29 30  1  0  0  0  0
 29 31  1  0  0  0  0
 30 22  1  1  0  0  0
 30 25  1  0  0  0  0
 31 24  1  0  0  0  0
M  END
>  <MODEL>
9

>  <REMARK>
 VINA RESULT:      -8.0      2.011      4.344
  Name = 
  2 active torsions:
  status: ('A' for Active; 'I' for Inactive)
    1  A    between atoms: C_5  and  C_30
    2  A    between atoms: C_10  and  N_16
                            x       y       z     vdW  Elec       q    Type
                         _______ _______ _______ _____ _____    ______ ____

>  <TORSDO>
F 2

$$$$
