=
 OpenBabel11112416133D

 30 35  0  0  1  0  0  0  0  0999 V2000
  187.1080  177.0940  144.0090 C   0  0  1  0  0  3  0  0  0  0  0  0
  185.2060  178.2220  145.2980 C   0  0  0  0  0  0  0  0  0  0  0  0
  189.5750  177.2590  147.5750 C   0  0  0  0  0  2  0  0  0  0  0  0
  188.4080  176.2810  144.2140 C   0  0  1  0  0  3  0  0  0  0  0  0
  186.2140  176.3470  143.2180 O   0  0  0  0  0  0  0  0  0  0  0  0
  188.5700  175.5140  140.6540 O   0  0  0  0  0  0  0  0  0  0  0  0
  191.4280  176.5090  143.0660 C   0  0  1  0  0  3  0  0  0  0  0  0
  188.1360  175.9220  141.7650 C   0  0  0  0  0  0  0  0  0  0  0  0
  191.7440  176.7720  144.5370 C   0  0  2  0  0  3  0  0  0  0  0  0
  190.7950  176.7900  146.8700 C   0  0  0  0  0  0  0  0  0  0  0  0
  186.6910  176.3520  141.8820 C   0  0  2  0  0  3  0  0  0  0  0  0
  189.0110  176.0090  142.9060 N   0  0  0  0  0  0  0  0  0  0  0  0
  184.7030  178.7820  146.4750 C   0  0  0  0  0  3  0  0  0  0  0  0
  192.9150  175.8660  144.8570 C   0  0  0  0  0  2  0  0  0  0  0  0
  192.7430  176.0740  142.4380 C   0  0  0  0  0  2  0  0  0  0  0  0
  184.4410  178.2830  144.1410 O   0  0  0  0  0  1  0  0  0  0  0  0
  188.5530  176.9490  146.5100 C   0  0  2  0  0  3  0  0  0  0  0  0
  185.4720  178.7520  147.6380 C   0  0  0  0  0  3  0  0  0  0  0  0
  186.4740  177.6160  145.2970 C   0  0  0  0  0  0  0  0  0  0  0  0
  189.2760  177.0800  145.1840 C   0  0  1  0  0  3  0  0  0  0  0  0
  191.9010  176.6440  147.4550 O   0  0  0  0  0  0  0  0  0  0  0  0
  190.6190  176.5830  145.4620 N   0  0  0  0  0  0  0  0  0  0  0  0
  193.7150  175.7960  143.5740 C   0  0  0  0  0  2  0  0  0  0  0  0
  190.5060  174.1430  143.5590 C   0  0  0  0  0  1  0  0  0  0  0  0
  186.7090  178.1900  147.6250 N   0  0  0  0  0  0  0  0  0  0  0  0
  187.2360  177.6570  146.4890 C   0  0  0  0  0  0  0  0  0  0  0  0
  190.3560  175.4520  142.7870 C   0  0  2  0  0  3  0  0  0  0  0  0
  186.4580  177.6960  141.1990 C   0  0  0  0  0  2  0  0  0  0  0  0
  184.4490  178.2910  140.5130 C   0  0  0  0  0  1  0  0  0  0  0  0
  185.5630  177.5410  140.1410 O   0  0  0  0  0  0  0  0  0  0  0  0
  1  5  1  1  0  0  0
  1  4  1  0  0  0  0
  1 19  1  0  0  0  0
  2 13  1  0  0  0  0
  4 12  1  6  0  0  0
  4 20  1  0  0  0  0
  6  8  2  0  0  0  0
  7 15  1  6  0  0  0
  7  9  1  0  0  0  0
  8 11  1  0  0  0  0
  8 12  1  0  0  0  0
  9 14  1  1  0  0  0
  9 22  1  0  0  0  0
 10 21  2  0  0  0  0
 10  3  1  0  0  0  0
 11 28  1  1  0  0  0
 11  5  1  0  0  0  0
 13 18  2  0  0  0  0
 15 23  1  0  0  0  0
 16  2  1  0  0  0  0
 17  3  1  1  0  0  0
 19  2  2  0  0  0  0
 19 26  1  0  0  0  0
 20 22  1  1  0  0  0
 20 17  1  0  0  0  0
 22 10  1  0  0  0  0
 23 14  1  0  0  0  0
 25 18  1  0  0  0  0
 26 17  1  0  0  0  0
 26 25  2  0  0  0  0
 27 12  1  0  0  0  0
 27  7  1  0  0  0  0
 27 24  1  1  0  0  0
 30 29  1  0  0  0  0
 30 28  1  0  0  0  0
M  END
>  <MODEL>
1

>  <REMARK>
 VINA RESULT:      -8.4      0.000      0.000
  Name = 
  2 active torsions:
  status: ('A' for Active; 'I' for Inactive)
    1  A    between atoms: C_11  and  C_28
    2  A    between atoms: C_28  and  O_30
                            x       y       z     vdW  Elec       q    Type
                         _______ _______ _______ _____ _____    ______ ____

>  <TORSDO>
F 2

$$$$
=
 OpenBabel11112416133D

 30 35  0  0  1  0  0  0  0  0999 V2000
  187.0720  176.8700  143.8650 C   0  0  1  0  0  3  0  0  0  0  0  0
  185.1680  178.2310  142.8300 C   0  0  0  0  0  0  0  0  0  0  0  0
  187.9860  175.2380  139.9500 C   0  0  0  0  0  2  0  0  0  0  0  0
  188.3880  176.1410  143.5050 C   0  0  1  0  0  3  0  0  0  0  0  0
  187.3400  177.8600  144.8300 O   0  0  0  0  0  0  0  0  0  0  0  0
  189.2190  175.7540  147.0330 O   0  0  0  0  0  0  0  0  0  0  0  0
  189.6010  173.2070  144.1450 C   0  0  1  0  0  3  0  0  0  0  0  0
  188.6340  176.1330  145.9830 C   0  0  0  0  0  0  0  0  0  0  0  0
  189.4820  173.0560  142.6290 C   0  0  2  0  0  3  0  0  0  0  0  0
  188.9790  174.2680  140.4790 C   0  0  0  0  0  0  0  0  0  0  0  0
  187.5840  177.2170  146.0710 C   0  0  2  0  0  3  0  0  0  0  0  0
  188.9350  175.5190  144.7140 N   0  0  0  0  0  0  0  0  0  0  0  0
  184.4140  178.6120  141.7170 C   0  0  0  0  0  3  0  0  0  0  0  0
  190.8190  172.5020  142.1820 C   0  0  0  0  0  2  0  0  0  0  0  0
  190.6060  172.1520  144.5810 C   0  0  0  0  0  2  0  0  0  0  0  0
  184.7860  178.6780  144.0880 O   0  0  0  0  0  1  0  0  0  0  0  0
  187.8130  176.0940  141.1800 C   0  0  2  0  0  3  0  0  0  0  0  0
  184.7710  178.1480  140.4500 C   0  0  0  0  0  3  0  0  0  0  0  0
  186.2900  177.4000  142.6660 C   0  0  0  0  0  0  0  0  0  0  0  0
  188.0580  175.1790  142.3650 C   0  0  1  0  0  3  0  0  0  0  0  0
  189.6060  173.4670  139.7360 O   0  0  0  0  0  0  0  0  0  0  0  0
  189.1120  174.2810  141.9070 N   0  0  0  0  0  0  0  0  0  0  0  0
  191.2760  171.6200  143.3240 C   0  0  0  0  0  2  0  0  0  0  0  0
  191.2650  175.1770  143.9430 C   0  0  0  0  0  1  0  0  0  0  0  0
  185.8390  177.3230  140.3000 N   0  0  0  0  0  0  0  0  0  0  0  0
  186.5780  176.9160  141.3670 C   0  0  0  0  0  0  0  0  0  0  0  0
  190.0510  174.5800  144.6510 C   0  0  2  0  0  3  0  0  0  0  0  0
  186.2980  176.6920  146.7020 C   0  0  0  0  0  2  0  0  0  0  0  0
  185.3270  178.4910  147.5270 C   0  0  0  0  0  1  0  0  0  0  0  0
  186.0520  177.3610  147.9010 O   0  0  0  0  0  0  0  0  0  0  0  0
  1 19  1  6  0  0  0
  1  5  1  0  0  0  0
  2 16  1  0  0  0  0
  3 10  1  0  0  0  0
  4  1  1  0  0  0  0
  4 12  1  1  0  0  0
  5 11  1  0  0  0  0
  7 15  1  6  0  0  0
  7 27  1  0  0  0  0
  8 11  1  0  0  0  0
  8  6  2  0  0  0  0
  9 14  1  6  0  0  0
  9  7  1  0  0  0  0
 10 22  1  0  0  0  0
 11 28  1  6  0  0  0
 12  8  1  0  0  0  0
 13  2  2  0  0  0  0
 14 23  1  0  0  0  0
 17  3  1  6  0  0  0
 17 26  1  0  0  0  0
 17 20  1  0  0  0  0
 18 13  1  0  0  0  0
 19  2  1  0  0  0  0
 20 22  1  6  0  0  0
 20  4  1  0  0  0  0
 21 10  2  0  0  0  0
 22  9  1  0  0  0  0
 23 15  1  0  0  0  0
 25 18  2  0  0  0  0
 25 26  1  0  0  0  0
 26 19  2  0  0  0  0
 27 24  1  6  0  0  0
 27 12  1  0  0  0  0
 28 30  1  0  0  0  0
 29 30  1  0  0  0  0
M  END
>  <MODEL>
2

>  <REMARK>
 VINA RESULT:      -7.6      1.977      5.065
  Name = 
  2 active torsions:
  status: ('A' for Active; 'I' for Inactive)
    1  A    between atoms: C_11  and  C_28
    2  A    between atoms: C_28  and  O_30
                            x       y       z     vdW  Elec       q    Type
                         _______ _______ _______ _____ _____    ______ ____

>  <TORSDO>
F 2

$$$$
=
 OpenBabel11112416133D

 30 35  0  0  1  0  0  0  0  0999 V2000
  189.2700  175.7250  144.0000 C   0  0  1  0  0  3  0  0  0  0  0  0
  191.0390  174.6710  145.5200 C   0  0  0  0  0  0  0  0  0  0  0  0
  187.8070  178.0360  147.3680 C   0  0  0  0  0  2  0  0  0  0  0  0
  188.3390  176.9540  143.8810 C   0  0  1  0  0  3  0  0  0  0  0  0
  190.1140  175.6730  142.8740 O   0  0  0  0  0  0  0  0  0  0  0  0
  187.5280  176.0900  140.4330 O   0  0  0  0  0  0  0  0  0  0  0  0
  185.1890  177.3560  143.2440 C   0  0  1  0  0  3  0  0  0  0  0  0
  188.0910  176.0830  141.5610 C   0  0  0  0  0  0  0  0  0  0  0  0
  185.1820  177.8950  144.6720 C   0  0  2  0  0  3  0  0  0  0  0  0
  186.6300  178.5560  146.6240 C   0  0  0  0  0  0  0  0  0  0  0  0
  189.3420  175.2570  141.7590 C   0  0  2  0  0  3  0  0  0  0  0  0
  187.5330  176.8250  142.6630 N   0  0  0  0  0  0  0  0  0  0  0  0
  191.6400  174.5410  146.7740 C   0  0  0  0  0  3  0  0  0  0  0  0
  184.4240  179.2050  144.5960 C   0  0  0  0  0  2  0  0  0  0  0  0
  183.9340  177.9150  142.5910 C   0  0  0  0  0  2  0  0  0  0  0  0
  191.4500  173.8390  144.4850 O   0  0  0  0  0  1  0  0  0  0  0  0
  188.5810  177.4570  146.2100 C   0  0  2  0  0  3  0  0  0  0  0  0
  191.2180  175.3510  147.8280 C   0  0  0  0  0  3  0  0  0  0  0  0
  190.0290  175.6280  145.3210 C   0  0  0  0  0  0  0  0  0  0  0  0
  187.5470  177.0320  145.1850 C   0  0  1  0  0  3  0  0  0  0  0  0
  185.7870  179.3310  147.1480 O   0  0  0  0  0  0  0  0  0  0  0  0
  186.5060  178.0490  145.2890 N   0  0  0  0  0  0  0  0  0  0  0  0
  183.3860  178.9910  143.5160 C   0  0  0  0  0  2  0  0  0  0  0  0
  186.8230  179.1870  142.4270 C   0  0  0  0  0  1  0  0  0  0  0  0
  190.2220  176.2550  147.6390 N   0  0  0  0  0  0  0  0  0  0  0  0
  189.6020  176.3890  146.4360 C   0  0  0  0  0  0  0  0  0  0  0  0
  186.4090  177.7180  142.3940 C   0  0  2  0  0  3  0  0  0  0  0  0
  189.0180  173.7680  141.8120 C   0  0  0  0  0  2  0  0  0  0  0  0
  189.8540  171.7320  141.9560 C   0  0  0  0  0  1  0  0  0  0  0  0
  190.1650  173.0230  141.5330 O   0  0  0  0  0  0  0  0  0  0  0  0
  1  5  1  6  0  0  0
  1 19  1  0  0  0  0
  2 13  1  0  0  0  0
  4 12  1  6  0  0  0
  4  1  1  0  0  0  0
  4 20  1  0  0  0  0
  6  8  2  0  0  0  0
  7 15  1  6  0  0  0
  7  9  1  0  0  0  0
  8 11  1  0  0  0  0
  8 12  1  0  0  0  0
  9 14  1  6  0  0  0
  9 22  1  0  0  0  0
 10 21  2  0  0  0  0
 10  3  1  0  0  0  0
 11 28  1  1  0  0  0
 11  5  1  0  0  0  0
 13 18  2  0  0  0  0
 15 23  1  0  0  0  0
 16  2  1  0  0  0  0
 17 26  1  0  0  0  0
 17  3  1  1  0  0  0
 19  2  2  0  0  0  0
 19 26  1  0  0  0  0
 20 22  1  6  0  0  0
 20 17  1  0  0  0  0
 22 10  1  0  0  0  0
 23 14  1  0  0  0  0
 25 18  1  0  0  0  0
 26 25  2  0  0  0  0
 27 24  1  1  0  0  0
 27 12  1  0  0  0  0
 27  7  1  0  0  0  0
 30 28  1  0  0  0  0
 30 29  1  0  0  0  0
M  END
>  <MODEL>
3

>  <REMARK>
 VINA RESULT:      -7.2      2.103      5.657
  Name = 
  2 active torsions:
  status: ('A' for Active; 'I' for Inactive)
    1  A    between atoms: C_11  and  C_28
    2  A    between atoms: C_28  and  O_30
                            x       y       z     vdW  Elec       q    Type
                         _______ _______ _______ _____ _____    ______ ____

>  <TORSDO>
F 2

$$$$
=
 OpenBabel11112416133D

 30 35  0  0  1  0  0  0  0  0999 V2000
  188.4390  175.8720  143.7280 C   0  0  1  0  0  3  0  0  0  0  0  0
  186.1460  176.9740  144.0080 C   0  0  0  0  0  0  0  0  0  0  0  0
  189.6310  177.4560  147.5870 C   0  0  0  0  0  2  0  0  0  0  0  0
  189.6660  175.3860  144.5330 C   0  0  1  0  0  3  0  0  0  0  0  0
  187.9020  174.7910  143.0040 O   0  0  0  0  0  0  0  0  0  0  0  0
  191.0050  173.6870  141.5990 O   0  0  0  0  0  0  0  0  0  0  0  0
  192.8670  175.7960  144.2560 C   0  0  1  0  0  3  0  0  0  0  0  0
  190.2110  174.3100  142.3550 C   0  0  0  0  0  0  0  0  0  0  0  0
  192.6810  176.5140  145.5910 C   0  0  2  0  0  3  0  0  0  0  0  0
  191.0450  177.0250  147.4370 C   0  0  0  0  0  0  0  0  0  0  0  0
  188.7750  174.5020  141.9240 C   0  0  2  0  0  3  0  0  0  0  0  0
  190.6720  174.8640  143.6030 N   0  0  0  0  0  0  0  0  0  0  0  0
  185.2540  177.7470  144.7550 C   0  0  0  0  0  3  0  0  0  0  0  0
  193.7570  175.9490  146.4950 C   0  0  0  0  0  2  0  0  0  0  0  0
  194.3430  175.4340  144.1890 C   0  0  0  0  0  2  0  0  0  0  0  0
  185.7830  176.5740  142.7280 O   0  0  0  0  0  1  0  0  0  0  0  0
  189.0260  176.6880  146.4390 C   0  0  2  0  0  3  0  0  0  0  0  0
  185.6170  178.1790  146.0310 C   0  0  0  0  0  3  0  0  0  0  0  0
  187.3920  176.6190  144.5520 C   0  0  0  0  0  0  0  0  0  0  0  0
  190.1190  176.5630  145.3960 C   0  0  1  0  0  3  0  0  0  0  0  0
  191.9170  177.2420  148.3190 O   0  0  0  0  0  0  0  0  0  0  0  0
  191.3400  176.4020  146.1790 N   0  0  0  0  0  0  0  0  0  0  0  0
  194.9250  175.6590  145.5770 C   0  0  0  0  0  2  0  0  0  0  0  0
  192.0230  173.5440  145.2060 C   0  0  0  0  0  1  0  0  0  0  0  0
  186.8340  177.8570  146.5420 N   0  0  0  0  0  0  0  0  0  0  0  0
  187.7320  177.1250  145.8300 C   0  0  0  0  0  0  0  0  0  0  0  0
  192.0240  174.5360  144.0460 C   0  0  2  0  0  3  0  0  0  0  0  0
  188.6660  175.5370  140.8090 C   0  0  0  0  0  2  0  0  0  0  0  0
  188.4740  174.1330  139.1200 C   0  0  0  0  0  1  0  0  0  0  0  0
  187.7670  175.0960  139.8380 O   0  0  0  0  0  0  0  0  0  0  0  0
  1  5  1  1  0  0  0
  1  4  1  0  0  0  0
  1 19  1  0  0  0  0
  2 19  2  0  0  0  0
  2 13  1  0  0  0  0
  4 12  1  6  0  0  0
  4 20  1  0  0  0  0
  6  8  2  0  0  0  0
  7 15  1  1  0  0  0
  7  9  1  0  0  0  0
  8 12  1  0  0  0  0
  9 22  1  0  0  0  0
  9 14  1  1  0  0  0
 10  3  1  0  0  0  0
 10 21  2  0  0  0  0
 11 28  1  6  0  0  0
 11  8  1  0  0  0  0
 11  5  1  0  0  0  0
 12 27  1  0  0  0  0
 13 18  2  0  0  0  0
 15 23  1  0  0  0  0
 16  2  1  0  0  0  0
 17  3  1  1  0  0  0
 18 25  1  0  0  0  0
 19 26  1  0  0  0  0
 20 22  1  1  0  0  0
 20 17  1  0  0  0  0
 22 10  1  0  0  0  0
 23 14  1  0  0  0  0
 26 17  1  0  0  0  0
 26 25  2  0  0  0  0
 27  7  1  0  0  0  0
 27 24  1  1  0  0  0
 29 30  1  0  0  0  0
 30 28  1  0  0  0  0
M  END
>  <MODEL>
4

>  <REMARK>
 VINA RESULT:      -7.2      1.636      2.274
  Name = 
  2 active torsions:
  status: ('A' for Active; 'I' for Inactive)
    1  A    between atoms: C_11  and  C_28
    2  A    between atoms: C_28  and  O_30
                            x       y       z     vdW  Elec       q    Type
                         _______ _______ _______ _____ _____    ______ ____

>  <TORSDO>
F 2

$$$$
=
 OpenBabel11112416133D

 30 35  0  0  1  0  0  0  0  0999 V2000
  191.1680  173.8780  143.0070 C   0  0  1  0  0  3  0  0  0  0  0  0
  193.1260  172.2320  142.9230 C   0  0  0  0  0  0  0  0  0  0  0  0
  192.5120  175.2220  146.9070 C   0  0  0  0  0  2  0  0  0  0  0  0
  190.6960  175.1800  143.6950 C   0  0  1  0  0  3  0  0  0  0  0  0
  191.1890  174.0730  141.6120 O   0  0  0  0  0  0  0  0  0  0  0  0
  187.9050  175.4800  141.3690 O   0  0  0  0  0  0  0  0  0  0  0  0
  187.9710  176.0940  145.1890 C   0  0  1  0  0  3  0  0  0  0  0  0
  188.9750  175.0740  141.8990 C   0  0  0  0  0  0  0  0  0  0  0  0
  188.9070  176.1790  146.3940 C   0  0  2  0  0  3  0  0  0  0  0  0
  191.3100  176.0650  147.1380 C   0  0  0  0  0  0  0  0  0  0  0  0
  189.8490  174.0960  141.1470 C   0  0  2  0  0  3  0  0  0  0  0  0
  189.3490  175.5100  143.2200 N   0  0  0  0  0  0  0  0  0  0  0  0
  194.2630  171.6680  143.5060 C   0  0  0  0  0  3  0  0  0  0  0  0
  188.6170  177.5260  147.0230 C   0  0  0  0  0  2  0  0  0  0  0  0
  186.7700  176.9560  145.5450 C   0  0  0  0  0  2  0  0  0  0  0  0
  192.6500  171.7070  141.7280 O   0  0  0  0  0  1  0  0  0  0  0  0
  192.3200  174.9350  145.4390 C   0  0  2  0  0  3  0  0  0  0  0  0
  194.7360  172.1680  144.7200 C   0  0  0  0  0  3  0  0  0  0  0  0
  192.4760  173.3080  143.5510 C   0  0  0  0  0  0  0  0  0  0  0  0
  190.8230  174.9500  145.2010 C   0  0  1  0  0  3  0  0  0  0  0  0
  191.1460  176.7350  148.1920 O   0  0  0  0  0  0  0  0  0  0  0  0
  190.3330  175.9970  146.0920 N   0  0  0  0  0  0  0  0  0  0  0  0
  187.1410  177.7600  146.7820 C   0  0  0  0  0  2  0  0  0  0  0  0
  189.2880  177.8970  143.8820 C   0  0  0  0  0  1  0  0  0  0  0  0
  194.0880  173.1900  145.3380 N   0  0  0  0  0  0  0  0  0  0  0  0
  192.9650  173.7440  144.8060 C   0  0  0  0  0  0  0  0  0  0  0  0
  188.5530  176.5590  143.8510 C   0  0  2  0  0  3  0  0  0  0  0  0
  189.2280  172.7030  141.1250 C   0  0  0  0  0  2  0  0  0  0  0  0
  188.2750  172.6590  139.1370 C   0  0  0  0  0  1  0  0  0  0  0  0
  189.3560  172.1470  139.8530 O   0  0  0  0  0  0  0  0  0  0  0  0
  1  5  1  6  0  0  0
  1 19  1  0  0  0  0
  1  4  1  0  0  0  0
  2 13  2  0  0  0  0
  2 19  1  0  0  0  0
  3 10  1  0  0  0  0
  4 12  1  1  0  0  0
  4 20  1  0  0  0  0
  6  8  2  0  0  0  0
  7 15  1  1  0  0  0
  7  9  1  0  0  0  0
  8 12  1  0  0  0  0
  9 14  1  6  0  0  0
 10 21  2  0  0  0  0
 11 28  1  1  0  0  0
 11  5  1  0  0  0  0
 11  8  1  0  0  0  0
 12 27  1  0  0  0  0
 13 18  1  0  0  0  0
 15 23  1  0  0  0  0
 16  2  1  0  0  0  0
 17  3  1  1  0  0  0
 18 25  2  0  0  0  0
 19 26  2  0  0  0  0
 20 17  1  0  0  0  0
 20 22  1  1  0  0  0
 22  9  1  0  0  0  0
 22 10  1  0  0  0  0
 23 14  1  0  0  0  0
 26 25  1  0  0  0  0
 26 17  1  0  0  0  0
 27 24  1  1  0  0  0
 27  7  1  0  0  0  0
 29 30  1  0  0  0  0
 30 28  1  0  0  0  0
M  END
>  <MODEL>
5

>  <REMARK>
 VINA RESULT:      -7.1      2.492      6.148
  Name = 
  2 active torsions:
  status: ('A' for Active; 'I' for Inactive)
    1  A    between atoms: C_11  and  C_28
    2  A    between atoms: C_28  and  O_30
                            x       y       z     vdW  Elec       q    Type
                         _______ _______ _______ _____ _____    ______ ____

>  <TORSDO>
F 2

$$$$
=
 OpenBabel11112416133D

 30 35  0  0  1  0  0  0  0  0999 V2000
  192.6730  174.8890  143.1040 C   0  0  1  0  0  3  0  0  0  0  0  0
  193.6330  174.1250  140.8580 C   0  0  0  0  0  0  0  0  0  0  0  0
  188.6700  174.5680  141.4620 C   0  0  0  0  0  2  0  0  0  0  0  0
  191.3790  174.8660  143.9500 C   0  0  1  0  0  3  0  0  0  0  0  0
  193.7110  174.2730  143.8300 O   0  0  0  0  0  0  0  0  0  0  0  0
  193.1850  176.0850  146.8730 O   0  0  0  0  0  0  0  0  0  0  0  0
  189.6880  177.1070  145.5660 C   0  0  1  0  0  3  0  0  0  0  0  0
  192.9550  175.6310  145.7190 C   0  0  0  0  0  0  0  0  0  0  0  0
  188.6280  176.7590  144.5230 C   0  0  2  0  0  3  0  0  0  0  0  0
  188.0280  175.1840  142.6520 C   0  0  0  0  0  0  0  0  0  0  0  0
  194.1100  175.1530  144.8690 C   0  0  2  0  0  3  0  0  0  0  0  0
  191.6120  175.5970  145.1990 N   0  0  0  0  0  0  0  0  0  0  0  0
  193.4480  173.7140  139.5360 C   0  0  0  0  0  3  0  0  0  0  0  0
  187.3520  176.5490  145.3130 C   0  0  0  0  0  2  0  0  0  0  0  0
  188.9320  177.7580  146.7140 C   0  0  0  0  0  2  0  0  0  0  0  0
  194.9250  174.3290  141.3260 O   0  0  0  0  0  1  0  0  0  0  0  0
  190.0460  174.3310  142.0320 C   0  0  2  0  0  3  0  0  0  0  0  0
  192.1550  173.5310  139.0450 C   0  0  0  0  0  3  0  0  0  0  0  0
  192.5200  174.3330  141.6900 C   0  0  0  0  0  0  0  0  0  0  0  0
  190.2660  175.4220  143.0630 C   0  0  1  0  0  3  0  0  0  0  0  0
  186.7830  175.3620  142.7330 O   0  0  0  0  0  0  0  0  0  0  0  0
  188.9500  175.6130  143.6630 N   0  0  0  0  0  0  0  0  0  0  0  0
  187.4500  177.5130  146.4750 C   0  0  0  0  0  2  0  0  0  0  0  0
  189.7160  174.7030  146.5210 C   0  0  0  0  0  1  0  0  0  0  0  0
  191.0810  173.7610  139.8450 N   0  0  0  0  0  0  0  0  0  0  0  0
  191.2290  174.1830  141.1300 C   0  0  0  0  0  0  0  0  0  0  0  0
  190.5150  175.9350  146.1020 C   0  0  2  0  0  3  0  0  0  0  0  0
  194.9300  176.3250  144.3400 C   0  0  0  0  0  2  0  0  0  0  0  0
  196.7530  176.7860  143.1880 C   0  0  0  0  0  1  0  0  0  0  0  0
  196.2610  175.9390  144.1790 O   0  0  0  0  0  0  0  0  0  0  0  0
  1 19  1  6  0  0  0
  1  5  1  0  0  0  0
  1  4  1  0  0  0  0
  2 16  1  0  0  0  0
  2 19  1  0  0  0  0
  3 10  1  0  0  0  0
  4 12  1  1  0  0  0
  5 11  1  0  0  0  0
  7 27  1  0  0  0  0
  7 15  1  1  0  0  0
  8  6  2  0  0  0  0
  9 14  1  1  0  0  0
  9  7  1  0  0  0  0
 10 21  2  0  0  0  0
 10 22  1  0  0  0  0
 11 28  1  6  0  0  0
 11  8  1  0  0  0  0
 12  8  1  0  0  0  0
 12 27  1  0  0  0  0
 13  2  2  0  0  0  0
 14 23  1  0  0  0  0
 17  3  1  6  0  0  0
 17 20  1  0  0  0  0
 18 13  1  0  0  0  0
 18 25  2  0  0  0  0
 20 22  1  1  0  0  0
 20  4  1  0  0  0  0
 22  9  1  0  0  0  0
 23 15  1  0  0  0  0
 25 26  1  0  0  0  0
 26 19  2  0  0  0  0
 26 17  1  0  0  0  0
 27 24  1  6  0  0  0
 29 30  1  0  0  0  0
 30 28  1  0  0  0  0
M  END
>  <MODEL>
6

>  <REMARK>
 VINA RESULT:      -7.0      2.603      7.621
  Name = 
  2 active torsions:
  status: ('A' for Active; 'I' for Inactive)
    1  A    between atoms: C_11  and  C_28
    2  A    between atoms: C_28  and  O_30
                            x       y       z     vdW  Elec       q    Type
                         _______ _______ _______ _____ _____    ______ ____

>  <TORSDO>
F 2

$$$$
=
 OpenBabel11112416133D

 30 35  0  0  1  0  0  0  0  0999 V2000
  189.7300  175.1260  144.0730 C   0  0  1  0  0  3  0  0  0  0  0  0
  191.4480  173.7840  142.7310 C   0  0  0  0  0  0  0  0  0  0  0  0
  187.5690  175.9590  140.4040 C   0  0  0  0  0  2  0  0  0  0  0  0
  188.2790  175.6570  144.0120 C   0  0  1  0  0  3  0  0  0  0  0  0
  189.8740  174.2990  145.2040 O   0  0  0  0  0  0  0  0  0  0  0  0
  188.3970  176.5780  147.5370 O   0  0  0  0  0  0  0  0  0  0  0  0
  186.8960  178.5360  144.5550 C   0  0  1  0  0  3  0  0  0  0  0  0
  188.7200  176.0770  146.4270 C   0  0  0  0  0  0  0  0  0  0  0  0
  186.5760  178.4290  143.0650 C   0  0  2  0  0  3  0  0  0  0  0  0
  186.6340  176.9110  141.0560 C   0  0  0  0  0  0  0  0  0  0  0  0
  189.8920  175.1250  146.3580 C   0  0  2  0  0  3  0  0  0  0  0  0
  188.0020  176.4290  145.2280 N   0  0  0  0  0  0  0  0  0  0  0  0
  191.9150  173.2850  141.5130 C   0  0  0  0  0  3  0  0  0  0  0  0
  185.1050  178.7720  142.9530 C   0  0  0  0  0  2  0  0  0  0  0  0
  185.9130  179.5540  145.1110 C   0  0  0  0  0  2  0  0  0  0  0  0
  192.2160  173.6010  143.8740 O   0  0  0  0  0  1  0  0  0  0  0  0
  188.1860  175.3500  141.6380 C   0  0  2  0  0  3  0  0  0  0  0  0
  191.1660  173.4850  140.3530 C   0  0  0  0  0  3  0  0  0  0  0  0
  190.2210  174.4670  142.7850 C   0  0  0  0  0  0  0  0  0  0  0  0
  188.1510  176.4310  142.7010 C   0  0  1  0  0  3  0  0  0  0  0  0
  185.7250  177.5100  140.4220 O   0  0  0  0  0  0  0  0  0  0  0  0
  186.8990  177.1360  142.4480 N   0  0  0  0  0  0  0  0  0  0  0  0
  184.8590  179.7950  144.0410 C   0  0  0  0  0  2  0  0  0  0  0  0
  185.5270  176.4180  145.1280 C   0  0  0  0  0  1  0  0  0  0  0  0
  189.9950  174.1710  140.4050 N   0  0  0  0  0  0  0  0  0  0  0  0
  189.5260  174.6890  141.5720 C   0  0  0  0  0  0  0  0  0  0  0  0
  186.7940  177.2370  145.3600 C   0  0  2  0  0  3  0  0  0  0  0  0
  191.2160  175.8670  146.5070 C   0  0  0  0  0  2  0  0  0  0  0  0
  193.3910  175.5040  146.4930 C   0  0  0  0  0  1  0  0  0  0  0  0
  192.1930  175.0000  146.9970 O   0  0  0  0  0  0  0  0  0  0  0  0
  1 19  1  6  0  0  0
  1  5  1  0  0  0  0
  2 19  1  0  0  0  0
  2 16  1  0  0  0  0
  3 10  1  0  0  0  0
  4  1  1  0  0  0  0
  4 12  1  1  0  0  0
  5 11  1  0  0  0  0
  7 15  1  1  0  0  0
  7 27  1  0  0  0  0
  8  6  2  0  0  0  0
  9 14  1  1  0  0  0
  9  7  1  0  0  0  0
 10 22  1  0  0  0  0
 11  8  1  0  0  0  0
 11 28  1  6  0  0  0
 12 27  1  0  0  0  0
 12  8  1  0  0  0  0
 13  2  2  0  0  0  0
 14 23  1  0  0  0  0
 17  3  1  6  0  0  0
 17 20  1  0  0  0  0
 18 25  2  0  0  0  0
 18 13  1  0  0  0  0
 20 22  1  1  0  0  0
 20  4  1  0  0  0  0
 21 10  2  0  0  0  0
 22  9  1  0  0  0  0
 23 15  1  0  0  0  0
 25 26  1  0  0  0  0
 26 17  1  0  0  0  0
 26 19  2  0  0  0  0
 27 24  1  6  0  0  0
 28 30  1  0  0  0  0
 29 30  1  0  0  0  0
M  END
>  <MODEL>
7

>  <REMARK>
 VINA RESULT:      -7.0      2.105      7.149
  Name = 
  2 active torsions:
  status: ('A' for Active; 'I' for Inactive)
    1  A    between atoms: C_11  and  C_28
    2  A    between atoms: C_28  and  O_30
                            x       y       z     vdW  Elec       q    Type
                         _______ _______ _______ _____ _____    ______ ____

>  <TORSDO>
F 2

$$$$
=
 OpenBabel11112416133D

 30 35  0  0  1  0  0  0  0  0999 V2000
  188.8250  176.0050  143.9700 C   0  0  1  0  0  3  0  0  0  0  0  0
  187.2430  177.8660  144.7370 C   0  0  0  0  0  0  0  0  0  0  0  0
  187.1740  176.3000  139.9690 C   0  0  0  0  0  2  0  0  0  0  0  0
  189.4810  175.4050  142.7060 C   0  0  1  0  0  3  0  0  0  0  0  0
  189.8310  176.4030  144.8710 O   0  0  0  0  0  0  0  0  0  0  0  0
  191.6910  173.3450  144.7460 O   0  0  0  0  0  0  0  0  0  0  0  0
  189.7820  172.4090  141.5130 C   0  0  1  0  0  3  0  0  0  0  0  0
  190.8470  174.2230  144.4200 C   0  0  0  0  0  0  0  0  0  0  0  0
  188.9210  172.9920  140.3940 C   0  0  2  0  0  3  0  0  0  0  0  0
  187.9060  175.1060  139.4740 C   0  0  0  0  0  0  0  0  0  0  0  0
  190.3980  175.2370  145.4480 C   0  0  2  0  0  3  0  0  0  0  0  0
  190.2880  174.2440  143.0920 N   0  0  0  0  0  0  0  0  0  0  0  0
  186.2330  178.7900  144.4610 C   0  0  0  0  0  3  0  0  0  0  0  0
  189.6130  172.5850  139.1100 C   0  0  0  0  0  2  0  0  0  0  0  0
  190.4520  171.1820  140.9130 C   0  0  0  0  0  2  0  0  0  0  0  0
  187.6760  177.7100  146.0480 O   0  0  0  0  0  1  0  0  0  0  0  0
  187.9010  176.4980  141.2750 C   0  0  2  0  0  3  0  0  0  0  0  0
  185.7700  178.9360  143.1530 C   0  0  0  0  0  3  0  0  0  0  0  0
  187.8000  177.1040  143.6960 C   0  0  0  0  0  0  0  0  0  0  0  0
  188.3510  175.1190  141.7180 C   0  0  1  0  0  3  0  0  0  0  0  0
  187.7960  174.6860  138.2910 O   0  0  0  0  0  0  0  0  0  0  0  0
  188.6920  174.4410  140.4730 N   0  0  0  0  0  0  0  0  0  0  0  0
  190.2260  171.2340  139.4100 C   0  0  0  0  0  2  0  0  0  0  0  0
  191.7080  174.0780  141.0680 C   0  0  0  0  0  1  0  0  0  0  0  0
  186.2920  178.1770  142.1550 N   0  0  0  0  0  0  0  0  0  0  0  0
  187.2600  177.2530  142.3960 C   0  0  0  0  0  0  0  0  0  0  0  0
  190.8510  173.3390  142.0930 C   0  0  2  0  0  3  0  0  0  0  0  0
  189.4710  174.6030  146.4800 C   0  0  0  0  0  2  0  0  0  0  0  0
  191.0780  175.3600  147.7870 C   0  0  0  0  0  1  0  0  0  0  0  0
  189.6980  175.1730  147.7340 O   0  0  0  0  0  0  0  0  0  0  0  0
  1 19  1  6  0  0  0
  1  5  1  0  0  0  0
  2 16  1  0  0  0  0
  4 12  1  1  0  0  0
  4  1  1  0  0  0  0
  5 11  1  0  0  0  0
  7 15  1  6  0  0  0
  7 27  1  0  0  0  0
  8  6  2  0  0  0  0
  8 11  1  0  0  0  0
  9 14  1  6  0  0  0
  9 22  1  0  0  0  0
  9  7  1  0  0  0  0
 10  3  1  0  0  0  0
 10 22  1  0  0  0  0
 11 28  1  1  0  0  0
 12  8  1  0  0  0  0
 13  2  1  0  0  0  0
 14 23  1  0  0  0  0
 17  3  1  6  0  0  0
 17 20  1  0  0  0  0
 17 26  1  0  0  0  0
 18 13  2  0  0  0  0
 19  2  2  0  0  0  0
 20 22  1  6  0  0  0
 20  4  1  0  0  0  0
 21 10  2  0  0  0  0
 23 15  1  0  0  0  0
 25 26  2  0  0  0  0
 25 18  1  0  0  0  0
 26 19  1  0  0  0  0
 27 24  1  6  0  0  0
 27 12  1  0  0  0  0
 28 30  1  0  0  0  0
 30 29  1  0  0  0  0
M  END
>  <MODEL>
8

>  <REMARK>
 VINA RESULT:      -7.0      2.639      5.652
  Name = 
  2 active torsions:
  status: ('A' for Active; 'I' for Inactive)
    1  A    between atoms: C_11  and  C_28
    2  A    between atoms: C_28  and  O_30
                            x       y       z     vdW  Elec       q    Type
                         _______ _______ _______ _____ _____    ______ ____

>  <TORSDO>
F 2

$$$$
=
 OpenBabel11112416133D

 30 35  0  0  1  0  0  0  0  0999 V2000
  188.6520  175.0610  141.4010 C   0  0  1  0  0  3  0  0  0  0  0  0
  187.0480  176.3950  139.9170 C   0  0  0  0  0  0  0  0  0  0  0  0
  187.8240  177.7810  144.6790 C   0  0  0  0  0  2  0  0  0  0  0  0
  188.9940  174.7780  142.8820 C   0  0  1  0  0  3  0  0  0  0  0  0
  188.3390  173.8480  140.7580 O   0  0  0  0  0  0  0  0  0  0  0  0
  191.2060  172.0450  141.9190 O   0  0  0  0  0  0  0  0  0  0  0  0
  191.7320  174.7720  144.6140 C   0  0  1  0  0  3  0  0  0  0  0  0
  190.3450  172.9630  141.8430 C   0  0  0  0  0  0  0  0  0  0  0  0
  191.0340  175.9260  145.3320 C   0  0  2  0  0  3  0  0  0  0  0  0
  188.8710  177.1970  145.5560 C   0  0  0  0  0  0  0  0  0  0  0  0
  189.5430  173.1210  140.5710 C   0  0  2  0  0  3  0  0  0  0  0  0
  190.1470  173.8740  142.9410 N   0  0  0  0  0  0  0  0  0  0  0  0
  186.1610  177.4590  139.7400 C   0  0  0  0  0  3  0  0  0  0  0  0
  191.1820  175.6180  146.8080 C   0  0  0  0  0  2  0  0  0  0  0  0
  192.7990  174.2770  145.5780 C   0  0  0  0  0  2  0  0  0  0  0  0
  187.3840  175.6070  138.8240 O   0  0  0  0  0  1  0  0  0  0  0  0
  187.7920  176.7180  143.6090 C   0  0  2  0  0  3  0  0  0  0  0  0
  185.8360  178.2750  140.8230 C   0  0  0  0  0  3  0  0  0  0  0  0
  187.5940  176.1410  141.1880 C   0  0  0  0  0  0  0  0  0  0  0  0
  189.1910  176.1360  143.5540 C   0  0  1  0  0  3  0  0  0  0  0  0
  189.1000  177.6290  146.7170 O   0  0  0  0  0  0  0  0  0  0  0  0
  189.6350  176.1490  144.9440 N   0  0  0  0  0  0  0  0  0  0  0  0
  192.5200  174.9200  146.9280 C   0  0  0  0  0  2  0  0  0  0  0  0
  189.8890  173.0820  145.2740 C   0  0  0  0  0  1  0  0  0  0  0  0
  186.3870  178.0430  142.0430 N   0  0  0  0  0  0  0  0  0  0  0  0
  187.2720  177.0290  142.2420 C   0  0  0  0  0  0  0  0  0  0  0  0
  190.8390  173.6010  144.1970 C   0  0  2  0  0  3  0  0  0  0  0  0
  190.3950  173.7070  139.4500 C   0  0  0  0  0  2  0  0  0  0  0  0
  190.2350  172.0910  137.9570 C   0  0  0  0  0  1  0  0  0  0  0  0
  189.8270  173.3990  138.2130 O   0  0  0  0  0  0  0  0  0  0  0  0
  1  5  1  1  0  0  0
  1  4  1  0  0  0  0
  2 19  1  0  0  0  0
  3 10  1  0  0  0  0
  4 12  1  6  0  0  0
  4 20  1  0  0  0  0
  7  9  1  0  0  0  0
  7 15  1  1  0  0  0
  8  6  2  0  0  0  0
  8 12  1  0  0  0  0
  9 14  1  1  0  0  0
 10 21  2  0  0  0  0
 11 28  1  6  0  0  0
 11  5  1  0  0  0  0
 11  8  1  0  0  0  0
 12 27  1  0  0  0  0
 13  2  2  0  0  0  0
 13 18  1  0  0  0  0
 14 23  1  0  0  0  0
 15 23  1  0  0  0  0
 16  2  1  0  0  0  0
 17  3  1  1  0  0  0
 18 25  2  0  0  0  0
 19  1  1  0  0  0  0
 19 26  2  0  0  0  0
 20 17  1  0  0  0  0
 20 22  1  1  0  0  0
 22  9  1  0  0  0  0
 22 10  1  0  0  0  0
 25 26  1  0  0  0  0
 26 17  1  0  0  0  0
 27  7  1  0  0  0  0
 27 24  1  1  0  0  0
 29 30  1  0  0  0  0
 30 28  1  0  0  0  0
M  END
>  <MODEL>
9

>  <REMARK>
 VINA RESULT:      -7.0      2.417      4.413
  Name = 
  2 active torsions:
  status: ('A' for Active; 'I' for Inactive)
    1  A    between atoms: C_11  and  C_28
    2  A    between atoms: C_28  and  O_30
                            x       y       z     vdW  Elec       q    Type
                         _______ _______ _______ _____ _____    ______ ____

>  <TORSDO>
F 2

$$$$
