=
 OpenBabel11112418033D

 34 40  0  0  1  0  0  0  0  0999 V2000
  189.6470  174.7480  142.6990 C   0  0  1  0  0  3  0  0  0  0  0  0
  191.8510  173.7890  142.9640 C   0  0  0  0  0  2  0  0  0  0  0  0
  185.2600  179.2210  144.4810 C   0  0  0  0  0  0  0  0  0  0  0  0
  187.3630  175.7080  142.5650 C   0  0  2  0  0  3  0  0  0  0  0  0
  186.4740  177.0540  144.4590 C   0  0  0  0  0  0  0  0  0  0  0  0
  185.6590  178.0640  146.6750 C   0  0  0  0  0  1  0  0  0  0  0  0
  185.7560  180.2850  144.9390 O   0  0  0  0  0  0  0  0  0  0  0  0
  184.0880  177.9760  142.6940 C   0  0  0  0  0  2  0  0  0  0  0  0
  190.6940  174.5450  144.7590 C   0  0  2  0  0  3  0  0  0  0  0  0
  192.1870  175.4800  147.5100 C   0  0  0  0  0  2  0  0  0  0  0  0
  187.6650  176.6180  145.2390 C   0  0  0  0  0  3  0  0  0  0  0  0
  185.2630  177.1490  142.1790 C   0  0  0  0  0  2  0  0  0  0  0  0
  189.9740  175.7090  145.4510 C   0  0  1  0  0  3  0  0  0  0  0  0
  192.7630  173.5400  144.1570 C   0  0  0  0  0  2  0  0  0  0  0  0
  186.3530  176.6870  143.1450 C   0  0  0  0  0  0  0  0  0  0  0  0
  184.5570  179.2370  143.2460 N   0  0  0  0  0  2  0  0  0  0  0  0
  192.7350  175.1830  146.1010 C   0  0  2  0  0  3  0  0  0  0  0  0
  188.7510  175.8990  143.1710 C   0  0  1  0  0  3  0  0  0  0  0  0
  185.4470  177.9080  145.1710 C   0  0  1  0  0  3  0  0  0  0  0  0
  188.7080  176.0040  144.6740 C   0  0  0  0  0  0  0  0  0  0  0  0
  188.3220  174.7330  140.5960 C   0  0  0  0  0  2  0  0  0  0  0  0
  190.7170  175.2210  147.7750 C   0  0  0  0  0  3  0  0  0  0  0  0
  187.4710  175.8170  141.1050 N   0  0  0  0  0  2  0  0  0  0  0  0
  189.7240  175.3490  146.8840 C   0  0  0  0  0  3  0  0  0  0  0  0
  191.9970  174.0470  145.3730 C   0  0  1  0  0  3  0  0  0  0  0  0
  189.7390  174.8290  141.1760 C   0  0  0  0  0  2  0  0  0  0  0  0
  190.9480  174.8570  143.3610 N   0  0  2  0  0  0  0  0  0  0  0  0
  194.1600  174.9020  146.2040 N   0  0  0  0  0  2  0  0  0  0  0  0
  194.8100  175.9750  145.6940 O   0  0  0  0  0  0  0  0  0  0  0  0
  197.3680  176.1940  143.3020 N   0  0  0  0  0  2  0  0  0  0  0  0
  196.5250  174.5690  144.8540 C   0  0  0  0  0  2  0  0  0  0  0  0
  195.4030  175.5070  144.5200 C   0  0  2  0  0  3  0  0  0  0  0  0
  197.5410  174.8230  143.7690 C   0  0  0  0  0  2  0  0  0  0  0  0
  196.0670  176.6490  143.7830 C   0  0  0  0  0  2  0  0  0  0  0  0
  1 26  1  6  0  0  0
  1 18  1  0  0  0  0
  1 27  1  0  0  0  0
  2 27  1  0  0  0  0
  2 14  1  0  0  0  0
  3  7  2  0  0  0  0
  3 19  1  0  0  0  0
  4 23  1  6  0  0  0
  4 15  1  0  0  0  0
  4 18  1  0  0  0  0
  5 19  1  0  0  0  0
  5 11  1  0  0  0  0
  8 16  1  0  0  0  0
  9 25  1  0  0  0  0
  9 13  1  0  0  0  0
 10 22  1  0  0  0  0
 12  8  1  0  0  0  0
 12 15  1  0  0  0  0
 13 24  1  0  0  0  0
 14 25  1  0  0  0  0
 15  5  2  0  0  0  0
 16  3  1  0  0  0  0
 17 28  1  0  0  0  0
 17 10  1  0  0  0  0
 18 20  1  0  0  0  0
 19  6  1  0  0  0  0
 20 11  2  0  0  0  0
 20 13  1  0  0  0  0
 21 23  1  0  0  0  0
 21 26  1  0  0  0  0
 24 22  2  0  0  0  0
 25 17  1  0  0  0  0
 27  9  1  0  0  0  0
 29 28  1  0  0  0  0
 30 33  1  0  0  0  0
 30 34  1  0  0  0  0
 32 31  1  0  0  0  0
 32 29  1  0  0  0  0
 33 31  1  0  0  0  0
 34 32  1  0  0  0  0
M  END
>  <MODEL>
1

>  <REMARK>
 VINA RESULT:      -8.7      0.000      0.000
  Name = 
  3 active torsions:
  status: ('A' for Active; 'I' for Inactive)
    1  A    between atoms: C_17  and  N_28
    2  A    between atoms: N_28  and  O_29
    3  A    between atoms: O_29  and  C_32
                            x       y       z     vdW  Elec       q    Type
                         _______ _______ _______ _____ _____    ______ ____

>  <TORSDO>
F 3

$$$$
=
 OpenBabel11112418033D

 34 40  0  0  1  0  0  0  0  0999 V2000
  189.7620  176.7260  146.0310 C   0  0  1  0  0  3  0  0  0  0  0  0
  187.5040  177.5890  145.9810 C   0  0  0  0  0  2  0  0  0  0  0  0
  195.4230  175.7340  142.9650 C   0  0  0  0  0  0  0  0  0  0  0  0
  192.0460  175.7580  145.9710 C   0  0  2  0  0  3  0  0  0  0  0  0
  193.1240  175.2690  143.7830 C   0  0  0  0  0  0  0  0  0  0  0  0
  193.8490  174.5080  141.4400 C   0  0  0  0  0  1  0  0  0  0  0  0
  195.6760  176.5670  142.0540 O   0  0  0  0  0  0  0  0  0  0  0  0
  195.8410  174.8010  145.2160 C   0  0  0  0  0  2  0  0  0  0  0  0
  188.4000  176.5860  144.1580 C   0  0  2  0  0  3  0  0  0  0  0  0
  187.3210  177.2040  141.1380 C   0  0  0  0  0  2  0  0  0  0  0  0
  191.8080  175.5530  143.1470 C   0  0  0  0  0  3  0  0  0  0  0  0
  194.5820  175.3080  145.9150 C   0  0  0  0  0  2  0  0  0  0  0  0
  189.5220  176.5400  143.1130 C   0  0  1  0  0  3  0  0  0  0  0  0
  186.4120  177.6420  144.9220 C   0  0  0  0  0  2  0  0  0  0  0  0
  193.2750  175.4380  145.1330 C   0  0  0  0  0  0  0  0  0  0  0  0
  196.2220  175.7010  144.1400 N   0  0  0  0  0  2  0  0  0  0  0  0
  187.0690  177.9200  142.4790 C   0  0  2  0  0  3  0  0  0  0  0  0
  191.0510  176.6290  145.2070 C   0  0  1  0  0  3  0  0  0  0  0  0
  194.2510  174.8110  142.8810 C   0  0  1  0  0  3  0  0  0  0  0  0
  190.7960  176.1160  143.8130 C   0  0  0  0  0  0  0  0  0  0  0  0
  191.1850  176.5530  148.0620 C   0  0  0  0  0  2  0  0  0  0  0  0
  188.1210  175.9180  141.1540 C   0  0  0  0  0  3  0  0  0  0  0  0
  192.3890  176.4330  147.2290 N   0  0  0  0  0  2  0  0  0  0  0  0
  189.1180  175.6230  141.9990 C   0  0  0  0  0  3  0  0  0  0  0  0
  187.0030  176.9720  143.6880 C   0  0  1  0  0  3  0  0  0  0  0  0
  190.1110  177.3950  147.3600 C   0  0  0  0  0  2  0  0  0  0  0  0
  188.7600  177.4640  145.2610 N   0  0  2  0  0  0  0  0  0  0  0  0
  185.8510  178.7110  142.3650 N   0  0  0  0  0  2  0  0  0  0  0  0
  185.2970  178.4070  141.1660 O   0  0  0  0  0  0  0  0  0  0  0  0
  182.0510  178.8080  142.4350 N   0  0  0  0  0  2  0  0  0  0  0  0
  183.0790  178.1410  140.3720 C   0  0  0  0  0  2  0  0  0  0  0  0
  184.0520  177.8600  141.4780 C   0  0  2  0  0  3  0  0  0  0  0  0
  181.7650  178.3300  141.0880 C   0  0  0  0  0  2  0  0  0  0  0  0
  183.4670  178.5580  142.6860 C   0  0  0  0  0  2  0  0  0  0  0  0
  1 26  1  1  0  0  0
  3 16  1  0  0  0  0
  4 15  1  6  0  0  0
  4 23  1  0  0  0  0
  5 15  2  0  0  0  0
  6 19  1  0  0  0  0
  7  3  2  0  0  0  0
  8 12  1  0  0  0  0
  9 27  1  0  0  0  0
 10 22  1  0  0  0  0
 10 17  1  0  0  0  0
 11  5  1  0  0  0  0
 11 20  2  0  0  0  0
 13 20  1  0  0  0  0
 13  9  1  0  0  0  0
 14  2  1  0  0  0  0
 15 12  1  0  0  0  0
 16  8  1  0  0  0  0
 17 25  1  0  0  0  0
 18  4  1  0  0  0  0
 18  1  1  0  0  0  0
 19  3  1  0  0  0  0
 19  5  1  0  0  0  0
 20 18  1  0  0  0  0
 22 24  2  0  0  0  0
 23 21  1  0  0  0  0
 24 13  1  0  0  0  0
 25  9  1  0  0  0  0
 25 14  1  0  0  0  0
 26 21  1  0  0  0  0
 27  2  1  0  0  0  0
 27  1  1  0  0  0  0
 28 17  1  0  0  0  0
 29 32  1  0  0  0  0
 29 28  1  0  0  0  0
 30 34  1  0  0  0  0
 31 33  1  0  0  0  0
 31 32  1  0  0  0  0
 32 34  1  0  0  0  0
 33 30  1  0  0  0  0
M  END
>  <MODEL>
2

>  <REMARK>
 VINA RESULT:      -8.6      2.001      9.104
  Name = 
  3 active torsions:
  status: ('A' for Active; 'I' for Inactive)
    1  A    between atoms: C_17  and  N_28
    2  A    between atoms: N_28  and  O_29
    3  A    between atoms: O_29  and  C_32
                            x       y       z     vdW  Elec       q    Type
                         _______ _______ _______ _____ _____    ______ ____

>  <TORSDO>
F 3

$$$$
=
 OpenBabel11112418033D

 34 40  0  0  1  0  0  0  0  0999 V2000
  192.2810  175.9920  145.4170 C   0  0  1  0  0  3  0  0  0  0  0  0
  190.3630  177.0000  146.4900 C   0  0  0  0  0  2  0  0  0  0  0  0
  195.4970  174.5700  139.9340 C   0  0  0  0  0  0  0  0  0  0  0  0
  194.1600  174.8760  144.2410 C   0  0  2  0  0  3  0  0  0  0  0  0
  193.9300  174.2720  141.8380 C   0  0  0  0  0  0  0  0  0  0  0  0
  193.3070  173.4180  139.4990 C   0  0  0  0  0  1  0  0  0  0  0  0
  195.2810  175.3650  138.9800 O   0  0  0  0  0  0  0  0  0  0  0  0
  196.9730  173.6570  141.6940 C   0  0  0  0  0  2  0  0  0  0  0  0
  190.1430  175.9040  144.5190 C   0  0  2  0  0  3  0  0  0  0  0  0
  187.6900  176.5300  142.4560 C   0  0  0  0  0  2  0  0  0  0  0  0
  192.4900  174.6300  141.9560 C   0  0  0  0  0  3  0  0  0  0  0  0
  196.2800  174.2590  142.9140 C   0  0  0  0  0  2  0  0  0  0  0  0
  190.5620  175.7630  143.0510 C   0  0  1  0  0  3  0  0  0  0  0  0
  188.8850  177.1030  146.1420 C   0  0  0  0  0  2  0  0  0  0  0  0
  194.7640  174.4590  142.9090 C   0  0  0  0  0  0  0  0  0  0  0  0
  196.7850  174.5070  140.5300 N   0  0  0  0  0  2  0  0  0  0  0  0
  188.1990  177.2880  143.6970 C   0  0  2  0  0  3  0  0  0  0  0  0
  192.9540  175.7940  144.0530 C   0  0  1  0  0  3  0  0  0  0  0  0
  194.4080  173.7230  140.5100 C   0  0  1  0  0  3  0  0  0  0  0  0
  191.9930  175.2710  143.0170 C   0  0  0  0  0  0  0  0  0  0  0  0
  194.5380  175.7670  146.4340 C   0  0  0  0  0  2  0  0  0  0  0  0
  188.3240  175.1940  142.1240 C   0  0  0  0  0  3  0  0  0  0  0  0
  195.1330  175.5520  145.1080 N   0  0  0  0  0  2  0  0  0  0  0  0
  189.6000  174.8520  142.3510 C   0  0  0  0  0  3  0  0  0  0  0  0
  188.7230  176.3700  144.8140 C   0  0  1  0  0  3  0  0  0  0  0  0
  193.2960  176.6630  146.3410 C   0  0  0  0  0  2  0  0  0  0  0  0
  191.0600  176.7780  145.2340 N   0  0  2  0  0  0  0  0  0  0  0  0
  187.1350  178.1540  144.1840 N   0  0  0  0  0  2  0  0  0  0  0  0
  185.9730  177.4720  144.0320 O   0  0  0  0  0  0  0  0  0  0  0  0
  185.3860  177.5810  147.4890 N   0  0  0  0  0  2  0  0  0  0  0  0
  185.7320  179.1410  145.7000 C   0  0  0  0  0  2  0  0  0  0  0  0
  185.1790  177.8800  145.1050 C   0  0  2  0  0  3  0  0  0  0  0  0
  185.4400  179.0030  147.1730 C   0  0  0  0  0  2  0  0  0  0  0  0
  185.2580  176.8650  146.2240 C   0  0  0  0  0  2  0  0  0  0  0  0
  1 26  1  1  0  0  0
  3 19  1  0  0  0  0
  3 16  1  0  0  0  0
  4 15  1  6  0  0  0
  4 23  1  0  0  0  0
  5 11  1  0  0  0  0
  5 15  2  0  0  0  0
  6 19  1  0  0  0  0
  7  3  2  0  0  0  0
  8 12  1  0  0  0  0
  9 25  1  0  0  0  0
  9 27  1  0  0  0  0
 10 17  1  0  0  0  0
 11 20  2  0  0  0  0
 13  9  1  0  0  0  0
 14  2  1  0  0  0  0
 15 12  1  0  0  0  0
 16  8  1  0  0  0  0
 17 28  1  0  0  0  0
 17 25  1  0  0  0  0
 18  4  1  0  0  0  0
 18  1  1  0  0  0  0
 19  5  1  0  0  0  0
 20 13  1  0  0  0  0
 20 18  1  0  0  0  0
 22 24  2  0  0  0  0
 22 10  1  0  0  0  0
 23 21  1  0  0  0  0
 24 13  1  0  0  0  0
 25 14  1  0  0  0  0
 26 21  1  0  0  0  0
 27  1  1  0  0  0  0
 27  2  1  0  0  0  0
 29 28  1  0  0  0  0
 29 32  1  0  0  0  0
 31 33  1  0  0  0  0
 32 31  1  0  0  0  0
 32 34  1  0  0  0  0
 33 30  1  0  0  0  0
 34 30  1  0  0  0  0
M  END
>  <MODEL>
3

>  <REMARK>
 VINA RESULT:      -8.2      2.463      8.743
  Name = 
  3 active torsions:
  status: ('A' for Active; 'I' for Inactive)
    1  A    between atoms: C_17  and  N_28
    2  A    between atoms: N_28  and  O_29
    3  A    between atoms: O_29  and  C_32
                            x       y       z     vdW  Elec       q    Type
                         _______ _______ _______ _____ _____    ______ ____

>  <TORSDO>
F 3

$$$$
=
 OpenBabel11112418033D

 34 40  0  0  1  0  0  0  0  0999 V2000
  189.4950  175.2300  144.9740 C   0  0  1  0  0  3  0  0  0  0  0  0
  190.8840  173.2510  144.9530 C   0  0  0  0  0  2  0  0  0  0  0  0
  184.3430  178.4540  142.6300 C   0  0  0  0  0  0  0  0  0  0  0  0
  188.0970  177.2770  144.8560 C   0  0  2  0  0  3  0  0  0  0  0  0
  186.7030  177.7080  142.8420 C   0  0  0  0  0  0  0  0  0  0  0  0
  185.6690  178.1070  140.5250 C   0  0  0  0  0  1  0  0  0  0  0  0
  183.4230  177.7160  142.1860 O   0  0  0  0  0  0  0  0  0  0  0  0
  185.2360  180.0030  144.3380 C   0  0  0  0  0  2  0  0  0  0  0  0
  190.0080  174.0710  143.0310 C   0  0  2  0  0  3  0  0  0  0  0  0
  189.5320  172.1870  140.4050 C   0  0  0  0  0  2  0  0  0  0  0  0
  187.4060  176.5660  142.1940 C   0  0  0  0  0  3  0  0  0  0  0  0
  186.2510  179.0680  144.9910 C   0  0  0  0  0  2  0  0  0  0  0  0
  188.7630  174.4790  142.2340 C   0  0  1  0  0  3  0  0  0  0  0  0
  191.3700  172.3080  143.8620 C   0  0  0  0  0  2  0  0  0  0  0  0
  186.9690  178.0140  144.1500 C   0  0  0  0  0  0  0  0  0  0  0  0
  184.1230  179.2440  143.7910 N   0  0  0  0  0  2  0  0  0  0  0  0
  189.8580  171.8350  141.8700 C   0  0  2  0  0  3  0  0  0  0  0  0
  188.2160  175.8320  144.3790 C   0  0  1  0  0  3  0  0  0  0  0  0
  185.7010  178.4770  142.0060 C   0  0  1  0  0  3  0  0  0  0  0  0
  188.1830  175.7220  142.8760 C   0  0  0  0  0  0  0  0  0  0  0  0
  189.1380  176.7090  146.9400 C   0  0  0  0  0  2  0  0  0  0  0  0
  189.5090  173.6500  140.0100 C   0  0  0  0  0  3  0  0  0  0  0  0
  187.9360  177.2760  146.3160 N   0  0  0  0  0  2  0  0  0  0  0  0
  189.1410  174.6710  140.7970 C   0  0  0  0  0  3  0  0  0  0  0  0
  190.7860  172.8470  142.5610 C   0  0  1  0  0  3  0  0  0  0  0  0
  189.3550  175.2560  146.4950 C   0  0  0  0  0  2  0  0  0  0  0  0
  189.6810  173.8820  144.4360 N   0  0  2  0  0  0  0  0  0  0  0  0
  190.4200  170.4920  141.9120 N   0  0  0  0  0  2  0  0  0  0  0  0
  190.9400  170.2450  140.6860 O   0  0  0  0  0  0  0  0  0  0  0  0
  194.1050  170.0850  142.1910 N   0  0  0  0  0  2  0  0  0  0  0  0
  192.0390  168.8680  142.2730 C   0  0  0  0  0  2  0  0  0  0  0  0
  192.1200  169.5420  140.9350 C   0  0  2  0  0  3  0  0  0  0  0  0
  193.4540  168.9270  142.7910 C   0  0  0  0  0  2  0  0  0  0  0  0
  193.2800  170.5030  141.0620 C   0  0  0  0  0  2  0  0  0  0  0  0
  1 26  1  1  0  0  0
  3 16  1  0  0  0  0
  4 15  1  6  0  0  0
  4 23  1  0  0  0  0
  5 15  2  0  0  0  0
  6 19  1  0  0  0  0
  7  3  2  0  0  0  0
  8 12  1  0  0  0  0
  9 27  1  0  0  0  0
 10 17  1  0  0  0  0
 11  5  1  0  0  0  0
 11 20  2  0  0  0  0
 13 20  1  0  0  0  0
 13  9  1  0  0  0  0
 14  2  1  0  0  0  0
 15 12  1  0  0  0  0
 16  8  1  0  0  0  0
 17 28  1  0  0  0  0
 17 25  1  0  0  0  0
 18  4  1  0  0  0  0
 18  1  1  0  0  0  0
 19  3  1  0  0  0  0
 19  5  1  0  0  0  0
 20 18  1  0  0  0  0
 22 10  1  0  0  0  0
 22 24  2  0  0  0  0
 23 21  1  0  0  0  0
 24 13  1  0  0  0  0
 25  9  1  0  0  0  0
 25 14  1  0  0  0  0
 26 21  1  0  0  0  0
 27  2  1  0  0  0  0
 27  1  1  0  0  0  0
 29 32  1  0  0  0  0
 29 28  1  0  0  0  0
 30 33  1  0  0  0  0
 31 33  1  0  0  0  0
 32 34  1  0  0  0  0
 32 31  1  0  0  0  0
 34 30  1  0  0  0  0
M  END
>  <MODEL>
4

>  <REMARK>
 VINA RESULT:      -8.1      3.342      5.080
  Name = 
  3 active torsions:
  status: ('A' for Active; 'I' for Inactive)
    1  A    between atoms: C_17  and  N_28
    2  A    between atoms: N_28  and  O_29
    3  A    between atoms: O_29  and  C_32
                            x       y       z     vdW  Elec       q    Type
                         _______ _______ _______ _____ _____    ______ ____

>  <TORSDO>
F 3

$$$$
=
 OpenBabel11112418033D

 34 40  0  0  1  0  0  0  0  0999 V2000
  191.9150  174.5790  142.5460 C   0  0  1  0  0  3  0  0  0  0  0  0
  189.6570  175.3800  142.8770 C   0  0  0  0  0  2  0  0  0  0  0  0
  197.2570  171.7800  145.0060 C   0  0  0  0  0  0  0  0  0  0  0  0
  194.2730  173.8450  142.3100 C   0  0  2  0  0  3  0  0  0  0  0  0
  195.6980  173.5940  144.3340 C   0  0  0  0  0  0  0  0  0  0  0  0
  197.0480  173.7820  146.5100 C   0  0  0  0  0  1  0  0  0  0  0  0
  197.0420  171.0110  145.9810 O   0  0  0  0  0  0  0  0  0  0  0  0
  197.8660  172.1500  142.6390 C   0  0  0  0  0  2  0  0  0  0  0  0
  191.2220  175.6250  144.4980 C   0  0  2  0  0  3  0  0  0  0  0  0
  190.4160  175.9480  147.6460 C   0  0  0  0  0  2  0  0  0  0  0  0
  194.6030  174.2460  145.1040 C   0  0  0  0  0  3  0  0  0  0  0  0
  196.4930  172.5540  142.1070 C   0  0  0  0  0  2  0  0  0  0  0  0
  192.2430  174.9700  145.4350 C   0  0  1  0  0  3  0  0  0  0  0  0
  188.9360  176.0780  144.0220 C   0  0  0  0  0  2  0  0  0  0  0  0
  195.5230  173.3230  143.0030 C   0  0  0  0  0  0  0  0  0  0  0  0
  197.7270  171.2520  143.7740 N   0  0  0  0  0  2  0  0  0  0  0  0
  189.5870  175.5210  146.4190 C   0  0  2  0  0  3  0  0  0  0  0  0
  193.0660  173.8480  143.2460 C   0  0  1  0  0  3  0  0  0  0  0  0
  196.9670  173.2450  145.0840 C   0  0  1  0  0  3  0  0  0  0  0  0
  193.3870  174.4490  144.5900 C   0  0  0  0  0  0  0  0  0  0  0  0
  192.8320  173.7280  140.3990 C   0  0  0  0  0  2  0  0  0  0  0  0
  191.8400  176.4130  147.4210 C   0  0  0  0  0  3  0  0  0  0  0  0
  193.9340  173.0690  141.1110 N   0  0  0  0  0  2  0  0  0  0  0  0
  192.6710  175.9670  146.4690 C   0  0  0  0  0  3  0  0  0  0  0  0
  189.9790  176.2480  145.1220 C   0  0  1  0  0  3  0  0  0  0  0  0
  191.5750  173.8010  141.2760 C   0  0  0  0  0  2  0  0  0  0  0  0
  190.7880  174.6870  143.4740 N   0  0  2  0  0  0  0  0  0  0  0  0
  188.1750  175.7070  146.7200 N   0  0  0  0  0  2  0  0  0  0  0  0
  188.0270  176.9910  147.1280 O   0  0  0  0  0  0  0  0  0  0  0  0
  185.1110  178.9260  146.8760 N   0  0  0  0  0  2  0  0  0  0  0  0
  185.8970  176.7950  146.1040 C   0  0  0  0  0  2  0  0  0  0  0  0
  186.6570  177.1370  147.3510 C   0  0  2  0  0  3  0  0  0  0  0  0
  184.7200  177.7370  146.1300 C   0  0  0  0  0  2  0  0  0  0  0  0
  186.3250  178.5890  147.6130 C   0  0  0  0  0  2  0  0  0  0  0  0
  1 26  1  6  0  0  0
  1 18  1  0  0  0  0
  1 27  1  0  0  0  0
  2 27  1  0  0  0  0
  2 14  1  0  0  0  0
  3 19  1  0  0  0  0
  3  7  2  0  0  0  0
  4 23  1  6  0  0  0
  4 15  1  0  0  0  0
  4 18  1  0  0  0  0
  5 19  1  0  0  0  0
  5 11  1  0  0  0  0
  8 16  1  0  0  0  0
  9 25  1  0  0  0  0
  9 13  1  0  0  0  0
 12  8  1  0  0  0  0
 12 15  1  0  0  0  0
 13 24  1  0  0  0  0
 14 25  1  0  0  0  0
 15  5  2  0  0  0  0
 16  3  1  0  0  0  0
 17 28  1  0  0  0  0
 17 10  1  0  0  0  0
 18 20  1  0  0  0  0
 19  6  1  0  0  0  0
 20 11  2  0  0  0  0
 20 13  1  0  0  0  0
 21 23  1  0  0  0  0
 21 26  1  0  0  0  0
 22 10  1  0  0  0  0
 24 22  2  0  0  0  0
 25 17  1  0  0  0  0
 27  9  1  0  0  0  0
 28 29  1  0  0  0  0
 29 32  1  0  0  0  0
 30 34  1  0  0  0  0
 31 33  1  0  0  0  0
 31 32  1  0  0  0  0
 32 34  1  0  0  0  0
 33 30  1  0  0  0  0
M  END
>  <MODEL>
5

>  <REMARK>
 VINA RESULT:      -8.0      2.539      8.703
  Name = 
  3 active torsions:
  status: ('A' for Active; 'I' for Inactive)
    1  A    between atoms: C_17  and  N_28
    2  A    between atoms: N_28  and  O_29
    3  A    between atoms: O_29  and  C_32
                            x       y       z     vdW  Elec       q    Type
                         _______ _______ _______ _____ _____    ______ ____

>  <TORSDO>
F 3

$$$$
=
 OpenBabel11112418033D

 34 40  0  0  1  0  0  0  0  0999 V2000
  189.2620  174.7390  142.0720 C   0  0  1  0  0  3  0  0  0  0  0  0
  187.0940  175.7470  142.4380 C   0  0  0  0  0  2  0  0  0  0  0  0
  194.6950  172.1410  144.5530 C   0  0  0  0  0  0  0  0  0  0  0  0
  191.5420  173.8080  141.7750 C   0  0  2  0  0  3  0  0  0  0  0  0
  193.1630  173.8810  143.6620 C   0  0  0  0  0  0  0  0  0  0  0  0
  194.7470  174.4200  145.6090 C   0  0  0  0  0  1  0  0  0  0  0  0
  194.5490  171.6070  145.6850 O   0  0  0  0  0  0  0  0  0  0  0  0
  195.0630  171.9710  142.1140 C   0  0  0  0  0  2  0  0  0  0  0  0
  188.8340  176.2120  143.8140 C   0  0  2  0  0  3  0  0  0  0  0  0
  188.3880  177.2340  146.8830 C   0  0  0  0  0  2  0  0  0  0  0  0
  192.1900  174.7540  144.3750 C   0  0  0  0  0  3  0  0  0  0  0  0
  193.6620  172.3510  141.6410 C   0  0  0  0  0  2  0  0  0  0  0  0
  189.9180  175.6940  144.7670 C   0  0  1  0  0  3  0  0  0  0  0  0
  186.5360  176.7160  143.4710 C   0  0  0  0  0  2  0  0  0  0  0  0
  192.8330  173.3540  142.4410 C   0  0  0  0  0  0  0  0  0  0  0  0
  195.0040  171.3380  143.4220 N   0  0  0  0  0  2  0  0  0  0  0  0
  187.4130  176.6220  145.8590 C   0  0  2  0  0  3  0  0  0  0  0  0
  190.4450  174.0890  142.7990 C   0  0  1  0  0  3  0  0  0  0  0  0
  194.4860  173.6070  144.3440 C   0  0  1  0  0  3  0  0  0  0  0  0
  190.9370  174.9310  143.9480 C   0  0  0  0  0  0  0  0  0  0  0  0
  189.9000  173.4000  140.0780 C   0  0  0  0  0  2  0  0  0  0  0  0
  189.8010  177.5410  146.4310 C   0  0  0  0  0  3  0  0  0  0  0  0
  191.0390  172.8270  140.8060 N   0  0  0  0  0  2  0  0  0  0  0  0
  190.5020  176.8500  145.5210 C   0  0  0  0  0  3  0  0  0  0  0  0
  187.6970  177.0360  144.4060 C   0  0  1  0  0  3  0  0  0  0  0  0
  188.7500  173.7410  141.0350 C   0  0  0  0  0  2  0  0  0  0  0  0
  188.2480  175.1150  143.0580 N   0  0  2  0  0  0  0  0  0  0  0  0
  186.0520  176.9650  146.2470 N   0  0  0  0  0  2  0  0  0  0  0  0
  186.1330  178.0700  147.0260 O   0  0  0  0  0  0  0  0  0  0  0  0
  184.8620  179.8120  144.2590 N   0  0  0  0  0  2  0  0  0  0  0  0
  184.0830  178.1850  145.8400 C   0  0  0  0  0  2  0  0  0  0  0  0
  185.1960  178.9540  146.4870 C   0  0  2  0  0  3  0  0  0  0  0  0
  183.6920  179.0410  144.6610 C   0  0  0  0  0  2  0  0  0  0  0  0
  185.8180  179.7460  145.3590 C   0  0  0  0  0  2  0  0  0  0  0  0
  1 26  1  6  0  0  0
  1 18  1  0  0  0  0
  1 27  1  0  0  0  0
  2 27  1  0  0  0  0
  2 14  1  0  0  0  0
  3  7  2  0  0  0  0
  4 23  1  6  0  0  0
  4 15  1  0  0  0  0
  4 18  1  0  0  0  0
  5 19  1  0  0  0  0
  5 11  1  0  0  0  0
  8 16  1  0  0  0  0
  9 25  1  0  0  0  0
  9 13  1  0  0  0  0
 12  8  1  0  0  0  0
 12 15  1  0  0  0  0
 13 24  1  0  0  0  0
 14 25  1  0  0  0  0
 15  5  2  0  0  0  0
 16  3  1  0  0  0  0
 17 28  1  0  0  0  0
 17 10  1  0  0  0  0
 18 20  1  0  0  0  0
 19  3  1  0  0  0  0
 19  6  1  0  0  0  0
 20 11  2  0  0  0  0
 20 13  1  0  0  0  0
 21 23  1  0  0  0  0
 21 26  1  0  0  0  0
 22 10  1  0  0  0  0
 24 22  2  0  0  0  0
 25 17  1  0  0  0  0
 27  9  1  0  0  0  0
 28 29  1  0  0  0  0
 30 33  1  0  0  0  0
 30 34  1  0  0  0  0
 31 32  1  0  0  0  0
 32 29  1  0  0  0  0
 33 31  1  0  0  0  0
 34 32  1  0  0  0  0
M  END
>  <MODEL>
6

>  <REMARK>
 VINA RESULT:      -8.0      2.231      8.096
  Name = 
  3 active torsions:
  status: ('A' for Active; 'I' for Inactive)
    1  A    between atoms: C_17  and  N_28
    2  A    between atoms: N_28  and  O_29
    3  A    between atoms: O_29  and  C_32
                            x       y       z     vdW  Elec       q    Type
                         _______ _______ _______ _____ _____    ______ ____

>  <TORSDO>
F 3

$$$$
=
 OpenBabel11112418033D

 34 40  0  0  1  0  0  0  0  0999 V2000
  190.7470  175.9220  145.5700 C   0  0  1  0  0  3  0  0  0  0  0  0
  188.4210  176.5790  145.4790 C   0  0  0  0  0  2  0  0  0  0  0  0
  196.3820  174.9070  142.4650 C   0  0  0  0  0  0  0  0  0  0  0  0
  193.1040  175.1470  145.5690 C   0  0  2  0  0  3  0  0  0  0  0  0
  194.1570  174.3950  143.4440 C   0  0  0  0  0  0  0  0  0  0  0  0
  194.8780  173.3230  141.2240 C   0  0  0  0  0  1  0  0  0  0  0  0
  196.5350  175.5980  141.4220 O   0  0  0  0  0  0  0  0  0  0  0  0
  196.9450  174.3910  144.8170 C   0  0  0  0  0  2  0  0  0  0  0  0
  189.3490  175.3680  143.8030 C   0  0  2  0  0  3  0  0  0  0  0  0
  188.1340  175.3940  140.7720 C   0  0  0  0  0  2  0  0  0  0  0  0
  192.8030  174.4650  142.8270 C   0  0  0  0  0  3  0  0  0  0  0  0
  195.6670  174.9010  145.4780 C   0  0  0  0  0  2  0  0  0  0  0  0
  190.4400  175.2430  142.7330 C   0  0  1  0  0  3  0  0  0  0  0  0
  187.2990  176.3690  144.4720 C   0  0  0  0  0  2  0  0  0  0  0  0
  194.3320  174.7950  144.7420 C   0  0  0  0  0  0  0  0  0  0  0  0
  197.2150  175.1310  143.5950 N   0  0  0  0  0  2  0  0  0  0  0  0
  187.8580  176.2970  141.9900 C   0  0  2  0  0  3  0  0  0  0  0  0
  192.0160  175.7970  144.7180 C   0  0  1  0  0  3  0  0  0  0  0  0
  195.2930  173.8890  142.5800 C   0  0  1  0  0  3  0  0  0  0  0  0
  191.7660  175.0440  143.4370 C   0  0  0  0  0  0  0  0  0  0  0  0
  192.2370  176.1990  147.5400 C   0  0  0  0  0  2  0  0  0  0  0  0
  189.0430  174.1970  140.9600 C   0  0  0  0  0  3  0  0  0  0  0  0
  193.4220  176.0440  146.6870 N   0  0  0  0  0  2  0  0  0  0  0  0
  190.0860  174.1260  141.7980 C   0  0  0  0  0  3  0  0  0  0  0  0
  187.9110  175.5560  143.3370 C   0  0  1  0  0  3  0  0  0  0  0  0
  191.0750  176.8250  146.7590 C   0  0  0  0  0  2  0  0  0  0  0  0
  189.6630  176.4400  144.7350 N   0  0  2  0  0  0  0  0  0  0  0  0
  186.5740  176.9560  141.8020 N   0  0  0  0  0  2  0  0  0  0  0  0
  186.8300  178.2780  141.6480 O   0  0  0  0  0  0  0  0  0  0  0  0
  183.9820  178.2630  143.6960 N   0  0  0  0  0  2  0  0  0  0  0  0
  185.9700  179.5800  143.4330 C   0  0  0  0  0  2  0  0  0  0  0  0
  185.6830  178.9190  142.1170 C   0  0  2  0  0  3  0  0  0  0  0  0
  184.6750  179.4460  144.1940 C   0  0  0  0  0  2  0  0  0  0  0  0
  184.6100  177.9000  142.4300 C   0  0  0  0  0  2  0  0  0  0  0  0
  1 26  1  1  0  0  0
  3 19  1  0  0  0  0
  3 16  1  0  0  0  0
  4 15  1  6  0  0  0
  4 23  1  0  0  0  0
  5 15  2  0  0  0  0
  6 19  1  0  0  0  0
  7  3  2  0  0  0  0
  8 12  1  0  0  0  0
  9 27  1  0  0  0  0
 10 22  1  0  0  0  0
 10 17  1  0  0  0  0
 11 20  2  0  0  0  0
 11  5  1  0  0  0  0
 13 20  1  0  0  0  0
 13  9  1  0  0  0  0
 14  2  1  0  0  0  0
 15 12  1  0  0  0  0
 16  8  1  0  0  0  0
 17 25  1  0  0  0  0
 18  4  1  0  0  0  0
 18  1  1  0  0  0  0
 19  5  1  0  0  0  0
 20 18  1  0  0  0  0
 22 24  2  0  0  0  0
 23 21  1  0  0  0  0
 24 13  1  0  0  0  0
 25  9  1  0  0  0  0
 25 14  1  0  0  0  0
 26 21  1  0  0  0  0
 27  2  1  0  0  0  0
 27  1  1  0  0  0  0
 28 17  1  0  0  0  0
 29 28  1  0  0  0  0
 29 32  1  0  0  0  0
 30 33  1  0  0  0  0
 31 33  1  0  0  0  0
 32 34  1  0  0  0  0
 32 31  1  0  0  0  0
 34 30  1  0  0  0  0
M  END
>  <MODEL>
7

>  <REMARK>
 VINA RESULT:      -8.0      1.746      8.857
  Name = 
  3 active torsions:
  status: ('A' for Active; 'I' for Inactive)
    1  A    between atoms: C_17  and  N_28
    2  A    between atoms: N_28  and  O_29
    3  A    between atoms: O_29  and  C_32
                            x       y       z     vdW  Elec       q    Type
                         _______ _______ _______ _____ _____    ______ ____

>  <TORSDO>
F 3

$$$$
=
 OpenBabel11112418033D

 34 40  0  0  1  0  0  0  0  0999 V2000
  190.8290  173.7850  141.6000 C   0  0  1  0  0  3  0  0  0  0  0  0
  188.4860  174.1700  142.0600 C   0  0  0  0  0  2  0  0  0  0  0  0
  197.0420  174.3000  143.4870 C   0  0  0  0  0  0  0  0  0  0  0  0
  193.2540  173.5290  141.1430 C   0  0  2  0  0  3  0  0  0  0  0  0
  194.9000  174.9170  142.3900 C   0  0  0  0  0  0  0  0  0  0  0  0
  196.3470  176.7140  143.5170 C   0  0  0  0  0  1  0  0  0  0  0  0
  197.2080  174.3200  144.7360 O   0  0  0  0  0  0  0  0  0  0  0  0
  197.2200  173.1580  141.3010 C   0  0  0  0  0  2  0  0  0  0  0  0
  190.0520  175.6910  142.6710 C   0  0  2  0  0  3  0  0  0  0  0  0
  189.5460  177.8130  145.1010 C   0  0  0  0  0  2  0  0  0  0  0  0
  193.7450  175.6920  142.9180 C   0  0  0  0  0  3  0  0  0  0  0  0
  195.7400  172.8560  141.0760 C   0  0  0  0  0  2  0  0  0  0  0  0
  191.3330  176.0020  143.4540 C   0  0  1  0  0  3  0  0  0  0  0  0
  187.7080  175.2920  142.7330 C   0  0  0  0  0  2  0  0  0  0  0  0
  194.6770  173.8240  141.5950 C   0  0  0  0  0  0  0  0  0  0  0  0
  197.5190  173.2010  142.7240 N   0  0  0  0  0  2  0  0  0  0  0  0
  188.7750  176.5500  144.6720 C   0  0  2  0  0  3  0  0  0  0  0  0
  192.2310  173.9100  142.2100 C   0  0  1  0  0  3  0  0  0  0  0  0
  196.2890  175.3800  142.7780 C   0  0  1  0  0  3  0  0  0  0  0  0
  192.4810  175.2840  142.7770 C   0  0  0  0  0  0  0  0  0  0  0  0
  191.7290  171.9380  140.2010 C   0  0  0  0  0  2  0  0  0  0  0  0
  190.6980  178.2780  144.2330 C   0  0  0  0  0  3  0  0  0  0  0  0
  193.0610  172.1170  140.7920 N   0  0  0  0  0  2  0  0  0  0  0  0
  191.5170  177.4880  143.5250 C   0  0  0  0  0  3  0  0  0  0  0  0
  188.7510  176.3230  143.1510 C   0  0  1  0  0  3  0  0  0  0  0  0
  190.6280  172.3250  141.1970 C   0  0  0  0  0  2  0  0  0  0  0  0
  189.8440  174.2540  142.5750 N   0  0  2  0  0  0  0  0  0  0  0  0
  187.4260  176.6190  145.2150 N   0  0  0  0  0  2  0  0  0  0  0  0
  187.5030  176.2300  146.5100 O   0  0  0  0  0  0  0  0  0  0  0  0
  185.4630  179.0150  147.1350 N   0  0  0  0  0  2  0  0  0  0  0  0
  185.2460  176.8480  146.1270 C   0  0  0  0  0  2  0  0  0  0  0  0
  186.3730  176.7820  147.1150 C   0  0  2  0  0  3  0  0  0  0  0  0
  184.5100  178.1090  146.5050 C   0  0  0  0  0  2  0  0  0  0  0  0
  186.6360  178.2230  147.4910 C   0  0  0  0  0  2  0  0  0  0  0  0
  1 26  1  1  0  0  0
  1 18  1  0  0  0  0
  1 27  1  0  0  0  0
  2 27  1  0  0  0  0
  2 14  1  0  0  0  0
  3  7  2  0  0  0  0
  4 23  1  1  0  0  0
  4 15  1  0  0  0  0
  4 18  1  0  0  0  0
  5 19  1  0  0  0  0
  5 11  1  0  0  0  0
  8 16  1  0  0  0  0
  9 25  1  0  0  0  0
  9 13  1  0  0  0  0
 12  8  1  0  0  0  0
 12 15  1  0  0  0  0
 13 24  1  0  0  0  0
 14 25  1  0  0  0  0
 15  5  2  0  0  0  0
 16  3  1  0  0  0  0
 17 10  1  0  0  0  0
 17 28  1  0  0  0  0
 18 20  1  0  0  0  0
 19  3  1  0  0  0  0
 19  6  1  0  0  0  0
 20 11  2  0  0  0  0
 20 13  1  0  0  0  0
 21 23  1  0  0  0  0
 21 26  1  0  0  0  0
 22 10  1  0  0  0  0
 24 22  2  0  0  0  0
 25 17  1  0  0  0  0
 27  9  1  0  0  0  0
 28 29  1  0  0  0  0
 29 32  1  0  0  0  0
 30 34  1  0  0  0  0
 31 33  1  0  0  0  0
 31 32  1  0  0  0  0
 32 34  1  0  0  0  0
 33 30  1  0  0  0  0
M  END
>  <MODEL>
8

>  <REMARK>
 VINA RESULT:      -7.9      2.551      8.427
  Name = 
  3 active torsions:
  status: ('A' for Active; 'I' for Inactive)
    1  A    between atoms: C_17  and  N_28
    2  A    between atoms: N_28  and  O_29
    3  A    between atoms: O_29  and  C_32
                            x       y       z     vdW  Elec       q    Type
                         _______ _______ _______ _____ _____    ______ ____

>  <TORSDO>
F 3

$$$$
=
 OpenBabel11112418033D

 34 40  0  0  1  0  0  0  0  0999 V2000
  189.5240  174.8240  142.1210 C   0  0  1  0  0  3  0  0  0  0  0  0
  188.1390  176.6640  142.8620 C   0  0  0  0  0  2  0  0  0  0  0  0
  193.0560  169.5560  143.5990 C   0  0  0  0  0  0  0  0  0  0  0  0
  191.0470  172.9860  141.4470 C   0  0  2  0  0  3  0  0  0  0  0  0
  192.5480  171.9420  143.1340 C   0  0  0  0  0  0  0  0  0  0  0  0
  194.2480  171.3060  144.9510 C   0  0  0  0  0  1  0  0  0  0  0  0
  192.6990  168.9670  144.6550 O   0  0  0  0  0  0  0  0  0  0  0  0
  193.2240  169.6610  141.1340 C   0  0  0  0  0  2  0  0  0  0  0  0
  189.9220  175.9900  144.0870 C   0  0  2  0  0  3  0  0  0  0  0  0
  190.1210  176.5440  147.3000 C   0  0  0  0  0  2  0  0  0  0  0  0
  192.1480  173.0330  144.0650 C   0  0  0  0  0  3  0  0  0  0  0  0
  192.1760  170.7410  140.8770 C   0  0  0  0  0  2  0  0  0  0  0  0
  190.6400  174.8600  144.8340 C   0  0  1  0  0  3  0  0  0  0  0  0
  188.1570  177.5830  144.0750 C   0  0  0  0  0  2  0  0  0  0  0  0
  191.9680  171.8610  141.8960 C   0  0  0  0  0  0  0  0  0  0  0  0
  192.9000  168.9160  142.3400 N   0  0  0  0  0  2  0  0  0  0  0  0
  188.9430  176.6630  146.3140 C   0  0  2  0  0  3  0  0  0  0  0  0
  190.2570  173.5720  142.6150 C   0  0  1  0  0  3  0  0  0  0  0  0
  193.5860  170.9530  143.6210 C   0  0  1  0  0  3  0  0  0  0  0  0
  191.1310  173.8590  143.8080 C   0  0  0  0  0  0  0  0  0  0  0  0
  189.3670  173.7180  139.9010 C   0  0  0  0  0  2  0  0  0  0  0  0
  191.4900  176.2120  146.7410 C   0  0  0  0  0  3  0  0  0  0  0  0
  190.1000  172.5520  140.4120 N   0  0  0  0  0  2  0  0  0  0  0  0
  191.7370  175.4430  145.6720 C   0  0  0  0  0  3  0  0  0  0  0  0
  189.3520  177.1390  144.9100 C   0  0  1  0  0  3  0  0  0  0  0  0
  188.5590  174.3920  141.0180 C   0  0  0  0  0  2  0  0  0  0  0  0
  188.8530  175.4600  143.2560 N   0  0  2  0  0  0  0  0  0  0  0  0
  187.9360  177.5410  146.8940 N   0  0  0  0  0  2  0  0  0  0  0  0
  187.0000  176.7430  147.4630 O   0  0  0  0  0  0  0  0  0  0  0  0
  185.2100  179.4150  146.0600 N   0  0  0  0  0  2  0  0  0  0  0  0
  185.1170  177.0170  146.0480 C   0  0  0  0  0  2  0  0  0  0  0  0
  185.8010  177.4410  147.3140 C   0  0  2  0  0  3  0  0  0  0  0  0
  184.4460  178.2780  145.5620 C   0  0  0  0  0  2  0  0  0  0  0  0
  186.0780  178.9150  147.1220 C   0  0  0  0  0  2  0  0  0  0  0  0
  1 26  1  6  0  0  0
  1 18  1  0  0  0  0
  1 27  1  0  0  0  0
  2 27  1  0  0  0  0
  2 14  1  0  0  0  0
  3 19  1  0  0  0  0
  3  7  2  0  0  0  0
  4 23  1  6  0  0  0
  4 15  1  0  0  0  0
  4 18  1  0  0  0  0
  5 19  1  0  0  0  0
  5 11  1  0  0  0  0
  8 16  1  0  0  0  0
  9 13  1  0  0  0  0
  9 25  1  0  0  0  0
 12  8  1  0  0  0  0
 12 15  1  0  0  0  0
 13 24  1  0  0  0  0
 14 25  1  0  0  0  0
 15  5  2  0  0  0  0
 16  3  1  0  0  0  0
 17 28  1  0  0  0  0
 17 10  1  0  0  0  0
 18 20  1  0  0  0  0
 19  6  1  0  0  0  0
 20 11  2  0  0  0  0
 20 13  1  0  0  0  0
 21 23  1  0  0  0  0
 21 26  1  0  0  0  0
 22 10  1  0  0  0  0
 24 22  2  0  0  0  0
 25 17  1  0  0  0  0
 27  9  1  0  0  0  0
 28 29  1  0  0  0  0
 30 34  1  0  0  0  0
 31 32  1  0  0  0  0
 32 29  1  0  0  0  0
 33 31  1  0  0  0  0
 33 30  1  0  0  0  0
 34 32  1  0  0  0  0
M  END
>  <MODEL>
9

>  <REMARK>
 VINA RESULT:      -7.8      3.135      7.951
  Name = 
  3 active torsions:
  status: ('A' for Active; 'I' for Inactive)
    1  A    between atoms: C_17  and  N_28
    2  A    between atoms: N_28  and  O_29
    3  A    between atoms: O_29  and  C_32
                            x       y       z     vdW  Elec       q    Type
                         _______ _______ _______ _____ _____    ______ ____

>  <TORSDO>
F 3

$$$$
