=
 OpenBabel11112416563D

 31 35  0  0  1  0  0  0  0  0999 V2000
  185.6270  178.0080  146.8810 C   0  0  0  0  0  0  0  0  0  0  0  0
  186.7190  176.7870  143.3860 C   0  0  0  0  0  0  0  0  0  0  0  0
  185.7380  177.3570  142.4040 C   0  0  0  0  0  0  0  0  0  0  0  0
  183.5620  178.3040  141.8460 C   0  0  0  0  0  0  0  0  0  0  0  0
  186.6680  177.0340  144.7850 C   0  0  0  0  0  0  0  0  0  0  0  0
  186.6810  177.3600  147.6670 C   0  0  0  0  0  3  0  0  0  0  0  0
  184.4640  177.8070  142.7910 C   0  0  0  0  0  3  0  0  0  0  0  0
  188.7020  175.4160  143.7510 C   0  0  0  0  0  0  0  0  0  0  0  0
  184.7020  178.6200  147.4730 O   0  0  0  0  0  0  0  0  0  0  0  0
  187.4150  176.9030  140.5770 C   0  0  0  0  0  2  0  0  0  0  0  0
  182.3130  178.7510  142.2500 O   0  0  0  0  0  1  0  0  0  0  0  0
  188.6140  175.6570  145.0820 N   0  0  0  0  0  0  0  0  0  0  0  0
  187.7670  175.9870  142.8730 C   0  0  0  0  0  0  0  0  0  0  0  0
  185.6590  177.9930  145.3800 C   0  0  0  0  0  2  0  0  0  0  0  0
  183.9180  178.3490  140.4970 C   0  0  0  0  0  3  0  0  0  0  0  0
  187.6430  176.4380  145.6160 C   0  0  0  0  0  0  0  0  0  0  0  0
  187.6250  176.6360  147.0730 C   0  0  0  0  0  3  0  0  0  0  0  0
  187.8390  175.6890  141.3970 C   0  0  0  0  0  2  0  0  0  0  0  0
  186.0730  177.3820  141.0330 C   0  0  0  0  0  0  0  0  0  0  0  0
  185.1720  177.8890  140.0920 C   0  0  0  0  0  3  0  0  0  0  0  0
  189.8210  174.5590  143.2480 C   0  0  0  0  0  2  0  0  0  0  0  0
  191.5670  174.9150  141.6520 O   0  0  0  0  0  1  0  0  0  0  0  0
  191.0100  175.4150  142.8330 C   0  0  2  0  0  3  0  0  0  0  0  0
  193.6920  175.2710  146.2010 C   0  0  0  0  0  0  0  0  0  0  0  0
  193.0870  174.4610  143.9630 C   0  0  0  0  0  2  0  0  0  0  0  0
  191.9000  177.7510  144.3160 O   0  0  0  0  0  0  0  0  0  0  0  0
  194.8280  175.5780  146.5190 O   0  0  0  0  0  0  0  0  0  0  0  0
  193.4250  174.0450  145.3940 C   0  0  0  0  0  2  0  0  0  0  0  0
  192.0450  176.5890  144.7800 C   0  0  0  0  0  0  0  0  0  0  0  0
  191.9980  175.4460  143.9110 N   0  0  0  0  0  0  0  0  0  0  0  0
  192.3170  176.3590  146.5370 S   0  0  0  0  0  0  0  0  0  0  0  0
  1  9  2  0  0  0  0
  1  6  1  0  0  0  0
  2  5  1  0  0  0  0
  3  7  1  0  0  0  0
  3  2  1  0  0  0  0
  4 11  1  0  0  0  0
  4  7  2  0  0  0  0
  5 14  1  0  0  0  0
  5 16  2  0  0  0  0
  8 12  2  0  0  0  0
 10 19  1  0  0  0  0
 10 18  1  0  0  0  0
 12 16  1  0  0  0  0
 13  2  2  0  0  0  0
 13  8  1  0  0  0  0
 14  1  1  0  0  0  0
 15  4  1  0  0  0  0
 16 17  1  0  0  0  0
 17  6  2  0  0  0  0
 18 13  1  0  0  0  0
 19  3  2  0  0  0  0
 20 15  2  0  0  0  0
 20 19  1  0  0  0  0
 21  8  1  0  0  0  0
 23 22  1  6  0  0  0
 23 21  1  0  0  0  0
 23 30  1  0  0  0  0
 24 27  2  0  0  0  0
 24 31  1  0  0  0  0
 25 28  1  0  0  0  0
 26 29  2  0  0  0  0
 28 24  1  0  0  0  0
 29 31  1  0  0  0  0
 30 25  1  0  0  0  0
 30 29  1  0  0  0  0
M  END
>  <MODEL>
1

>  <REMARK>
 VINA RESULT:      -8.7      0.000      0.000
  Name = 
  3 active torsions:
  status: ('A' for Active; 'I' for Inactive)
    1  A    between atoms: C_5  and  C_16
    2  A    between atoms: C_5  and  N_30
    3  A    between atoms: C_10  and  C_16
                            x       y       z     vdW  Elec       q    Type
                         _______ _______ _______ _____ _____    ______ ____

>  <TORSDO>
F 3

$$$$
=
 OpenBabel11112416563D

 31 35  0  0  1  0  0  0  0  0999 V2000
  185.1660  177.8610  141.0040 C   0  0  0  0  0  0  0  0  0  0  0  0
  187.4910  177.7510  144.0830 C   0  0  0  0  0  0  0  0  0  0  0  0
  186.6100  177.8660  145.2920 C   0  0  0  0  0  0  0  0  0  0  0  0
  184.5250  178.5100  146.3770 C   0  0  0  0  0  0  0  0  0  0  0  0
  187.0000  177.7270  142.7500 C   0  0  0  0  0  0  0  0  0  0  0  0
  186.1920  177.7400  139.9640 C   0  0  0  0  0  3  0  0  0  0  0  0
  185.3080  178.3880  145.2260 C   0  0  0  0  0  3  0  0  0  0  0  0
  189.7530  177.5340  143.2000 C   0  0  0  0  0  0  0  0  0  0  0  0
  183.9690  178.0540  140.6730 O   0  0  0  0  0  0  0  0  0  0  0  0
  188.5120  176.9510  146.6730 C   0  0  0  0  0  2  0  0  0  0  0  0
  183.2380  179.0200  146.2880 O   0  0  0  0  0  1  0  0  0  0  0  0
  189.2530  177.5330  141.9400 N   0  0  0  0  0  0  0  0  0  0  0  0
  188.8840  177.6280  144.2980 C   0  0  0  0  0  0  0  0  0  0  0  0
  185.5140  177.7120  142.4570 C   0  0  0  0  0  2  0  0  0  0  0  0
  185.0370  178.1200  147.6150 C   0  0  0  0  0  3  0  0  0  0  0  0
  187.9240  177.6220  141.6860 C   0  0  0  0  0  0  0  0  0  0  0  0
  187.4760  177.6190  140.2860 C   0  0  0  0  0  3  0  0  0  0  0  0
  189.4400  177.6690  145.6990 C   0  0  0  0  0  2  0  0  0  0  0  0
  187.1260  177.5030  146.5560 C   0  0  0  0  0  0  0  0  0  0  0  0
  186.3360  177.6160  147.7040 C   0  0  0  0  0  3  0  0  0  0  0  0
  191.2330  177.4080  143.3860 C   0  0  0  0  0  2  0  0  0  0  0  0
  190.6470  175.0890  143.4190 O   0  0  0  0  0  1  0  0  0  0  0  0
  191.6880  175.9780  143.1320 C   0  0  2  0  0  3  0  0  0  0  0  0
  195.1720  175.4790  145.6150 C   0  0  0  0  0  0  0  0  0  0  0  0
  192.7400  175.2750  145.3460 C   0  0  0  0  0  2  0  0  0  0  0  0
  194.2410  174.9640  142.1830 O   0  0  0  0  0  0  0  0  0  0  0  0
  195.8690  174.6050  146.1040 O   0  0  0  0  0  0  0  0  0  0  0  0
  193.8580  175.8410  146.2210 C   0  0  0  0  0  2  0  0  0  0  0  0
  194.1460  175.5570  143.2900 C   0  0  0  0  0  0  0  0  0  0  0  0
  192.8720  175.6840  143.9410 N   0  0  0  0  0  0  0  0  0  0  0  0
  195.6100  176.2430  144.0630 S   0  0  0  0  0  0  0  0  0  0  0  0
  1 14  1  0  0  0  0
  2 13  1  0  0  0  0
  2  3  1  0  0  0  0
  3 19  1  0  0  0  0
  4 15  2  0  0  0  0
  5  2  2  0  0  0  0
  6 17  2  0  0  0  0
  6  1  1  0  0  0  0
  7  3  2  0  0  0  0
  7  4  1  0  0  0  0
  8 21  1  0  0  0  0
  8 13  2  0  0  0  0
  9  1  2  0  0  0  0
 11  4  1  0  0  0  0
 12  8  1  0  0  0  0
 13 18  1  0  0  0  0
 14  5  1  0  0  0  0
 15 20  1  0  0  0  0
 16 12  2  0  0  0  0
 16  5  1  0  0  0  0
 17 16  1  0  0  0  0
 18 10  1  0  0  0  0
 19 10  1  0  0  0  0
 19 20  2  0  0  0  0
 23 21  1  0  0  0  0
 23 22  1  1  0  0  0
 23 30  1  0  0  0  0
 24 27  2  0  0  0  0
 24 28  1  0  0  0  0
 25 28  1  0  0  0  0
 26 29  2  0  0  0  0
 29 30  1  0  0  0  0
 29 31  1  0  0  0  0
 30 25  1  0  0  0  0
 31 24  1  0  0  0  0
M  END
>  <MODEL>
2

>  <REMARK>
 VINA RESULT:      -8.7      1.793      4.318
  Name = 
  3 active torsions:
  status: ('A' for Active; 'I' for Inactive)
    1  A    between atoms: C_5  and  C_16
    2  A    between atoms: C_5  and  N_30
    3  A    between atoms: C_10  and  C_16
                            x       y       z     vdW  Elec       q    Type
                         _______ _______ _______ _____ _____    ______ ____

>  <TORSDO>
F 3

$$$$
=
 OpenBabel11112416563D

 31 35  0  0  1  0  0  0  0  0999 V2000
  185.3240  177.9140  146.8160 C   0  0  0  0  0  0  0  0  0  0  0  0
  186.5310  177.0370  143.2560 C   0  0  0  0  0  0  0  0  0  0  0  0
  185.4950  177.5660  142.3070 C   0  0  0  0  0  0  0  0  0  0  0  0
  183.2340  178.3190  141.7980 C   0  0  0  0  0  0  0  0  0  0  0  0
  186.4570  177.1880  144.6670 C   0  0  0  0  0  0  0  0  0  0  0  0
  186.4390  177.3270  147.5640 C   0  0  0  0  0  3  0  0  0  0  0  0
  184.1830  177.8580  142.7140 C   0  0  0  0  0  3  0  0  0  0  0  0
  188.6440  175.8560  143.5430 C   0  0  0  0  0  0  0  0  0  0  0  0
  184.3410  178.3890  147.4400 O   0  0  0  0  0  0  0  0  0  0  0  0
  187.2080  177.4040  140.4640 C   0  0  0  0  0  2  0  0  0  0  0  0
  181.9460  178.6100  142.2240 O   0  0  0  0  0  1  0  0  0  0  0  0
  188.5330  176.0000  144.8870 N   0  0  0  0  0  0  0  0  0  0  0  0
  187.6550  176.3830  142.6980 C   0  0  0  0  0  0  0  0  0  0  0  0
  185.3560  177.9990  145.3170 C   0  0  0  0  0  2  0  0  0  0  0  0
  183.5820  178.4870  140.4570 C   0  0  0  0  0  3  0  0  0  0  0  0
  187.4880  176.6420  145.4640 C   0  0  0  0  0  0  0  0  0  0  0  0
  187.4520  176.7440  146.9300 C   0  0  0  0  0  3  0  0  0  0  0  0
  187.7550  176.1900  141.2070 C   0  0  0  0  0  2  0  0  0  0  0  0
  185.8240  177.7120  140.9420 C   0  0  0  0  0  0  0  0  0  0  0  0
  184.8760  178.1840  140.0300 C   0  0  0  0  0  3  0  0  0  0  0  0
  189.8450  175.1520  142.9920 C   0  0  0  0  0  2  0  0  0  0  0  0
  190.8510  173.2800  144.0900 O   0  0  0  0  0  1  0  0  0  0  0  0
  189.7740  173.6590  143.2830 C   0  0  2  0  0  3  0  0  0  0  0  0
  189.9090  171.7580  139.4200 C   0  0  0  0  0  0  0  0  0  0  0  0
  190.9140  172.0790  141.6380 C   0  0  0  0  0  2  0  0  0  0  0  0
  187.4480  172.6020  141.8980 O   0  0  0  0  0  0  0  0  0  0  0  0
  189.7700  170.6640  138.8980 O   0  0  0  0  0  0  0  0  0  0  0  0
  191.1710  172.1140  140.1320 C   0  0  0  0  0  2  0  0  0  0  0  0
  188.5360  172.7920  141.2930 C   0  0  0  0  0  0  0  0  0  0  0  0
  189.7650  172.9100  142.0260 N   0  0  0  0  0  0  0  0  0  0  0  0
  188.5520  172.9140  139.5050 S   0  0  0  0  0  0  0  0  0  0  0  0
  1  9  2  0  0  0  0
  1  6  1  0  0  0  0
  2  5  1  0  0  0  0
  3  7  1  0  0  0  0
  3  2  1  0  0  0  0
  4 11  1  0  0  0  0
  4  7  2  0  0  0  0
  5 14  1  0  0  0  0
  5 16  2  0  0  0  0
  8 12  2  0  0  0  0
 10 19  1  0  0  0  0
 10 18  1  0  0  0  0
 12 16  1  0  0  0  0
 13  2  2  0  0  0  0
 13  8  1  0  0  0  0
 14  1  1  0  0  0  0
 15  4  1  0  0  0  0
 16 17  1  0  0  0  0
 17  6  2  0  0  0  0
 18 13  1  0  0  0  0
 19  3  2  0  0  0  0
 20 15  2  0  0  0  0
 20 19  1  0  0  0  0
 21 23  1  0  0  0  0
 21  8  1  0  0  0  0
 23 22  1  1  0  0  0
 24 31  1  0  0  0  0
 24 28  1  0  0  0  0
 25 30  1  0  0  0  0
 27 24  2  0  0  0  0
 28 25  1  0  0  0  0
 29 26  2  0  0  0  0
 29 30  1  0  0  0  0
 30 23  1  0  0  0  0
 31 29  1  0  0  0  0
M  END
>  <MODEL>
3

>  <REMARK>
 VINA RESULT:      -8.6      2.639      3.731
  Name = 
  3 active torsions:
  status: ('A' for Active; 'I' for Inactive)
    1  A    between atoms: C_5  and  C_16
    2  A    between atoms: C_5  and  N_30
    3  A    between atoms: C_10  and  C_16
                            x       y       z     vdW  Elec       q    Type
                         _______ _______ _______ _____ _____    ______ ____

>  <TORSDO>
F 3

$$$$
=
 OpenBabel11112416563D

 31 35  0  0  1  0  0  0  0  0999 V2000
  185.4240  177.8100  141.0360 C   0  0  0  0  0  0  0  0  0  0  0  0
  187.6140  177.6690  144.2110 C   0  0  0  0  0  0  0  0  0  0  0  0
  186.6860  177.8090  145.3820 C   0  0  0  0  0  0  0  0  0  0  0  0
  184.5710  178.5040  146.3740 C   0  0  0  0  0  0  0  0  0  0  0  0
  187.1790  177.6470  142.8580 C   0  0  0  0  0  0  0  0  0  0  0  0
  186.4900  177.6610  140.0410 C   0  0  0  0  0  3  0  0  0  0  0  0
  185.3990  178.3580  145.2580 C   0  0  0  0  0  3  0  0  0  0  0  0
  189.9060  177.3980  143.4250 C   0  0  0  0  0  0  0  0  0  0  0  0
  184.2460  178.0260  140.6540 O   0  0  0  0  0  0  0  0  0  0  0  0
  188.5080  176.8620  146.8450 C   0  0  0  0  0  2  0  0  0  0  0  0
  183.3000  179.0410  146.2280 O   0  0  0  0  0  1  0  0  0  0  0  0
  189.4590  177.4000  142.1450 N   0  0  0  0  0  0  0  0  0  0  0  0
  188.9940  177.5170  144.4850 C   0  0  0  0  0  0  0  0  0  0  0  0
  185.7070  177.6620  142.5030 C   0  0  0  0  0  2  0  0  0  0  0  0
  185.0230  178.1100  147.6350 C   0  0  0  0  0  3  0  0  0  0  0  0
  188.1450  177.5160  141.8350 C   0  0  0  0  0  0  0  0  0  0  0  0
  187.7560  177.5150  140.4170 C   0  0  0  0  0  3  0  0  0  0  0  0
  189.4920  177.5550  145.9080 C   0  0  0  0  0  2  0  0  0  0  0  0
  187.1400  177.4430  146.6670 C   0  0  0  0  0  0  0  0  0  0  0  0
  186.3060  177.5800  147.7810 C   0  0  0  0  0  3  0  0  0  0  0  0
  191.3740  177.2420  143.6740 C   0  0  0  0  0  2  0  0  0  0  0  0
  193.0640  175.7090  144.3900 O   0  0  0  0  0  1  0  0  0  0  0  0
  191.6850  175.8500  144.2030 C   0  0  2  0  0  3  0  0  0  0  0  0
  190.0170  173.1650  141.2780 C   0  0  0  0  0  0  0  0  0  0  0  0
  191.9520  174.4340  142.1000 C   0  0  0  0  0  2  0  0  0  0  0  0
  189.8840  173.6580  144.8340 O   0  0  0  0  0  0  0  0  0  0  0  0
  190.0810  172.0020  140.9140 O   0  0  0  0  0  0  0  0  0  0  0  0
  191.0660  174.1510  140.8870 C   0  0  0  0  0  2  0  0  0  0  0  0
  190.0180  174.0730  143.6530 C   0  0  0  0  0  0  0  0  0  0  0  0
  191.1720  174.8410  143.2770 N   0  0  0  0  0  0  0  0  0  0  0  0
  188.7620  173.6980  142.4290 S   0  0  0  0  0  0  0  0  0  0  0  0
  1 14  1  0  0  0  0
  2 13  1  0  0  0  0
  2  3  1  0  0  0  0
  3 19  1  0  0  0  0
  4 15  2  0  0  0  0
  5  2  2  0  0  0  0
  6 17  2  0  0  0  0
  6  1  1  0  0  0  0
  7  3  2  0  0  0  0
  7  4  1  0  0  0  0
  8 21  1  0  0  0  0
  8 13  2  0  0  0  0
  9  1  2  0  0  0  0
 11  4  1  0  0  0  0
 12  8  1  0  0  0  0
 13 18  1  0  0  0  0
 14  5  1  0  0  0  0
 15 20  1  0  0  0  0
 16 12  2  0  0  0  0
 16  5  1  0  0  0  0
 17 16  1  0  0  0  0
 18 10  1  0  0  0  0
 19 10  1  0  0  0  0
 19 20  2  0  0  0  0
 21 23  1  0  0  0  0
 23 22  1  6  0  0  0
 24 31  1  0  0  0  0
 25 30  1  0  0  0  0
 27 24  2  0  0  0  0
 28 24  1  0  0  0  0
 28 25  1  0  0  0  0
 29 26  2  0  0  0  0
 30 29  1  0  0  0  0
 30 23  1  0  0  0  0
 31 29  1  0  0  0  0
M  END
>  <MODEL>
4

>  <REMARK>
 VINA RESULT:      -8.1      2.107      4.890
  Name = 
  3 active torsions:
  status: ('A' for Active; 'I' for Inactive)
    1  A    between atoms: C_5  and  C_16
    2  A    between atoms: C_5  and  N_30
    3  A    between atoms: C_10  and  C_16
                            x       y       z     vdW  Elec       q    Type
                         _______ _______ _______ _____ _____    ______ ____

>  <TORSDO>
F 3

$$$$
=
 OpenBabel11112416563D

 31 35  0  0  1  0  0  0  0  0999 V2000
  188.6530  174.5700  140.5730 C   0  0  0  0  0  0  0  0  0  0  0  0
  188.0570  176.5010  143.8610 C   0  0  0  0  0  0  0  0  0  0  0  0
  186.6890  177.1100  143.7620 C   0  0  0  0  0  0  0  0  0  0  0  0
  184.7820  177.9050  142.4690 C   0  0  0  0  0  0  0  0  0  0  0  0
  188.6320  175.6850  142.8500 C   0  0  0  0  0  0  0  0  0  0  0  0
  189.9990  174.0690  140.8670 C   0  0  0  0  0  3  0  0  0  0  0  0
  186.0420  177.3040  142.5300 C   0  0  0  0  0  3  0  0  0  0  0  0
  190.0800  176.1960  145.1870 C   0  0  0  0  0  0  0  0  0  0  0  0
  188.1500  174.3650  139.4390 O   0  0  0  0  0  0  0  0  0  0  0  0
  186.7130  177.3930  146.2670 C   0  0  0  0  0  2  0  0  0  0  0  0
  184.1560  178.0790  141.2430 O   0  0  0  0  0  1  0  0  0  0  0  0
  190.6070  175.4380  144.1940 N   0  0  0  0  0  0  0  0  0  0  0  0
  188.7900  176.7310  145.0500 C   0  0  0  0  0  0  0  0  0  0  0  0
  187.8460  175.2840  141.6190 C   0  0  0  0  0  2  0  0  0  0  0  0
  184.1530  178.3290  143.6410 C   0  0  0  0  0  3  0  0  0  0  0  0
  189.9310  175.1690  143.0500 C   0  0  0  0  0  0  0  0  0  0  0  0
  190.5880  174.3420  142.0260 C   0  0  0  0  0  3  0  0  0  0  0  0
  188.2170  177.6060  146.1350 C   0  0  0  0  0  2  0  0  0  0  0  0
  186.0540  177.5710  144.9360 C   0  0  0  0  0  0  0  0  0  0  0  0
  184.7880  178.1620  144.8720 C   0  0  0  0  0  3  0  0  0  0  0  0
  190.8900  176.4220  146.4250 C   0  0  0  0  0  2  0  0  0  0  0  0
  191.8090  175.0680  148.1700 O   0  0  0  0  0  1  0  0  0  0  0  0
  191.6890  175.1770  146.7810 C   0  0  2  0  0  3  0  0  0  0  0  0
  195.4020  175.5640  144.6310 C   0  0  0  0  0  0  0  0  0  0  0  0
  193.9670  176.2870  146.4880 C   0  0  0  0  0  2  0  0  0  0  0  0
  193.2170  172.9350  145.7380 O   0  0  0  0  0  0  0  0  0  0  0  0
  196.5940  175.3380  144.7530 O   0  0  0  0  0  0  0  0  0  0  0  0
  194.7760  176.7540  145.2780 C   0  0  0  0  0  2  0  0  0  0  0  0
  193.4430  174.1130  145.3550 C   0  0  0  0  0  0  0  0  0  0  0  0
  193.0040  175.2320  146.1400 N   0  0  0  0  0  0  0  0  0  0  0  0
  194.3240  174.3970  143.8190 S   0  0  0  0  0  0  0  0  0  0  0  0
  1  6  1  0  0  0  0
  1 14  1  0  0  0  0
  2 13  1  0  0  0  0
  3  2  1  0  0  0  0
  3 19  1  0  0  0  0
  4  7  1  0  0  0  0
  4 15  2  0  0  0  0
  5 16  1  0  0  0  0
  5  2  2  0  0  0  0
  6 17  2  0  0  0  0
  7  3  2  0  0  0  0
  8 21  1  0  0  0  0
  9  1  2  0  0  0  0
 11  4  1  0  0  0  0
 12  8  1  0  0  0  0
 13  8  2  0  0  0  0
 13 18  1  0  0  0  0
 14  5  1  0  0  0  0
 15 20  1  0  0  0  0
 16 12  2  0  0  0  0
 17 16  1  0  0  0  0
 18 10  1  0  0  0  0
 19 10  1  0  0  0  0
 20 19  2  0  0  0  0
 21 23  1  0  0  0  0
 23 22  1  1  0  0  0
 24 27  2  0  0  0  0
 24 28  1  0  0  0  0
 28 25  1  0  0  0  0
 29 26  2  0  0  0  0
 29 30  1  0  0  0  0
 30 25  1  0  0  0  0
 30 23  1  0  0  0  0
 31 24  1  0  0  0  0
 31 29  1  0  0  0  0
M  END
>  <MODEL>
5

>  <REMARK>
 VINA RESULT:      -8.1      2.207      4.441
  Name = 
  3 active torsions:
  status: ('A' for Active; 'I' for Inactive)
    1  A    between atoms: C_5  and  C_16
    2  A    between atoms: C_5  and  N_30
    3  A    between atoms: C_10  and  C_16
                            x       y       z     vdW  Elec       q    Type
                         _______ _______ _______ _____ _____    ______ ____

>  <TORSDO>
F 3

$$$$
=
 OpenBabel11112416563D

 31 35  0  0  1  0  0  0  0  0999 V2000
  190.3410  172.0260  141.0330 C   0  0  0  0  0  0  0  0  0  0  0  0
  190.3080  175.4900  142.7330 C   0  0  0  0  0  0  0  0  0  0  0  0
  191.4150  175.4840  143.7460 C   0  0  0  0  0  0  0  0  0  0  0  0
  192.9750  174.3230  145.2150 C   0  0  0  0  0  0  0  0  0  0  0  0
  190.0160  174.3940  141.8780 C   0  0  0  0  0  0  0  0  0  0  0  0
  189.2210  172.2350  140.1100 C   0  0  0  0  0  3  0  0  0  0  0  0
  191.9670  174.2940  144.2480 C   0  0  0  0  0  3  0  0  0  0  0  0
  188.4840  176.7260  141.6870 C   0  0  0  0  0  0  0  0  0  0  0  0
  190.8810  170.8920  141.1030 O   0  0  0  0  0  0  0  0  0  0  0  0
  191.3090  178.0030  143.7690 C   0  0  0  0  0  2  0  0  0  0  0  0
  193.5120  173.1350  145.6900 O   0  0  0  0  0  1  0  0  0  0  0  0
  188.2200  175.6540  140.9000 N   0  0  0  0  0  0  0  0  0  0  0  0
  189.5410  176.6740  142.6090 C   0  0  0  0  0  0  0  0  0  0  0  0
  190.8850  173.1540  141.8600 C   0  0  0  0  0  2  0  0  0  0  0  0
  193.4410  175.5450  145.7010 C   0  0  0  0  0  3  0  0  0  0  0  0
  188.9440  174.5100  140.9650 C   0  0  0  0  0  0  0  0  0  0  0  0
  188.5780  173.3980  140.0750 C   0  0  0  0  0  3  0  0  0  0  0  0
  189.8130  177.8490  143.5130 C   0  0  0  0  0  2  0  0  0  0  0  0
  191.8760  176.7120  144.2690 C   0  0  0  0  0  0  0  0  0  0  0  0
  192.8920  176.7380  145.2280 C   0  0  0  0  0  3  0  0  0  0  0  0
  187.6470  177.9560  141.5310 C   0  0  0  0  0  2  0  0  0  0  0  0
  185.4710  178.3390  140.6140 O   0  0  0  0  0  1  0  0  0  0  0  0
  186.1660  177.6100  141.5840 C   0  0  2  0  0  3  0  0  0  0  0  0
  184.8930  178.6700  145.5600 C   0  0  0  0  0  0  0  0  0  0  0  0
  184.5980  178.8940  143.1330 C   0  0  0  0  0  2  0  0  0  0  0  0
  185.9950  175.7380  143.8000 O   0  0  0  0  0  0  0  0  0  0  0  0
  183.9680  178.4960  146.3360 O   0  0  0  0  0  0  0  0  0  0  0  0
  184.7860  179.6550  144.4450 C   0  0  0  0  0  2  0  0  0  0  0  0
  185.9710  176.9820  143.9940 C   0  0  0  0  0  0  0  0  0  0  0  0
  185.6410  177.8800  142.9230 N   0  0  0  0  0  0  0  0  0  0  0  0
  186.3480  177.6380  145.6200 S   0  0  0  0  0  0  0  0  0  0  0  0
  1  9  2  0  0  0  0
  1 14  1  0  0  0  0
  2  3  1  0  0  0  0
  3  7  2  0  0  0  0
  3 19  1  0  0  0  0
  4 11  1  0  0  0  0
  4 15  2  0  0  0  0
  5  2  2  0  0  0  0
  6  1  1  0  0  0  0
  7  4  1  0  0  0  0
  8 13  2  0  0  0  0
 10 19  1  0  0  0  0
 12 16  2  0  0  0  0
 12  8  1  0  0  0  0
 13  2  1  0  0  0  0
 13 18  1  0  0  0  0
 14  5  1  0  0  0  0
 16  5  1  0  0  0  0
 17  6  2  0  0  0  0
 17 16  1  0  0  0  0
 18 10  1  0  0  0  0
 19 20  2  0  0  0  0
 20 15  1  0  0  0  0
 21 23  1  0  0  0  0
 21  8  1  0  0  0  0
 23 22  1  6  0  0  0
 23 30  1  0  0  0  0
 24 31  1  0  0  0  0
 24 27  2  0  0  0  0
 25 28  1  0  0  0  0
 26 29  2  0  0  0  0
 28 24  1  0  0  0  0
 29 31  1  0  0  0  0
 30 25  1  0  0  0  0
 30 29  1  0  0  0  0
M  END
>  <MODEL>
6

>  <REMARK>
 VINA RESULT:      -8.0      2.622      7.842
  Name = 
  3 active torsions:
  status: ('A' for Active; 'I' for Inactive)
    1  A    between atoms: C_5  and  C_16
    2  A    between atoms: C_5  and  N_30
    3  A    between atoms: C_10  and  C_16
                            x       y       z     vdW  Elec       q    Type
                         _______ _______ _______ _____ _____    ______ ____

>  <TORSDO>
F 3

$$$$
=
 OpenBabel11112416563D

 31 35  0  0  1  0  0  0  0  0999 V2000
  190.9550  176.7910  147.1670 C   0  0  0  0  0  0  0  0  0  0  0  0
  188.1400  176.5750  144.5350 C   0  0  0  0  0  0  0  0  0  0  0  0
  186.9470  177.2690  145.1220 C   0  0  0  0  0  0  0  0  0  0  0  0
  185.6680  178.1050  147.0210 C   0  0  0  0  0  0  0  0  0  0  0  0
  189.3930  176.4660  145.1960 C   0  0  0  0  0  0  0  0  0  0  0  0
  191.9950  176.0770  146.4200 C   0  0  0  0  0  3  0  0  0  0  0  0
  186.8070  177.4830  146.5030 C   0  0  0  0  0  3  0  0  0  0  0  0
  189.0890  175.3580  142.6460 C   0  0  0  0  0  0  0  0  0  0  0  0
  191.1780  177.1460  148.3520 O   0  0  0  0  0  0  0  0  0  0  0  0
  185.9940  177.4430  142.7940 C   0  0  0  0  0  2  0  0  0  0  0  0
  185.5540  178.3150  148.3880 O   0  0  0  0  0  1  0  0  0  0  0  0
  190.2650  175.2560  143.3130 N   0  0  0  0  0  0  0  0  0  0  0  0
  188.0070  176.0310  143.2350 C   0  0  0  0  0  0  0  0  0  0  0  0
  189.6450  177.1470  146.5250 C   0  0  0  0  0  2  0  0  0  0  0  0
  184.6440  178.5130  146.1640 C   0  0  0  0  0  3  0  0  0  0  0  0
  190.4470  175.7840  144.5480 C   0  0  0  0  0  0  0  0  0  0  0  0
  191.7570  175.6170  145.1950 C   0  0  0  0  0  3  0  0  0  0  0  0
  186.6860  176.1130  142.5130 C   0  0  0  0  0  2  0  0  0  0  0  0
  185.8910  177.6610  144.2700 C   0  0  0  0  0  0  0  0  0  0  0  0
  184.7570  178.2920  144.7900 C   0  0  0  0  0  3  0  0  0  0  0  0
  188.9850  174.7650  141.2760 C   0  0  0  0  0  2  0  0  0  0  0  0
  187.4410  173.0930  142.0130 O   0  0  0  0  0  1  0  0  0  0  0  0
  188.6620  173.2800  141.3560 C   0  0  2  0  0  3  0  0  0  0  0  0
  191.9170  171.5230  143.5630 C   0  0  0  0  0  0  0  0  0  0  0  0
  189.5000  171.8680  143.3070 C   0  0  0  0  0  2  0  0  0  0  0  0
  190.9940  172.0520  140.1310 O   0  0  0  0  0  0  0  0  0  0  0  0
  192.4190  170.4390  143.8070 O   0  0  0  0  0  0  0  0  0  0  0  0
  190.6830  171.9750  144.2690 C   0  0  0  0  0  2  0  0  0  0  0  0
  190.9860  172.3640  141.3510 C   0  0  0  0  0  0  0  0  0  0  0  0
  189.7440  172.5730  142.0420 N   0  0  0  0  0  0  0  0  0  0  0  0
  192.5360  172.5430  142.2350 S   0  0  0  0  0  0  0  0  0  0  0  0
  1  9  2  0  0  0  0
  2  3  1  0  0  0  0
  2  5  1  0  0  0  0
  3  7  1  0  0  0  0
  4 11  1  0  0  0  0
  5 14  1  0  0  0  0
  6  1  1  0  0  0  0
  7  4  2  0  0  0  0
  8 13  1  0  0  0  0
  8 12  2  0  0  0  0
 10 19  1  0  0  0  0
 12 16  1  0  0  0  0
 13  2  2  0  0  0  0
 14  1  1  0  0  0  0
 15  4  1  0  0  0  0
 16 17  1  0  0  0  0
 16  5  2  0  0  0  0
 17  6  2  0  0  0  0
 18 10  1  0  0  0  0
 18 13  1  0  0  0  0
 19 20  1  0  0  0  0
 19  3  2  0  0  0  0
 20 15  2  0  0  0  0
 21 23  1  0  0  0  0
 21  8  1  0  0  0  0
 23 22  1  1  0  0  0
 23 30  1  0  0  0  0
 24 27  2  0  0  0  0
 24 28  1  0  0  0  0
 25 28  1  0  0  0  0
 26 29  2  0  0  0  0
 29 30  1  0  0  0  0
 29 31  1  0  0  0  0
 30 25  1  0  0  0  0
 31 24  1  0  0  0  0
M  END
>  <MODEL>
7

>  <REMARK>
 VINA RESULT:      -8.0      2.584      4.484
  Name = 
  3 active torsions:
  status: ('A' for Active; 'I' for Inactive)
    1  A    between atoms: C_5  and  C_16
    2  A    between atoms: C_5  and  N_30
    3  A    between atoms: C_10  and  C_16
                            x       y       z     vdW  Elec       q    Type
                         _______ _______ _______ _____ _____    ______ ____

>  <TORSDO>
F 3

$$$$
=
 OpenBabel11112416563D

 31 35  0  0  1  0  0  0  0  0999 V2000
  191.2610  171.3750  142.3290 C   0  0  0  0  0  0  0  0  0  0  0  0
  192.1640  173.8430  145.1560 C   0  0  0  0  0  0  0  0  0  0  0  0
  193.6610  173.8390  145.2700 C   0  0  0  0  0  0  0  0  0  0  0  0
  195.8380  172.7990  144.9240 C   0  0  0  0  0  0  0  0  0  0  0  0
  191.4450  173.0750  144.2010 C   0  0  0  0  0  0  0  0  0  0  0  0
  189.8040  171.5240  142.3800 C   0  0  0  0  0  3  0  0  0  0  0  0
  194.4480  172.7880  144.7720 C   0  0  0  0  0  3  0  0  0  0  0  0
  190.0410  174.7190  145.9760 C   0  0  0  0  0  0  0  0  0  0  0  0
  191.7700  170.5200  141.5600 O   0  0  0  0  0  0  0  0  0  0  0  0
  193.4980  176.0250  146.5160 C   0  0  0  0  0  2  0  0  0  0  0  0
  196.5980  171.7560  144.4170 O   0  0  0  0  0  1  0  0  0  0  0  0
  189.3850  173.9590  145.0650 N   0  0  0  0  0  0  0  0  0  0  0  0
  191.4440  174.6900  146.0320 C   0  0  0  0  0  0  0  0  0  0  0  0
  192.1600  172.2600  143.1440 C   0  0  0  0  0  2  0  0  0  0  0  0
  196.4590  173.8600  145.5850 C   0  0  0  0  0  3  0  0  0  0  0  0
  190.0340  173.1540  144.1890 C   0  0  0  0  0  0  0  0  0  0  0  0
  189.2360  172.3610  143.2420 C   0  0  0  0  0  3  0  0  0  0  0  0
  192.1750  175.5040  147.0690 C   0  0  0  0  0  2  0  0  0  0  0  0
  194.3000  174.8900  145.9620 C   0  0  0  0  0  0  0  0  0  0  0  0
  195.6910  174.9040  146.1030 C   0  0  0  0  0  3  0  0  0  0  0  0
  189.2440  175.5960  146.8890 C   0  0  0  0  0  2  0  0  0  0  0  0
  189.5560  177.9150  147.3870 O   0  0  0  0  0  1  0  0  0  0  0  0
  189.2060  177.0250  146.3670 C   0  0  2  0  0  3  0  0  0  0  0  0
  185.1950  177.5450  144.8870 C   0  0  0  0  0  0  0  0  0  0  0  0
  186.8050  177.8050  146.7220 C   0  0  0  0  0  2  0  0  0  0  0  0
  188.5580  177.9180  143.6780 O   0  0  0  0  0  0  0  0  0  0  0  0
  184.4180  178.4220  144.5460 O   0  0  0  0  0  0  0  0  0  0  0  0
  185.4360  177.2510  146.3290 C   0  0  0  0  0  2  0  0  0  0  0  0
  187.6880  177.3830  144.4150 C   0  0  0  0  0  0  0  0  0  0  0  0
  187.8750  177.3250  145.8380 N   0  0  0  0  0  0  0  0  0  0  0  0
  186.2030  176.6940  143.6850 S   0  0  0  0  0  0  0  0  0  0  0  0
  1  6  1  0  0  0  0
  1 14  1  0  0  0  0
  2  3  1  0  0  0  0
  2 13  1  0  0  0  0
  3 19  1  0  0  0  0
  4 15  2  0  0  0  0
  5  2  2  0  0  0  0
  6 17  2  0  0  0  0
  7  4  1  0  0  0  0
  7  3  2  0  0  0  0
  8 13  2  0  0  0  0
  8 21  1  0  0  0  0
  9  1  2  0  0  0  0
 10 18  1  0  0  0  0
 11  4  1  0  0  0  0
 12  8  1  0  0  0  0
 13 18  1  0  0  0  0
 14  5  1  0  0  0  0
 15 20  1  0  0  0  0
 16  5  1  0  0  0  0
 16 12  2  0  0  0  0
 17 16  1  0  0  0  0
 19 20  2  0  0  0  0
 19 10  1  0  0  0  0
 23 21  1  0  0  0  0
 23 22  1  1  0  0  0
 24 28  1  0  0  0  0
 26 29  2  0  0  0  0
 27 24  2  0  0  0  0
 28 25  1  0  0  0  0
 29 30  1  0  0  0  0
 30 23  1  0  0  0  0
 30 25  1  0  0  0  0
 31 29  1  0  0  0  0
 31 24  1  0  0  0  0
M  END
>  <MODEL>
8

>  <REMARK>
 VINA RESULT:      -8.0      3.007      8.658
  Name = 
  3 active torsions:
  status: ('A' for Active; 'I' for Inactive)
    1  A    between atoms: C_5  and  C_16
    2  A    between atoms: C_5  and  N_30
    3  A    between atoms: C_10  and  C_16
                            x       y       z     vdW  Elec       q    Type
                         _______ _______ _______ _____ _____    ______ ____

>  <TORSDO>
F 3

$$$$
=
 OpenBabel11112416563D

 31 35  0  0  1  0  0  0  0  0999 V2000
  194.6600  175.7530  145.1840 C   0  0  0  0  0  0  0  0  0  0  0  0
  191.1410  175.1450  143.7220 C   0  0  0  0  0  0  0  0  0  0  0  0
  191.3370  174.5810  142.3450 C   0  0  0  0  0  0  0  0  0  0  0  0
  192.6790  174.2260  140.3410 C   0  0  0  0  0  0  0  0  0  0  0  0
  192.2090  175.4770  144.5970 C   0  0  0  0  0  0  0  0  0  0  0  0
  194.2550  176.2860  146.4870 C   0  0  0  0  0  3  0  0  0  0  0  0
  192.5400  174.7350  141.6350 C   0  0  0  0  0  3  0  0  0  0  0  0
  189.5720  175.8550  145.4480 C   0  0  0  0  0  0  0  0  0  0  0  0
  195.8790  175.7350  144.8740 O   0  0  0  0  0  0  0  0  0  0  0  0
  188.9560  173.7570  142.4220 C   0  0  0  0  0  2  0  0  0  0  0  0
  193.8790  174.3810  139.6620 O   0  0  0  0  0  1  0  0  0  0  0  0
  190.6160  176.1800  146.2510 N   0  0  0  0  0  0  0  0  0  0  0  0
  189.8110  175.3180  144.1740 C   0  0  0  0  0  0  0  0  0  0  0  0
  193.6490  175.1840  144.2300 C   0  0  0  0  0  2  0  0  0  0  0  0
  191.6120  173.5620  139.7330 C   0  0  0  0  0  3  0  0  0  0  0  0
  191.9050  176.0070  145.8710 C   0  0  0  0  0  0  0  0  0  0  0  0
  192.9700  176.3940  146.8080 C   0  0  0  0  0  3  0  0  0  0  0  0
  188.6540  174.9920  143.2630 C   0  0  0  0  0  2  0  0  0  0  0  0
  190.2570  173.9340  141.7060 C   0  0  0  0  0  0  0  0  0  0  0  0
  190.4030  173.4160  140.4150 C   0  0  0  0  0  3  0  0  0  0  0  0
  188.1810  176.0600  145.9600 C   0  0  0  0  0  2  0  0  0  0  0  0
  187.6170  177.9020  147.3770 O   0  0  0  0  0  1  0  0  0  0  0  0
  187.8510  177.5430  146.0460 C   0  0  2  0  0  3  0  0  0  0  0  0
  184.4940  178.7930  143.6540 C   0  0  0  0  0  0  0  0  0  0  0  0
  186.8520  178.1150  143.7710 C   0  0  0  0  0  2  0  0  0  0  0  0
  185.1260  176.6130  146.4390 O   0  0  0  0  0  0  0  0  0  0  0  0
  183.7130  178.3630  142.8220 O   0  0  0  0  0  0  0  0  0  0  0  0
  185.8820  179.1870  143.2730 C   0  0  0  0  0  2  0  0  0  0  0  0
  185.3740  177.6270  145.7350 C   0  0  0  0  0  0  0  0  0  0  0  0
  186.6910  177.8420  145.2060 N   0  0  0  0  0  0  0  0  0  0  0  0
  184.0720  178.8100  145.3880 S   0  0  0  0  0  0  0  0  0  0  0  0
  1  6  1  0  0  0  0
  2 13  2  0  0  0  0
  2  5  1  0  0  0  0
  3  2  1  0  0  0  0
  4  7  1  0  0  0  0
  5 16  2  0  0  0  0
  6 17  2  0  0  0  0
  7  3  2  0  0  0  0
  8 21  1  0  0  0  0
  8 12  2  0  0  0  0
  9  1  2  0  0  0  0
 10 18  1  0  0  0  0
 11  4  1  0  0  0  0
 13  8  1  0  0  0  0
 14  5  1  0  0  0  0
 14  1  1  0  0  0  0
 15  4  2  0  0  0  0
 15 20  1  0  0  0  0
 16 12  1  0  0  0  0
 16 17  1  0  0  0  0
 18 13  1  0  0  0  0
 19  3  1  0  0  0  0
 19 10  1  0  0  0  0
 20 19  2  0  0  0  0
 21 23  1  0  0  0  0
 23 22  1  1  0  0  0
 24 31  1  0  0  0  0
 25 30  1  0  0  0  0
 27 24  2  0  0  0  0
 28 24  1  0  0  0  0
 28 25  1  0  0  0  0
 29 26  2  0  0  0  0
 30 29  1  0  0  0  0
 30 23  1  0  0  0  0
 31 29  1  0  0  0  0
M  END
>  <MODEL>
9

>  <REMARK>
 VINA RESULT:      -7.9      2.610      7.471
  Name = 
  3 active torsions:
  status: ('A' for Active; 'I' for Inactive)
    1  A    between atoms: C_5  and  C_16
    2  A    between atoms: C_5  and  N_30
    3  A    between atoms: C_10  and  C_16
                            x       y       z     vdW  Elec       q    Type
                         _______ _______ _______ _____ _____    ______ ____

>  <TORSDO>
F 3

$$$$
