=
 OpenBabel11112416393D

 32 38  0  0  1  0  0  0  0  0999 V2000
  192.3470  175.6400  143.7650 C   0  0  1  0  0  3  0  0  0  0  0  0
  187.5080  177.2320  143.5990 C   0  0  0  0  0  0  0  0  0  0  0  0
  186.0940  178.2990  148.1300 C   0  0  0  0  0  3  0  0  0  0  0  0
  184.8290  178.6330  147.6510 C   0  0  0  0  0  3  0  0  0  0  0  0
  185.9650  177.4410  141.7410 C   0  0  0  0  0  0  0  0  0  0  0  0
  184.6910  177.7730  141.3040 C   0  0  0  0  0  0  0  0  0  0  0  0
  189.8610  176.7780  143.1770 N   0  0  1  0  0  0  0  0  0  0  0  0
  189.1700  176.9460  145.4900 C   0  0  0  0  0  2  0  0  0  0  0  0
  182.6030  178.4350  141.4220 C   0  0  0  0  0  0  0  0  0  0  0  0
  191.3230  175.7180  144.9200 C   0  0  2  0  0  3  0  0  0  0  0  0
  187.0790  177.8610  147.2440 C   0  0  0  0  0  3  0  0  0  0  0  0
  187.7930  177.3140  144.9810 C   0  0  0  0  0  0  0  0  0  0  0  0
  186.8100  177.7540  145.8680 C   0  0  0  0  0  0  0  0  0  0  0  0
  185.2630  177.9770  143.9990 C   0  0  0  0  0  0  0  0  0  0  0  0
  182.9160  178.1560  140.1330 N   0  0  0  0  0  0  0  0  0  0  0  0
  191.9840  176.1750  142.5020 O   0  0  0  0  0  0  0  0  0  0  0  0
  189.9040  176.0970  144.4630 C   0  0  2  0  0  3  0  0  0  0  0  0
  184.1830  177.7520  140.0580 N   0  0  0  0  0  0  0  0  0  0  0  0
  190.6200  175.9570  142.2550 C   0  0  0  0  0  2  0  0  0  0  0  0
  192.3670  176.8010  144.7550 C   0  0  1  0  0  3  0  0  0  0  0  0
  184.5500  178.5290  146.2880 C   0  0  0  0  0  3  0  0  0  0  0  0
  185.5340  178.0890  145.3800 C   0  0  0  0  0  0  0  0  0  0  0  0
  183.9630  178.3160  143.5510 C   0  0  0  0  0  3  0  0  0  0  0  0
  188.5440  176.7940  142.7570 O   0  0  0  0  0  0  0  0  0  0  0  0
  187.0990  176.9120  140.4890 Cl  0  0  0  0  0  0  0  0  0  0  0  0
  181.2690  178.9130  141.8760 C   0  0  0  0  0  1  0  0  0  0  0  0
  186.2550  177.5440  143.1040 N   0  0  0  0  0  0  0  0  0  0  0  0
  183.7030  178.2060  142.2080 C   0  0  0  0  0  0  0  0  0  0  0  0
  193.4770  176.5820  145.7650 C   0  0  0  0  0  2  0  0  0  0  0  0
  194.6470  175.8660  145.1140 C   0  0  2  0  0  3  0  0  0  0  0  0
  195.3260  174.9830  146.1390 C   0  0  0  0  0  1  0  0  0  0  0  0
  195.5650  176.7990  144.6290 O   0  0  0  0  0  1  0  0  0  0  0  0
  1 16  1  6  0  0  0
  1 20  1  0  0  0  0
  1 10  1  0  0  0  0
  2 12  2  0  0  0  0
  4  3  1  0  0  0  0
  5 27  1  0  0  0  0
  6  5  2  0  0  0  0
  6 28  1  0  0  0  0
  7 19  1  6  0  0  0
  7 17  1  0  0  0  0
  9 26  1  0  0  0  0
  9 28  2  0  0  0  0
 11  3  2  0  0  0  0
 12  8  1  0  0  0  0
 12 13  1  0  0  0  0
 13 11  1  0  0  0  0
 14 22  1  0  0  0  0
 15  9  1  0  0  0  0
 17 10  1  0  0  0  0
 17  8  1  0  0  0  0
 18 15  2  0  0  0  0
 18  6  1  0  0  0  0
 19 16  1  0  0  0  0
 20 10  1  0  0  0  0
 20 29  1  0  0  0  0
 21  4  2  0  0  0  0
 22 13  2  0  0  0  0
 22 21  1  0  0  0  0
 23 14  2  0  0  0  0
 24  7  1  0  0  0  0
 24  2  1  0  0  0  0
 25  5  1  0  0  0  0
 27  2  1  0  0  0  0
 27 14  1  0  0  0  0
 28 23  1  0  0  0  0
 30 29  1  0  0  0  0
 30 31  1  0  0  0  0
 32 30  1  0  0  0  0
M  END
>  <MODEL>
1

>  <REMARK>
 VINA RESULT:      -9.6      0.000      0.000
  Name = 
  2 active torsions:
  status: ('A' for Active; 'I' for Inactive)
    1  A    between atoms: C_20  and  C_29
    2  A    between atoms: C_29  and  C_30
                            x       y       z     vdW  Elec       q    Type
                         _______ _______ _______ _____ _____    ______ ____

>  <TORSDO>
F 2

$$$$
=
 OpenBabel11112416393D

 32 38  0  0  1  0  0  0  0  0999 V2000
  185.0190  178.5720  143.3310 C   0  0  1  0  0  3  0  0  0  0  0  0
  189.0710  175.5050  142.9370 C   0  0  0  0  0  0  0  0  0  0  0  0
  191.6110  175.7880  147.0780 C   0  0  0  0  0  3  0  0  0  0  0  0
  192.5470  174.8960  146.5590 C   0  0  0  0  0  3  0  0  0  0  0  0
  189.8440  174.1170  141.1060 C   0  0  0  0  0  0  0  0  0  0  0  0
  190.8020  173.2390  140.6210 C   0  0  0  0  0  0  0  0  0  0  0  0
  186.8680  176.5330  142.8360 N   0  0  1  0  0  0  0  0  0  0  0  0
  188.2180  177.0130  144.7850 C   0  0  0  0  0  2  0  0  0  0  0  0
  192.6170  172.0070  140.6050 C   0  0  0  0  0  0  0  0  0  0  0  0
  186.3200  178.5890  144.1670 C   0  0  2  0  0  3  0  0  0  0  0  0
  190.5120  176.1690  146.3060 C   0  0  0  0  0  3  0  0  0  0  0  0
  189.2400  176.0430  144.2340 C   0  0  0  0  0  0  0  0  0  0  0  0
  190.3360  175.6600  145.0070 C   0  0  0  0  0  0  0  0  0  0  0  0
  191.1050  174.2540  143.1720 C   0  0  0  0  0  0  0  0  0  0  0  0
  191.9720  171.8760  139.4200 N   0  0  0  0  0  0  0  0  0  0  0  0
  184.8280  177.5180  142.4010 O   0  0  0  0  0  0  0  0  0  0  0  0
  187.3950  177.6140  143.6560 C   0  0  2  0  0  3  0  0  0  0  0  0
  190.8690  172.6240  139.4260 N   0  0  0  0  0  0  0  0  0  0  0  0
  186.0500  177.1560  141.8160 C   0  0  0  0  0  2  0  0  0  0  0  0
  185.0690  177.9400  144.7200 C   0  0  1  0  0  3  0  0  0  0  0  0
  192.3830  174.3860  145.2700 C   0  0  0  0  0  3  0  0  0  0  0  0
  191.2790  174.7610  144.4780 C   0  0  0  0  0  0  0  0  0  0  0  0
  192.0820  173.3570  142.6750 C   0  0  0  0  0  3  0  0  0  0  0  0
  187.9410  175.9200  142.2140 O   0  0  0  0  0  0  0  0  0  0  0  0
  188.5090  174.4910  140.0050 Cl  0  0  0  0  0  0  0  0  0  0  0  0
  193.8880  171.3140  140.9490 C   0  0  0  0  0  1  0  0  0  0  0  0
  189.9960  174.6300  142.3960 N   0  0  0  0  0  0  0  0  0  0  0  0
  191.9100  172.8670  141.4050 C   0  0  0  0  0  0  0  0  0  0  0  0
  184.4230  178.8780  145.7210 C   0  0  0  0  0  2  0  0  0  0  0  0
  184.7920  178.4730  147.1370 C   0  0  2  0  0  3  0  0  0  0  0  0
  185.9040  179.3690  147.6400 C   0  0  0  0  0  1  0  0  0  0  0  0
  185.2240  177.1470  147.1560 O   0  0  0  0  0  1  0  0  0  0  0  0
  1 16  1  6  0  0  0
  1 10  1  0  0  0  0
  1 20  1  0  0  0  0
  2 12  2  0  0  0  0
  4  3  1  0  0  0  0
  5 27  1  0  0  0  0
  6  5  2  0  0  0  0
  6 28  1  0  0  0  0
  7 19  1  6  0  0  0
  7 17  1  0  0  0  0
  9 26  1  0  0  0  0
  9 28  2  0  0  0  0
 10 20  1  0  0  0  0
 11  3  2  0  0  0  0
 12  8  1  0  0  0  0
 12 13  1  0  0  0  0
 13 11  1  0  0  0  0
 14 22  1  0  0  0  0
 15 18  2  0  0  0  0
 15  9  1  0  0  0  0
 17 10  1  0  0  0  0
 17  8  1  0  0  0  0
 18  6  1  0  0  0  0
 19 16  1  0  0  0  0
 20 29  1  0  0  0  0
 21  4  2  0  0  0  0
 22 13  2  0  0  0  0
 22 21  1  0  0  0  0
 23 14  2  0  0  0  0
 24  7  1  0  0  0  0
 24  2  1  0  0  0  0
 25  5  1  0  0  0  0
 27  2  1  0  0  0  0
 27 14  1  0  0  0  0
 28 23  1  0  0  0  0
 29 30  1  0  0  0  0
 30 32  1  0  0  0  0
 30 31  1  0  0  0  0
M  END
>  <MODEL>
2

>  <REMARK>
 VINA RESULT:      -8.7      2.801      7.609
  Name = 
  2 active torsions:
  status: ('A' for Active; 'I' for Inactive)
    1  A    between atoms: C_20  and  C_29
    2  A    between atoms: C_29  and  C_30
                            x       y       z     vdW  Elec       q    Type
                         _______ _______ _______ _____ _____    ______ ____

>  <TORSDO>
F 2

$$$$
=
 OpenBabel11112416393D

 32 38  0  0  1  0  0  0  0  0999 V2000
  185.0320  179.3130  143.3310 C   0  0  1  0  0  3  0  0  0  0  0  0
  187.9590  175.4990  141.6390 C   0  0  0  0  0  0  0  0  0  0  0  0
  190.5350  173.7700  145.3880 C   0  0  0  0  0  3  0  0  0  0  0  0
  191.1480  172.8530  144.5370 C   0  0  0  0  0  3  0  0  0  0  0  0
  188.2450  174.5780  139.4150 C   0  0  0  0  0  0  0  0  0  0  0  0
  188.8830  173.6570  138.5970 C   0  0  0  0  0  0  0  0  0  0  0  0
  186.1690  177.0870  142.0750 N   0  0  1  0  0  0  0  0  0  0  0  0
  187.6340  176.5460  143.9230 C   0  0  0  0  0  2  0  0  0  0  0  0
  190.2410  172.0290  138.0330 C   0  0  0  0  0  0  0  0  0  0  0  0
  186.2910  178.7040  143.9910 C   0  0  2  0  0  3  0  0  0  0  0  0
  189.5900  174.6630  144.8810 C   0  0  0  0  0  3  0  0  0  0  0  0
  188.3050  175.5430  143.0090 C   0  0  0  0  0  0  0  0  0  0  0  0
  189.2460  174.6490  143.5180 C   0  0  0  0  0  0  0  0  0  0  0  0
  189.5220  173.7140  141.2840 C   0  0  0  0  0  0  0  0  0  0  0  0
  189.5670  172.4550  136.9380 N   0  0  0  0  0  0  0  0  0  0  0  0
  184.5150  178.6940  142.1640 O   0  0  0  0  0  0  0  0  0  0  0  0
  187.0110  177.6700  143.1090 C   0  0  2  0  0  3  0  0  0  0  0  0
  188.7420  173.4440  137.2770 N   0  0  0  0  0  0  0  0  0  0  0  0
  185.5600  178.1980  141.3710 C   0  0  0  0  0  2  0  0  0  0  0  0
  184.9120  178.3000  144.4660 C   0  0  1  0  0  3  0  0  0  0  0  0
  190.8160  172.8300  143.1810 C   0  0  0  0  0  3  0  0  0  0  0  0
  189.8640  173.7250  142.6540 C   0  0  0  0  0  0  0  0  0  0  0  0
  190.1740  172.7740  140.4490 C   0  0  0  0  0  3  0  0  0  0  0  0
  186.9950  176.4170  141.1920 O   0  0  0  0  0  0  0  0  0  0  0  0
  187.0670  175.6330  138.6180 Cl  0  0  0  0  0  0  0  0  0  0  0  0
  191.2490  170.9340  138.0250 C   0  0  0  0  0  1  0  0  0  0  0  0
  188.5670  174.6070  140.7730 N   0  0  0  0  0  0  0  0  0  0  0  0
  189.8400  172.7650  139.1180 C   0  0  0  0  0  0  0  0  0  0  0  0
  184.5970  179.0290  145.7580 C   0  0  0  0  0  2  0  0  0  0  0  0
  184.7830  178.1020  146.9460 C   0  0  2  0  0  3  0  0  0  0  0  0
  186.0860  178.4350  147.6410 C   0  0  0  0  0  1  0  0  0  0  0  0
  184.8170  176.7760  146.5140 O   0  0  0  0  0  1  0  0  0  0  0  0
  1 16  1  6  0  0  0
  1 10  1  0  0  0  0
  1 20  1  0  0  0  0
  2 12  2  0  0  0  0
  4  3  2  0  0  0  0
  5 27  1  0  0  0  0
  6 28  1  0  0  0  0
  6  5  2  0  0  0  0
  7 19  1  6  0  0  0
  7 17  1  0  0  0  0
  9 28  2  0  0  0  0
 10 20  1  0  0  0  0
 11  3  1  0  0  0  0
 12 13  1  0  0  0  0
 12  8  1  0  0  0  0
 13 11  2  0  0  0  0
 14 22  1  0  0  0  0
 15 18  2  0  0  0  0
 15  9  1  0  0  0  0
 17  8  1  0  0  0  0
 17 10  1  0  0  0  0
 18  6  1  0  0  0  0
 19 16  1  0  0  0  0
 20 29  1  0  0  0  0
 21  4  1  0  0  0  0
 22 21  2  0  0  0  0
 22 13  1  0  0  0  0
 23 14  2  0  0  0  0
 24  2  1  0  0  0  0
 24  7  1  0  0  0  0
 25  5  1  0  0  0  0
 26  9  1  0  0  0  0
 27 14  1  0  0  0  0
 27  2  1  0  0  0  0
 28 23  1  0  0  0  0
 29 30  1  0  0  0  0
 30 31  1  0  0  0  0
 32 30  1  0  0  0  0
M  END
>  <MODEL>
3

>  <REMARK>
 VINA RESULT:      -8.7      3.473      7.338
  Name = 
  2 active torsions:
  status: ('A' for Active; 'I' for Inactive)
    1  A    between atoms: C_20  and  C_29
    2  A    between atoms: C_29  and  C_30
                            x       y       z     vdW  Elec       q    Type
                         _______ _______ _______ _____ _____    ______ ____

>  <TORSDO>
F 2

$$$$
=
 OpenBabel11112416393D

 32 38  0  0  1  0  0  0  0  0999 V2000
  186.0800  177.9400  147.2360 C   0  0  1  0  0  3  0  0  0  0  0  0
  190.1680  175.9500  144.9330 C   0  0  0  0  0  0  0  0  0  0  0  0
  188.7890  174.2160  140.6010 C   0  0  0  0  0  3  0  0  0  0  0  0
  190.0940  173.7890  140.3630 C   0  0  0  0  0  3  0  0  0  0  0  0
  192.4640  175.7280  145.6790 C   0  0  0  0  0  0  0  0  0  0  0  0
  193.7490  175.2790  145.4100 C   0  0  0  0  0  0  0  0  0  0  0  0
  188.6030  177.3070  146.2090 N   0  0  1  0  0  0  0  0  0  0  0  0
  187.7410  176.1850  144.2460 C   0  0  0  0  0  2  0  0  0  0  0  0
  195.3880  174.3390  144.2950 C   0  0  0  0  0  0  0  0  0  0  0  0
  186.1260  176.9350  146.0620 C   0  0  2  0  0  3  0  0  0  0  0  0
  188.4770  174.8570  141.8000 C   0  0  0  0  0  3  0  0  0  0  0  0
  189.1550  175.7190  143.9750 C   0  0  0  0  0  0  0  0  0  0  0  0
  189.4660  175.0810  142.7740 C   0  0  0  0  0  0  0  0  0  0  0  0
  191.7770  174.8690  143.5190 C   0  0  0  0  0  0  0  0  0  0  0  0
  195.8520  174.7910  145.4860 N   0  0  0  0  0  0  0  0  0  0  0  0
  187.3010  178.5000  147.6940 O   0  0  0  0  0  0  0  0  0  0  0  0
  187.5420  176.4320  145.7340 C   0  0  2  0  0  3  0  0  0  0  0  0
  194.8590  175.3620  146.1650 N   0  0  0  0  0  0  0  0  0  0  0  0
  188.3320  177.5540  147.6110 C   0  0  0  0  0  2  0  0  0  0  0  0
  185.8850  178.4060  145.7960 C   0  0  1  0  0  3  0  0  0  0  0  0
  191.0840  174.0030  141.3230 C   0  0  0  0  0  3  0  0  0  0  0  0
  190.7840  174.6500  142.5390 C   0  0  0  0  0  0  0  0  0  0  0  0
  193.0890  174.4120  143.2450 C   0  0  0  0  0  3  0  0  0  0  0  0
  189.7930  176.6090  146.1150 O   0  0  0  0  0  0  0  0  0  0  0  0
  192.2370  176.5280  147.2410 Cl  0  0  0  0  0  0  0  0  0  0  0  0
  196.2240  173.6460  143.2780 C   0  0  0  0  0  1  0  0  0  0  0  0
  191.4670  175.5210  144.7230 N   0  0  0  0  0  0  0  0  0  0  0  0
  194.0510  174.6270  144.1990 C   0  0  0  0  0  0  0  0  0  0  0  0
  184.4080  178.6300  145.5370 C   0  0  0  0  0  2  0  0  0  0  0  0
  184.2050  179.3220  144.2010 C   0  0  2  0  0  3  0  0  0  0  0  0
  184.1110  178.2800  143.1070 C   0  0  0  0  0  1  0  0  0  0  0  0
  185.2800  180.1710  143.9380 O   0  0  0  0  0  1  0  0  0  0  0  0
  1 16  1  6  0  0  0
  2 24  1  0  0  0  0
  3 11  1  0  0  0  0
  4  3  2  0  0  0  0
  4 21  1  0  0  0  0
  5 25  1  0  0  0  0
  6  5  2  0  0  0  0
  6 18  1  0  0  0  0
  7 19  1  1  0  0  0
  8 17  1  0  0  0  0
  9 15  1  0  0  0  0
 10  1  1  0  0  0  0
 11 13  2  0  0  0  0
 12  8  1  0  0  0  0
 12  2  2  0  0  0  0
 13 12  1  0  0  0  0
 14 27  1  0  0  0  0
 15 18  2  0  0  0  0
 17 10  1  0  0  0  0
 17  7  1  0  0  0  0
 19 16  1  0  0  0  0
 20 10  1  0  0  0  0
 20  1  1  0  0  0  0
 21 22  2  0  0  0  0
 22 13  1  0  0  0  0
 22 14  1  0  0  0  0
 23 14  2  0  0  0  0
 23 28  1  0  0  0  0
 24  7  1  0  0  0  0
 26  9  1  0  0  0  0
 27  2  1  0  0  0  0
 27  5  1  0  0  0  0
 28  9  2  0  0  0  0
 28  6  1  0  0  0  0
 29 20  1  0  0  0  0
 30 29  1  0  0  0  0
 31 30  1  0  0  0  0
 32 30  1  0  0  0  0
M  END
>  <MODEL>
4

>  <REMARK>
 VINA RESULT:      -8.6      3.262      8.809
  Name = 
  2 active torsions:
  status: ('A' for Active; 'I' for Inactive)
    1  A    between atoms: C_20  and  C_29
    2  A    between atoms: C_29  and  C_30
                            x       y       z     vdW  Elec       q    Type
                         _______ _______ _______ _____ _____    ______ ____

>  <TORSDO>
F 2

$$$$
=
 OpenBabel11112416393D

 32 38  0  0  1  0  0  0  0  0999 V2000
  186.0360  179.0690  142.6010 C   0  0  1  0  0  3  0  0  0  0  0  0
  188.3970  174.8200  141.0660 C   0  0  0  0  0  0  0  0  0  0  0  0
  190.5560  172.7910  144.9250 C   0  0  0  0  0  3  0  0  0  0  0  0
  191.0480  171.7750  144.1090 C   0  0  0  0  0  3  0  0  0  0  0  0
  188.6080  173.8240  138.8660 C   0  0  0  0  0  0  0  0  0  0  0  0
  189.1240  172.8010  138.0850 C   0  0  0  0  0  0  0  0  0  0  0  0
  186.8580  176.6720  141.4170 N   0  0  1  0  0  0  0  0  0  0  0  0
  188.1630  175.9490  143.3220 C   0  0  0  0  0  2  0  0  0  0  0  0
  190.2330  170.9730  137.5910 C   0  0  0  0  0  0  0  0  0  0  0  0
  187.1660  178.2880  143.3130 C   0  0  2  0  0  3  0  0  0  0  0  0
  189.7760  173.8080  144.3740 C   0  0  0  0  0  3  0  0  0  0  0  0
  188.7010  174.8380  142.4470 C   0  0  0  0  0  0  0  0  0  0  0  0
  189.4780  173.8200  143.0000 C   0  0  0  0  0  0  0  0  0  0  0  0
  189.6780  172.8110  140.7910 C   0  0  0  0  0  0  0  0  0  0  0  0
  189.6680  171.4760  136.4670 N   0  0  0  0  0  0  0  0  0  0  0  0
  185.4680  178.5130  141.4260 O   0  0  0  0  0  0  0  0  0  0  0  0
  187.7470  177.1390  142.4710 C   0  0  2  0  0  3  0  0  0  0  0  0
  188.9940  172.5860  136.7630 N   0  0  0  0  0  0  0  0  0  0  0  0
  186.4500  177.8480  140.6770 C   0  0  0  0  0  2  0  0  0  0  0  0
  185.7260  178.1080  143.7460 C   0  0  1  0  0  3  0  0  0  0  0  0
  190.7600  171.7770  142.7440 C   0  0  0  0  0  3  0  0  0  0  0  0
  189.9740  172.7970  142.1720 C   0  0  0  0  0  0  0  0  0  0  0  0
  190.2040  171.7670  139.9920 C   0  0  0  0  0  3  0  0  0  0  0  0
  187.6000  175.8660  140.5730 O   0  0  0  0  0  0  0  0  0  0  0  0
  187.6330  175.0300  138.0140 Cl  0  0  0  0  0  0  0  0  0  0  0  0
  191.0610  169.7370  137.6330 C   0  0  0  0  0  1  0  0  0  0  0  0
  188.8880  173.8290  140.2350 N   0  0  0  0  0  0  0  0  0  0  0  0
  189.9160  171.7830  138.6510 C   0  0  0  0  0  0  0  0  0  0  0  0
  185.4860  178.9020  145.0160 C   0  0  0  0  0  2  0  0  0  0  0  0
  186.0130  178.1430  146.2200 C   0  0  2  0  0  3  0  0  0  0  0  0
  185.3320  176.7930  146.2990 C   0  0  0  0  0  1  0  0  0  0  0  0
  185.7510  178.8610  147.3870 O   0  0  0  0  0  1  0  0  0  0  0  0
  1 16  1  6  0  0  0
  1 10  1  0  0  0  0
  1 20  1  0  0  0  0
  2 12  2  0  0  0  0
  4  3  2  0  0  0  0
  5 27  1  0  0  0  0
  6 28  1  0  0  0  0
  6  5  2  0  0  0  0
  7 19  1  6  0  0  0
  7 17  1  0  0  0  0
  9 26  1  0  0  0  0
  9 28  2  0  0  0  0
 10 20  1  0  0  0  0
 11  3  1  0  0  0  0
 12 13  1  0  0  0  0
 12  8  1  0  0  0  0
 13 11  2  0  0  0  0
 14 22  1  0  0  0  0
 15 18  2  0  0  0  0
 15  9  1  0  0  0  0
 17 10  1  0  0  0  0
 17  8  1  0  0  0  0
 18  6  1  0  0  0  0
 19 16  1  0  0  0  0
 20 29  1  0  0  0  0
 21  4  1  0  0  0  0
 22 21  2  0  0  0  0
 22 13  1  0  0  0  0
 23 14  2  0  0  0  0
 24  2  1  0  0  0  0
 24  7  1  0  0  0  0
 25  5  1  0  0  0  0
 27 14  1  0  0  0  0
 27  2  1  0  0  0  0
 28 23  1  0  0  0  0
 29 30  1  0  0  0  0
 30 31  1  0  0  0  0
 30 32  1  0  0  0  0
M  END
>  <MODEL>
5

>  <REMARK>
 VINA RESULT:      -8.5      4.088      7.614
  Name = 
  2 active torsions:
  status: ('A' for Active; 'I' for Inactive)
    1  A    between atoms: C_20  and  C_29
    2  A    between atoms: C_29  and  C_30
                            x       y       z     vdW  Elec       q    Type
                         _______ _______ _______ _____ _____    ______ ____

>  <TORSDO>
F 2

$$$$
=
 OpenBabel11112416393D

 32 38  0  0  1  0  0  0  0  0999 V2000
  184.5360  178.4290  144.8170 C   0  0  1  0  0  3  0  0  0  0  0  0
  189.1570  176.3760  144.1820 C   0  0  0  0  0  0  0  0  0  0  0  0
  189.1230  173.7770  140.0690 C   0  0  0  0  0  3  0  0  0  0  0  0
  190.4500  173.4160  140.2920 C   0  0  0  0  0  3  0  0  0  0  0  0
  191.1450  176.4720  145.5660 C   0  0  0  0  0  0  0  0  0  0  0  0
  192.4620  176.0830  145.7590 C   0  0  0  0  0  0  0  0  0  0  0  0
  187.2620  177.8170  144.6780 N   0  0  1  0  0  0  0  0  0  0  0  0
  187.0260  176.2920  142.8150 C   0  0  0  0  0  2  0  0  0  0  0  0
  194.3740  175.0850  145.3540 C   0  0  0  0  0  0  0  0  0  0  0  0
  184.9400  177.2340  143.9240 C   0  0  2  0  0  3  0  0  0  0  0  0
  188.4650  174.6010  140.9830 C   0  0  0  0  0  3  0  0  0  0  0  0
  188.4680  175.8950  143.0450 C   0  0  0  0  0  0  0  0  0  0  0  0
  189.1260  175.0740  142.1290 C   0  0  0  0  0  0  0  0  0  0  0  0
  191.1280  175.1830  143.5140 C   0  0  0  0  0  0  0  0  0  0  0  0
  194.4650  175.7810  146.5130 N   0  0  0  0  0  0  0  0  0  0  0  0
  185.5600  179.1570  145.4770 O   0  0  0  0  0  0  0  0  0  0  0  0
  186.4010  176.7900  144.1090 C   0  0  2  0  0  3  0  0  0  0  0  0
  193.3050  176.3880  146.7620 N   0  0  0  0  0  0  0  0  0  0  0  0
  186.5930  178.2940  145.8720 C   0  0  0  0  0  2  0  0  0  0  0  0
  184.7530  178.6080  143.3170 C   0  0  1  0  0  3  0  0  0  0  0  0
  191.1170  173.8780  141.4280 C   0  0  0  0  0  3  0  0  0  0  0  0
  190.4650  174.7110  142.3600 C   0  0  0  0  0  0  0  0  0  0  0  0
  192.4730  174.7860  143.7120 C   0  0  0  0  0  3  0  0  0  0  0  0
  188.4430  177.2080  145.0590 O   0  0  0  0  0  0  0  0  0  0  0  0
  190.4600  177.5240  146.8140 Cl  0  0  0  0  0  0  0  0  0  0  0  0
  195.4830  174.2850  144.7670 C   0  0  0  0  0  1  0  0  0  0  0  0
  190.4700  176.0170  144.4310 N   0  0  0  0  0  0  0  0  0  0  0  0
  193.1150  175.2460  144.8340 C   0  0  0  0  0  0  0  0  0  0  0  0
  183.4090  178.6660  142.6180 C   0  0  0  0  0  2  0  0  0  0  0  0
  183.4670  177.9160  141.3000 C   0  0  2  0  0  3  0  0  0  0  0  0
  184.7370  178.2910  140.5660 C   0  0  0  0  0  1  0  0  0  0  0  0
  182.3650  178.2510  140.5130 O   0  0  0  0  0  1  0  0  0  0  0  0
  1 16  1  1  0  0  0
  2 27  1  0  0  0  0
  2 24  1  0  0  0  0
  3  4  2  0  0  0  0
  3 11  1  0  0  0  0
  4 21  1  0  0  0  0
  5  6  2  0  0  0  0
  5 25  1  0  0  0  0
  6 18  1  0  0  0  0
  7 24  1  0  0  0  0
  7 19  1  1  0  0  0
  8 12  1  0  0  0  0
  8 17  1  0  0  0  0
  9 15  1  0  0  0  0
 10 17  1  0  0  0  0
 10  1  1  0  0  0  0
 11 13  2  0  0  0  0
 12  2  2  0  0  0  0
 13 22  1  0  0  0  0
 13 12  1  0  0  0  0
 14 23  2  0  0  0  0
 14 27  1  0  0  0  0
 15 18  2  0  0  0  0
 16 19  1  0  0  0  0
 17  7  1  0  0  0  0
 20 10  1  0  0  0  0
 20  1  1  0  0  0  0
 21 22  2  0  0  0  0
 22 14  1  0  0  0  0
 23 28  1  0  0  0  0
 26  9  1  0  0  0  0
 27  5  1  0  0  0  0
 28  9  2  0  0  0  0
 28  6  1  0  0  0  0
 29 20  1  0  0  0  0
 30 29  1  0  0  0  0
 31 30  1  0  0  0  0
 32 30  1  0  0  0  0
M  END
>  <MODEL>
6

>  <REMARK>
 VINA RESULT:      -8.3      2.802      8.812
  Name = 
  2 active torsions:
  status: ('A' for Active; 'I' for Inactive)
    1  A    between atoms: C_20  and  C_29
    2  A    between atoms: C_29  and  C_30
                            x       y       z     vdW  Elec       q    Type
                         _______ _______ _______ _____ _____    ______ ____

>  <TORSDO>
F 2

$$$$
=
 OpenBabel11112416393D

 32 38  0  0  1  0  0  0  0  0999 V2000
  187.7370  177.0710  147.1270 C   0  0  1  0  0  3  0  0  0  0  0  0
  191.4910  175.8350  143.9090 C   0  0  0  0  0  0  0  0  0  0  0  0
  189.5560  173.4060  140.1630 C   0  0  0  0  0  3  0  0  0  0  0  0
  190.8260  173.2630  139.6070 C   0  0  0  0  0  3  0  0  0  0  0  0
  193.8830  176.2120  144.0340 C   0  0  0  0  0  0  0  0  0  0  0  0
  195.1310  176.0410  143.4540 C   0  0  0  0  0  0  0  0  0  0  0  0
  190.0060  176.9250  145.4980 N   0  0  1  0  0  0  0  0  0  0  0  0
  188.9880  175.4450  143.8760 C   0  0  0  0  0  2  0  0  0  0  0  0
  196.6240  175.3880  141.9860 C   0  0  0  0  0  0  0  0  0  0  0  0
  187.7360  175.9900  146.0220 C   0  0  2  0  0  3  0  0  0  0  0  0
  189.4020  174.0780  141.3770 C   0  0  0  0  0  3  0  0  0  0  0  0
  190.3620  175.2850  143.2610 C   0  0  0  0  0  0  0  0  0  0  0  0
  190.5140  174.6160  142.0470 C   0  0  0  0  0  0  0  0  0  0  0  0
  192.9160  175.0080  142.1650 C   0  0  0  0  0  0  0  0  0  0  0  0
  197.2420  176.0500  142.9940 N   0  0  0  0  0  0  0  0  0  0  0  0
  188.8580  177.9350  147.2260 O   0  0  0  0  0  0  0  0  0  0  0  0
  189.1070  175.7890  145.3530 C   0  0  2  0  0  3  0  0  0  0  0  0
  196.3380  176.4470  143.8880 N   0  0  0  0  0  0  0  0  0  0  0  0
  190.0360  177.2430  146.9110 C   0  0  0  0  0  2  0  0  0  0  0  0
  187.0860  177.3340  145.7720 C   0  0  1  0  0  3  0  0  0  0  0  0
  191.9380  173.7910  140.2640 C   0  0  0  0  0  3  0  0  0  0  0  0
  191.7980  174.4720  141.4900 C   0  0  0  0  0  0  0  0  0  0  0  0
  194.1910  174.8330  141.5740 C   0  0  0  0  0  3  0  0  0  0  0  0
  191.2690  176.5070  145.1220 O   0  0  0  0  0  0  0  0  0  0  0  0
  193.8580  177.0940  145.5690 Cl  0  0  0  0  0  0  0  0  0  0  0  0
  197.3280  174.8030  140.8120 C   0  0  0  0  0  1  0  0  0  0  0  0
  192.7630  175.6900  143.3830 N   0  0  0  0  0  0  0  0  0  0  0  0
  195.2760  175.3550  142.2330 C   0  0  0  0  0  0  0  0  0  0  0  0
  185.5820  177.1910  145.9020 C   0  0  0  0  0  2  0  0  0  0  0  0
  184.8780  178.2090  145.0240 C   0  0  2  0  0  3  0  0  0  0  0  0
  185.9100  179.0560  144.3110 C   0  0  0  0  0  1  0  0  0  0  0  0
  184.0670  179.0330  145.8060 O   0  0  0  0  0  1  0  0  0  0  0  0
  1 16  1  6  0  0  0
  2 24  1  0  0  0  0
  3 11  1  0  0  0  0
  4  3  2  0  0  0  0
  4 21  1  0  0  0  0
  5 25  1  0  0  0  0
  6 18  1  0  0  0  0
  6  5  2  0  0  0  0
  7 19  1  1  0  0  0
  8 17  1  0  0  0  0
  9 28  2  0  0  0  0
  9 15  1  0  0  0  0
 10  1  1  0  0  0  0
 11 13  2  0  0  0  0
 12  8  1  0  0  0  0
 12  2  2  0  0  0  0
 13 12  1  0  0  0  0
 14 27  1  0  0  0  0
 15 18  2  0  0  0  0
 17  7  1  0  0  0  0
 17 10  1  0  0  0  0
 19 16  1  0  0  0  0
 20 29  1  0  0  0  0
 20 10  1  0  0  0  0
 20  1  1  0  0  0  0
 21 22  2  0  0  0  0
 22 13  1  0  0  0  0
 22 14  1  0  0  0  0
 23 14  2  0  0  0  0
 23 28  1  0  0  0  0
 24  7  1  0  0  0  0
 26  9  1  0  0  0  0
 27  2  1  0  0  0  0
 27  5  1  0  0  0  0
 28  6  1  0  0  0  0
 30 32  1  0  0  0  0
 30 29  1  0  0  0  0
 31 30  1  0  0  0  0
M  END
>  <MODEL>
7

>  <REMARK>
 VINA RESULT:      -8.2      3.537      9.026
  Name = 
  2 active torsions:
  status: ('A' for Active; 'I' for Inactive)
    1  A    between atoms: C_20  and  C_29
    2  A    between atoms: C_29  and  C_30
                            x       y       z     vdW  Elec       q    Type
                         _______ _______ _______ _____ _____    ______ ____

>  <TORSDO>
F 2

$$$$
=
 OpenBabel11112416393D

 32 38  0  0  1  0  0  0  0  0999 V2000
  195.4910  175.4710  145.3480 C   0  0  1  0  0  3  0  0  0  0  0  0
  190.4630  176.2710  145.1250 C   0  0  0  0  0  0  0  0  0  0  0  0
  188.8050  174.4240  140.9400 C   0  0  0  0  0  3  0  0  0  0  0  0
  187.5200  174.8520  141.2660 C   0  0  0  0  0  3  0  0  0  0  0  0
  188.9610  177.3980  146.6590 C   0  0  0  0  0  0  0  0  0  0  0  0
  187.6700  177.8180  146.9440 C   0  0  0  0  0  0  0  0  0  0  0  0
  192.7500  175.7880  145.8000 N   0  0  1  0  0  0  0  0  0  0  0  0
  192.1050  175.1470  143.5580 C   0  0  0  0  0  2  0  0  0  0  0  0
  185.5160  178.1180  146.6620 C   0  0  0  0  0  0  0  0  0  0  0  0
  194.5700  175.4470  144.1070 C   0  0  2  0  0  3  0  0  0  0  0  0
  189.8630  174.6730  141.8150 C   0  0  0  0  0  3  0  0  0  0  0  0
  190.7040  175.6040  143.9020 C   0  0  0  0  0  0  0  0  0  0  0  0
  189.6470  175.3510  143.0280 C   0  0  0  0  0  0  0  0  0  0  0  0
  188.1360  176.4720  144.5760 C   0  0  0  0  0  0  0  0  0  0  0  0
  185.8960  178.6620  147.8430 N   0  0  0  0  0  0  0  0  0  0  0  0
  194.8970  175.6150  146.6280 O   0  0  0  0  0  0  0  0  0  0  0  0
  193.1280  175.8950  144.3990 C   0  0  2  0  0  3  0  0  0  0  0  0
  187.2050  178.4810  148.0170 N   0  0  0  0  0  0  0  0  0  0  0  0
  193.7840  176.4660  146.5550 C   0  0  0  0  0  2  0  0  0  0  0  0
  194.9910  174.1510  144.7670 C   0  0  1  0  0  3  0  0  0  0  0  0
  187.2940  175.5280  142.4660 C   0  0  0  0  0  3  0  0  0  0  0  0
  188.3520  175.7870  143.3610 C   0  0  0  0  0  0  0  0  0  0  0  0
  186.8180  176.9010  144.8680 C   0  0  0  0  0  3  0  0  0  0  0  0
  191.5670  176.4830  145.9670 O   0  0  0  0  0  0  0  0  0  0  0  0
  190.1860  177.7860  147.8760 Cl  0  0  0  0  0  0  0  0  0  0  0  0
  184.1210  178.1340  146.1420 C   0  0  0  0  0  1  0  0  0  0  0  0
  189.1980  176.7180  145.4620 N   0  0  0  0  0  0  0  0  0  0  0  0
  186.6120  177.5670  146.0500 C   0  0  0  0  0  0  0  0  0  0  0  0
  196.0960  173.5110  143.9500 C   0  0  0  0  0  2  0  0  0  0  0  0
  196.4130  172.1260  144.4850 C   0  0  2  0  0  3  0  0  0  0  0  0
  195.3610  171.7270  145.4960 C   0  0  0  0  0  1  0  0  0  0  0  0
  197.6660  172.1280  145.0990 O   0  0  0  0  0  1  0  0  0  0  0  0
  1 16  1  1  0  0  0
  2 27  1  0  0  0  0
  2 24  1  0  0  0  0
  3  4  2  0  0  0  0
  3 11  1  0  0  0  0
  4 21  1  0  0  0  0
  5  6  2  0  0  0  0
  5 25  1  0  0  0  0
  6 18  1  0  0  0  0
  7 24  1  0  0  0  0
  7 19  1  1  0  0  0
  8 12  1  0  0  0  0
  8 17  1  0  0  0  0
  9 15  1  0  0  0  0
 10 17  1  0  0  0  0
 10 20  1  0  0  0  0
 10  1  1  0  0  0  0
 11 13  2  0  0  0  0
 12  2  2  0  0  0  0
 13 22  1  0  0  0  0
 13 12  1  0  0  0  0
 14 23  2  0  0  0  0
 14 27  1  0  0  0  0
 15 18  2  0  0  0  0
 17  7  1  0  0  0  0
 19 16  1  0  0  0  0
 20  1  1  0  0  0  0
 21 22  2  0  0  0  0
 22 14  1  0  0  0  0
 23 28  1  0  0  0  0
 26  9  1  0  0  0  0
 27  5  1  0  0  0  0
 28  9  2  0  0  0  0
 28  6  1  0  0  0  0
 29 30  1  0  0  0  0
 29 20  1  0  0  0  0
 30 32  1  0  0  0  0
 30 31  1  0  0  0  0
M  END
>  <MODEL>
8

>  <REMARK>
 VINA RESULT:      -8.2      3.373      5.338
  Name = 
  2 active torsions:
  status: ('A' for Active; 'I' for Inactive)
    1  A    between atoms: C_20  and  C_29
    2  A    between atoms: C_29  and  C_30
                            x       y       z     vdW  Elec       q    Type
                         _______ _______ _______ _____ _____    ______ ____

>  <TORSDO>
F 2

$$$$
=
 OpenBabel11112416393D

 32 38  0  0  1  0  0  0  0  0999 V2000
  189.9590  172.6770  139.3470 C   0  0  1  0  0  3  0  0  0  0  0  0
  188.7890  175.4840  143.4380 C   0  0  0  0  0  0  0  0  0  0  0  0
  192.3170  174.9190  146.7400 C   0  0  0  0  0  3  0  0  0  0  0  0
  191.6310  175.7630  147.6100 C   0  0  0  0  0  3  0  0  0  0  0  0
  186.8590  176.8710  143.9160 C   0  0  0  0  0  0  0  0  0  0  0  0
  186.2010  177.6980  144.8140 C   0  0  0  0  0  0  0  0  0  0  0  0
  189.1260  174.6050  141.1940 N   0  0  1  0  0  0  0  0  0  0  0  0
  190.7500  173.9820  142.8750 C   0  0  0  0  0  2  0  0  0  0  0  0
  185.8320  178.8090  146.6690 C   0  0  0  0  0  0  0  0  0  0  0  0
  190.5110  172.5520  140.7870 C   0  0  2  0  0  3  0  0  0  0  0  0
  191.7820  174.6330  145.4830 C   0  0  0  0  0  3  0  0  0  0  0  0
  190.0160  174.9000  143.8290 C   0  0  0  0  0  0  0  0  0  0  0  0
  190.5540  175.1880  145.0830 C   0  0  0  0  0  0  0  0  0  0  0  0
  188.6210  176.5940  145.5580 C   0  0  0  0  0  0  0  0  0  0  0  0
  184.8060  179.0160  145.8070 N   0  0  0  0  0  0  0  0  0  0  0  0
  189.1030  173.7670  139.0440 O   0  0  0  0  0  0  0  0  0  0  0  0
  189.8050  173.4690  141.8000 C   0  0  2  0  0  3  0  0  0  0  0  0
  185.0270  178.3420  144.6800 N   0  0  0  0  0  0  0  0  0  0  0  0
  188.2860  174.0650  140.1440 C   0  0  0  0  0  2  0  0  0  0  0  0
  191.3180  173.2640  139.7220 C   0  0  1  0  0  3  0  0  0  0  0  0
  190.4100  176.3190  147.2240 C   0  0  0  0  0  3  0  0  0  0  0  0
  189.8560  176.0390  145.9580 C   0  0  0  0  0  0  0  0  0  0  0  0
  187.9480  177.4390  146.4730 C   0  0  0  0  0  3  0  0  0  0  0  0
  188.3070  175.1640  142.1570 O   0  0  0  0  0  0  0  0  0  0  0  0
  186.0490  176.6160  142.3630 Cl  0  0  0  0  0  0  0  0  0  0  0  0
  185.9180  179.4080  148.0290 C   0  0  0  0  0  1  0  0  0  0  0  0
  188.0830  176.3120  144.2910 N   0  0  0  0  0  0  0  0  0  0  0  0
  186.7480  177.9750  146.0810 C   0  0  0  0  0  0  0  0  0  0  0  0
  192.4160  172.3420  139.2290 C   0  0  0  0  0  2  0  0  0  0  0  0
  191.8700  171.3780  138.1920 C   0  0  2  0  0  3  0  0  0  0  0  0
  192.3430  169.9760  138.5130 C   0  0  0  0  0  1  0  0  0  0  0  0
  192.3220  171.7380  136.9220 O   0  0  0  0  0  1  0  0  0  0  0  0
  1 16  1  1  0  0  0
  1 20  1  0  0  0  0
  1 10  1  0  0  0  0
  2 12  2  0  0  0  0
  2 27  1  0  0  0  0
  3  4  1  0  0  0  0
  5 27  1  0  0  0  0
  5  6  2  0  0  0  0
  6 28  1  0  0  0  0
  7 19  1  6  0  0  0
  7 17  1  0  0  0  0
  7 24  1  0  0  0  0
  8 12  1  0  0  0  0
  9 26  1  0  0  0  0
 10 17  1  0  0  0  0
 11  3  2  0  0  0  0
 12 13  1  0  0  0  0
 13 11  1  0  0  0  0
 13 22  2  0  0  0  0
 14 22  1  0  0  0  0
 14 23  2  0  0  0  0
 15  9  1  0  0  0  0
 16 19  1  0  0  0  0
 17  8  1  0  0  0  0
 18  6  1  0  0  0  0
 18 15  2  0  0  0  0
 20 10  1  0  0  0  0
 21  4  2  0  0  0  0
 22 21  1  0  0  0  0
 24  2  1  0  0  0  0
 25  5  1  0  0  0  0
 27 14  1  0  0  0  0
 28 23  1  0  0  0  0
 28  9  2  0  0  0  0
 29 20  1  0  0  0  0
 30 31  1  0  0  0  0
 30 29  1  0  0  0  0
 32 30  1  0  0  0  0
M  END
>  <MODEL>
9

>  <REMARK>
 VINA RESULT:      -8.0      3.232      5.609
  Name = 
  2 active torsions:
  status: ('A' for Active; 'I' for Inactive)
    1  A    between atoms: C_20  and  C_29
    2  A    between atoms: C_29  and  C_30
                            x       y       z     vdW  Elec       q    Type
                         _______ _______ _______ _____ _____    ______ ____

>  <TORSDO>
F 2

$$$$
