=
 OpenBabel11112416433D

 32 37  0  0  1  0  0  0  0  0999 V2000
  188.2280  176.0730  141.6080 C   0  0  1  0  0  3  0  0  0  0  0  0
  192.0780  177.5840  144.4660 C   0  0  0  0  0  3  0  0  0  0  0  0
  192.5460  176.3260  144.4670 C   0  0  0  0  0  3  0  0  0  0  0  0
  188.4590  173.9250  140.2760 C   0  0  2  0  0  3  0  0  0  0  0  0
  188.7880  172.6060  140.8460 N   0  0  2  0  0  0  0  0  0  0  0  0
  186.2710  177.1800  141.5530 C   0  0  2  0  0  3  0  0  0  0  0  0
  188.2330  178.3740  142.5420 O   0  0  0  0  0  0  0  0  0  0  0  0
  190.1600  171.5850  142.5490 C   0  0  2  0  0  3  0  0  0  0  0  0
  190.9120  178.0140  143.6110 C   0  0  0  0  0  2  0  0  0  0  0  0
  189.0310  177.2720  142.1210 C   0  0  1  0  0  3  0  0  0  0  0  0
  190.0520  176.8290  143.1720 C   0  0  1  0  0  3  0  0  0  0  0  0
  190.1470  174.5890  141.9950 C   0  0  2  0  0  3  0  0  0  0  0  0
  188.8130  171.8780  143.1600 C   0  0  0  0  0  2  0  0  0  0  0  0
  186.8590  178.0470  142.7020 C   0  0  2  0  0  3  0  0  0  0  0  0
  187.9420  172.3700  142.0160 C   0  0  0  0  0  2  0  0  0  0  0  0
  191.8820  175.2110  143.6990 C   0  0  0  0  0  2  0  0  0  0  0  0
  190.9740  175.7360  142.5880 C   0  0  2  0  0  3  0  0  0  0  0  0
  190.9550  173.6080  141.4070 O   0  0  0  0  0  0  0  0  0  0  0  0
  187.2500  176.5640  140.7400 O   0  0  0  0  0  0  0  0  0  0  0  0
  188.7340  173.9270  138.7840 C   0  0  0  0  0  1  0  0  0  0  0  0
  191.1840  171.9350  143.4310 O   0  0  0  0  0  1  0  0  0  0  0  0
  189.1850  175.1020  140.9370 C   0  0  2  0  0  3  0  0  0  0  0  0
  190.1940  172.4120  141.2730 C   0  0  2  0  0  3  0  0  0  0  0  0
  187.3450  178.1020  145.0970 C   0  0  0  0  0  2  0  0  0  0  0  0
  186.6160  177.3900  144.0540 C   0  0  1  0  0  3  0  0  0  0  0  0
  185.9010  178.3320  144.9290 N   0  0  0  0  0  0  0  0  0  0  0  0
  185.2260  177.5290  145.9320 C   0  0  0  0  0  2  0  0  0  0  0  0
  185.5920  178.0120  147.2900 C   0  0  0  0  0  0  0  0  0  0  0  0
  185.9920  177.1970  148.1620 O   0  0  0  0  0  1  0  0  0  0  0  0
  185.5300  179.3680  147.5850 O   0  0  0  0  0  0  0  0  0  0  0  0
  184.0260  178.2410  141.3990 C   0  0  0  0  0  1  0  0  0  0  0  0
  185.3550  178.0350  140.6970 C   0  0  0  0  0  2  0  0  0  0  0  0
  1 19  1  6  0  0  0
  1 10  1  0  0  0  0
  2  3  2  0  0  0  0
  4 20  1  6  0  0  0
  4  5  1  0  0  0  0
  4 22  1  0  0  0  0
  5 23  1  0  0  0  0
  5 15  1  1  0  0  0
  6 32  1  6  0  0  0
  6 14  1  0  0  0  0
  8 13  1  0  0  0  0
  8 21  1  1  0  0  0
  9  2  1  0  0  0  0
 10  7  1  1  0  0  0
 10 11  1  0  0  0  0
 11  9  1  6  0  0  0
 12 18  1  6  0  0  0
 12 17  1  0  0  0  0
 14  7  1  6  0  0  0
 14 25  1  0  0  0  0
 15 13  1  0  0  0  0
 16  3  1  0  0  0  0
 17 11  1  0  0  0  0
 17 16  1  1  0  0  0
 19  6  1  0  0  0  0
 22  1  1  0  0  0  0
 22 12  1  0  0  0  0
 23 18  1  0  0  0  0
 23  8  1  0  0  0  0
 25 26  1  0  0  0  0
 25 24  1  0  0  0  0
 26 24  1  0  0  0  0
 26 27  1  0  0  0  0
 27 28  1  0  0  0  0
 28 30  2  0  0  0  0
 28 29  1  0  0  0  0
 32 31  1  0  0  0  0
M  END
>  <MODEL>
1

>  <REMARK>
 VINA RESULT:      -7.3      0.000      0.000
  Name = 
  4 active torsions:
  status: ('A' for Active; 'I' for Inactive)
    1  A    between atoms: C_7  and  C_19
    2  A    between atoms: C_10  and  C_17
    3  A    between atoms: N_20  and  C_29
    4  A    between atoms: C_29  and  C_30
                            x       y       z     vdW  Elec       q    Type
                         _______ _______ _______ _____ _____    ______ ____

>  <TORSDO>
F 4

$$$$
=
 OpenBabel11112416433D

 32 37  0  0  1  0  0  0  0  0999 V2000
  190.9280  175.6030  142.9070 C   0  0  1  0  0  3  0  0  0  0  0  0
  194.5320  176.5320  146.2860 C   0  0  0  0  0  3  0  0  0  0  0  0
  194.9390  175.2570  146.1760 C   0  0  0  0  0  3  0  0  0  0  0  0
  191.1940  173.6200  141.3460 C   0  0  2  0  0  3  0  0  0  0  0  0
  191.4010  172.2250  141.7760 N   0  0  2  0  0  0  0  0  0  0  0  0
  189.0410  176.8220  142.8040 C   0  0  2  0  0  3  0  0  0  0  0  0
  190.9460  177.7720  144.1170 O   0  0  0  0  0  0  0  0  0  0  0  0
  192.5420  170.9280  143.4620 C   0  0  2  0  0  3  0  0  0  0  0  0
  193.4820  177.1290  145.3840 C   0  0  0  0  0  2  0  0  0  0  0  0
  191.7300  176.6830  143.6400 C   0  0  1  0  0  3  0  0  0  0  0  0
  192.6160  176.0580  144.7200 C   0  0  1  0  0  3  0  0  0  0  0  0
  192.7260  173.9730  143.2880 C   0  0  2  0  0  3  0  0  0  0  0  0
  191.1560  171.2250  143.9730 C   0  0  0  0  0  2  0  0  0  0  0  0
  189.5490  177.5100  144.1030 C   0  0  2  0  0  3  0  0  0  0  0  0
  190.4290  171.9010  142.8210 C   0  0  0  0  0  2  0  0  0  0  0  0
  194.3050  174.2840  145.2150 C   0  0  0  0  0  2  0  0  0  0  0  0
  193.5410  174.9900  144.0960 C   0  0  2  0  0  3  0  0  0  0  0  0
  193.5440  173.0230  142.6620 O   0  0  0  0  0  0  0  0  0  0  0  0
  190.0680  176.2510  142.0180 O   0  0  0  0  0  0  0  0  0  0  0  0
  191.6200  173.7830  139.8990 C   0  0  0  0  0  1  0  0  0  0  0  0
  193.4860  171.1100  144.4750 O   0  0  0  0  0  1  0  0  0  0  0  0
  191.9020  174.6640  142.2150 C   0  0  2  0  0  3  0  0  0  0  0  0
  192.7460  171.8990  142.3080 C   0  0  2  0  0  3  0  0  0  0  0  0
  189.5180  177.4260  146.5460 C   0  0  0  0  0  2  0  0  0  0  0  0
  189.1390  176.7110  145.3330 C   0  0  1  0  0  3  0  0  0  0  0  0
  188.1220  177.4640  146.0830 N   0  0  0  0  0  0  0  0  0  0  0  0
  187.3880  176.4910  146.8710 C   0  0  0  0  0  2  0  0  0  0  0  0
  186.0530  177.0410  147.2290 C   0  0  0  0  0  0  0  0  0  0  0  0
  185.9420  177.8510  148.1860 O   0  0  0  0  0  1  0  0  0  0  0  0
  184.9350  176.6920  146.4830 O   0  0  0  0  0  0  0  0  0  0  0  0
  186.9780  178.2070  142.6950 C   0  0  0  0  0  1  0  0  0  0  0  0
  188.2580  177.8260  141.9780 C   0  0  0  0  0  2  0  0  0  0  0  0
  1 19  1  6  0  0  0
  1 10  1  0  0  0  0
  3  2  2  0  0  0  0
  4 20  1  6  0  0  0
  4  5  1  0  0  0  0
  4 22  1  0  0  0  0
  5 23  1  0  0  0  0
  5 15  1  1  0  0  0
  6 32  1  6  0  0  0
  6 14  1  0  0  0  0
  8 13  1  0  0  0  0
  8 21  1  1  0  0  0
  9  2  1  0  0  0  0
 10  7  1  1  0  0  0
 10 11  1  0  0  0  0
 11  9  1  6  0  0  0
 12 18  1  6  0  0  0
 12 17  1  0  0  0  0
 14  7  1  6  0  0  0
 14 25  1  0  0  0  0
 15 13  1  0  0  0  0
 16  3  1  0  0  0  0
 17 11  1  0  0  0  0
 17 16  1  1  0  0  0
 19  6  1  0  0  0  0
 22  1  1  0  0  0  0
 22 12  1  0  0  0  0
 23 18  1  0  0  0  0
 23  8  1  0  0  0  0
 25 26  1  0  0  0  0
 25 24  1  0  0  0  0
 26 24  1  0  0  0  0
 26 27  1  0  0  0  0
 27 28  1  0  0  0  0
 28 29  1  0  0  0  0
 30 28  2  0  0  0  0
 32 31  1  0  0  0  0
M  END
>  <MODEL>
2

>  <REMARK>
 VINA RESULT:      -7.1      2.067      2.878
  Name = 
  4 active torsions:
  status: ('A' for Active; 'I' for Inactive)
    1  A    between atoms: C_7  and  C_19
    2  A    between atoms: C_10  and  C_17
    3  A    between atoms: N_20  and  C_29
    4  A    between atoms: C_29  and  C_30
                            x       y       z     vdW  Elec       q    Type
                         _______ _______ _______ _____ _____    ______ ____

>  <TORSDO>
F 4

$$$$
=
 OpenBabel11112416433D

 32 37  0  0  1  0  0  0  0  0999 V2000
  191.7280  175.1930  144.5660 C   0  0  1  0  0  3  0  0  0  0  0  0
  190.1830  170.9780  142.3050 C   0  0  0  0  0  3  0  0  0  0  0  0
  191.3910  170.8660  141.7280 C   0  0  0  0  0  3  0  0  0  0  0  0
  194.2190  175.5980  144.8340 C   0  0  2  0  0  3  0  0  0  0  0  0
  195.1980  175.6160  143.7320 N   0  0  2  0  0  0  0  0  0  0  0  0
  190.2900  176.7790  145.2530 C   0  0  2  0  0  3  0  0  0  0  0  0
  189.3380  174.5330  144.7020 O   0  0  0  0  0  0  0  0  0  0  0  0
  195.7000  174.5100  141.6460 C   0  0  2  0  0  3  0  0  0  0  0  0
  189.8800  172.0140  143.3570 C   0  0  0  0  0  2  0  0  0  0  0  0
  190.6780  174.0780  144.5450 C   0  0  1  0  0  3  0  0  0  0  0  0
  190.8710  173.1770  143.3230 C   0  0  1  0  0  3  0  0  0  0  0  0
  193.3390  173.7320  143.4230 C   0  0  2  0  0  3  0  0  0  0  0  0
  194.8340  175.7040  141.3350 C   0  0  0  0  0  2  0  0  0  0  0  0
  189.1960  175.9380  144.5360 C   0  0  2  0  0  3  0  0  0  0  0  0
  194.6780  176.4520  142.6490 C   0  0  0  0  0  2  0  0  0  0  0  0
  192.5140  171.8330  142.0040 C   0  0  0  0  0  2  0  0  0  0  0  0
  192.3060  172.6060  143.3050 C   0  0  2  0  0  3  0  0  0  0  0  0
  194.6500  173.2400  143.4670 O   0  0  0  0  0  0  0  0  0  0  0  0
  191.4260  176.0320  145.6400 O   0  0  0  0  0  0  0  0  0  0  0  0
  194.9330  175.3860  146.1560 C   0  0  0  0  0  1  0  0  0  0  0  0
  195.2800  173.3980  140.9120 O   0  0  0  0  0  1  0  0  0  0  0  0
  193.1050  174.5580  144.6770 C   0  0  2  0  0  3  0  0  0  0  0  0
  195.5440  174.3000  143.1450 C   0  0  2  0  0  3  0  0  0  0  0  0
  188.0620  175.5330  142.4090 C   0  0  0  0  0  2  0  0  0  0  0  0
  189.1180  176.3000  143.0590 C   0  0  1  0  0  3  0  0  0  0  0  0
  187.8190  176.9350  142.7840 N   0  0  0  0  0  0  0  0  0  0  0  0
  187.9970  177.7310  141.5830 C   0  0  0  0  0  2  0  0  0  0  0  0
  186.7210  177.7770  140.8200 C   0  0  0  0  0  0  0  0  0  0  0  0
  186.6980  177.4270  139.6110 O   0  0  0  0  0  0  0  0  0  0  0  0
  185.5480  178.1700  141.4510 O   0  0  0  0  0  1  0  0  0  0  0  0
  188.1880  177.2150  146.5100 C   0  0  0  0  0  1  0  0  0  0  0  0
  189.6840  177.4610  146.4650 C   0  0  0  0  0  2  0  0  0  0  0  0
  1 22  1  0  0  0  0
  1 19  1  1  0  0  0
  2  9  1  0  0  0  0
  3 16  1  0  0  0  0
  3  2  2  0  0  0  0
  4 20  1  1  0  0  0
  5 15  1  6  0  0  0
  5  4  1  0  0  0  0
  6 19  1  0  0  0  0
  6 32  1  1  0  0  0
  8 21  1  6  0  0  0
  8 23  1  0  0  0  0
 10  1  1  0  0  0  0
 10  7  1  6  0  0  0
 11  9  1  1  0  0  0
 11 10  1  0  0  0  0
 12 18  1  1  0  0  0
 12 22  1  0  0  0  0
 13  8  1  0  0  0  0
 13 15  1  0  0  0  0
 14  7  1  6  0  0  0
 14  6  1  0  0  0  0
 17 16  1  6  0  0  0
 17 11  1  0  0  0  0
 17 12  1  0  0  0  0
 22  4  1  0  0  0  0
 23 18  1  0  0  0  0
 23  5  1  0  0  0  0
 24 26  1  0  0  0  0
 24 25  1  0  0  0  0
 25 14  1  0  0  0  0
 26 25  1  0  0  0  0
 27 26  1  0  0  0  0
 28 30  1  0  0  0  0
 28 27  1  0  0  0  0
 29 28  2  0  0  0  0
 32 31  1  0  0  0  0
M  END
>  <MODEL>
3

>  <REMARK>
 VINA RESULT:      -6.6      2.891      5.904
  Name = 
  4 active torsions:
  status: ('A' for Active; 'I' for Inactive)
    1  A    between atoms: C_7  and  C_19
    2  A    between atoms: C_10  and  C_17
    3  A    between atoms: N_20  and  C_29
    4  A    between atoms: C_29  and  C_30
                            x       y       z     vdW  Elec       q    Type
                         _______ _______ _______ _____ _____    ______ ____

>  <TORSDO>
F 4

$$$$
=
 OpenBabel11112416433D

 32 37  0  0  1  0  0  0  0  0999 V2000
  193.5310  174.2880  144.6620 C   0  0  1  0  0  3  0  0  0  0  0  0
  192.0680  171.4930  140.7500 C   0  0  0  0  0  3  0  0  0  0  0  0
  193.2540  171.7220  140.1650 C   0  0  0  0  0  3  0  0  0  0  0  0
  196.0130  174.6610  145.0420 C   0  0  2  0  0  3  0  0  0  0  0  0
  196.9450  175.2340  144.0530 N   0  0  2  0  0  0  0  0  0  0  0  0
  192.0590  175.3060  146.0240 C   0  0  2  0  0  3  0  0  0  0  0  0
  191.1770  173.5110  144.5230 O   0  0  0  0  0  0  0  0  0  0  0  0
  197.4050  175.2310  141.6840 C   0  0  2  0  0  3  0  0  0  0  0  0
  191.7650  171.9160  142.1650 C   0  0  0  0  0  2  0  0  0  0  0  0
  192.5280  173.2510  144.1520 C   0  0  1  0  0  3  0  0  0  0  0  0
  192.7070  173.0190  142.6500 C   0  0  1  0  0  3  0  0  0  0  0  0
  195.1530  173.6010  142.9490 C   0  0  2  0  0  3  0  0  0  0  0  0
  196.4810  176.3870  141.9690 C   0  0  0  0  0  2  0  0  0  0  0  0
  190.9720  174.8260  145.0210 C   0  0  2  0  0  3  0  0  0  0  0  0
  196.3470  176.4420  143.4830 C   0  0  0  0  0  2  0  0  0  0  0  0
  194.3470  172.5170  140.8330 C   0  0  0  0  0  2  0  0  0  0  0  0
  194.1620  172.5980  142.3470 C   0  0  2  0  0  3  0  0  0  0  0  0
  196.4820  173.2150  142.7400 O   0  0  0  0  0  0  0  0  0  0  0  0
  193.2390  174.5270  146.0070 O   0  0  0  0  0  0  0  0  0  0  0  0
  196.7880  173.9090  146.1070 C   0  0  0  0  0  1  0  0  0  0  0  0
  197.0020  174.5560  140.5300 O   0  0  0  0  0  1  0  0  0  0  0  0
  194.9360  173.7490  144.4460 C   0  0  2  0  0  3  0  0  0  0  0  0
  197.3200  174.3520  142.9230 C   0  0  2  0  0  3  0  0  0  0  0  0
  189.8170  175.3410  142.9290 C   0  0  0  0  0  2  0  0  0  0  0  0
  190.8190  175.8170  143.8750 C   0  0  1  0  0  3  0  0  0  0  0  0
  189.4620  176.3840  143.9030 N   0  0  0  0  0  0  0  0  0  0  0  0
  189.5330  177.6560  143.2070 C   0  0  0  0  0  2  0  0  0  0  0  0
  188.2250  177.9470  142.5610 C   0  0  0  0  0  0  0  0  0  0  0  0
  188.1350  177.9760  141.3060 O   0  0  0  0  0  0  0  0  0  0  0  0
  187.0950  178.1490  143.3420 O   0  0  0  0  0  1  0  0  0  0  0  0
  189.9750  175.1110  147.3690 C   0  0  0  0  0  1  0  0  0  0  0  0
  191.4760  175.3250  147.4250 C   0  0  0  0  0  2  0  0  0  0  0  0
  1 19  1  1  0  0  0
  2  9  1  0  0  0  0
  3  2  2  0  0  0  0
  3 16  1  0  0  0  0
  4 20  1  1  0  0  0
  5 15  1  6  0  0  0
  5  4  1  0  0  0  0
  6 32  1  1  0  0  0
  8 21  1  6  0  0  0
  8 13  1  0  0  0  0
  8 23  1  0  0  0  0
 10  7  1  6  0  0  0
 10  1  1  0  0  0  0
 11  9  1  1  0  0  0
 11 10  1  0  0  0  0
 12 18  1  1  0  0  0
 12 22  1  0  0  0  0
 13 15  1  0  0  0  0
 14  7  1  6  0  0  0
 14  6  1  0  0  0  0
 17 16  1  6  0  0  0
 17 11  1  0  0  0  0
 17 12  1  0  0  0  0
 18 23  1  0  0  0  0
 19  6  1  0  0  0  0
 22  1  1  0  0  0  0
 22  4  1  0  0  0  0
 23  5  1  0  0  0  0
 24 25  1  0  0  0  0
 24 26  1  0  0  0  0
 25 26  1  0  0  0  0
 25 14  1  0  0  0  0
 27 26  1  0  0  0  0
 28 27  1  0  0  0  0
 28 30  1  0  0  0  0
 29 28  2  0  0  0  0
 31 32  1  0  0  0  0
M  END
>  <MODEL>
4

>  <REMARK>
 VINA RESULT:      -6.5      3.814      6.959
  Name = 
  4 active torsions:
  status: ('A' for Active; 'I' for Inactive)
    1  A    between atoms: C_7  and  C_19
    2  A    between atoms: C_10  and  C_17
    3  A    between atoms: N_20  and  C_29
    4  A    between atoms: C_29  and  C_30
                            x       y       z     vdW  Elec       q    Type
                         _______ _______ _______ _____ _____    ______ ____

>  <TORSDO>
F 4

$$$$
=
 OpenBabel11112416433D

 32 37  0  0  1  0  0  0  0  0999 V2000
  191.5610  172.7890  143.3880 C   0  0  1  0  0  3  0  0  0  0  0  0
  188.0030  176.2700  144.0860 C   0  0  0  0  0  3  0  0  0  0  0  0
  187.5790  176.0630  142.8290 C   0  0  0  0  0  3  0  0  0  0  0  0
  191.2550  171.0770  141.5390 C   0  0  2  0  0  3  0  0  0  0  0  0
  191.0350  171.3970  140.1170 N   0  0  2  0  0  0  0  0  0  0  0  0
  193.4620  172.7620  144.5890 C   0  0  2  0  0  3  0  0  0  0  0  0
  191.5830  174.1680  145.4530 O   0  0  0  0  0  0  0  0  0  0  0  0
  189.8940  172.9860  138.7030 C   0  0  2  0  0  3  0  0  0  0  0  0
  189.0520  175.4070  144.7410 C   0  0  0  0  0  2  0  0  0  0  0  0
  190.7800  173.6140  144.4150 C   0  0  1  0  0  3  0  0  0  0  0  0
  189.8970  174.6510  143.7160 C   0  0  1  0  0  3  0  0  0  0  0  0
  189.7460  173.0580  141.7530 C   0  0  2  0  0  3  0  0  0  0  0  0
  191.2890  173.5040  138.9420 C   0  0  0  0  0  2  0  0  0  0  0  0
  192.9760  174.1180  145.1760 C   0  0  2  0  0  3  0  0  0  0  0  0
  192.0120  172.4020  139.6990 C   0  0  0  0  0  2  0  0  0  0  0  0
  188.1910  175.0210  141.9280 C   0  0  0  0  0  2  0  0  0  0  0  0
  188.9530  173.9530  142.7120 C   0  0  2  0  0  3  0  0  0  0  0  0
  188.9110  172.3680  140.8670 O   0  0  0  0  0  0  0  0  0  0  0  0
  192.4200  171.9450  144.0950 O   0  0  0  0  0  0  0  0  0  0  0  0
  190.8160  169.6530  141.8220 C   0  0  0  0  0  1  0  0  0  0  0  0
  188.9630  174.0210  138.8140 O   0  0  0  0  0  1  0  0  0  0  0  0
  190.5680  172.0340  142.5190 C   0  0  2  0  0  3  0  0  0  0  0  0
  189.6910  171.9160  139.7650 C   0  0  2  0  0  3  0  0  0  0  0  0
  193.5190  176.4980  145.0600 C   0  0  0  0  0  2  0  0  0  0  0  0
  193.3880  175.2750  144.2770 C   0  0  1  0  0  3  0  0  0  0  0  0
  194.7240  175.7460  144.6760 N   0  0  0  0  0  0  0  0  0  0  0  0
  195.2870  176.4140  143.5170 C   0  0  0  0  0  2  0  0  0  0  0  0
  196.7620  176.2230  143.4960 C   0  0  0  0  0  0  0  0  0  0  0  0
  197.5140  177.1660  143.1370 O   0  0  0  0  0  0  0  0  0  0  0  0
  197.3130  175.0170  143.9110 O   0  0  0  0  0  1  0  0  0  0  0  0
  195.7340  172.2660  145.4720 C   0  0  0  0  0  1  0  0  0  0  0  0
  194.2490  172.0100  145.6460 C   0  0  0  0  0  2  0  0  0  0  0  0
  1 19  1  1  0  0  0
  1 10  1  0  0  0  0
  2  9  1  0  0  0  0
  3  2  2  0  0  0  0
  4 20  1  6  0  0  0
  4 22  1  0  0  0  0
  5 15  1  1  0  0  0
  5  4  1  0  0  0  0
  6 14  1  0  0  0  0
  6 32  1  1  0  0  0
  8 21  1  1  0  0  0
  8 13  1  0  0  0  0
  8 23  1  0  0  0  0
 10  7  1  1  0  0  0
 11 10  1  0  0  0  0
 11  9  1  1  0  0  0
 12 18  1  6  0  0  0
 12 22  1  0  0  0  0
 12 17  1  0  0  0  0
 13 15  1  0  0  0  0
 14  7  1  6  0  0  0
 16  3  1  0  0  0  0
 17 16  1  6  0  0  0
 17 11  1  0  0  0  0
 19  6  1  0  0  0  0
 22  1  1  0  0  0  0
 23  5  1  0  0  0  0
 23 18  1  0  0  0  0
 25 26  1  0  0  0  0
 25 24  1  0  0  0  0
 25 14  1  0  0  0  0
 26 24  1  0  0  0  0
 27 26  1  0  0  0  0
 28 27  1  0  0  0  0
 28 30  1  0  0  0  0
 29 28  2  0  0  0  0
 31 32  1  0  0  0  0
M  END
>  <MODEL>
5

>  <REMARK>
 VINA RESULT:      -6.3      3.516      7.141
  Name = 
  4 active torsions:
  status: ('A' for Active; 'I' for Inactive)
    1  A    between atoms: C_7  and  C_19
    2  A    between atoms: C_10  and  C_17
    3  A    between atoms: N_20  and  C_29
    4  A    between atoms: C_29  and  C_30
                            x       y       z     vdW  Elec       q    Type
                         _______ _______ _______ _____ _____    ______ ____

>  <TORSDO>
F 4

$$$$
=
 OpenBabel11112416433D

 32 37  0  0  1  0  0  0  0  0999 V2000
  193.1300  175.3570  143.6540 C   0  0  1  0  0  3  0  0  0  0  0  0
  190.6690  171.1830  142.3160 C   0  0  0  0  0  3  0  0  0  0  0  0
  189.6760  171.5220  143.1530 C   0  0  0  0  0  3  0  0  0  0  0  0
  191.8240  177.2750  144.6800 C   0  0  2  0  0  3  0  0  0  0  0  0
  190.9750  177.1750  145.8810 N   0  0  2  0  0  0  0  0  0  0  0  0
  195.3640  175.5400  143.4710 C   0  0  2  0  0  3  0  0  0  0  0  0
  194.2650  173.6660  142.2320 O   0  0  0  0  0  0  0  0  0  0  0  0
  189.4380  175.6680  146.9750 C   0  0  2  0  0  3  0  0  0  0  0  0
  191.8230  172.1050  142.0110 C   0  0  0  0  0  2  0  0  0  0  0  0
  193.0170  174.2280  142.6250 C   0  0  1  0  0  3  0  0  0  0  0  0
  192.0010  173.1790  143.0840 C   0  0  1  0  0  3  0  0  0  0  0  0
  190.7850  175.0330  144.3080 C   0  0  2  0  0  3  0  0  0  0  0  0
  190.8150  175.3970  147.5250 C   0  0  0  0  0  2  0  0  0  0  0  0
  195.3430  174.0340  143.0830 C   0  0  2  0  0  3  0  0  0  0  0  0
  191.7140  176.4680  146.9280 C   0  0  0  0  0  2  0  0  0  0  0  0
  189.6840  172.8060  143.9440 C   0  0  0  0  0  2  0  0  0  0  0  0
  190.6330  173.8460  143.3490 C   0  0  2  0  0  3  0  0  0  0  0  0
  189.5690  175.6930  144.5230 O   0  0  0  0  0  0  0  0  0  0  0  0
  194.1460  176.2140  143.2240 O   0  0  0  0  0  0  0  0  0  0  0  0
  191.4530  178.5140  143.8880 C   0  0  0  0  0  1  0  0  0  0  0  0
  188.7700  174.4690  146.7170 O   0  0  0  0  0  1  0  0  0  0  0  0
  191.7800  176.0460  143.7670 C   0  0  2  0  0  3  0  0  0  0  0  0
  189.6790  176.4740  145.7080 C   0  0  2  0  0  3  0  0  0  0  0  0
  195.2780  171.7500  143.9500 C   0  0  0  0  0  2  0  0  0  0  0  0
  195.3700  173.1560  144.3260 C   0  0  1  0  0  3  0  0  0  0  0  0
  196.5840  172.3260  144.3050 N   0  0  0  0  0  0  0  0  0  0  0  0
  196.8510  171.9530  145.6830 C   0  0  0  0  0  2  0  0  0  0  0  0
  197.1260  170.4930  145.7620 C   0  0  0  0  0  0  0  0  0  0  0  0
  197.9410  169.9620  144.9630 O   0  0  0  0  0  0  0  0  0  0  0  0
  196.5150  169.7230  146.7430 O   0  0  0  0  0  1  0  0  0  0  0  0
  196.0430  176.6240  141.3370 C   0  0  0  0  0  1  0  0  0  0  0  0
  196.4940  176.2330  142.7310 C   0  0  0  0  0  2  0  0  0  0  0  0
  1 19  1  6  0  0  0
  1 22  1  0  0  0  0
  2  3  2  0  0  0  0
  3 16  1  0  0  0  0
  4 20  1  6  0  0  0
  4  5  1  0  0  0  0
  5 15  1  1  0  0  0
  6 32  1  6  0  0  0
  8 21  1  6  0  0  0
  8 13  1  0  0  0  0
  9  2  1  0  0  0  0
 10  7  1  1  0  0  0
 10 11  1  0  0  0  0
 10  1  1  0  0  0  0
 11  9  1  6  0  0  0
 11 17  1  0  0  0  0
 12 18  1  6  0  0  0
 14  7  1  1  0  0  0
 14  6  1  0  0  0  0
 14 25  1  0  0  0  0
 15 13  1  0  0  0  0
 17 16  1  1  0  0  0
 17 12  1  0  0  0  0
 18 23  1  0  0  0  0
 19  6  1  0  0  0  0
 22 12  1  0  0  0  0
 22  4  1  0  0  0  0
 23  5  1  0  0  0  0
 23  8  1  0  0  0  0
 24 26  1  0  0  0  0
 24 25  1  0  0  0  0
 26 25  1  0  0  0  0
 26 27  1  0  0  0  0
 27 28  1  0  0  0  0
 28 30  1  0  0  0  0
 29 28  2  0  0  0  0
 31 32  1  0  0  0  0
M  END
>  <MODEL>
6

>  <REMARK>
 VINA RESULT:      -6.2      4.027      8.428
  Name = 
  4 active torsions:
  status: ('A' for Active; 'I' for Inactive)
    1  A    between atoms: C_7  and  C_19
    2  A    between atoms: C_10  and  C_17
    3  A    between atoms: N_20  and  C_29
    4  A    between atoms: C_29  and  C_30
                            x       y       z     vdW  Elec       q    Type
                         _______ _______ _______ _____ _____    ______ ____

>  <TORSDO>
F 4

$$$$
=
 OpenBabel11112416433D

 32 37  0  0  1  0  0  0  0  0999 V2000
  190.6720  174.1310  143.5530 C   0  0  1  0  0  3  0  0  0  0  0  0
  191.1850  176.5170  147.9470 C   0  0  0  0  0  3  0  0  0  0  0  0
  190.1260  177.2800  147.6360 C   0  0  0  0  0  3  0  0  0  0  0  0
  188.4290  174.2120  142.3680 C   0  0  2  0  0  3  0  0  0  0  0  0
  187.7170  175.4460  141.9870 N   0  0  2  0  0  0  0  0  0  0  0  0
  192.3920  173.0830  142.5520 C   0  0  2  0  0  3  0  0  0  0  0  0
  192.6700  173.6910  144.9620 O   0  0  0  0  0  0  0  0  0  0  0  0
  187.2690  177.6790  142.7850 C   0  0  2  0  0  3  0  0  0  0  0  0
  191.6090  175.3360  147.1100 C   0  0  0  0  0  2  0  0  0  0  0  0
  191.3040  174.0950  144.9470 C   0  0  1  0  0  3  0  0  0  0  0  0
  191.0570  175.4130  145.6860 C   0  0  1  0  0  3  0  0  0  0  0  0
  188.9120  175.6420  144.3610 C   0  0  2  0  0  3  0  0  0  0  0  0
  188.5070  177.7390  141.9270 C   0  0  0  0  0  2  0  0  0  0  0  0
  193.2740  173.6990  143.6750 C   0  0  2  0  0  3  0  0  0  0  0  0
  188.6560  176.3510  141.3250 C   0  0  0  0  0  2  0  0  0  0  0  0
  189.3340  177.0910  146.3670 C   0  0  0  0  0  2  0  0  0  0  0  0
  189.5420  175.7050  145.7570 C   0  0  2  0  0  3  0  0  0  0  0  0
  187.5270  175.8470  144.3990 O   0  0  0  0  0  0  0  0  0  0  0  0
  191.0290  172.9480  142.9020 O   0  0  0  0  0  0  0  0  0  0  0  0
  187.4630  173.0430  142.3880 C   0  0  0  0  0  1  0  0  0  0  0  0
  187.4400  178.4420  143.9420 O   0  0  0  0  0  1  0  0  0  0  0  0
  189.1690  174.2940  143.7080 C   0  0  2  0  0  3  0  0  0  0  0  0
  187.0830  176.2020  143.0940 C   0  0  2  0  0  3  0  0  0  0  0  0
  194.5530  175.6670  144.3570 C   0  0  0  0  0  2  0  0  0  0  0  0
  193.7210  175.1050  143.2990 C   0  0  1  0  0  3  0  0  0  0  0  0
  195.1840  175.1230  143.1450 N   0  0  0  0  0  0  0  0  0  0  0  0
  195.4940  176.2510  142.2860 C   0  0  0  0  0  2  0  0  0  0  0  0
  196.9110  176.1670  141.8400 C   0  0  0  0  0  0  0  0  0  0  0  0
  197.1780  175.9990  140.6220 O   0  0  0  0  0  0  0  0  0  0  0  0
  197.9390  176.3140  142.7620 O   0  0  0  0  0  1  0  0  0  0  0  0
  192.6070  170.6910  143.2000 C   0  0  0  0  0  1  0  0  0  0  0  0
  192.9580  171.7320  142.1540 C   0  0  0  0  0  2  0  0  0  0  0  0
  1 19  1  1  0  0  0
  1 22  1  0  0  0  0
  1 10  1  0  0  0  0
  3  2  2  0  0  0  0
  4 20  1  1  0  0  0
  4 22  1  0  0  0  0
  5 15  1  1  0  0  0
  5  4  1  0  0  0  0
  5 23  1  0  0  0  0
  6 32  1  1  0  0  0
  6 19  1  0  0  0  0
  6 14  1  0  0  0  0
  8 23  1  0  0  0  0
  8 21  1  1  0  0  0
  9  2  1  0  0  0  0
 10  7  1  6  0  0  0
 10 11  1  0  0  0  0
 11 17  1  0  0  0  0
 11  9  1  1  0  0  0
 12 18  1  1  0  0  0
 12 17  1  0  0  0  0
 13  8  1  0  0  0  0
 14  7  1  1  0  0  0
 15 13  1  0  0  0  0
 16  3  1  0  0  0  0
 17 16  1  6  0  0  0
 22 12  1  0  0  0  0
 23 18  1  0  0  0  0
 25 14  1  0  0  0  0
 25 24  1  0  0  0  0
 26 25  1  0  0  0  0
 26 24  1  0  0  0  0
 27 26  1  0  0  0  0
 28 27  1  0  0  0  0
 28 30  1  0  0  0  0
 29 28  2  0  0  0  0
 32 31  1  0  0  0  0
M  END
>  <MODEL>
7

>  <REMARK>
 VINA RESULT:      -6.2      3.254      7.238
  Name = 
  4 active torsions:
  status: ('A' for Active; 'I' for Inactive)
    1  A    between atoms: C_7  and  C_19
    2  A    between atoms: C_10  and  C_17
    3  A    between atoms: N_20  and  C_29
    4  A    between atoms: C_29  and  C_30
                            x       y       z     vdW  Elec       q    Type
                         _______ _______ _______ _____ _____    ______ ____

>  <TORSDO>
F 4

$$$$
=
 OpenBabel11112416433D

 32 37  0  0  1  0  0  0  0  0999 V2000
  191.5290  174.3160  143.6660 C   0  0  1  0  0  3  0  0  0  0  0  0
  190.6110  171.0000  140.0010 C   0  0  0  0  0  3  0  0  0  0  0  0
  191.8660  171.1700  139.5570 C   0  0  0  0  0  3  0  0  0  0  0  0
  193.9360  174.7800  144.3250 C   0  0  2  0  0  3  0  0  0  0  0  0
  194.9940  175.2330  143.4030 N   0  0  2  0  0  0  0  0  0  0  0  0
  189.8860  175.4790  144.6680 C   0  0  2  0  0  3  0  0  0  0  0  0
  189.2150  173.4850  143.3150 O   0  0  0  0  0  0  0  0  0  0  0  0
  195.7740  174.9230  141.1400 C   0  0  2  0  0  3  0  0  0  0  0  0
  190.1190  171.6020  141.2930 C   0  0  0  0  0  2  0  0  0  0  0  0
  190.6040  173.2020  143.1680 C   0  0  1  0  0  3  0  0  0  0  0  0
  190.9860  172.7760  141.7490 C   0  0  1  0  0  3  0  0  0  0  0  0
  193.3680  173.4350  142.2950 C   0  0  2  0  0  3  0  0  0  0  0  0
  194.8190  176.0900  141.1400 C   0  0  0  0  0  2  0  0  0  0  0  0
  188.9450  174.8510  143.6000 C   0  0  2  0  0  3  0  0  0  0  0  0
  194.4810  176.3430  142.6000 C   0  0  0  0  0  2  0  0  0  0  0  0
  192.8590  172.0660  140.2540 C   0  0  0  0  0  2  0  0  0  0  0  0
  192.4680  172.3440  141.7050 C   0  0  2  0  0  3  0  0  0  0  0  0
  194.7140  173.0490  142.3220 O   0  0  0  0  0  0  0  0  0  0  0  0
  191.0570  174.7260  144.9140 O   0  0  0  0  0  0  0  0  0  0  0  0
  194.5580  174.1900  145.5760 C   0  0  0  0  0  1  0  0  0  0  0  0
  195.5310  174.0930  140.0430 O   0  0  0  0  0  1  0  0  0  0  0  0
  192.9500  173.7780  143.7160 C   0  0  2  0  0  3  0  0  0  0  0  0
  195.5190  174.2150  142.4620 C   0  0  2  0  0  3  0  0  0  0  0  0
  188.1690  175.0110  141.2880 C   0  0  0  0  0  2  0  0  0  0  0  0
  188.9510  175.6790  142.3220 C   0  0  1  0  0  3  0  0  0  0  0  0
  187.5820  176.1340  142.0340 N   0  0  0  0  0  0  0  0  0  0  0  0
  187.7080  177.3120  141.1950 C   0  0  0  0  0  2  0  0  0  0  0  0
  186.4210  178.0560  141.1790 C   0  0  0  0  0  0  0  0  0  0  0  0
  185.6580  177.9720  140.1810 O   0  0  0  0  0  0  0  0  0  0  0  0
  186.0400  178.8110  142.2800 O   0  0  0  0  0  1  0  0  0  0  0  0
  189.3820  174.5170  146.9060 C   0  0  0  0  0  1  0  0  0  0  0  0
  189.1170  175.6740  145.9620 C   0  0  0  0  0  2  0  0  0  0  0  0
  1 22  1  0  0  0  0
  1 19  1  1  0  0  0
  2  9  1  0  0  0  0
  3  2  2  0  0  0  0
  3 16  1  0  0  0  0
  4 20  1  1  0  0  0
  5 15  1  6  0  0  0
  5  4  1  0  0  0  0
  6 19  1  0  0  0  0
  6 32  1  1  0  0  0
  8 21  1  6  0  0  0
  8 13  1  0  0  0  0
  8 23  1  0  0  0  0
 10  7  1  6  0  0  0
 10  1  1  0  0  0  0
 11  9  1  1  0  0  0
 11 10  1  0  0  0  0
 12 18  1  1  0  0  0
 12 22  1  0  0  0  0
 13 15  1  0  0  0  0
 14  7  1  6  0  0  0
 14  6  1  0  0  0  0
 17 16  1  6  0  0  0
 17 11  1  0  0  0  0
 17 12  1  0  0  0  0
 18 23  1  0  0  0  0
 22  4  1  0  0  0  0
 23  5  1  0  0  0  0
 24 26  1  0  0  0  0
 24 25  1  0  0  0  0
 25 14  1  0  0  0  0
 26 25  1  0  0  0  0
 27 26  1  0  0  0  0
 28 27  1  0  0  0  0
 28 30  1  0  0  0  0
 29 28  2  0  0  0  0
 32 31  1  0  0  0  0
M  END
>  <MODEL>
8

>  <REMARK>
 VINA RESULT:      -6.2      2.998      6.000
  Name = 
  4 active torsions:
  status: ('A' for Active; 'I' for Inactive)
    1  A    between atoms: C_7  and  C_19
    2  A    between atoms: C_10  and  C_17
    3  A    between atoms: N_20  and  C_29
    4  A    between atoms: C_29  and  C_30
                            x       y       z     vdW  Elec       q    Type
                         _______ _______ _______ _____ _____    ______ ____

>  <TORSDO>
F 4

$$$$
=
 OpenBabel11112416433D

 32 37  0  0  1  0  0  0  0  0999 V2000
  193.5010  173.1710  144.5640 C   0  0  1  0  0  3  0  0  0  0  0  0
  190.5130  176.5540  146.7770 C   0  0  0  0  0  3  0  0  0  0  0  0
  189.4900  176.1140  146.0270 C   0  0  0  0  0  3  0  0  0  0  0  0
  192.4480  171.1540  143.4400 C   0  0  2  0  0  3  0  0  0  0  0  0
  191.4270  171.2140  142.3780 N   0  0  2  0  0  0  0  0  0  0  0  0
  195.7310  173.4380  144.4460 C   0  0  2  0  0  3  0  0  0  0  0  0
  194.4900  174.8850  146.0660 O   0  0  0  0  0  0  0  0  0  0  0  0
  189.4850  172.4820  141.7070 C   0  0  2  0  0  3  0  0  0  0  0  0
  191.8540  175.8650  146.8030 C   0  0  0  0  0  2  0  0  0  0  0  0
  193.3270  174.1240  145.7500 C   0  0  1  0  0  3  0  0  0  0  0  0
  192.0730  174.9830  145.5740 C   0  0  1  0  0  3  0  0  0  0  0  0
  191.0660  173.0710  144.2540 C   0  0  2  0  0  3  0  0  0  0  0  0
  190.6880  173.0970  141.0380 C   0  0  0  0  0  2  0  0  0  0  0  0
  195.4790  174.8510  145.0460 C   0  0  2  0  0  3  0  0  0  0  0  0
  191.8540  172.1760  141.3620 C   0  0  0  0  0  2  0  0  0  0  0  0
  189.6260  174.9610  145.0640 C   0  0  0  0  0  2  0  0  0  0  0  0
  190.8340  174.0810  145.3840 C   0  0  2  0  0  3  0  0  0  0  0  0
  189.9810  172.2010  144.0960 O   0  0  0  0  0  0  0  0  0  0  0  0
  194.7140  172.5010  144.7400 O   0  0  0  0  0  0  0  0  0  0  0  0
  192.4420  169.7820  144.0850 C   0  0  0  0  0  1  0  0  0  0  0  0
  188.6470  173.4770  142.2140 O   0  0  0  0  0  1  0  0  0  0  0  0
  192.3060  172.2330  144.5180 C   0  0  2  0  0  3  0  0  0  0  0  0
  190.0610  171.6030  142.8060 C   0  0  2  0  0  3  0  0  0  0  0  0
  195.7810  177.1380  144.2380 C   0  0  0  0  0  2  0  0  0  0  0  0
  195.1540  175.8540  143.9470 C   0  0  1  0  0  3  0  0  0  0  0  0
  196.3950  176.2330  143.2540 N   0  0  0  0  0  0  0  0  0  0  0  0
  196.0030  176.7070  141.9400 C   0  0  0  0  0  2  0  0  0  0  0  0
  196.6630  175.8830  140.8920 C   0  0  0  0  0  0  0  0  0  0  0  0
  196.0790  175.6690  139.7980 O   0  0  0  0  0  0  0  0  0  0  0  0
  197.9410  175.3820  141.1050 O   0  0  0  0  0  1  0  0  0  0  0  0
  196.8600  171.7630  145.8980 C   0  0  0  0  0  1  0  0  0  0  0  0
  197.0690  172.9170  144.9360 C   0  0  0  0  0  2  0  0  0  0  0  0
  1 19  1  1  0  0  0
  1 10  1  0  0  0  0
  2  9  1  0  0  0  0
  3  2  2  0  0  0  0
  4 20  1  1  0  0  0
  4 22  1  0  0  0  0
  5 15  1  6  0  0  0
  5 23  1  0  0  0  0
  5  4  1  0  0  0  0
  6 19  1  0  0  0  0
  6 32  1  1  0  0  0
  6 14  1  0  0  0  0
  8 21  1  1  0  0  0
  8 23  1  0  0  0  0
 10  7  1  6  0  0  0
 11 10  1  0  0  0  0
 11  9  1  1  0  0  0
 12 18  1  1  0  0  0
 12 22  1  0  0  0  0
 12 17  1  0  0  0  0
 13 15  1  0  0  0  0
 13  8  1  0  0  0  0
 14  7  1  1  0  0  0
 16  3  1  0  0  0  0
 17 16  1  6  0  0  0
 17 11  1  0  0  0  0
 22  1  1  0  0  0  0
 23 18  1  0  0  0  0
 25 24  1  0  0  0  0
 25 14  1  0  0  0  0
 26 25  1  0  0  0  0
 26 24  1  0  0  0  0
 27 26  1  0  0  0  0
 28 30  1  0  0  0  0
 28 27  1  0  0  0  0
 29 28  2  0  0  0  0
 32 31  1  0  0  0  0
M  END
>  <MODEL>
9

>  <REMARK>
 VINA RESULT:      -6.1      4.298      8.027
  Name = 
  4 active torsions:
  status: ('A' for Active; 'I' for Inactive)
    1  A    between atoms: C_7  and  C_19
    2  A    between atoms: C_10  and  C_17
    3  A    between atoms: N_20  and  C_29
    4  A    between atoms: C_29  and  C_30
                            x       y       z     vdW  Elec       q    Type
                         _______ _______ _______ _____ _____    ______ ____

>  <TORSDO>
F 4

$$$$
