=
 OpenBabel11112417403D

 28 32  0  0  1  0  0  0  0  0999 V2000
  190.5300  175.7190  144.9350 C   0  0  0  0  0  0  0  0  0  0  0  0
  185.5850  176.2670  145.7140 F   0  0  0  0  0  0  0  0  0  0  0  0
  189.0290  174.8990  140.4230 O   0  0  0  0  0  0  0  0  0  0  0  0
  191.3970  178.0850  143.7110 C   0  0  0  0  0  3  0  0  0  0  0  0
  187.3040  176.2960  141.3140 C   0  0  0  0  0  0  0  0  0  0  0  0
  190.0880  174.4140  145.5210 C   0  0  0  0  0  2  0  0  0  0  0  0
  186.5720  177.8850  146.9260 F   0  0  0  0  0  0  0  0  0  0  0  0
  186.1040  177.5530  145.6680 C   0  0  0  0  0  0  0  0  0  0  0  0
  184.6210  178.2780  143.8330 C   0  0  1  0  0  3  0  0  0  0  0  0
  187.2670  177.6580  144.6580 C   0  0  2  0  0  3  0  0  0  0  0  0
  191.2000  173.9230  142.3710 C   0  0  0  0  0  1  0  0  0  0  0  0
  187.4560  175.4810  143.5500 C   0  0  1  0  0  3  0  0  0  0  0  0
  185.6920  178.6690  143.0060 O   0  0  0  0  0  0  0  0  0  0  0  0
  184.9840  178.5100  145.2920 C   0  0  0  0  0  2  0  0  0  0  0  0
  190.2390  173.1480  143.2590 C   0  0  2  0  0  3  0  0  0  0  0  0
  189.5810  176.6460  144.4600 C   0  0  0  0  0  0  0  0  0  0  0  0
  188.3400  175.3060  141.3970 C   0  0  0  0  0  0  0  0  0  0  0  0
  183.3960  179.0940  143.4840 C   0  0  0  0  0  1  0  0  0  0  0  0
  188.7560  173.3780  142.9470 C   0  0  0  0  0  2  0  0  0  0  0  0
  190.0320  177.8180  143.8280 C   0  0  0  0  0  3  0  0  0  0  0  0
  191.8980  176.0040  144.8340 C   0  0  0  0  0  3  0  0  0  0  0  0
  192.3310  177.1840  144.2250 C   0  0  0  0  0  3  0  0  0  0  0  0
  190.6170  173.2040  144.7450 C   0  0  0  0  0  2  0  0  0  0  0  0
  186.6250  176.4100  142.6320 C   0  0  1  0  0  3  0  0  0  0  0  0
  188.4360  174.7820  142.7110 N   0  0  0  0  0  0  0  0  0  0  0  0
  186.7980  177.8060  143.2070 C   0  0  2  0  0  3  0  0  0  0  0  0
  186.9860  176.9300  140.2740 O   0  0  0  0  0  0  0  0  0  0  0  0
  188.0970  176.3750  144.6360 C   0  0  1  0  0  3  0  0  0  0  0  0
  1  6  1  0  0  0  0
  3 17  2  0  0  0  0
  4 20  2  0  0  0  0
  4 22  1  0  0  0  0
  5 17  1  0  0  0  0
  8  2  1  0  0  0  0
  8  7  1  0  0  0  0
  9 18  1  6  0  0  0
  9 14  1  0  0  0  0
 10  8  1  1  0  0  0
 12 25  1  6  0  0  0
 12 28  1  0  0  0  0
 13  9  1  0  0  0  0
 14  8  1  0  0  0  0
 15 11  1  6  0  0  0
 15 23  1  0  0  0  0
 16  1  2  0  0  0  0
 17 25  1  0  0  0  0
 19 15  1  0  0  0  0
 20 16  1  0  0  0  0
 21  1  1  0  0  0  0
 22 21  2  0  0  0  0
 23  6  1  0  0  0  0
 24  5  1  6  0  0  0
 24 26  1  0  0  0  0
 24 12  1  0  0  0  0
 25 19  1  0  0  0  0
 26 13  1  1  0  0  0
 26 10  1  0  0  0  0
 27  5  2  0  0  0  0
 28 16  1  6  0  0  0
 28 10  1  0  0  0  0
M  END
>  <MODEL>
1

>  <REMARK>
 VINA RESULT:      -8.7      0.000      0.000
  Name = 
  0 active torsions:
  status: ('A' for Active; 'I' for Inactive)
                            x       y       z     vdW  Elec       q    Type
                         _______ _______ _______ _____ _____    ______ ____

>  <TORSDO>
F 0

$$$$
=
 OpenBabel11112417403D

 28 32  0  0  1  0  0  0  0  0999 V2000
  189.5260  176.8940  145.2740 C   0  0  0  0  0  0  0  0  0  0  0  0
  194.4750  176.3430  144.5280 F   0  0  0  0  0  0  0  0  0  0  0  0
  189.3730  172.8950  142.5790 O   0  0  0  0  0  0  0  0  0  0  0  0
  188.8170  175.0270  147.2390 C   0  0  0  0  0  3  0  0  0  0  0  0
  191.5310  172.7660  143.6020 C   0  0  0  0  0  0  0  0  0  0  0  0
  189.8560  177.8520  144.1720 C   0  0  0  0  0  2  0  0  0  0  0  0
  194.2540  176.9730  146.6760 F   0  0  0  0  0  0  0  0  0  0  0  0
  194.2360  175.8890  145.8170 C   0  0  0  0  0  0  0  0  0  0  0  0
  195.1970  173.6540  145.4020 C   0  0  1  0  0  3  0  0  0  0  0  0
  192.8650  175.1880  145.9250 C   0  0  2  0  0  3  0  0  0  0  0  0
  187.7560  175.4750  143.0160 C   0  0  0  0  0  1  0  0  0  0  0  0
  191.9130  175.1190  143.6680 C   0  0  1  0  0  3  0  0  0  0  0  0
  194.0250  172.9810  145.7980 O   0  0  0  0  0  0  0  0  0  0  0  0
  195.3540  174.9360  146.2060 C   0  0  0  0  0  2  0  0  0  0  0  0
  188.7670  176.3790  142.3310 C   0  0  2  0  0  3  0  0  0  0  0  0
  190.4490  175.9000  145.6550 C   0  0  0  0  0  0  0  0  0  0  0  0
  190.3940  173.4550  143.0590 C   0  0  0  0  0  0  0  0  0  0  0  0
  196.3940  172.7600  145.6430 C   0  0  0  0  0  1  0  0  0  0  0  0
  190.0970  175.7010  141.9820 C   0  0  0  0  0  2  0  0  0  0  0  0
  190.0700  174.9560  146.6270 C   0  0  0  0  0  3  0  0  0  0  0  0
  188.2790  176.9730  145.9090 C   0  0  0  0  0  3  0  0  0  0  0  0
  187.9260  176.0420  146.8880 C   0  0  0  0  0  3  0  0  0  0  0  0
  188.8830  177.7590  142.9920 C   0  0  0  0  0  2  0  0  0  0  0  0
  192.5900  173.7540  143.9390 C   0  0  1  0  0  3  0  0  0  0  0  0
  190.6030  174.8570  143.0610 N   0  0  0  0  0  0  0  0  0  0  0  0
  192.8850  173.7380  145.4300 C   0  0  2  0  0  3  0  0  0  0  0  0
  191.6340  171.5180  143.7240 O   0  0  0  0  0  0  0  0  0  0  0  0
  191.8290  175.8580  145.0230 C   0  0  1  0  0  3  0  0  0  0  0  0
  1 16  2  0  0  0  0
  1 21  1  0  0  0  0
  2  8  1  0  0  0  0
  3 17  2  0  0  0  0
  5 27  2  0  0  0  0
  6  1  1  0  0  0  0
  8 14  1  0  0  0  0
  8  7  1  0  0  0  0
  9 18  1  1  0  0  0
  9 13  1  0  0  0  0
  9 14  1  0  0  0  0
 10  8  1  6  0  0  0
 12 25  1  1  0  0  0
 12 24  1  0  0  0  0
 12 28  1  0  0  0  0
 15 23  1  0  0  0  0
 15 11  1  1  0  0  0
 16 20  1  0  0  0  0
 17 25  1  0  0  0  0
 17  5  1  0  0  0  0
 19 15  1  0  0  0  0
 19 25  1  0  0  0  0
 20  4  2  0  0  0  0
 21 22  2  0  0  0  0
 22  4  1  0  0  0  0
 23  6  1  0  0  0  0
 24  5  1  1  0  0  0
 24 26  1  0  0  0  0
 26 13  1  6  0  0  0
 26 10  1  0  0  0  0
 28 16  1  1  0  0  0
 28 10  1  0  0  0  0
M  END
>  <MODEL>
2

>  <REMARK>
 VINA RESULT:      -8.4      3.490      6.702
  Name = 
  0 active torsions:
  status: ('A' for Active; 'I' for Inactive)
                            x       y       z     vdW  Elec       q    Type
                         _______ _______ _______ _____ _____    ______ ____

>  <TORSDO>
F 0

$$$$
=
 OpenBabel11112417403D

 28 32  0  0  1  0  0  0  0  0999 V2000
  191.6160  174.0360  143.1880 C   0  0  0  0  0  0  0  0  0  0  0  0
  189.0390  178.0830  141.6610 F   0  0  0  0  0  0  0  0  0  0  0  0
  191.6890  176.5020  147.3350 O   0  0  0  0  0  0  0  0  0  0  0  0
  189.8270  172.4890  144.6900 C   0  0  0  0  0  3  0  0  0  0  0  0
  189.7020  177.3040  146.2730 C   0  0  0  0  0  0  0  0  0  0  0  0
  192.6170  174.8720  142.4540 C   0  0  0  0  0  2  0  0  0  0  0  0
  187.9970  176.3180  140.7330 F   0  0  0  0  0  0  0  0  0  0  0  0
  188.0910  177.0920  141.8750 C   0  0  0  0  0  0  0  0  0  0  0  0
  186.7930  178.4320  143.4910 C   0  0  1  0  0  3  0  0  0  0  0  0
  188.4790  176.1860  143.0640 C   0  0  2  0  0  3  0  0  0  0  0  0
  193.5060  174.6330  145.7020 C   0  0  0  0  0  1  0  0  0  0  0  0
  190.5230  177.1190  144.0420 C   0  0  1  0  0  3  0  0  0  0  0  0
  186.8840  177.4580  144.5040 O   0  0  0  0  0  0  0  0  0  0  0  0
  186.7480  177.7580  142.1280 C   0  0  0  0  0  2  0  0  0  0  0  0
  193.8100  175.6590  144.6220 C   0  0  2  0  0  3  0  0  0  0  0  0
  190.3710  174.5790  143.5650 C   0  0  0  0  0  0  0  0  0  0  0  0
  191.0380  176.7770  146.2930 C   0  0  0  0  0  0  0  0  0  0  0  0
  185.5330  179.2460  143.6910 C   0  0  0  0  0  1  0  0  0  0  0  0
  192.9730  176.9410  144.7050 C   0  0  0  0  0  2  0  0  0  0  0  0
  189.4940  173.7970  144.3370 C   0  0  0  0  0  3  0  0  0  0  0  0
  191.9340  172.7140  143.5270 C   0  0  0  0  0  3  0  0  0  0  0  0
  191.0420  171.9430  144.2750 C   0  0  0  0  0  3  0  0  0  0  0  0
  193.9300  175.0400  143.2230 C   0  0  0  0  0  2  0  0  0  0  0  0
  189.3220  177.6330  144.8730 C   0  0  1  0  0  3  0  0  0  0  0  0
  191.5630  176.6810  144.9790 N   0  0  0  0  0  0  0  0  0  0  0  0
  188.1340  176.7960  144.4270 C   0  0  2  0  0  3  0  0  0  0  0  0
  188.9850  177.5040  147.2880 O   0  0  0  0  0  0  0  0  0  0  0  0
  189.9910  175.9860  143.1350 C   0  0  1  0  0  3  0  0  0  0  0  0
  1 21  2  0  0  0  0
  1 16  1  0  0  0  0
  2  8  1  0  0  0  0
  5 17  1  0  0  0  0
  5 27  2  0  0  0  0
  6  1  1  0  0  0  0
  6 23  1  0  0  0  0
  7  8  1  0  0  0  0
  8 14  1  0  0  0  0
  9 18  1  1  0  0  0
  9 13  1  0  0  0  0
 10  8  1  6  0  0  0
 10 28  1  0  0  0  0
 10 26  1  0  0  0  0
 12 24  1  0  0  0  0
 12 25  1  1  0  0  0
 14  9  1  0  0  0  0
 15 19  1  0  0  0  0
 15 11  1  1  0  0  0
 16 20  2  0  0  0  0
 17  3  2  0  0  0  0
 19 25  1  0  0  0  0
 20  4  1  0  0  0  0
 21 22  1  0  0  0  0
 22  4  2  0  0  0  0
 23 15  1  0  0  0  0
 24  5  1  1  0  0  0
 25 17  1  0  0  0  0
 26 13  1  6  0  0  0
 26 24  1  0  0  0  0
 28 16  1  1  0  0  0
 28 12  1  0  0  0  0
M  END
>  <MODEL>
3

>  <REMARK>
 VINA RESULT:      -8.3      2.826      4.505
  Name = 
  0 active torsions:
  status: ('A' for Active; 'I' for Inactive)
                            x       y       z     vdW  Elec       q    Type
                         _______ _______ _______ _____ _____    ______ ____

>  <TORSDO>
F 0

$$$$
=
 OpenBabel11112417403D

 28 32  0  0  1  0  0  0  0  0999 V2000
  190.8180  174.1830  143.0430 C   0  0  0  0  0  0  0  0  0  0  0  0
  187.7540  178.0940  143.8610 F   0  0  0  0  0  0  0  0  0  0  0  0
  193.1170  176.0750  146.8410 O   0  0  0  0  0  0  0  0  0  0  0  0
  190.1790  172.2670  144.9850 C   0  0  0  0  0  3  0  0  0  0  0  0
  190.8590  176.7900  147.1740 C   0  0  0  0  0  0  0  0  0  0  0  0
  191.2350  175.2130  142.0390 C   0  0  0  0  0  2  0  0  0  0  0  0
  186.4060  176.3640  143.3590 F   0  0  0  0  0  0  0  0  0  0  0  0
  187.0990  176.9870  144.3810 C   0  0  0  0  0  0  0  0  0  0  0  0
  186.8800  177.9540  146.6420 C   0  0  1  0  0  3  0  0  0  0  0  0
  188.0920  175.9800  144.9990 C   0  0  2  0  0  3  0  0  0  0  0  0
  193.7690  174.6450  144.1970 C   0  0  0  0  0  1  0  0  0  0  0  0
  190.3200  176.9910  144.8590 C   0  0  1  0  0  3  0  0  0  0  0  0
  187.5310  176.8700  147.2630 O   0  0  0  0  0  0  0  0  0  0  0  0
  186.1050  177.4650  145.4280 C   0  0  0  0  0  2  0  0  0  0  0  0
  193.4100  175.8310  143.3160 C   0  0  2  0  0  3  0  0  0  0  0  0
  189.9770  174.5340  144.1180 C   0  0  0  0  0  0  0  0  0  0  0  0
  191.9950  176.4130  146.3800 C   0  0  0  0  0  0  0  0  0  0  0  0
  185.9240  178.5940  147.6250 C   0  0  0  0  0  1  0  0  0  0  0  0
  192.7340  176.9930  144.0540 C   0  0  0  0  0  2  0  0  0  0  0  0
  189.6830  173.5680  145.0960 C   0  0  0  0  0  3  0  0  0  0  0  0
  191.2940  172.8700  142.9270 C   0  0  0  0  0  3  0  0  0  0  0  0
  190.9750  171.9150  143.8940 C   0  0  0  0  0  3  0  0  0  0  0  0
  192.7520  175.4180  141.9930 C   0  0  0  0  0  2  0  0  0  0  0  0
  189.7660  177.2570  146.2810 C   0  0  1  0  0  3  0  0  0  0  0  0
  191.7130  176.5480  144.9970 N   0  0  0  0  0  0  0  0  0  0  0  0
  188.5440  176.3640  146.4120 C   0  0  2  0  0  3  0  0  0  0  0  0
  190.8150  176.7760  148.4320 O   0  0  0  0  0  0  0  0  0  0  0  0
  189.3980  175.9360  144.2070 C   0  0  1  0  0  3  0  0  0  0  0  0
  1 16  1  0  0  0  0
  2  8  1  0  0  0  0
  4 20  1  0  0  0  0
  5 27  2  0  0  0  0
  6  1  1  0  0  0  0
  7  8  1  0  0  0  0
  8 14  1  0  0  0  0
  9 13  1  0  0  0  0
  9 18  1  1  0  0  0
 10  8  1  6  0  0  0
 10 26  1  0  0  0  0
 12 25  1  1  0  0  0
 12 24  1  0  0  0  0
 14  9  1  0  0  0  0
 15 19  1  0  0  0  0
 15 11  1  1  0  0  0
 16 20  2  0  0  0  0
 17  3  2  0  0  0  0
 17  5  1  0  0  0  0
 19 25  1  0  0  0  0
 21  1  2  0  0  0  0
 21 22  1  0  0  0  0
 22  4  2  0  0  0  0
 23  6  1  0  0  0  0
 23 15  1  0  0  0  0
 24 26  1  0  0  0  0
 24  5  1  1  0  0  0
 25 17  1  0  0  0  0
 26 13  1  6  0  0  0
 28 16  1  1  0  0  0
 28 12  1  0  0  0  0
 28 10  1  0  0  0  0
M  END
>  <MODEL>
4

>  <REMARK>
 VINA RESULT:      -8.1      2.870      4.617
  Name = 
  0 active torsions:
  status: ('A' for Active; 'I' for Inactive)
                            x       y       z     vdW  Elec       q    Type
                         _______ _______ _______ _____ _____    ______ ____

>  <TORSDO>
F 0

$$$$
=
 OpenBabel11112417403D

 28 32  0  0  1  0  0  0  0  0999 V2000
  191.1280  174.5570  142.5750 C   0  0  0  0  0  0  0  0  0  0  0  0
  188.2570  178.6660  142.0990 F   0  0  0  0  0  0  0  0  0  0  0  0
  190.2230  175.3090  147.2550 O   0  0  0  0  0  0  0  0  0  0  0  0
  189.3750  172.4280  143.0660 C   0  0  0  0  0  3  0  0  0  0  0  0
  188.3240  176.2880  146.1800 C   0  0  0  0  0  0  0  0  0  0  0  0
  192.0980  175.6830  142.3880 C   0  0  0  0  0  2  0  0  0  0  0  0
  187.6310  177.2940  140.4300 F   0  0  0  0  0  0  0  0  0  0  0  0
  187.4400  177.5950  141.7660 C   0  0  0  0  0  0  0  0  0  0  0  0
  185.7350  178.1340  143.4670 C   0  0  1  0  0  3  0  0  0  0  0  0
  187.7700  176.3470  142.6120 C   0  0  2  0  0  3  0  0  0  0  0  0
  192.5140  174.3280  145.4520 C   0  0  0  0  0  1  0  0  0  0  0  0
  189.4890  177.0090  144.2280 C   0  0  1  0  0  3  0  0  0  0  0  0
  185.8110  176.8640  144.0720 O   0  0  0  0  0  0  0  0  0  0  0  0
  185.9930  178.0120  141.9730 C   0  0  0  0  0  2  0  0  0  0  0  0
  192.8270  175.7010  144.8800 C   0  0  2  0  0  3  0  0  0  0  0  0
  189.7760  174.8230  142.8720 C   0  0  0  0  0  0  0  0  0  0  0  0
  189.7030  175.8990  146.2710 C   0  0  0  0  0  0  0  0  0  0  0  0
  184.3560  178.7140  143.6940 C   0  0  0  0  0  1  0  0  0  0  0  0
  191.8120  176.7910  145.2450 C   0  0  0  0  0  2  0  0  0  0  0  0
  188.9140  173.7440  143.1370 C   0  0  0  0  0  3  0  0  0  0  0  0
  191.5780  173.2330  142.4830 C   0  0  0  0  0  3  0  0  0  0  0  0
  190.7040  172.1720  142.7280 C   0  0  0  0  0  3  0  0  0  0  0  0
  193.2430  175.6560  143.4040 C   0  0  0  0  0  2  0  0  0  0  0  0
  188.1160  177.0810  144.9400 C   0  0  1  0  0  3  0  0  0  0  0  0
  190.4290  176.3380  145.1340 N   0  0  0  0  0  0  0  0  0  0  0  0
  187.1410  176.3790  144.0100 C   0  0  2  0  0  3  0  0  0  0  0  0
  187.4410  176.0410  147.0430 O   0  0  0  0  0  0  0  0  0  0  0  0
  189.2680  176.2540  142.8980 C   0  0  1  0  0  3  0  0  0  0  0  0
  1 16  1  0  0  0  0
  4 20  1  0  0  0  0
  5 17  1  0  0  0  0
  5 27  2  0  0  0  0
  6  1  1  0  0  0  0
  6 23  1  0  0  0  0
  7  8  1  0  0  0  0
  8 14  1  0  0  0  0
  8  2  1  0  0  0  0
  9 18  1  6  0  0  0
  9 13  1  0  0  0  0
 10  8  1  1  0  0  0
 10 28  1  0  0  0  0
 10 26  1  0  0  0  0
 12 24  1  0  0  0  0
 12 25  1  1  0  0  0
 14  9  1  0  0  0  0
 15 19  1  0  0  0  0
 15 11  1  6  0  0  0
 16 20  2  0  0  0  0
 17  3  2  0  0  0  0
 21  1  2  0  0  0  0
 21 22  1  0  0  0  0
 22  4  2  0  0  0  0
 23 15  1  0  0  0  0
 24  5  1  1  0  0  0
 25 19  1  0  0  0  0
 25 17  1  0  0  0  0
 26 13  1  6  0  0  0
 26 24  1  0  0  0  0
 28 16  1  1  0  0  0
 28 12  1  0  0  0  0
M  END
>  <MODEL>
5

>  <REMARK>
 VINA RESULT:      -8.0      2.585      4.171
  Name = 
  0 active torsions:
  status: ('A' for Active; 'I' for Inactive)
                            x       y       z     vdW  Elec       q    Type
                         _______ _______ _______ _____ _____    ______ ____

>  <TORSDO>
F 0

$$$$
=
 OpenBabel11112417403D

 28 32  0  0  1  0  0  0  0  0999 V2000
  195.9730  174.7880  144.9950 C   0  0  0  0  0  0  0  0  0  0  0  0
  191.9410  175.0650  147.9990 F   0  0  0  0  0  0  0  0  0  0  0  0
  193.1020  171.7610  142.5710 O   0  0  0  0  0  0  0  0  0  0  0  0
  195.3950  176.3740  142.7590 C   0  0  0  0  0  3  0  0  0  0  0  0
  191.5460  173.2040  143.6750 C   0  0  0  0  0  0  0  0  0  0  0  0
  196.2860  173.8750  146.1400 C   0  0  0  0  0  2  0  0  0  0  0  0
  192.7320  177.1660  147.8530 F   0  0  0  0  0  0  0  0  0  0  0  0
  191.9250  176.2260  147.2390 C   0  0  0  0  0  0  0  0  0  0  0  0
  189.6640  175.8180  146.3380 C   0  0  1  0  0  3  0  0  0  0  0  0
  192.4500  175.9730  145.8090 C   0  0  2  0  0  3  0  0  0  0  0  0
  196.0760  172.0820  143.2870 C   0  0  0  0  0  1  0  0  0  0  0  0
  192.8820  173.5690  145.6160 C   0  0  1  0  0  3  0  0  0  0  0  0
  190.0900  175.8910  144.9970 O   0  0  0  0  0  0  0  0  0  0  0  0
  190.5000  176.7540  147.1980 C   0  0  0  0  0  2  0  0  0  0  0  0
  195.8970  171.7160  144.7510 C   0  0  2  0  0  3  0  0  0  0  0  0
  194.6610  175.2620  144.7980 C   0  0  0  0  0  0  0  0  0  0  0  0
  192.7900  172.4980  143.5440 C   0  0  0  0  0  0  0  0  0  0  0  0
  188.2080  176.2240  146.4230 C   0  0  0  0  0  1  0  0  0  0  0  0
  194.4380  171.5970  145.2060 C   0  0  0  0  0  2  0  0  0  0  0  0
  194.3820  176.0390  143.6590 C   0  0  0  0  0  3  0  0  0  0  0  0
  196.9890  175.1470  144.0990 C   0  0  0  0  0  3  0  0  0  0  0  0
  196.7010  175.9370  142.9850 C   0  0  0  0  0  3  0  0  0  0  0  0
  196.8170  172.5120  145.6860 C   0  0  0  0  0  2  0  0  0  0  0  0
  191.4840  173.8490  145.0130 C   0  0  1  0  0  3  0  0  0  0  0  0
  193.5960  172.6750  144.6970 N   0  0  0  0  0  0  0  0  0  0  0  0
  191.3980  175.3610  144.8770 C   0  0  2  0  0  3  0  0  0  0  0  0
  190.6300  173.2280  142.8120 O   0  0  0  0  0  0  0  0  0  0  0  0
  193.5730  174.9380  145.8080 C   0  0  1  0  0  3  0  0  0  0  0  0
  1  6  1  0  0  0  0
  3 17  2  0  0  0  0
  4 22  2  0  0  0  0
  4 20  1  0  0  0  0
  8  7  1  0  0  0  0
  8  2  1  0  0  0  0
  9 18  1  6  0  0  0
  9 14  1  0  0  0  0
 10  8  1  1  0  0  0
 12 25  1  6  0  0  0
 12 28  1  0  0  0  0
 13  9  1  0  0  0  0
 14  8  1  0  0  0  0
 15 11  1  6  0  0  0
 15 19  1  0  0  0  0
 15 23  1  0  0  0  0
 16  1  1  0  0  0  0
 17  5  1  0  0  0  0
 17 25  1  0  0  0  0
 20 16  2  0  0  0  0
 21  1  2  0  0  0  0
 22 21  1  0  0  0  0
 23  6  1  0  0  0  0
 24  5  1  6  0  0  0
 24 12  1  0  0  0  0
 25 19  1  0  0  0  0
 26 13  1  1  0  0  0
 26 24  1  0  0  0  0
 26 10  1  0  0  0  0
 27  5  2  0  0  0  0
 28 16  1  6  0  0  0
 28 10  1  0  0  0  0
M  END
>  <MODEL>
6

>  <REMARK>
 VINA RESULT:      -7.6      3.999      5.783
  Name = 
  0 active torsions:
  status: ('A' for Active; 'I' for Inactive)
                            x       y       z     vdW  Elec       q    Type
                         _______ _______ _______ _____ _____    ______ ____

>  <TORSDO>
F 0

$$$$
=
 OpenBabel11112417403D

 28 32  0  0  1  0  0  0  0  0999 V2000
  191.7390  174.4620  144.0330 C   0  0  0  0  0  0  0  0  0  0  0  0
  187.4420  175.6950  146.3510 F   0  0  0  0  0  0  0  0  0  0  0  0
  188.8470  174.4550  140.1700 O   0  0  0  0  0  0  0  0  0  0  0  0
  192.6400  176.7910  142.7630 C   0  0  0  0  0  3  0  0  0  0  0  0
  187.7600  175.9900  141.6470 C   0  0  0  0  0  0  0  0  0  0  0  0
  191.2490  173.1830  144.6380 C   0  0  0  0  0  2  0  0  0  0  0  0
  189.0310  176.9730  147.3020 F   0  0  0  0  0  0  0  0  0  0  0  0
  188.1590  176.8770  146.2330 C   0  0  0  0  0  0  0  0  0  0  0  0
  186.3680  178.0520  145.0060 C   0  0  1  0  0  3  0  0  0  0  0  0
  188.9710  176.9180  144.9210 C   0  0  2  0  0  3  0  0  0  0  0  0
  191.2680  172.9110  141.2720 C   0  0  0  0  0  1  0  0  0  0  0  0
  188.4060  174.8920  143.6630 C   0  0  1  0  0  3  0  0  0  0  0  0
  187.2010  178.3640  143.9140 O   0  0  0  0  0  0  0  0  0  0  0  0
  187.1820  178.0410  146.2910 C   0  0  0  0  0  2  0  0  0  0  0  0
  190.4830  172.1970  142.3610 C   0  0  2  0  0  3  0  0  0  0  0  0
  190.8860  175.5800  143.9420 C   0  0  0  0  0  0  0  0  0  0  0  0
  188.5670  174.8440  141.3350 C   0  0  0  0  0  0  0  0  0  0  0  0
  185.2720  179.0900  145.1130 C   0  0  0  0  0  1  0  0  0  0  0  0
  189.0450  172.6980  142.5430 C   0  0  0  0  0  2  0  0  0  0  0  0
  191.3460  176.7340  143.2820 C   0  0  0  0  0  3  0  0  0  0  0  0
  193.0440  174.5340  143.5300 C   0  0  0  0  0  3  0  0  0  0  0  0
  193.4940  175.6950  142.8970 C   0  0  0  0  0  3  0  0  0  0  0  0
  191.2850  172.0080  143.6550 C   0  0  0  0  0  2  0  0  0  0  0  0
  187.5340  176.0490  143.1160 C   0  0  1  0  0  3  0  0  0  0  0  0
  188.9440  174.1540  142.5150 N   0  0  0  0  0  0  0  0  0  0  0  0
  188.1320  177.3170  143.7010 C   0  0  2  0  0  3  0  0  0  0  0  0
  187.2770  176.7890  140.8040 O   0  0  0  0  0  0  0  0  0  0  0  0
  189.4960  175.5320  144.5530 C   0  0  1  0  0  3  0  0  0  0  0  0
  1  6  1  0  0  0  0
  3 17  2  0  0  0  0
  4 22  2  0  0  0  0
  4 20  1  0  0  0  0
  8 14  1  0  0  0  0
  8  2  1  0  0  0  0
  8  7  1  0  0  0  0
  9 18  1  1  0  0  0
  9 14  1  0  0  0  0
 10  8  1  1  0  0  0
 12 25  1  6  0  0  0
 12 28  1  0  0  0  0
 13  9  1  0  0  0  0
 15 11  1  6  0  0  0
 15 19  1  0  0  0  0
 15 23  1  0  0  0  0
 16  1  1  0  0  0  0
 17  5  1  0  0  0  0
 17 25  1  0  0  0  0
 20 16  2  0  0  0  0
 21  1  2  0  0  0  0
 22 21  1  0  0  0  0
 23  6  1  0  0  0  0
 24  5  1  6  0  0  0
 24 12  1  0  0  0  0
 24 26  1  0  0  0  0
 25 19  1  0  0  0  0
 26 13  1  1  0  0  0
 26 10  1  0  0  0  0
 27  5  2  0  0  0  0
 28 16  1  6  0  0  0
 28 10  1  0  0  0  0
M  END
>  <MODEL>
7

>  <REMARK>
 VINA RESULT:      -7.5      1.394      1.745
  Name = 
  0 active torsions:
  status: ('A' for Active; 'I' for Inactive)
                            x       y       z     vdW  Elec       q    Type
                         _______ _______ _______ _____ _____    ______ ____

>  <TORSDO>
F 0

$$$$
=
 OpenBabel11112417403D

 28 32  0  0  1  0  0  0  0  0999 V2000
  188.9060  175.5250  145.9220 C   0  0  0  0  0  0  0  0  0  0  0  0
  190.3300  171.5350  143.2000 F   0  0  0  0  0  0  0  0  0  0  0  0
  193.3370  177.0360  144.7550 O   0  0  0  0  0  0  0  0  0  0  0  0
  188.2510  177.5350  144.0840 C   0  0  0  0  0  3  0  0  0  0  0  0
  192.7830  175.5650  142.9530 C   0  0  0  0  0  0  0  0  0  0  0  0
  189.3160  174.4990  146.9330 C   0  0  0  0  0  2  0  0  0  0  0  0
  188.1850  171.9160  142.6390 F   0  0  0  0  0  0  0  0  0  0  0  0
  189.4940  172.2750  142.3760 C   0  0  0  0  0  0  0  0  0  0  0  0
  191.1760  172.5180  140.5860 C   0  0  1  0  0  3  0  0  0  0  0  0
  189.6550  173.7910  142.6190 C   0  0  2  0  0  3  0  0  0  0  0  0
  191.3780  177.1660  147.1230 C   0  0  0  0  0  1  0  0  0  0  0  0
  191.4590  174.0680  144.2540 C   0  0  1  0  0  3  0  0  0  0  0  0
  191.1050  173.9240  140.5900 O   0  0  0  0  0  0  0  0  0  0  0  0
  189.8160  171.9300  140.9310 C   0  0  0  0  0  2  0  0  0  0  0  0
  191.5430  175.7040  147.5080 C   0  0  2  0  0  3  0  0  0  0  0  0
  189.2380  175.3600  144.5630 C   0  0  0  0  0  0  0  0  0  0  0  0
  192.7330  176.0230  144.3130 C   0  0  0  0  0  0  0  0  0  0  0  0
  191.5960  172.0420  139.2130 C   0  0  0  0  0  1  0  0  0  0  0  0
  192.3430  174.8660  146.5040 C   0  0  0  0  0  2  0  0  0  0  0  0
  188.9220  176.3880  143.6560 C   0  0  0  0  0  3  0  0  0  0  0  0
  188.2120  176.6690  146.3400 C   0  0  0  0  0  3  0  0  0  0  0  0
  187.8850  177.6700  145.4240 C   0  0  0  0  0  3  0  0  0  0  0  0
  190.2430  175.0660  148.0130 C   0  0  0  0  0  2  0  0  0  0  0  0
  192.0640  174.2680  142.8430 C   0  0  1  0  0  3  0  0  0  0  0  0
  191.9740  175.1370  145.1180 N   0  0  0  0  0  0  0  0  0  0  0  0
  190.8720  174.3920  141.9070 C   0  0  2  0  0  3  0  0  0  0  0  0
  193.3870  176.1440  142.0130 O   0  0  0  0  0  0  0  0  0  0  0  0
  189.9220  174.0880  144.0940 C   0  0  1  0  0  3  0  0  0  0  0  0
  1 21  1  0  0  0  0
  1  6  1  0  0  0  0
  4 22  1  0  0  0  0
  5 17  1  0  0  0  0
  6 23  1  0  0  0  0
  8  7  1  0  0  0  0
  8  2  1  0  0  0  0
  9 18  1  6  0  0  0
  9 13  1  0  0  0  0
  9 14  1  0  0  0  0
 10  8  1  1  0  0  0
 10 28  1  0  0  0  0
 12 25  1  1  0  0  0
 14  8  1  0  0  0  0
 15 11  1  6  0  0  0
 15 23  1  0  0  0  0
 16  1  2  0  0  0  0
 17  3  2  0  0  0  0
 17 25  1  0  0  0  0
 19 15  1  0  0  0  0
 20  4  2  0  0  0  0
 20 16  1  0  0  0  0
 22 21  2  0  0  0  0
 24  5  1  1  0  0  0
 24 12  1  0  0  0  0
 25 19  1  0  0  0  0
 26 13  1  6  0  0  0
 26 10  1  0  0  0  0
 26 24  1  0  0  0  0
 27  5  2  0  0  0  0
 28 12  1  0  0  0  0
 28 16  1  6  0  0  0
M  END
>  <MODEL>
8

>  <REMARK>
 VINA RESULT:      -7.5      3.280      5.877
  Name = 
  0 active torsions:
  status: ('A' for Active; 'I' for Inactive)
                            x       y       z     vdW  Elec       q    Type
                         _______ _______ _______ _____ _____    ______ ____

>  <TORSDO>
F 0

$$$$
=
 OpenBabel11112417403D

 28 32  0  0  1  0  0  0  0  0999 V2000
  194.7910  176.1770  144.1140 C   0  0  0  0  0  0  0  0  0  0  0  0
  189.9620  176.6290  145.4670 F   0  0  0  0  0  0  0  0  0  0  0  0
  193.3270  171.7330  142.9320 O   0  0  0  0  0  0  0  0  0  0  0  0
  194.8450  176.3880  141.3210 C   0  0  0  0  0  3  0  0  0  0  0  0
  191.3240  173.0250  142.7330 C   0  0  0  0  0  0  0  0  0  0  0  0
  194.7900  175.9860  145.5990 C   0  0  0  0  0  2  0  0  0  0  0  0
  190.4980  178.5780  144.4790 F   0  0  0  0  0  0  0  0  0  0  0  0
  190.0740  177.2820  144.2480 C   0  0  0  0  0  0  0  0  0  0  0  0
  188.3350  175.9160  143.1520 C   0  0  1  0  0  3  0  0  0  0  0  0
  191.0910  176.5810  143.3210 C   0  0  2  0  0  3  0  0  0  0  0  0
  195.8030  173.1400  144.0930 C   0  0  0  0  0  1  0  0  0  0  0  0
  191.8450  174.5590  144.4830 C   0  0  1  0  0  3  0  0  0  0  0  0
  189.1900  175.5050  142.1110 O   0  0  0  0  0  0  0  0  0  0  0  0
  188.7010  177.3240  143.5960 C   0  0  0  0  0  2  0  0  0  0  0  0
  195.1700  173.4220  145.4460 C   0  0  2  0  0  3  0  0  0  0  0  0
  193.5830  176.1350  143.3890 C   0  0  0  0  0  0  0  0  0  0  0  0
  192.6090  172.7060  143.2870 C   0  0  0  0  0  0  0  0  0  0  0  0
  186.9040  175.9010  142.6600 C   0  0  0  0  0  1  0  0  0  0  0  0
  193.6690  173.1200  145.5230 C   0  0  0  0  0  2  0  0  0  0  0  0
  193.6290  176.2200  141.9860 C   0  0  0  0  0  3  0  0  0  0  0  0
  196.0050  176.3680  143.4410 C   0  0  0  0  0  3  0  0  0  0  0  0
  196.0320  176.4730  142.0500 C   0  0  0  0  0  3  0  0  0  0  0  0
  195.6040  174.7670  146.0430 C   0  0  0  0  0  2  0  0  0  0  0  0
  190.7230  174.1490  143.4980 C   0  0  1  0  0  3  0  0  0  0  0  0
  192.9350  173.5860  144.3500 N   0  0  0  0  0  0  0  0  0  0  0  0
  190.5110  175.3580  142.6020 C   0  0  2  0  0  3  0  0  0  0  0  0
  190.7710  172.4140  141.7820 O   0  0  0  0  0  0  0  0  0  0  0  0
  192.2580  176.0040  144.1200 C   0  0  1  0  0  3  0  0  0  0  0  0
  1  6  1  0  0  0  0
  3 17  2  0  0  0  0
  4 20  2  0  0  0  0
  4 22  1  0  0  0  0
  5 17  1  0  0  0  0
  6 23  1  0  0  0  0
  8  7  1  0  0  0  0
  8  2  1  0  0  0  0
  9 18  1  6  0  0  0
  9 14  1  0  0  0  0
 10 28  1  0  0  0  0
 10  8  1  1  0  0  0
 12 25  1  6  0  0  0
 13  9  1  0  0  0  0
 14  8  1  0  0  0  0
 15 11  1  6  0  0  0
 15 19  1  0  0  0  0
 15 23  1  0  0  0  0
 16  1  2  0  0  0  0
 17 25  1  0  0  0  0
 20 16  1  0  0  0  0
 21  1  1  0  0  0  0
 22 21  2  0  0  0  0
 24  5  1  6  0  0  0
 24 12  1  0  0  0  0
 25 19  1  0  0  0  0
 26 13  1  1  0  0  0
 26 10  1  0  0  0  0
 26 24  1  0  0  0  0
 27  5  2  0  0  0  0
 28 16  1  6  0  0  0
 28 12  1  0  0  0  0
M  END
>  <MODEL>
9

>  <REMARK>
 VINA RESULT:      -7.5      3.125      4.811
  Name = 
  0 active torsions:
  status: ('A' for Active; 'I' for Inactive)
                            x       y       z     vdW  Elec       q    Type
                         _______ _______ _______ _____ _____    ______ ____

>  <TORSDO>
F 0

$$$$
