=
 OpenBabel11112416163D

 30 35  0  0  1  0  0  0  0  0999 V2000
  187.8100  177.1350  145.6850 C   0  0  0  0  0  0  0  0  0  0  0  0
  185.9140  178.2140  146.8970 C   0  0  0  0  0  0  0  0  0  0  0  0
  185.6900  177.2610  141.9800 C   0  0  0  0  0  2  0  0  0  0  0  0
  188.3320  176.6090  144.4790 C   0  0  0  0  0  0  0  0  0  0  0  0
  188.6590  177.0260  146.9210 C   0  0  0  0  0  2  0  0  0  0  0  0
  191.7940  176.0330  145.4560 O   0  0  0  0  0  0  0  0  0  0  0  0
  189.0360  174.2030  142.8180 C   0  0  1  0  0  3  0  0  0  0  0  0
  190.5940  176.4270  145.4940 C   0  0  0  0  0  0  0  0  0  0  0  0
  188.1160  174.8120  141.8390 N   0  0  2  0  0  0  0  0  0  0  0  0
  186.8000  176.7440  141.0590 C   0  0  1  0  0  3  0  0  0  0  0  0
  190.1240  177.3210  146.6160 C   0  0  2  0  0  3  0  0  0  0  0  0
  189.6740  176.0710  144.4420 N   0  0  0  0  0  0  0  0  0  0  0  0
  184.6290  178.7600  146.8660 C   0  0  0  0  0  3  0  0  0  0  0  0
  188.7120  174.4890  140.5570 C   0  0  0  0  0  2  0  0  0  0  0  0
  189.6940  173.0600  142.1940 N   0  0  0  0  0  2  0  0  0  0  0  0
  186.5670  178.2100  148.0850 F   0  0  0  0  0  0  0  0  0  0  0  0
  186.2990  177.2380  143.3310 C   0  0  0  0  0  0  0  0  0  0  0  0
  183.9020  178.8020  145.6770 C   0  0  0  0  0  3  0  0  0  0  0  0
  186.4980  177.6920  145.7150 C   0  0  0  0  0  0  0  0  0  0  0  0
  187.5480  176.6800  143.3170 C   0  0  0  0  0  0  0  0  0  0  0  0
  187.2350  177.7790  140.2320 O   0  0  0  0  0  1  0  0  0  0  0  0
  187.9660  176.2730  141.9450 C   0  0  1  0  0  3  0  0  0  0  0  0
  189.4820  173.2090  140.7630 C   0  0  0  0  0  2  0  0  0  0  0  0
  191.2400  175.1650  142.9510 O   0  0  0  0  0  0  0  0  0  0  0  0
  184.4570  178.2960  144.5040 C   0  0  0  0  0  3  0  0  0  0  0  0
  185.7410  177.7410  144.5100 C   0  0  0  0  0  0  0  0  0  0  0  0
  190.0610  175.1540  143.4000 C   0  0  0  0  0  0  0  0  0  0  0  0
  190.9200  177.1400  147.8720 C   0  0  0  0  0  3  0  0  0  0  0  0
  191.6910  177.8590  150.0750 C   0  0  0  0  0  1  0  0  0  0  0  0
  190.8930  178.0580  148.8350 C   0  0  0  0  0  3  0  0  0  0  0  0
  1 19  1  0  0  0  0
  1  5  1  0  0  0  0
  2 16  1  0  0  0  0
  3 17  1  0  0  0  0
  4  1  2  0  0  0  0
  6  8  2  0  0  0  0
  7 15  1  6  0  0  0
  7 27  1  0  0  0  0
  8 11  1  0  0  0  0
  9 14  1  6  0  0  0
  9 22  1  0  0  0  0
  9  7  1  0  0  0  0
 10 21  1  6  0  0  0
 10 22  1  0  0  0  0
 10  3  1  0  0  0  0
 11  5  1  0  0  0  0
 11 28  1  1  0  0  0
 12  4  1  0  0  0  0
 12  8  1  0  0  0  0
 13  2  1  0  0  0  0
 14 23  1  0  0  0  0
 17 26  1  0  0  0  0
 18 13  2  0  0  0  0
 19  2  2  0  0  0  0
 20 17  2  0  0  0  0
 20  4  1  0  0  0  0
 22 20  1  1  0  0  0
 23 15  1  0  0  0  0
 24 27  2  0  0  0  0
 25 26  2  0  0  0  0
 25 18  1  0  0  0  0
 26 19  1  0  0  0  0
 27 12  1  0  0  0  0
 28 30  2  0  0  0  0
 30 29  1  0  0  0  0
M  END
>  <MODEL>
1

>  <REMARK>
 VINA RESULT:      -9.5      0.000      0.000
  Name = 
  1 active torsions:
  status: ('A' for Active; 'I' for Inactive)
    1  A    between atoms: C_11  and  C_28
                            x       y       z     vdW  Elec       q    Type
                         _______ _______ _______ _____ _____    ______ ____

>  <TORSDO>
F 1

$$$$
=
 OpenBabel11112416163D

 30 35  0  0  1  0  0  0  0  0999 V2000
  188.5680  175.7360  143.4900 C   0  0  0  0  0  0  0  0  0  0  0  0
  186.3120  176.7560  143.8050 C   0  0  0  0  0  0  0  0  0  0  0  0
  189.8810  177.1310  147.3060 C   0  0  0  0  0  2  0  0  0  0  0  0
  189.8790  175.5230  143.9800 C   0  0  0  0  0  0  0  0  0  0  0  0
  188.2330  175.1930  142.1280 C   0  0  0  0  0  2  0  0  0  0  0  0
  191.1000  173.0930  141.5570 O   0  0  0  0  0  0  0  0  0  0  0  0
  192.8050  176.2030  143.8650 C   0  0  1  0  0  3  0  0  0  0  0  0
  190.3150  173.8510  142.1920 C   0  0  0  0  0  0  0  0  0  0  0  0
  192.6170  176.5380  145.2890 N   0  0  2  0  0  0  0  0  0  0  0  0
  191.2550  176.4530  147.3420 C   0  0  1  0  0  3  0  0  0  0  0  0
  188.8300  173.8050  141.9220 C   0  0  2  0  0  3  0  0  0  0  0  0
  190.8190  174.7310  143.2180 N   0  0  0  0  0  0  0  0  0  0  0  0
  185.4310  177.4930  144.6020 C   0  0  0  0  0  3  0  0  0  0  0  0
  193.8690  176.1420  145.9050 C   0  0  0  0  0  2  0  0  0  0  0  0
  194.2280  176.2740  143.5510 N   0  0  0  0  0  2  0  0  0  0  0  0
  185.8550  176.3100  142.6090 F   0  0  0  0  0  0  0  0  0  0  0  0
  189.3190  176.7430  145.9900 C   0  0  0  0  0  0  0  0  0  0  0  0
  185.8330  177.9770  145.8450 C   0  0  0  0  0  3  0  0  0  0  0  0
  187.6300  176.4920  144.2540 C   0  0  0  0  0  0  0  0  0  0  0  0
  190.2190  176.0390  145.2390 C   0  0  0  0  0  0  0  0  0  0  0  0
  191.2490  175.4460  148.3060 O   0  0  0  0  0  1  0  0  0  0  0  0
  191.5100  175.8320  145.9570 C   0  0  1  0  0  3  0  0  0  0  0  0
  194.9200  176.2600  144.8310 C   0  0  0  0  0  2  0  0  0  0  0  0
  192.9930  173.8620  143.3350 O   0  0  0  0  0  0  0  0  0  0  0  0
  187.1240  177.7290  146.3060 C   0  0  0  0  0  3  0  0  0  0  0  0
  188.0250  176.9960  145.5260 C   0  0  0  0  0  0  0  0  0  0  0  0
  192.2350  174.8640  143.4480 C   0  0  0  0  0  0  0  0  0  0  0  0
  188.5100  173.3480  140.5320 C   0  0  0  0  0  3  0  0  0  0  0  0
  188.1900  173.7310  138.1410 C   0  0  0  0  0  1  0  0  0  0  0  0
  188.5100  174.2060  139.5140 C   0  0  0  0  0  3  0  0  0  0  0  0
  1  4  2  0  0  0  0
  1 19  1  0  0  0  0
  2 19  2  0  0  0  0
  2 13  1  0  0  0  0
  3 10  1  0  0  0  0
  4 20  1  0  0  0  0
  5  1  1  0  0  0  0
  6  8  2  0  0  0  0
  7 27  1  1  0  0  0
  7  9  1  0  0  0  0
  8 12  1  0  0  0  0
  9 14  1  1  0  0  0
  9 22  1  0  0  0  0
 10 21  1  1  0  0  0
 11 28  1  6  0  0  0
 11  5  1  0  0  0  0
 11  8  1  0  0  0  0
 12 27  1  0  0  0  0
 12  4  1  0  0  0  0
 13 18  2  0  0  0  0
 15  7  1  0  0  0  0
 15 23  1  0  0  0  0
 16  2  1  0  0  0  0
 17  3  1  0  0  0  0
 18 25  1  0  0  0  0
 19 26  1  0  0  0  0
 20 17  2  0  0  0  0
 22 20  1  6  0  0  0
 22 10  1  0  0  0  0
 23 14  1  0  0  0  0
 24 27  2  0  0  0  0
 26 17  1  0  0  0  0
 26 25  2  0  0  0  0
 29 30  1  0  0  0  0
 30 28  2  0  0  0  0
M  END
>  <MODEL>
2

>  <REMARK>
 VINA RESULT:      -8.8      2.274      5.809
  Name = 
  1 active torsions:
  status: ('A' for Active; 'I' for Inactive)
    1  A    between atoms: C_11  and  C_28
                            x       y       z     vdW  Elec       q    Type
                         _______ _______ _______ _____ _____    ______ ____

>  <TORSDO>
F 1

$$$$
=
 OpenBabel11112416163D

 30 35  0  0  1  0  0  0  0  0999 V2000
  187.8610  175.9880  142.6070 C   0  0  0  0  0  0  0  0  0  0  0  0
  185.7230  177.2690  142.4830 C   0  0  0  0  0  0  0  0  0  0  0  0
  188.0130  176.3880  146.8550 C   0  0  0  0  0  2  0  0  0  0  0  0
  188.9250  175.4810  143.3920 C   0  0  0  0  0  0  0  0  0  0  0  0
  187.9300  175.7810  141.1190 C   0  0  0  0  0  2  0  0  0  0  0  0
  190.6310  173.4090  140.9290 O   0  0  0  0  0  0  0  0  0  0  0  0
  191.7840  175.7020  144.2940 C   0  0  1  0  0  3  0  0  0  0  0  0
  189.7550  174.1420  141.4690 C   0  0  0  0  0  0  0  0  0  0  0  0
  191.1830  175.7780  145.6390 N   0  0  2  0  0  0  0  0  0  0  0  0
  189.2380  175.5090  147.1290 C   0  0  1  0  0  3  0  0  0  0  0  0
  188.4360  174.3840  140.7760 C   0  0  2  0  0  3  0  0  0  0  0  0
  189.9830  174.7150  142.7730 N   0  0  0  0  0  0  0  0  0  0  0  0
  184.7040  177.9650  143.1390 C   0  0  0  0  0  3  0  0  0  0  0  0
  192.1340  175.0780  146.4820 C   0  0  0  0  0  2  0  0  0  0  0  0
  193.2330  175.6080  144.4330 N   0  0  0  0  0  2  0  0  0  0  0  0
  185.6320  177.1420  141.1360 F   0  0  0  0  0  0  0  0  0  0  0  0
  187.8660  176.3580  145.3800 C   0  0  0  0  0  0  0  0  0  0  0  0
  184.7310  178.1280  144.5230 C   0  0  0  0  0  3  0  0  0  0  0  0
  186.8010  176.7190  143.2200 C   0  0  0  0  0  0  0  0  0  0  0  0
  188.8920  175.6820  144.7800 C   0  0  0  0  0  0  0  0  0  0  0  0
  188.8360  174.3470  147.7860 O   0  0  0  0  0  1  0  0  0  0  0  0
  189.8640  175.1380  145.7720 C   0  0  1  0  0  3  0  0  0  0  0  0
  193.4780  175.2360  145.8180 C   0  0  0  0  0  2  0  0  0  0  0  0
  191.9210  173.5090  143.3090 O   0  0  0  0  0  0  0  0  0  0  0  0
  185.7810  177.5950  145.2670 C   0  0  0  0  0  3  0  0  0  0  0  0
  186.8150  176.8970  144.6330 C   0  0  0  0  0  0  0  0  0  0  0  0
  191.2590  174.5770  143.4290 C   0  0  0  0  0  0  0  0  0  0  0  0
  188.5350  174.2620  139.2860 C   0  0  0  0  0  3  0  0  0  0  0  0
  187.8730  174.8590  137.0110 C   0  0  0  0  0  1  0  0  0  0  0  0
  187.7600  174.9940  138.4890 C   0  0  0  0  0  3  0  0  0  0  0  0
  1 19  2  0  0  0  0
  1  4  1  0  0  0  0
  2 13  2  0  0  0  0
  2 19  1  0  0  0  0
  3 10  1  0  0  0  0
  4 20  2  0  0  0  0
  5  1  1  0  0  0  0
  6  8  2  0  0  0  0
  7 27  1  1  0  0  0
  7 15  1  0  0  0  0
  7  9  1  0  0  0  0
  8 12  1  0  0  0  0
  9 22  1  0  0  0  0
  9 14  1  1  0  0  0
 10 21  1  6  0  0  0
 11 28  1  6  0  0  0
 11  5  1  0  0  0  0
 11  8  1  0  0  0  0
 12  4  1  0  0  0  0
 12 27  1  0  0  0  0
 13 18  1  0  0  0  0
 15 23  1  0  0  0  0
 16  2  1  0  0  0  0
 17  3  1  0  0  0  0
 18 25  2  0  0  0  0
 19 26  1  0  0  0  0
 20 17  1  0  0  0  0
 22 20  1  6  0  0  0
 22 10  1  0  0  0  0
 23 14  1  0  0  0  0
 24 27  2  0  0  0  0
 26 25  1  0  0  0  0
 26 17  2  0  0  0  0
 29 30  1  0  0  0  0
 30 28  2  0  0  0  0
M  END
>  <MODEL>
3

>  <REMARK>
 VINA RESULT:      -8.7      2.422      5.758
  Name = 
  1 active torsions:
  status: ('A' for Active; 'I' for Inactive)
    1  A    between atoms: C_11  and  C_28
                            x       y       z     vdW  Elec       q    Type
                         _______ _______ _______ _____ _____    ______ ____

>  <TORSDO>
F 1

$$$$
=
 OpenBabel11112416163D

 30 35  0  0  1  0  0  0  0  0999 V2000
  188.1590  175.3740  142.6690 C   0  0  0  0  0  0  0  0  0  0  0  0
  189.5110  173.3670  142.0560 C   0  0  0  0  0  0  0  0  0  0  0  0
  189.6610  175.3310  146.6670 C   0  0  0  0  0  2  0  0  0  0  0  0
  187.7450  176.2980  143.6590 C   0  0  0  0  0  0  0  0  0  0  0  0
  187.5520  175.4980  141.2990 C   0  0  0  0  0  2  0  0  0  0  0  0
  185.9470  178.7060  141.6000 O   0  0  0  0  0  0  0  0  0  0  0  0
  185.6160  177.2460  145.5580 C   0  0  1  0  0  3  0  0  0  0  0  0
  186.6770  177.7290  141.9290 C   0  0  0  0  0  0  0  0  0  0  0  0
  186.6590  177.0310  146.5790 N   0  0  2  0  0  0  0  0  0  0  0  0
  189.0170  176.6270  147.1710 C   0  0  1  0  0  3  0  0  0  0  0  0
  187.4340  176.9580  140.8740 C   0  0  2  0  0  3  0  0  0  0  0  0
  186.8380  177.3710  143.3170 N   0  0  0  0  0  0  0  0  0  0  0  0
  190.4220  172.3780  142.4310 C   0  0  0  0  0  3  0  0  0  0  0  0
  186.4270  178.0930  147.5390 C   0  0  0  0  0  2  0  0  0  0  0  0
  184.4710  177.8960  146.1880 N   0  0  0  0  0  2  0  0  0  0  0  0
  189.0710  173.3650  140.7740 F   0  0  0  0  0  0  0  0  0  0  0  0
  189.1840  175.2100  145.2680 C   0  0  0  0  0  0  0  0  0  0  0  0
  190.9200  172.3250  143.7320 C   0  0  0  0  0  3  0  0  0  0  0  0
  189.0770  174.3340  142.9980 C   0  0  0  0  0  0  0  0  0  0  0  0
  188.2830  176.1880  144.9500 C   0  0  0  0  0  0  0  0  0  0  0  0
  190.0090  177.5860  147.3770 O   0  0  0  0  0  1  0  0  0  0  0  0
  188.0440  177.1240  146.0870 C   0  0  1  0  0  3  0  0  0  0  0  0
  184.9570  178.4200  147.4550 C   0  0  0  0  0  2  0  0  0  0  0  0
  185.8030  179.2570  144.2480 O   0  0  0  0  0  0  0  0  0  0  0  0
  190.5080  173.2650  144.6740 C   0  0  0  0  0  3  0  0  0  0  0  0
  189.5930  174.2640  144.3240 C   0  0  0  0  0  0  0  0  0  0  0  0
  186.0690  178.0280  144.3440 C   0  0  0  0  0  0  0  0  0  0  0  0
  186.7720  177.0140  139.5320 C   0  0  0  0  0  3  0  0  0  0  0  0
  186.3620  176.1670  137.2770 C   0  0  0  0  0  1  0  0  0  0  0  0
  187.0300  176.0940  138.6050 C   0  0  0  0  0  3  0  0  0  0  0  0
  1 19  2  0  0  0  0
  1  4  1  0  0  0  0
  2 13  2  0  0  0  0
  2 19  1  0  0  0  0
  3 10  1  0  0  0  0
  4 20  2  0  0  0  0
  5  1  1  0  0  0  0
  6  8  2  0  0  0  0
  7 27  1  6  0  0  0
  7 15  1  0  0  0  0
  7  9  1  0  0  0  0
  8 12  1  0  0  0  0
  9 14  1  1  0  0  0
 10 21  1  6  0  0  0
 11 28  1  6  0  0  0
 11  5  1  0  0  0  0
 11  8  1  0  0  0  0
 12  4  1  0  0  0  0
 12 27  1  0  0  0  0
 13 18  1  0  0  0  0
 15 23  1  0  0  0  0
 16  2  1  0  0  0  0
 17  3  1  0  0  0  0
 18 25  2  0  0  0  0
 19 26  1  0  0  0  0
 20 17  1  0  0  0  0
 22 20  1  6  0  0  0
 22  9  1  0  0  0  0
 22 10  1  0  0  0  0
 23 14  1  0  0  0  0
 24 27  2  0  0  0  0
 26 25  1  0  0  0  0
 26 17  2  0  0  0  0
 29 30  1  0  0  0  0
 30 28  2  0  0  0  0
M  END
>  <MODEL>
4

>  <REMARK>
 VINA RESULT:      -8.6      2.800      7.244
  Name = 
  1 active torsions:
  status: ('A' for Active; 'I' for Inactive)
    1  A    between atoms: C_11  and  C_28
                            x       y       z     vdW  Elec       q    Type
                         _______ _______ _______ _____ _____    ______ ____

>  <TORSDO>
F 1

$$$$
=
 OpenBabel11112416163D

 30 35  0  0  1  0  0  0  0  0999 V2000
  187.5510  176.3880  142.2710 C   0  0  0  0  0  0  0  0  0  0  0  0
  185.4760  177.5390  141.4980 C   0  0  0  0  0  0  0  0  0  0  0  0
  186.8140  177.4910  146.3290 C   0  0  0  0  0  2  0  0  0  0  0  0
  188.4310  176.0630  143.3310 C   0  0  0  0  0  0  0  0  0  0  0  0
  187.9290  175.9400  140.8860 C   0  0  0  0  0  2  0  0  0  0  0  0
  190.6260  173.6850  141.6580 O   0  0  0  0  0  0  0  0  0  0  0  0
  191.0390  176.5510  144.7450 C   0  0  1  0  0  3  0  0  0  0  0  0
  189.6530  174.4600  141.8740 C   0  0  0  0  0  0  0  0  0  0  0  0
  190.1720  176.8220  145.9060 N   0  0  2  0  0  0  0  0  0  0  0  0
  187.9620  176.7230  146.9920 C   0  0  1  0  0  3  0  0  0  0  0  0
  188.5040  174.5280  140.8960 C   0  0  2  0  0  3  0  0  0  0  0  0
  189.6010  175.2500  143.0800 N   0  0  0  0  0  0  0  0  0  0  0  0
  184.3380  178.2900  141.8040 C   0  0  0  0  0  3  0  0  0  0  0  0
  190.9320  176.3130  147.0320 C   0  0  0  0  0  2  0  0  0  0  0  0
  192.4290  176.5420  145.1900 N   0  0  0  0  0  2  0  0  0  0  0  0
  185.6680  177.1870  140.2030 F   0  0  0  0  0  0  0  0  0  0  0  0
  186.9770  177.2110  144.8830 C   0  0  0  0  0  0  0  0  0  0  0  0
  184.0760  178.6810  143.1160 C   0  0  0  0  0  3  0  0  0  0  0  0
  186.3820  177.1640  142.5220 C   0  0  0  0  0  0  0  0  0  0  0  0
  188.1100  176.4890  144.6280 C   0  0  0  0  0  0  0  0  0  0  0  0
  187.4400  175.6690  147.7430 O   0  0  0  0  0  1  0  0  0  0  0  0
  188.8580  176.1590  145.8760 C   0  0  1  0  0  3  0  0  0  0  0  0
  192.3840  176.4160  146.6380 C   0  0  0  0  0  2  0  0  0  0  0  0
  191.3940  174.2330  144.1970 O   0  0  0  0  0  0  0  0  0  0  0  0
  184.9520  178.3230  144.1380 C   0  0  0  0  0  3  0  0  0  0  0  0
  186.1000  177.5740  143.8560 C   0  0  0  0  0  0  0  0  0  0  0  0
  190.7130  175.2760  143.9960 C   0  0  0  0  0  0  0  0  0  0  0  0
  188.9110  174.1660  139.5010 C   0  0  0  0  0  3  0  0  0  0  0  0
  188.5950  174.1680  137.0790 C   0  0  0  0  0  1  0  0  0  0  0  0
  188.1740  174.5380  138.4580 C   0  0  0  0  0  3  0  0  0  0  0  0
  1 19  2  0  0  0  0
  1  4  1  0  0  0  0
  2 13  2  0  0  0  0
  2 19  1  0  0  0  0
  3 10  1  0  0  0  0
  4 20  2  0  0  0  0
  5 11  1  0  0  0  0
  5  1  1  0  0  0  0
  6  8  2  0  0  0  0
  7 27  1  1  0  0  0
  7 15  1  0  0  0  0
  7  9  1  0  0  0  0
  8 12  1  0  0  0  0
  9 14  1  1  0  0  0
 10 21  1  6  0  0  0
 11 28  1  6  0  0  0
 11  8  1  0  0  0  0
 12  4  1  0  0  0  0
 12 27  1  0  0  0  0
 13 18  1  0  0  0  0
 15 23  1  0  0  0  0
 16  2  1  0  0  0  0
 17  3  1  0  0  0  0
 18 25  2  0  0  0  0
 19 26  1  0  0  0  0
 20 17  1  0  0  0  0
 22 20  1  6  0  0  0
 22  9  1  0  0  0  0
 22 10  1  0  0  0  0
 23 14  1  0  0  0  0
 26 25  1  0  0  0  0
 26 17  2  0  0  0  0
 27 24  2  0  0  0  0
 29 30  1  0  0  0  0
 30 28  2  0  0  0  0
M  END
>  <MODEL>
5

>  <REMARK>
 VINA RESULT:      -8.4      2.317      5.743
  Name = 
  1 active torsions:
  status: ('A' for Active; 'I' for Inactive)
    1  A    between atoms: C_11  and  C_28
                            x       y       z     vdW  Elec       q    Type
                         _______ _______ _______ _____ _____    ______ ____

>  <TORSDO>
F 1

$$$$
=
 OpenBabel11112416163D

 30 35  0  0  1  0  0  0  0  0999 V2000
  188.1980  175.9120  142.2090 C   0  0  0  0  0  0  0  0  0  0  0  0
  186.6120  176.9920  140.6130 C   0  0  0  0  0  0  0  0  0  0  0  0
  186.6460  178.1670  145.4870 C   0  0  0  0  0  2  0  0  0  0  0  0
  188.7120  175.8150  143.5250 C   0  0  0  0  0  0  0  0  0  0  0  0
  188.8360  175.0630  141.1450 C   0  0  0  0  0  2  0  0  0  0  0  0
  190.8300  172.8700  143.1880 O   0  0  0  0  0  0  0  0  0  0  0  0
  190.9160  176.4300  145.4740 C   0  0  1  0  0  3  0  0  0  0  0  0
  189.9780  173.7620  142.9180 C   0  0  0  0  0  0  0  0  0  0  0  0
  189.8400  177.0950  146.2320 N   0  0  2  0  0  0  0  0  0  0  0  0
  187.4410  177.5090  146.6190 C   0  0  1  0  0  3  0  0  0  0  0  0
  189.1450  173.6620  141.6630 C   0  0  2  0  0  3  0  0  0  0  0  0
  189.7530  174.8580  143.8290 N   0  0  0  0  0  0  0  0  0  0  0  0
  185.5770  177.9020  140.3850 C   0  0  0  0  0  3  0  0  0  0  0  0
  190.1910  176.8500  147.6180 C   0  0  0  0  0  2  0  0  0  0  0  0
  192.1250  176.4160  146.2920 N   0  0  0  0  0  2  0  0  0  0  0  0
  187.0660  176.2770  139.5540 F   0  0  0  0  0  0  0  0  0  0  0  0
  187.1230  177.4810  144.2620 C   0  0  0  0  0  0  0  0  0  0  0  0
  185.0590  178.6660  141.4290 C   0  0  0  0  0  3  0  0  0  0  0  0
  187.1510  176.8340  141.9150 C   0  0  0  0  0  0  0  0  0  0  0  0
  188.1460  176.6130  144.5300 C   0  0  0  0  0  0  0  0  0  0  0  0
  186.5770  176.7600  147.4170 O   0  0  0  0  0  1  0  0  0  0  0  0
  188.4850  176.5750  145.9820 C   0  0  1  0  0  3  0  0  0  0  0  0
  191.6910  176.7020  147.6500 C   0  0  0  0  0  2  0  0  0  0  0  0
  191.0050  174.0290  145.6300 O   0  0  0  0  0  0  0  0  0  0  0  0
  185.5720  178.5260  142.7160 C   0  0  0  0  0  3  0  0  0  0  0  0
  186.6110  177.6240  142.9700 C   0  0  0  0  0  0  0  0  0  0  0  0
  190.5830  175.0340  144.9940 C   0  0  0  0  0  0  0  0  0  0  0  0
  189.8270  172.8890  140.5770 C   0  0  0  0  0  3  0  0  0  0  0  0
  190.6730  172.6310  138.2990 C   0  0  0  0  0  1  0  0  0  0  0  0
  189.9920  173.4160  139.3650 C   0  0  0  0  0  3  0  0  0  0  0  0
  1  4  1  0  0  0  0
  2 19  1  0  0  0  0
  3 10  1  0  0  0  0
  4 12  1  0  0  0  0
  4 20  2  0  0  0  0
  5 11  1  0  0  0  0
  5  1  1  0  0  0  0
  7 27  1  1  0  0  0
  7  9  1  0  0  0  0
  7 15  1  0  0  0  0
  8  6  2  0  0  0  0
  8 12  1  0  0  0  0
  9 14  1  1  0  0  0
 10 21  1  1  0  0  0
 11 28  1  6  0  0  0
 11  8  1  0  0  0  0
 12 27  1  0  0  0  0
 13  2  2  0  0  0  0
 13 18  1  0  0  0  0
 14 23  1  0  0  0  0
 15 23  1  0  0  0  0
 16  2  1  0  0  0  0
 17 20  1  0  0  0  0
 17  3  1  0  0  0  0
 18 25  2  0  0  0  0
 19  1  2  0  0  0  0
 19 26  1  0  0  0  0
 22 20  1  6  0  0  0
 22  9  1  0  0  0  0
 22 10  1  0  0  0  0
 25 26  1  0  0  0  0
 26 17  2  0  0  0  0
 27 24  2  0  0  0  0
 29 30  1  0  0  0  0
 30 28  2  0  0  0  0
M  END
>  <MODEL>
6

>  <REMARK>
 VINA RESULT:      -8.2      2.544      5.800
  Name = 
  1 active torsions:
  status: ('A' for Active; 'I' for Inactive)
    1  A    between atoms: C_11  and  C_28
                            x       y       z     vdW  Elec       q    Type
                         _______ _______ _______ _____ _____    ______ ____

>  <TORSDO>
F 1

$$$$
=
 OpenBabel11112416163D

 30 35  0  0  1  0  0  0  0  0999 V2000
  189.6960  175.3150  144.6740 C   0  0  0  0  0  0  0  0  0  0  0  0
  188.5460  176.0750  146.7540 C   0  0  0  0  0  0  0  0  0  0  0  0
  186.4470  176.6300  142.2350 C   0  0  0  0  0  2  0  0  0  0  0  0
  189.6680  175.1440  143.2690 C   0  0  0  0  0  0  0  0  0  0  0  0
  190.9010  174.8050  145.4160 C   0  0  0  0  0  2  0  0  0  0  0  0
  193.1170  174.1430  142.6580 O   0  0  0  0  0  0  0  0  0  0  0  0
  189.3540  173.3070  140.9100 C   0  0  1  0  0  3  0  0  0  0  0  0
  192.0860  174.5640  143.2530 C   0  0  0  0  0  0  0  0  0  0  0  0
  188.2530  174.2200  140.5510 N   0  0  2  0  0  0  0  0  0  0  0  0
  187.0630  176.3560  140.8590 C   0  0  1  0  0  3  0  0  0  0  0  0
  192.1890  175.1080  144.6580 C   0  0  2  0  0  3  0  0  0  0  0  0
  190.8080  174.5790  142.5820 N   0  0  0  0  0  0  0  0  0  0  0  0
  187.4350  176.6660  147.3600 C   0  0  0  0  0  3  0  0  0  0  0  0
  188.2980  174.2630  139.1020 C   0  0  0  0  0  2  0  0  0  0  0  0
  189.5620  172.3690  139.8110 N   0  0  0  0  0  2  0  0  0  0  0  0
  189.5690  175.6890  147.5560 F   0  0  0  0  0  0  0  0  0  0  0  0
  187.4840  176.1790  143.1930 C   0  0  0  0  0  0  0  0  0  0  0  0
  186.3500  177.0920  146.5950 C   0  0  0  0  0  3  0  0  0  0  0  0
  188.5840  175.8990  145.3480 C   0  0  0  0  0  0  0  0  0  0  0  0
  188.5450  175.5930  142.5580 C   0  0  0  0  0  0  0  0  0  0  0  0
  187.3320  177.5680  140.2230 O   0  0  0  0  0  1  0  0  0  0  0  0
  188.3800  175.5900  141.0760 C   0  0  1  0  0  3  0  0  0  0  0  0
  188.8810  172.9450  138.6610 C   0  0  0  0  0  2  0  0  0  0  0  0
  191.5820  174.0810  140.4260 O   0  0  0  0  0  0  0  0  0  0  0  0
  186.3660  176.9300  145.2120 C   0  0  0  0  0  3  0  0  0  0  0  0
  187.4660  176.3380  144.5820 C   0  0  0  0  0  0  0  0  0  0  0  0
  190.6530  173.9940  141.2750 C   0  0  0  0  0  0  0  0  0  0  0  0
  193.3400  174.5270  145.4190 C   0  0  0  0  0  3  0  0  0  0  0  0
  195.6590  174.5350  146.1890 C   0  0  0  0  0  1  0  0  0  0  0  0
  194.5270  175.1290  145.4260 C   0  0  0  0  0  3  0  0  0  0  0  0
  1 19  1  0  0  0  0
  1  5  1  0  0  0  0
  2 13  1  0  0  0  0
  2 16  1  0  0  0  0
  3 17  1  0  0  0  0
  4  1  2  0  0  0  0
  6  8  2  0  0  0  0
  7 15  1  6  0  0  0
  7 27  1  0  0  0  0
  8 11  1  0  0  0  0
  9 14  1  6  0  0  0
  9  7  1  0  0  0  0
  9 22  1  0  0  0  0
 10 21  1  1  0  0  0
 10 22  1  0  0  0  0
 10  3  1  0  0  0  0
 11  5  1  0  0  0  0
 11 28  1  1  0  0  0
 12  8  1  0  0  0  0
 12  4  1  0  0  0  0
 17 26  1  0  0  0  0
 18 13  2  0  0  0  0
 19  2  2  0  0  0  0
 20 17  2  0  0  0  0
 20  4  1  0  0  0  0
 22 20  1  1  0  0  0
 23 14  1  0  0  0  0
 23 15  1  0  0  0  0
 24 27  2  0  0  0  0
 25 18  1  0  0  0  0
 26 25  2  0  0  0  0
 26 19  1  0  0  0  0
 27 12  1  0  0  0  0
 28 30  2  0  0  0  0
 30 29  1  0  0  0  0
M  END
>  <MODEL>
7

>  <REMARK>
 VINA RESULT:      -7.8      2.127      3.018
  Name = 
  1 active torsions:
  status: ('A' for Active; 'I' for Inactive)
    1  A    between atoms: C_11  and  C_28
                            x       y       z     vdW  Elec       q    Type
                         _______ _______ _______ _____ _____    ______ ____

>  <TORSDO>
F 1

$$$$
=
 OpenBabel11112416163D

 30 35  0  0  1  0  0  0  0  0999 V2000
  189.5000  175.6930  145.1810 C   0  0  0  0  0  0  0  0  0  0  0  0
  187.3850  177.0140  145.2920 C   0  0  0  0  0  0  0  0  0  0  0  0
  188.5210  174.1960  141.3040 C   0  0  0  0  0  2  0  0  0  0  0  0
  190.3190  174.7770  144.4780 C   0  0  0  0  0  0  0  0  0  0  0  0
  189.9600  176.1420  146.5410 C   0  0  0  0  0  2  0  0  0  0  0  0
  193.3360  174.8950  146.5160 O   0  0  0  0  0  0  0  0  0  0  0  0
  191.3630  171.9750  144.1740 C   0  0  1  0  0  3  0  0  0  0  0  0
  192.1930  175.1800  146.0620 C   0  0  0  0  0  0  0  0  0  0  0  0
  190.7830  172.0790  142.8220 N   0  0  2  0  0  0  0  0  0  0  0  0
  189.8230  173.4440  141.0080 C   0  0  1  0  0  3  0  0  0  0  0  0
  191.4620  176.4040  146.5600 C   0  0  2  0  0  3  0  0  0  0  0  0
  191.5940  174.3720  145.0290 N   0  0  0  0  0  0  0  0  0  0  0  0
  186.1850  177.4050  144.6930 C   0  0  0  0  0  3  0  0  0  0  0  0
  191.7040  171.3260  141.9910 C   0  0  0  0  0  2  0  0  0  0  0  0
  192.1230  170.7310  144.2630 N   0  0  0  0  0  2  0  0  0  0  0  0
  187.6750  177.5250  146.5130 F   0  0  0  0  0  0  0  0  0  0  0  0
  188.7220  174.7500  142.6640 C   0  0  0  0  0  0  0  0  0  0  0  0
  185.8270  176.9220  143.4360 C   0  0  0  0  0  3  0  0  0  0  0  0
  188.2570  176.1170  144.6250 C   0  0  0  0  0  0  0  0  0  0  0  0
  189.9000  174.3290  143.2170 C   0  0  0  0  0  0  0  0  0  0  0  0
  190.5170  174.1030  139.9940 O   0  0  0  0  0  1  0  0  0  0  0  0
  190.6710  173.4480  142.2920 C   0  0  1  0  0  3  0  0  0  0  0  0
  192.3300  170.2910  142.8920 C   0  0  0  0  0  2  0  0  0  0  0  0
  193.4780  173.0750  144.5150 O   0  0  0  0  0  0  0  0  0  0  0  0
  186.6690  176.0410  142.7630 C   0  0  0  0  0  3  0  0  0  0  0  0
  187.8750  175.6310  143.3420 C   0  0  0  0  0  0  0  0  0  0  0  0
  192.2200  173.1520  144.5880 C   0  0  0  0  0  0  0  0  0  0  0  0
  191.8630  176.7910  147.9510 C   0  0  0  0  0  3  0  0  0  0  0  0
  191.5660  178.0470  150.0250 C   0  0  0  0  0  1  0  0  0  0  0  0
  191.1510  177.6760  148.6440 C   0  0  0  0  0  3  0  0  0  0  0  0
  1  5  1  0  0  0  0
  2 16  1  0  0  0  0
  3 17  1  0  0  0  0
  4 12  1  0  0  0  0
  4  1  2  0  0  0  0
  5 11  1  0  0  0  0
  7 15  1  6  0  0  0
  7 27  1  0  0  0  0
  8  6  2  0  0  0  0
  8 11  1  0  0  0  0
  9 14  1  6  0  0  0
  9  7  1  0  0  0  0
 10 21  1  6  0  0  0
 10  3  1  0  0  0  0
 10 22  1  0  0  0  0
 11 28  1  1  0  0  0
 12  8  1  0  0  0  0
 13  2  1  0  0  0  0
 14 23  1  0  0  0  0
 17 20  2  0  0  0  0
 17 26  1  0  0  0  0
 18 13  2  0  0  0  0
 19  1  1  0  0  0  0
 19  2  2  0  0  0  0
 20  4  1  0  0  0  0
 22  9  1  0  0  0  0
 22 20  1  1  0  0  0
 23 15  1  0  0  0  0
 24 27  2  0  0  0  0
 25 26  2  0  0  0  0
 25 18  1  0  0  0  0
 26 19  1  0  0  0  0
 27 12  1  0  0  0  0
 28 30  2  0  0  0  0
 30 29  1  0  0  0  0
M  END
>  <MODEL>
8

>  <REMARK>
 VINA RESULT:      -7.7      2.094      3.192
  Name = 
  1 active torsions:
  status: ('A' for Active; 'I' for Inactive)
    1  A    between atoms: C_11  and  C_28
                            x       y       z     vdW  Elec       q    Type
                         _______ _______ _______ _____ _____    ______ ____

>  <TORSDO>
F 1

$$$$
=
 OpenBabel11112416163D

 30 35  0  0  1  0  0  0  0  0999 V2000
  189.1240  175.0260  141.8480 C   0  0  0  0  0  0  0  0  0  0  0  0
  189.1980  173.7350  139.7130 C   0  0  0  0  0  0  0  0  0  0  0  0
  193.0990  173.8400  142.8610 C   0  0  0  0  0  2  0  0  0  0  0  0
  189.7580  175.4040  143.0560 C   0  0  0  0  0  0  0  0  0  0  0  0
  187.7200  175.5110  141.6130 C   0  0  0  0  0  2  0  0  0  0  0  0
  187.4370  177.9460  144.2490 O   0  0  0  0  0  0  0  0  0  0  0  0
  190.0010  175.0930  146.0360 C   0  0  1  0  0  3  0  0  0  0  0  0
  187.9940  177.1020  143.4930 C   0  0  0  0  0  0  0  0  0  0  0  0
  191.4010  174.7510  145.7230 N   0  0  2  0  0  0  0  0  0  0  0  0
  193.2780  174.6830  144.1270 C   0  0  1  0  0  3  0  0  0  0  0  0
  187.5510  176.9600  142.0560 C   0  0  2  0  0  3  0  0  0  0  0  0
  189.0930  176.3010  143.9750 N   0  0  0  0  0  0  0  0  0  0  0  0
  189.9040  172.9030  138.8410 C   0  0  0  0  0  3  0  0  0  0  0  0
  192.1500  175.3040  146.8350 C   0  0  0  0  0  2  0  0  0  0  0  0
  189.8570  175.1970  147.4850 N   0  0  0  0  0  2  0  0  0  0  0  0
  187.9470  174.1100  139.3500 F   0  0  0  0  0  0  0  0  0  0  0  0
  191.7180  174.1420  142.4150 C   0  0  0  0  0  0  0  0  0  0  0  0
  191.1970  172.4830  139.1490 C   0  0  0  0  0  3  0  0  0  0  0  0
  189.7910  174.1660  140.9270 C   0  0  0  0  0  0  0  0  0  0  0  0
  191.0600  174.9460  143.3060 C   0  0  0  0  0  0  0  0  0  0  0  0
  194.2110  175.6910  143.8840 O   0  0  0  0  0  1  0  0  0  0  0  0
  191.9180  175.3190  144.4670 C   0  0  1  0  0  3  0  0  0  0  0  0
  191.2080  175.3090  148.0130 C   0  0  0  0  0  2  0  0  0  0  0  0
  189.4410  177.4350  145.9970 O   0  0  0  0  0  0  0  0  0  0  0  0
  191.7990  172.8940  140.3350 C   0  0  0  0  0  3  0  0  0  0  0  0
  191.1120  173.7260  141.2270 C   0  0  0  0  0  0  0  0  0  0  0  0
  189.4890  176.3470  145.3600 C   0  0  0  0  0  0  0  0  0  0  0  0
  186.1230  177.3620  141.8500 C   0  0  0  0  0  3  0  0  0  0  0  0
  184.3020  178.2910  140.5130 C   0  0  0  0  0  1  0  0  0  0  0  0
  185.7260  177.8990  140.6980 C   0  0  0  0  0  3  0  0  0  0  0  0
  1  4  1  0  0  0  0
  2 19  1  0  0  0  0
  3 10  1  0  0  0  0
  4 20  2  0  0  0  0
  4 12  1  0  0  0  0
  5  1  1  0  0  0  0
  5 11  1  0  0  0  0
  7 27  1  6  0  0  0
  7 15  1  0  0  0  0
  8 12  1  0  0  0  0
  8  6  2  0  0  0  0
  9  7  1  0  0  0  0
  9 14  1  1  0  0  0
 10 21  1  6  0  0  0
 10 22  1  0  0  0  0
 11 28  1  1  0  0  0
 11  8  1  0  0  0  0
 12 27  1  0  0  0  0
 13 18  1  0  0  0  0
 13  2  2  0  0  0  0
 14 23  1  0  0  0  0
 15 23  1  0  0  0  0
 16  2  1  0  0  0  0
 17  3  1  0  0  0  0
 17 20  1  0  0  0  0
 18 25  2  0  0  0  0
 19 26  1  0  0  0  0
 19  1  2  0  0  0  0
 22 20  1  6  0  0  0
 22  9  1  0  0  0  0
 25 26  1  0  0  0  0
 26 17  2  0  0  0  0
 27 24  2  0  0  0  0
 29 30  1  0  0  0  0
 30 28  2  0  0  0  0
M  END
>  <MODEL>
9

>  <REMARK>
 VINA RESULT:      -7.5      3.083      7.153
  Name = 
  1 active torsions:
  status: ('A' for Active; 'I' for Inactive)
    1  A    between atoms: C_11  and  C_28
                            x       y       z     vdW  Elec       q    Type
                         _______ _______ _______ _____ _____    ______ ____

>  <TORSDO>
F 1

$$$$
