=
 OpenBabel11112417423D

 28 32  0  0  1  0  0  0  0  0999 V2000
  190.6850  175.9360  144.0610 C   0  0  0  0  0  0  0  0  0  0  0  0
  188.7130  178.3060  141.3150 O   0  0  0  0  0  0  0  0  0  0  0  0
  186.5480  178.8010  147.7430 O   0  0  0  0  0  0  0  0  0  0  0  0
  189.8490  173.4830  142.9900 C   0  0  0  0  0  3  0  0  0  0  0  0
  185.6430  177.6640  145.8920 N   0  0  0  0  0  0  0  0  0  0  0  0
  191.1620  177.2140  144.6970 C   0  0  0  0  0  2  0  0  0  0  0  0
  187.9760  175.9560  141.1220 O   0  0  0  0  0  0  0  0  0  0  0  0
  187.6360  177.3160  141.6600 S   0  0  0  0  0  0  0  0  0  0  0  0
  184.9480  177.9410  141.8670 C   0  0  0  0  0  0  0  0  0  0  0  0
  187.3420  177.3080  143.4050 C   0  0  1  0  0  3  0  0  0  0  0  0
  190.1680  175.5180  147.5020 O   0  0  0  0  0  0  0  0  0  0  0  0
  187.4210  176.1120  145.5430 C   0  0  2  0  0  3  0  0  0  0  0  0
  184.9260  177.4600  143.0830 N   0  0  0  0  0  0  0  0  0  0  0  0
  186.1100  177.8320  141.0230 N   0  0  0  0  0  2  0  0  0  0  0  0
  190.1940  176.6430  146.9350 C   0  0  0  0  0  0  0  0  0  0  0  0
  189.3070  175.6660  143.9080 C   0  0  0  0  0  0  0  0  0  0  0  0
  186.6250  177.8780  146.8900 C   0  0  0  0  0  0  0  0  0  0  0  0
  183.7550  178.6660  141.3590 C   0  0  0  0  0  1  0  0  0  0  0  0
  189.0210  177.4600  146.9020 N   0  0  0  0  0  2  0  0  0  0  0  0
  188.9000  174.4270  143.3920 C   0  0  0  0  0  3  0  0  0  0  0  0
  191.6280  174.9830  143.6590 C   0  0  0  0  0  3  0  0  0  0  0  0
  191.2110  173.7650  143.1200 C   0  0  0  0  0  3  0  0  0  0  0  0
  191.4240  177.0640  146.2000 C   0  0  0  0  0  2  0  0  0  0  0  0
  185.9590  176.4450  145.1550 C   0  0  2  0  0  3  0  0  0  0  0  0
  187.6920  176.8530  146.8730 C   0  0  2  0  0  3  0  0  0  0  0  0
  186.0180  176.6660  143.6470 C   0  0  2  0  0  3  0  0  0  0  0  0
  184.3100  178.2420  145.9510 C   0  0  0  0  0  1  0  0  0  0  0  0
  188.2950  176.6620  144.3980 C   0  0  1  0  0  3  0  0  0  0  0  0
  1  6  1  0  0  0  0
  2  8  2  0  0  0  0
  4 22  2  0  0  0  0
  4 20  1  0  0  0  0
  5 27  1  0  0  0  0
  5 17  1  0  0  0  0
  6 23  1  0  0  0  0
  7  8  2  0  0  0  0
  9 13  2  0  0  0  0
 10  8  1  6  0  0  0
 10 26  1  0  0  0  0
 10 28  1  0  0  0  0
 12 25  1  0  0  0  0
 13 26  1  0  0  0  0
 14  8  1  0  0  0  0
 14  9  1  0  0  0  0
 15 11  2  0  0  0  0
 16  1  1  0  0  0  0
 16 28  1  0  0  0  0
 17  3  2  0  0  0  0
 18  9  1  0  0  0  0
 19 15  1  0  0  0  0
 20 16  2  0  0  0  0
 21  1  2  0  0  0  0
 22 21  1  0  0  0  0
 23 15  1  0  0  0  0
 24 12  1  0  0  0  0
 24  5  1  0  0  0  0
 25 17  1  0  0  0  0
 25 19  1  0  0  0  0
 26 24  1  0  0  0  0
 28 12  1  0  0  0  0
M  END
>  <MODEL>
1

>  <REMARK>
 VINA RESULT:      -8.4      0.000      0.000
  Name = 
  0 active torsions:
  status: ('A' for Active; 'I' for Inactive)
                            x       y       z     vdW  Elec       q    Type
                         _______ _______ _______ _____ _____    ______ ____

>  <TORSDO>
F 0

$$$$
=
 OpenBabel11112417423D

 28 32  0  0  1  0  0  0  0  0999 V2000
  185.8390  177.1630  144.3920 C   0  0  0  0  0  0  0  0  0  0  0  0
  187.4210  173.9760  142.2990 O   0  0  0  0  0  0  0  0  0  0  0  0
  190.8690  175.8770  147.8430 O   0  0  0  0  0  0  0  0  0  0  0  0
  186.2200  179.0650  142.3670 C   0  0  0  0  0  3  0  0  0  0  0  0
  191.2790  176.2710  145.5590 N   0  0  0  0  0  0  0  0  0  0  0  0
  185.6150  176.2000  145.5260 C   0  0  0  0  0  2  0  0  0  0  0  0
  187.8920  176.1000  141.1310 O   0  0  0  0  0  0  0  0  0  0  0  0
  188.4530  175.0330  142.0260 S   0  0  0  0  0  0  0  0  0  0  0  0
  191.1720  174.5530  141.8450 C   0  0  0  0  0  0  0  0  0  0  0  0
  189.0890  175.6790  143.5460 C   0  0  1  0  0  3  0  0  0  0  0  0
  186.9980  178.8110  147.2590 O   0  0  0  0  0  0  0  0  0  0  0  0
  189.3360  177.5710  145.0840 C   0  0  2  0  0  3  0  0  0  0  0  0
  191.3950  175.4440  142.7750 N   0  0  0  0  0  0  0  0  0  0  0  0
  189.8590  174.3350  141.2940 N   0  0  0  0  0  2  0  0  0  0  0  0
  186.9590  177.5570  147.1470 C   0  0  0  0  0  0  0  0  0  0  0  0
  187.1280  177.3730  143.8540 C   0  0  0  0  0  0  0  0  0  0  0  0
  190.5410  176.4250  146.7580 C   0  0  0  0  0  0  0  0  0  0  0  0
  192.2980  173.7040  141.3760 C   0  0  0  0  0  1  0  0  0  0  0  0
  188.1690  176.7950  147.1480 N   0  0  0  0  0  2  0  0  0  0  0  0
  187.3110  178.3420  142.8580 C   0  0  0  0  0  3  0  0  0  0  0  0
  184.7530  177.8950  143.8970 C   0  0  0  0  0  3  0  0  0  0  0  0
  184.9430  178.8370  142.8840 C   0  0  0  0  0  3  0  0  0  0  0  0
  185.6480  176.8840  146.8970 C   0  0  0  0  0  2  0  0  0  0  0  0
  190.7140  177.1340  144.5280 C   0  0  2  0  0  3  0  0  0  0  0  0
  189.4060  177.3620  146.6150 C   0  0  2  0  0  3  0  0  0  0  0  0
  190.3730  176.3780  143.2480 C   0  0  2  0  0  3  0  0  0  0  0  0
  192.6430  175.7670  145.5250 C   0  0  0  0  0  1  0  0  0  0  0  0
  188.3020  176.6330  144.4300 C   0  0  1  0  0  3  0  0  0  0  0  0
  1  6  1  0  0  0  0
  4 20  2  0  0  0  0
  4 22  1  0  0  0  0
  5 17  1  0  0  0  0
  6 23  1  0  0  0  0
  7  8  2  0  0  0  0
  8  2  2  0  0  0  0
  9 13  2  0  0  0  0
 10  8  1  6  0  0  0
 10 28  1  0  0  0  0
 12 25  1  0  0  0  0
 13 26  1  0  0  0  0
 14  9  1  0  0  0  0
 14  8  1  0  0  0  0
 15 19  1  0  0  0  0
 15 11  2  0  0  0  0
 16  1  2  0  0  0  0
 16 28  1  0  0  0  0
 17  3  2  0  0  0  0
 18  9  1  0  0  0  0
 20 16  1  0  0  0  0
 21  1  1  0  0  0  0
 22 21  2  0  0  0  0
 23 15  1  0  0  0  0
 24 12  1  0  0  0  0
 24  5  1  0  0  0  0
 25 17  1  0  0  0  0
 25 19  1  0  0  0  0
 26 10  1  0  0  0  0
 26 24  1  0  0  0  0
 27  5  1  0  0  0  0
 28 12  1  0  0  0  0
M  END
>  <MODEL>
2

>  <REMARK>
 VINA RESULT:      -8.3      1.951      5.264
  Name = 
  0 active torsions:
  status: ('A' for Active; 'I' for Inactive)
                            x       y       z     vdW  Elec       q    Type
                         _______ _______ _______ _____ _____    ______ ____

>  <TORSDO>
F 0

$$$$
=
 OpenBabel11112417423D

 28 32  0  0  1  0  0  0  0  0999 V2000
  192.5680  174.1300  145.2220 C   0  0  0  0  0  0  0  0  0  0  0  0
  189.0610  174.2280  147.3990 O   0  0  0  0  0  0  0  0  0  0  0  0
  188.3440  174.1750  140.6360 O   0  0  0  0  0  0  0  0  0  0  0  0
  193.4910  176.6500  146.0350 C   0  0  0  0  0  3  0  0  0  0  0  0
  188.1690  175.9310  142.1940 N   0  0  0  0  0  0  0  0  0  0  0  0
  192.1300  172.7760  144.7340 C   0  0  0  0  0  2  0  0  0  0  0  0
  190.1370  176.4510  147.3870 O   0  0  0  0  0  0  0  0  0  0  0  0
  189.0540  175.6010  146.7880 S   0  0  0  0  0  0  0  0  0  0  0  0
  186.7780  176.9120  145.9160 C   0  0  0  0  0  0  0  0  0  0  0  0
  189.1630  175.4930  145.0250 C   0  0  1  0  0  3  0  0  0  0  0  0
  193.1060  174.1660  141.7590 O   0  0  0  0  0  0  0  0  0  0  0  0
  190.4260  175.9240  142.9690 C   0  0  2  0  0  3  0  0  0  0  0  0
  187.3110  177.0570  144.7310 N   0  0  0  0  0  0  0  0  0  0  0  0
  187.5160  176.3630  147.0250 N   0  0  0  0  0  2  0  0  0  0  0  0
  192.2450  173.4380  142.3210 C   0  0  0  0  0  0  0  0  0  0  0  0
  191.7640  175.2740  145.0230 C   0  0  0  0  0  0  0  0  0  0  0  0
  188.8850  174.9420  141.4760 C   0  0  0  0  0  0  0  0  0  0  0  0
  185.3510  177.2770  146.1130 C   0  0  0  0  0  1  0  0  0  0  0  0
  190.8530  173.6390  142.0640 N   0  0  0  0  0  2  0  0  0  0  0  0
  192.2450  176.5330  145.4130 C   0  0  0  0  0  3  0  0  0  0  0  0
  193.8160  174.2590  145.8420 C   0  0  0  0  0  3  0  0  0  0  0  0
  194.2720  175.5130  146.2530 C   0  0  0  0  0  3  0  0  0  0  0  0
  192.6830  172.4420  143.3440 C   0  0  0  0  0  2  0  0  0  0  0  0
  189.1040  176.7300  142.9790 C   0  0  2  0  0  3  0  0  0  0  0  0
  190.3380  174.9700  141.7540 C   0  0  2  0  0  3  0  0  0  0  0  0
  188.7240  176.8000  144.4550 C   0  0  2  0  0  3  0  0  0  0  0  0
  186.8480  176.3940  141.8050 C   0  0  0  0  0  1  0  0  0  0  0  0
  190.4530  175.1450  144.3000 C   0  0  1  0  0  3  0  0  0  0  0  0
  1 21  1  0  0  0  0
  3 17  2  0  0  0  0
  4 22  1  0  0  0  0
  5 24  1  0  0  0  0
  6  1  1  0  0  0  0
  8 14  1  0  0  0  0
  8  7  2  0  0  0  0
  8  2  2  0  0  0  0
  9 18  1  0  0  0  0
  9 14  1  0  0  0  0
 10  8  1  1  0  0  0
 11 15  2  0  0  0  0
 12 24  1  0  0  0  0
 12 28  1  0  0  0  0
 13  9  2  0  0  0  0
 15 23  1  0  0  0  0
 16  1  2  0  0  0  0
 16 20  1  0  0  0  0
 17 25  1  0  0  0  0
 17  5  1  0  0  0  0
 19 15  1  0  0  0  0
 20  4  2  0  0  0  0
 21 22  2  0  0  0  0
 23  6  1  0  0  0  0
 24 26  1  0  0  0  0
 25 19  1  0  0  0  0
 25 12  1  0  0  0  0
 26 13  1  0  0  0  0
 26 10  1  0  0  0  0
 27  5  1  0  0  0  0
 28 16  1  0  0  0  0
 28 10  1  0  0  0  0
M  END
>  <MODEL>
3

>  <REMARK>
 VINA RESULT:      -8.0      2.605      5.203
  Name = 
  0 active torsions:
  status: ('A' for Active; 'I' for Inactive)
                            x       y       z     vdW  Elec       q    Type
                         _______ _______ _______ _____ _____    ______ ____

>  <TORSDO>
F 0

$$$$
=
 OpenBabel11112417423D

 28 32  0  0  1  0  0  0  0  0999 V2000
  190.8540  174.9710  142.1900 C   0  0  0  0  0  0  0  0  0  0  0  0
  188.7780  178.4390  141.3490 O   0  0  0  0  0  0  0  0  0  0  0  0
  190.4630  177.5090  147.8710 O   0  0  0  0  0  0  0  0  0  0  0  0
  188.7800  173.2110  141.5100 C   0  0  0  0  0  3  0  0  0  0  0  0
  188.4150  177.2140  146.7480 N   0  0  0  0  0  0  0  0  0  0  0  0
  192.0070  175.8550  142.5840 C   0  0  0  0  0  2  0  0  0  0  0  0
  187.2570  176.4920  141.3400 O   0  0  0  0  0  0  0  0  0  0  0  0
  187.7460  177.6730  142.1280 S   0  0  0  0  0  0  0  0  0  0  0  0
  185.9550  178.8210  143.8980 C   0  0  0  0  0  0  0  0  0  0  0  0
  188.3840  177.2200  143.7160 C   0  0  1  0  0  3  0  0  0  0  0  0
  192.0170  173.6900  145.2380 O   0  0  0  0  0  0  0  0  0  0  0  0
  189.0850  175.4630  145.2730 C   0  0  2  0  0  3  0  0  0  0  0  0
  186.3730  178.0220  144.8450 N   0  0  0  0  0  0  0  0  0  0  0  0
  186.4100  178.6970  142.5370 N   0  0  0  0  0  2  0  0  0  0  0  0
  192.1580  174.8930  144.8910 C   0  0  0  0  0  0  0  0  0  0  0  0
  189.5950  175.0890  142.8180 C   0  0  0  0  0  0  0  0  0  0  0  0
  189.7650  176.8880  147.0270 C   0  0  0  0  0  0  0  0  0  0  0  0
  185.0210  179.9230  144.2460 C   0  0  0  0  0  1  0  0  0  0  0  0
  191.5100  175.9350  145.6250 N   0  0  0  0  0  2  0  0  0  0  0  0
  188.5710  174.1900  142.4870 C   0  0  0  0  0  3  0  0  0  0  0  0
  191.0550  173.9860  141.2170 C   0  0  0  0  0  3  0  0  0  0  0  0
  190.0190  173.1140  140.8740 C   0  0  0  0  0  3  0  0  0  0  0  0
  192.9100  175.2110  143.6410 C   0  0  0  0  0  2  0  0  0  0  0  0
  187.8590  176.2290  145.8280 C   0  0  2  0  0  3  0  0  0  0  0  0
  190.2300  175.6940  146.2880 C   0  0  2  0  0  3  0  0  0  0  0  0
  187.2310  176.8640  144.5920 C   0  0  2  0  0  3  0  0  0  0  0  0
  187.6020  178.0450  147.6220 C   0  0  0  0  0  1  0  0  0  0  0  0
  189.4000  176.1050  143.9080 C   0  0  1  0  0  3  0  0  0  0  0  0
  1  6  1  0  0  0  0
  1 16  1  0  0  0  0
  2  8  2  0  0  0  0
  4 20  1  0  0  0  0
  5 17  1  0  0  0  0
  5 27  1  0  0  0  0
  6 23  1  0  0  0  0
  7  8  2  0  0  0  0
  8 14  1  0  0  0  0
  9 18  1  0  0  0  0
  9 13  2  0  0  0  0
 10  8  1  6  0  0  0
 10 28  1  0  0  0  0
 10 26  1  0  0  0  0
 12 24  1  0  0  0  0
 12 25  1  0  0  0  0
 14  9  1  0  0  0  0
 15 11  2  0  0  0  0
 15 19  1  0  0  0  0
 16 28  1  0  0  0  0
 17  3  2  0  0  0  0
 19 25  1  0  0  0  0
 20 16  2  0  0  0  0
 21  1  2  0  0  0  0
 22 21  1  0  0  0  0
 22  4  2  0  0  0  0
 23 15  1  0  0  0  0
 24  5  1  0  0  0  0
 25 17  1  0  0  0  0
 26 13  1  0  0  0  0
 26 24  1  0  0  0  0
 28 12  1  0  0  0  0
M  END
>  <MODEL>
4

>  <REMARK>
 VINA RESULT:      -8.0      1.722      2.502
  Name = 
  0 active torsions:
  status: ('A' for Active; 'I' for Inactive)
                            x       y       z     vdW  Elec       q    Type
                         _______ _______ _______ _____ _____    ______ ____

>  <TORSDO>
F 0

$$$$
=
 OpenBabel11112417423D

 28 32  0  0  1  0  0  0  0  0999 V2000
  189.7970  175.1140  146.5670 C   0  0  0  0  0  0  0  0  0  0  0  0
  185.8090  176.0410  147.0940 O   0  0  0  0  0  0  0  0  0  0  0  0
  187.8180  175.1770  140.6550 O   0  0  0  0  0  0  0  0  0  0  0  0
  190.7970  177.5500  147.5290 C   0  0  0  0  0  3  0  0  0  0  0  0
  187.3890  177.1350  141.8900 N   0  0  0  0  0  0  0  0  0  0  0  0
  189.3320  173.7890  146.0270 C   0  0  0  0  0  2  0  0  0  0  0  0
  187.2130  178.0510  147.3890 O   0  0  0  0  0  0  0  0  0  0  0  0
  186.3100  177.3030  146.4510 S   0  0  0  0  0  0  0  0  0  0  0  0
  184.8640  178.8140  144.6390 C   0  0  0  0  0  0  0  0  0  0  0  0
  187.0820  176.9400  144.9010 C   0  0  1  0  0  3  0  0  0  0  0  0
  191.6520  174.5950  143.6390 O   0  0  0  0  0  0  0  0  0  0  0  0
  189.1090  176.8890  143.5250 C   0  0  2  0  0  3  0  0  0  0  0  0
  185.8380  178.7140  143.7730 N   0  0  0  0  0  0  0  0  0  0  0  0
  184.9840  178.3150  145.9850 N   0  0  0  0  0  2  0  0  0  0  0  0
  190.5150  174.0900  143.8400 C   0  0  0  0  0  0  0  0  0  0  0  0
  189.3770  176.3290  145.9830 C   0  0  0  0  0  0  0  0  0  0  0  0
  188.1230  175.9600  141.5930 C   0  0  0  0  0  0  0  0  0  0  0  0
  183.5760  179.4160  144.2080 C   0  0  0  0  0  1  0  0  0  0  0  0
  189.4050  174.4640  143.0200 N   0  0  0  0  0  2  0  0  0  0  0  0
  189.9000  177.5410  146.4580 C   0  0  0  0  0  3  0  0  0  0  0  0
  190.6990  175.1340  147.6370 C   0  0  0  0  0  3  0  0  0  0  0  0
  191.1910  176.3480  148.1200 C   0  0  0  0  0  3  0  0  0  0  0  0
  190.3120  173.1880  145.0130 C   0  0  0  0  0  2  0  0  0  0  0  0
  188.0750  177.8810  142.9390 C   0  0  2  0  0  3  0  0  0  0  0  0
  189.3230  175.8040  142.4430 C   0  0  2  0  0  3  0  0  0  0  0  0
  187.1660  178.2080  144.1200 C   0  0  2  0  0  3  0  0  0  0  0  0
  186.4450  177.7370  140.9630 C   0  0  0  0  0  1  0  0  0  0  0  0
  188.4580  176.3040  144.7940 C   0  0  1  0  0  3  0  0  0  0  0  0
  1 21  1  0  0  0  0
  3 17  2  0  0  0  0
  4 22  1  0  0  0  0
  5 24  1  0  0  0  0
  6  1  1  0  0  0  0
  8  2  2  0  0  0  0
  8  7  2  0  0  0  0
  9 14  1  0  0  0  0
 10  8  1  1  0  0  0
 11 15  2  0  0  0  0
 12 28  1  0  0  0  0
 13 26  1  0  0  0  0
 13  9  2  0  0  0  0
 14  8  1  0  0  0  0
 15 23  1  0  0  0  0
 16 20  1  0  0  0  0
 16  1  2  0  0  0  0
 17  5  1  0  0  0  0
 17 25  1  0  0  0  0
 18  9  1  0  0  0  0
 19 15  1  0  0  0  0
 20  4  2  0  0  0  0
 21 22  2  0  0  0  0
 23  6  1  0  0  0  0
 24 12  1  0  0  0  0
 24 26  1  0  0  0  0
 25 19  1  0  0  0  0
 25 12  1  0  0  0  0
 26 10  1  0  0  0  0
 27  5  1  0  0  0  0
 28 10  1  0  0  0  0
 28 16  1  0  0  0  0
M  END
>  <MODEL>
5

>  <REMARK>
 VINA RESULT:      -8.0      2.182      4.516
  Name = 
  0 active torsions:
  status: ('A' for Active; 'I' for Inactive)
                            x       y       z     vdW  Elec       q    Type
                         _______ _______ _______ _____ _____    ______ ____

>  <TORSDO>
F 0

$$$$
=
 OpenBabel11112417423D

 28 32  0  0  1  0  0  0  0  0999 V2000
  188.8820  176.9230  144.7410 C   0  0  0  0  0  0  0  0  0  0  0  0
  192.9660  176.7890  145.3330 O   0  0  0  0  0  0  0  0  0  0  0  0
  190.6100  173.1040  140.1250 O   0  0  0  0  0  0  0  0  0  0  0  0
  188.1930  175.6660  147.1510 C   0  0  0  0  0  3  0  0  0  0  0  0
  191.2980  172.4640  142.2830 N   0  0  0  0  0  0  0  0  0  0  0  0
  189.1780  177.5910  143.4260 C   0  0  0  0  0  2  0  0  0  0  0  0
  191.8010  175.3920  147.0040 O   0  0  0  0  0  0  0  0  0  0  0  0
  192.5780  175.3900  145.7190 S   0  0  0  0  0  0  0  0  0  0  0  0
  194.1020  173.1420  145.1870 C   0  0  0  0  0  0  0  0  0  0  0  0
  191.7080  174.6030  144.3940 C   0  0  1  0  0  3  0  0  0  0  0  0
  186.8620  175.2910  142.3880 O   0  0  0  0  0  0  0  0  0  0  0  0
  189.6310  173.6280  143.5320 C   0  0  2  0  0  3  0  0  0  0  0  0
  193.0880  172.5960  144.5690 N   0  0  0  0  0  0  0  0  0  0  0  0
  193.9850  174.3940  145.8900 N   0  0  0  0  0  2  0  0  0  0  0  0
  187.9450  175.8650  142.0950 C   0  0  0  0  0  0  0  0  0  0  0  0
  189.4070  175.6480  145.0480 C   0  0  0  0  0  0  0  0  0  0  0  0
  190.4300  173.1140  141.3720 C   0  0  0  0  0  0  0  0  0  0  0  0
  195.4290  172.4760  145.1210 C   0  0  0  0  0  1  0  0  0  0  0  0
  189.0540  175.1060  141.6060 N   0  0  0  0  0  2  0  0  0  0  0  0
  189.0380  175.0190  146.2450 C   0  0  0  0  0  3  0  0  0  0  0  0
  188.0330  177.5600  145.6530 C   0  0  0  0  0  3  0  0  0  0  0  0
  187.6950  176.9370  146.8560 C   0  0  0  0  0  3  0  0  0  0  0  0
  188.0980  177.3240  142.3720 C   0  0  0  0  0  2  0  0  0  0  0  0
  190.7420  172.5530  143.6280 C   0  0  2  0  0  3  0  0  0  0  0  0
  189.2560  173.7230  142.0340 C   0  0  2  0  0  3  0  0  0  0  0  0
  191.7280  173.1320  144.6380 C   0  0  2  0  0  3  0  0  0  0  0  0
  192.2630  171.4540  141.8790 C   0  0  0  0  0  1  0  0  0  0  0  0
  190.2670  174.9370  144.0420 C   0  0  1  0  0  3  0  0  0  0  0  0
  1 16  2  0  0  0  0
  1 21  1  0  0  0  0
  2  8  2  0  0  0  0
  3 17  2  0  0  0  0
  5 24  1  0  0  0  0
  6  1  1  0  0  0  0
  8 14  1  0  0  0  0
  8  7  2  0  0  0  0
  9 14  1  0  0  0  0
 10 26  1  0  0  0  0
 10  8  1  1  0  0  0
 12 24  1  0  0  0  0
 12 28  1  0  0  0  0
 13 26  1  0  0  0  0
 13  9  2  0  0  0  0
 15 23  1  0  0  0  0
 15 11  2  0  0  0  0
 16 20  1  0  0  0  0
 17 25  1  0  0  0  0
 17  5  1  0  0  0  0
 18  9  1  0  0  0  0
 19 25  1  0  0  0  0
 19 15  1  0  0  0  0
 20  4  2  0  0  0  0
 21 22  2  0  0  0  0
 22  4  1  0  0  0  0
 23  6  1  0  0  0  0
 24 26  1  0  0  0  0
 25 12  1  0  0  0  0
 27  5  1  0  0  0  0
 28 10  1  0  0  0  0
 28 16  1  0  0  0  0
M  END
>  <MODEL>
6

>  <REMARK>
 VINA RESULT:      -7.8      3.298      7.076
  Name = 
  0 active torsions:
  status: ('A' for Active; 'I' for Inactive)
                            x       y       z     vdW  Elec       q    Type
                         _______ _______ _______ _____ _____    ______ ____

>  <TORSDO>
F 0

$$$$
=
 OpenBabel11112417423D

 28 32  0  0  1  0  0  0  0  0999 V2000
  188.9230  175.6870  145.6480 C   0  0  0  0  0  0  0  0  0  0  0  0
  189.5260  173.0070  142.5660 O   0  0  0  0  0  0  0  0  0  0  0  0
  195.0760  174.7750  146.0760 O   0  0  0  0  0  0  0  0  0  0  0  0
  188.1320  177.8320  144.0240 C   0  0  0  0  0  3  0  0  0  0  0  0
  194.2970  175.4690  143.9650 N   0  0  0  0  0  0  0  0  0  0  0  0
  189.3500  174.5850  146.5790 C   0  0  0  0  0  2  0  0  0  0  0  0
  189.2120  175.2910  141.6800 O   0  0  0  0  0  0  0  0  0  0  0  0
  190.2140  174.2250  142.0200 S   0  0  0  0  0  0  0  0  0  0  0  0
  192.5320  174.1660  140.5100 C   0  0  0  0  0  0  0  0  0  0  0  0
  191.4570  174.7880  143.1470 C   0  0  1  0  0  3  0  0  0  0  0  0
  191.1990  177.1660  147.8640 O   0  0  0  0  0  0  0  0  0  0  0  0
  192.2760  176.5190  144.6770 C   0  0  2  0  0  3  0  0  0  0  0  0
  193.1110  174.9740  141.3590 N   0  0  0  0  0  0  0  0  0  0  0  0
  191.1370  173.8210  140.6110 N   0  0  0  0  0  2  0  0  0  0  0  0
  191.2040  175.9390  147.5790 C   0  0  0  0  0  0  0  0  0  0  0  0
  189.7700  176.1370  144.6120 C   0  0  0  0  0  0  0  0  0  0  0  0
  194.2230  175.3850  145.3770 C   0  0  0  0  0  0  0  0  0  0  0  0
  193.3500  173.5440  139.4360 C   0  0  0  0  0  1  0  0  0  0  0  0
  192.3160  175.3640  146.8880 N   0  0  0  0  0  2  0  0  0  0  0  0
  189.3750  177.2250  143.8200 C   0  0  0  0  0  3  0  0  0  0  0  0
  187.6820  176.3030  145.8470 C   0  0  0  0  0  3  0  0  0  0  0  0
  187.2860  177.3670  145.0330 C   0  0  0  0  0  3  0  0  0  0  0  0
  189.9920  175.1150  147.8660 C   0  0  0  0  0  2  0  0  0  0  0  0
  193.2400  176.3480  143.4770 C   0  0  2  0  0  3  0  0  0  0  0  0
  193.0940  176.1580  145.9390 C   0  0  2  0  0  3  0  0  0  0  0  0
  192.3790  175.6940  142.4010 C   0  0  2  0  0  3  0  0  0  0  0  0
  195.5060  175.1740  143.2140 C   0  0  0  0  0  1  0  0  0  0  0  0
  191.1280  175.5170  144.4390 C   0  0  1  0  0  3  0  0  0  0  0  0
  1 21  1  0  0  0  0
  1  6  1  0  0  0  0
  4 22  1  0  0  0  0
  5 17  1  0  0  0  0
  6 23  1  0  0  0  0
  7  8  2  0  0  0  0
  8  2  2  0  0  0  0
  9 14  1  0  0  0  0
  9 13  2  0  0  0  0
 10  8  1  6  0  0  0
 10 28  1  0  0  0  0
 12 25  1  0  0  0  0
 13 26  1  0  0  0  0
 14  8  1  0  0  0  0
 15 11  2  0  0  0  0
 15 23  1  0  0  0  0
 16  1  2  0  0  0  0
 17 25  1  0  0  0  0
 17  3  2  0  0  0  0
 18  9  1  0  0  0  0
 19 15  1  0  0  0  0
 20  4  2  0  0  0  0
 20 16  1  0  0  0  0
 22 21  2  0  0  0  0
 24  5  1  0  0  0  0
 24 12  1  0  0  0  0
 25 19  1  0  0  0  0
 26 10  1  0  0  0  0
 26 24  1  0  0  0  0
 27  5  1  0  0  0  0
 28 16  1  0  0  0  0
 28 12  1  0  0  0  0
M  END
>  <MODEL>
7

>  <REMARK>
 VINA RESULT:      -7.7      3.319      6.175
  Name = 
  0 active torsions:
  status: ('A' for Active; 'I' for Inactive)
                            x       y       z     vdW  Elec       q    Type
                         _______ _______ _______ _____ _____    ______ ____

>  <TORSDO>
F 0

$$$$
=
 OpenBabel11112417423D

 28 32  0  0  1  0  0  0  0  0999 V2000
  189.0690  176.8500  144.6330 C   0  0  0  0  0  0  0  0  0  0  0  0
  193.1130  176.5220  143.8720 O   0  0  0  0  0  0  0  0  0  0  0  0
  188.9890  174.1180  139.0290 O   0  0  0  0  0  0  0  0  0  0  0  0
  189.0380  175.1030  146.8260 C   0  0  0  0  0  3  0  0  0  0  0  0
  190.2420  173.0060  140.6830 N   0  0  0  0  0  0  0  0  0  0  0  0
  189.0080  177.7880  143.4570 C   0  0  0  0  0  2  0  0  0  0  0  0
  192.3960  174.8110  145.5010 O   0  0  0  0  0  0  0  0  0  0  0  0
  192.7440  175.0790  144.0650 S   0  0  0  0  0  0  0  0  0  0  0  0
  193.8400  172.9800  142.6330 C   0  0  0  0  0  0  0  0  0  0  0  0
  191.4500  174.6190  142.9490 C   0  0  1  0  0  3  0  0  0  0  0  0
  186.3010  175.8110  142.7510 O   0  0  0  0  0  0  0  0  0  0  0  0
  189.1360  173.8920  142.6020 C   0  0  2  0  0  3  0  0  0  0  0  0
  192.6440  172.6010  142.2670 N   0  0  0  0  0  0  0  0  0  0  0  0
  194.0480  174.0480  143.5780 N   0  0  0  0  0  2  0  0  0  0  0  0
  187.2890  176.4180  142.2570 C   0  0  0  0  0  0  0  0  0  0  0  0
  189.5530  175.5310  144.4910 C   0  0  0  0  0  0  0  0  0  0  0  0
  189.1970  173.8550  140.2430 C   0  0  0  0  0  0  0  0  0  0  0  0
  195.0240  172.3240  142.0190 C   0  0  0  0  0  1  0  0  0  0  0  0
  188.1290  175.7680  141.3000 N   0  0  0  0  0  2  0  0  0  0  0  0
  189.5120  174.6590  145.5880 C   0  0  0  0  0  3  0  0  0  0  0  0
  188.5930  177.2850  145.8750 C   0  0  0  0  0  3  0  0  0  0  0  0
  188.5840  176.4160  146.9690 C   0  0  0  0  0  3  0  0  0  0  0  0
  187.6410  177.7780  142.7650 C   0  0  0  0  0  2  0  0  0  0  0  0
  190.1280  172.8050  142.1230 C   0  0  2  0  0  3  0  0  0  0  0  0
  188.3340  174.3220  141.3500 C   0  0  2  0  0  3  0  0  0  0  0  0
  191.4200  173.1300  142.8670 C   0  0  2  0  0  3  0  0  0  0  0  0
  190.9500  172.0940  139.7980 C   0  0  0  0  0  1  0  0  0  0  0  0
  190.0040  175.0460  143.1430 C   0  0  1  0  0  3  0  0  0  0  0  0
  1 21  1  0  0  0  0
  2  8  2  0  0  0  0
  3 17  2  0  0  0  0
  4 22  1  0  0  0  0
  5 24  1  0  0  0  0
  6  1  1  0  0  0  0
  8  7  2  0  0  0  0
  9 14  1  0  0  0  0
 10 28  1  0  0  0  0
 10  8  1  1  0  0  0
 12 28  1  0  0  0  0
 13  9  2  0  0  0  0
 13 26  1  0  0  0  0
 14  8  1  0  0  0  0
 15 11  2  0  0  0  0
 15 23  1  0  0  0  0
 16  1  2  0  0  0  0
 16 20  1  0  0  0  0
 17  5  1  0  0  0  0
 17 25  1  0  0  0  0
 18  9  1  0  0  0  0
 19 25  1  0  0  0  0
 19 15  1  0  0  0  0
 20  4  2  0  0  0  0
 21 22  2  0  0  0  0
 23  6  1  0  0  0  0
 24 12  1  0  0  0  0
 24 26  1  0  0  0  0
 25 12  1  0  0  0  0
 26 10  1  0  0  0  0
 27  5  1  0  0  0  0
 28 16  1  0  0  0  0
M  END
>  <MODEL>
8

>  <REMARK>
 VINA RESULT:      -7.5      3.338      6.775
  Name = 
  0 active torsions:
  status: ('A' for Active; 'I' for Inactive)
                            x       y       z     vdW  Elec       q    Type
                         _______ _______ _______ _____ _____    ______ ____

>  <TORSDO>
F 0

$$$$
=
 OpenBabel11112417423D

 28 32  0  0  1  0  0  0  0  0999 V2000
  189.4340  175.9750  144.4100 C   0  0  0  0  0  0  0  0  0  0  0  0
  193.3270  177.1560  145.1140 O   0  0  0  0  0  0  0  0  0  0  0  0
  192.5430  172.0190  140.7270 O   0  0  0  0  0  0  0  0  0  0  0  0
  188.9290  175.0570  147.0100 C   0  0  0  0  0  3  0  0  0  0  0  0
  193.2020  172.0330  142.9870 N   0  0  0  0  0  0  0  0  0  0  0  0
  189.6390  176.4370  142.9920 C   0  0  0  0  0  2  0  0  0  0  0  0
  192.4670  175.8270  147.0100 O   0  0  0  0  0  0  0  0  0  0  0  0
  193.3180  175.8060  145.7720 S   0  0  0  0  0  0  0  0  0  0  0  0
  195.4510  174.0440  145.7540 C   0  0  0  0  0  0  0  0  0  0  0  0
  192.8170  174.5610  144.6180 C   0  0  1  0  0  3  0  0  0  0  0  0
  188.1580  173.4060  142.3970 O   0  0  0  0  0  0  0  0  0  0  0  0
  191.1770  172.8760  143.9270 C   0  0  2  0  0  3  0  0  0  0  0  0
  194.6860  173.1170  145.2380 N   0  0  0  0  0  0  0  0  0  0  0  0
  194.9290  175.3170  146.1790 N   0  0  0  0  0  2  0  0  0  0  0  0
  189.0560  174.2040  142.0180 C   0  0  0  0  0  0  0  0  0  0  0  0
  190.2690  174.9930  144.9860 C   0  0  0  0  0  0  0  0  0  0  0  0
  192.2650  172.2150  141.9400 C   0  0  0  0  0  0  0  0  0  0  0  0
  196.9120  173.7950  145.8590 C   0  0  0  0  0  1  0  0  0  0  0  0
  190.3700  173.7240  141.7240 N   0  0  0  0  0  2  0  0  0  0  0  0
  189.9940  174.5250  146.2790 C   0  0  0  0  0  3  0  0  0  0  0  0
  188.3680  176.4990  145.1490 C   0  0  0  0  0  3  0  0  0  0  0  0
  188.1200  176.0470  146.4460 C   0  0  0  0  0  3  0  0  0  0  0  0
  188.7680  175.6700  141.9900 C   0  0  0  0  0  2  0  0  0  0  0  0
  192.5330  172.2120  144.2710 C   0  0  2  0  0  3  0  0  0  0  0  0
  190.9160  172.5690  142.4330 C   0  0  2  0  0  3  0  0  0  0  0  0
  193.2300  173.2350  145.1620 C   0  0  2  0  0  3  0  0  0  0  0  0
  194.4420  171.2910  142.8240 C   0  0  0  0  0  1  0  0  0  0  0  0
  191.3750  174.3850  144.1700 C   0  0  1  0  0  3  0  0  0  0  0  0
  1 16  2  0  0  0  0
  1 21  1  0  0  0  0
  2  8  2  0  0  0  0
  3 17  2  0  0  0  0
  5 24  1  0  0  0  0
  6  1  1  0  0  0  0
  8 14  1  0  0  0  0
  8  7  2  0  0  0  0
  9 18  1  0  0  0  0
  9 14  1  0  0  0  0
 10 26  1  0  0  0  0
 10  8  1  1  0  0  0
 12 28  1  0  0  0  0
 12 24  1  0  0  0  0
 13  9  2  0  0  0  0
 15 11  2  0  0  0  0
 16 20  1  0  0  0  0
 17 25  1  0  0  0  0
 17  5  1  0  0  0  0
 19 15  1  0  0  0  0
 19 25  1  0  0  0  0
 20  4  2  0  0  0  0
 21 22  2  0  0  0  0
 22  4  1  0  0  0  0
 23 15  1  0  0  0  0
 23  6  1  0  0  0  0
 24 26  1  0  0  0  0
 25 12  1  0  0  0  0
 26 13  1  0  0  0  0
 27  5  1  0  0  0  0
 28 10  1  0  0  0  0
 28 16  1  0  0  0  0
M  END
>  <MODEL>
9

>  <REMARK>
 VINA RESULT:      -7.4      3.947      7.748
  Name = 
  0 active torsions:
  status: ('A' for Active; 'I' for Inactive)
                            x       y       z     vdW  Elec       q    Type
                         _______ _______ _______ _____ _____    ______ ____

>  <TORSDO>
F 0

$$$$
