=
 OpenBabel11112416283D

 32 37  0  0  1  0  0  0  0  0999 V2000
  188.5750  175.7070  143.1880 C   0  0  1  0  0  3  0  0  0  0  0  0
  191.7700  175.3590  146.7960 C   0  0  0  0  0  3  0  0  0  0  0  0
  191.0630  176.4160  147.5460 C   0  0  0  0  0  3  0  0  0  0  0  0
  186.5060  176.9750  143.5620 C   0  0  0  0  0  0  0  0  0  0  0  0
  185.7730  177.7480  144.4530 C   0  0  0  0  0  0  0  0  0  0  0  0
  189.0460  174.5500  140.9980 C   0  0  0  0  0  2  0  0  0  0  0  0
  190.8200  174.6520  142.6900 C   0  0  0  0  0  2  0  0  0  0  0  0
  185.2620  178.9410  146.3540 C   0  0  1  0  0  3  0  0  0  0  0  0
  191.4940  175.1300  145.5070 C   0  0  0  0  0  3  0  0  0  0  0  0
  189.9050  175.3230  143.6210 N   0  0  1  0  0  0  0  0  0  0  0  0
  190.5370  176.0170  144.7450 C   0  0  1  0  0  3  0  0  0  0  0  0
  188.3090  177.0020  145.2270 C   0  0  0  0  0  0  0  0  0  0  0  0
  184.1100  179.0260  145.4270 N   0  0  0  0  0  0  0  0  0  0  0  0
  190.0810  173.7280  141.7360 C   0  0  2  0  0  3  0  0  0  0  0  0
  184.4840  178.2860  144.2830 N   0  0  0  0  0  0  0  0  0  0  0  0
  189.9980  177.0300  147.0210 C   0  0  0  0  0  3  0  0  0  0  0  0
  189.5360  176.6730  145.6610 C   0  0  2  0  0  3  0  0  0  0  0  0
  187.5060  177.7550  146.0430 N   0  0  0  0  0  0  0  0  0  0  0  0
  187.9860  175.0090  141.9830 C   0  0  0  0  0  2  0  0  0  0  0  0
  185.9410  176.6690  142.3270 O   0  0  0  0  0  1  0  0  0  0  0  0
  184.8270  178.2650  147.6400 C   0  0  0  0  0  1  0  0  0  0  0  0
  187.8180  176.5490  143.9520 C   0  0  0  0  0  0  0  0  0  0  0  0
  186.2600  178.1000  145.6490 C   0  0  0  0  0  0  0  0  0  0  0  0
  191.1430  171.5930  140.7870 C   0  0  2  0  0  3  0  0  0  0  0  0
  191.0700  173.1240  140.7440 C   0  0  1  0  0  3  0  0  0  0  0  0
  190.3270  172.2930  139.7170 C   0  0  1  0  0  3  0  0  0  0  0  0
  191.0640  172.2960  138.4780 N   0  0  0  0  0  0  0  0  0  0  0  0
  190.6830  172.9490  137.4350 C   0  0  0  0  0  0  0  0  0  0  0  0
  189.4290  173.7680  137.4190 C   0  0  0  0  0  1  0  0  0  0  0  0
  191.5130  172.8910  136.1990 C   0  0  0  0  0  1  0  0  0  0  0  0
  190.2830  171.0410  141.7400 O   0  0  0  0  0  0  0  0  0  0  0  0
  190.7340  169.7320  141.9040 C   0  0  0  0  0  1  0  0  0  0  0  0
  1 19  1  1  0  0  0
  1 10  1  0  0  0  0
  1 22  1  0  0  0  0
  2  3  1  0  0  0  0
  4 22  2  0  0  0  0
  4  5  1  0  0  0  0
  5 23  2  0  0  0  0
  6 19  1  0  0  0  0
  8 21  1  1  0  0  0
  9  2  2  0  0  0  0
 10  7  1  6  0  0  0
 10 11  1  0  0  0  0
 11  9  1  1  0  0  0
 11 17  1  0  0  0  0
 12 17  1  0  0  0  0
 12 18  2  0  0  0  0
 13  8  1  0  0  0  0
 14  6  1  6  0  0  0
 14  7  1  0  0  0  0
 15  5  1  0  0  0  0
 15 13  2  0  0  0  0
 16  3  2  0  0  0  0
 17 16  1  6  0  0  0
 20  4  1  0  0  0  0
 22 12  1  0  0  0  0
 23 18  1  0  0  0  0
 23  8  1  0  0  0  0
 24 31  1  1  0  0  0
 25 24  1  0  0  0  0
 25 14  1  1  0  0  0
 26 27  1  6  0  0  0
 26 25  1  0  0  0  0
 26 24  1  0  0  0  0
 28 27  2  0  0  0  0
 29 28  1  0  0  0  0
 30 28  1  0  0  0  0
 31 32  1  0  0  0  0
M  END
>  <MODEL>
1

>  <REMARK>
 VINA RESULT:      -8.0      0.000      0.000
  Name = 
  3 active torsions:
  status: ('A' for Active; 'I' for Inactive)
    1  A    between atoms: C_1  and  O_16
    2  A    between atoms: C_10  and  C_17
    3  A    between atoms: C_20  and  N_29
                            x       y       z     vdW  Elec       q    Type
                         _______ _______ _______ _____ _____    ______ ____

>  <TORSDO>
F 3

$$$$
=
 OpenBabel11112416283D

 32 37  0  0  1  0  0  0  0  0999 V2000
  187.6550  177.0570  143.6220 C   0  0  1  0  0  3  0  0  0  0  0  0
  185.9480  177.8230  148.0770 C   0  0  0  0  0  3  0  0  0  0  0  0
  184.7600  178.5020  147.5230 C   0  0  0  0  0  3  0  0  0  0  0  0
  186.1630  177.4250  141.7080 C   0  0  0  0  0  0  0  0  0  0  0  0
  184.9020  177.8260  141.2900 C   0  0  0  0  0  0  0  0  0  0  0  0
  190.0250  176.2460  143.3240 C   0  0  0  0  0  2  0  0  0  0  0  0
  189.2870  176.9560  145.5540 C   0  0  0  0  0  2  0  0  0  0  0  0
  182.7610  178.6650  141.4050 C   0  0  1  0  0  3  0  0  0  0  0  0
  187.0070  177.5530  147.3050 C   0  0  0  0  0  3  0  0  0  0  0  0
  187.9320  177.1930  145.0400 N   0  0  1  0  0  0  0  0  0  0  0  0
  187.0730  178.0340  145.8740 C   0  0  1  0  0  3  0  0  0  0  0  0
  185.4780  178.0770  143.9720 C   0  0  0  0  0  0  0  0  0  0  0  0
  183.0570  178.3380  139.9910 N   0  0  0  0  0  0  0  0  0  0  0  0
  190.0000  175.8550  144.7870 C   0  0  2  0  0  3  0  0  0  0  0  0
  184.3790  177.8380  139.9840 N   0  0  0  0  0  0  0  0  0  0  0  0
  184.6300  178.6820  146.2050 C   0  0  0  0  0  3  0  0  0  0  0  0
  185.6980  178.2260  145.2880 C   0  0  2  0  0  3  0  0  0  0  0  0
  184.2560  178.4370  143.4680 N   0  0  0  0  0  0  0  0  0  0  0  0
  188.6050  176.2300  142.7850 C   0  0  0  0  0  2  0  0  0  0  0  0
  187.0660  176.9710  140.7500 O   0  0  0  0  0  1  0  0  0  0  0  0
  181.5900  177.8280  141.8840 C   0  0  0  0  0  1  0  0  0  0  0  0
  186.4790  177.5170  143.1020 C   0  0  0  0  0  0  0  0  0  0  0  0
  183.9890  178.2950  142.1500 C   0  0  0  0  0  0  0  0  0  0  0  0
  191.8940  174.2580  145.4540 C   0  0  2  0  0  3  0  0  0  0  0  0
  191.4250  175.7100  145.3100 C   0  0  1  0  0  3  0  0  0  0  0  0
  192.3030  175.0810  144.2470 C   0  0  1  0  0  3  0  0  0  0  0  0
  193.6600  175.5390  144.4170 N   0  0  0  0  0  0  0  0  0  0  0  0
  194.3850  175.9690  143.4430 C   0  0  0  0  0  0  0  0  0  0  0  0
  193.8750  176.0300  142.0360 C   0  0  0  0  0  1  0  0  0  0  0  0
  195.7760  176.4210  143.7180 C   0  0  0  0  0  1  0  0  0  0  0  0
  190.9130  173.3370  145.0760 O   0  0  0  0  0  0  0  0  0  0  0  0
  191.5980  172.3790  144.3300 C   0  0  0  0  0  1  0  0  0  0  0  0
  1 19  1  1  0  0  0
  1 10  1  0  0  0  0
  3  2  1  0  0  0  0
  4 22  1  0  0  0  0
  5  4  2  0  0  0  0
  5 23  1  0  0  0  0
  8 21  1  1  0  0  0
  8 23  1  0  0  0  0
  9  2  2  0  0  0  0
 10  7  1  6  0  0  0
 10 11  1  0  0  0  0
 11  9  1  1  0  0  0
 12 17  1  0  0  0  0
 13  8  1  0  0  0  0
 14  6  1  6  0  0  0
 14  7  1  0  0  0  0
 15 13  2  0  0  0  0
 15  5  1  0  0  0  0
 16  3  2  0  0  0  0
 17 11  1  0  0  0  0
 17 16  1  6  0  0  0
 18 12  1  0  0  0  0
 19  6  1  0  0  0  0
 20  4  1  0  0  0  0
 22  1  1  0  0  0  0
 22 12  2  0  0  0  0
 23 18  2  0  0  0  0
 24 31  1  6  0  0  0
 25 14  1  6  0  0  0
 25 24  1  0  0  0  0
 26 27  1  1  0  0  0
 26 25  1  0  0  0  0
 26 24  1  0  0  0  0
 28 30  1  0  0  0  0
 28 27  2  0  0  0  0
 29 28  1  0  0  0  0
 32 31  1  0  0  0  0
M  END
>  <MODEL>
2

>  <REMARK>
 VINA RESULT:      -7.7      3.138      4.975
  Name = 
  3 active torsions:
  status: ('A' for Active; 'I' for Inactive)
    1  A    between atoms: C_1  and  O_16
    2  A    between atoms: C_10  and  C_17
    3  A    between atoms: C_20  and  N_29
                            x       y       z     vdW  Elec       q    Type
                         _______ _______ _______ _____ _____    ______ ____

>  <TORSDO>
F 3

$$$$
=
 OpenBabel11112416283D

 32 37  0  0  1  0  0  0  0  0999 V2000
  186.6730  177.5990  142.9330 C   0  0  1  0  0  3  0  0  0  0  0  0
  185.7780  177.9420  147.6680 C   0  0  0  0  0  3  0  0  0  0  0  0
  184.4570  178.5420  147.3920 C   0  0  0  0  0  3  0  0  0  0  0  0
  184.8240  177.9420  141.3550 C   0  0  0  0  0  0  0  0  0  0  0  0
  183.4790  178.2510  141.2050 C   0  0  0  0  0  0  0  0  0  0  0  0
  189.0010  177.0260  142.1490 C   0  0  0  0  0  2  0  0  0  0  0  0
  188.6410  177.5330  144.5230 C   0  0  0  0  0  2  0  0  0  0  0  0
  181.3390  178.8830  141.7700 C   0  0  1  0  0  3  0  0  0  0  0  0
  186.6910  177.8160  146.6990 C   0  0  0  0  0  3  0  0  0  0  0  0
  187.1990  177.6760  144.2830 N   0  0  1  0  0  0  0  0  0  0  0  0
  186.4490  178.3850  145.3200 C   0  0  1  0  0  3  0  0  0  0  0  0
  184.5270  178.3940  143.7480 C   0  0  0  0  0  0  0  0  0  0  0  0
  181.3890  178.6680  140.3060 N   0  0  0  0  0  0  0  0  0  0  0  0
  189.2810  176.5480  143.5590 C   0  0  2  0  0  3  0  0  0  0  0  0
  182.7210  178.2920  140.0210 N   0  0  0  0  0  0  0  0  0  0  0  0
  184.0680  178.7870  146.1370 C   0  0  0  0  0  3  0  0  0  0  0  0
  184.9780  178.4850  145.0100 C   0  0  2  0  0  3  0  0  0  0  0  0
  183.2070  178.6710  143.5030 N   0  0  0  0  0  0  0  0  0  0  0  0
  187.5110  176.9130  141.8770 C   0  0  0  0  0  2  0  0  0  0  0  0
  185.5640  177.6290  140.2180 O   0  0  0  0  0  1  0  0  0  0  0  0
  180.3470  177.9160  142.3900 C   0  0  0  0  0  1  0  0  0  0  0  0
  185.3880  177.9810  142.6720 C   0  0  0  0  0  0  0  0  0  0  0  0
  182.7100  178.5830  142.2490 C   0  0  0  0  0  0  0  0  0  0  0  0
  191.3280  175.1040  144.1150 C   0  0  2  0  0  3  0  0  0  0  0  0
  190.7870  176.5040  143.8010 C   0  0  1  0  0  3  0  0  0  0  0  0
  191.4590  175.6830  142.7190 C   0  0  1  0  0  3  0  0  0  0  0  0
  192.8050  176.1630  142.5240 N   0  0  0  0  0  0  0  0  0  0  0  0
  193.6200  175.6450  141.6710 C   0  0  0  0  0  0  0  0  0  0  0  0
  193.2360  174.4880  140.8010 C   0  0  0  0  0  1  0  0  0  0  0  0
  194.9910  176.2110  141.5430 C   0  0  0  0  0  1  0  0  0  0  0  0
  190.3260  174.1290  144.1200 O   0  0  0  0  0  0  0  0  0  0  0  0
  190.9440  172.9920  144.6370 C   0  0  0  0  0  1  0  0  0  0  0  0
  1 19  1  1  0  0  0
  1 10  1  0  0  0  0
  3  2  1  0  0  0  0
  4 22  1  0  0  0  0
  5  4  2  0  0  0  0
  5 23  1  0  0  0  0
  8 23  1  0  0  0  0
  8 21  1  1  0  0  0
  9  2  2  0  0  0  0
 10  7  1  6  0  0  0
 10 11  1  0  0  0  0
 11  9  1  1  0  0  0
 12 17  1  0  0  0  0
 13  8  1  0  0  0  0
 14  6  1  6  0  0  0
 14  7  1  0  0  0  0
 15 13  2  0  0  0  0
 15  5  1  0  0  0  0
 16  3  2  0  0  0  0
 17 11  1  0  0  0  0
 17 16  1  6  0  0  0
 18 12  1  0  0  0  0
 19  6  1  0  0  0  0
 20  4  1  0  0  0  0
 22  1  1  0  0  0  0
 22 12  2  0  0  0  0
 23 18  2  0  0  0  0
 24 31  1  6  0  0  0
 25 14  1  6  0  0  0
 25 24  1  0  0  0  0
 26 27  1  1  0  0  0
 26 25  1  0  0  0  0
 26 24  1  0  0  0  0
 28 27  2  0  0  0  0
 29 28  1  0  0  0  0
 30 28  1  0  0  0  0
 31 32  1  0  0  0  0
M  END
>  <MODEL>
3

>  <REMARK>
 VINA RESULT:      -7.6      2.873      4.883
  Name = 
  3 active torsions:
  status: ('A' for Active; 'I' for Inactive)
    1  A    between atoms: C_1  and  O_16
    2  A    between atoms: C_10  and  C_17
    3  A    between atoms: C_20  and  N_29
                            x       y       z     vdW  Elec       q    Type
                         _______ _______ _______ _____ _____    ______ ____

>  <TORSDO>
F 3

$$$$
=
 OpenBabel11112416283D

 32 37  0  0  1  0  0  0  0  0999 V2000
  189.0120  175.6540  143.3870 C   0  0  1  0  0  3  0  0  0  0  0  0
  191.9610  175.8410  147.2090 C   0  0  0  0  0  3  0  0  0  0  0  0
  191.1470  176.9190  147.8050 C   0  0  0  0  0  3  0  0  0  0  0  0
  186.8560  176.8240  143.5010 C   0  0  0  0  0  0  0  0  0  0  0  0
  186.0220  177.6300  144.2630 C   0  0  0  0  0  0  0  0  0  0  0  0
  189.6970  174.3270  141.3550 C   0  0  0  0  0  2  0  0  0  0  0  0
  191.3410  174.6950  143.1400 C   0  0  0  0  0  2  0  0  0  0  0  0
  185.3160  178.9640  146.0010 C   0  0  1  0  0  3  0  0  0  0  0  0
  191.7890  175.4760  145.9340 C   0  0  0  0  0  3  0  0  0  0  0  0
  190.3280  175.3940  143.9400 N   0  0  1  0  0  0  0  0  0  0  0  0
  190.8410  176.2270  145.0280 C   0  0  1  0  0  3  0  0  0  0  0  0
  188.5340  177.1160  145.2680 C   0  0  0  0  0  0  0  0  0  0  0  0
  184.2280  178.8920  144.9980 N   0  0  0  0  0  0  0  0  0  0  0  0
  190.7210  173.6420  142.2360 C   0  0  2  0  0  3  0  0  0  0  0  0
  184.7210  178.0710  143.9590 N   0  0  0  0  0  0  0  0  0  0  0  0
  190.0900  177.4150  147.1550 C   0  0  0  0  0  3  0  0  0  0  0  0
  189.7440  176.9050  145.8100 C   0  0  2  0  0  3  0  0  0  0  0  0
  187.6370  177.8920  145.9530 N   0  0  0  0  0  0  0  0  0  0  0  0
  188.5470  174.8110  142.2210 C   0  0  0  0  0  2  0  0  0  0  0  0
  186.3960  176.3690  142.2680 O   0  0  0  0  0  1  0  0  0  0  0  0
  184.8290  178.3870  147.3170 C   0  0  0  0  0  1  0  0  0  0  0  0
  188.1580  176.5170  144.0140 C   0  0  0  0  0  0  0  0  0  0  0  0
  186.4050  178.1230  145.4470 C   0  0  0  0  0  0  0  0  0  0  0  0
  192.2180  171.6000  141.8170 C   0  0  2  0  0  3  0  0  0  0  0  0
  191.8080  173.0090  141.3720 C   0  0  1  0  0  3  0  0  0  0  0  0
  191.2560  171.7900  140.6600 C   0  0  1  0  0  3  0  0  0  0  0  0
  191.9610  171.6060  139.4160 N   0  0  0  0  0  0  0  0  0  0  0  0
  191.4700  170.9520  138.4200 C   0  0  0  0  0  0  0  0  0  0  0  0
  190.1130  170.3200  138.4700 C   0  0  0  0  0  1  0  0  0  0  0  0
  192.2760  170.8150  137.1750 C   0  0  0  0  0  1  0  0  0  0  0  0
  191.5110  171.1640  142.9420 O   0  0  0  0  0  0  0  0  0  0  0  0
  192.3850  170.2930  143.5900 C   0  0  0  0  0  1  0  0  0  0  0  0
  1 19  1  1  0  0  0
  1 10  1  0  0  0  0
  1 22  1  0  0  0  0
  2  3  1  0  0  0  0
  4 22  2  0  0  0  0
  4  5  1  0  0  0  0
  5 23  2  0  0  0  0
  6 19  1  0  0  0  0
  8 21  1  1  0  0  0
  9  2  2  0  0  0  0
 10  7  1  6  0  0  0
 10 11  1  0  0  0  0
 11 17  1  0  0  0  0
 11  9  1  1  0  0  0
 12 17  1  0  0  0  0
 12 18  2  0  0  0  0
 13  8  1  0  0  0  0
 14  6  1  6  0  0  0
 14  7  1  0  0  0  0
 15  5  1  0  0  0  0
 15 13  2  0  0  0  0
 16  3  2  0  0  0  0
 17 16  1  6  0  0  0
 20  4  1  0  0  0  0
 22 12  1  0  0  0  0
 23 18  1  0  0  0  0
 23  8  1  0  0  0  0
 24 31  1  1  0  0  0
 25 24  1  0  0  0  0
 25 14  1  1  0  0  0
 26 27  1  6  0  0  0
 26 25  1  0  0  0  0
 26 24  1  0  0  0  0
 28 29  1  0  0  0  0
 28 27  2  0  0  0  0
 30 28  1  0  0  0  0
 31 32  1  0  0  0  0
M  END
>  <MODEL>
4

>  <REMARK>
 VINA RESULT:      -7.4      1.176      1.211
  Name = 
  3 active torsions:
  status: ('A' for Active; 'I' for Inactive)
    1  A    between atoms: C_1  and  O_16
    2  A    between atoms: C_10  and  C_17
    3  A    between atoms: C_20  and  N_29
                            x       y       z     vdW  Elec       q    Type
                         _______ _______ _______ _____ _____    ______ ____

>  <TORSDO>
F 3

$$$$
=
 OpenBabel11112416283D

 32 37  0  0  1  0  0  0  0  0999 V2000
  189.7450  174.3830  143.4930 C   0  0  1  0  0  3  0  0  0  0  0  0
  193.2620  176.5770  145.9740 C   0  0  0  0  0  3  0  0  0  0  0  0
  193.9710  175.2920  146.1380 C   0  0  0  0  0  3  0  0  0  0  0  0
  190.1100  172.0840  142.7110 C   0  0  0  0  0  0  0  0  0  0  0  0
  190.9760  171.0000  142.6840 C   0  0  0  0  0  0  0  0  0  0  0  0
  187.6120  175.6330  142.9940 C   0  0  0  0  0  2  0  0  0  0  0  0
  189.2370  176.6310  144.5390 C   0  0  0  0  0  2  0  0  0  0  0  0
  192.8190  169.7040  143.1560 C   0  0  1  0  0  3  0  0  0  0  0  0
  191.9980  176.6130  145.5370 C   0  0  0  0  0  3  0  0  0  0  0  0
  190.1570  175.5090  144.3100 N   0  0  1  0  0  0  0  0  0  0  0  0
  191.2160  175.3410  145.3050 C   0  0  1  0  0  3  0  0  0  0  0  0
  191.7110  173.1590  144.2280 C   0  0  0  0  0  0  0  0  0  0  0  0
  191.9260  168.9340  142.2600 N   0  0  0  0  0  0  0  0  0  0  0  0
  188.3640  176.9050  143.3250 C   0  0  2  0  0  3  0  0  0  0  0  0
  190.8170  169.7740  142.0130 N   0  0  0  0  0  0  0  0  0  0  0  0
  193.4450  174.1580  145.6660 C   0  0  0  0  0  3  0  0  0  0  0  0
  192.1240  174.1770  145.0000 C   0  0  2  0  0  3  0  0  0  0  0  0
  192.5070  172.0480  144.1300 N   0  0  0  0  0  0  0  0  0  0  0  0
  188.6030  174.5830  142.5220 C   0  0  0  0  0  2  0  0  0  0  0  0
  188.9140  171.9960  142.0030 O   0  0  0  0  0  1  0  0  0  0  0  0
  194.1560  169.9210  142.4740 C   0  0  0  0  0  1  0  0  0  0  0  0
  190.4820  173.2320  143.4830 C   0  0  0  0  0  0  0  0  0  0  0  0
  192.1330  171.0040  143.3570 C   0  0  0  0  0  0  0  0  0  0  0  0
  186.6910  178.6270  142.4200 C   0  0  2  0  0  3  0  0  0  0  0  0
  187.3780  178.0220  143.6500 C   0  0  1  0  0  3  0  0  0  0  0  0
  185.9740  177.5960  143.2710 C   0  0  1  0  0  3  0  0  0  0  0  0
  185.0260  178.2610  144.1300 N   0  0  0  0  0  0  0  0  0  0  0  0
  184.8260  177.9170  145.3550 C   0  0  0  0  0  0  0  0  0  0  0  0
  185.5670  176.7850  145.9980 C   0  0  0  0  0  1  0  0  0  0  0  0
  183.8240  178.6660  146.1650 C   0  0  0  0  0  1  0  0  0  0  0  0
  187.1090  178.0330  141.2250 O   0  0  0  0  0  0  0  0  0  0  0  0
  185.9460  177.9160  140.4650 C   0  0  0  0  0  1  0  0  0  0  0  0
  1 19  1  6  0  0  0
  1 10  1  0  0  0  0
  2  3  1  0  0  0  0
  4 22  1  0  0  0  0
  5  4  2  0  0  0  0
  5 23  1  0  0  0  0
  8 21  1  6  0  0  0
  8 23  1  0  0  0  0
  9  2  2  0  0  0  0
 10  7  1  1  0  0  0
 10 11  1  0  0  0  0
 11  9  1  6  0  0  0
 12 17  1  0  0  0  0
 13  8  1  0  0  0  0
 14  6  1  1  0  0  0
 14  7  1  0  0  0  0
 15 13  2  0  0  0  0
 15  5  1  0  0  0  0
 16  3  2  0  0  0  0
 17 11  1  0  0  0  0
 17 16  1  1  0  0  0
 18 12  1  0  0  0  0
 19  6  1  0  0  0  0
 20  4  1  0  0  0  0
 22  1  1  0  0  0  0
 22 12  2  0  0  0  0
 23 18  2  0  0  0  0
 24 31  1  6  0  0  0
 24 26  1  0  0  0  0
 24 25  1  0  0  0  0
 25 14  1  6  0  0  0
 26 25  1  0  0  0  0
 26 27  1  1  0  0  0
 27 28  2  0  0  0  0
 28 29  1  0  0  0  0
 28 30  1  0  0  0  0
 32 31  1  0  0  0  0
M  END
>  <MODEL>
5

>  <REMARK>
 VINA RESULT:      -7.4      2.508      7.714
  Name = 
  3 active torsions:
  status: ('A' for Active; 'I' for Inactive)
    1  A    between atoms: C_1  and  O_16
    2  A    between atoms: C_10  and  C_17
    3  A    between atoms: C_20  and  N_29
                            x       y       z     vdW  Elec       q    Type
                         _______ _______ _______ _____ _____    ______ ____

>  <TORSDO>
F 3

$$$$
=
 OpenBabel11112416283D

 32 37  0  0  1  0  0  0  0  0999 V2000
  190.9010  175.7420  145.1070 C   0  0  1  0  0  3  0  0  0  0  0  0
  189.3460  174.3820  140.7400 C   0  0  0  0  0  3  0  0  0  0  0  0
  187.9550  174.7060  141.1150 C   0  0  0  0  0  3  0  0  0  0  0  0
  189.3680  176.9780  146.5730 C   0  0  0  0  0  0  0  0  0  0  0  0
  188.0910  177.5000  146.7280 C   0  0  0  0  0  0  0  0  0  0  0  0
  193.2670  175.2130  145.8010 C   0  0  0  0  0  2  0  0  0  0  0  0
  192.3890  174.2230  143.7350 C   0  0  0  0  0  2  0  0  0  0  0  0
  185.8810  177.9550  146.2720 C   0  0  1  0  0  3  0  0  0  0  0  0
  190.3100  174.3170  141.6640 C   0  0  0  0  0  3  0  0  0  0  0  0
  191.1280  174.9560  143.9090 N   0  0  1  0  0  0  0  0  0  0  0  0
  189.9910  174.4580  143.1350 C   0  0  1  0  0  3  0  0  0  0  0  0
  188.5680  175.9900  144.4740 C   0  0  0  0  0  0  0  0  0  0  0  0
  186.2270  178.5810  147.5690 N   0  0  0  0  0  0  0  0  0  0  0  0
  193.5670  174.9700  144.3370 C   0  0  2  0  0  3  0  0  0  0  0  0
  187.5850  178.2620  147.7970 N   0  0  0  0  0  0  0  0  0  0  0  0
  187.6640  175.1370  142.3470 C   0  0  0  0  0  3  0  0  0  0  0  0
  188.7370  175.2630  143.3580 C   0  0  2  0  0  3  0  0  0  0  0  0
  187.3420  176.5560  144.7080 N   0  0  0  0  0  0  0  0  0  0  0  0
  192.1030  176.1820  145.9120 C   0  0  0  0  0  2  0  0  0  0  0  0
  190.3050  177.2050  147.5780 O   0  0  0  0  0  1  0  0  0  0  0  0
  185.4640  179.0310  145.2870 C   0  0  0  0  0  1  0  0  0  0  0  0
  189.6510  176.2130  145.3960 C   0  0  0  0  0  0  0  0  0  0  0  0
  187.1330  177.3030  145.8150 C   0  0  0  0  0  0  0  0  0  0  0  0
  196.1210  174.9450  144.0880 C   0  0  2  0  0  3  0  0  0  0  0  0
  194.8300  174.1260  144.1990 C   0  0  1  0  0  3  0  0  0  0  0  0
  195.7180  174.3240  145.4110 C   0  0  1  0  0  3  0  0  0  0  0  0
  196.4930  173.1290  145.6350 N   0  0  0  0  0  0  0  0  0  0  0  0
  195.9620  171.9650  145.7890 C   0  0  0  0  0  0  0  0  0  0  0  0
  194.4800  171.7520  145.7520 C   0  0  0  0  0  1  0  0  0  0  0  0
  196.8460  170.7880  146.0150 C   0  0  0  0  0  1  0  0  0  0  0  0
  195.8880  176.3230  144.1320 O   0  0  0  0  0  0  0  0  0  0  0  0
  196.8570  176.8710  143.2930 C   0  0  0  0  0  1  0  0  0  0  0  0
  1 22  1  0  0  0  0
  1 19  1  6  0  0  0
  2  3  1  0  0  0  0
  2  9  2  0  0  0  0
  3 16  2  0  0  0  0
  4  5  1  0  0  0  0
  4 20  1  0  0  0  0
  5 15  1  0  0  0  0
  6 19  1  0  0  0  0
  8 21  1  6  0  0  0
  8 13  1  0  0  0  0
 10  7  1  1  0  0  0
 10  1  1  0  0  0  0
 11  9  1  6  0  0  0
 11 17  1  0  0  0  0
 11 10  1  0  0  0  0
 12 18  2  0  0  0  0
 12 22  1  0  0  0  0
 13 15  2  0  0  0  0
 14  7  1  1  0  0  0
 14  6  1  0  0  0  0
 17 16  1  1  0  0  0
 17 12  1  0  0  0  0
 18 23  1  0  0  0  0
 22  4  2  0  0  0  0
 23  8  1  0  0  0  0
 23  5  2  0  0  0  0
 24 31  1  1  0  0  0
 24 25  1  0  0  0  0
 24 26  1  0  0  0  0
 25 14  1  1  0  0  0
 25 26  1  0  0  0  0
 26 27  1  6  0  0  0
 27 28  2  0  0  0  0
 28 30  1  0  0  0  0
 29 28  1  0  0  0  0
 32 31  1  0  0  0  0
M  END
>  <MODEL>
6

>  <REMARK>
 VINA RESULT:      -7.1      3.503      5.856
  Name = 
  3 active torsions:
  status: ('A' for Active; 'I' for Inactive)
    1  A    between atoms: C_1  and  O_16
    2  A    between atoms: C_10  and  C_17
    3  A    between atoms: C_20  and  N_29
                            x       y       z     vdW  Elec       q    Type
                         _______ _______ _______ _____ _____    ______ ____

>  <TORSDO>
F 3

$$$$
=
 OpenBabel11112416283D

 32 37  0  0  1  0  0  0  0  0999 V2000
  188.3340  175.9720  143.3830 C   0  0  1  0  0  3  0  0  0  0  0  0
  186.7790  176.5580  147.9200 C   0  0  0  0  0  3  0  0  0  0  0  0
  185.7350  177.4950  147.4590 C   0  0  0  0  0  3  0  0  0  0  0  0
  186.9390  176.8020  141.5410 C   0  0  0  0  0  0  0  0  0  0  0  0
  185.7730  177.4660  141.1880 C   0  0  0  0  0  0  0  0  0  0  0  0
  190.5190  174.7840  142.9650 C   0  0  0  0  0  2  0  0  0  0  0  0
  189.9140  175.3760  145.2680 C   0  0  0  0  0  2  0  0  0  0  0  0
  183.8180  178.6590  141.4240 C   0  0  1  0  0  3  0  0  0  0  0  0
  187.7740  176.1850  147.1080 C   0  0  0  0  0  3  0  0  0  0  0  0
  188.6260  175.9060  144.8030 N   0  0  1  0  0  0  0  0  0  0  0  0
  187.9300  176.7950  145.7340 C   0  0  1  0  0  3  0  0  0  0  0  0
  186.3750  177.3240  143.8720 C   0  0  0  0  0  0  0  0  0  0  0  0
  184.0550  178.4350  139.9790 N   0  0  0  0  0  0  0  0  0  0  0  0
  190.4190  174.2510  144.3790 C   0  0  2  0  0  3  0  0  0  0  0  0
  185.2640  177.7090  139.8990 N   0  0  0  0  0  0  0  0  0  0  0  0
  185.6430  177.8330  146.1690 C   0  0  0  0  0  3  0  0  0  0  0  0
  186.6150  177.2920  145.1930 C   0  0  2  0  0  3  0  0  0  0  0  0
  185.2400  177.9500  143.4270 N   0  0  0  0  0  0  0  0  0  0  0  0
  189.1210  175.0800  142.4490 C   0  0  0  0  0  2  0  0  0  0  0  0
  187.7480  176.2970  140.5270 O   0  0  0  0  0  1  0  0  0  0  0  0
  182.5130  178.0010  141.8310 C   0  0  0  0  0  1  0  0  0  0  0  0
  187.2620  176.6890  142.9330 C   0  0  0  0  0  0  0  0  0  0  0  0
  184.9570  177.9980  142.1070 C   0  0  0  0  0  0  0  0  0  0  0  0
  192.1340  172.3470  144.5030 C   0  0  2  0  0  3  0  0  0  0  0  0
  191.7930  173.7980  144.8610 C   0  0  1  0  0  3  0  0  0  0  0  0
  192.6820  173.4930  143.6720 C   0  0  1  0  0  3  0  0  0  0  0  0
  194.0580  173.7300  144.0330 N   0  0  0  0  0  0  0  0  0  0  0  0
  194.7030  174.7890  143.6840 C   0  0  0  0  0  0  0  0  0  0  0  0
  194.0740  175.8750  142.8660 C   0  0  0  0  0  1  0  0  0  0  0  0
  196.1230  174.9450  144.1050 C   0  0  0  0  0  1  0  0  0  0  0  0
  191.1070  171.7120  143.7980 O   0  0  0  0  0  0  0  0  0  0  0  0
  191.7550  170.7470  143.0270 C   0  0  0  0  0  1  0  0  0  0  0  0
  1 19  1  1  0  0  0
  1 10  1  0  0  0  0
  3  2  1  0  0  0  0
  4 22  1  0  0  0  0
  5  4  2  0  0  0  0
  5 23  1  0  0  0  0
  8 21  1  1  0  0  0
  8 23  1  0  0  0  0
  9  2  2  0  0  0  0
 10  7  1  6  0  0  0
 10 11  1  0  0  0  0
 11  9  1  1  0  0  0
 12 17  1  0  0  0  0
 13  8  1  0  0  0  0
 14  6  1  6  0  0  0
 14  7  1  0  0  0  0
 15 13  2  0  0  0  0
 15  5  1  0  0  0  0
 16  3  2  0  0  0  0
 17 11  1  0  0  0  0
 17 16  1  6  0  0  0
 18 12  1  0  0  0  0
 19  6  1  0  0  0  0
 20  4  1  0  0  0  0
 22  1  1  0  0  0  0
 22 12  2  0  0  0  0
 23 18  2  0  0  0  0
 24 31  1  6  0  0  0
 24 25  1  0  0  0  0
 25 14  1  6  0  0  0
 26 27  1  1  0  0  0
 26 24  1  0  0  0  0
 26 25  1  0  0  0  0
 28 27  2  0  0  0  0
 28 30  1  0  0  0  0
 29 28  1  0  0  0  0
 32 31  1  0  0  0  0
M  END
>  <MODEL>
7

>  <REMARK>
 VINA RESULT:      -7.0      2.798      4.397
  Name = 
  3 active torsions:
  status: ('A' for Active; 'I' for Inactive)
    1  A    between atoms: C_1  and  O_16
    2  A    between atoms: C_10  and  C_17
    3  A    between atoms: C_20  and  N_29
                            x       y       z     vdW  Elec       q    Type
                         _______ _______ _______ _____ _____    ______ ____

>  <TORSDO>
F 3

$$$$
=
 OpenBabel11112416283D

 32 37  0  0  1  0  0  0  0  0999 V2000
  189.2210  175.3810  143.1440 C   0  0  1  0  0  3  0  0  0  0  0  0
  190.4540  176.9020  147.5610 C   0  0  0  0  0  3  0  0  0  0  0  0
  191.7050  176.1200  147.4990 C   0  0  0  0  0  3  0  0  0  0  0  0
  190.9140  174.2550  141.7690 C   0  0  0  0  0  0  0  0  0  0  0  0
  192.2190  173.7860  141.7020 C   0  0  0  0  0  0  0  0  0  0  0  0
  186.8850  175.8040  142.2940 C   0  0  0  0  0  2  0  0  0  0  0  0
  187.3910  176.2700  144.6490 C   0  0  0  0  0  2  0  0  0  0  0  0
  194.3480  173.2380  142.3850 C   0  0  1  0  0  3  0  0  0  0  0  0
  189.4800  176.7110  146.6650 C   0  0  0  0  0  3  0  0  0  0  0  0
  188.7970  175.9070  144.4280 N   0  0  1  0  0  0  0  0  0  0  0  0
  189.5740  175.6120  145.6320 C   0  0  1  0  0  3  0  0  0  0  0  0
  191.3640  174.7850  144.1220 C   0  0  0  0  0  0  0  0  0  0  0  0
  194.1990  172.8450  140.9650 N   0  0  0  0  0  0  0  0  0  0  0  0
  186.7470  176.8360  143.3940 C   0  0  2  0  0  3  0  0  0  0  0  0
  192.8780  173.1970  140.6070 N   0  0  0  0  0  0  0  0  0  0  0  0
  191.9780  175.3530  146.4400 C   0  0  0  0  0  3  0  0  0  0  0  0
  191.0070  175.2560  145.3270 C   0  0  2  0  0  3  0  0  0  0  0  0
  192.6390  174.3100  143.9560 N   0  0  0  0  0  0  0  0  0  0  0  0
  188.3530  175.6560  141.9370 C   0  0  0  0  0  2  0  0  0  0  0  0
  190.1120  174.1480  140.6360 O   0  0  0  0  0  1  0  0  0  0  0  0
  195.4490  174.2750  142.5110 C   0  0  0  0  0  1  0  0  0  0  0  0
  190.4530  174.8060  143.0080 C   0  0  0  0  0  0  0  0  0  0  0  0
  193.0420  173.8350  142.7570 C   0  0  0  0  0  0  0  0  0  0  0  0
  185.0170  178.3690  144.5080 C   0  0  2  0  0  3  0  0  0  0  0  0
  185.2720  177.1170  143.6610 C   0  0  1  0  0  3  0  0  0  0  0  0
  184.8680  178.4190  142.9990 C   0  0  1  0  0  3  0  0  0  0  0  0
  183.4690  178.3650  142.6550 N   0  0  0  0  0  0  0  0  0  0  0  0
  183.0470  178.2400  141.4440 C   0  0  0  0  0  0  0  0  0  0  0  0
  183.9830  178.1430  140.2790 C   0  0  0  0  0  1  0  0  0  0  0  0
  181.5800  178.1930  141.1880 C   0  0  0  0  0  1  0  0  0  0  0  0
  186.2000  179.0160  144.8790 O   0  0  0  0  0  0  0  0  0  0  0  0
  186.0270  179.3170  146.2290 C   0  0  0  0  0  1  0  0  0  0  0  0
  1 19  1  6  0  0  0
  1 10  1  0  0  0  0
  3  2  1  0  0  0  0
  4 22  1  0  0  0  0
  5  4  2  0  0  0  0
  5 23  1  0  0  0  0
  8 21  1  6  0  0  0
  8 23  1  0  0  0  0
  9  2  2  0  0  0  0
 10  7  1  1  0  0  0
 10 11  1  0  0  0  0
 11  9  1  1  0  0  0
 12 17  1  0  0  0  0
 13  8  1  0  0  0  0
 14  6  1  6  0  0  0
 14  7  1  0  0  0  0
 15 13  2  0  0  0  0
 15  5  1  0  0  0  0
 16  3  2  0  0  0  0
 17 11  1  0  0  0  0
 17 16  1  1  0  0  0
 18 12  1  0  0  0  0
 19  6  1  0  0  0  0
 20  4  1  0  0  0  0
 22  1  1  0  0  0  0
 22 12  2  0  0  0  0
 23 18  2  0  0  0  0
 24 31  1  6  0  0  0
 25 14  1  6  0  0  0
 25 24  1  0  0  0  0
 26 27  1  1  0  0  0
 26 25  1  0  0  0  0
 26 24  1  0  0  0  0
 28 27  2  0  0  0  0
 29 28  1  0  0  0  0
 30 28  1  0  0  0  0
 31 32  1  0  0  0  0
M  END
>  <MODEL>
8

>  <REMARK>
 VINA RESULT:      -6.9      2.412      7.452
  Name = 
  3 active torsions:
  status: ('A' for Active; 'I' for Inactive)
    1  A    between atoms: C_1  and  O_16
    2  A    between atoms: C_10  and  C_17
    3  A    between atoms: C_20  and  N_29
                            x       y       z     vdW  Elec       q    Type
                         _______ _______ _______ _____ _____    ______ ____

>  <TORSDO>
F 3

$$$$
=
 OpenBabel11112416283D

 32 37  0  0  1  0  0  0  0  0999 V2000
  190.8360  175.2110  142.9040 C   0  0  1  0  0  3  0  0  0  0  0  0
  190.3090  173.4680  138.4290 C   0  0  0  0  0  3  0  0  0  0  0  0
  188.8520  173.7000  138.4920 C   0  0  0  0  0  3  0  0  0  0  0  0
  188.9540  176.4040  143.9350 C   0  0  0  0  0  0  0  0  0  0  0  0
  187.6410  176.8290  143.7900 C   0  0  0  0  0  0  0  0  0  0  0  0
  193.0380  174.9180  144.0980 C   0  0  0  0  0  2  0  0  0  0  0  0
  192.6730  173.7370  141.9780 C   0  0  0  0  0  2  0  0  0  0  0  0
  185.5470  177.0750  142.8660 C   0  0  1  0  0  3  0  0  0  0  0  0
  191.0640  173.5370  139.5310 C   0  0  0  0  0  3  0  0  0  0  0  0
  191.3580  174.3750  141.8400 N   0  0  1  0  0  0  0  0  0  0  0  0
  190.4400  173.7400  140.8920 C   0  0  1  0  0  3  0  0  0  0  0  0
  188.6720  175.2300  141.7980 C   0  0  0  0  0  0  0  0  0  0  0  0
  185.5750  177.8040  144.1550 N   0  0  0  0  0  0  0  0  0  0  0  0
  193.6490  174.6130  142.7460 C   0  0  2  0  0  3  0  0  0  0  0  0
  186.8750  177.6110  144.6740 N   0  0  0  0  0  0  0  0  0  0  0  0
  188.2850  174.1790  139.6030 C   0  0  0  0  0  3  0  0  0  0  0  0
  189.1160  174.4530  140.7970 C   0  0  2  0  0  3  0  0  0  0  0  0
  187.3890  175.7070  141.7370 N   0  0  0  0  0  0  0  0  0  0  0  0
  191.8140  175.7950  143.8990 C   0  0  0  0  0  2  0  0  0  0  0  0
  189.6460  176.7670  145.0870 O   0  0  0  0  0  1  0  0  0  0  0  0
  185.2700  178.0520  141.7380 C   0  0  0  0  0  1  0  0  0  0  0  0
  189.5250  175.5950  142.8990 C   0  0  0  0  0  0  0  0  0  0  0  0
  186.9060  176.5010  142.7200 C   0  0  0  0  0  0  0  0  0  0  0  0
  196.2010  174.7770  142.9620 C   0  0  2  0  0  3  0  0  0  0  0  0
  194.9670  173.8680  142.9290 C   0  0  1  0  0  3  0  0  0  0  0  0
  195.5980  174.2530  144.2520 C   0  0  1  0  0  3  0  0  0  0  0  0
  196.3940  173.1530  144.7390 N   0  0  0  0  0  0  0  0  0  0  0  0
  195.8940  172.1580  145.3870 C   0  0  0  0  0  0  0  0  0  0  0  0
  194.4320  172.0570  145.6940 C   0  0  0  0  0  1  0  0  0  0  0  0
  196.7970  171.0680  145.8500 C   0  0  0  0  0  1  0  0  0  0  0  0
  195.8760  176.1290  142.8140 O   0  0  0  0  0  0  0  0  0  0  0  0
  197.0400  176.8110  143.1630 C   0  0  0  0  0  1  0  0  0  0  0  0
  1 19  1  6  0  0  0
  2  3  1  0  0  0  0
  2  9  2  0  0  0  0
  3 16  2  0  0  0  0
  4 20  1  0  0  0  0
  5  4  1  0  0  0  0
  5 15  1  0  0  0  0
  8 21  1  6  0  0  0
  8 13  1  0  0  0  0
 10  7  1  1  0  0  0
 10  1  1  0  0  0  0
 11  9  1  6  0  0  0
 11 10  1  0  0  0  0
 12 22  1  0  0  0  0
 13 15  2  0  0  0  0
 14  7  1  6  0  0  0
 14  6  1  0  0  0  0
 17 16  1  1  0  0  0
 17 11  1  0  0  0  0
 17 12  1  0  0  0  0
 18 12  2  0  0  0  0
 18 23  1  0  0  0  0
 19  6  1  0  0  0  0
 22  1  1  0  0  0  0
 22  4  2  0  0  0  0
 23  8  1  0  0  0  0
 23  5  2  0  0  0  0
 24 31  1  1  0  0  0
 24 26  1  0  0  0  0
 25 14  1  1  0  0  0
 25 24  1  0  0  0  0
 25 26  1  0  0  0  0
 26 27  1  6  0  0  0
 27 28  2  0  0  0  0
 28 29  1  0  0  0  0
 28 30  1  0  0  0  0
 31 32  1  0  0  0  0
M  END
>  <MODEL>
9

>  <REMARK>
 VINA RESULT:      -6.7      3.458      6.101
  Name = 
  3 active torsions:
  status: ('A' for Active; 'I' for Inactive)
    1  A    between atoms: C_1  and  O_16
    2  A    between atoms: C_10  and  C_17
    3  A    between atoms: C_20  and  N_29
                            x       y       z     vdW  Elec       q    Type
                         _______ _______ _______ _____ _____    ______ ____

>  <TORSDO>
F 3

$$$$
