=
 OpenBabel11112416203D

 30 35  0  0  1  0  0  0  0  0999 V2000
  186.2810  177.2610  143.7750 C   0  0  0  0  0  0  0  0  0  0  0  0
  184.6200  178.4870  145.2250 C   0  0  0  0  0  0  0  0  0  0  0  0
  188.3980  175.9600  147.1590 N   0  0  0  0  0  2  0  0  0  0  0  0
  187.4620  176.4670  143.6850 C   0  0  0  0  0  0  0  0  0  0  0  0
  185.6360  177.6020  142.6270 N   0  0  0  0  0  0  0  0  0  0  0  0
  187.6840  176.1170  139.9970 O   0  0  0  0  0  1  0  0  0  0  0  0
  190.3680  175.9950  142.9130 N   0  0  1  0  0  0  0  0  0  0  0  0
  187.2340  176.4770  141.2640 C   0  0  0  0  0  0  0  0  0  0  0  0
  190.5260  175.6690  144.3450 C   0  0  2  0  0  3  0  0  0  0  0  0
  189.4690  175.1520  146.5870 C   0  0  1  0  0  3  0  0  0  0  0  0
  186.0680  177.2310  141.3930 C   0  0  0  0  0  0  0  0  0  0  0  0
  187.9490  176.0950  142.4080 C   0  0  0  0  0  0  0  0  0  0  0  0
  184.2030  178.8460  146.5100 C   0  0  0  0  0  3  0  0  0  0  0  0
  191.6650  174.6830  144.4670 C   0  0  0  0  0  2  0  0  0  0  0  0
  191.6050  175.5840  142.2510 C   0  0  0  0  0  2  0  0  0  0  0  0
  183.6150  179.0990  143.9140 Cl  0  0  0  0  0  0  0  0  0  0  0  0
  187.6340  176.4860  146.0910 C   0  0  0  0  0  0  0  0  0  0  0  0
  184.9080  178.4330  147.6370 C   0  0  0  0  0  3  0  0  0  0  0  0
  185.7860  177.6830  145.0510 C   0  0  0  0  0  0  0  0  0  0  0  0
  188.1060  176.0960  144.8740 C   0  0  0  0  0  0  0  0  0  0  0  0
  189.3680  173.8430  147.0560 O   0  0  0  0  0  1  0  0  0  0  0  0
  189.2630  175.1710  145.0590 C   0  0  1  0  0  3  0  0  0  0  0  0
  192.5440  175.0120  143.2930 C   0  0  0  0  0  2  0  0  0  0  0  0
  189.1130  173.8380  142.4240 C   0  0  0  0  0  1  0  0  0  0  0  0
  186.0480  177.6500  147.4930 C   0  0  0  0  0  3  0  0  0  0  0  0
  186.4930  177.2760  146.2220 C   0  0  0  0  0  0  0  0  0  0  0  0
  189.2420  175.3480  142.2140 C   0  0  2  0  0  3  0  0  0  0  0  0
  185.3600  177.6080  140.2500 O   0  0  0  0  0  0  0  0  0  0  0  0
  182.9820  177.8830  140.3130 C   0  0  0  0  0  1  0  0  0  0  0  0
  184.3260  178.5790  140.2890 C   0  0  0  0  0  2  0  0  0  0  0  0
  1 19  1  0  0  0  0
  2 13  1  0  0  0  0
  4  1  2  0  0  0  0
  4 20  1  0  0  0  0
  5  1  1  0  0  0  0
  6  8  1  0  0  0  0
  7 15  1  6  0  0  0
  7  9  1  0  0  0  0
  8 11  1  0  0  0  0
  8 12  2  0  0  0  0
  9 14  1  6  0  0  0
  9 22  1  0  0  0  0
 10 21  1  1  0  0  0
 10  3  1  0  0  0  0
 11  5  2  0  0  0  0
 12  4  1  0  0  0  0
 13 18  2  0  0  0  0
 15 23  1  0  0  0  0
 16  2  1  0  0  0  0
 17 26  1  0  0  0  0
 17  3  1  0  0  0  0
 19  2  2  0  0  0  0
 19 26  1  0  0  0  0
 20 17  2  0  0  0  0
 22 20  1  1  0  0  0
 22 10  1  0  0  0  0
 23 14  1  0  0  0  0
 25 18  1  0  0  0  0
 26 25  2  0  0  0  0
 27 12  1  0  0  0  0
 27 24  1  1  0  0  0
 27  7  1  0  0  0  0
 28 30  1  0  0  0  0
 28 11  1  0  0  0  0
 30 29  1  0  0  0  0
M  END
>  <MODEL>
1

>  <REMARK>
 VINA RESULT:      -8.7      0.000      0.000
  Name = 
  2 active torsions:
  status: ('A' for Active; 'I' for Inactive)
    1  A    between atoms: C_11  and  O_28
    2  A    between atoms: O_28  and  C_30
                            x       y       z     vdW  Elec       q    Type
                         _______ _______ _______ _____ _____    ______ ____

>  <TORSDO>
F 2

$$$$
=
 OpenBabel11112416203D

 30 35  0  0  1  0  0  0  0  0999 V2000
  187.5100  176.3910  145.3630 C   0  0  0  0  0  0  0  0  0  0  0  0
  185.7170  177.6910  146.5720 C   0  0  0  0  0  0  0  0  0  0  0  0
  185.8590  177.4160  141.6420 N   0  0  0  0  0  2  0  0  0  0  0  0
  188.0560  175.9340  144.1280 C   0  0  0  0  0  0  0  0  0  0  0  0
  188.1350  176.0440  146.5200 N   0  0  0  0  0  0  0  0  0  0  0  0
  190.9330  173.9750  145.4180 O   0  0  0  0  0  1  0  0  0  0  0  0
  188.7650  173.7760  142.1030 N   0  0  1  0  0  0  0  0  0  0  0  0
  189.8000  174.7840  145.3720 C   0  0  0  0  0  0  0  0  0  0  0  0
  187.9550  174.6000  141.1830 C   0  0  2  0  0  3  0  0  0  0  0  0
  186.7670  176.7820  140.6930 C   0  0  1  0  0  3  0  0  0  0  0  0
  189.2520  175.2710  146.5580 C   0  0  0  0  0  0  0  0  0  0  0  0
  189.2020  175.1020  144.1450 C   0  0  0  0  0  0  0  0  0  0  0  0
  184.5700  178.4860  146.4940 C   0  0  0  0  0  3  0  0  0  0  0  0
  188.4830  174.3810  139.7850 C   0  0  0  0  0  2  0  0  0  0  0  0
  189.4520  172.7830  141.2790 C   0  0  0  0  0  2  0  0  0  0  0  0
  186.2920  177.3670  148.2050 Cl  0  0  0  0  0  0  0  0  0  0  0  0
  186.3050  177.1010  142.9470 C   0  0  0  0  0  0  0  0  0  0  0  0
  184.0060  178.8170  145.2650 C   0  0  0  0  0  3  0  0  0  0  0  0
  186.3310  177.2040  145.3800 C   0  0  0  0  0  0  0  0  0  0  0  0
  187.4220  176.3190  142.9390 C   0  0  0  0  0  0  0  0  0  0  0  0
  187.3440  177.7540  139.8780 O   0  0  0  0  0  1  0  0  0  0  0  0
  187.8620  176.0910  141.5300 C   0  0  1  0  0  3  0  0  0  0  0  0
  189.0460  172.9880  139.8340 C   0  0  0  0  0  2  0  0  0  0  0  0
  190.6870  175.4410  142.1130 C   0  0  0  0  0  1  0  0  0  0  0  0
  184.5850  178.3540  144.0900 C   0  0  0  0  0  3  0  0  0  0  0  0
  185.7310  177.5540  144.1330 C   0  0  0  0  0  0  0  0  0  0  0  0
  189.7820  174.4890  142.8980 C   0  0  2  0  0  3  0  0  0  0  0  0
  189.8540  174.9510  147.7780 O   0  0  0  0  0  0  0  0  0  0  0  0
  191.2200  176.8940  148.0890 C   0  0  0  0  0  1  0  0  0  0  0  0
  191.1660  175.3820  148.1070 C   0  0  0  0  0  2  0  0  0  0  0  0
  1 19  1  0  0  0  0
  1  5  1  0  0  0  0
  2 16  1  0  0  0  0
  3 17  1  0  0  0  0
  4 12  1  0  0  0  0
  4  1  2  0  0  0  0
  5 11  2  0  0  0  0
  7 15  1  6  0  0  0
  7 27  1  0  0  0  0
  8  6  1  0  0  0  0
  8 11  1  0  0  0  0
  9 14  1  6  0  0  0
  9 22  1  0  0  0  0
  9  7  1  0  0  0  0
 10 21  1  6  0  0  0
 10 22  1  0  0  0  0
 10  3  1  0  0  0  0
 11 28  1  0  0  0  0
 12  8  2  0  0  0  0
 13  2  1  0  0  0  0
 14 23  1  0  0  0  0
 17 26  1  0  0  0  0
 18 13  2  0  0  0  0
 19  2  2  0  0  0  0
 20 17  2  0  0  0  0
 20  4  1  0  0  0  0
 22 20  1  1  0  0  0
 23 15  1  0  0  0  0
 25 26  2  0  0  0  0
 25 18  1  0  0  0  0
 26 19  1  0  0  0  0
 27 24  1  6  0  0  0
 27 12  1  0  0  0  0
 28 30  1  0  0  0  0
 29 30  1  0  0  0  0
M  END
>  <MODEL>
2

>  <REMARK>
 VINA RESULT:      -8.4      1.797      5.258
  Name = 
  2 active torsions:
  status: ('A' for Active; 'I' for Inactive)
    1  A    between atoms: C_11  and  O_28
    2  A    between atoms: O_28  and  C_30
                            x       y       z     vdW  Elec       q    Type
                         _______ _______ _______ _____ _____    ______ ____

>  <TORSDO>
F 2

$$$$
=
 OpenBabel11112416203D

 30 35  0  0  1  0  0  0  0  0999 V2000
  188.5300  177.1440  146.2150 C   0  0  0  0  0  0  0  0  0  0  0  0
  186.6030  178.4200  147.2260 C   0  0  0  0  0  0  0  0  0  0  0  0
  186.2970  176.3560  142.7480 N   0  0  0  0  0  2  0  0  0  0  0  0
  189.0430  176.3760  145.1290 C   0  0  0  0  0  0  0  0  0  0  0  0
  189.3400  177.3850  147.2810 N   0  0  0  0  0  0  0  0  0  0  0  0
  192.4380  175.6500  146.4390 O   0  0  0  0  0  1  0  0  0  0  0  0
  190.0590  173.8030  143.8600 N   0  0  1  0  0  0  0  0  0  0  0  0
  191.1400  176.1420  146.3370 C   0  0  0  0  0  0  0  0  0  0  0  0
  188.9760  174.0460  142.8850 C   0  0  2  0  0  3  0  0  0  0  0  0
  187.2320  175.6060  141.9180 C   0  0  1  0  0  3  0  0  0  0  0  0
  190.6140  176.9190  147.3680 C   0  0  0  0  0  0  0  0  0  0  0  0
  190.3570  175.8540  145.2100 C   0  0  0  0  0  0  0  0  0  0  0  0
  185.2900  178.8850  147.1000 C   0  0  0  0  0  3  0  0  0  0  0  0
  189.3950  173.4290  141.5710 C   0  0  0  0  0  2  0  0  0  0  0  0
  190.8860  172.7300  143.3080 C   0  0  0  0  0  2  0  0  0  0  0  0
  187.4080  178.8500  148.7320 Cl  0  0  0  0  0  0  0  0  0  0  0  0
  186.9410  176.6460  143.9740 C   0  0  0  0  0  0  0  0  0  0  0  0
  184.5370  178.6150  145.9610 C   0  0  0  0  0  3  0  0  0  0  0  0
  187.1930  177.6540  146.1760 C   0  0  0  0  0  0  0  0  0  0  0  0
  188.2120  176.1550  144.0210 C   0  0  0  0  0  0  0  0  0  0  0  0
  187.4570  176.2960  140.7280 O   0  0  0  0  0  1  0  0  0  0  0  0
  188.5470  175.5090  142.7170 C   0  0  1  0  0  3  0  0  0  0  0  0
  190.2930  172.2960  141.9830 C   0  0  0  0  0  2  0  0  0  0  0  0
  191.4900  175.6950  142.9420 C   0  0  0  0  0  1  0  0  0  0  0  0
  185.0890  177.8690  144.9260 C   0  0  0  0  0  3  0  0  0  0  0  0
  186.3980  177.3860  145.0210 C   0  0  0  0  0  0  0  0  0  0  0  0
  190.9410  174.9470  144.1590 C   0  0  2  0  0  3  0  0  0  0  0  0
  191.3990  177.2040  148.4860 O   0  0  0  0  0  0  0  0  0  0  0  0
  191.5630  177.9850  150.7450 C   0  0  0  0  0  1  0  0  0  0  0  0
  191.1350  178.3140  149.3310 C   0  0  0  0  0  2  0  0  0  0  0  0
  1  5  1  0  0  0  0
  2 16  1  0  0  0  0
  3 17  1  0  0  0  0
  4 12  1  0  0  0  0
  4  1  2  0  0  0  0
  5 11  2  0  0  0  0
  7 15  1  6  0  0  0
  7 27  1  0  0  0  0
  8  6  1  0  0  0  0
  8 11  1  0  0  0  0
  9 14  1  6  0  0  0
  9  7  1  0  0  0  0
 10 21  1  6  0  0  0
 10 22  1  0  0  0  0
 10  3  1  0  0  0  0
 11 28  1  0  0  0  0
 12  8  2  0  0  0  0
 13  2  1  0  0  0  0
 14 23  1  0  0  0  0
 17 20  2  0  0  0  0
 17 26  1  0  0  0  0
 18 13  2  0  0  0  0
 19  1  1  0  0  0  0
 19  2  2  0  0  0  0
 20  4  1  0  0  0  0
 22  9  1  0  0  0  0
 22 20  1  1  0  0  0
 23 15  1  0  0  0  0
 25 26  2  0  0  0  0
 25 18  1  0  0  0  0
 26 19  1  0  0  0  0
 27 24  1  6  0  0  0
 27 12  1  0  0  0  0
 28 30  1  0  0  0  0
 30 29  1  0  0  0  0
M  END
>  <MODEL>
3

>  <REMARK>
 VINA RESULT:      -8.3      2.307      5.431
  Name = 
  2 active torsions:
  status: ('A' for Active; 'I' for Inactive)
    1  A    between atoms: C_11  and  O_28
    2  A    between atoms: O_28  and  C_30
                            x       y       z     vdW  Elec       q    Type
                         _______ _______ _______ _____ _____    ______ ____

>  <TORSDO>
F 2

$$$$
=
 OpenBabel11112416203D

 30 35  0  0  1  0  0  0  0  0999 V2000
  187.9720  175.7900  141.7410 C   0  0  0  0  0  0  0  0  0  0  0  0
  189.5520  173.8750  141.2930 C   0  0  0  0  0  0  0  0  0  0  0  0
  188.8620  175.6700  145.8420 N   0  0  0  0  0  2  0  0  0  0  0  0
  187.3600  176.6640  142.6860 C   0  0  0  0  0  0  0  0  0  0  0  0
  187.6550  175.9270  140.4260 N   0  0  0  0  0  0  0  0  0  0  0  0
  185.2140  178.6410  140.3920 O   0  0  0  0  0  1  0  0  0  0  0  0
  184.9800  177.7430  144.2470 N   0  0  1  0  0  0  0  0  0  0  0  0
  186.1330  177.7080  140.8640 C   0  0  0  0  0  0  0  0  0  0  0  0
  185.8090  177.4130  145.4250 C   0  0  2  0  0  3  0  0  0  0  0  0
  188.0590  176.7600  146.3850 C   0  0  1  0  0  3  0  0  0  0  0  0
  186.7720  176.8530  139.9670 C   0  0  0  0  0  0  0  0  0  0  0  0
  186.4130  177.6160  142.2350 C   0  0  0  0  0  0  0  0  0  0  0  0
  190.4570  172.9380  141.8010 C   0  0  0  0  0  3  0  0  0  0  0  0
  185.4210  178.3580  146.5370 C   0  0  0  0  0  2  0  0  0  0  0  0
  183.8540  178.5370  144.7370 C   0  0  0  0  0  2  0  0  0  0  0  0
  189.3010  173.8050  139.5510 Cl  0  0  0  0  0  0  0  0  0  0  0  0
  188.6080  175.5950  144.4530 C   0  0  0  0  0  0  0  0  0  0  0  0
  190.7450  172.8810  143.1610 C   0  0  0  0  0  3  0  0  0  0  0  0
  188.9060  174.7930  142.1730 C   0  0  0  0  0  0  0  0  0  0  0  0
  187.7130  176.5350  144.0370 C   0  0  0  0  0  0  0  0  0  0  0  0
  188.8930  177.7030  146.9820 O   0  0  0  0  0  1  0  0  0  0  0  0
  187.3240  177.4000  145.1900 C   0  0  1  0  0  3  0  0  0  0  0  0
  183.9830  178.6840  146.2390 C   0  0  0  0  0  2  0  0  0  0  0  0
  186.4230  179.7420  143.6250 C   0  0  0  0  0  1  0  0  0  0  0  0
  190.1280  173.7640  144.0380 C   0  0  0  0  0  3  0  0  0  0  0  0
  189.2150  174.7110  143.5640 C   0  0  0  0  0  0  0  0  0  0  0  0
  185.6420  178.5070  143.1730 C   0  0  2  0  0  3  0  0  0  0  0  0
  186.4900  176.9510  138.6020 O   0  0  0  0  0  0  0  0  0  0  0  0
  186.0010  176.0210  136.4500 C   0  0  0  0  0  1  0  0  0  0  0  0
  186.8840  175.9480  137.6770 C   0  0  0  0  0  2  0  0  0  0  0  0
  1 19  2  0  0  0  0
  1  4  1  0  0  0  0
  2 13  2  0  0  0  0
  2 19  1  0  0  0  0
  3 10  1  0  0  0  0
  4 20  2  0  0  0  0
  5  1  1  0  0  0  0
  6  8  1  0  0  0  0
  7 15  1  1  0  0  0
  7  9  1  0  0  0  0
  8 12  2  0  0  0  0
  9 14  1  1  0  0  0
 10 21  1  6  0  0  0
 11  5  2  0  0  0  0
 11  8  1  0  0  0  0
 12  4  1  0  0  0  0
 12 27  1  0  0  0  0
 13 18  1  0  0  0  0
 15 23  1  0  0  0  0
 16  2  1  0  0  0  0
 17  3  1  0  0  0  0
 18 25  2  0  0  0  0
 19 26  1  0  0  0  0
 20 17  1  0  0  0  0
 22 20  1  6  0  0  0
 22  9  1  0  0  0  0
 22 10  1  0  0  0  0
 23 14  1  0  0  0  0
 26 25  1  0  0  0  0
 26 17  2  0  0  0  0
 27 24  1  1  0  0  0
 27  7  1  0  0  0  0
 28 11  1  0  0  0  0
 29 30  1  0  0  0  0
 30 28  1  0  0  0  0
M  END
>  <MODEL>
4

>  <REMARK>
 VINA RESULT:      -8.2      2.499      5.479
  Name = 
  2 active torsions:
  status: ('A' for Active; 'I' for Inactive)
    1  A    between atoms: C_11  and  O_28
    2  A    between atoms: O_28  and  C_30
                            x       y       z     vdW  Elec       q    Type
                         _______ _______ _______ _____ _____    ______ ____

>  <TORSDO>
F 2

$$$$
=
 OpenBabel11112416203D

 30 35  0  0  1  0  0  0  0  0999 V2000
  187.3210  176.5250  142.6840 C   0  0  0  0  0  0  0  0  0  0  0  0
  185.4650  178.1990  143.0270 C   0  0  0  0  0  0  0  0  0  0  0  0
  188.2260  176.5640  146.7830 N   0  0  0  0  0  2  0  0  0  0  0  0
  188.3810  175.7540  143.2440 C   0  0  0  0  0  0  0  0  0  0  0  0
  187.0720  176.4190  141.3510 N   0  0  0  0  0  0  0  0  0  0  0  0
  189.6020  174.0680  140.1720 O   0  0  0  0  0  1  0  0  0  0  0  0
  191.3130  175.0300  143.6170 N   0  0  1  0  0  0  0  0  0  0  0  0
  188.8540  174.8700  141.0290 C   0  0  0  0  0  0  0  0  0  0  0  0
  191.0200  175.2550  145.0470 C   0  0  2  0  0  3  0  0  0  0  0  0
  189.3170  175.6020  146.8880 C   0  0  1  0  0  3  0  0  0  0  0  0
  187.7930  175.6190  140.5210 C   0  0  0  0  0  0  0  0  0  0  0  0
  189.1660  174.9370  142.3940 C   0  0  0  0  0  0  0  0  0  0  0  0
  184.7440  179.0080  143.9110 C   0  0  0  0  0  3  0  0  0  0  0  0
  191.9580  174.3840  145.8500 C   0  0  0  0  0  2  0  0  0  0  0  0
  192.6330  174.4040  143.5540 C   0  0  0  0  0  2  0  0  0  0  0  0
  184.9510  178.2850  141.3450 Cl  0  0  0  0  0  0  0  0  0  0  0  0
  187.8620  176.6600  145.4190 C   0  0  0  0  0  0  0  0  0  0  0  0
  185.0480  179.0390  145.2690 C   0  0  0  0  0  3  0  0  0  0  0  0
  186.5340  177.3880  143.5120 C   0  0  0  0  0  0  0  0  0  0  0  0
  188.6140  175.8470  144.6240 C   0  0  0  0  0  0  0  0  0  0  0  0
  188.9400  174.5590  147.7320 O   0  0  0  0  0  1  0  0  0  0  0  0
  189.5590  175.0560  145.4670 C   0  0  1  0  0  3  0  0  0  0  0  0
  193.1670  174.2570  144.9650 C   0  0  0  0  0  2  0  0  0  0  0  0
  190.0150  172.8450  143.5570 C   0  0  0  0  0  1  0  0  0  0  0  0
  186.0850  178.2590  145.7650 C   0  0  0  0  0  3  0  0  0  0  0  0
  186.8290  177.4420  144.9080 C   0  0  0  0  0  0  0  0  0  0  0  0
  190.3680  174.1710  142.8810 C   0  0  2  0  0  3  0  0  0  0  0  0
  187.4870  175.5470  139.1610 O   0  0  0  0  0  0  0  0  0  0  0  0
  186.3160  176.0420  137.1310 C   0  0  0  0  0  1  0  0  0  0  0  0
  186.6910  176.5280  138.5130 C   0  0  0  0  0  2  0  0  0  0  0  0
  1  4  2  0  0  0  0
  1 19  1  0  0  0  0
  2 19  2  0  0  0  0
  2 13  1  0  0  0  0
  3 10  1  0  0  0  0
  4 20  1  0  0  0  0
  5  1  1  0  0  0  0
  6  8  1  0  0  0  0
  7 15  1  1  0  0  0
  7  9  1  0  0  0  0
  8 12  2  0  0  0  0
  9 22  1  0  0  0  0
  9 14  1  1  0  0  0
 10 21  1  1  0  0  0
 11  8  1  0  0  0  0
 11  5  2  0  0  0  0
 12 27  1  0  0  0  0
 12  4  1  0  0  0  0
 13 18  2  0  0  0  0
 15 23  1  0  0  0  0
 16  2  1  0  0  0  0
 17  3  1  0  0  0  0
 18 25  1  0  0  0  0
 19 26  1  0  0  0  0
 20 17  2  0  0  0  0
 22 20  1  6  0  0  0
 22 10  1  0  0  0  0
 23 14  1  0  0  0  0
 26 17  1  0  0  0  0
 26 25  2  0  0  0  0
 27 24  1  1  0  0  0
 27  7  1  0  0  0  0
 28 11  1  0  0  0  0
 29 30  1  0  0  0  0
 30 28  1  0  0  0  0
M  END
>  <MODEL>
5

>  <REMARK>
 VINA RESULT:      -8.1      1.648      2.144
  Name = 
  2 active torsions:
  status: ('A' for Active; 'I' for Inactive)
    1  A    between atoms: C_11  and  O_28
    2  A    between atoms: O_28  and  C_30
                            x       y       z     vdW  Elec       q    Type
                         _______ _______ _______ _____ _____    ______ ____

>  <TORSDO>
F 2

$$$$
=
 OpenBabel11112416203D

 30 35  0  0  1  0  0  0  0  0999 V2000
  187.9490  175.9080  142.0310 C   0  0  0  0  0  0  0  0  0  0  0  0
  186.1630  177.4160  141.0820 C   0  0  0  0  0  0  0  0  0  0  0  0
  187.2140  177.3400  145.9080 N   0  0  0  0  0  2  0  0  0  0  0  0
  188.6860  175.4620  143.1670 C   0  0  0  0  0  0  0  0  0  0  0  0
  188.2270  175.3580  140.8180 N   0  0  0  0  0  0  0  0  0  0  0  0
  190.9330  173.0110  141.5190 O   0  0  0  0  0  1  0  0  0  0  0  0
  191.2240  175.1840  144.8230 N   0  0  1  0  0  0  0  0  0  0  0  0
  189.9410  173.9680  141.7170 C   0  0  0  0  0  0  0  0  0  0  0  0
  190.4130  175.8240  145.8790 C   0  0  2  0  0  3  0  0  0  0  0  0
  188.1470  176.5730  146.7250 C   0  0  1  0  0  3  0  0  0  0  0  0
  189.1820  174.4090  140.6330 C   0  0  0  0  0  0  0  0  0  0  0  0
  189.7080  174.4970  142.9940 C   0  0  0  0  0  0  0  0  0  0  0  0
  185.1860  178.3900  141.3110 C   0  0  0  0  0  3  0  0  0  0  0  0
  190.9410  175.3500  147.2120 C   0  0  0  0  0  2  0  0  0  0  0  0
  192.4450  174.7020  145.4680 C   0  0  0  0  0  2  0  0  0  0  0  0
  186.3360  176.9090  139.4040 Cl  0  0  0  0  0  0  0  0  0  0  0  0
  187.4050  176.9600  144.5590 C   0  0  0  0  0  0  0  0  0  0  0  0
  184.9480  178.8820  142.5910 C   0  0  0  0  0  3  0  0  0  0  0  0
  186.9350  176.9090  142.1700 C   0  0  0  0  0  0  0  0  0  0  0  0
  188.3750  176.0130  144.4190 C   0  0  0  0  0  0  0  0  0  0  0  0
  187.4400  175.8220  147.6620 O   0  0  0  0  0  1  0  0  0  0  0  0
  188.8960  175.6280  145.7640 C   0  0  1  0  0  3  0  0  0  0  0  0
  192.3910  175.0650  146.9380 C   0  0  0  0  0  2  0  0  0  0  0  0
  189.9730  172.9780  145.0120 C   0  0  0  0  0  1  0  0  0  0  0  0
  185.6880  178.4050  143.6660 C   0  0  0  0  0  3  0  0  0  0  0  0
  186.6740  177.4340  143.4710 C   0  0  0  0  0  0  0  0  0  0  0  0
  190.6040  174.0470  144.1180 C   0  0  2  0  0  3  0  0  0  0  0  0
  189.4190  173.8770  139.3640 O   0  0  0  0  0  0  0  0  0  0  0  0
  188.2720  174.4290  137.3350 C   0  0  0  0  0  1  0  0  0  0  0  0
  188.3620  173.4750  138.5060 C   0  0  0  0  0  2  0  0  0  0  0  0
  1 19  2  0  0  0  0
  1  4  1  0  0  0  0
  2 13  2  0  0  0  0
  2 19  1  0  0  0  0
  3 10  1  0  0  0  0
  4 20  2  0  0  0  0
  5  1  1  0  0  0  0
  6  8  1  0  0  0  0
  7 15  1  1  0  0  0
  7  9  1  0  0  0  0
  8 12  2  0  0  0  0
  9 14  1  1  0  0  0
 10 21  1  1  0  0  0
 11  5  2  0  0  0  0
 11  8  1  0  0  0  0
 12  4  1  0  0  0  0
 12 27  1  0  0  0  0
 13 18  1  0  0  0  0
 15 23  1  0  0  0  0
 16  2  1  0  0  0  0
 17  3  1  0  0  0  0
 18 25  2  0  0  0  0
 19 26  1  0  0  0  0
 20 17  1  0  0  0  0
 22 20  1  6  0  0  0
 22  9  1  0  0  0  0
 22 10  1  0  0  0  0
 23 14  1  0  0  0  0
 26 25  1  0  0  0  0
 26 17  2  0  0  0  0
 27  7  1  0  0  0  0
 27 24  1  1  0  0  0
 28 11  1  0  0  0  0
 29 30  1  0  0  0  0
 30 28  1  0  0  0  0
M  END
>  <MODEL>
6

>  <REMARK>
 VINA RESULT:      -8.0      2.412      3.780
  Name = 
  2 active torsions:
  status: ('A' for Active; 'I' for Inactive)
    1  A    between atoms: C_11  and  O_28
    2  A    between atoms: O_28  and  C_30
                            x       y       z     vdW  Elec       q    Type
                         _______ _______ _______ _____ _____    ______ ____

>  <TORSDO>
F 2

$$$$
=
 OpenBabel11112416203D

 30 35  0  0  1  0  0  0  0  0999 V2000
  188.5590  176.0900  143.7950 C   0  0  0  0  0  0  0  0  0  0  0  0
  186.3160  177.1160  144.3250 C   0  0  0  0  0  0  0  0  0  0  0  0
  189.9780  177.0060  147.6380 N   0  0  0  0  0  2  0  0  0  0  0  0
  189.8860  175.7850  144.2160 C   0  0  0  0  0  0  0  0  0  0  0  0
  188.1710  175.7180  142.5450 N   0  0  0  0  0  0  0  0  0  0  0  0
  191.1500  174.1510  141.1330 O   0  0  0  0  0  1  0  0  0  0  0  0
  192.9120  176.0950  144.1060 N   0  0  1  0  0  0  0  0  0  0  0  0
  190.3060  174.7880  142.0390 C   0  0  0  0  0  0  0  0  0  0  0  0
  192.7690  176.4190  145.5400 C   0  0  2  0  0  3  0  0  0  0  0  0
  191.3330  176.4670  147.6250 C   0  0  1  0  0  3  0  0  0  0  0  0
  188.9930  175.0790  141.6710 C   0  0  0  0  0  0  0  0  0  0  0  0
  190.7700  175.1470  143.3120 C   0  0  0  0  0  0  0  0  0  0  0  0
  185.4990  177.7720  145.2510 C   0  0  0  0  0  3  0  0  0  0  0  0
  194.0510  176.0180  146.2300 C   0  0  0  0  0  2  0  0  0  0  0  0
  194.3420  175.9200  143.8570 C   0  0  0  0  0  2  0  0  0  0  0  0
  185.5660  176.7900  142.7650 Cl  0  0  0  0  0  0  0  0  0  0  0  0
  189.4110  176.7830  146.3610 C   0  0  0  0  0  0  0  0  0  0  0  0
  185.9670  178.0930  146.5220 C   0  0  0  0  0  3  0  0  0  0  0  0
  187.6550  176.7670  144.6750 C   0  0  0  0  0  0  0  0  0  0  0  0
  190.2700  176.1460  145.5160 C   0  0  0  0  0  0  0  0  0  0  0  0
  191.4570  175.4920  148.6130 O   0  0  0  0  0  1  0  0  0  0  0  0
  191.5380  175.8280  146.2370 C   0  0  1  0  0  3  0  0  0  0  0  0
  195.0910  176.1560  145.1530 C   0  0  0  0  0  2  0  0  0  0  0  0
  192.4350  173.6260  144.4790 C   0  0  0  0  0  1  0  0  0  0  0  0
  187.2670  177.7640  146.8850 C   0  0  0  0  0  3  0  0  0  0  0  0
  188.1110  177.1120  145.9820 C   0  0  0  0  0  0  0  0  0  0  0  0
  192.2170  174.8830  143.6350 C   0  0  2  0  0  3  0  0  0  0  0  0
  188.5360  174.7170  140.4020 O   0  0  0  0  0  0  0  0  0  0  0  0
  188.5340  173.1080  138.6280 C   0  0  0  0  0  1  0  0  0  0  0  0
  188.1920  173.3790  140.0770 C   0  0  0  0  0  2  0  0  0  0  0  0
  1  4  2  0  0  0  0
  1 19  1  0  0  0  0
  2 19  2  0  0  0  0
  2 13  1  0  0  0  0
  4 20  1  0  0  0  0
  5  1  1  0  0  0  0
  6  8  1  0  0  0  0
  7 15  1  1  0  0  0
  7  9  1  0  0  0  0
  8 12  2  0  0  0  0
  9 14  1  1  0  0  0
  9 22  1  0  0  0  0
 10  3  1  0  0  0  0
 10 21  1  1  0  0  0
 11  8  1  0  0  0  0
 11  5  2  0  0  0  0
 12 27  1  0  0  0  0
 12  4  1  0  0  0  0
 13 18  2  0  0  0  0
 15 23  1  0  0  0  0
 16  2  1  0  0  0  0
 17  3  1  0  0  0  0
 18 25  1  0  0  0  0
 19 26  1  0  0  0  0
 20 17  2  0  0  0  0
 22 20  1  6  0  0  0
 22 10  1  0  0  0  0
 23 14  1  0  0  0  0
 26 17  1  0  0  0  0
 26 25  2  0  0  0  0
 27  7  1  0  0  0  0
 27 24  1  1  0  0  0
 28 11  1  0  0  0  0
 29 30  1  0  0  0  0
 30 28  1  0  0  0  0
M  END
>  <MODEL>
7

>  <REMARK>
 VINA RESULT:      -7.9      2.232      3.334
  Name = 
  2 active torsions:
  status: ('A' for Active; 'I' for Inactive)
    1  A    between atoms: C_11  and  O_28
    2  A    between atoms: O_28  and  C_30
                            x       y       z     vdW  Elec       q    Type
                         _______ _______ _______ _____ _____    ______ ____

>  <TORSDO>
F 2

$$$$
=
 OpenBabel11112416203D

 30 35  0  0  1  0  0  0  0  0999 V2000
  188.6870  174.7190  142.0210 C   0  0  0  0  0  0  0  0  0  0  0  0
  190.1680  172.6830  142.1770 C   0  0  0  0  0  0  0  0  0  0  0  0
  189.0600  175.4070  146.1450 N   0  0  0  0  0  2  0  0  0  0  0  0
  188.0280  175.7960  142.6830 C   0  0  0  0  0  0  0  0  0  0  0  0
  188.5430  174.5960  140.6740 N   0  0  0  0  0  0  0  0  0  0  0  0
  186.3250  177.3520  139.7760 O   0  0  0  0  0  1  0  0  0  0  0  0
  185.5600  177.2800  143.6660 N   0  0  1  0  0  0  0  0  0  0  0  0
  187.1110  176.4960  140.5430 C   0  0  0  0  0  0  0  0  0  0  0  0
  186.2130  177.1630  144.9850 C   0  0  2  0  0  3  0  0  0  0  0  0
  188.2760  176.6200  146.3490 C   0  0  1  0  0  3  0  0  0  0  0  0
  187.7910  175.4470  139.9260 C   0  0  0  0  0  0  0  0  0  0  0  0
  187.2140  176.6760  141.9290 C   0  0  0  0  0  0  0  0  0  0  0  0
  190.9350  171.8300  142.9770 C   0  0  0  0  0  3  0  0  0  0  0  0
  185.7610  178.3330  145.8260 C   0  0  0  0  0  2  0  0  0  0  0  0
  184.4420  178.2080  143.8330 C   0  0  0  0  0  2  0  0  0  0  0  0
  190.1270  172.2670  140.4660 Cl  0  0  0  0  0  0  0  0  0  0  0  0
  188.9720  175.0580  144.7770 C   0  0  0  0  0  0  0  0  0  0  0  0
  191.0510  172.0420  144.3480 C   0  0  0  0  0  3  0  0  0  0  0  0
  189.4870  173.7910  142.7620 C   0  0  0  0  0  0  0  0  0  0  0  0
  188.2040  175.9320  144.0670 C   0  0  0  0  0  0  0  0  0  0  0  0
  189.0970  177.6280  146.8530 O   0  0  0  0  0  1  0  0  0  0  0  0
  187.7410  177.0330  144.9630 C   0  0  1  0  0  3  0  0  0  0  0  0
  184.3980  178.6560  145.2800 C   0  0  0  0  0  2  0  0  0  0  0  0
  187.2070  179.0400  142.8580 C   0  0  0  0  0  1  0  0  0  0  0  0
  190.3960  173.1140  144.9410 C   0  0  0  0  0  3  0  0  0  0  0  0
  189.6180  173.9830  144.1710 C   0  0  0  0  0  0  0  0  0  0  0  0
  186.4000  177.7750  142.5600 C   0  0  2  0  0  3  0  0  0  0  0  0
  187.6850  175.2740  138.5450 O   0  0  0  0  0  0  0  0  0  0  0  0
  188.9430  174.5400  136.6430 C   0  0  0  0  0  1  0  0  0  0  0  0
  188.1910  174.1210  137.8880 C   0  0  0  0  0  2  0  0  0  0  0  0
  1  4  2  0  0  0  0
  1 19  1  0  0  0  0
  2 19  2  0  0  0  0
  2 13  1  0  0  0  0
  3 10  1  0  0  0  0
  4 20  1  0  0  0  0
  5  1  1  0  0  0  0
  6  8  1  0  0  0  0
  7 15  1  1  0  0  0
  7  9  1  0  0  0  0
  8 12  2  0  0  0  0
  9 14  1  1  0  0  0
 10 21  1  6  0  0  0
 11  8  1  0  0  0  0
 11  5  2  0  0  0  0
 12 27  1  0  0  0  0
 12  4  1  0  0  0  0
 13 18  2  0  0  0  0
 15 23  1  0  0  0  0
 16  2  1  0  0  0  0
 17  3  1  0  0  0  0
 18 25  1  0  0  0  0
 19 26  1  0  0  0  0
 20 17  2  0  0  0  0
 22 20  1  6  0  0  0
 22  9  1  0  0  0  0
 22 10  1  0  0  0  0
 23 14  1  0  0  0  0
 26 17  1  0  0  0  0
 26 25  2  0  0  0  0
 27 24  1  1  0  0  0
 27  7  1  0  0  0  0
 28 11  1  0  0  0  0
 29 30  1  0  0  0  0
 30 28  1  0  0  0  0
M  END
>  <MODEL>
8

>  <REMARK>
 VINA RESULT:      -7.5      2.712      5.657
  Name = 
  2 active torsions:
  status: ('A' for Active; 'I' for Inactive)
    1  A    between atoms: C_11  and  O_28
    2  A    between atoms: O_28  and  C_30
                            x       y       z     vdW  Elec       q    Type
                         _______ _______ _______ _____ _____    ______ ____

>  <TORSDO>
F 2

$$$$
=
 OpenBabel11112416203D

 30 35  0  0  1  0  0  0  0  0999 V2000
  187.1690  176.9890  143.2630 C   0  0  0  0  0  0  0  0  0  0  0  0
  186.1530  178.4590  145.0440 C   0  0  0  0  0  0  0  0  0  0  0  0
  189.3530  174.8620  146.1480 N   0  0  0  0  0  2  0  0  0  0  0  0
  188.0580  175.9280  142.9240 C   0  0  0  0  0  0  0  0  0  0  0  0
  186.4690  177.5950  142.2660 N   0  0  0  0  0  0  0  0  0  0  0  0
  187.5950  175.8890  139.2420 O   0  0  0  0  0  1  0  0  0  0  0  0
  190.5670  174.7920  141.6280 N   0  0  1  0  0  0  0  0  0  0  0  0
  187.4650  176.2300  140.5860 C   0  0  0  0  0  0  0  0  0  0  0  0
  190.8530  174.3000  142.9910 C   0  0  2  0  0  3  0  0  0  0  0  0
  190.0590  173.8630  145.3560 C   0  0  1  0  0  3  0  0  0  0  0  0
  186.5850  177.2450  140.9570 C   0  0  0  0  0  0  0  0  0  0  0  0
  188.2190  175.5660  141.5640 C   0  0  0  0  0  0  0  0  0  0  0  0
  186.0580  178.7890  146.3990 C   0  0  0  0  0  3  0  0  0  0  0  0
  191.6840  173.0450  142.8600 C   0  0  0  0  0  2  0  0  0  0  0  0
  191.5250  174.1400  140.7380 C   0  0  0  0  0  2  0  0  0  0  0  0
  185.1610  179.4350  143.9640 Cl  0  0  0  0  0  0  0  0  0  0  0  0
  188.6040  175.6700  145.2610 C   0  0  0  0  0  0  0  0  0  0  0  0
  186.7910  178.1000  147.3600 C   0  0  0  0  0  3  0  0  0  0  0  0
  187.0130  177.4000  144.6250 C   0  0  0  0  0  0  0  0  0  0  0  0
  188.7550  175.2890  143.9610 C   0  0  0  0  0  0  0  0  0  0  0  0
  189.6810  172.5860  145.7680 O   0  0  0  0  0  1  0  0  0  0  0  0
  189.6300  174.0820  143.8910 C   0  0  1  0  0  3  0  0  0  0  0  0
  192.4250  173.2450  141.5670 C   0  0  0  0  0  2  0  0  0  0  0  0
  188.7110  173.0930  141.2600 C   0  0  0  0  0  1  0  0  0  0  0  0
  187.6360  177.0660  146.9770 C   0  0  0  0  0  3  0  0  0  0  0  0
  187.7580  176.7130  145.6300 C   0  0  0  0  0  0  0  0  0  0  0  0
  189.2120  174.5310  141.1070 C   0  0  2  0  0  3  0  0  0  0  0  0
  185.8360  177.9010  139.9780 O   0  0  0  0  0  0  0  0  0  0  0  0
  183.6190  178.6160  140.5350 C   0  0  0  0  0  1  0  0  0  0  0  0
  184.4610  177.6210  139.7660 C   0  0  0  0  0  2  0  0  0  0  0  0
  1 19  1  0  0  0  0
  2 13  1  0  0  0  0
  4  1  2  0  0  0  0
  4 20  1  0  0  0  0
  5  1  1  0  0  0  0
  6  8  1  0  0  0  0
  7 15  1  6  0  0  0
  7  9  1  0  0  0  0
  8 11  1  0  0  0  0
  8 12  2  0  0  0  0
  9 14  1  6  0  0  0
  9 22  1  0  0  0  0
 10 21  1  1  0  0  0
 10  3  1  0  0  0  0
 11  5  2  0  0  0  0
 12  4  1  0  0  0  0
 13 18  2  0  0  0  0
 15 23  1  0  0  0  0
 16  2  1  0  0  0  0
 17 26  1  0  0  0  0
 17  3  1  0  0  0  0
 19  2  2  0  0  0  0
 19 26  1  0  0  0  0
 20 17  2  0  0  0  0
 22 20  1  1  0  0  0
 22 10  1  0  0  0  0
 23 14  1  0  0  0  0
 25 18  1  0  0  0  0
 26 25  2  0  0  0  0
 27 24  1  1  0  0  0
 27 12  1  0  0  0  0
 27  7  1  0  0  0  0
 28 11  1  0  0  0  0
 30 28  1  0  0  0  0
 30 29  1  0  0  0  0
M  END
>  <MODEL>
9

>  <REMARK>
 VINA RESULT:      -7.3      1.346      1.542
  Name = 
  2 active torsions:
  status: ('A' for Active; 'I' for Inactive)
    1  A    between atoms: C_11  and  O_28
    2  A    between atoms: O_28  and  C_30
                            x       y       z     vdW  Elec       q    Type
                         _______ _______ _______ _____ _____    ______ ____

>  <TORSDO>
F 2

$$$$
