=
 OpenBabel11112417093D

 37 44  0  0  1  0  0  0  0  0999 V2000
  189.8570  174.1760  140.9360 O   0  0  0  0  0  0  0  0  0  0  0  0
  187.3480  177.1130  142.9480 C   0  0  0  0  0  0  0  0  0  0  0  0
  191.0460  176.2580  144.9480 C   0  0  1  0  0  3  0  0  0  0  0  0
  189.3650  173.0710  140.2230 C   0  0  2  0  0  3  0  0  0  0  0  0
  193.1760  173.7740  143.2040 O   0  0  0  0  0  0  0  0  0  0  0  0
  188.7770  177.3430  144.9820 C   0  0  2  0  0  3  0  0  0  0  0  0
  191.2790  174.9800  144.2740 N   0  0  0  0  0  0  0  0  0  0  0  0
  191.8570  172.7690  139.8190 C   0  0  0  0  0  0  0  0  0  0  0  0
  189.7630  176.7210  144.3460 C   0  0  2  0  0  3  0  0  0  0  0  0
  192.5750  174.3180  144.3610 C   0  0  0  0  0  0  0  0  0  0  0  0
  188.9280  177.6240  146.4210 C   0  0  0  0  0  3  0  0  0  0  0  0
  190.4610  172.4340  139.3610 C   0  0  0  0  0  2  0  0  0  0  0  0
  189.4060  175.8530  143.2840 C   0  0  0  0  0  0  0  0  0  0  0  0
  187.6650  178.2820  142.0330 C   0  0  0  0  0  1  0  0  0  0  0  0
  191.7090  175.4300  147.1960 C   0  0  0  0  0  3  0  0  0  0  0  0
  189.9130  177.0310  147.1120 C   0  0  0  0  0  3  0  0  0  0  0  0
  188.1950  176.0010  142.6080 O   0  0  0  0  0  0  0  0  0  0  0  0
  192.3460  172.4610  141.2100 C   0  0  1  0  0  3  0  0  0  0  0  0
  192.4700  173.7510  141.9880 C   0  0  1  0  0  3  0  0  0  0  0  0
  190.8890  176.1400  146.4330 C   0  0  0  0  0  0  0  0  0  0  0  0
  190.2670  174.8570  143.2200 C   0  0  0  0  0  0  0  0  0  0  0  0
  187.5450  177.5160  144.3220 O   0  0  0  0  0  0  0  0  0  0  0  0
  193.2490  174.2020  145.5340 C   0  0  0  0  0  0  0  0  0  0  0  0
  185.9010  176.7170  142.7450 C   0  0  0  0  0  1  0  0  0  0  0  0
  191.3350  172.7910  142.3050 C   0  0  1  0  0  3  0  0  0  0  0  0
  192.6280  173.2730  139.0180 O   0  0  0  0  0  0  0  0  0  0  0  0
  190.1120  173.7030  142.2360 C   0  0  2  0  0  3  0  0  0  0  0  0
  192.7860  174.6290  146.7950 O   0  0  0  0  0  0  0  0  0  0  0  0
  195.7310  174.3140  145.6940 C   0  0  0  0  0  3  0  0  0  0  0  0
  194.5720  173.5310  145.5780 C   0  0  0  0  0  0  0  0  0  0  0  0
  194.6960  172.1310  145.5900 C   0  0  0  0  0  3  0  0  0  0  0  0
  196.0890  169.7850  145.6740 Cl  0  0  0  0  0  0  0  0  0  0  0  0
  197.1010  172.3190  145.7740 C   0  0  0  0  0  3  0  0  0  0  0  0
  195.9540  171.5290  145.6780 C   0  0  0  0  0  0  0  0  0  0  0  0
  196.9900  173.7120  145.7850 C   0  0  0  0  0  3  0  0  0  0  0  0
  188.7030  173.8630  137.9580 C   0  0  0  0  0  1  0  0  0  0  0  0
  188.2040  173.4910  139.3400 C   0  0  0  0  0  2  0  0  0  0  0  0
  1 27  1  0  0  0  0
  2 22  1  0  0  0  0
  3 20  1  1  0  0  0
  4 37  1  6  0  0  0
  4  1  1  0  0  0  0
  5 10  1  0  0  0  0
  6 11  1  1  0  0  0
  7 10  1  0  0  0  0
  7  3  1  0  0  0  0
  9 13  1  1  0  0  0
  9  3  1  0  0  0  0
  9  6  1  0  0  0  0
 10 23  2  0  0  0  0
 11 16  2  0  0  0  0
 12  8  1  0  0  0  0
 12  4  1  0  0  0  0
 14  2  1  0  0  0  0
 17  2  1  0  0  0  0
 17 13  1  0  0  0  0
 18  8  1  6  0  0  0
 18 19  1  0  0  0  0
 18 25  1  0  0  0  0
 19 25  1  0  0  0  0
 19  5  1  1  0  0  0
 20 16  1  0  0  0  0
 20 15  2  0  0  0  0
 21 13  2  0  0  0  0
 21  7  1  0  0  0  0
 22  6  1  0  0  0  0
 23 30  1  0  0  0  0
 23 28  1  0  0  0  0
 24  2  1  0  0  0  0
 26  8  2  0  0  0  0
 27 25  1  0  0  0  0
 27 21  1  0  0  0  0
 28 15  1  0  0  0  0
 29 35  1  0  0  0  0
 30 31  1  0  0  0  0
 30 29  2  0  0  0  0
 31 34  2  0  0  0  0
 32 34  1  0  0  0  0
 33 35  2  0  0  0  0
 34 33  1  0  0  0  0
 36 37  1  0  0  0  0
M  END
>  <MODEL>
1

>  <REMARK>
 VINA RESULT:      -8.7      0.000      0.000
  Name = 
  2 active torsions:
  status: ('A' for Active; 'I' for Inactive)
    1  A    between atoms: C_4  and  C_37
    2  A    between atoms: C_23  and  C_30
                            x       y       z     vdW  Elec       q    Type
                         _______ _______ _______ _____ _____    ______ ____

>  <TORSDO>
F 2

$$$$
=
 OpenBabel11112417093D

 37 44  0  0  1  0  0  0  0  0999 V2000
  191.0720  173.1870  140.9890 O   0  0  0  0  0  0  0  0  0  0  0  0
  194.9880  172.6870  142.8290 C   0  0  0  0  0  0  0  0  0  0  0  0
  192.0900  174.6520  145.3100 C   0  0  1  0  0  3  0  0  0  0  0  0
  190.8660  173.4370  139.6230 C   0  0  2  0  0  3  0  0  0  0  0  0
  188.7580  175.0430  143.7310 O   0  0  0  0  0  0  0  0  0  0  0  0
  194.4800  173.9790  144.9050 C   0  0  2  0  0  3  0  0  0  0  0  0
  191.2000  175.0340  144.2120 N   0  0  0  0  0  0  0  0  0  0  0  0
  188.4500  173.2990  140.4040 C   0  0  0  0  0  0  0  0  0  0  0  0
  193.1860  173.9230  144.6100 C   0  0  2  0  0  3  0  0  0  0  0  0
  189.8550  175.5240  144.4820 C   0  0  0  0  0  0  0  0  0  0  0  0
  194.9140  174.8290  146.0270 C   0  0  0  0  0  3  0  0  0  0  0  0
  189.3990  173.2250  139.2350 C   0  0  0  0  0  2  0  0  0  0  0  0
  192.8370  173.7530  143.2460 C   0  0  0  0  0  0  0  0  0  0  0  0
  194.8460  171.2130  143.1630 C   0  0  0  0  0  1  0  0  0  0  0  0
  191.9310  176.8410  146.4760 C   0  0  0  0  0  3  0  0  0  0  0  0
  194.0590  175.7190  146.5540 C   0  0  0  0  0  3  0  0  0  0  0  0
  193.7310  173.1850  142.3390 O   0  0  0  0  0  0  0  0  0  0  0  0
  188.3580  174.5120  141.2930 C   0  0  1  0  0  3  0  0  0  0  0  0
  188.9740  174.1890  142.6350 C   0  0  1  0  0  3  0  0  0  0  0  0
  192.6620  175.8160  146.0600 C   0  0  0  0  0  0  0  0  0  0  0  0
  191.6990  174.3720  143.0020 C   0  0  0  0  0  0  0  0  0  0  0  0
  195.4060  173.4050  144.0120 O   0  0  0  0  0  0  0  0  0  0  0  0
  189.6010  176.4430  145.4490 C   0  0  0  0  0  0  0  0  0  0  0  0
  196.0400  172.8410  141.7520 C   0  0  0  0  0  1  0  0  0  0  0  0
  189.7140  175.1020  141.6710 C   0  0  1  0  0  3  0  0  0  0  0  0
  187.7050  172.3550  140.6110 O   0  0  0  0  0  0  0  0  0  0  0  0
  191.0940  174.4520  141.6060 C   0  0  2  0  0  3  0  0  0  0  0  0
  190.5680  177.0760  146.2550 O   0  0  0  0  0  0  0  0  0  0  0  0
  187.5090  176.3920  146.7970 C   0  0  0  0  0  3  0  0  0  0  0  0
  188.2140  176.9080  145.7000 C   0  0  0  0  0  0  0  0  0  0  0  0
  187.6130  177.9100  144.9190 C   0  0  0  0  0  3  0  0  0  0  0  0
  185.5850  179.5960  144.2150 Cl  0  0  0  0  0  0  0  0  0  0  0  0
  185.6240  177.8250  146.2940 C   0  0  0  0  0  3  0  0  0  0  0  0
  186.3220  178.3590  145.2090 C   0  0  0  0  0  0  0  0  0  0  0  0
  186.2180  176.8430  147.0900 C   0  0  0  0  0  3  0  0  0  0  0  0
  192.3550  171.4430  139.6490 C   0  0  0  0  0  1  0  0  0  0  0  0
  191.7490  172.5310  138.7850 C   0  0  0  0  0  2  0  0  0  0  0  0
  1 27  1  0  0  0  0
  2 14  1  0  0  0  0
  2 22  1  0  0  0  0
  3 20  1  6  0  0  0
  4 37  1  6  0  0  0
  4  1  1  0  0  0  0
  5 10  1  0  0  0  0
  6 11  1  6  0  0  0
  7 10  1  0  0  0  0
  7  3  1  0  0  0  0
  8 26  2  0  0  0  0
  9 13  1  6  0  0  0
  9  6  1  0  0  0  0
  9  3  1  0  0  0  0
 10 23  2  0  0  0  0
 11 16  2  0  0  0  0
 12  4  1  0  0  0  0
 12  8  1  0  0  0  0
 17  2  1  0  0  0  0
 17 13  1  0  0  0  0
 18  8  1  6  0  0  0
 18 25  1  0  0  0  0
 18 19  1  0  0  0  0
 19  5  1  1  0  0  0
 20 15  2  0  0  0  0
 20 16  1  0  0  0  0
 21 13  2  0  0  0  0
 21  7  1  0  0  0  0
 22  6  1  0  0  0  0
 23 30  1  0  0  0  0
 23 28  1  0  0  0  0
 24  2  1  0  0  0  0
 25 19  1  0  0  0  0
 27 25  1  0  0  0  0
 27 21  1  0  0  0  0
 28 15  1  0  0  0  0
 29 35  1  0  0  0  0
 30 29  2  0  0  0  0
 31 34  2  0  0  0  0
 31 30  1  0  0  0  0
 32 34  1  0  0  0  0
 33 35  2  0  0  0  0
 34 33  1  0  0  0  0
 37 36  1  0  0  0  0
M  END
>  <MODEL>
2

>  <REMARK>
 VINA RESULT:      -8.7      3.013      6.586
  Name = 
  2 active torsions:
  status: ('A' for Active; 'I' for Inactive)
    1  A    between atoms: C_4  and  C_37
    2  A    between atoms: C_23  and  C_30
                            x       y       z     vdW  Elec       q    Type
                         _______ _______ _______ _____ _____    ______ ____

>  <TORSDO>
F 2

$$$$
=
 OpenBabel11112417093D

 37 44  0  0  1  0  0  0  0  0999 V2000
  194.0100  174.5910  144.1900 O   0  0  0  0  0  0  0  0  0  0  0  0
  193.7650  172.3780  140.4470 C   0  0  0  0  0  0  0  0  0  0  0  0
  190.2050  174.5410  141.4760 C   0  0  1  0  0  3  0  0  0  0  0  0
  194.7200  174.1560  145.3210 C   0  0  2  0  0  3  0  0  0  0  0  0
  190.4470  176.4370  144.6530 O   0  0  0  0  0  0  0  0  0  0  0  0
  191.3520  172.8470  140.0120 C   0  0  2  0  0  3  0  0  0  0  0  0
  190.5260  174.6740  142.8980 N   0  0  0  0  0  0  0  0  0  0  0  0
  193.8980  176.4090  146.1680 C   0  0  0  0  0  0  0  0  0  0  0  0
  191.3800  173.7980  140.9390 C   0  0  2  0  0  3  0  0  0  0  0  0
  189.7730  175.5850  143.7490 C   0  0  0  0  0  0  0  0  0  0  0  0
  190.0530  172.4620  139.4320 C   0  0  0  0  0  3  0  0  0  0  0  0
  194.8950  175.2910  146.3360 C   0  0  0  0  0  2  0  0  0  0  0  0
  192.3660  173.6880  141.9520 C   0  0  0  0  0  0  0  0  0  0  0  0
  194.5770  173.3470  139.6080 C   0  0  0  0  0  1  0  0  0  0  0  0
  187.8160  173.9670  141.8580 C   0  0  0  0  0  3  0  0  0  0  0  0
  188.9170  172.8740  140.0170 C   0  0  0  0  0  3  0  0  0  0  0  0
  193.5330  172.9530  141.7450 O   0  0  0  0  0  0  0  0  0  0  0  0
  192.4110  176.1790  146.2240 C   0  0  1  0  0  3  0  0  0  0  0  0
  191.8370  176.3160  144.8320 C   0  0  1  0  0  3  0  0  0  0  0  0
  188.9540  173.7610  141.2080 C   0  0  0  0  0  0  0  0  0  0  0  0
  191.9010  174.1940  143.0770 C   0  0  0  0  0  0  0  0  0  0  0  0
  192.5170  172.0940  139.7750 O   0  0  0  0  0  0  0  0  0  0  0  0
  188.4170  175.6580  143.7070 C   0  0  0  0  0  0  0  0  0  0  0  0
  194.5530  171.0940  140.6040 C   0  0  0  0  0  1  0  0  0  0  0  0
  191.9510  174.9380  145.4620 C   0  0  1  0  0  3  0  0  0  0  0  0
  194.3170  177.5460  146.0200 O   0  0  0  0  0  0  0  0  0  0  0  0
  192.6880  174.1500  144.3810 C   0  0  2  0  0  3  0  0  0  0  0  0
  187.5740  174.8520  142.9170 O   0  0  0  0  0  0  0  0  0  0  0  0
  187.7200  176.4190  145.9730 C   0  0  0  0  0  3  0  0  0  0  0  0
  187.6870  176.6090  144.5830 C   0  0  0  0  0  0  0  0  0  0  0  0
  187.0320  177.7410  144.0690 C   0  0  0  0  0  3  0  0  0  0  0  0
  185.5660  180.0350  144.2630 Cl  0  0  0  0  0  0  0  0  0  0  0  0
  186.4160  178.4320  146.3040 C   0  0  0  0  0  3  0  0  0  0  0  0
  186.3910  178.6410  144.9240 C   0  0  0  0  0  0  0  0  0  0  0  0
  187.0820  177.3220  146.8290 C   0  0  0  0  0  3  0  0  0  0  0  0
  196.9510  173.4160  146.1380 C   0  0  0  0  0  1  0  0  0  0  0  0
  196.0810  173.6240  144.9140 C   0  0  0  0  0  2  0  0  0  0  0  0
  1 27  1  0  0  0  0
  1  4  1  0  0  0  0
  2 24  1  0  0  0  0
  2 17  1  0  0  0  0
  3 20  1  1  0  0  0
  3  7  1  0  0  0  0
  4 37  1  6  0  0  0
  4 12  1  0  0  0  0
  6 11  1  1  0  0  0
  6  9  1  0  0  0  0
  7 21  1  0  0  0  0
  7 10  1  0  0  0  0
  8 12  1  0  0  0  0
  9  3  1  0  0  0  0
  9 13  1  1  0  0  0
 10  5  1  0  0  0  0
 11 16  2  0  0  0  0
 13 21  2  0  0  0  0
 14  2  1  0  0  0  0
 15 28  1  0  0  0  0
 16 20  1  0  0  0  0
 17 13  1  0  0  0  0
 18  8  1  6  0  0  0
 19  5  1  1  0  0  0
 19 25  1  0  0  0  0
 19 18  1  0  0  0  0
 20 15  2  0  0  0  0
 21 27  1  0  0  0  0
 22  6  1  0  0  0  0
 22  2  1  0  0  0  0
 23 10  2  0  0  0  0
 23 30  1  0  0  0  0
 25 18  1  0  0  0  0
 26  8  2  0  0  0  0
 27 25  1  0  0  0  0
 28 23  1  0  0  0  0
 29 35  1  0  0  0  0
 30 29  2  0  0  0  0
 31 30  1  0  0  0  0
 31 34  2  0  0  0  0
 32 34  1  0  0  0  0
 33 35  2  0  0  0  0
 34 33  1  0  0  0  0
 37 36  1  0  0  0  0
M  END
>  <MODEL>
3

>  <REMARK>
 VINA RESULT:      -8.6      2.946      7.796
  Name = 
  2 active torsions:
  status: ('A' for Active; 'I' for Inactive)
    1  A    between atoms: C_4  and  C_37
    2  A    between atoms: C_23  and  C_30
                            x       y       z     vdW  Elec       q    Type
                         _______ _______ _______ _____ _____    ______ ____

>  <TORSDO>
F 2

$$$$
=
 OpenBabel11112417093D

 37 44  0  0  1  0  0  0  0  0999 V2000
  189.7060  176.3500  145.3650 O   0  0  0  0  0  0  0  0  0  0  0  0
  186.3630  178.2220  147.4360 C   0  0  0  0  0  0  0  0  0  0  0  0
  185.5700  177.1780  143.3500 C   0  0  1  0  0  3  0  0  0  0  0  0
  191.0540  176.6750  145.5830 C   0  0  2  0  0  3  0  0  0  0  0  0
  188.4220  175.5620  141.6160 O   0  0  0  0  0  0  0  0  0  0  0  0
  184.8620  178.3760  145.4460 C   0  0  2  0  0  3  0  0  0  0  0  0
  186.9760  177.0860  142.9520 N   0  0  0  0  0  0  0  0  0  0  0  0
  191.3330  174.8020  143.8860 C   0  0  0  0  0  0  0  0  0  0  0  0
  185.6570  177.5340  144.7950 C   0  0  2  0  0  3  0  0  0  0  0  0
  187.3510  176.4820  141.6800 C   0  0  0  0  0  0  0  0  0  0  0  0
  183.7760  179.0410  144.7050 C   0  0  0  0  0  3  0  0  0  0  0  0
  191.9850  175.6240  144.9670 C   0  0  0  0  0  2  0  0  0  0  0  0
  187.0100  177.4630  145.2130 C   0  0  0  0  0  0  0  0  0  0  0  0
  185.9380  177.0040  148.2350 C   0  0  0  0  0  1  0  0  0  0  0  0
  184.8560  178.3950  141.3040 C   0  0  0  0  0  3  0  0  0  0  0  0
  183.7650  178.9960  143.3640 C   0  0  0  0  0  3  0  0  0  0  0  0
  187.3880  177.8420  146.5000 O   0  0  0  0  0  0  0  0  0  0  0  0
  190.7200  175.4220  142.6580 C   0  0  1  0  0  3  0  0  0  0  0  0
  189.2150  175.3240  142.7530 C   0  0  1  0  0  3  0  0  0  0  0  0
  184.8020  178.2360  142.6190 C   0  0  0  0  0  0  0  0  0  0  0  0
  187.7790  177.1970  144.1750 C   0  0  0  0  0  0  0  0  0  0  0  0
  185.2130  178.7690  146.7520 O   0  0  0  0  0  0  0  0  0  0  0  0
  186.6970  176.7690  140.5250 C   0  0  0  0  0  0  0  0  0  0  0  0
  186.9180  179.2590  148.3890 C   0  0  0  0  0  1  0  0  0  0  0  0
  189.8910  176.6710  142.9480 C   0  0  1  0  0  3  0  0  0  0  0  0
  191.3370  173.5860  143.9960 O   0  0  0  0  0  0  0  0  0  0  0  0
  189.2980  177.1410  144.2750 C   0  0  2  0  0  3  0  0  0  0  0  0
  185.6490  177.6990  140.3820 O   0  0  0  0  0  0  0  0  0  0  0  0
  187.8320  174.9260  139.2940 C   0  0  0  0  0  3  0  0  0  0  0  0
  187.1030  176.1240  139.2510 C   0  0  0  0  0  0  0  0  0  0  0  0
  186.7110  176.6330  138.0010 C   0  0  0  0  0  3  0  0  0  0  0  0
  186.5870  176.6360  135.2740 Cl  0  0  0  0  0  0  0  0  0  0  0  0
  187.8120  174.7950  136.8770 C   0  0  0  0  0  3  0  0  0  0  0  0
  187.0710  175.9770  136.8210 C   0  0  0  0  0  0  0  0  0  0  0  0
  188.1900  174.2680  138.1140 C   0  0  0  0  0  3  0  0  0  0  0  0
  191.1920  175.4360  147.7380 C   0  0  0  0  0  1  0  0  0  0  0  0
  191.3320  176.7900  147.0710 C   0  0  0  0  0  2  0  0  0  0  0  0
  1  4  1  0  0  0  0
  2 14  1  0  0  0  0
  2 24  1  0  0  0  0
  3 20  1  6  0  0  0
  3  9  1  0  0  0  0
  4 37  1  1  0  0  0
  5 10  1  0  0  0  0
  6 11  1  6  0  0  0
  6 22  1  0  0  0  0
  7  3  1  0  0  0  0
  7 21  1  0  0  0  0
  8 26  2  0  0  0  0
  8 12  1  0  0  0  0
  9 13  1  6  0  0  0
  9  6  1  0  0  0  0
 10  7  1  0  0  0  0
 12  4  1  0  0  0  0
 13 17  1  0  0  0  0
 15 20  2  0  0  0  0
 16 11  2  0  0  0  0
 17  2  1  0  0  0  0
 18 19  1  0  0  0  0
 18 25  1  0  0  0  0
 18  8  1  1  0  0  0
 19  5  1  6  0  0  0
 19 25  1  0  0  0  0
 20 16  1  0  0  0  0
 21 27  1  0  0  0  0
 21 13  2  0  0  0  0
 22  2  1  0  0  0  0
 23 10  2  0  0  0  0
 25 27  1  0  0  0  0
 27  1  1  0  0  0  0
 28 23  1  0  0  0  0
 28 15  1  0  0  0  0
 30 29  1  0  0  0  0
 30 23  1  0  0  0  0
 31 30  2  0  0  0  0
 32 34  1  0  0  0  0
 33 35  1  0  0  0  0
 34 33  2  0  0  0  0
 34 31  1  0  0  0  0
 35 29  2  0  0  0  0
 37 36  1  0  0  0  0
M  END
>  <MODEL>
4

>  <REMARK>
 VINA RESULT:      -8.5      3.887      7.739
  Name = 
  2 active torsions:
  status: ('A' for Active; 'I' for Inactive)
    1  A    between atoms: C_4  and  C_37
    2  A    between atoms: C_23  and  C_30
                            x       y       z     vdW  Elec       q    Type
                         _______ _______ _______ _____ _____    ______ ____

>  <TORSDO>
F 2

$$$$
=
 OpenBabel11112417093D

 37 44  0  0  1  0  0  0  0  0999 V2000
  190.8250  173.3140  141.3400 O   0  0  0  0  0  0  0  0  0  0  0  0
  193.7420  173.0230  144.5620 C   0  0  0  0  0  0  0  0  0  0  0  0
  190.2040  175.2380  145.5550 C   0  0  1  0  0  3  0  0  0  0  0  0
  191.1570  173.4150  139.9800 C   0  0  2  0  0  3  0  0  0  0  0  0
  187.7250  175.4510  142.8050 O   0  0  0  0  0  0  0  0  0  0  0  0
  192.5430  174.5300  146.1510 C   0  0  2  0  0  3  0  0  0  0  0  0
  189.8060  175.4980  144.1700 N   0  0  0  0  0  0  0  0  0  0  0  0
  188.6210  173.3570  139.8020 C   0  0  0  0  0  0  0  0  0  0  0  0
  191.4530  174.4400  145.3970 C   0  0  2  0  0  3  0  0  0  0  0  0
  188.4780  176.0120  143.8610 C   0  0  0  0  0  0  0  0  0  0  0  0
  192.5570  175.4980  147.2620 C   0  0  0  0  0  3  0  0  0  0  0  0
  189.9350  173.1590  139.0900 C   0  0  0  0  0  2  0  0  0  0  0  0
  191.6350  174.1240  144.0270 C   0  0  0  0  0  0  0  0  0  0  0  0
  193.4280  171.5940  144.9640 C   0  0  0  0  0  1  0  0  0  0  0  0
  189.7040  177.5410  146.3480 C   0  0  0  0  0  3  0  0  0  0  0  0
  191.6020  176.4370  147.3360 C   0  0  0  0  0  3  0  0  0  0  0  0
  192.7810  173.4630  143.5860 O   0  0  0  0  0  0  0  0  0  0  0  0
  188.2490  174.6590  140.4630 C   0  0  1  0  0  3  0  0  0  0  0  0
  188.3040  174.4840  141.9630 C   0  0  1  0  0  3  0  0  0  0  0  0
  190.4970  176.4780  146.3440 C   0  0  0  0  0  0  0  0  0  0  0  0
  190.6960  174.7110  143.3100 C   0  0  0  0  0  0  0  0  0  0  0  0
  193.7130  173.8660  145.7360 O   0  0  0  0  0  0  0  0  0  0  0  0
  187.9160  177.0290  144.5640 C   0  0  0  0  0  0  0  0  0  0  0  0
  195.1270  173.0630  143.9510 C   0  0  0  0  0  1  0  0  0  0  0  0
  189.3860  175.2890  141.2630 C   0  0  1  0  0  3  0  0  0  0  0  0
  187.8170  172.4390  139.8060 O   0  0  0  0  0  0  0  0  0  0  0  0
  190.6640  174.6380  141.7890 C   0  0  2  0  0  3  0  0  0  0  0  0
  188.5330  177.7480  145.6070 O   0  0  0  0  0  0  0  0  0  0  0  0
  185.7040  177.9350  145.2580 C   0  0  0  0  0  3  0  0  0  0  0  0
  186.5550  177.5160  144.2250 C   0  0  0  0  0  0  0  0  0  0  0  0
  186.1220  177.6470  142.8940 C   0  0  0  0  0  3  0  0  0  0  0  0
  184.3240  178.2910  140.9440 Cl  0  0  0  0  0  0  0  0  0  0  0  0
  184.0060  178.5480  143.6440 C   0  0  0  0  0  3  0  0  0  0  0  0
  184.8510  178.1510  142.6060 C   0  0  0  0  0  0  0  0  0  0  0  0
  184.4330  178.4430  144.9700 C   0  0  0  0  0  3  0  0  0  0  0  0
  192.3810  171.3780  140.7200 C   0  0  0  0  0  1  0  0  0  0  0  0
  192.2540  172.4260  139.6320 C   0  0  0  0  0  2  0  0  0  0  0  0
  1 27  1  0  0  0  0
  2 14  1  0  0  0  0
  2 22  1  0  0  0  0
  3 20  1  1  0  0  0
  4 37  1  6  0  0  0
  4  1  1  0  0  0  0
  5 10  1  0  0  0  0
  6 11  1  6  0  0  0
  7  3  1  0  0  0  0
  8 26  2  0  0  0  0
  9 13  1  6  0  0  0
  9  3  1  0  0  0  0
  9  6  1  0  0  0  0
 10  7  1  0  0  0  0
 10 23  2  0  0  0  0
 11 16  2  0  0  0  0
 12  8  1  0  0  0  0
 12  4  1  0  0  0  0
 17 13  1  0  0  0  0
 17  2  1  0  0  0  0
 18  8  1  6  0  0  0
 18 25  1  0  0  0  0
 18 19  1  0  0  0  0
 19  5  1  1  0  0  0
 20 15  2  0  0  0  0
 20 16  1  0  0  0  0
 21 13  2  0  0  0  0
 21  7  1  0  0  0  0
 22  6  1  0  0  0  0
 23 28  1  0  0  0  0
 24  2  1  0  0  0  0
 25 27  1  0  0  0  0
 25 19  1  0  0  0  0
 27 21  1  0  0  0  0
 28 15  1  0  0  0  0
 30 23  1  0  0  0  0
 30 29  2  0  0  0  0
 31 30  1  0  0  0  0
 32 34  1  0  0  0  0
 33 35  2  0  0  0  0
 34 31  2  0  0  0  0
 34 33  1  0  0  0  0
 35 29  1  0  0  0  0
 37 36  1  0  0  0  0
M  END
>  <MODEL>
5

>  <REMARK>
 VINA RESULT:      -8.3      2.937      6.928
  Name = 
  2 active torsions:
  status: ('A' for Active; 'I' for Inactive)
    1  A    between atoms: C_4  and  C_37
    2  A    between atoms: C_23  and  C_30
                            x       y       z     vdW  Elec       q    Type
                         _______ _______ _______ _____ _____    ______ ____

>  <TORSDO>
F 2

$$$$
=
 OpenBabel11112417093D

 37 44  0  0  1  0  0  0  0  0999 V2000
  189.9670  175.5610  145.7920 O   0  0  0  0  0  0  0  0  0  0  0  0
  186.5900  177.9520  147.1540 C   0  0  0  0  0  0  0  0  0  0  0  0
  186.2460  176.5120  143.1270 C   0  0  1  0  0  3  0  0  0  0  0  0
  191.3000  175.7890  146.1680 C   0  0  2  0  0  3  0  0  0  0  0  0
  189.1200  174.4590  141.9980 O   0  0  0  0  0  0  0  0  0  0  0  0
  185.3930  178.0040  144.9640 C   0  0  2  0  0  3  0  0  0  0  0  0
  187.6750  176.2500  142.9470 N   0  0  0  0  0  0  0  0  0  0  0  0
  191.6070  173.7140  144.7310 C   0  0  0  0  0  0  0  0  0  0  0  0
  186.1760  177.0240  144.5250 C   0  0  2  0  0  3  0  0  0  0  0  0
  188.1520  175.4710  141.8120 C   0  0  0  0  0  0  0  0  0  0  0  0
  184.4910  178.6710  144.0090 C   0  0  0  0  0  3  0  0  0  0  0  0
  192.1910  174.5960  145.8040 C   0  0  0  0  0  2  0  0  0  0  0  0
  187.4460  176.8840  145.1380 C   0  0  0  0  0  0  0  0  0  0  0  0
  185.9380  176.8780  148.0050 C   0  0  0  0  0  1  0  0  0  0  0  0
  185.9420  177.5400  140.8840 C   0  0  0  0  0  3  0  0  0  0  0  0
  184.6550  178.4720  142.6920 C   0  0  0  0  0  3  0  0  0  0  0  0
  187.6850  177.3750  146.4210 O   0  0  0  0  0  0  0  0  0  0  0  0
  191.2320  174.2380  143.3700 C   0  0  1  0  0  3  0  0  0  0  0  0
  189.7250  174.2860  143.2560 C   0  0  1  0  0  3  0  0  0  0  0  0
  185.6960  177.5410  142.1870 C   0  0  0  0  0  0  0  0  0  0  0  0
  188.3150  176.4310  144.2550 C   0  0  0  0  0  0  0  0  0  0  0  0
  185.6050  178.5140  146.2590 O   0  0  0  0  0  0  0  0  0  0  0  0
  187.6920  175.6780  140.5510 C   0  0  0  0  0  0  0  0  0  0  0  0
  187.1170  179.0390  148.0660 C   0  0  0  0  0  1  0  0  0  0  0  0
  190.5050  175.5810  143.4070 C   0  0  1  0  0  3  0  0  0  0  0  0
  191.4700  172.5230  144.9650 O   0  0  0  0  0  0  0  0  0  0  0  0
  189.7920  176.2530  144.5790 C   0  0  2  0  0  3  0  0  0  0  0  0
  186.7750  176.6740  140.1630 O   0  0  0  0  0  0  0  0  0  0  0  0
  187.8150  175.1870  138.1130 C   0  0  0  0  0  3  0  0  0  0  0  0
  188.1950  174.8550  139.4220 C   0  0  0  0  0  0  0  0  0  0  0  0
  189.1060  173.8030  139.6170 C   0  0  0  0  0  3  0  0  0  0  0  0
  190.7170  171.7580  138.7930 Cl  0  0  0  0  0  0  0  0  0  0  0  0
  189.1960  173.4050  137.2320 C   0  0  0  0  0  3  0  0  0  0  0  0
  189.5960  173.0760  138.5290 C   0  0  0  0  0  0  0  0  0  0  0  0
  188.3080  174.4620  137.0240 C   0  0  0  0  0  3  0  0  0  0  0  0
  190.7650  177.3940  147.9940 C   0  0  0  0  0  1  0  0  0  0  0  0
  191.3870  176.0530  147.6600 C   0  0  0  0  0  2  0  0  0  0  0  0
  1  4  1  0  0  0  0
  2 14  1  0  0  0  0
  2 24  1  0  0  0  0
  3 20  1  6  0  0  0
  3  9  1  0  0  0  0
  4 37  1  1  0  0  0
  6 11  1  6  0  0  0
  6 22  1  0  0  0  0
  7  3  1  0  0  0  0
  7 21  1  0  0  0  0
  8 26  2  0  0  0  0
  8 12  1  0  0  0  0
  9  6  1  0  0  0  0
  9 13  1  6  0  0  0
 10  5  1  0  0  0  0
 10  7  1  0  0  0  0
 12  4  1  0  0  0  0
 13 17  1  0  0  0  0
 15 20  2  0  0  0  0
 16 11  2  0  0  0  0
 17  2  1  0  0  0  0
 18 25  1  0  0  0  0
 18  8  1  1  0  0  0
 19  5  1  6  0  0  0
 19 18  1  0  0  0  0
 19 25  1  0  0  0  0
 20 16  1  0  0  0  0
 21 27  1  0  0  0  0
 21 13  2  0  0  0  0
 22  2  1  0  0  0  0
 23 10  2  0  0  0  0
 25 27  1  0  0  0  0
 27  1  1  0  0  0  0
 28 23  1  0  0  0  0
 28 15  1  0  0  0  0
 29 30  1  0  0  0  0
 30 31  2  0  0  0  0
 30 23  1  0  0  0  0
 33 34  2  0  0  0  0
 34 32  1  0  0  0  0
 34 31  1  0  0  0  0
 35 33  1  0  0  0  0
 35 29  2  0  0  0  0
 37 36  1  0  0  0  0
M  END
>  <MODEL>
6

>  <REMARK>
 VINA RESULT:      -8.2      2.873      6.883
  Name = 
  2 active torsions:
  status: ('A' for Active; 'I' for Inactive)
    1  A    between atoms: C_4  and  C_37
    2  A    between atoms: C_23  and  C_30
                            x       y       z     vdW  Elec       q    Type
                         _______ _______ _______ _____ _____    ______ ____

>  <TORSDO>
F 2

$$$$
=
 OpenBabel11112417093D

 37 44  0  0  1  0  0  0  0  0999 V2000
  194.3320  174.4210  144.1020 O   0  0  0  0  0  0  0  0  0  0  0  0
  194.3150  171.8060  140.6190 C   0  0  0  0  0  0  0  0  0  0  0  0
  190.6920  174.0330  141.1950 C   0  0  1  0  0  3  0  0  0  0  0  0
  194.9750  174.1210  145.3140 C   0  0  2  0  0  3  0  0  0  0  0  0
  190.7400  176.2700  144.1510 O   0  0  0  0  0  0  0  0  0  0  0  0
  191.9300  172.2000  139.9960 C   0  0  2  0  0  3  0  0  0  0  0  0
  190.9290  174.3250  142.6090 N   0  0  0  0  0  0  0  0  0  0  0  0
  194.0970  176.4450  145.8570 C   0  0  0  0  0  0  0  0  0  0  0  0
  191.9000  173.2470  140.8120 C   0  0  2  0  0  3  0  0  0  0  0  0
  190.1230  175.3180  143.3090 C   0  0  0  0  0  0  0  0  0  0  0  0
  190.6680  171.7410  139.3880 C   0  0  0  0  0  3  0  0  0  0  0  0
  195.0860  175.3630  146.2050 C   0  0  0  0  0  2  0  0  0  0  0  0
  192.8250  173.2600  141.8860 C   0  0  0  0  0  0  0  0  0  0  0  0
  195.1710  172.6860  139.7270 C   0  0  0  0  0  1  0  0  0  0  0  0
  188.2880  173.4810  141.4980 C   0  0  0  0  0  3  0  0  0  0  0  0
  189.4990  172.2030  139.8570 C   0  0  0  0  0  3  0  0  0  0  0  0
  194.0050  172.5190  141.8300 O   0  0  0  0  0  0  0  0  0  0  0  0
  192.6090  176.2070  145.8510 C   0  0  1  0  0  3  0  0  0  0  0  0
  192.1170  176.1840  144.4220 C   0  0  1  0  0  3  0  0  0  0  0  0
  189.4620  173.2160  140.9430 C   0  0  0  0  0  0  0  0  0  0  0  0
  192.2920  173.8820  142.9200 C   0  0  0  0  0  0  0  0  0  0  0  0
  193.1100  171.4370  139.9110 O   0  0  0  0  0  0  0  0  0  0  0  0
  188.7730  175.3710  143.1810 C   0  0  0  0  0  0  0  0  0  0  0  0
  195.0970  170.5560  140.9620 C   0  0  0  0  0  1  0  0  0  0  0  0
  192.2000  174.8850  145.2060 C   0  0  1  0  0  3  0  0  0  0  0  0
  194.5190  177.5630  145.6080 O   0  0  0  0  0  0  0  0  0  0  0  0
  193.0020  173.9900  144.2630 C   0  0  2  0  0  3  0  0  0  0  0  0
  187.9810  174.4750  142.4370 O   0  0  0  0  0  0  0  0  0  0  0  0
  187.5570  177.5440  143.2050 C   0  0  0  0  0  3  0  0  0  0  0  0
  187.9890  176.4050  143.9020 C   0  0  0  0  0  0  0  0  0  0  0  0
  187.5970  176.2420  145.2420 C   0  0  0  0  0  3  0  0  0  0  0  0
  186.3560  176.9990  147.5520 Cl  0  0  0  0  0  0  0  0  0  0  0  0
  186.4120  178.3500  145.1800 C   0  0  0  0  0  3  0  0  0  0  0  0
  186.8210  177.2130  145.8790 C   0  0  0  0  0  0  0  0  0  0  0  0
  186.7780  178.5140  143.8420 C   0  0  0  0  0  3  0  0  0  0  0  0
  196.6300  172.3750  145.9530 C   0  0  0  0  0  1  0  0  0  0  0  0
  196.3600  173.5610  145.0480 C   0  0  0  0  0  2  0  0  0  0  0  0
  1 27  1  0  0  0  0
  1  4  1  0  0  0  0
  2 24  1  0  0  0  0
  2 17  1  0  0  0  0
  3 20  1  1  0  0  0
  3  7  1  0  0  0  0
  4 37  1  6  0  0  0
  4 12  1  0  0  0  0
  6 11  1  1  0  0  0
  6  9  1  0  0  0  0
  7 21  1  0  0  0  0
  7 10  1  0  0  0  0
  8 12  1  0  0  0  0
  9  3  1  0  0  0  0
  9 13  1  1  0  0  0
 10  5  1  0  0  0  0
 11 16  2  0  0  0  0
 13 21  2  0  0  0  0
 14  2  1  0  0  0  0
 15 28  1  0  0  0  0
 16 20  1  0  0  0  0
 17 13  1  0  0  0  0
 18  8  1  6  0  0  0
 19  5  1  1  0  0  0
 19 25  1  0  0  0  0
 19 18  1  0  0  0  0
 20 15  2  0  0  0  0
 21 27  1  0  0  0  0
 22  6  1  0  0  0  0
 22  2  1  0  0  0  0
 23 10  2  0  0  0  0
 23 30  1  0  0  0  0
 25 18  1  0  0  0  0
 26  8  2  0  0  0  0
 27 25  1  0  0  0  0
 28 23  1  0  0  0  0
 29 35  2  0  0  0  0
 29 30  1  0  0  0  0
 30 31  2  0  0  0  0
 31 34  1  0  0  0  0
 33 34  2  0  0  0  0
 34 32  1  0  0  0  0
 35 33  1  0  0  0  0
 37 36  1  0  0  0  0
M  END
>  <MODEL>
7

>  <REMARK>
 VINA RESULT:      -8.2      2.650      7.809
  Name = 
  2 active torsions:
  status: ('A' for Active; 'I' for Inactive)
    1  A    between atoms: C_4  and  C_37
    2  A    between atoms: C_23  and  C_30
                            x       y       z     vdW  Elec       q    Type
                         _______ _______ _______ _____ _____    ______ ____

>  <TORSDO>
F 2

$$$$
=
 OpenBabel11112417093D

 37 44  0  0  1  0  0  0  0  0999 V2000
  193.1200  174.4660  144.6330 O   0  0  0  0  0  0  0  0  0  0  0  0
  189.6750  176.3250  146.5440 C   0  0  0  0  0  0  0  0  0  0  0  0
  188.8470  174.5230  142.7380 C   0  0  1  0  0  3  0  0  0  0  0  0
  194.4330  174.9560  144.7200 C   0  0  2  0  0  3  0  0  0  0  0  0
  191.7890  172.9250  141.1440 O   0  0  0  0  0  0  0  0  0  0  0  0
  188.0940  175.9860  144.6410 C   0  0  2  0  0  3  0  0  0  0  0  0
  190.2390  174.5040  142.2850 N   0  0  0  0  0  0  0  0  0  0  0  0
  194.8470  172.8570  143.3460 C   0  0  0  0  0  0  0  0  0  0  0  0
  188.9490  175.1280  144.0970 C   0  0  2  0  0  3  0  0  0  0  0  0
  190.6290  173.7320  141.1120 C   0  0  0  0  0  0  0  0  0  0  0  0
  186.9160  176.4030  143.8600 C   0  0  0  0  0  3  0  0  0  0  0  0
  195.4470  173.9130  144.2380 C   0  0  0  0  0  2  0  0  0  0  0  0
  190.3170  175.2640  144.4460 C   0  0  0  0  0  0  0  0  0  0  0  0
  189.4130  175.2250  147.5560 C   0  0  0  0  0  1  0  0  0  0  0  0
  187.9320  175.2950  140.5600 C   0  0  0  0  0  3  0  0  0  0  0  0
  186.8600  176.1290  142.5470 C   0  0  0  0  0  3  0  0  0  0  0  0
  190.6990  175.8930  145.6300 O   0  0  0  0  0  0  0  0  0  0  0  0
  194.1270  173.1940  142.0670 C   0  0  1  0  0  3  0  0  0  0  0  0
  192.6450  172.9650  142.2590 C   0  0  1  0  0  3  0  0  0  0  0  0
  187.9440  175.3590  141.8840 C   0  0  0  0  0  0  0  0  0  0  0  0
  191.0710  174.9020  143.4260 C   0  0  0  0  0  0  0  0  0  0  0  0
  188.4490  176.6300  145.8420 O   0  0  0  0  0  0  0  0  0  0  0  0
  189.9060  173.7500  139.9630 C   0  0  0  0  0  0  0  0  0  0  0  0
  190.1510  177.5590  147.2790 C   0  0  0  0  0  1  0  0  0  0  0  0
  193.1800  174.3860  142.1900 C   0  0  1  0  0  3  0  0  0  0  0  0
  194.9860  171.6840  143.6560 O   0  0  0  0  0  0  0  0  0  0  0  0
  192.5890  175.0140  143.4510 C   0  0  2  0  0  3  0  0  0  0  0  0
  188.7600  174.5340  139.7240 O   0  0  0  0  0  0  0  0  0  0  0  0
  191.0780  173.5510  137.7750 C   0  0  0  0  0  3  0  0  0  0  0  0
  190.3310  172.9400  138.7930 C   0  0  0  0  0  0  0  0  0  0  0  0
  190.0780  171.5600  138.7130 C   0  0  0  0  0  3  0  0  0  0  0  0
  190.1920  169.1030  137.5310 Cl  0  0  0  0  0  0  0  0  0  0  0  0
  191.2580  171.4400  136.6040 C   0  0  0  0  0  3  0  0  0  0  0  0
  190.5310  170.8170  137.6200 C   0  0  0  0  0  0  0  0  0  0  0  0
  191.5340  172.8070  136.6830 C   0  0  0  0  0  3  0  0  0  0  0  0
  194.1150  176.6860  146.4810 C   0  0  0  0  0  1  0  0  0  0  0  0
  194.7520  175.3510  146.1510 C   0  0  0  0  0  2  0  0  0  0  0  0
  1  4  1  0  0  0  0
  2 24  1  0  0  0  0
  2 14  1  0  0  0  0
  3 20  1  6  0  0  0
  3  9  1  0  0  0  0
  4 37  1  1  0  0  0
  6 11  1  6  0  0  0
  6 22  1  0  0  0  0
  7  3  1  0  0  0  0
  7 21  1  0  0  0  0
  8 26  2  0  0  0  0
  8 12  1  0  0  0  0
  9 13  1  6  0  0  0
  9  6  1  0  0  0  0
 10  5  1  0  0  0  0
 10  7  1  0  0  0  0
 12  4  1  0  0  0  0
 13 17  1  0  0  0  0
 15 20  2  0  0  0  0
 16 11  2  0  0  0  0
 17  2  1  0  0  0  0
 18 25  1  0  0  0  0
 18 19  1  0  0  0  0
 18  8  1  1  0  0  0
 19  5  1  6  0  0  0
 20 16  1  0  0  0  0
 21 27  1  0  0  0  0
 21 13  2  0  0  0  0
 22  2  1  0  0  0  0
 23 10  2  0  0  0  0
 25 19  1  0  0  0  0
 25 27  1  0  0  0  0
 27  1  1  0  0  0  0
 28 23  1  0  0  0  0
 28 15  1  0  0  0  0
 29 30  1  0  0  0  0
 30 23  1  0  0  0  0
 31 30  2  0  0  0  0
 32 34  1  0  0  0  0
 33 35  1  0  0  0  0
 33 34  2  0  0  0  0
 34 31  1  0  0  0  0
 35 29  2  0  0  0  0
 37 36  1  0  0  0  0
M  END
>  <MODEL>
8

>  <REMARK>
 VINA RESULT:      -7.8      2.441      6.271
  Name = 
  2 active torsions:
  status: ('A' for Active; 'I' for Inactive)
    1  A    between atoms: C_4  and  C_37
    2  A    between atoms: C_23  and  C_30
                            x       y       z     vdW  Elec       q    Type
                         _______ _______ _______ _____ _____    ______ ____

>  <TORSDO>
F 2

$$$$
=
 OpenBabel11112417093D

 37 44  0  0  1  0  0  0  0  0999 V2000
  188.8980  175.9780  143.6840 O   0  0  0  0  0  0  0  0  0  0  0  0
  192.0100  175.3940  146.6750 C   0  0  0  0  0  0  0  0  0  0  0  0
  192.6050  173.2070  143.0310 C   0  0  1  0  0  3  0  0  0  0  0  0
  187.5380  176.1620  143.9830 C   0  0  2  0  0  3  0  0  0  0  0  0
  189.9560  173.7400  140.4920 O   0  0  0  0  0  0  0  0  0  0  0  0
  193.2670  173.6400  145.4190 C   0  0  2  0  0  3  0  0  0  0  0  0
  191.2110  173.2810  142.5920 N   0  0  0  0  0  0  0  0  0  0  0  0
  187.4580  176.3930  141.4520 C   0  0  0  0  0  0  0  0  0  0  0  0
  192.5870  173.9520  144.3220 C   0  0  2  0  0  3  0  0  0  0  0  0
  190.8390  172.9200  141.2300 C   0  0  0  0  0  0  0  0  0  0  0  0
  194.1390  172.4510  145.3970 C   0  0  0  0  0  3  0  0  0  0  0  0
  186.7660  176.6730  142.7620 C   0  0  0  0  0  2  0  0  0  0  0  0
  191.3140  174.5530  144.4960 C   0  0  0  0  0  0  0  0  0  0  0  0
  192.7250  176.7140  146.4540 C   0  0  0  0  0  1  0  0  0  0  0  0
  192.8900  170.8170  142.4110 C   0  0  0  0  0  3  0  0  0  0  0  0
  194.0350  171.5720  144.3890 C   0  0  0  0  0  3  0  0  0  0  0  0
  190.9930  175.2320  145.6710 O   0  0  0  0  0  0  0  0  0  0  0  0
  187.8290  175.0000  141.0160 C   0  0  1  0  0  3  0  0  0  0  0  0
  189.3290  174.8360  141.1110 C   0  0  1  0  0  3  0  0  0  0  0  0
  193.0940  171.8100  143.2650 C   0  0  0  0  0  0  0  0  0  0  0  0
  190.5160  174.1900  143.5110 C   0  0  0  0  0  0  0  0  0  0  0  0
  192.9710  174.3160  146.6180 O   0  0  0  0  0  0  0  0  0  0  0  0
  191.3190  171.8050  140.6230 C   0  0  0  0  0  0  0  0  0  0  0  0
  191.3620  175.4160  148.0430 C   0  0  0  0  0  1  0  0  0  0  0  0
  188.4350  174.1480  142.1290 C   0  0  1  0  0  3  0  0  0  0  0  0
  187.6890  177.3300  140.7040 O   0  0  0  0  0  0  0  0  0  0  0  0
  189.0500  174.5980  143.4530 C   0  0  2  0  0  3  0  0  0  0  0  0
  192.1590  170.8420  141.2160 O   0  0  0  0  0  0  0  0  0  0  0  0
  190.0920  170.3740  138.9970 C   0  0  0  0  0  3  0  0  0  0  0  0
  190.9250  171.4780  139.2290 C   0  0  0  0  0  0  0  0  0  0  0  0
  191.2940  172.2890  138.1420 C   0  0  0  0  0  3  0  0  0  0  0  0
  191.3530  172.9930  135.5050 Cl  0  0  0  0  0  0  0  0  0  0  0  0
  190.0550  170.8670  136.6270 C   0  0  0  0  0  3  0  0  0  0  0  0
  190.8690  171.9800  136.8470 C   0  0  0  0  0  0  0  0  0  0  0  0
  189.6640  170.0650  137.7020 C   0  0  0  0  0  3  0  0  0  0  0  0
  187.7670  176.4860  146.4400 C   0  0  0  0  0  1  0  0  0  0  0  0
  187.3810  177.1430  145.1300 C   0  0  0  0  0  2  0  0  0  0  0  0
  1  4  1  0  0  0  0
  2 24  1  0  0  0  0
  3 20  1  1  0  0  0
  3  9  1  0  0  0  0
  4 37  1  1  0  0  0
  5 10  1  0  0  0  0
  6 11  1  1  0  0  0
  6 22  1  0  0  0  0
  7  3  1  0  0  0  0
  7 21  1  0  0  0  0
  8 12  1  0  0  0  0
  9 13  1  1  0  0  0
  9  6  1  0  0  0  0
 10  7  1  0  0  0  0
 12  4  1  0  0  0  0
 13 17  1  0  0  0  0
 14  2  1  0  0  0  0
 15 20  2  0  0  0  0
 16 11  2  0  0  0  0
 17  2  1  0  0  0  0
 18 19  1  0  0  0  0
 18  8  1  1  0  0  0
 18 25  1  0  0  0  0
 19  5  1  6  0  0  0
 19 25  1  0  0  0  0
 20 16  1  0  0  0  0
 21 13  2  0  0  0  0
 22  2  1  0  0  0  0
 23 28  1  0  0  0  0
 23 10  2  0  0  0  0
 25 27  1  0  0  0  0
 26  8  2  0  0  0  0
 27 21  1  0  0  0  0
 27  1  1  0  0  0  0
 28 15  1  0  0  0  0
 29 30  1  0  0  0  0
 30 23  1  0  0  0  0
 31 30  2  0  0  0  0
 32 34  1  0  0  0  0
 33 34  2  0  0  0  0
 33 35  1  0  0  0  0
 34 31  1  0  0  0  0
 35 29  2  0  0  0  0
 37 36  1  0  0  0  0
M  END
>  <MODEL>
9

>  <REMARK>
 VINA RESULT:      -7.6      2.637      6.683
  Name = 
  2 active torsions:
  status: ('A' for Active; 'I' for Inactive)
    1  A    between atoms: C_4  and  C_37
    2  A    between atoms: C_23  and  C_30
                            x       y       z     vdW  Elec       q    Type
                         _______ _______ _______ _____ _____    ______ ____

>  <TORSDO>
F 2

$$$$
