=
 OpenBabel11112417433D

 28 32  0  0  1  0  0  0  0  0999 V2000
  186.6730  178.1490  144.2110 C   0  0  0  0  0  0  0  0  0  0  0  0
  189.8820  178.0670  145.0990 O   0  0  0  0  0  0  0  0  0  0  0  0
  187.7120  172.8810  141.2170 C   0  0  0  0  0  1  0  0  0  0  0  0
  185.1150  177.7850  146.5140 C   0  0  0  0  0  3  0  0  0  0  0  0
  189.5010  173.7720  142.7870 C   0  0  0  0  0  0  0  0  0  0  0  0
  187.4310  178.3910  142.9500 C   0  0  0  0  0  2  0  0  0  0  0  0
  189.0570  177.7850  147.3920 O   0  0  0  0  0  0  0  0  0  0  0  0
  189.7740  177.1130  146.2560 S   0  0  0  0  0  0  0  0  0  0  0  0
  192.0070  175.7150  145.7470 C   0  0  1  0  0  3  0  0  0  0  0  0
  188.8910  175.6130  145.7840 C   0  0  2  0  0  3  0  0  0  0  0  0
  186.6880  177.3970  139.5840 O   0  0  0  0  0  0  0  0  0  0  0  0
  188.5850  175.8630  143.3760 C   0  0  1  0  0  3  0  0  0  0  0  0
  191.2030  174.4220  145.6930 C   0  0  0  0  0  2  0  0  0  0  0  0
  191.4090  176.6580  146.7760 C   0  0  0  0  0  2  0  0  0  0  0  0
  187.0160  177.1570  140.7740 C   0  0  0  0  0  0  0  0  0  0  0  0
  186.8500  176.9840  145.0030 C   0  0  0  0  0  0  0  0  0  0  0  0
  188.2860  173.9010  142.0780 N   0  0  0  0  0  0  0  0  0  0  0  0
  193.3770  175.4120  146.1170 N   0  0  0  0  0  1  0  0  0  0  0  0
  187.7790  175.9780  141.0560 N   0  0  0  0  0  2  0  0  0  0  0  0
  186.0550  176.8200  146.1460 C   0  0  0  0  0  3  0  0  0  0  0  0
  185.7260  179.1080  144.5890 C   0  0  0  0  0  3  0  0  0  0  0  0
  184.9520  178.9300  145.7370 C   0  0  0  0  0  3  0  0  0  0  0  0
  186.6050  178.0650  141.7990 N   0  0  0  0  0  2  0  0  0  0  0  0
  189.8170  174.9650  143.5990 C   0  0  1  0  0  3  0  0  0  0  0  0
  187.7080  175.2120  142.2960 C   0  0  2  0  0  3  0  0  0  0  0  0
  189.8090  174.6130  145.0840 C   0  0  2  0  0  3  0  0  0  0  0  0
  190.2350  172.7510  142.7150 O   0  0  0  0  0  0  0  0  0  0  0  0
  187.8430  175.8750  144.7100 C   0  0  2  0  0  3  0  0  0  0  0  0
  1 21  2  0  0  0  0
  1 16  1  0  0  0  0
  2  8  2  0  0  0  0
  3 17  1  0  0  0  0
  5 24  1  0  0  0  0
  6  1  1  0  0  0  0
  8 14  1  0  0  0  0
  8  7  2  0  0  0  0
  9 18  1  1  0  0  0
  9 14  1  0  0  0  0
 10  8  1  6  0  0  0
 11 15  2  0  0  0  0
 12 24  1  0  0  0  0
 12 28  1  0  0  0  0
 13  9  1  0  0  0  0
 15 19  1  0  0  0  0
 15 23  1  0  0  0  0
 16 20  2  0  0  0  0
 17 25  1  0  0  0  0
 17  5  1  0  0  0  0
 19 25  1  0  0  0  0
 20  4  1  0  0  0  0
 21 22  1  0  0  0  0
 22  4  2  0  0  0  0
 23  6  1  0  0  0  0
 24 26  1  0  0  0  0
 25 12  1  0  0  0  0
 26 13  1  0  0  0  0
 26 10  1  0  0  0  0
 27  5  2  0  0  0  0
 28 16  1  0  0  0  0
 28 10  1  0  0  0  0
M  END
>  <MODEL>
1

>  <REMARK>
 VINA RESULT:      -9.4      0.000      0.000
  Name = 
  0 active torsions:
  status: ('A' for Active; 'I' for Inactive)
                            x       y       z     vdW  Elec       q    Type
                         _______ _______ _______ _____ _____    ______ ____

>  <TORSDO>
F 0

$$$$
=
 OpenBabel11112417433D

 28 32  0  0  1  0  0  0  0  0999 V2000
  190.5730  175.2340  144.0160 C   0  0  0  0  0  0  0  0  0  0  0  0
  188.0840  175.6910  146.1810 O   0  0  0  0  0  0  0  0  0  0  0  0
  186.6910  177.1660  139.6580 C   0  0  0  0  0  1  0  0  0  0  0  0
  192.5790  177.1130  144.5750 C   0  0  0  0  0  3  0  0  0  0  0  0
  186.0230  177.4220  142.0960 C   0  0  0  0  0  0  0  0  0  0  0  0
  189.5730  174.1800  143.6860 C   0  0  0  0  0  2  0  0  0  0  0  0
  189.4850  177.4580  147.1480 O   0  0  0  0  0  0  0  0  0  0  0  0
  188.2250  177.1740  146.3810 S   0  0  0  0  0  0  0  0  0  0  0  0
  185.6060  177.7600  146.4010 C   0  0  1  0  0  3  0  0  0  0  0  0
  188.2670  178.0430  144.8010 C   0  0  2  0  0  3  0  0  0  0  0  0
  188.6800  172.7590  140.5150 O   0  0  0  0  0  0  0  0  0  0  0  0
  187.7900  176.2910  143.1710 C   0  0  1  0  0  3  0  0  0  0  0  0
  185.8030  178.7430  145.2530 C   0  0  0  0  0  2  0  0  0  0  0  0
  186.8270  177.7630  147.3030 C   0  0  0  0  0  2  0  0  0  0  0  0
  188.7200  173.7010  141.3460 C   0  0  0  0  0  0  0  0  0  0  0  0
  190.2640  176.6190  144.0000 C   0  0  0  0  0  0  0  0  0  0  0  0
  186.8720  176.9310  141.0800 N   0  0  0  0  0  0  0  0  0  0  0  0
  184.4410  178.1500  147.1720 N   0  0  0  0  0  1  0  0  0  0  0  0
  187.7230  174.7280  141.2750 N   0  0  0  0  0  2  0  0  0  0  0  0
  191.2850  177.5410  144.2750 C   0  0  0  0  0  3  0  0  0  0  0  0
  191.8760  174.8180  144.3160 C   0  0  0  0  0  3  0  0  0  0  0  0
  192.8740  175.7510  144.5980 C   0  0  0  0  0  3  0  0  0  0  0  0
  189.7660  173.7160  142.3210 N   0  0  0  0  0  2  0  0  0  0  0  0
  186.4730  177.0410  143.4500 C   0  0  1  0  0  3  0  0  0  0  0  0
  187.9310  176.1220  141.6510 C   0  0  2  0  0  3  0  0  0  0  0  0
  186.8640  178.2810  144.2480 C   0  0  2  0  0  3  0  0  0  0  0  0
  184.9870  178.0990  141.8600 O   0  0  0  0  0  0  0  0  0  0  0  0
  188.8960  177.2020  143.6970 C   0  0  2  0  0  3  0  0  0  0  0  0
  1 21  1  0  0  0  0
  2  8  2  0  0  0  0
  3 17  1  0  0  0  0
  4 22  1  0  0  0  0
  5 24  1  0  0  0  0
  6  1  1  0  0  0  0
  8  7  2  0  0  0  0
  8 14  1  0  0  0  0
  9 18  1  1  0  0  0
  9 14  1  0  0  0  0
 10  8  1  1  0  0  0
 11 15  2  0  0  0  0
 12 24  1  0  0  0  0
 12 28  1  0  0  0  0
 13  9  1  0  0  0  0
 15 23  1  0  0  0  0
 16  1  2  0  0  0  0
 16 20  1  0  0  0  0
 17 25  1  0  0  0  0
 17  5  1  0  0  0  0
 19 15  1  0  0  0  0
 19 25  1  0  0  0  0
 20  4  2  0  0  0  0
 21 22  2  0  0  0  0
 23  6  1  0  0  0  0
 24 26  1  0  0  0  0
 25 12  1  0  0  0  0
 26 10  1  0  0  0  0
 26 13  1  0  0  0  0
 27  5  2  0  0  0  0
 28 16  1  0  0  0  0
 28 10  1  0  0  0  0
M  END
>  <MODEL>
2

>  <REMARK>
 VINA RESULT:      -8.8      1.908      5.138
  Name = 
  0 active torsions:
  status: ('A' for Active; 'I' for Inactive)
                            x       y       z     vdW  Elec       q    Type
                         _______ _______ _______ _____ _____    ______ ____

>  <TORSDO>
F 0

$$$$
=
 OpenBabel11112417433D

 28 32  0  0  1  0  0  0  0  0999 V2000
  191.3900  174.5150  145.3060 C   0  0  0  0  0  0  0  0  0  0  0  0
  188.6760  175.5950  146.9060 O   0  0  0  0  0  0  0  0  0  0  0  0
  188.1910  175.2110  140.1030 C   0  0  0  0  0  1  0  0  0  0  0  0
  193.4050  176.4440  145.5930 C   0  0  0  0  0  3  0  0  0  0  0  0
  187.2360  176.1480  142.2630 C   0  0  0  0  0  0  0  0  0  0  0  0
  190.3850  173.4250  145.1470 C   0  0  0  0  0  2  0  0  0  0  0  0
  190.0340  177.5400  147.5310 O   0  0  0  0  0  0  0  0  0  0  0  0
  188.8670  177.0730  146.7080 S   0  0  0  0  0  0  0  0  0  0  0  0
  186.3010  177.6800  146.2130 C   0  0  1  0  0  3  0  0  0  0  0  0
  189.1520  177.4650  144.9710 C   0  0  2  0  0  3  0  0  0  0  0  0
  189.8250  171.1890  142.3970 O   0  0  0  0  0  0  0  0  0  0  0  0
  188.7930  175.3350  143.8360 C   0  0  1  0  0  3  0  0  0  0  0  0
  186.6900  178.3000  144.8770 C   0  0  0  0  0  2  0  0  0  0  0  0
  187.3970  177.9160  147.2360 C   0  0  0  0  0  2  0  0  0  0  0  0
  189.8100  172.3250  142.9350 C   0  0  0  0  0  0  0  0  0  0  0  0
  191.1570  175.8450  144.8690 C   0  0  0  0  0  0  0  0  0  0  0  0
  188.1790  175.3800  141.5460 N   0  0  0  0  0  0  0  0  0  0  0  0
  185.0700  178.2870  146.6830 N   0  0  0  0  0  1  0  0  0  0  0  0
  188.8840  173.3060  142.4510 N   0  0  0  0  0  2  0  0  0  0  0  0
  192.1820  176.7910  145.0160 C   0  0  0  0  0  3  0  0  0  0  0  0
  192.6210  174.1790  145.8830 C   0  0  0  0  0  3  0  0  0  0  0  0
  193.6230  175.1390  146.0300 C   0  0  0  0  0  3  0  0  0  0  0  0
  190.7240  172.5960  144.0010 N   0  0  0  0  0  2  0  0  0  0  0  0
  187.4920  176.1530  143.7180 C   0  0  1  0  0  3  0  0  0  0  0  0
  189.1150  174.7470  142.4550 C   0  0  2  0  0  3  0  0  0  0  0  0
  187.8440  177.5600  144.1900 C   0  0  2  0  0  3  0  0  0  0  0  0
  186.2740  176.7470  141.7130 O   0  0  0  0  0  0  0  0  0  0  0  0
  189.8700  176.3400  144.2360 C   0  0  2  0  0  3  0  0  0  0  0  0
  1 21  1  0  0  0  0
  3 17  1  0  0  0  0
  4 22  1  0  0  0  0
  5 24  1  0  0  0  0
  6  1  1  0  0  0  0
  8  2  2  0  0  0  0
  8 14  1  0  0  0  0
  8  7  2  0  0  0  0
  9 18  1  1  0  0  0
  9 14  1  0  0  0  0
 10  8  1  1  0  0  0
 11 15  2  0  0  0  0
 12 28  1  0  0  0  0
 13  9  1  0  0  0  0
 15 23  1  0  0  0  0
 16 20  1  0  0  0  0
 16  1  2  0  0  0  0
 17  5  1  0  0  0  0
 17 25  1  0  0  0  0
 19 25  1  0  0  0  0
 19 15  1  0  0  0  0
 20  4  2  0  0  0  0
 21 22  2  0  0  0  0
 23  6  1  0  0  0  0
 24 12  1  0  0  0  0
 24 26  1  0  0  0  0
 25 12  1  0  0  0  0
 26 13  1  0  0  0  0
 26 10  1  0  0  0  0
 27  5  2  0  0  0  0
 28 16  1  0  0  0  0
 28 10  1  0  0  0  0
M  END
>  <MODEL>
3

>  <REMARK>
 VINA RESULT:      -8.5      1.813      5.305
  Name = 
  0 active torsions:
  status: ('A' for Active; 'I' for Inactive)
                            x       y       z     vdW  Elec       q    Type
                         _______ _______ _______ _____ _____    ______ ____

>  <TORSDO>
F 0

$$$$
=
 OpenBabel11112417433D

 28 32  0  0  1  0  0  0  0  0999 V2000
  188.0160  177.1750  144.7310 C   0  0  0  0  0  0  0  0  0  0  0  0
  191.2990  177.4920  145.2000 O   0  0  0  0  0  0  0  0  0  0  0  0
  189.2750  171.8870  141.8600 C   0  0  0  0  0  1  0  0  0  0  0  0
  186.8060  176.7780  147.2300 C   0  0  0  0  0  3  0  0  0  0  0  0
  191.1300  173.0550  143.1460 C   0  0  0  0  0  0  0  0  0  0  0  0
  188.5810  177.4250  143.3740 C   0  0  0  0  0  2  0  0  0  0  0  0
  190.8010  177.2560  147.5910 O   0  0  0  0  0  0  0  0  0  0  0  0
  191.4440  176.6010  146.4020 S   0  0  0  0  0  0  0  0  0  0  0  0
  193.7430  175.4260  145.6710 C   0  0  1  0  0  3  0  0  0  0  0  0
  190.6880  174.9890  146.1130 C   0  0  2  0  0  3  0  0  0  0  0  0
  187.5470  176.1640  140.1780 O   0  0  0  0  0  0  0  0  0  0  0  0
  190.0600  175.0660  143.7570 C   0  0  1  0  0  3  0  0  0  0  0  0
  193.0910  174.0520  145.7770 C   0  0  0  0  0  2  0  0  0  0  0  0
  193.1720  176.3550  146.7260 C   0  0  0  0  0  2  0  0  0  0  0  0
  188.0440  176.0300  141.3250 C   0  0  0  0  0  0  0  0  0  0  0  0
  188.4220  176.0850  145.5440 C   0  0  0  0  0  0  0  0  0  0  0  0
  189.8310  173.0110  142.5950 N   0  0  0  0  0  0  0  0  0  0  0  0
  195.1730  175.2940  145.8740 N   0  0  0  0  0  1  0  0  0  0  0  0
  188.9670  174.9590  141.5570 N   0  0  0  0  0  2  0  0  0  0  0  0
  187.7980  175.9020  146.7860 C   0  0  0  0  0  3  0  0  0  0  0  0
  187.0200  178.0470  145.1870 C   0  0  0  0  0  3  0  0  0  0  0  0
  186.4190  177.8530  146.4310 C   0  0  0  0  0  3  0  0  0  0  0  0
  187.6620  176.9460  142.3540 N   0  0  0  0  0  2  0  0  0  0  0  0
  191.4050  174.3200  143.8580 C   0  0  1  0  0  3  0  0  0  0  0  0
  189.1370  174.2630  142.8280 C   0  0  2  0  0  3  0  0  0  0  0  0
  191.6200  174.0560  145.3450 C   0  0  2  0  0  3  0  0  0  0  0  0
  191.9620  172.1180  143.0240 O   0  0  0  0  0  0  0  0  0  0  0  0
  189.4920  175.0740  145.1730 C   0  0  2  0  0  3  0  0  0  0  0  0
  1 21  2  0  0  0  0
  1 16  1  0  0  0  0
  2  8  2  0  0  0  0
  3 17  1  0  0  0  0
  5 24  1  0  0  0  0
  6  1  1  0  0  0  0
  8 14  1  0  0  0  0
  8  7  2  0  0  0  0
  9 13  1  0  0  0  0
  9 18  1  1  0  0  0
  9 14  1  0  0  0  0
 10  8  1  6  0  0  0
 11 15  2  0  0  0  0
 12 24  1  0  0  0  0
 12 28  1  0  0  0  0
 15 19  1  0  0  0  0
 15 23  1  0  0  0  0
 16 20  2  0  0  0  0
 17 25  1  0  0  0  0
 17  5  1  0  0  0  0
 19 25  1  0  0  0  0
 20  4  1  0  0  0  0
 21 22  1  0  0  0  0
 22  4  2  0  0  0  0
 23  6  1  0  0  0  0
 24 26  1  0  0  0  0
 25 12  1  0  0  0  0
 26 13  1  0  0  0  0
 26 10  1  0  0  0  0
 27  5  2  0  0  0  0
 28 16  1  0  0  0  0
 28 10  1  0  0  0  0
M  END
>  <MODEL>
4

>  <REMARK>
 VINA RESULT:      -8.2      1.467      1.809
  Name = 
  0 active torsions:
  status: ('A' for Active; 'I' for Inactive)
                            x       y       z     vdW  Elec       q    Type
                         _______ _______ _______ _____ _____    ______ ____

>  <TORSDO>
F 0

$$$$
=
 OpenBabel11112417433D

 28 32  0  0  1  0  0  0  0  0999 V2000
  188.3460  176.9160  144.8170 C   0  0  0  0  0  0  0  0  0  0  0  0
  191.5670  177.5350  144.2360 O   0  0  0  0  0  0  0  0  0  0  0  0
  188.6370  172.8630  140.2040 C   0  0  0  0  0  1  0  0  0  0  0  0
  188.1290  175.6750  147.3230 C   0  0  0  0  0  3  0  0  0  0  0  0
  190.7960  173.8680  141.0900 C   0  0  0  0  0  0  0  0  0  0  0  0
  188.3760  177.6090  143.4980 C   0  0  0  0  0  2  0  0  0  0  0  0
  191.9700  176.5750  146.4570 O   0  0  0  0  0  0  0  0  0  0  0  0
  192.1610  176.3720  144.9810 S   0  0  0  0  0  0  0  0  0  0  0  0
  194.0750  175.7740  143.1980 C   0  0  1  0  0  3  0  0  0  0  0  0
  191.3970  174.8180  144.4780 C   0  0  2  0  0  3  0  0  0  0  0  0
  186.2970  177.1610  140.6080 O   0  0  0  0  0  0  0  0  0  0  0  0
  189.9610  175.4620  142.6130 C   0  0  1  0  0  3  0  0  0  0  0  0
  193.5440  174.3500  143.0850 C   0  0  0  0  0  2  0  0  0  0  0  0
  193.8960  176.2850  144.6160 C   0  0  0  0  0  2  0  0  0  0  0  0
  187.1780  176.7810  141.4210 C   0  0  0  0  0  0  0  0  0  0  0  0
  189.0490  175.7080  145.0670 C   0  0  0  0  0  0  0  0  0  0  0  0
  189.3880  173.8020  141.0200 N   0  0  0  0  0  0  0  0  0  0  0  0
  195.4850  175.7880  142.8590 N   0  0  0  0  0  1  0  0  0  0  0  0
  188.1530  175.8250  140.9880 N   0  0  0  0  0  2  0  0  0  0  0  0
  188.9190  175.1020  146.3250 C   0  0  0  0  0  3  0  0  0  0  0  0
  187.5560  177.4800  145.8260 C   0  0  0  0  0  3  0  0  0  0  0  0
  187.4490  176.8670  147.0740 C   0  0  0  0  0  3  0  0  0  0  0  0
  187.1660  177.3130  142.7490 N   0  0  0  0  0  2  0  0  0  0  0  0
  191.2730  174.9100  142.0230 C   0  0  1  0  0  3  0  0  0  0  0  0
  188.7890  174.8320  141.8470 C   0  0  2  0  0  3  0  0  0  0  0  0
  192.0170  174.2720  143.1930 C   0  0  2  0  0  3  0  0  0  0  0  0
  191.5550  173.1250  140.4130 O   0  0  0  0  0  0  0  0  0  0  0  0
  189.9420  174.9970  144.0670 C   0  0  2  0  0  3  0  0  0  0  0  0
  1 16  2  0  0  0  0
  1 21  1  0  0  0  0
  2  8  2  0  0  0  0
  3 17  1  0  0  0  0
  5 24  1  0  0  0  0
  6  1  1  0  0  0  0
  8  7  2  0  0  0  0
  9 18  1  1  0  0  0
  9 14  1  0  0  0  0
 10  8  1  6  0  0  0
 11 15  2  0  0  0  0
 12 28  1  0  0  0  0
 13 26  1  0  0  0  0
 13  9  1  0  0  0  0
 14  8  1  0  0  0  0
 15 23  1  0  0  0  0
 16 20  1  0  0  0  0
 17  5  1  0  0  0  0
 17 25  1  0  0  0  0
 19 15  1  0  0  0  0
 19 25  1  0  0  0  0
 20  4  2  0  0  0  0
 21 22  2  0  0  0  0
 22  4  1  0  0  0  0
 23  6  1  0  0  0  0
 24 12  1  0  0  0  0
 24 26  1  0  0  0  0
 25 12  1  0  0  0  0
 26 10  1  0  0  0  0
 27  5  2  0  0  0  0
 28 10  1  0  0  0  0
 28 16  1  0  0  0  0
M  END
>  <MODEL>
5

>  <REMARK>
 VINA RESULT:      -8.0      1.971      2.544
  Name = 
  0 active torsions:
  status: ('A' for Active; 'I' for Inactive)
                            x       y       z     vdW  Elec       q    Type
                         _______ _______ _______ _____ _____    ______ ____

>  <TORSDO>
F 0

$$$$
=
 OpenBabel11112417433D

 28 32  0  0  1  0  0  0  0  0999 V2000
  190.2910  174.9130  141.9500 C   0  0  0  0  0  0  0  0  0  0  0  0
  188.7060  177.8420  142.0130 O   0  0  0  0  0  0  0  0  0  0  0  0
  188.8820  174.4010  147.9120 C   0  0  0  0  0  1  0  0  0  0  0  0
  188.8150  173.1510  140.3440 C   0  0  0  0  0  3  0  0  0  0  0  0
  187.8030  176.2580  146.5530 C   0  0  0  0  0  0  0  0  0  0  0  0
  191.1510  175.8030  142.7810 C   0  0  0  0  0  2  0  0  0  0  0  0
  187.0870  176.7990  140.4940 O   0  0  0  0  0  0  0  0  0  0  0  0
  187.2950  177.3410  141.8790 S   0  0  0  0  0  0  0  0  0  0  0  0
  186.1720  179.0280  143.6380 C   0  0  1  0  0  3  0  0  0  0  0  0
  186.9420  176.0560  143.0940 C   0  0  2  0  0  3  0  0  0  0  0  0
  193.1850  175.0350  145.6350 O   0  0  0  0  0  0  0  0  0  0  0  0
  188.9380  176.0330  144.4980 C   0  0  1  0  0  3  0  0  0  0  0  0
  185.6240  177.8520  144.4380 C   0  0  0  0  0  2  0  0  0  0  0  0
  186.1790  178.6930  142.1580 C   0  0  0  0  0  2  0  0  0  0  0  0
  192.0780  175.1750  145.0570 C   0  0  0  0  0  0  0  0  0  0  0  0
  188.9350  174.6400  142.2680 C   0  0  0  0  0  0  0  0  0  0  0  0
  188.7350  175.2100  146.7130 N   0  0  0  0  0  0  0  0  0  0  0  0
  185.3350  180.1910  143.8620 N   0  0  0  0  0  1  0  0  0  0  0  0
  190.9220  175.4880  145.8440 N   0  0  0  0  0  2  0  0  0  0  0  0
  188.2190  173.7500  141.4550 C   0  0  0  0  0  3  0  0  0  0  0  0
  190.8780  174.3050  140.8340 C   0  0  0  0  0  3  0  0  0  0  0  0
  190.1440  173.4310  140.0310 C   0  0  0  0  0  3  0  0  0  0  0  0
  192.0140  175.0060  143.6380 N   0  0  0  0  0  2  0  0  0  0  0  0
  187.8720  176.8830  145.2160 C   0  0  1  0  0  3  0  0  0  0  0  0
  189.5590  175.0770  145.5270 C   0  0  2  0  0  3  0  0  0  0  0  0
  186.5720  176.6470  144.4520 C   0  0  2  0  0  3  0  0  0  0  0  0
  187.0130  176.6220  147.4630 O   0  0  0  0  0  0  0  0  0  0  0  0
  188.1780  175.2360  143.4410 C   0  0  2  0  0  3  0  0  0  0  0  0
  1 16  1  0  0  0  0
  1  6  1  0  0  0  0
  4 20  1  0  0  0  0
  5 17  1  0  0  0  0
  5 27  2  0  0  0  0
  6 23  1  0  0  0  0
  7  8  2  0  0  0  0
  8  2  2  0  0  0  0
  8 14  1  0  0  0  0
  9 18  1  6  0  0  0
  9 13  1  0  0  0  0
 10  8  1  6  0  0  0
 10 28  1  0  0  0  0
 10 26  1  0  0  0  0
 12 24  1  0  0  0  0
 12 25  1  0  0  0  0
 13 26  1  0  0  0  0
 14  9  1  0  0  0  0
 15 11  2  0  0  0  0
 15 19  1  0  0  0  0
 16 28  1  0  0  0  0
 17  3  1  0  0  0  0
 20 16  2  0  0  0  0
 21  1  2  0  0  0  0
 22  4  2  0  0  0  0
 22 21  1  0  0  0  0
 23 15  1  0  0  0  0
 24  5  1  0  0  0  0
 25 19  1  0  0  0  0
 25 17  1  0  0  0  0
 26 24  1  0  0  0  0
 28 12  1  0  0  0  0
M  END
>  <MODEL>
6

>  <REMARK>
 VINA RESULT:      -7.9      2.421      6.157
  Name = 
  0 active torsions:
  status: ('A' for Active; 'I' for Inactive)
                            x       y       z     vdW  Elec       q    Type
                         _______ _______ _______ _____ _____    ______ ____

>  <TORSDO>
F 0

$$$$
=
 OpenBabel11112417433D

 28 32  0  0  1  0  0  0  0  0999 V2000
  191.0300  174.8450  142.1760 C   0  0  0  0  0  0  0  0  0  0  0  0
  188.9150  177.3930  141.8260 O   0  0  0  0  0  0  0  0  0  0  0  0
  191.1910  176.2370  148.1620 C   0  0  0  0  0  1  0  0  0  0  0  0
  189.6330  172.4670  141.6650 C   0  0  0  0  0  3  0  0  0  0  0  0
  189.4540  177.3630  146.6880 C   0  0  0  0  0  0  0  0  0  0  0  0
  191.8500  176.0660  142.4190 C   0  0  0  0  0  2  0  0  0  0  0  0
  187.2480  175.6970  141.2230 O   0  0  0  0  0  0  0  0  0  0  0  0
  187.6520  176.7040  142.2620 S   0  0  0  0  0  0  0  0  0  0  0  0
  186.6360  178.7360  143.6880 C   0  0  1  0  0  3  0  0  0  0  0  0
  187.8760  175.8800  143.8510 C   0  0  2  0  0  3  0  0  0  0  0  0
  194.6080  176.5860  144.6530 O   0  0  0  0  0  0  0  0  0  0  0  0
  190.1010  176.5910  144.5560 C   0  0  1  0  0  3  0  0  0  0  0  0
  186.5530  177.8470  144.9240 C   0  0  0  0  0  2  0  0  0  0  0  0
  186.3700  177.9180  142.4390 C   0  0  0  0  0  2  0  0  0  0  0  0
  193.3930  176.3790  144.4070 C   0  0  0  0  0  0  0  0  0  0  0  0
  189.8760  174.5290  142.9400 C   0  0  0  0  0  0  0  0  0  0  0  0
  190.6000  176.5600  146.8740 N   0  0  0  0  0  0  0  0  0  0  0  0
  185.6450  179.7910  143.7900 N   0  0  0  0  0  1  0  0  0  0  0  0
  192.4130  176.7950  145.3660 N   0  0  0  0  0  2  0  0  0  0  0  0
  189.1980  173.3310  142.6720 C   0  0  0  0  0  3  0  0  0  0  0  0
  191.4570  173.9690  141.1700 C   0  0  0  0  0  3  0  0  0  0  0  0
  190.7610  172.7880  140.9120 C   0  0  0  0  0  3  0  0  0  0  0  0
  193.0380  175.7270  143.1850 N   0  0  0  0  0  2  0  0  0  0  0  0
  189.0740  177.4950  145.2660 C   0  0  1  0  0  3  0  0  0  0  0  0
  191.1340  176.1320  145.5960 C   0  0  2  0  0  3  0  0  0  0  0  0
  187.7140  176.8500  145.0190 C   0  0  2  0  0  3  0  0  0  0  0  0
  188.8390  177.9160  147.6380 O   0  0  0  0  0  0  0  0  0  0  0  0
  189.3040  175.3910  144.0500 C   0  0  2  0  0  3  0  0  0  0  0  0
  1  6  1  0  0  0  0
  1 16  1  0  0  0  0
  2  8  2  0  0  0  0
  4 20  1  0  0  0  0
  5 17  1  0  0  0  0
  5 27  2  0  0  0  0
  6 23  1  0  0  0  0
  7  8  2  0  0  0  0
  8 14  1  0  0  0  0
  9 18  1  1  0  0  0
  9 13  1  0  0  0  0
 10  8  1  6  0  0  0
 10 28  1  0  0  0  0
 10 26  1  0  0  0  0
 12 24  1  0  0  0  0
 12 25  1  0  0  0  0
 13 26  1  0  0  0  0
 14  9  1  0  0  0  0
 15 11  2  0  0  0  0
 15 19  1  0  0  0  0
 16 28  1  0  0  0  0
 17  3  1  0  0  0  0
 19 25  1  0  0  0  0
 20 16  2  0  0  0  0
 21  1  2  0  0  0  0
 22 21  1  0  0  0  0
 22  4  2  0  0  0  0
 23 15  1  0  0  0  0
 24  5  1  0  0  0  0
 25 17  1  0  0  0  0
 26 24  1  0  0  0  0
 28 12  1  0  0  0  0
M  END
>  <MODEL>
7

>  <REMARK>
 VINA RESULT:      -7.7      2.384      6.299
  Name = 
  0 active torsions:
  status: ('A' for Active; 'I' for Inactive)
                            x       y       z     vdW  Elec       q    Type
                         _______ _______ _______ _____ _____    ______ ____

>  <TORSDO>
F 0

$$$$
=
 OpenBabel11112417433D

 28 32  0  0  1  0  0  0  0  0999 V2000
  192.3980  173.5710  144.6800 C   0  0  0  0  0  0  0  0  0  0  0  0
  189.8870  174.7940  146.4960 O   0  0  0  0  0  0  0  0  0  0  0  0
  188.7650  174.3010  139.7750 C   0  0  0  0  0  1  0  0  0  0  0  0
  194.5060  175.4200  144.7390 C   0  0  0  0  0  3  0  0  0  0  0  0
  188.0500  175.3180  141.9920 C   0  0  0  0  0  0  0  0  0  0  0  0
  191.3410  172.5210  144.6380 C   0  0  0  0  0  2  0  0  0  0  0  0
  191.3740  176.6920  146.9500 O   0  0  0  0  0  0  0  0  0  0  0  0
  190.1180  176.2580  146.2480 S   0  0  0  0  0  0  0  0  0  0  0  0
  187.5440  176.9620  145.9750 C   0  0  1  0  0  3  0  0  0  0  0  0
  190.2580  176.6060  144.4840 C   0  0  2  0  0  3  0  0  0  0  0  0
  190.4410  170.2590  142.0020 O   0  0  0  0  0  0  0  0  0  0  0  0
  189.7120  174.4720  143.4350 C   0  0  1  0  0  3  0  0  0  0  0  0
  187.8330  177.5410  144.5950 C   0  0  0  0  0  2  0  0  0  0  0  0
  188.7380  177.1720  146.8880 C   0  0  0  0  0  2  0  0  0  0  0  0
  190.5210  171.4050  142.5130 C   0  0  0  0  0  0  0  0  0  0  0  0
  192.1790  174.9010  144.2360 C   0  0  0  0  0  0  0  0  0  0  0  0
  188.8920  174.4980  141.2100 N   0  0  0  0  0  0  0  0  0  0  0  0
  186.3860  177.6290  146.5410 N   0  0  0  0  0  1  0  0  0  0  0  0
  189.5940  172.4140  142.0930 N   0  0  0  0  0  2  0  0  0  0  0  0
  193.2500  175.8060  144.2670 C   0  0  0  0  0  3  0  0  0  0  0  0
  193.6620  173.1960  145.1500 C   0  0  0  0  0  3  0  0  0  0  0  0
  194.7110  174.1150  145.1830 C   0  0  0  0  0  3  0  0  0  0  0  0
  191.5390  171.6580  143.4850 N   0  0  0  0  0  2  0  0  0  0  0  0
  188.4390  175.3400  143.4170 C   0  0  1  0  0  3  0  0  0  0  0  0
  189.8820  173.8440  142.0430 C   0  0  2  0  0  3  0  0  0  0  0  0
  188.8890  176.7410  143.8230 C   0  0  2  0  0  3  0  0  0  0  0  0
  187.0670  175.9460  141.5180 O   0  0  0  0  0  0  0  0  0  0  0  0
  190.8600  175.4380  143.7120 C   0  0  2  0  0  3  0  0  0  0  0  0
  1 21  1  0  0  0  0
  3 17  1  0  0  0  0
  4 22  1  0  0  0  0
  5 24  1  0  0  0  0
  6  1  1  0  0  0  0
  8  2  2  0  0  0  0
  8 14  1  0  0  0  0
  8  7  2  0  0  0  0
  9 18  1  1  0  0  0
  9 14  1  0  0  0  0
 10  8  1  1  0  0  0
 11 15  2  0  0  0  0
 12 28  1  0  0  0  0
 13  9  1  0  0  0  0
 15 23  1  0  0  0  0
 16 20  1  0  0  0  0
 16  1  2  0  0  0  0
 17  5  1  0  0  0  0
 17 25  1  0  0  0  0
 19 15  1  0  0  0  0
 20  4  2  0  0  0  0
 21 22  2  0  0  0  0
 23  6  1  0  0  0  0
 24 12  1  0  0  0  0
 24 26  1  0  0  0  0
 25 19  1  0  0  0  0
 25 12  1  0  0  0  0
 26 10  1  0  0  0  0
 26 13  1  0  0  0  0
 27  5  2  0  0  0  0
 28 16  1  0  0  0  0
 28 10  1  0  0  0  0
M  END
>  <MODEL>
8

>  <REMARK>
 VINA RESULT:      -7.4      2.261      5.693
  Name = 
  0 active torsions:
  status: ('A' for Active; 'I' for Inactive)
                            x       y       z     vdW  Elec       q    Type
                         _______ _______ _______ _____ _____    ______ ____

>  <TORSDO>
F 0

$$$$
=
 OpenBabel11112417433D

 28 32  0  0  1  0  0  0  0  0999 V2000
  191.6990  174.5920  144.9660 C   0  0  0  0  0  0  0  0  0  0  0  0
  188.5670  175.6660  145.3300 O   0  0  0  0  0  0  0  0  0  0  0  0
  190.2220  173.2890  139.1430 C   0  0  0  0  0  1  0  0  0  0  0  0
  193.4130  176.8020  145.1690 C   0  0  0  0  0  3  0  0  0  0  0  0
  188.5960  174.6490  140.5440 C   0  0  0  0  0  0  0  0  0  0  0  0
  190.8570  173.3650  144.8910 C   0  0  0  0  0  2  0  0  0  0  0  0
  189.5530  177.8880  145.6540 O   0  0  0  0  0  0  0  0  0  0  0  0
  188.7250  177.0370  144.7340 S   0  0  0  0  0  0  0  0  0  0  0  0
  186.4050  177.0860  143.3870 C   0  0  1  0  0  3  0  0  0  0  0  0
  189.5080  176.9560  143.1120 C   0  0  2  0  0  3  0  0  0  0  0  0
  191.2980  170.3800  142.9490 O   0  0  0  0  0  0  0  0  0  0  0  0
  189.6380  174.5620  142.6580 C   0  0  1  0  0  3  0  0  0  0  0  0
  187.1500  177.3510  142.0850 C   0  0  0  0  0  2  0  0  0  0  0  0
  187.1180  177.7650  144.5420 C   0  0  0  0  0  2  0  0  0  0  0  0
  191.0530  171.6070  143.0730 C   0  0  0  0  0  0  0  0  0  0  0  0
  191.5360  175.6920  144.0840 C   0  0  0  0  0  0  0  0  0  0  0  0
  189.7570  173.8590  140.3960 N   0  0  0  0  0  0  0  0  0  0  0  0
  185.0560  177.6110  143.2830 N   0  0  0  0  0  1  0  0  0  0  0  0
  190.2670  172.2590  142.0690 N   0  0  0  0  0  2  0  0  0  0  0  0
  192.4100  176.7830  144.1990 C   0  0  0  0  0  3  0  0  0  0  0  0
  192.7100  174.6230  145.9340 C   0  0  0  0  0  3  0  0  0  0  0  0
  193.5620  175.7240  146.0390 C   0  0  0  0  0  3  0  0  0  0  0  0
  191.5780  172.3050  144.2060 N   0  0  0  0  0  2  0  0  0  0  0  0
  188.3920  175.1070  141.9340 C   0  0  1  0  0  3  0  0  0  0  0  0
  190.4020  173.6580  141.6790 C   0  0  2  0  0  3  0  0  0  0  0  0
  188.5000  176.6270  142.0130 C   0  0  2  0  0  3  0  0  0  0  0  0
  187.8180  174.9160  139.5910 O   0  0  0  0  0  0  0  0  0  0  0  0
  190.4800  175.7880  142.9990 C   0  0  2  0  0  3  0  0  0  0  0  0
  1 21  1  0  0  0  0
  3 17  1  0  0  0  0
  4 22  1  0  0  0  0
  5 24  1  0  0  0  0
  6  1  1  0  0  0  0
  8  2  2  0  0  0  0
  8  7  2  0  0  0  0
  9 18  1  6  0  0  0
  9 14  1  0  0  0  0
 10  8  1  1  0  0  0
 11 15  2  0  0  0  0
 12 28  1  0  0  0  0
 13  9  1  0  0  0  0
 14  8  1  0  0  0  0
 15 23  1  0  0  0  0
 16 20  1  0  0  0  0
 16  1  2  0  0  0  0
 17  5  1  0  0  0  0
 17 25  1  0  0  0  0
 19 15  1  0  0  0  0
 20  4  2  0  0  0  0
 21 22  2  0  0  0  0
 23  6  1  0  0  0  0
 24 26  1  0  0  0  0
 24 12  1  0  0  0  0
 25 19  1  0  0  0  0
 25 12  1  0  0  0  0
 26 13  1  0  0  0  0
 26 10  1  0  0  0  0
 27  5  2  0  0  0  0
 28 10  1  0  0  0  0
 28 16  1  0  0  0  0
M  END
>  <MODEL>
9

>  <REMARK>
 VINA RESULT:      -7.3      2.060      5.628
  Name = 
  0 active torsions:
  status: ('A' for Active; 'I' for Inactive)
                            x       y       z     vdW  Elec       q    Type
                         _______ _______ _______ _____ _____    ______ ____

>  <TORSDO>
F 0

$$$$
