=
 OpenBabel11112416223D

 30 35  0  0  1  0  0  0  0  0999 V2000
  188.2360  175.6210  142.2700 C   0  0  0  0  0  0  0  0  0  0  0  0
  186.5530  177.4130  141.7920 C   0  0  0  0  0  0  0  0  0  0  0  0
  188.7130  177.0770  146.5920 S   0  0  0  0  0  0  0  0  0  0  0  0
  189.0630  174.9780  143.2180 C   0  0  0  0  0  0  0  0  0  0  0  0
  188.3350  175.1990  140.8270 C   0  0  0  0  0  2  0  0  0  0  0  0
  189.9200  171.9470  141.3170 O   0  0  0  0  0  0  0  0  0  0  0  0
  191.9080  175.1320  143.7670 C   0  0  1  0  0  3  0  0  0  0  0  0
  189.4890  173.1000  141.5860 C   0  0  0  0  0  0  0  0  0  0  0  0
  191.4840  175.4010  145.1570 N   0  0  2  0  0  0  0  0  0  0  0  0
  189.7120  175.5640  146.8620 C   0  0  1  0  0  3  0  0  0  0  0  0
  188.6030  173.7730  140.6820 N   0  0  0  0  0  0  0  0  0  0  0  0
  189.8550  173.7360  142.8920 C   0  0  1  0  0  3  0  0  0  0  0  0
  185.8100  178.5070  142.2450 C   0  0  0  0  0  3  0  0  0  0  0  0
  192.4740  174.7330  145.9890 C   0  0  0  0  0  2  0  0  0  0  0  0
  193.4230  175.0960  143.7950 C   0  0  0  0  0  2  0  0  0  0  0  0
  186.3770  177.0170  140.4720 O   0  0  0  0  0  1  0  0  0  0  0  0
  188.4100  176.5660  144.9100 C   0  0  0  0  0  0  0  0  0  0  0  0
  185.9230  178.9500  143.5600 C   0  0  0  0  0  3  0  0  0  0  0  0
  187.4400  176.7370  142.6720 C   0  0  0  0  0  0  0  0  0  0  0  0
  189.1440  175.4760  144.5160 C   0  0  0  0  0  0  0  0  0  0  0  0
  188.8950  174.5530  147.6430 C   0  0  0  0  0  1  0  0  0  0  0  0
  190.1250  174.9590  145.5130 C   0  0  1  0  0  3  0  0  0  0  0  0
  193.7880  174.7890  145.2340 C   0  0  0  0  0  2  0  0  0  0  0  0
  191.7990  172.6950  143.8360 O   0  0  0  0  0  1  0  0  0  0  0  0
  186.7820  178.3000  144.4420 C   0  0  0  0  0  3  0  0  0  0  0  0
  187.5350  177.2000  144.0190 C   0  0  0  0  0  0  0  0  0  0  0  0
  191.3730  173.8210  143.1260 C   0  0  2  0  0  3  0  0  0  0  0  0
  188.1100  173.0900  139.4920 C   0  0  0  0  0  2  0  0  0  0  0  0
  189.8410  173.6260  137.7780 C   0  0  0  0  0  1  0  0  0  0  0  0
  188.4230  173.8980  138.2430 C   0  0  0  0  0  2  0  0  0  0  0  0
  1 19  2  0  0  0  0
  1  4  1  0  0  0  0
  2 13  2  0  0  0  0
  2 19  1  0  0  0  0
  3 10  1  0  0  0  0
  4 20  2  0  0  0  0
  5  1  1  0  0  0  0
  6  8  2  0  0  0  0
  7 15  1  1  0  0  0
  7  9  1  0  0  0  0
  9 22  1  0  0  0  0
  9 14  1  1  0  0  0
 10 21  1  6  0  0  0
 11  5  1  0  0  0  0
 11  8  1  0  0  0  0
 12  8  1  6  0  0  0
 12 27  1  0  0  0  0
 12  4  1  0  0  0  0
 13 18  1  0  0  0  0
 15 23  1  0  0  0  0
 16  2  1  0  0  0  0
 17  3  1  0  0  0  0
 18 25  2  0  0  0  0
 19 26  1  0  0  0  0
 20 17  1  0  0  0  0
 22 20  1  6  0  0  0
 22 10  1  0  0  0  0
 23 14  1  0  0  0  0
 26 25  1  0  0  0  0
 26 17  2  0  0  0  0
 27  7  1  0  0  0  0
 27 24  1  1  0  0  0
 28 11  1  0  0  0  0
 29 30  1  0  0  0  0
 30 28  1  0  0  0  0
M  END
>  <MODEL>
1

>  <REMARK>
 VINA RESULT:      -8.0      0.000      0.000
  Name = 
  2 active torsions:
  status: ('A' for Active; 'I' for Inactive)
    1  A    between atoms: N_11  and  C_28
    2  A    between atoms: C_28  and  C_30
                            x       y       z     vdW  Elec       q    Type
                         _______ _______ _______ _____ _____    ______ ____

>  <TORSDO>
F 2

$$$$
=
 OpenBabel11112416223D

 30 35  0  0  1  0  0  0  0  0999 V2000
  187.9470  176.9220  145.7520 C   0  0  0  0  0  0  0  0  0  0  0  0
  186.1150  177.9240  147.1360 C   0  0  0  0  0  0  0  0  0  0  0  0
  185.4430  177.3580  141.9360 S   0  0  0  0  0  0  0  0  0  0  0  0
  188.4230  176.5750  144.4690 C   0  0  0  0  0  0  0  0  0  0  0  0
  188.7620  176.5210  146.9550 C   0  0  0  0  0  2  0  0  0  0  0  0
  191.9590  175.9620  145.2820 O   0  0  0  0  0  0  0  0  0  0  0  0
  188.5750  174.0520  143.0450 C   0  0  1  0  0  3  0  0  0  0  0  0
  190.7230  176.1640  145.4240 C   0  0  0  0  0  0  0  0  0  0  0  0
  187.8680  174.7760  141.9690 N   0  0  2  0  0  0  0  0  0  0  0  0
  186.9600  176.8670  141.0310 C   0  0  1  0  0  3  0  0  0  0  0  0
  190.1960  176.5700  146.6940 N   0  0  0  0  0  0  0  0  0  0  0  0
  189.8160  176.0430  144.2380 C   0  0  1  0  0  3  0  0  0  0  0  0
  184.8340  178.4820  147.2010 C   0  0  0  0  0  3  0  0  0  0  0  0
  188.4260  174.2510  140.7310 C   0  0  0  0  0  2  0  0  0  0  0  0
  188.8410  172.6610  142.5050 C   0  0  0  0  0  2  0  0  0  0  0  0
  186.8280  177.8070  148.3230 O   0  0  0  0  0  1  0  0  0  0  0  0
  186.3460  177.2840  143.4720 C   0  0  0  0  0  0  0  0  0  0  0  0
  184.0680  178.6440  146.0510 C   0  0  0  0  0  3  0  0  0  0  0  0
  186.6520  177.5100  145.8880 C   0  0  0  0  0  0  0  0  0  0  0  0
  187.6040  176.7500  143.3560 C   0  0  0  0  0  0  0  0  0  0  0  0
  187.5720  178.0870  140.3720 C   0  0  0  0  0  1  0  0  0  0  0  0
  187.9730  176.2450  142.0030 C   0  0  1  0  0  3  0  0  0  0  0  0
  188.7910  172.8030  140.9960 C   0  0  0  0  0  2  0  0  0  0  0  0
  190.8480  174.7530  142.5000 O   0  0  0  0  0  1  0  0  0  0  0  0
  184.5750  178.2510  144.8160 C   0  0  0  0  0  3  0  0  0  0  0  0
  185.8540  177.6930  144.7180 C   0  0  0  0  0  0  0  0  0  0  0  0
  189.9110  174.6790  143.5340 C   0  0  2  0  0  3  0  0  0  0  0  0
  191.0960  176.8530  147.8060 C   0  0  0  0  0  2  0  0  0  0  0  0
  191.4480  178.2380  149.8500 C   0  0  0  0  0  1  0  0  0  0  0  0
  190.5920  178.0390  148.6140 C   0  0  0  0  0  2  0  0  0  0  0  0
  1 19  1  0  0  0  0
  1  5  1  0  0  0  0
  2 13  1  0  0  0  0
  2 16  1  0  0  0  0
  3 17  1  0  0  0  0
  4  1  2  0  0  0  0
  6  8  2  0  0  0  0
  7 15  1  6  0  0  0
  7 27  1  0  0  0  0
  8 11  1  0  0  0  0
  9 14  1  6  0  0  0
  9 22  1  0  0  0  0
  9  7  1  0  0  0  0
 10 21  1  1  0  0  0
 10  3  1  0  0  0  0
 10 22  1  0  0  0  0
 11  5  1  0  0  0  0
 11 28  1  0  0  0  0
 12  4  1  1  0  0  0
 12  8  1  0  0  0  0
 14 23  1  0  0  0  0
 17 26  1  0  0  0  0
 18 13  2  0  0  0  0
 19  2  2  0  0  0  0
 20 17  2  0  0  0  0
 20  4  1  0  0  0  0
 22 20  1  1  0  0  0
 23 15  1  0  0  0  0
 25 18  1  0  0  0  0
 26 25  2  0  0  0  0
 26 19  1  0  0  0  0
 27 24  1  6  0  0  0
 27 12  1  0  0  0  0
 28 30  1  0  0  0  0
 30 29  1  0  0  0  0
M  END
>  <MODEL>
2

>  <REMARK>
 VINA RESULT:      -7.9      2.659      5.919
  Name = 
  2 active torsions:
  status: ('A' for Active; 'I' for Inactive)
    1  A    between atoms: N_11  and  C_28
    2  A    between atoms: C_28  and  C_30
                            x       y       z     vdW  Elec       q    Type
                         _______ _______ _______ _____ _____    ______ ____

>  <TORSDO>
F 2

$$$$
=
 OpenBabel11112416223D

 30 35  0  0  1  0  0  0  0  0999 V2000
  186.5500  177.4520  143.7640 C   0  0  0  0  0  0  0  0  0  0  0  0
  184.8250  178.5230  145.2310 C   0  0  0  0  0  0  0  0  0  0  0  0
  188.6800  175.6560  147.4050 S   0  0  0  0  0  0  0  0  0  0  0  0
  187.6760  176.6060  143.6630 C   0  0  0  0  0  0  0  0  0  0  0  0
  186.0760  178.1690  142.5260 C   0  0  0  0  0  2  0  0  0  0  0  0
  187.7060  176.0680  140.0240 O   0  0  0  0  0  0  0  0  0  0  0  0
  190.5110  177.1390  143.3530 C   0  0  1  0  0  3  0  0  0  0  0  0
  187.4220  176.5500  141.1530 C   0  0  0  0  0  0  0  0  0  0  0  0
  190.6630  176.2630  144.5340 N   0  0  2  0  0  0  0  0  0  0  0  0
  189.6960  174.7240  146.1970 C   0  0  1  0  0  3  0  0  0  0  0  0
  186.2580  177.3710  141.3190 N   0  0  0  0  0  0  0  0  0  0  0  0
  188.2710  176.2030  142.3370 C   0  0  1  0  0  3  0  0  0  0  0  0
  184.3240  178.7530  146.5160 C   0  0  0  0  0  3  0  0  0  0  0  0
  191.8950  175.5240  144.2980 C   0  0  0  0  0  2  0  0  0  0  0  0
  191.9180  177.5220  142.9360 C   0  0  0  0  0  2  0  0  0  0  0  0
  184.1460  179.0960  144.1630 O   0  0  0  0  0  1  0  0  0  0  0  0
  187.7430  176.3600  146.0610 C   0  0  0  0  0  0  0  0  0  0  0  0
  184.9430  178.1980  147.6320 C   0  0  0  0  0  3  0  0  0  0  0  0
  185.9800  177.7170  145.0470 C   0  0  0  0  0  0  0  0  0  0  0  0
  188.2590  176.0900  144.8190 C   0  0  0  0  0  0  0  0  0  0  0  0
  189.2410  173.2770  146.1660 C   0  0  0  0  0  1  0  0  0  0  0  0
  189.5470  175.3400  144.7990 C   0  0  1  0  0  3  0  0  0  0  0  0
  192.8120  176.4410  143.5130 C   0  0  0  0  0  2  0  0  0  0  0  0
  190.4220  175.4020  141.6410 O   0  0  0  0  0  1  0  0  0  0  0  0
  186.0730  177.4000  147.4770 C   0  0  0  0  0  3  0  0  0  0  0  0
  186.5950  177.1490  146.2030 C   0  0  0  0  0  0  0  0  0  0  0  0
  189.7600  176.5290  142.1360 C   0  0  2  0  0  3  0  0  0  0  0  0
  185.3360  177.5720  140.2070 C   0  0  0  0  0  2  0  0  0  0  0  0
  182.8880  177.9690  140.4710 C   0  0  0  0  0  1  0  0  0  0  0  0
  184.2680  178.5900  140.5740 C   0  0  0  0  0  2  0  0  0  0  0  0
  1 19  1  0  0  0  0
  2 13  1  0  0  0  0
  4  1  2  0  0  0  0
  4 20  1  0  0  0  0
  5  1  1  0  0  0  0
  6  8  2  0  0  0  0
  7 15  1  6  0  0  0
  7  9  1  0  0  0  0
  8 11  1  0  0  0  0
  9 14  1  6  0  0  0
  9 22  1  0  0  0  0
 10 21  1  6  0  0  0
 10  3  1  0  0  0  0
 11  5  1  0  0  0  0
 12  8  1  6  0  0  0
 12  4  1  0  0  0  0
 13 18  2  0  0  0  0
 15 23  1  0  0  0  0
 16  2  1  0  0  0  0
 17 26  1  0  0  0  0
 17  3  1  0  0  0  0
 19  2  2  0  0  0  0
 19 26  1  0  0  0  0
 20 17  2  0  0  0  0
 22 20  1  1  0  0  0
 22 10  1  0  0  0  0
 23 14  1  0  0  0  0
 25 18  1  0  0  0  0
 26 25  2  0  0  0  0
 27 24  1  1  0  0  0
 27 12  1  0  0  0  0
 27  7  1  0  0  0  0
 28 30  1  0  0  0  0
 28 11  1  0  0  0  0
 29 30  1  0  0  0  0
M  END
>  <MODEL>
3

>  <REMARK>
 VINA RESULT:      -7.8      2.319      3.705
  Name = 
  2 active torsions:
  status: ('A' for Active; 'I' for Inactive)
    1  A    between atoms: N_11  and  C_28
    2  A    between atoms: C_28  and  C_30
                            x       y       z     vdW  Elec       q    Type
                         _______ _______ _______ _____ _____    ______ ____

>  <TORSDO>
F 2

$$$$
=
 OpenBabel11112416223D

 30 35  0  0  1  0  0  0  0  0999 V2000
  190.1930  176.6640  145.0170 C   0  0  0  0  0  0  0  0  0  0  0  0
  189.0990  177.5820  147.0750 C   0  0  0  0  0  0  0  0  0  0  0  0
  186.1930  176.6320  142.7770 S   0  0  0  0  0  0  0  0  0  0  0  0
  190.0660  176.2820  143.6640 C   0  0  0  0  0  0  0  0  0  0  0  0
  191.5060  176.4140  145.7150 C   0  0  0  0  0  2  0  0  0  0  0  0
  193.6260  176.0410  142.7660 O   0  0  0  0  0  0  0  0  0  0  0  0
  189.8250  173.6980  142.3670 C   0  0  1  0  0  3  0  0  0  0  0  0
  192.5780  176.1400  143.4580 C   0  0  0  0  0  0  0  0  0  0  0  0
  188.6300  174.2860  141.7270 N   0  0  2  0  0  0  0  0  0  0  0  0
  187.1730  176.2230  141.2830 C   0  0  1  0  0  3  0  0  0  0  0  0
  192.6480  176.5760  144.8220 N   0  0  0  0  0  0  0  0  0  0  0  0
  191.2490  175.8640  142.8250 C   0  0  1  0  0  3  0  0  0  0  0  0
  187.9370  178.0250  147.7140 C   0  0  0  0  0  3  0  0  0  0  0  0
  188.6160  173.7370  140.3790 C   0  0  0  0  0  2  0  0  0  0  0  0
  189.9640  172.3050  141.7850 C   0  0  0  0  0  2  0  0  0  0  0  0
  190.2830  177.6050  147.8010 O   0  0  0  0  0  1  0  0  0  0  0  0
  187.6990  176.7370  143.7260 C   0  0  0  0  0  0  0  0  0  0  0  0
  186.7170  178.0450  147.0440 C   0  0  0  0  0  3  0  0  0  0  0  0
  189.0480  177.1400  145.7250 C   0  0  0  0  0  0  0  0  0  0  0  0
  188.8160  176.3120  143.0510 C   0  0  0  0  0  0  0  0  0  0  0  0
  187.2800  177.4500  140.3980 C   0  0  0  0  0  1  0  0  0  0  0  0
  188.5780  175.7570  141.6870 C   0  0  1  0  0  3  0  0  0  0  0  0
  189.2160  172.3470  140.4670 C   0  0  0  0  0  2  0  0  0  0  0  0
  191.5070  174.5650  140.8250 O   0  0  0  0  0  1  0  0  0  0  0  0
  186.6440  177.6230  145.7200 C   0  0  0  0  0  3  0  0  0  0  0  0
  187.7900  177.1770  145.0520 C   0  0  0  0  0  0  0  0  0  0  0  0
  191.1590  174.4720  142.1760 C   0  0  2  0  0  3  0  0  0  0  0  0
  193.9190  177.0080  145.3910 C   0  0  0  0  0  2  0  0  0  0  0  0
  195.3350  175.0100  145.8660 C   0  0  0  0  0  1  0  0  0  0  0  0
  194.3860  176.0340  146.4600 C   0  0  0  0  0  2  0  0  0  0  0  0
  1  5  1  0  0  0  0
  1 19  1  0  0  0  0
  2 13  1  0  0  0  0
  2 16  1  0  0  0  0
  3 17  1  0  0  0  0
  4  1  2  0  0  0  0
  6  8  2  0  0  0  0
  7 15  1  6  0  0  0
  8 11  1  0  0  0  0
  9 14  1  6  0  0  0
  9  7  1  0  0  0  0
 10 21  1  6  0  0  0
 10 22  1  0  0  0  0
 10  3  1  0  0  0  0
 11 28  1  0  0  0  0
 11  5  1  0  0  0  0
 12  8  1  1  0  0  0
 12  4  1  0  0  0  0
 14 23  1  0  0  0  0
 17 26  1  0  0  0  0
 18 13  2  0  0  0  0
 19  2  2  0  0  0  0
 20  4  1  0  0  0  0
 20 17  2  0  0  0  0
 22  9  1  0  0  0  0
 22 20  1  1  0  0  0
 23 15  1  0  0  0  0
 25 18  1  0  0  0  0
 26 25  2  0  0  0  0
 26 19  1  0  0  0  0
 27 24  1  6  0  0  0
 27  7  1  0  0  0  0
 27 12  1  0  0  0  0
 28 30  1  0  0  0  0
 29 30  1  0  0  0  0
M  END
>  <MODEL>
4

>  <REMARK>
 VINA RESULT:      -7.6      2.269      5.536
  Name = 
  2 active torsions:
  status: ('A' for Active; 'I' for Inactive)
    1  A    between atoms: N_11  and  C_28
    2  A    between atoms: C_28  and  C_30
                            x       y       z     vdW  Elec       q    Type
                         _______ _______ _______ _____ _____    ______ ____

>  <TORSDO>
F 2

$$$$
=
 OpenBabel11112416223D

 30 35  0  0  1  0  0  0  0  0999 V2000
  188.1120  175.3150  142.7630 C   0  0  0  0  0  0  0  0  0  0  0  0
  189.1310  173.1260  142.0970 C   0  0  0  0  0  0  0  0  0  0  0  0
  189.9180  174.9940  146.9660 S   0  0  0  0  0  0  0  0  0  0  0  0
  187.9760  176.3220  143.7440 C   0  0  0  0  0  0  0  0  0  0  0  0
  187.2870  175.4190  141.5070 C   0  0  0  0  0  2  0  0  0  0  0  0
  186.4710  178.9730  141.6850 O   0  0  0  0  0  0  0  0  0  0  0  0
  185.8690  176.9460  145.6380 C   0  0  1  0  0  3  0  0  0  0  0  0
  186.8880  177.8410  142.0470 C   0  0  0  0  0  0  0  0  0  0  0  0
  186.9500  176.9010  146.6440 N   0  0  2  0  0  0  0  0  0  0  0  0
  189.3410  176.7170  147.2120 C   0  0  1  0  0  3  0  0  0  0  0  0
  187.0950  176.8010  141.0820 N   0  0  0  0  0  0  0  0  0  0  0  0
  187.2320  177.6090  143.4870 C   0  0  1  0  0  3  0  0  0  0  0  0
  189.9130  172.0180  142.4380 C   0  0  0  0  0  3  0  0  0  0  0  0
  186.6170  177.9440  147.6040 C   0  0  0  0  0  2  0  0  0  0  0  0
  184.6130  177.3320  146.3950 C   0  0  0  0  0  2  0  0  0  0  0  0
  188.6010  173.1700  140.8140 O   0  0  0  0  0  1  0  0  0  0  0  0
  189.3100  175.0390  145.2900 C   0  0  0  0  0  0  0  0  0  0  0  0
  190.4890  171.9130  143.7000 C   0  0  0  0  0  3  0  0  0  0  0  0
  188.9100  174.1630  143.0420 C   0  0  0  0  0  0  0  0  0  0  0  0
  188.5660  176.1540  144.9950 C   0  0  0  0  0  0  0  0  0  0  0  0
  190.5250  177.6610  147.1360 C   0  0  0  0  0  1  0  0  0  0  0  0
  188.3170  177.0870  146.1300 C   0  0  1  0  0  3  0  0  0  0  0  0
  185.1030  178.0250  147.6530 C   0  0  0  0  0  2  0  0  0  0  0  0
  186.1870  179.2480  144.8910 O   0  0  0  0  0  1  0  0  0  0  0  0
  190.2920  172.9200  144.6410 C   0  0  0  0  0  3  0  0  0  0  0  0
  189.5170  174.0420  144.3290 C   0  0  0  0  0  0  0  0  0  0  0  0
  186.0760  177.9270  144.4500 C   0  0  2  0  0  3  0  0  0  0  0  0
  186.9230  177.0740  139.6600 C   0  0  0  0  0  2  0  0  0  0  0  0
  186.7170  176.0140  137.4120 C   0  0  0  0  0  1  0  0  0  0  0  0
  187.2000  175.8260  138.8380 C   0  0  0  0  0  2  0  0  0  0  0  0
  1 19  2  0  0  0  0
  1  4  1  0  0  0  0
  2 13  2  0  0  0  0
  2 19  1  0  0  0  0
  3 10  1  0  0  0  0
  4 20  2  0  0  0  0
  5  1  1  0  0  0  0
  6  8  2  0  0  0  0
  7 15  1  1  0  0  0
  7  9  1  0  0  0  0
  9 14  1  1  0  0  0
 10 21  1  6  0  0  0
 11  5  1  0  0  0  0
 11  8  1  0  0  0  0
 12  8  1  6  0  0  0
 12  4  1  0  0  0  0
 12 27  1  0  0  0  0
 13 18  1  0  0  0  0
 14 23  1  0  0  0  0
 15 23  1  0  0  0  0
 16  2  1  0  0  0  0
 17  3  1  0  0  0  0
 18 25  2  0  0  0  0
 19 26  1  0  0  0  0
 20 17  1  0  0  0  0
 22 20  1  6  0  0  0
 22  9  1  0  0  0  0
 22 10  1  0  0  0  0
 26 25  1  0  0  0  0
 26 17  2  0  0  0  0
 27 24  1  1  0  0  0
 27  7  1  0  0  0  0
 28 11  1  0  0  0  0
 29 30  1  0  0  0  0
 30 28  1  0  0  0  0
M  END
>  <MODEL>
5

>  <REMARK>
 VINA RESULT:      -7.5      2.374      5.349
  Name = 
  2 active torsions:
  status: ('A' for Active; 'I' for Inactive)
    1  A    between atoms: N_11  and  C_28
    2  A    between atoms: C_28  and  C_30
                            x       y       z     vdW  Elec       q    Type
                         _______ _______ _______ _____ _____    ______ ____

>  <TORSDO>
F 2

$$$$
=
 OpenBabel11112416223D

 30 35  0  0  1  0  0  0  0  0999 V2000
  188.0690  175.6890  142.1150 C   0  0  0  0  0  0  0  0  0  0  0  0
  186.6620  176.9010  140.4340 C   0  0  0  0  0  0  0  0  0  0  0  0
  186.5900  178.4280  145.4820 S   0  0  0  0  0  0  0  0  0  0  0  0
  188.4450  175.5270  143.4670 C   0  0  0  0  0  0  0  0  0  0  0  0
  188.7930  174.8840  141.0660 C   0  0  0  0  0  2  0  0  0  0  0  0
  190.1770  172.2900  143.2300 O   0  0  0  0  0  0  0  0  0  0  0  0
  190.7750  176.3780  144.9720 C   0  0  1  0  0  3  0  0  0  0  0  0
  189.6170  173.3670  142.8930 C   0  0  0  0  0  0  0  0  0  0  0  0
  189.7870  176.9620  145.9030 N   0  0  2  0  0  0  0  0  0  0  0  0
  187.4530  177.2830  146.6250 C   0  0  1  0  0  3  0  0  0  0  0  0
  189.1670  173.5580  141.5440 N   0  0  0  0  0  0  0  0  0  0  0  0
  189.3600  174.4200  143.9270 C   0  0  1  0  0  3  0  0  0  0  0  0
  185.7440  177.9180  140.1540 C   0  0  0  0  0  3  0  0  0  0  0  0
  190.3610  176.7730  147.2280 C   0  0  0  0  0  2  0  0  0  0  0  0
  192.1340  176.6430  145.5890 C   0  0  0  0  0  2  0  0  0  0  0  0
  187.0840  176.1050  139.3770 O   0  0  0  0  0  1  0  0  0  0  0  0
  187.0570  177.3920  144.1070 C   0  0  0  0  0  0  0  0  0  0  0  0
  185.2660  178.7450  141.1660 C   0  0  0  0  0  3  0  0  0  0  0  0
  187.1240  176.7000  141.7630 C   0  0  0  0  0  0  0  0  0  0  0  0
  187.9410  176.3950  144.4330 C   0  0  0  0  0  0  0  0  0  0  0  0
  186.4330  176.4140  147.3340 C   0  0  0  0  0  1  0  0  0  0  0  0
  188.4300  176.3950  145.8420 C   0  0  1  0  0  3  0  0  0  0  0  0
  191.8680  176.8520  147.0670 C   0  0  0  0  0  2  0  0  0  0  0  0
  190.7670  174.0980  145.8420 O   0  0  0  0  0  1  0  0  0  0  0  0
  185.6990  178.5630  142.4760 C   0  0  0  0  0  3  0  0  0  0  0  0
  186.6140  177.5520  142.7880 C   0  0  0  0  0  0  0  0  0  0  0  0
  190.6290  174.8580  144.6780 C   0  0  2  0  0  3  0  0  0  0  0  0
  189.2620  172.4710  140.5770 C   0  0  0  0  0  2  0  0  0  0  0  0
  188.9340  172.7200  138.1180 C   0  0  0  0  0  1  0  0  0  0  0  0
  188.2410  172.6540  139.4650 C   0  0  0  0  0  2  0  0  0  0  0  0
  1  4  1  0  0  0  0
  2 19  1  0  0  0  0
  3 10  1  0  0  0  0
  4 12  1  0  0  0  0
  4 20  2  0  0  0  0
  5 11  1  0  0  0  0
  5  1  1  0  0  0  0
  7 15  1  1  0  0  0
  7  9  1  0  0  0  0
  8  6  2  0  0  0  0
  9 14  1  1  0  0  0
 10 21  1  6  0  0  0
 11  8  1  0  0  0  0
 12  8  1  6  0  0  0
 12 27  1  0  0  0  0
 13  2  2  0  0  0  0
 13 18  1  0  0  0  0
 15 23  1  0  0  0  0
 16  2  1  0  0  0  0
 17 20  1  0  0  0  0
 17  3  1  0  0  0  0
 18 25  2  0  0  0  0
 19  1  2  0  0  0  0
 19 26  1  0  0  0  0
 22 20  1  6  0  0  0
 22  9  1  0  0  0  0
 22 10  1  0  0  0  0
 23 14  1  0  0  0  0
 25 26  1  0  0  0  0
 26 17  2  0  0  0  0
 27  7  1  0  0  0  0
 27 24  1  1  0  0  0
 28 11  1  0  0  0  0
 29 30  1  0  0  0  0
 30 28  1  0  0  0  0
M  END
>  <MODEL>
6

>  <REMARK>
 VINA RESULT:      -7.3      1.563      2.060
  Name = 
  2 active torsions:
  status: ('A' for Active; 'I' for Inactive)
    1  A    between atoms: N_11  and  C_28
    2  A    between atoms: C_28  and  C_30
                            x       y       z     vdW  Elec       q    Type
                         _______ _______ _______ _____ _____    ______ ____

>  <TORSDO>
F 2

$$$$
=
 OpenBabel11112416223D

 30 35  0  0  1  0  0  0  0  0999 V2000
  189.3280  174.6110  142.0550 C   0  0  0  0  0  0  0  0  0  0  0  0
  189.3050  172.8790  140.2450 C   0  0  0  0  0  0  0  0  0  0  0  0
  193.6100  173.4710  143.2320 S   0  0  0  0  0  0  0  0  0  0  0  0
  190.0590  175.2800  143.0610 C   0  0  0  0  0  0  0  0  0  0  0  0
  187.8580  174.9120  141.9130 C   0  0  0  0  0  2  0  0  0  0  0  0
  187.7840  178.1040  143.6850 O   0  0  0  0  0  0  0  0  0  0  0  0
  190.1180  175.0180  145.9500 C   0  0  1  0  0  3  0  0  0  0  0  0
  188.2230  177.0000  143.2640 C   0  0  0  0  0  0  0  0  0  0  0  0
  191.5780  174.8810  145.7680 N   0  0  2  0  0  0  0  0  0  0  0  0
  193.5720  174.9460  144.3220 C   0  0  1  0  0  3  0  0  0  0  0  0
  187.5470  176.3070  142.2060 N   0  0  0  0  0  0  0  0  0  0  0  0
  189.4950  176.4490  143.8300 C   0  0  1  0  0  3  0  0  0  0  0  0
  189.9720  171.8650  139.5520 C   0  0  0  0  0  3  0  0  0  0  0  0
  192.1650  175.5580  146.9150 C   0  0  0  0  0  2  0  0  0  0  0  0
  189.8800  174.9740  147.4460 C   0  0  0  0  0  2  0  0  0  0  0  0
  188.0060  173.1800  139.8530 O   0  0  0  0  0  1  0  0  0  0  0  0
  191.9690  173.8660  142.6560 C   0  0  0  0  0  0  0  0  0  0  0  0
  191.2800  171.5200  139.8790 C   0  0  0  0  0  3  0  0  0  0  0  0
  189.9560  173.5730  141.3000 C   0  0  0  0  0  0  0  0  0  0  0  0
  191.3610  174.8810  143.3510 C   0  0  0  0  0  0  0  0  0  0  0  0
  194.3930  176.0560  143.6960 C   0  0  0  0  0  1  0  0  0  0  0  0
  192.1250  175.4210  144.5120 C   0  0  1  0  0  3  0  0  0  0  0  0
  191.2020  175.3730  148.0720 C   0  0  0  0  0  2  0  0  0  0  0  0
  189.9950  177.4550  145.9500 O   0  0  0  0  0  1  0  0  0  0  0  0
  191.9410  172.1900  140.9050 C   0  0  0  0  0  3  0  0  0  0  0  0
  191.3000  173.2120  141.6140 C   0  0  0  0  0  0  0  0  0  0  0  0
  189.4690  176.3020  145.3610 C   0  0  2  0  0  3  0  0  0  0  0  0
  186.4060  176.9200  141.5380 C   0  0  0  0  0  2  0  0  0  0  0  0
  186.5430  176.8810  139.0480 C   0  0  0  0  0  1  0  0  0  0  0  0
  186.8550  177.6790  140.2990 C   0  0  0  0  0  2  0  0  0  0  0  0
  1  4  1  0  0  0  0
  2 19  1  0  0  0  0
  3 10  1  0  0  0  0
  4 20  2  0  0  0  0
  5  1  1  0  0  0  0
  5 11  1  0  0  0  0
  7 15  1  1  0  0  0
  8  6  2  0  0  0  0
  8 12  1  0  0  0  0
  9  7  1  0  0  0  0
  9 14  1  1  0  0  0
 10 21  1  6  0  0  0
 10 22  1  0  0  0  0
 11  8  1  0  0  0  0
 12  4  1  6  0  0  0
 12 27  1  0  0  0  0
 13 18  1  0  0  0  0
 13  2  2  0  0  0  0
 14 23  1  0  0  0  0
 15 23  1  0  0  0  0
 16  2  1  0  0  0  0
 17  3  1  0  0  0  0
 17 20  1  0  0  0  0
 18 25  2  0  0  0  0
 19 26  1  0  0  0  0
 19  1  2  0  0  0  0
 22 20  1  6  0  0  0
 22  9  1  0  0  0  0
 25 26  1  0  0  0  0
 26 17  2  0  0  0  0
 27 24  1  1  0  0  0
 27  7  1  0  0  0  0
 28 11  1  0  0  0  0
 29 30  1  0  0  0  0
 30 28  1  0  0  0  0
M  END
>  <MODEL>
7

>  <REMARK>
 VINA RESULT:      -7.0      2.339      5.010
  Name = 
  2 active torsions:
  status: ('A' for Active; 'I' for Inactive)
    1  A    between atoms: N_11  and  C_28
    2  A    between atoms: C_28  and  C_30
                            x       y       z     vdW  Elec       q    Type
                         _______ _______ _______ _____ _____    ______ ____

>  <TORSDO>
F 2

$$$$
=
 OpenBabel11112416223D

 30 35  0  0  1  0  0  0  0  0999 V2000
  190.4040  173.0080  142.9570 C   0  0  0  0  0  0  0  0  0  0  0  0
  191.5720  170.7920  143.0100 C   0  0  0  0  0  0  0  0  0  0  0  0
  193.2430  174.6950  146.1380 S   0  0  0  0  0  0  0  0  0  0  0  0
  190.3550  174.3450  143.4090 C   0  0  0  0  0  0  0  0  0  0  0  0
  189.2820  172.5000  142.0880 C   0  0  0  0  0  2  0  0  0  0  0  0
  187.9570  175.7160  140.9780 O   0  0  0  0  0  0  0  0  0  0  0  0
  188.7230  175.6880  145.3960 C   0  0  1  0  0  3  0  0  0  0  0  0
  188.6350  174.8880  141.6430 C   0  0  0  0  0  0  0  0  0  0  0  0
  190.0160  176.1420  145.9480 N   0  0  2  0  0  0  0  0  0  0  0  0
  192.4680  176.3200  145.7900 C   0  0  1  0  0  3  0  0  0  0  0  0
  188.7610  173.5310  141.1970 N   0  0  0  0  0  0  0  0  0  0  0  0
  189.3670  175.3480  142.8660 C   0  0  1  0  0  3  0  0  0  0  0  0
  192.5880  169.9880  143.5350 C   0  0  0  0  0  3  0  0  0  0  0  0
  189.7670  177.4950  146.4260 C   0  0  0  0  0  2  0  0  0  0  0  0
  187.6540  176.3320  146.2570 C   0  0  0  0  0  2  0  0  0  0  0  0
  190.7340  170.2300  142.0550 O   0  0  0  0  0  1  0  0  0  0  0  0
  192.2320  173.9530  144.8710 C   0  0  0  0  0  0  0  0  0  0  0  0
  193.4740  170.4890  144.4840 C   0  0  0  0  0  3  0  0  0  0  0  0
  191.4270  172.1370  143.4430 C   0  0  0  0  0  0  0  0  0  0  0  0
  191.2630  174.7840  144.3700 C   0  0  0  0  0  0  0  0  0  0  0  0
  193.4200  177.1680  144.9680 C   0  0  0  0  0  1  0  0  0  0  0  0
  191.1570  176.1230  145.0180 C   0  0  1  0  0  3  0  0  0  0  0  0
  188.3230  177.5360  146.8890 C   0  0  0  0  0  2  0  0  0  0  0  0
  188.4520  177.4080  143.6860 O   0  0  0  0  0  1  0  0  0  0  0  0
  193.3570  171.8060  144.9200 C   0  0  0  0  0  3  0  0  0  0  0  0
  192.3520  172.6360  144.4100 C   0  0  0  0  0  0  0  0  0  0  0  0
  188.4550  176.0270  143.9020 C   0  0  2  0  0  3  0  0  0  0  0  0
  188.1910  173.1210  139.9190 C   0  0  0  0  0  2  0  0  0  0  0  0
  190.3240  173.4090  138.6590 C   0  0  0  0  0  1  0  0  0  0  0  0
  189.2400  172.4290  139.0630 C   0  0  0  0  0  2  0  0  0  0  0  0
  1  4  2  0  0  0  0
  1 19  1  0  0  0  0
  2 19  2  0  0  0  0
  2 13  1  0  0  0  0
  4 20  1  0  0  0  0
  5  1  1  0  0  0  0
  6  8  2  0  0  0  0
  7  9  1  0  0  0  0
  7 15  1  1  0  0  0
  9 14  1  6  0  0  0
 10 21  1  6  0  0  0
 10  3  1  0  0  0  0
 11  8  1  0  0  0  0
 11  5  1  0  0  0  0
 12  8  1  6  0  0  0
 12  4  1  0  0  0  0
 12 27  1  0  0  0  0
 13 18  2  0  0  0  0
 14 23  1  0  0  0  0
 15 23  1  0  0  0  0
 16  2  1  0  0  0  0
 17  3  1  0  0  0  0
 18 25  1  0  0  0  0
 19 26  1  0  0  0  0
 20 17  2  0  0  0  0
 22 20  1  1  0  0  0
 22 10  1  0  0  0  0
 22  9  1  0  0  0  0
 26 17  1  0  0  0  0
 26 25  2  0  0  0  0
 27 24  1  1  0  0  0
 27  7  1  0  0  0  0
 28 11  1  0  0  0  0
 29 30  1  0  0  0  0
 30 28  1  0  0  0  0
M  END
>  <MODEL>
8

>  <REMARK>
 VINA RESULT:      -6.8      2.209      5.380
  Name = 
  2 active torsions:
  status: ('A' for Active; 'I' for Inactive)
    1  A    between atoms: N_11  and  C_28
    2  A    between atoms: C_28  and  C_30
                            x       y       z     vdW  Elec       q    Type
                         _______ _______ _______ _____ _____    ______ ____

>  <TORSDO>
F 2

$$$$
=
 OpenBabel11112416223D

 30 35  0  0  1  0  0  0  0  0999 V2000
  189.5130  175.2820  142.6210 C   0  0  0  0  0  0  0  0  0  0  0  0
  187.4450  176.3920  143.4950 C   0  0  0  0  0  0  0  0  0  0  0  0
  191.8790  176.5260  146.3460 S   0  0  0  0  0  0  0  0  0  0  0  0
  190.8570  174.9120  142.8440 C   0  0  0  0  0  0  0  0  0  0  0  0
  188.9110  175.0180  141.2650 C   0  0  0  0  0  2  0  0  0  0  0  0
  191.2890  172.5090  140.0910 O   0  0  0  0  0  0  0  0  0  0  0  0
  193.3780  176.0230  141.9330 C   0  0  1  0  0  3  0  0  0  0  0  0
  190.7930  173.4160  140.8120 C   0  0  0  0  0  0  0  0  0  0  0  0
  193.7320  176.0330  143.3680 N   0  0  2  0  0  0  0  0  0  0  0  0
  193.2170  175.4480  145.7060 C   0  0  1  0  0  3  0  0  0  0  0  0
  189.4170  173.7900  140.6610 N   0  0  0  0  0  0  0  0  0  0  0  0
  191.6330  174.0530  141.8770 C   0  0  1  0  0  3  0  0  0  0  0  0
  186.8170  177.1220  144.5080 C   0  0  0  0  0  3  0  0  0  0  0  0
  195.1500  175.7040  143.4080 C   0  0  0  0  0  2  0  0  0  0  0  0
  194.6060  176.5220  141.1990 C   0  0  0  0  0  2  0  0  0  0  0  0
  186.6850  176.0470  142.3840 O   0  0  0  0  0  1  0  0  0  0  0  0
  190.8510  176.0530  144.9680 C   0  0  0  0  0  0  0  0  0  0  0  0
  187.5110  177.4890  145.6570 C   0  0  0  0  0  3  0  0  0  0  0  0
  188.8090  176.0160  143.6230 C   0  0  0  0  0  0  0  0  0  0  0  0
  191.5030  175.3200  144.0090 C   0  0  0  0  0  0  0  0  0  0  0  0
  193.2610  174.1660  146.5130 C   0  0  0  0  0  1  0  0  0  0  0  0
  192.9640  175.1180  144.2280 C   0  0  1  0  0  3  0  0  0  0  0  0
  195.7660  176.2690  142.1420 C   0  0  0  0  0  2  0  0  0  0  0  0
  193.9670  173.7050  141.4470 O   0  0  0  0  0  1  0  0  0  0  0  0
  188.8470  177.1270  145.8090 C   0  0  0  0  0  3  0  0  0  0  0  0
  189.5010  176.3940  144.8130 C   0  0  0  0  0  0  0  0  0  0  0  0
  192.9450  174.6520  141.3410 C   0  0  2  0  0  3  0  0  0  0  0  0
  188.5520  173.0570  139.7450 C   0  0  0  0  0  2  0  0  0  0  0  0
  189.2500  173.7910  137.4660 C   0  0  0  0  0  1  0  0  0  0  0  0
  188.1920  173.9180  138.5450 C   0  0  0  0  0  2  0  0  0  0  0  0
  1  4  2  0  0  0  0
  1 19  1  0  0  0  0
  2 19  2  0  0  0  0
  2 13  1  0  0  0  0
  4 20  1  0  0  0  0
  5  1  1  0  0  0  0
  6  8  2  0  0  0  0
  7 15  1  6  0  0  0
  7  9  1  0  0  0  0
  9 14  1  6  0  0  0
  9 22  1  0  0  0  0
 10  3  1  0  0  0  0
 10 21  1  1  0  0  0
 11  8  1  0  0  0  0
 11  5  1  0  0  0  0
 12  8  1  6  0  0  0
 12  4  1  0  0  0  0
 13 18  2  0  0  0  0
 15 23  1  0  0  0  0
 16  2  1  0  0  0  0
 17  3  1  0  0  0  0
 18 25  1  0  0  0  0
 19 26  1  0  0  0  0
 20 17  2  0  0  0  0
 22 20  1  6  0  0  0
 22 10  1  0  0  0  0
 23 14  1  0  0  0  0
 26 17  1  0  0  0  0
 26 25  2  0  0  0  0
 27 24  1  1  0  0  0
 27 12  1  0  0  0  0
 27  7  1  0  0  0  0
 28 11  1  0  0  0  0
 29 30  1  0  0  0  0
 30 28  1  0  0  0  0
M  END
>  <MODEL>
9

>  <REMARK>
 VINA RESULT:      -6.7      1.764      2.581
  Name = 
  2 active torsions:
  status: ('A' for Active; 'I' for Inactive)
    1  A    between atoms: N_11  and  C_28
    2  A    between atoms: C_28  and  C_30
                            x       y       z     vdW  Elec       q    Type
                         _______ _______ _______ _____ _____    ______ ____

>  <TORSDO>
F 2

$$$$
