=
 OpenBabel11112417293D

 37 42  0  0  1  0  0  0  0  0999 V2000
  187.6760  176.7380  141.4040 C   0  0  0  0  0  0  0  0  0  0  0  0
  189.9600  174.2160  142.9760 C   0  0  1  0  0  3  0  0  0  0  0  0
  190.9450  174.5200  146.2000 O   0  0  0  0  0  0  0  0  0  0  0  0
  187.9290  174.4600  141.3300 C   0  0  2  0  0  3  0  0  0  0  0  0
  190.3490  175.3080  143.9860 C   0  0  2  0  0  3  0  0  0  0  0  0
  188.4490  174.4470  142.7590 C   0  0  2  0  0  3  0  0  0  0  0  0
  191.4770  174.9580  144.9760 C   0  0  2  0  0  3  0  0  0  0  0  0
  188.4700  173.2670  140.5820 C   0  0  0  0  0  2  0  0  0  0  0  0
  188.0670  175.7430  143.4650 C   0  0  2  0  0  3  0  0  0  0  0  0
  186.3040  176.5860  141.5790 F   0  0  0  0  0  0  0  0  0  0  0  0
  192.2480  173.7630  141.9660 C   0  0  0  0  0  2  0  0  0  0  0  0
  190.2480  173.4240  140.2200 S   0  0  0  0  0  0  0  0  0  0  0  0
  188.3410  176.8680  142.6470 O   0  0  0  0  0  0  0  0  0  0  0  0
  190.8320  176.5460  147.1860 C   0  0  0  0  0  2  0  0  0  0  0  0
  191.4870  175.2850  147.1420 O   0  0  0  0  0  0  0  0  0  0  0  0
  190.8470  174.3210  141.7110 C   0  0  1  0  0  3  0  0  0  0  0  0
  189.0320  175.7240  144.6420 C   0  0  2  0  0  3  0  0  0  0  0  0
  188.2240  175.6660  140.6640 O   0  0  0  0  0  0  0  0  0  0  0  0
  192.5490  174.0070  144.4210 C   0  0  1  0  0  3  0  0  0  0  0  0
  187.8800  177.9000  140.6860 F   0  0  0  0  0  0  0  0  0  0  0  0
  189.3470  176.5130  146.8230 C   0  0  0  0  0  2  0  0  0  0  0  0
  189.1510  176.9570  145.4430 N   0  0  0  0  0  0  0  0  0  0  0  0
  193.0220  174.4850  143.0560 C   0  0  0  0  0  2  0  0  0  0  0  0
  194.9110  174.7790  144.9530 C   0  0  0  0  0  2  0  0  0  0  0  0
  193.7590  173.8440  145.3450 C   0  0  2  0  0  3  0  0  0  0  0  0
  194.1720  172.3670  145.5640 C   0  0  0  0  0  2  0  0  0  0  0  0
  196.0160  170.9200  146.0350 F   0  0  0  0  0  0  0  0  0  0  0  0
  196.4750  173.2400  146.0470 C   0  0  0  0  0  3  0  0  0  0  0  0
  195.6820  172.1190  145.4370 C   0  0  2  0  0  3  0  0  0  0  0  0
  196.1100  174.5050  145.8140 C   0  0  0  0  0  3  0  0  0  0  0  0
  187.8880  177.7020  145.4640 C   0  0  0  0  0  2  0  0  0  0  0  0
  186.9610  177.2240  146.5900 C   0  0  1  0  0  3  0  0  0  0  0  0
  185.3980  178.2880  148.0510 O   0  0  0  0  0  1  0  0  0  0  0  0
  186.7300  178.3020  147.6370 C   0  0  0  0  0  2  0  0  0  0  0  0
  185.6250  176.7320  146.0520 C   0  0  0  0  0  2  0  0  0  0  0  0
  185.2790  177.4300  144.7480 C   0  0  0  0  0  2  0  0  0  0  0  0
  184.2590  178.3570  144.9590 O   0  0  0  0  0  1  0  0  0  0  0  0
  1 10  1  0  0  0  0
  1 13  1  0  0  0  0
  2  5  1  0  0  0  0
  3 15  1  0  0  0  0
  4  6  1  0  0  0  0
  5 17  1  0  0  0  0
  5  7  1  0  0  0  0
  6  2  1  0  0  0  0
  6  9  1  0  0  0  0
  7  3  1  0  0  0  0
  8  4  1  0  0  0  0
  9 17  1  0  0  0  0
 11 23  1  0  0  0  0
 12  8  1  0  0  0  0
 12 16  1  0  0  0  0
 13  9  1  0  0  0  0
 15 14  1  0  0  0  0
 16 11  1  0  0  0  0
 16  2  1  0  0  0  0
 17 22  1  0  0  0  0
 18  4  1  0  0  0  0
 18  1  1  0  0  0  0
 19  7  1  0  0  0  0
 19 25  1  0  0  0  0
 20  1  1  0  0  0  0
 21 14  1  0  0  0  0
 22 31  1  0  0  0  0
 22 21  1  0  0  0  0
 23 19  1  0  0  0  0
 24 25  1  0  0  0  0
 24 30  1  0  0  0  0
 25 26  1  0  0  0  0
 29 26  1  0  0  0  0
 29 27  1  0  0  0  0
 29 28  1  0  0  0  0
 30 28  2  0  0  0  0
 31 32  1  0  0  0  0
 32 34  1  0  0  0  0
 34 33  1  0  0  0  0
 35 32  1  0  0  0  0
 36 37  1  0  0  0  0
 36 35  1  0  0  0  0
M  END
>  <MODEL>
1

>  <REMARK>
 VINA RESULT:      -8.1      0.000      0.000
  Name = 
  6 active torsions:
  status: ('A' for Active; 'I' for Inactive)
    1  A    between atoms: C_1  and  C_4
    2  A    between atoms: C_1  and  N_27
    3  A    between atoms: C_4  and  C_12
    4  A    between atoms: C_4  and  C_37
    5  A    between atoms: C_8  and  C_12
    6  A    between atoms: C_23  and  C_30
                            x       y       z     vdW  Elec       q    Type
                         _______ _______ _______ _____ _____    ______ ____

>  <TORSDO>
F 6

$$$$
=
 OpenBabel11112417293D

 37 42  0  0  1  0  0  0  0  0999 V2000
  193.9460  175.4410  145.6060 C   0  0  0  0  0  0  0  0  0  0  0  0
  190.2240  175.4030  145.1660 C   0  0  1  0  0  3  0  0  0  0  0  0
  188.8060  174.0810  142.3910 O   0  0  0  0  0  0  0  0  0  0  0  0
  192.1230  175.0880  146.9520 C   0  0  2  0  0  3  0  0  0  0  0  0
  190.4790  175.3010  143.6530 C   0  0  2  0  0  3  0  0  0  0  0  0
  191.3360  174.5240  145.7790 C   0  0  2  0  0  3  0  0  0  0  0  0
  189.2390  175.3710  142.7420 C   0  0  2  0  0  3  0  0  0  0  0  0
  191.1720  175.6570  147.9760 C   0  0  0  0  0  2  0  0  0  0  0  0
  192.2870  174.1230  144.6570 C   0  0  2  0  0  3  0  0  0  0  0  0
  194.5610  174.3080  146.1310 F   0  0  0  0  0  0  0  0  0  0  0  0
  188.9120  177.5790  145.2120 C   0  0  0  0  0  2  0  0  0  0  0  0
  190.3910  177.2030  147.4110 S   0  0  0  0  0  0  0  0  0  0  0  0
  193.2450  175.1390  144.4140 O   0  0  0  0  0  0  0  0  0  0  0  0
  190.0540  173.8760  140.5240 C   0  0  0  0  0  2  0  0  0  0  0  0
  188.7510  174.0500  141.0630 O   0  0  0  0  0  0  0  0  0  0  0  0
  190.2180  176.8870  145.6060 C   0  0  1  0  0  3  0  0  0  0  0  0
  191.3250  174.0390  143.4810 C   0  0  2  0  0  3  0  0  0  0  0  0
  193.0780  176.0410  146.5470 O   0  0  0  0  0  0  0  0  0  0  0  0
  188.0990  176.2560  143.2720 C   0  0  1  0  0  3  0  0  0  0  0  0
  194.9390  176.3510  145.3000 F   0  0  0  0  0  0  0  0  0  0  0  0
  191.0030  173.0440  141.3870 C   0  0  0  0  0  2  0  0  0  0  0  0
  191.9100  173.9170  142.1330 N   0  0  0  0  0  0  0  0  0  0  0  0
  188.6420  177.6050  143.7180 C   0  0  0  0  0  2  0  0  0  0  0  0
  187.4350  177.3190  141.0610 C   0  0  0  0  0  2  0  0  0  0  0  0
  186.9730  176.4750  142.2570 C   0  0  2  0  0  3  0  0  0  0  0  0
  185.6450  176.9440  142.9030 C   0  0  0  0  0  2  0  0  0  0  0  0
  183.6480  178.2050  142.5300 F   0  0  0  0  0  0  0  0  0  0  0  0
  185.1040  177.9780  140.6800 C   0  0  0  0  0  3  0  0  0  0  0  0
  184.9790  178.1180  142.1710 C   0  0  2  0  0  3  0  0  0  0  0  0
  186.2730  177.6010  140.1520 C   0  0  0  0  0  3  0  0  0  0  0  0
  193.1840  173.1920  142.1690 C   0  0  0  0  0  2  0  0  0  0  0  0
  194.2730  173.9070  141.3580 C   0  0  1  0  0  3  0  0  0  0  0  0
  194.6480  176.2530  141.6040 O   0  0  0  0  0  1  0  0  0  0  0  0
  193.8530  175.3110  140.9510 C   0  0  0  0  0  2  0  0  0  0  0  0
  195.5940  173.9600  142.1100 C   0  0  0  0  0  2  0  0  0  0  0  0
  195.6250  172.9240  143.2200 C   0  0  0  0  0  2  0  0  0  0  0  0
  196.6990  173.1720  144.0750 O   0  0  0  0  0  1  0  0  0  0  0  0
  1 10  1  0  0  0  0
  1 18  1  0  0  0  0
  2 16  1  0  0  0  0
  2  6  1  0  0  0  0
  3  7  1  0  0  0  0
  4  8  1  0  0  0  0
  5  2  1  0  0  0  0
  6  4  1  0  0  0  0
  7 19  1  0  0  0  0
  7  5  1  0  0  0  0
  9  6  1  0  0  0  0
 11 16  1  0  0  0  0
 12  8  1  0  0  0  0
 13  9  1  0  0  0  0
 13  1  1  0  0  0  0
 14 15  1  0  0  0  0
 14 21  1  0  0  0  0
 15  3  1  0  0  0  0
 16 12  1  0  0  0  0
 17  5  1  0  0  0  0
 17  9  1  0  0  0  0
 18  4  1  0  0  0  0
 19 23  1  0  0  0  0
 20  1  1  0  0  0  0
 21 22  1  0  0  0  0
 22 31  1  0  0  0  0
 22 17  1  0  0  0  0
 23 11  1  0  0  0  0
 24 25  1  0  0  0  0
 25 26  1  0  0  0  0
 25 19  1  0  0  0  0
 28 29  1  0  0  0  0
 29 27  1  0  0  0  0
 29 26  1  0  0  0  0
 30 28  2  0  0  0  0
 30 24  1  0  0  0  0
 32 35  1  0  0  0  0
 32 31  1  0  0  0  0
 34 32  1  0  0  0  0
 34 33  1  0  0  0  0
 35 36  1  0  0  0  0
 36 37  1  0  0  0  0
M  END
>  <MODEL>
2

>  <REMARK>
 VINA RESULT:      -7.9      3.100      8.427
  Name = 
  6 active torsions:
  status: ('A' for Active; 'I' for Inactive)
    1  A    between atoms: C_1  and  C_4
    2  A    between atoms: C_1  and  N_27
    3  A    between atoms: C_4  and  C_12
    4  A    between atoms: C_4  and  C_37
    5  A    between atoms: C_8  and  C_12
    6  A    between atoms: C_23  and  C_30
                            x       y       z     vdW  Elec       q    Type
                         _______ _______ _______ _____ _____    ______ ____

>  <TORSDO>
F 6

$$$$
=
 OpenBabel11112417293D

 37 42  0  0  1  0  0  0  0  0999 V2000
  193.9310  175.5190  145.5870 C   0  0  0  0  0  0  0  0  0  0  0  0
  190.2120  175.4190  145.1350 C   0  0  1  0  0  3  0  0  0  0  0  0
  188.8270  174.1160  142.3340 O   0  0  0  0  0  0  0  0  0  0  0  0
  192.1110  175.1100  146.9210 C   0  0  2  0  0  3  0  0  0  0  0  0
  190.4730  175.3460  143.6210 C   0  0  2  0  0  3  0  0  0  0  0  0
  191.3380  174.5510  145.7370 C   0  0  2  0  0  3  0  0  0  0  0  0
  189.2340  175.4080  142.7070 C   0  0  2  0  0  3  0  0  0  0  0  0
  191.1460  175.6450  147.9510 C   0  0  0  0  0  2  0  0  0  0  0  0
  192.3000  174.1850  144.6120 C   0  0  2  0  0  3  0  0  0  0  0  0
  194.5660  174.3890  146.0960 F   0  0  0  0  0  0  0  0  0  0  0  0
  188.8590  177.5690  145.2120 C   0  0  0  0  0  2  0  0  0  0  0  0
  190.3380  177.1850  147.4090 S   0  0  0  0  0  0  0  0  0  0  0  0
  193.2400  175.2220  144.3890 O   0  0  0  0  0  0  0  0  0  0  0  0
  190.0840  173.9640  140.4680 C   0  0  0  0  0  2  0  0  0  0  0  0
  188.7760  174.1060  141.0060 O   0  0  0  0  0  0  0  0  0  0  0  0
  190.1760  176.8950  145.5980 C   0  0  1  0  0  3  0  0  0  0  0  0
  191.3430  174.1030  143.4320 C   0  0  2  0  0  3  0  0  0  0  0  0
  193.0490  176.0870  146.5350 O   0  0  0  0  0  0  0  0  0  0  0  0
  188.0760  176.2620  143.2470 C   0  0  1  0  0  3  0  0  0  0  0  0
  194.9070  176.4520  145.2990 F   0  0  0  0  0  0  0  0  0  0  0  0
  191.0450  173.1360  141.3210 C   0  0  0  0  0  2  0  0  0  0  0  0
  191.9340  174.0130  142.0830 N   0  0  0  0  0  0  0  0  0  0  0  0
  188.5930  177.6150  143.7170 C   0  0  0  0  0  2  0  0  0  0  0  0
  187.4160  177.3010  141.0240 C   0  0  0  0  0  2  0  0  0  0  0  0
  186.9500  176.4770  142.2330 C   0  0  2  0  0  3  0  0  0  0  0  0
  185.6270  176.9660  142.8760 C   0  0  0  0  0  2  0  0  0  0  0  0
  183.6400  178.2390  142.4900 F   0  0  0  0  0  0  0  0  0  0  0  0
  185.0900  177.9740  140.6400 C   0  0  0  0  0  3  0  0  0  0  0  0
  184.9690  178.1350  142.1290 C   0  0  2  0  0  3  0  0  0  0  0  0
  186.2540  177.5800  140.1150 C   0  0  0  0  0  3  0  0  0  0  0  0
  193.2210  173.3110  142.1110 C   0  0  0  0  0  2  0  0  0  0  0  0
  194.2840  174.0320  141.2730 C   0  0  1  0  0  3  0  0  0  0  0  0
  193.6490  173.9340  138.9720 O   0  0  0  0  0  1  0  0  0  0  0  0
  194.4960  173.3650  139.9230 C   0  0  0  0  0  2  0  0  0  0  0  0
  193.9490  175.5020  141.0760 C   0  0  0  0  0  2  0  0  0  0  0  0
  195.1670  176.3720  141.3290 C   0  0  0  0  0  2  0  0  0  0  0  0
  195.9260  175.8390  142.3710 O   0  0  0  0  0  1  0  0  0  0  0  0
  1 10  1  0  0  0  0
  1 18  1  0  0  0  0
  2 16  1  0  0  0  0
  2  6  1  0  0  0  0
  3  7  1  0  0  0  0
  4  8  1  0  0  0  0
  5  2  1  0  0  0  0
  6  4  1  0  0  0  0
  7 19  1  0  0  0  0
  7  5  1  0  0  0  0
  9  6  1  0  0  0  0
 11 16  1  0  0  0  0
 12  8  1  0  0  0  0
 13  9  1  0  0  0  0
 13  1  1  0  0  0  0
 14 15  1  0  0  0  0
 14 21  1  0  0  0  0
 15  3  1  0  0  0  0
 16 12  1  0  0  0  0
 17  5  1  0  0  0  0
 17  9  1  0  0  0  0
 18  4  1  0  0  0  0
 19 23  1  0  0  0  0
 20  1  1  0  0  0  0
 21 22  1  0  0  0  0
 22 31  1  0  0  0  0
 22 17  1  0  0  0  0
 23 11  1  0  0  0  0
 24 25  1  0  0  0  0
 25 26  1  0  0  0  0
 25 19  1  0  0  0  0
 28 29  1  0  0  0  0
 29 27  1  0  0  0  0
 29 26  1  0  0  0  0
 30 28  2  0  0  0  0
 30 24  1  0  0  0  0
 32 31  1  0  0  0  0
 33 34  1  0  0  0  0
 34 32  1  0  0  0  0
 35 32  1  0  0  0  0
 35 36  1  0  0  0  0
 36 37  1  0  0  0  0
M  END
>  <MODEL>
3

>  <REMARK>
 VINA RESULT:      -7.8      3.156      8.429
  Name = 
  6 active torsions:
  status: ('A' for Active; 'I' for Inactive)
    1  A    between atoms: C_1  and  C_4
    2  A    between atoms: C_1  and  N_27
    3  A    between atoms: C_4  and  C_12
    4  A    between atoms: C_4  and  C_37
    5  A    between atoms: C_8  and  C_12
    6  A    between atoms: C_23  and  C_30
                            x       y       z     vdW  Elec       q    Type
                         _______ _______ _______ _____ _____    ______ ____

>  <TORSDO>
F 6

$$$$
=
 OpenBabel11112417293D

 37 42  0  0  1  0  0  0  0  0999 V2000
  191.3010  175.9150  147.7250 C   0  0  0  0  0  0  0  0  0  0  0  0
  191.8640  175.6010  144.0330 C   0  0  1  0  0  3  0  0  0  0  0  0
  189.3960  176.2980  141.8240 O   0  0  0  0  0  0  0  0  0  0  0  0
  193.0110  176.3690  146.2660 C   0  0  2  0  0  3  0  0  0  0  0  0
  190.3410  175.4490  143.8890 C   0  0  2  0  0  3  0  0  0  0  0  0
  192.0180  176.6550  145.1520 C   0  0  2  0  0  3  0  0  0  0  0  0
  189.8130  175.1260  142.4780 C   0  0  2  0  0  3  0  0  0  0  0  0
  194.3260  175.9240  145.6730 C   0  0  0  0  0  2  0  0  0  0  0  0
  190.6360  176.9180  145.7390 C   0  0  2  0  0  3  0  0  0  0  0  0
  191.4640  177.1660  148.3150 F   0  0  0  0  0  0  0  0  0  0  0  0
  192.5900  173.3780  143.0380 C   0  0  0  0  0  2  0  0  0  0  0  0
  194.2340  174.2490  144.9630 S   0  0  0  0  0  0  0  0  0  0  0  0
  190.3060  175.9480  146.7190 O   0  0  0  0  0  0  0  0  0  0  0  0
  187.2560  176.2570  142.5350 C   0  0  0  0  0  2  0  0  0  0  0  0
  188.1420  176.0860  141.4360 O   0  0  0  0  0  0  0  0  0  0  0  0
  192.5130  174.2240  144.3100 C   0  0  1  0  0  3  0  0  0  0  0  0
  189.7590  176.7180  144.5120 C   0  0  2  0  0  3  0  0  0  0  0  0
  192.5190  175.4320  147.1950 O   0  0  0  0  0  0  0  0  0  0  0  0
  190.7560  174.2700  141.6180 C   0  0  1  0  0  3  0  0  0  0  0  0
  190.8870  175.0400  148.7100 F   0  0  0  0  0  0  0  0  0  0  0  0
  187.6980  177.2970  143.5640 C   0  0  0  0  0  2  0  0  0  0  0  0
  188.3010  176.6400  144.7240 N   0  0  0  0  0  0  0  0  0  0  0  0
  191.2440  173.0650  142.4090 C   0  0  0  0  0  2  0  0  0  0  0  0
  188.9620  172.8180  140.5560 C   0  0  0  0  0  2  0  0  0  0  0  0
  190.1220  173.7910  140.3090 C   0  0  2  0  0  3  0  0  0  0  0  0
  191.1590  173.3070  139.2640 C   0  0  0  0  0  2  0  0  0  0  0  0
  191.5060  171.8230  137.4210 F   0  0  0  0  0  0  0  0  0  0  0  0
  189.3160  171.8930  138.3120 C   0  0  0  0  0  3  0  0  0  0  0  0
  190.7900  171.9770  138.5930 C   0  0  2  0  0  3  0  0  0  0  0  0
  188.4470  172.2900  139.2470 C   0  0  0  0  0  3  0  0  0  0  0  0
  187.8860  177.4520  145.8730 C   0  0  0  0  0  2  0  0  0  0  0  0
  186.3590  177.5050  146.0140 C   0  0  1  0  0  3  0  0  0  0  0  0
  185.9410  177.6520  148.3620 O   0  0  0  0  0  1  0  0  0  0  0  0
  185.8750  176.7910  147.2660 C   0  0  0  0  0  2  0  0  0  0  0  0
  185.8390  178.9350  146.0010 C   0  0  0  0  0  2  0  0  0  0  0  0
  184.4450  178.9960  145.4020 C   0  0  0  0  0  2  0  0  0  0  0  0
  184.4110  178.2910  144.1990 O   0  0  0  0  0  1  0  0  0  0  0  0
  1 10  1  0  0  0  0
  1 20  1  0  0  0  0
  2 16  1  0  0  0  0
  2  6  1  0  0  0  0
  3  7  1  0  0  0  0
  4 18  1  0  0  0  0
  5  2  1  0  0  0  0
  5 17  1  0  0  0  0
  6  9  1  0  0  0  0
  6  4  1  0  0  0  0
  7  5  1  0  0  0  0
  8  4  1  0  0  0  0
  9 13  1  0  0  0  0
 11 16  1  0  0  0  0
 12  8  1  0  0  0  0
 13  1  1  0  0  0  0
 14 21  1  0  0  0  0
 15  3  1  0  0  0  0
 15 14  1  0  0  0  0
 16 12  1  0  0  0  0
 17 22  1  0  0  0  0
 17  9  1  0  0  0  0
 18  1  1  0  0  0  0
 19 23  1  0  0  0  0
 19  7  1  0  0  0  0
 21 22  1  0  0  0  0
 22 31  1  0  0  0  0
 23 11  1  0  0  0  0
 25 24  1  0  0  0  0
 25 19  1  0  0  0  0
 26 25  1  0  0  0  0
 27 29  1  0  0  0  0
 28 29  1  0  0  0  0
 28 30  2  0  0  0  0
 29 26  1  0  0  0  0
 30 24  1  0  0  0  0
 31 32  1  0  0  0  0
 32 34  1  0  0  0  0
 34 33  1  0  0  0  0
 35 32  1  0  0  0  0
 36 35  1  0  0  0  0
 37 36  1  0  0  0  0
M  END
>  <MODEL>
4

>  <REMARK>
 VINA RESULT:      -7.7      2.857      5.689
  Name = 
  6 active torsions:
  status: ('A' for Active; 'I' for Inactive)
    1  A    between atoms: C_1  and  C_4
    2  A    between atoms: C_1  and  N_27
    3  A    between atoms: C_4  and  C_12
    4  A    between atoms: C_4  and  C_37
    5  A    between atoms: C_8  and  C_12
    6  A    between atoms: C_23  and  C_30
                            x       y       z     vdW  Elec       q    Type
                         _______ _______ _______ _____ _____    ______ ____

>  <TORSDO>
F 6

$$$$
=
 OpenBabel11112417293D

 37 42  0  0  1  0  0  0  0  0999 V2000
  187.3420  177.2990  147.3010 C   0  0  0  0  0  0  0  0  0  0  0  0
  189.5160  176.1800  144.4610 C   0  0  1  0  0  3  0  0  0  0  0  0
  188.6380  176.7770  141.2470 O   0  0  0  0  0  0  0  0  0  0  0  0
  189.5940  177.1980  146.8790 C   0  0  2  0  0  3  0  0  0  0  0  0
  188.2590  176.2270  143.5780 C   0  0  2  0  0  3  0  0  0  0  0  0
  189.3490  177.4000  145.3930 C   0  0  2  0  0  3  0  0  0  0  0  0
  188.4130  175.7110  142.1340 C   0  0  2  0  0  3  0  0  0  0  0  0
  190.8920  176.4580  147.0850 C   0  0  0  0  0  2  0  0  0  0  0  0
  187.9550  177.9730  145.1660 C   0  0  2  0  0  3  0  0  0  0  0  0
  187.4800  178.6040  147.7660 F   0  0  0  0  0  0  0  0  0  0  0  0
  190.1060  173.7210  144.1980 C   0  0  0  0  0  2  0  0  0  0  0  0
  190.7750  174.7070  146.5950 S   0  0  0  0  0  0  0  0  0  0  0  0
  186.9870  177.2760  145.9320 O   0  0  0  0  0  0  0  0  0  0  0  0
  186.4720  177.1920  140.7710 C   0  0  0  0  0  2  0  0  0  0  0  0
  187.7110  176.6790  140.2990 O   0  0  0  0  0  0  0  0  0  0  0  0
  189.6220  174.8040  145.1630 C   0  0  1  0  0  3  0  0  0  0  0  0
  187.7530  177.6650  143.6900 C   0  0  2  0  0  3  0  0  0  0  0  0
  188.5190  176.5460  147.5160 O   0  0  0  0  0  0  0  0  0  0  0  0
  189.4310  174.5720  141.9620 C   0  0  1  0  0  3  0  0  0  0  0  0
  186.3210  176.7060  148.0190 F   0  0  0  0  0  0  0  0  0  0  0  0
  186.5900  178.3390  141.7740 C   0  0  0  0  0  2  0  0  0  0  0  0
  186.3970  177.8450  143.1370 N   0  0  0  0  0  0  0  0  0  0  0  0
  189.1940  173.4910  143.0060 C   0  0  0  0  0  2  0  0  0  0  0  0
  188.1970  173.0250  140.3690 C   0  0  0  0  0  2  0  0  0  0  0  0
  189.4120  173.9410  140.5670 C   0  0  2  0  0  3  0  0  0  0  0  0
  190.7680  173.3130  140.1580 C   0  0  0  0  0  2  0  0  0  0  0  0
  191.7910  171.6020  138.8370 F   0  0  0  0  0  0  0  0  0  0  0  0
  189.4440  171.8180  138.6370 C   0  0  0  0  0  3  0  0  0  0  0  0
  190.6420  171.9140  139.5380 C   0  0  2  0  0  3  0  0  0  0  0  0
  188.2810  172.3440  139.0330 C   0  0  0  0  0  3  0  0  0  0  0  0
  185.6790  178.9200  143.8280 C   0  0  0  0  0  2  0  0  0  0  0  0
  184.2520  178.5020  144.2080 C   0  0  1  0  0  3  0  0  0  0  0  0
  184.0430  177.8290  146.4910 O   0  0  0  0  0  1  0  0  0  0  0  0
  183.8940  178.9150  145.6280 C   0  0  0  0  0  2  0  0  0  0  0  0
  183.2230  179.0550  143.2350 C   0  0  0  0  0  2  0  0  0  0  0  0
  183.0280  178.1100  142.0620 C   0  0  0  0  0  2  0  0  0  0  0  0
  181.7850  178.3350  141.4690 O   0  0  0  0  0  1  0  0  0  0  0  0
  1 18  1  0  0  0  0
  1 10  1  0  0  0  0
  1 20  1  0  0  0  0
  2 16  1  0  0  0  0
  2  6  1  0  0  0  0
  3  7  1  0  0  0  0
  4  8  1  0  0  0  0
  4 18  1  0  0  0  0
  5 17  1  0  0  0  0
  5  2  1  0  0  0  0
  6  4  1  0  0  0  0
  7  5  1  0  0  0  0
  9  6  1  0  0  0  0
  9 13  1  0  0  0  0
 11 16  1  0  0  0  0
 12  8  1  0  0  0  0
 13  1  1  0  0  0  0
 14 21  1  0  0  0  0
 15 14  1  0  0  0  0
 15  3  1  0  0  0  0
 16 12  1  0  0  0  0
 17  9  1  0  0  0  0
 19  7  1  0  0  0  0
 19 23  1  0  0  0  0
 21 22  1  0  0  0  0
 22 17  1  0  0  0  0
 22 31  1  0  0  0  0
 23 11  1  0  0  0  0
 24 25  1  0  0  0  0
 25 19  1  0  0  0  0
 26 25  1  0  0  0  0
 27 29  1  0  0  0  0
 28 30  2  0  0  0  0
 28 29  1  0  0  0  0
 29 26  1  0  0  0  0
 30 24  1  0  0  0  0
 31 32  1  0  0  0  0
 32 34  1  0  0  0  0
 34 33  1  0  0  0  0
 35 32  1  0  0  0  0
 36 35  1  0  0  0  0
 37 36  1  0  0  0  0
M  END
>  <MODEL>
5

>  <REMARK>
 VINA RESULT:      -7.5      3.557      5.824
  Name = 
  6 active torsions:
  status: ('A' for Active; 'I' for Inactive)
    1  A    between atoms: C_1  and  C_4
    2  A    between atoms: C_1  and  N_27
    3  A    between atoms: C_4  and  C_12
    4  A    between atoms: C_4  and  C_37
    5  A    between atoms: C_8  and  C_12
    6  A    between atoms: C_23  and  C_30
                            x       y       z     vdW  Elec       q    Type
                         _______ _______ _______ _____ _____    ______ ____

>  <TORSDO>
F 6

$$$$
=
 OpenBabel11112417293D

 37 42  0  0  1  0  0  0  0  0999 V2000
  194.3020  175.1570  143.1050 C   0  0  0  0  0  0  0  0  0  0  0  0
  190.9120  175.1840  144.7030 C   0  0  1  0  0  3  0  0  0  0  0  0
  188.1220  174.5550  142.8920 O   0  0  0  0  0  0  0  0  0  0  0  0
  193.4060  174.4700  145.1020 C   0  0  2  0  0  3  0  0  0  0  0  0
  190.3370  175.4530  143.3030 C   0  0  2  0  0  3  0  0  0  0  0  0
  192.0680  174.1960  144.4350 C   0  0  2  0  0  3  0  0  0  0  0  0
  188.8220  175.7270  143.2230 C   0  0  2  0  0  3  0  0  0  0  0  0
  193.1940  174.7640  146.5660 C   0  0  0  0  0  2  0  0  0  0  0  0
  192.2490  174.0870  142.9250 C   0  0  2  0  0  3  0  0  0  0  0  0
  194.9610  173.9370  142.9750 F   0  0  0  0  0  0  0  0  0  0  0  0
  190.0790  177.2710  145.8920 C   0  0  0  0  0  2  0  0  0  0  0  0
  192.4230  176.3920  146.8400 S   0  0  0  0  0  0  0  0  0  0  0  0
  193.0580  175.1420  142.4320 O   0  0  0  0  0  0  0  0  0  0  0  0
  188.1950  174.8190  140.6540 C   0  0  0  0  0  2  0  0  0  0  0  0
  187.3870  174.8440  141.8230 O   0  0  0  0  0  0  0  0  0  0  0  0
  191.3090  176.5190  145.3800 C   0  0  1  0  0  3  0  0  0  0  0  0
  190.8170  174.2790  142.4490 C   0  0  2  0  0  3  0  0  0  0  0  0
  194.1210  175.5020  144.4640 O   0  0  0  0  0  0  0  0  0  0  0  0
  188.2330  176.4450  144.4470 C   0  0  1  0  0  3  0  0  0  0  0  0
  195.0950  176.1250  142.5210 F   0  0  0  0  0  0  0  0  0  0  0  0
  189.3470  173.8150  140.6870 C   0  0  0  0  0  2  0  0  0  0  0  0
  190.6040  174.4920  141.0050 N   0  0  0  0  0  0  0  0  0  0  0  0
  189.0830  177.6540  144.8110 C   0  0  0  0  0  2  0  0  0  0  0  0
  186.6860  178.2380  143.5260 C   0  0  0  0  0  2  0  0  0  0  0  0
  186.7800  176.8900  144.2540 C   0  0  2  0  0  3  0  0  0  0  0  0
  185.9290  176.7920  145.5450 C   0  0  0  0  0  2  0  0  0  0  0  0
  184.0610  177.7260  146.7100 F   0  0  0  0  0  0  0  0  0  0  0  0
  184.4840  178.5860  144.5470 C   0  0  0  0  0  3  0  0  0  0  0  0
  185.0690  178.0340  145.8170 C   0  0  2  0  0  3  0  0  0  0  0  0
  185.2540  178.6860  143.4590 C   0  0  0  0  0  3  0  0  0  0  0  0
  191.6180  173.7930  140.2090 C   0  0  0  0  0  2  0  0  0  0  0  0
  191.1240  172.4220  139.7280 C   0  0  1  0  0  3  0  0  0  0  0  0
  191.0690  173.4870  137.5910 O   0  0  0  0  0  1  0  0  0  0  0  0
  191.2640  172.2590  138.2230 C   0  0  0  0  0  2  0  0  0  0  0  0
  191.8390  171.2830  140.4400 C   0  0  0  0  0  2  0  0  0  0  0  0
  190.8380  170.3130  141.0430 C   0  0  0  0  0  2  0  0  0  0  0  0
  190.3910  170.7930  142.2740 O   0  0  0  0  0  1  0  0  0  0  0  0
  1 18  1  0  0  0  0
  2 16  1  0  0  0  0
  3  7  1  0  0  0  0
  4  8  1  0  0  0  0
  5  2  1  0  0  0  0
  6  2  1  0  0  0  0
  6  4  1  0  0  0  0
  7  5  1  0  0  0  0
  7 19  1  0  0  0  0
  8 12  1  0  0  0  0
  9  6  1  0  0  0  0
 10  1  1  0  0  0  0
 13  9  1  0  0  0  0
 13  1  1  0  0  0  0
 14 21  1  0  0  0  0
 14 15  1  0  0  0  0
 15  3  1  0  0  0  0
 16 11  1  0  0  0  0
 16 12  1  0  0  0  0
 17  9  1  0  0  0  0
 17  5  1  0  0  0  0
 18  4  1  0  0  0  0
 19 23  1  0  0  0  0
 20  1  1  0  0  0  0
 21 22  1  0  0  0  0
 22 17  1  0  0  0  0
 23 11  1  0  0  0  0
 24 25  1  0  0  0  0
 25 19  1  0  0  0  0
 25 26  1  0  0  0  0
 26 29  1  0  0  0  0
 28 29  1  0  0  0  0
 29 27  1  0  0  0  0
 30 24  1  0  0  0  0
 30 28  2  0  0  0  0
 31 22  1  0  0  0  0
 32 31  1  0  0  0  0
 32 35  1  0  0  0  0
 33 34  1  0  0  0  0
 34 32  1  0  0  0  0
 35 36  1  0  0  0  0
 36 37  1  0  0  0  0
M  END
>  <MODEL>
6

>  <REMARK>
 VINA RESULT:      -7.5      3.183      8.084
  Name = 
  6 active torsions:
  status: ('A' for Active; 'I' for Inactive)
    1  A    between atoms: C_1  and  C_4
    2  A    between atoms: C_1  and  N_27
    3  A    between atoms: C_4  and  C_12
    4  A    between atoms: C_4  and  C_37
    5  A    between atoms: C_8  and  C_12
    6  A    between atoms: C_23  and  C_30
                            x       y       z     vdW  Elec       q    Type
                         _______ _______ _______ _____ _____    ______ ____

>  <TORSDO>
F 6

$$$$
=
 OpenBabel11112417293D

 37 42  0  0  1  0  0  0  0  0999 V2000
  186.8050  177.6790  146.4830 C   0  0  0  0  0  0  0  0  0  0  0  0
  189.5560  175.8270  144.7350 C   0  0  1  0  0  3  0  0  0  0  0  0
  189.5160  175.4010  141.3770 O   0  0  0  0  0  0  0  0  0  0  0  0
  189.0850  177.5290  146.6780 C   0  0  2  0  0  3  0  0  0  0  0  0
  188.5550  175.5660  143.5970 C   0  0  2  0  0  3  0  0  0  0  0  0
  189.2200  177.2650  145.1870 C   0  0  2  0  0  3  0  0  0  0  0  0
  189.0340  174.6450  142.4590 C   0  0  2  0  0  3  0  0  0  0  0  0
  190.2600  176.9260  147.4090 C   0  0  0  0  0  2  0  0  0  0  0  0
  187.9500  177.6990  144.4630 C   0  0  2  0  0  3  0  0  0  0  0  0
  186.8840  179.0670  146.5540 F   0  0  0  0  0  0  0  0  0  0  0  0
  190.0820  173.4240  145.3740 C   0  0  0  0  0  2  0  0  0  0  0  0
  190.1890  175.1060  147.4530 S   0  0  0  0  0  0  0  0  0  0  0  0
  186.7950  177.2330  145.1400 O   0  0  0  0  0  0  0  0  0  0  0  0
  187.5530  175.5830  140.2810 C   0  0  0  0  0  2  0  0  0  0  0  0
  188.8460  174.9930  140.3040 O   0  0  0  0  0  0  0  0  0  0  0  0
  189.4260  174.7310  145.8200 C   0  0  1  0  0  3  0  0  0  0  0  0
  188.1020  176.9540  143.1450 C   0  0  2  0  0  3  0  0  0  0  0  0
  187.8600  177.0640  147.1950 O   0  0  0  0  0  0  0  0  0  0  0  0
  190.0120  173.5410  142.8920 C   0  0  1  0  0  3  0  0  0  0  0  0
  185.6150  177.2970  147.0700 F   0  0  0  0  0  0  0  0  0  0  0  0
  187.4730  176.9820  140.8910 C   0  0  0  0  0  2  0  0  0  0  0  0
  186.9320  176.9150  142.2480 N   0  0  0  0  0  0  0  0  0  0  0  0
  189.4790  172.8160  144.1190 C   0  0  0  0  0  2  0  0  0  0  0  0
  190.2180  171.0760  142.3080 C   0  0  0  0  0  2  0  0  0  0  0  0
  190.3070  172.5180  141.7900 C   0  0  2  0  0  3  0  0  0  0  0  0
  191.5900  172.8370  140.9820 C   0  0  0  0  0  2  0  0  0  0  0  0
  193.3770  171.8680  139.7230 F   0  0  0  0  0  0  0  0  0  0  0  0
  191.7070  170.3780  140.4900 C   0  0  0  0  0  3  0  0  0  0  0  0
  192.5040  171.6220  140.7650 C   0  0  2  0  0  3  0  0  0  0  0  0
  190.6220  170.1170  141.2260 C   0  0  0  0  0  3  0  0  0  0  0  0
  186.1140  178.1250  142.3870 C   0  0  0  0  0  2  0  0  0  0  0  0
  184.6160  177.7990  142.4510 C   0  0  1  0  0  3  0  0  0  0  0  0
  184.7260  179.5600  144.0620 O   0  0  0  0  0  1  0  0  0  0  0  0
  183.9230  178.5180  143.5970 C   0  0  0  0  0  2  0  0  0  0  0  0
  183.9120  178.1170  141.1400 C   0  0  0  0  0  2  0  0  0  0  0  0
  182.4120  178.2290  141.3480 C   0  0  0  0  0  2  0  0  0  0  0  0
  181.7420  177.9120  140.1660 O   0  0  0  0  0  1  0  0  0  0  0  0
  1 10  1  0  0  0  0
  1 20  1  0  0  0  0
  1 18  1  0  0  0  0
  2  6  1  0  0  0  0
  2 16  1  0  0  0  0
  3  7  1  0  0  0  0
  4 18  1  0  0  0  0
  4  8  1  0  0  0  0
  5  2  1  0  0  0  0
  6  4  1  0  0  0  0
  7 19  1  0  0  0  0
  7  5  1  0  0  0  0
  8 12  1  0  0  0  0
  9 13  1  0  0  0  0
  9  6  1  0  0  0  0
 11 16  1  0  0  0  0
 13  1  1  0  0  0  0
 14 15  1  0  0  0  0
 14 21  1  0  0  0  0
 15  3  1  0  0  0  0
 16 12  1  0  0  0  0
 17  5  1  0  0  0  0
 17  9  1  0  0  0  0
 19 23  1  0  0  0  0
 21 22  1  0  0  0  0
 22 31  1  0  0  0  0
 22 17  1  0  0  0  0
 23 11  1  0  0  0  0
 25 24  1  0  0  0  0
 25 19  1  0  0  0  0
 26 25  1  0  0  0  0
 27 29  1  0  0  0  0
 28 29  1  0  0  0  0
 28 30  2  0  0  0  0
 29 26  1  0  0  0  0
 30 24  1  0  0  0  0
 31 32  1  0  0  0  0
 32 34  1  0  0  0  0
 34 33  1  0  0  0  0
 35 36  1  0  0  0  0
 35 32  1  0  0  0  0
 37 36  1  0  0  0  0
M  END
>  <MODEL>
7

>  <REMARK>
 VINA RESULT:      -7.4      3.498      5.407
  Name = 
  6 active torsions:
  status: ('A' for Active; 'I' for Inactive)
    1  A    between atoms: C_1  and  C_4
    2  A    between atoms: C_1  and  N_27
    3  A    between atoms: C_4  and  C_12
    4  A    between atoms: C_4  and  C_37
    5  A    between atoms: C_8  and  C_12
    6  A    between atoms: C_23  and  C_30
                            x       y       z     vdW  Elec       q    Type
                         _______ _______ _______ _____ _____    ______ ____

>  <TORSDO>
F 6

$$$$
=
 OpenBabel11112417293D

 37 42  0  0  1  0  0  0  0  0999 V2000
  191.8020  171.5800  142.0370 C   0  0  0  0  0  0  0  0  0  0  0  0
  190.0960  174.9180  142.0420 C   0  0  1  0  0  3  0  0  0  0  0  0
  190.7110  177.1900  144.4730 O   0  0  0  0  0  0  0  0  0  0  0  0
  191.1920  173.1310  140.4610 C   0  0  2  0  0  3  0  0  0  0  0  0
  190.3720  174.9730  143.5530 C   0  0  2  0  0  3  0  0  0  0  0  0
  191.3680  174.2570  141.4660 C   0  0  2  0  0  3  0  0  0  0  0  0
  189.7650  176.1630  144.3190 C   0  0  2  0  0  3  0  0  0  0  0  0
  190.1970  173.5430  139.4040 C   0  0  0  0  0  2  0  0  0  0  0  0
  192.2200  173.7830  142.6380 C   0  0  2  0  0  3  0  0  0  0  0  0
  193.0660  171.4850  141.4630 F   0  0  0  0  0  0  0  0  0  0  0  0
  187.5590  175.0530  142.0860 C   0  0  0  0  0  2  0  0  0  0  0  0
  188.4920  173.5990  140.0420 S   0  0  0  0  0  0  0  0  0  0  0  0
  191.7890  172.5140  143.0990 O   0  0  0  0  0  0  0  0  0  0  0  0
  191.5640  176.4790  146.4370 C   0  0  0  0  0  2  0  0  0  0  0  0
  190.7700  177.4550  145.7750 O   0  0  0  0  0  0  0  0  0  0  0  0
  188.7680  174.1710  141.7700 C   0  0  1  0  0  3  0  0  0  0  0  0
  191.8910  174.8410  143.6800 C   0  0  2  0  0  3  0  0  0  0  0  0
  190.8220  171.9180  141.0750 O   0  0  0  0  0  0  0  0  0  0  0  0
  188.4240  176.6710  143.7630 C   0  0  1  0  0  3  0  0  0  0  0  0
  191.4830  170.3390  142.5520 F   0  0  0  0  0  0  0  0  0  0  0  0
  192.7060  175.9020  145.6010 C   0  0  0  0  0  2  0  0  0  0  0  0
  192.3330  174.5930  145.0650 N   0  0  0  0  0  0  0  0  0  0  0  0
  187.4730  175.5050  143.5340 C   0  0  0  0  0  2  0  0  0  0  0  0
  187.2060  177.0820  145.9550 C   0  0  0  0  0  2  0  0  0  0  0  0
  187.7440  177.7080  144.6610 C   0  0  2  0  0  3  0  0  0  0  0  0
  186.7290  178.6040  143.9060 C   0  0  0  0  0  2  0  0  0  0  0  0
  184.7210  179.8810  144.1430 F   0  0  0  0  0  0  0  0  0  0  0  0
  185.5910  178.9200  146.1220 C   0  0  0  0  0  3  0  0  0  0  0  0
  185.3920  178.7800  144.6390 C   0  0  2  0  0  3  0  0  0  0  0  0
  186.4520  178.1110  146.7480 C   0  0  0  0  0  3  0  0  0  0  0  0
  193.5720  173.8090  145.0950 C   0  0  0  0  0  2  0  0  0  0  0  0
  194.8170  174.7040  145.0530 C   0  0  1  0  0  3  0  0  0  0  0  0
  197.0930  174.1740  145.5490 O   0  0  0  0  0  1  0  0  0  0  0  0
  195.8300  174.3250  146.1210 C   0  0  0  0  0  2  0  0  0  0  0  0
  195.4800  174.6870  143.6830 C   0  0  0  0  0  2  0  0  0  0  0  0
  195.4210  176.0610  143.0390 C   0  0  0  0  0  2  0  0  0  0  0  0
  196.4440  176.8660  143.5390 O   0  0  0  0  0  1  0  0  0  0  0  0
  1 20  1  0  0  0  0
  1 13  1  0  0  0  0
  2  5  1  0  0  0  0
  3 15  1  0  0  0  0
  4 18  1  0  0  0  0
  4  6  1  0  0  0  0
  5 17  1  0  0  0  0
  5  7  1  0  0  0  0
  6  2  1  0  0  0  0
  6  9  1  0  0  0  0
  7  3  1  0  0  0  0
  8 12  1  0  0  0  0
  8  4  1  0  0  0  0
  9 13  1  0  0  0  0
  9 17  1  0  0  0  0
 10  1  1  0  0  0  0
 11 23  1  0  0  0  0
 12 16  1  0  0  0  0
 15 14  1  0  0  0  0
 16  2  1  0  0  0  0
 16 11  1  0  0  0  0
 17 22  1  0  0  0  0
 18  1  1  0  0  0  0
 19  7  1  0  0  0  0
 19 25  1  0  0  0  0
 21 14  1  0  0  0  0
 22 31  1  0  0  0  0
 22 21  1  0  0  0  0
 23 19  1  0  0  0  0
 24 30  1  0  0  0  0
 25 24  1  0  0  0  0
 26 29  1  0  0  0  0
 26 25  1  0  0  0  0
 27 29  1  0  0  0  0
 28 30  2  0  0  0  0
 29 28  1  0  0  0  0
 32 31  1  0  0  0  0
 32 34  1  0  0  0  0
 33 34  1  0  0  0  0
 35 32  1  0  0  0  0
 36 37  1  0  0  0  0
 36 35  1  0  0  0  0
M  END
>  <MODEL>
8

>  <REMARK>
 VINA RESULT:      -7.4      2.717      7.395
  Name = 
  6 active torsions:
  status: ('A' for Active; 'I' for Inactive)
    1  A    between atoms: C_1  and  C_4
    2  A    between atoms: C_1  and  N_27
    3  A    between atoms: C_4  and  C_12
    4  A    between atoms: C_4  and  C_37
    5  A    between atoms: C_8  and  C_12
    6  A    between atoms: C_23  and  C_30
                            x       y       z     vdW  Elec       q    Type
                         _______ _______ _______ _____ _____    ______ ____

>  <TORSDO>
F 6

$$$$
=
 OpenBabel11112417293D

 37 42  0  0  1  0  0  0  0  0999 V2000
  192.9230  172.0590  142.7330 C   0  0  0  0  0  0  0  0  0  0  0  0
  190.4130  174.3980  141.2240 C   0  0  1  0  0  3  0  0  0  0  0  0
  189.9780  177.5220  142.4520 O   0  0  0  0  0  0  0  0  0  0  0  0
  192.1980  172.5700  140.6180 C   0  0  2  0  0  3  0  0  0  0  0  0
  190.4050  175.1380  142.5710 C   0  0  2  0  0  3  0  0  0  0  0  0
  191.8940  173.9980  141.0410 C   0  0  2  0  0  3  0  0  0  0  0  0
  189.3800  176.2800  142.7220 C   0  0  2  0  0  3  0  0  0  0  0  0
  191.3230  172.1890  139.4490 C   0  0  0  0  0  2  0  0  0  0  0  0
  192.6300  174.3270  142.3350 C   0  0  2  0  0  3  0  0  0  0  0  0
  194.2460  172.1440  142.3060 F   0  0  0  0  0  0  0  0  0  0  0  0
  187.9620  173.7360  141.1080 C   0  0  0  0  0  2  0  0  0  0  0  0
  189.5820  171.9580  139.9340 S   0  0  0  0  0  0  0  0  0  0  0  0
  192.4820  173.2850  143.2840 O   0  0  0  0  0  0  0  0  0  0  0  0
  190.6440  177.9650  144.5600 C   0  0  0  0  0  2  0  0  0  0  0  0
  189.7430  178.2910  143.5110 O   0  0  0  0  0  0  0  0  0  0  0  0
  189.3980  173.2300  141.2520 C   0  0  1  0  0  3  0  0  0  0  0  0
  191.8590  175.5520  142.8020 C   0  0  2  0  0  3  0  0  0  0  0  0
  192.0670  171.6570  141.6820 O   0  0  0  0  0  0  0  0  0  0  0  0
  188.0680  176.0730  141.9500 C   0  0  1  0  0  3  0  0  0  0  0  0
  192.8650  171.0970  143.7230 F   0  0  0  0  0  0  0  0  0  0  0  0
  192.0240  177.4920  144.1020 C   0  0  0  0  0  2  0  0  0  0  0  0
  192.1110  176.0330  144.1730 N   0  0  0  0  0  0  0  0  0  0  0  0
  187.5160  174.6790  142.2120 C   0  0  0  0  0  2  0  0  0  0  0  0
  185.9410  176.5590  143.2530 C   0  0  0  0  0  2  0  0  0  0  0  0
  186.9930  177.1120  142.2810 C   0  0  2  0  0  3  0  0  0  0  0  0
  186.4100  177.8150  141.0300 C   0  0  0  0  0  2  0  0  0  0  0  0
  184.4660  178.8840  140.1370 F   0  0  0  0  0  0  0  0  0  0  0  0
  184.3480  178.2190  142.4040 C   0  0  0  0  0  3  0  0  0  0  0  0
  184.8780  177.9150  141.0310 C   0  0  2  0  0  3  0  0  0  0  0  0
  184.8520  177.5710  143.4600 C   0  0  0  0  0  3  0  0  0  0  0  0
  193.4900  175.7590  144.5880 C   0  0  0  0  0  2  0  0  0  0  0  0
  193.5920  175.4890  146.0950 C   0  0  1  0  0  3  0  0  0  0  0  0
  194.8020  177.5440  146.2240 O   0  0  0  0  0  1  0  0  0  0  0  0
  193.8590  176.7590  146.8870 C   0  0  0  0  0  2  0  0  0  0  0  0
  192.3470  174.7970  146.6310 C   0  0  0  0  0  2  0  0  0  0  0  0
  191.5900  175.7100  147.5790 C   0  0  0  0  0  2  0  0  0  0  0  0
  190.2180  175.5980  147.3560 O   0  0  0  0  0  1  0  0  0  0  0  0
  1 13  1  0  0  0  0
  1 20  1  0  0  0  0
  2 16  1  0  0  0  0
  2  5  1  0  0  0  0
  3  7  1  0  0  0  0
  3 15  1  0  0  0  0
  4  6  1  0  0  0  0
  4 18  1  0  0  0  0
  5  7  1  0  0  0  0
  5 17  1  0  0  0  0
  6  2  1  0  0  0  0
  6  9  1  0  0  0  0
  8 12  1  0  0  0  0
  8  4  1  0  0  0  0
  9 17  1  0  0  0  0
  9 13  1  0  0  0  0
 10  1  1  0  0  0  0
 11 16  1  0  0  0  0
 11 23  1  0  0  0  0
 12 16  1  0  0  0  0
 15 14  1  0  0  0  0
 17 22  1  0  0  0  0
 18  1  1  0  0  0  0
 19 23  1  0  0  0  0
 19 25  1  0  0  0  0
 19  7  1  0  0  0  0
 21 22  1  0  0  0  0
 21 14  1  0  0  0  0
 22 31  1  0  0  0  0
 24 30  1  0  0  0  0
 25 24  1  0  0  0  0
 26 29  1  0  0  0  0
 26 25  1  0  0  0  0
 27 29  1  0  0  0  0
 28 30  2  0  0  0  0
 29 28  1  0  0  0  0
 31 32  1  0  0  0  0
 32 35  1  0  0  0  0
 32 34  1  0  0  0  0
 33 34  1  0  0  0  0
 35 36  1  0  0  0  0
 37 36  1  0  0  0  0
M  END
>  <MODEL>
9

>  <REMARK>
 VINA RESULT:      -7.4      2.691      7.200
  Name = 
  6 active torsions:
  status: ('A' for Active; 'I' for Inactive)
    1  A    between atoms: C_1  and  C_4
    2  A    between atoms: C_1  and  N_27
    3  A    between atoms: C_4  and  C_12
    4  A    between atoms: C_4  and  C_37
    5  A    between atoms: C_8  and  C_12
    6  A    between atoms: C_23  and  C_30
                            x       y       z     vdW  Elec       q    Type
                         _______ _______ _______ _____ _____    ______ ____

>  <TORSDO>
F 6

$$$$
