=
 OpenBabel11112416183D

 30 35  0  0  1  0  0  0  0  0999 V2000
  187.5440  176.4430  145.5690 C   0  0  0  0  0  0  0  0  0  0  0  0
  185.7170  177.5650  146.8480 C   0  0  0  0  0  0  0  0  0  0  0  0
  185.8970  177.6590  141.9070 N   0  0  0  0  0  0  0  0  0  0  0  0
  188.1340  176.1330  144.3210 C   0  0  0  0  0  0  0  0  0  0  0  0
  188.1800  175.8520  146.7990 C   0  0  0  0  0  2  0  0  0  0  0  0
  191.1290  176.7560  145.0050 O   0  0  0  0  0  1  0  0  0  0  0  0
  189.0050  174.0770  142.0760 C   0  0  1  0  0  3  0  0  0  0  0  0
  190.3740  175.6560  145.4160 C   0  0  1  0  0  3  0  0  0  0  0  0
  187.9190  174.9080  141.3700 C   0  0  2  0  0  3  0  0  0  0  0  0
  186.7380  177.1360  141.0720 C   0  0  0  0  0  0  0  0  0  0  0  0
  189.7090  175.9960  146.7650 C   0  0  2  0  0  3  0  0  0  0  0  0
  189.3620  175.2490  144.3290 C   0  0  2  0  0  3  0  0  0  0  0  0
  184.5410  178.3220  146.8440 C   0  0  0  0  0  3  0  0  0  0  0  0
  188.2210  174.6910  139.9200 C   0  0  0  0  0  2  0  0  0  0  0  0
  189.7180  173.3240  141.1250 O   0  0  0  0  0  0  0  0  0  0  0  0
  186.2220  177.1910  148.0500 F   0  0  0  0  0  0  0  0  0  0  0  0
  186.3590  177.3270  143.2040 C   0  0  0  0  0  0  0  0  0  0  0  0
  183.9720  178.7460  145.6440 C   0  0  0  0  0  3  0  0  0  0  0  0
  186.3470  177.2190  145.6290 C   0  0  0  0  0  0  0  0  0  0  0  0
  187.5130  176.5930  143.1550 C   0  0  0  0  0  0  0  0  0  0  0  0
  186.6070  177.3490  139.6050 C   0  0  0  0  0  1  0  0  0  0  0  0
  187.8910  176.4040  141.7260 C   0  0  1  0  0  3  0  0  0  0  0  0
  188.9890  173.3970  139.9290 C   0  0  0  0  0  2  0  0  0  0  0  0
  190.7730  175.9240  142.2720 C   0  0  0  0  0  1  0  0  0  0  0  0
  184.5750  178.4180  144.4310 C   0  0  0  0  0  3  0  0  0  0  0  0
  185.7510  177.6630  144.4130 C   0  0  0  0  0  0  0  0  0  0  0  0
  189.9880  174.8290  142.9880 C   0  0  2  0  0  3  0  0  0  0  0  0
  190.3670  175.2500  147.9210 C   0  0  0  0  0  2  0  0  0  0  0  0
  191.4590  177.3460  148.6640 C   0  0  0  0  0  1  0  0  0  0  0  0
  191.6870  175.8870  148.3320 C   0  0  0  0  0  2  0  0  0  0  0  0
  1 19  1  0  0  0  0
  1  5  1  0  0  0  0
  2 16  1  0  0  0  0
  3 17  1  0  0  0  0
  4  1  2  0  0  0  0
  7 15  1  6  0  0  0
  7 27  1  0  0  0  0
  8  6  1  6  0  0  0
  8 11  1  0  0  0  0
  9 14  1  6  0  0  0
  9 22  1  0  0  0  0
  9  7  1  0  0  0  0
 10  3  2  0  0  0  0
 11  5  1  0  0  0  0
 11 28  1  1  0  0  0
 12  4  1  6  0  0  0
 12  8  1  0  0  0  0
 13  2  1  0  0  0  0
 14 23  1  0  0  0  0
 17 26  1  0  0  0  0
 18 13  2  0  0  0  0
 19  2  2  0  0  0  0
 20 17  2  0  0  0  0
 20  4  1  0  0  0  0
 21 10  1  0  0  0  0
 22 10  1  6  0  0  0
 22 20  1  0  0  0  0
 23 15  1  0  0  0  0
 25 18  1  0  0  0  0
 26 25  2  0  0  0  0
 26 19  1  0  0  0  0
 27 24  1  6  0  0  0
 27 12  1  0  0  0  0
 28 30  1  0  0  0  0
 30 29  1  0  0  0  0
M  END
>  <MODEL>
1

>  <REMARK>
 VINA RESULT:      -9.3      0.000      0.000
  Name = 
  2 active torsions:
  status: ('A' for Active; 'I' for Inactive)
    1  A    between atoms: C_11  and  C_28
    2  A    between atoms: C_28  and  C_30
                            x       y       z     vdW  Elec       q    Type
                         _______ _______ _______ _____ _____    ______ ____

>  <TORSDO>
F 2

$$$$
=
 OpenBabel11112416183D

 30 35  0  0  1  0  0  0  0  0999 V2000
  186.8550  177.6820  143.9270 C   0  0  0  0  0  0  0  0  0  0  0  0
  184.9280  178.5580  145.2510 C   0  0  0  0  0  0  0  0  0  0  0  0
  188.8710  176.4960  147.4100 N   0  0  0  0  0  0  0  0  0  0  0  0
  188.1190  177.0460  143.9030 C   0  0  0  0  0  0  0  0  0  0  0  0
  186.2960  178.1530  142.6110 C   0  0  0  0  0  2  0  0  0  0  0  0
  187.6180  175.0020  141.5800 O   0  0  0  0  0  1  0  0  0  0  0  0
  191.2330  177.0360  143.3300 C   0  0  1  0  0  3  0  0  0  0  0  0
  187.8210  176.3790  141.4730 C   0  0  1  0  0  3  0  0  0  0  0  0
  191.1710  176.8840  144.8600 C   0  0  2  0  0  3  0  0  0  0  0  0
  189.9600  176.0030  146.9100 C   0  0  0  0  0  0  0  0  0  0  0  0
  186.4490  177.0820  141.5200 C   0  0  2  0  0  3  0  0  0  0  0  0
  188.7920  176.8760  142.5590 C   0  0  2  0  0  3  0  0  0  0  0  0
  184.3330  178.7810  146.4960 C   0  0  0  0  0  3  0  0  0  0  0  0
  192.5030  176.2890  145.1920 C   0  0  0  0  0  2  0  0  0  0  0  0
  192.5310  176.7350  142.8760 O   0  0  0  0  0  0  0  0  0  0  0  0
  184.2480  178.9520  144.1460 F   0  0  0  0  0  0  0  0  0  0  0  0
  188.0830  176.9250  146.3140 C   0  0  0  0  0  0  0  0  0  0  0  0
  184.9750  178.3940  147.6720 C   0  0  0  0  0  3  0  0  0  0  0  0
  186.1960  177.9310  145.1680 C   0  0  0  0  0  0  0  0  0  0  0  0
  188.7050  176.6790  145.1200 C   0  0  0  0  0  0  0  0  0  0  0  0
  190.9980  175.3810  147.7760 C   0  0  0  0  0  1  0  0  0  0  0  0
  190.0160  176.0240  145.3970 C   0  0  1  0  0  3  0  0  0  0  0  0
  193.3500  176.6870  144.0150 C   0  0  0  0  0  2  0  0  0  0  0  0
  190.2470  174.7470  142.7230 C   0  0  0  0  0  1  0  0  0  0  0  0
  186.2220  177.7750  147.6150 C   0  0  0  0  0  3  0  0  0  0  0  0
  186.8340  177.5400  146.3800 C   0  0  0  0  0  0  0  0  0  0  0  0
  190.1990  176.2560  142.5020 C   0  0  2  0  0  3  0  0  0  0  0  0
  186.0410  177.6150  140.1510 C   0  0  0  0  0  2  0  0  0  0  0  0
  183.5870  177.9320  140.2810 C   0  0  0  0  0  1  0  0  0  0  0  0
  184.9230  178.6430  140.2500 C   0  0  0  0  0  2  0  0  0  0  0  0
  1 19  1  0  0  0  0
  2 13  1  0  0  0  0
  4  1  2  0  0  0  0
  4 20  1  0  0  0  0
  5  1  1  0  0  0  0
  7 15  1  6  0  0  0
  7  9  1  0  0  0  0
  8 11  1  0  0  0  0
  8  6  1  1  0  0  0
  8 12  1  0  0  0  0
  9 14  1  6  0  0  0
  9 22  1  0  0  0  0
 10  3  2  0  0  0  0
 10 21  1  0  0  0  0
 11 28  1  6  0  0  0
 11  5  1  0  0  0  0
 12  4  1  1  0  0  0
 13 18  2  0  0  0  0
 15 23  1  0  0  0  0
 16  2  1  0  0  0  0
 17 26  1  0  0  0  0
 17  3  1  0  0  0  0
 19  2  2  0  0  0  0
 19 26  1  0  0  0  0
 20 17  2  0  0  0  0
 22 20  1  6  0  0  0
 22 10  1  0  0  0  0
 23 14  1  0  0  0  0
 25 18  1  0  0  0  0
 26 25  2  0  0  0  0
 27 12  1  0  0  0  0
 27 24  1  1  0  0  0
 27  7  1  0  0  0  0
 28 30  1  0  0  0  0
 30 29  1  0  0  0  0
M  END
>  <MODEL>
2

>  <REMARK>
 VINA RESULT:      -9.3      2.048      5.449
  Name = 
  2 active torsions:
  status: ('A' for Active; 'I' for Inactive)
    1  A    between atoms: C_11  and  C_28
    2  A    between atoms: C_28  and  C_30
                            x       y       z     vdW  Elec       q    Type
                         _______ _______ _______ _____ _____    ______ ____

>  <TORSDO>
F 2

$$$$
=
 OpenBabel11112416183D

 30 35  0  0  1  0  0  0  0  0999 V2000
  188.2020  175.7870  143.5950 C   0  0  0  0  0  0  0  0  0  0  0  0
  186.0010  176.9540  143.7550 C   0  0  0  0  0  0  0  0  0  0  0  0
  189.4750  177.4220  147.2430 N   0  0  0  0  0  0  0  0  0  0  0  0
  189.4680  175.5060  144.1620 C   0  0  0  0  0  0  0  0  0  0  0  0
  187.9180  175.2210  142.2290 C   0  0  0  0  0  2  0  0  0  0  0  0
  189.5630  172.4090  143.6860 O   0  0  0  0  0  1  0  0  0  0  0  0
  192.6290  175.6700  144.1610 C   0  0  1  0  0  3  0  0  0  0  0  0
  189.7240  173.4200  142.7370 C   0  0  1  0  0  3  0  0  0  0  0  0
  192.2490  176.5070  145.3950 C   0  0  2  0  0  3  0  0  0  0  0  0
  190.6660  176.9200  147.3360 C   0  0  0  0  0  0  0  0  0  0  0  0
  188.3450  173.7490  142.1310 C   0  0  2  0  0  3  0  0  0  0  0  0
  190.4190  174.6470  143.3580 C   0  0  2  0  0  3  0  0  0  0  0  0
  185.1450  177.8050  144.4600 C   0  0  0  0  0  3  0  0  0  0  0  0
  193.5040  176.4910  146.2100 C   0  0  0  0  0  2  0  0  0  0  0  0
  194.0070  175.3780  144.1930 O   0  0  0  0  0  0  0  0  0  0  0  0
  185.5560  176.4420  142.5800 F   0  0  0  0  0  0  0  0  0  0  0  0
  188.9230  176.9230  146.0370 C   0  0  0  0  0  0  0  0  0  0  0  0
  185.5360  178.3600  145.6770 C   0  0  0  0  0  3  0  0  0  0  0  0
  187.2820  176.6430  144.2710 C   0  0  0  0  0  0  0  0  0  0  0  0
  189.7950  176.0920  145.3890 C   0  0  0  0  0  0  0  0  0  0  0  0
  191.5210  177.1700  148.5290 C   0  0  0  0  0  1  0  0  0  0  0  0
  191.0430  175.9940  146.1990 C   0  0  1  0  0  3  0  0  0  0  0  0
  194.5650  176.1980  145.1850 C   0  0  0  0  0  2  0  0  0  0  0  0
  191.8950  173.3840  145.0620 C   0  0  0  0  0  1  0  0  0  0  0  0
  186.7910  178.0680  146.2060 C   0  0  0  0  0  3  0  0  0  0  0  0
  187.6630  177.2180  145.5180 C   0  0  0  0  0  0  0  0  0  0  0  0
  191.8310  174.3810  143.9080 C   0  0  2  0  0  3  0  0  0  0  0  0
  188.2180  173.2220  140.7050 C   0  0  0  0  0  2  0  0  0  0  0  0
  188.2380  174.0810  138.3810 C   0  0  0  0  0  1  0  0  0  0  0  0
  188.9660  174.0950  139.7080 C   0  0  0  0  0  2  0  0  0  0  0  0
  1  4  2  0  0  0  0
  1 19  1  0  0  0  0
  2 19  2  0  0  0  0
  2 13  1  0  0  0  0
  3 10  2  0  0  0  0
  4 20  1  0  0  0  0
  5  1  1  0  0  0  0
  7 15  1  1  0  0  0
  7  9  1  0  0  0  0
  8 12  1  0  0  0  0
  8  6  1  1  0  0  0
  9 22  1  0  0  0  0
  9 14  1  1  0  0  0
 10 21  1  0  0  0  0
 11 28  1  6  0  0  0
 11  5  1  0  0  0  0
 11  8  1  0  0  0  0
 12 27  1  0  0  0  0
 12  4  1  1  0  0  0
 13 18  2  0  0  0  0
 15 23  1  0  0  0  0
 16  2  1  0  0  0  0
 17  3  1  0  0  0  0
 18 25  1  0  0  0  0
 19 26  1  0  0  0  0
 20 17  2  0  0  0  0
 22 20  1  6  0  0  0
 22 10  1  0  0  0  0
 23 14  1  0  0  0  0
 26 17  1  0  0  0  0
 26 25  2  0  0  0  0
 27  7  1  0  0  0  0
 27 24  1  1  0  0  0
 29 30  1  0  0  0  0
 30 28  1  0  0  0  0
M  END
>  <MODEL>
3

>  <REMARK>
 VINA RESULT:      -8.5      2.306      5.584
  Name = 
  2 active torsions:
  status: ('A' for Active; 'I' for Inactive)
    1  A    between atoms: C_11  and  C_28
    2  A    between atoms: C_28  and  C_30
                            x       y       z     vdW  Elec       q    Type
                         _______ _______ _______ _____ _____    ______ ____

>  <TORSDO>
F 2

$$$$
=
 OpenBabel11112416183D

 30 35  0  0  1  0  0  0  0  0999 V2000
  188.1270  176.9590  144.2580 C   0  0  0  0  0  0  0  0  0  0  0  0
  186.2190  178.5250  143.8830 C   0  0  0  0  0  0  0  0  0  0  0  0
  187.7890  175.4180  140.3700 N   0  0  0  0  0  0  0  0  0  0  0  0
  188.9860  175.9540  143.7530 C   0  0  0  0  0  0  0  0  0  0  0  0
  188.2900  177.3420  145.7050 C   0  0  0  0  0  2  0  0  0  0  0  0
  191.7290  177.0560  144.7950 O   0  0  0  0  0  1  0  0  0  0  0  0
  190.1110  172.9950  143.7240 C   0  0  1  0  0  3  0  0  0  0  0  0
  190.7230  176.4380  145.5390 C   0  0  1  0  0  3  0  0  0  0  0  0
  189.4140  173.1040  142.3560 C   0  0  2  0  0  3  0  0  0  0  0  0
  188.7350  174.5340  140.3720 C   0  0  0  0  0  0  0  0  0  0  0  0
  189.7700  177.5250  146.0740 C   0  0  2  0  0  3  0  0  0  0  0  0
  190.0060  175.3630  144.7020 C   0  0  2  0  0  3  0  0  0  0  0  0
  185.2290  179.0250  143.0330 C   0  0  0  0  0  3  0  0  0  0  0  0
  190.0710  172.0220  141.5580 C   0  0  0  0  0  2  0  0  0  0  0  0
  190.9320  171.8520  143.7470 O   0  0  0  0  0  0  0  0  0  0  0  0
  186.3010  179.0470  145.1330 F   0  0  0  0  0  0  0  0  0  0  0  0
  187.8100  176.0320  141.6470 C   0  0  0  0  0  0  0  0  0  0  0  0
  185.0930  178.5380  141.7340 C   0  0  0  0  0  3  0  0  0  0  0  0
  187.1020  177.5130  143.4340 C   0  0  0  0  0  0  0  0  0  0  0  0
  188.7990  175.5140  142.4380 C   0  0  0  0  0  0  0  0  0  0  0  0
  189.0570  173.7410  139.1530 C   0  0  0  0  0  1  0  0  0  0  0  0
  189.5260  174.4700  141.6610 C   0  0  1  0  0  3  0  0  0  0  0  0
  190.5880  171.0910  142.6200 C   0  0  0  0  0  2  0  0  0  0  0  0
  192.0250  174.6380  143.2620 C   0  0  0  0  0  1  0  0  0  0  0  0
  185.9520  177.5430  141.2680 C   0  0  0  0  0  3  0  0  0  0  0  0
  186.9500  177.0300  142.1020 C   0  0  0  0  0  0  0  0  0  0  0  0
  190.9060  174.2160  144.2110 C   0  0  2  0  0  3  0  0  0  0  0  0
  189.9500  177.7440  147.5730 C   0  0  0  0  0  2  0  0  0  0  0  0
  191.5670  177.5800  149.4430 C   0  0  0  0  0  1  0  0  0  0  0  0
  191.1450  176.9770  148.1200 C   0  0  0  0  0  2  0  0  0  0  0  0
  1  5  1  0  0  0  0
  2 16  1  0  0  0  0
  3 10  2  0  0  0  0
  3 17  1  0  0  0  0
  4  1  1  0  0  0  0
  5 11  1  0  0  0  0
  7 15  1  6  0  0  0
  7 27  1  0  0  0  0
  8  6  1  6  0  0  0
  8 11  1  0  0  0  0
  9 14  1  6  0  0  0
  9  7  1  0  0  0  0
 11 28  1  1  0  0  0
 12  4  1  6  0  0  0
 12  8  1  0  0  0  0
 13  2  2  0  0  0  0
 14 23  1  0  0  0  0
 17 26  2  0  0  0  0
 17 20  1  0  0  0  0
 18 13  1  0  0  0  0
 19  2  1  0  0  0  0
 19  1  2  0  0  0  0
 20  4  2  0  0  0  0
 21 10  1  0  0  0  0
 22 10  1  6  0  0  0
 22  9  1  0  0  0  0
 22 20  1  0  0  0  0
 23 15  1  0  0  0  0
 25 18  2  0  0  0  0
 25 26  1  0  0  0  0
 26 19  1  0  0  0  0
 27 24  1  6  0  0  0
 27 12  1  0  0  0  0
 28 30  1  0  0  0  0
 30 29  1  0  0  0  0
M  END
>  <MODEL>
4

>  <REMARK>
 VINA RESULT:      -8.1      1.826      2.673
  Name = 
  2 active torsions:
  status: ('A' for Active; 'I' for Inactive)
    1  A    between atoms: C_11  and  C_28
    2  A    between atoms: C_28  and  C_30
                            x       y       z     vdW  Elec       q    Type
                         _______ _______ _______ _____ _____    ______ ____

>  <TORSDO>
F 2

$$$$
=
 OpenBabel11112416183D

 30 35  0  0  1  0  0  0  0  0999 V2000
  189.7910  174.8080  143.6580 C   0  0  0  0  0  0  0  0  0  0  0  0
  191.9100  173.5090  143.8990 C   0  0  0  0  0  0  0  0  0  0  0  0
  190.5290  176.9110  147.2120 N   0  0  0  0  0  0  0  0  0  0  0  0
  188.9180  175.8030  144.1560 C   0  0  0  0  0  0  0  0  0  0  0  0
  189.3510  174.0560  142.4310 C   0  0  0  0  0  2  0  0  0  0  0  0
  188.3240  177.3420  141.4900 O   0  0  0  0  0  1  0  0  0  0  0  0
  186.1530  176.7340  145.3870 C   0  0  1  0  0  3  0  0  0  0  0  0
  187.8320  176.0950  141.8800 C   0  0  1  0  0  3  0  0  0  0  0  0
  187.1420  177.0110  146.5320 C   0  0  2  0  0  3  0  0  0  0  0  0
  189.4800  177.6680  147.2740 C   0  0  0  0  0  0  0  0  0  0  0  0
  188.7920  175.0050  141.3600 C   0  0  2  0  0  3  0  0  0  0  0  0
  187.6260  176.0400  143.4050 C   0  0  2  0  0  3  0  0  0  0  0  0
  193.0710  173.2360  144.6280 C   0  0  0  0  0  3  0  0  0  0  0  0
  186.4190  178.0250  147.3620 C   0  0  0  0  0  2  0  0  0  0  0  0
  184.9300  177.3800  145.6500 O   0  0  0  0  0  0  0  0  0  0  0  0
  191.7040  172.8110  142.7540 F   0  0  0  0  0  0  0  0  0  0  0  0
  190.4050  176.1480  146.0250 C   0  0  0  0  0  0  0  0  0  0  0  0
  193.3480  173.9210  145.8100 C   0  0  0  0  0  3  0  0  0  0  0  0
  190.9960  174.4900  144.3550 C   0  0  0  0  0  0  0  0  0  0  0  0
  189.2580  176.4560  145.3460 C   0  0  0  0  0  0  0  0  0  0  0  0
  189.3090  178.6690  148.3630 C   0  0  0  0  0  1  0  0  0  0  0  0
  188.5310  177.5130  146.1050 C   0  0  1  0  0  3  0  0  0  0  0  0
  184.9800  177.7970  146.9890 C   0  0  0  0  0  2  0  0  0  0  0  0
  187.0070  178.5240  143.7610 C   0  0  0  0  0  1  0  0  0  0  0  0
  192.4640  174.8920  146.2770 C   0  0  0  0  0  3  0  0  0  0  0  0
  191.2980  175.1820  145.5630 C   0  0  0  0  0  0  0  0  0  0  0  0
  186.6170  177.0620  143.9590 C   0  0  2  0  0  3  0  0  0  0  0  0
  188.1890  174.2360  140.1890 C   0  0  0  0  0  2  0  0  0  0  0  0
  189.3660  172.3140  139.1600 C   0  0  0  0  0  1  0  0  0  0  0  0
  188.4570  172.7420  140.2920 C   0  0  0  0  0  2  0  0  0  0  0  0
  1  4  2  0  0  0  0
  1 19  1  0  0  0  0
  2 19  2  0  0  0  0
  2 13  1  0  0  0  0
  3 10  2  0  0  0  0
  4 20  1  0  0  0  0
  5  1  1  0  0  0  0
  7 15  1  1  0  0  0
  7  9  1  0  0  0  0
  8  6  1  1  0  0  0
  8 12  1  0  0  0  0
  9 14  1  1  0  0  0
 10 21  1  0  0  0  0
 11 28  1  6  0  0  0
 11  8  1  0  0  0  0
 11  5  1  0  0  0  0
 12 27  1  0  0  0  0
 12  4  1  1  0  0  0
 13 18  2  0  0  0  0
 15 23  1  0  0  0  0
 16  2  1  0  0  0  0
 17  3  1  0  0  0  0
 18 25  1  0  0  0  0
 19 26  1  0  0  0  0
 20 17  2  0  0  0  0
 22 20  1  6  0  0  0
 22  9  1  0  0  0  0
 22 10  1  0  0  0  0
 23 14  1  0  0  0  0
 26 17  1  0  0  0  0
 26 25  2  0  0  0  0
 27 24  1  1  0  0  0
 27  7  1  0  0  0  0
 28 30  1  0  0  0  0
 29 30  1  0  0  0  0
M  END
>  <MODEL>
5

>  <REMARK>
 VINA RESULT:      -7.9      2.902      6.913
  Name = 
  2 active torsions:
  status: ('A' for Active; 'I' for Inactive)
    1  A    between atoms: C_11  and  C_28
    2  A    between atoms: C_28  and  C_30
                            x       y       z     vdW  Elec       q    Type
                         _______ _______ _______ _____ _____    ______ ____

>  <TORSDO>
F 2

$$$$
=
 OpenBabel11112416183D

 30 35  0  0  1  0  0  0  0  0999 V2000
  188.7180  176.1200  144.9740 C   0  0  0  0  0  0  0  0  0  0  0  0
  186.8910  177.7950  145.2800 C   0  0  0  0  0  0  0  0  0  0  0  0
  187.6510  175.5030  140.9640 N   0  0  0  0  0  0  0  0  0  0  0  0
  189.4110  175.2250  144.1250 C   0  0  0  0  0  0  0  0  0  0  0  0
  189.1370  176.1630  146.4190 C   0  0  0  0  0  2  0  0  0  0  0  0
  192.3570  175.9700  144.8920 O   0  0  0  0  0  1  0  0  0  0  0  0
  190.3000  172.3100  143.2670 C   0  0  1  0  0  3  0  0  0  0  0  0
  191.4420  175.2360  145.6470 C   0  0  1  0  0  3  0  0  0  0  0  0
  189.4040  172.7470  142.0960 C   0  0  2  0  0  3  0  0  0  0  0  0
  188.5200  174.6090  140.6120 C   0  0  0  0  0  0  0  0  0  0  0  0
  190.6670  176.2080  146.5600 C   0  0  2  0  0  3  0  0  0  0  0  0
  190.5240  174.4010  144.7350 C   0  0  2  0  0  3  0  0  0  0  0  0
  185.8160  178.5070  144.7400 C   0  0  0  0  0  3  0  0  0  0  0  0
  189.8450  171.8500  140.9820 C   0  0  0  0  0  2  0  0  0  0  0  0
  191.0310  171.1640  142.9020 O   0  0  0  0  0  0  0  0  0  0  0  0
  187.2100  178.0200  146.5790 F   0  0  0  0  0  0  0  0  0  0  0  0
  187.9210  175.8130  142.3200 C   0  0  0  0  0  0  0  0  0  0  0  0
  185.4400  178.3280  143.4100 C   0  0  0  0  0  3  0  0  0  0  0  0
  187.6160  176.8800  144.4780 C   0  0  0  0  0  0  0  0  0  0  0  0
  188.9840  175.0970  142.7990 C   0  0  0  0  0  0  0  0  0  0  0  0
  188.5840  174.0980  139.2150 C   0  0  0  0  0  1  0  0  0  0  0  0
  189.5010  174.2300  141.7020 C   0  0  1  0  0  3  0  0  0  0  0  0
  190.4570  170.6870  141.7140 C   0  0  0  0  0  2  0  0  0  0  0  0
  192.2290  173.9480  142.8470 C   0  0  0  0  0  1  0  0  0  0  0  0
  186.1390  177.4340  142.6010 C   0  0  0  0  0  3  0  0  0  0  0  0
  187.2180  176.7130  143.1200 C   0  0  0  0  0  0  0  0  0  0  0  0
  191.2490  173.3640  143.8610 C   0  0  2  0  0  3  0  0  0  0  0  0
  191.1000  176.0790  148.0160 C   0  0  0  0  0  2  0  0  0  0  0  0
  191.5610  177.9170  149.6130 C   0  0  0  0  0  1  0  0  0  0  0  0
  192.0920  177.1620  148.4130 C   0  0  0  0  0  2  0  0  0  0  0  0
  1  5  1  0  0  0  0
  2 16  1  0  0  0  0
  3 17  1  0  0  0  0
  4  1  2  0  0  0  0
  5 11  1  0  0  0  0
  7 15  1  6  0  0  0
  7 27  1  0  0  0  0
  8  6  1  6  0  0  0
  8 11  1  0  0  0  0
  9 14  1  6  0  0  0
  9  7  1  0  0  0  0
 10  3  2  0  0  0  0
 11 28  1  1  0  0  0
 12  4  1  6  0  0  0
 12  8  1  0  0  0  0
 13  2  1  0  0  0  0
 14 23  1  0  0  0  0
 17 20  2  0  0  0  0
 17 26  1  0  0  0  0
 18 13  2  0  0  0  0
 19  1  1  0  0  0  0
 19  2  2  0  0  0  0
 20  4  1  0  0  0  0
 21 10  1  0  0  0  0
 22 10  1  6  0  0  0
 22  9  1  0  0  0  0
 22 20  1  0  0  0  0
 23 15  1  0  0  0  0
 25 26  2  0  0  0  0
 25 18  1  0  0  0  0
 26 19  1  0  0  0  0
 27 24  1  6  0  0  0
 27 12  1  0  0  0  0
 28 30  1  0  0  0  0
 30 29  1  0  0  0  0
M  END
>  <MODEL>
6

>  <REMARK>
 VINA RESULT:      -7.8      1.589      2.317
  Name = 
  2 active torsions:
  status: ('A' for Active; 'I' for Inactive)
    1  A    between atoms: C_11  and  C_28
    2  A    between atoms: C_28  and  C_30
                            x       y       z     vdW  Elec       q    Type
                         _______ _______ _______ _____ _____    ______ ____

>  <TORSDO>
F 2

$$$$
=
 OpenBabel11112416183D

 30 35  0  0  1  0  0  0  0  0999 V2000
  188.3480  175.8500  142.2580 C   0  0  0  0  0  0  0  0  0  0  0  0
  186.8410  176.8160  140.5180 C   0  0  0  0  0  0  0  0  0  0  0  0
  186.5080  178.1030  145.2820 N   0  0  0  0  0  0  0  0  0  0  0  0
  188.7360  175.7720  143.6170 C   0  0  0  0  0  0  0  0  0  0  0  0
  189.1640  175.0690  141.2630 C   0  0  0  0  0  2  0  0  0  0  0  0
  189.0090  172.6620  143.8930 O   0  0  0  0  0  1  0  0  0  0  0  0
  190.8150  176.2300  145.9600 C   0  0  1  0  0  3  0  0  0  0  0  0
  189.8790  173.5380  143.2400 C   0  0  1  0  0  3  0  0  0  0  0  0
  189.6750  177.1960  146.3280 C   0  0  2  0  0  3  0  0  0  0  0  0
  187.1940  177.7330  146.3170 C   0  0  0  0  0  0  0  0  0  0  0  0
  189.4490  173.6450  141.7630 C   0  0  2  0  0  3  0  0  0  0  0  0
  189.9240  174.9000  143.9570 C   0  0  2  0  0  3  0  0  0  0  0  0
  185.7890  177.6750  140.1880 C   0  0  0  0  0  3  0  0  0  0  0  0
  189.8810  177.4160  147.7940 C   0  0  0  0  0  2  0  0  0  0  0  0
  191.6790  176.0770  147.0610 O   0  0  0  0  0  0  0  0  0  0  0  0
  187.4110  176.1020  139.5160 F   0  0  0  0  0  0  0  0  0  0  0  0
  187.0320  177.3870  144.1770 C   0  0  0  0  0  0  0  0  0  0  0  0
  185.1530  178.4340  141.1700 C   0  0  0  0  0  3  0  0  0  0  0  0
  187.2760  176.7040  141.8610 C   0  0  0  0  0  0  0  0  0  0  0  0
  188.0520  176.5570  144.5530 C   0  0  0  0  0  0  0  0  0  0  0  0
  186.8660  178.2320  147.6810 C   0  0  0  0  0  1  0  0  0  0  0  0
  188.2540  176.6940  146.0230 C   0  0  1  0  0  3  0  0  0  0  0  0
  191.3350  177.0790  147.9810 C   0  0  0  0  0  2  0  0  0  0  0  0
  189.5460  174.0390  146.3640 C   0  0  0  0  0  1  0  0  0  0  0  0
  185.5630  178.3390  142.4980 C   0  0  0  0  0  3  0  0  0  0  0  0
  186.6120  177.4850  142.8510 C   0  0  0  0  0  0  0  0  0  0  0  0
  190.4210  174.8490  145.4120 C   0  0  2  0  0  3  0  0  0  0  0  0
  190.4150  172.9100  140.8410 C   0  0  0  0  0  2  0  0  0  0  0  0
  189.6990  171.7020  138.7990 C   0  0  0  0  0  1  0  0  0  0  0  0
  190.0300  173.0620  139.3760 C   0  0  0  0  0  2  0  0  0  0  0  0
  1  4  1  0  0  0  0
  2 19  1  0  0  0  0
  3 10  2  0  0  0  0
  4 20  2  0  0  0  0
  5 11  1  0  0  0  0
  5  1  1  0  0  0  0
  7  9  1  0  0  0  0
  7 15  1  1  0  0  0
  8  6  1  1  0  0  0
  8 12  1  0  0  0  0
  9 14  1  1  0  0  0
 10 21  1  0  0  0  0
 11 28  1  6  0  0  0
 11  8  1  0  0  0  0
 12  4  1  1  0  0  0
 12 27  1  0  0  0  0
 13  2  2  0  0  0  0
 13 18  1  0  0  0  0
 14 23  1  0  0  0  0
 15 23  1  0  0  0  0
 16  2  1  0  0  0  0
 17 20  1  0  0  0  0
 17  3  1  0  0  0  0
 18 25  2  0  0  0  0
 19  1  2  0  0  0  0
 19 26  1  0  0  0  0
 22 20  1  6  0  0  0
 22 10  1  0  0  0  0
 22  9  1  0  0  0  0
 25 26  1  0  0  0  0
 26 17  2  0  0  0  0
 27  7  1  0  0  0  0
 27 24  1  1  0  0  0
 29 30  1  0  0  0  0
 30 28  1  0  0  0  0
M  END
>  <MODEL>
7

>  <REMARK>
 VINA RESULT:      -7.8      2.285      5.803
  Name = 
  2 active torsions:
  status: ('A' for Active; 'I' for Inactive)
    1  A    between atoms: C_11  and  C_28
    2  A    between atoms: C_28  and  C_30
                            x       y       z     vdW  Elec       q    Type
                         _______ _______ _______ _____ _____    ______ ____

>  <TORSDO>
F 2

$$$$
=
 OpenBabel11112416183D

 30 35  0  0  1  0  0  0  0  0999 V2000
  188.8960  175.4050  142.9430 C   0  0  0  0  0  0  0  0  0  0  0  0
  186.7900  176.4210  143.8170 C   0  0  0  0  0  0  0  0  0  0  0  0
  191.0810  176.7880  146.2470 N   0  0  0  0  0  0  0  0  0  0  0  0
  190.2780  175.1510  143.1100 C   0  0  0  0  0  0  0  0  0  0  0  0
  188.2610  174.9450  141.6580 C   0  0  0  0  0  2  0  0  0  0  0  0
  190.3380  172.1190  142.3170 O   0  0  0  0  0  1  0  0  0  0  0  0
  193.3070  175.5030  142.2580 C   0  0  1  0  0  3  0  0  0  0  0  0
  190.1960  173.2170  141.4670 C   0  0  1  0  0  3  0  0  0  0  0  0
  193.2580  176.2040  143.6270 C   0  0  2  0  0  3  0  0  0  0  0  0
  192.2660  176.3510  145.9590 C   0  0  0  0  0  0  0  0  0  0  0  0
  188.6930  173.5150  141.2980 C   0  0  2  0  0  3  0  0  0  0  0  0
  190.9960  174.4240  141.9940 C   0  0  2  0  0  3  0  0  0  0  0  0
  186.1360  177.1540  144.8120 C   0  0  0  0  0  3  0  0  0  0  0  0
  194.6900  176.1920  144.0610 C   0  0  0  0  0  2  0  0  0  0  0  0
  194.6470  175.2920  141.8820 O   0  0  0  0  0  0  0  0  0  0  0  0
  186.0520  175.9880  142.7640 F   0  0  0  0  0  0  0  0  0  0  0  0
  190.2310  176.3640  145.1950 C   0  0  0  0  0  0  0  0  0  0  0  0
  186.8320  177.6230  145.9240 C   0  0  0  0  0  3  0  0  0  0  0  0
  188.1740  176.1430  143.9280 C   0  0  0  0  0  0  0  0  0  0  0  0
  190.9150  175.6470  144.2530 C   0  0  0  0  0  0  0  0  0  0  0  0
  193.4110  176.5460  146.8910 C   0  0  0  0  0  1  0  0  0  0  0  0
  192.3420  175.5530  144.6750 C   0  0  1  0  0  3  0  0  0  0  0  0
  195.4330  176.0530  142.7600 C   0  0  0  0  0  2  0  0  0  0  0  0
  192.9290  173.1070  143.0910 C   0  0  0  0  0  1  0  0  0  0  0  0
  188.1950  177.3610  146.0560 C   0  0  0  0  0  3  0  0  0  0  0  0
  188.8680  176.6280  145.0740 C   0  0  0  0  0  0  0  0  0  0  0  0
  192.5130  174.1950  142.1060 C   0  0  2  0  0  3  0  0  0  0  0  0
  188.1900  173.1090  139.9170 C   0  0  0  0  0  2  0  0  0  0  0  0
  188.0810  174.5410  137.8980 C   0  0  0  0  0  1  0  0  0  0  0  0
  189.0030  173.7530  138.8040 C   0  0  0  0  0  2  0  0  0  0  0  0
  1  4  2  0  0  0  0
  1 19  1  0  0  0  0
  2 19  2  0  0  0  0
  2 13  1  0  0  0  0
  4 20  1  0  0  0  0
  5  1  1  0  0  0  0
  7 15  1  1  0  0  0
  7  9  1  0  0  0  0
  8 12  1  0  0  0  0
  8  6  1  1  0  0  0
  9 14  1  1  0  0  0
  9 22  1  0  0  0  0
 10  3  2  0  0  0  0
 10 21  1  0  0  0  0
 11 28  1  6  0  0  0
 11  8  1  0  0  0  0
 11  5  1  0  0  0  0
 12 27  1  0  0  0  0
 12  4  1  1  0  0  0
 13 18  2  0  0  0  0
 15 23  1  0  0  0  0
 16  2  1  0  0  0  0
 17  3  1  0  0  0  0
 18 25  1  0  0  0  0
 19 26  1  0  0  0  0
 20 17  2  0  0  0  0
 22 20  1  6  0  0  0
 22 10  1  0  0  0  0
 23 14  1  0  0  0  0
 26 17  1  0  0  0  0
 26 25  2  0  0  0  0
 27  7  1  0  0  0  0
 27 24  1  1  0  0  0
 29 30  1  0  0  0  0
 30 28  1  0  0  0  0
M  END
>  <MODEL>
8

>  <REMARK>
 VINA RESULT:      -7.7      2.657      5.870
  Name = 
  2 active torsions:
  status: ('A' for Active; 'I' for Inactive)
    1  A    between atoms: C_11  and  C_28
    2  A    between atoms: C_28  and  C_30
                            x       y       z     vdW  Elec       q    Type
                         _______ _______ _______ _____ _____    ______ ____

>  <TORSDO>
F 2

$$$$
=
 OpenBabel11112416183D

 30 35  0  0  1  0  0  0  0  0999 V2000
  187.3280  176.3980  142.0810 C   0  0  0  0  0  0  0  0  0  0  0  0
  185.2620  177.7530  142.4370 C   0  0  0  0  0  0  0  0  0  0  0  0
  188.0050  176.1160  146.2110 N   0  0  0  0  0  0  0  0  0  0  0  0
  188.4230  175.6910  142.6320 C   0  0  0  0  0  0  0  0  0  0  0  0
  187.2670  176.5110  140.5810 C   0  0  0  0  0  2  0  0  0  0  0  0
  188.3120  173.1100  140.8580 O   0  0  0  0  0  1  0  0  0  0  0  0
  191.5230  175.2910  143.1360 C   0  0  1  0  0  3  0  0  0  0  0  0
  188.7550  174.3800  140.4840 C   0  0  1  0  0  3  0  0  0  0  0  0
  190.9880  175.5900  144.5470 C   0  0  2  0  0  3  0  0  0  0  0  0
  189.0990  175.4220  146.2360 C   0  0  0  0  0  0  0  0  0  0  0  0
  187.5620  175.1640  139.9030 C   0  0  2  0  0  3  0  0  0  0  0  0
  189.4280  175.0950  141.6710 C   0  0  2  0  0  3  0  0  0  0  0  0
  184.3690  178.3670  143.3200 C   0  0  0  0  0  3  0  0  0  0  0  0
  192.0490  175.0190  145.4360 C   0  0  0  0  0  2  0  0  0  0  0  0
  192.8320  174.7800  143.2240 O   0  0  0  0  0  0  0  0  0  0  0  0
  185.0120  177.8630  141.1080 F   0  0  0  0  0  0  0  0  0  0  0  0
  187.6570  176.2690  144.8470 C   0  0  0  0  0  0  0  0  0  0  0  0
  184.5630  178.2870  144.6980 C   0  0  0  0  0  3  0  0  0  0  0  0
  186.3800  177.0390  142.9330 C   0  0  0  0  0  0  0  0  0  0  0  0
  188.5560  175.6470  144.0250 C   0  0  0  0  0  0  0  0  0  0  0  0
  189.7210  175.0010  147.5210 C   0  0  0  0  0  1  0  0  0  0  0  0
  189.6030  175.0060  144.8700 C   0  0  1  0  0  3  0  0  0  0  0  0
  193.2590  175.0010  144.5420 C   0  0  0  0  0  2  0  0  0  0  0  0
  190.4080  173.0030  142.8270 C   0  0  0  0  0  1  0  0  0  0  0  0
  185.6550  177.5880  145.2100 C   0  0  0  0  0  3  0  0  0  0  0  0
  186.5590  176.9660  144.3440 C   0  0  0  0  0  0  0  0  0  0  0  0
  190.6710  174.3840  142.2340 C   0  0  2  0  0  3  0  0  0  0  0  0
  187.6690  175.3110  138.3890 C   0  0  0  0  0  2  0  0  0  0  0  0
  186.2750  175.9600  136.4450 C   0  0  0  0  0  1  0  0  0  0  0  0
  186.6940  176.3470  137.8470 C   0  0  0  0  0  2  0  0  0  0  0  0
  1  4  2  0  0  0  0
  1 19  1  0  0  0  0
  2 19  2  0  0  0  0
  2 13  1  0  0  0  0
  3 10  2  0  0  0  0
  4 20  1  0  0  0  0
  5  1  1  0  0  0  0
  7 15  1  1  0  0  0
  7  9  1  0  0  0  0
  8  6  1  1  0  0  0
  8 12  1  0  0  0  0
  9 22  1  0  0  0  0
  9 14  1  1  0  0  0
 10 21  1  0  0  0  0
 11 28  1  6  0  0  0
 11  8  1  0  0  0  0
 11  5  1  0  0  0  0
 12 27  1  0  0  0  0
 12  4  1  1  0  0  0
 13 18  2  0  0  0  0
 15 23  1  0  0  0  0
 16  2  1  0  0  0  0
 17  3  1  0  0  0  0
 18 25  1  0  0  0  0
 19 26  1  0  0  0  0
 20 17  2  0  0  0  0
 22 20  1  6  0  0  0
 22 10  1  0  0  0  0
 23 14  1  0  0  0  0
 26 17  1  0  0  0  0
 26 25  2  0  0  0  0
 27 24  1  1  0  0  0
 27  7  1  0  0  0  0
 29 30  1  0  0  0  0
 30 28  1  0  0  0  0
M  END
>  <MODEL>
9

>  <REMARK>
 VINA RESULT:      -7.6      2.169      5.750
  Name = 
  2 active torsions:
  status: ('A' for Active; 'I' for Inactive)
    1  A    between atoms: C_11  and  C_28
    2  A    between atoms: C_28  and  C_30
                            x       y       z     vdW  Elec       q    Type
                         _______ _______ _______ _____ _____    ______ ____

>  <TORSDO>
F 2

$$$$
