=
 OpenBabel11112417503D

 34 41  0  0  1  0  0  0  0  0999 V2000
  189.8280  176.6950  144.8790 C   0  0  0  0  0  0  0  0  0  0  0  0
  192.0630  175.7740  144.0960 C   0  0  0  0  0  2  0  0  0  0  0  0
  184.5020  179.0660  143.8990 C   0  0  2  0  0  3  0  0  0  0  0  0
  187.5830  177.0460  145.7220 C   0  0  0  0  0  0  0  0  0  0  0  0
  185.5900  176.7710  144.1890 N   0  0  1  0  0  0  0  0  0  0  0  0
  186.6130  178.9280  143.7580 O   0  0  0  0  0  0  0  0  0  0  0  0
  185.7110  179.9520  144.1000 C   0  0  0  0  0  2  0  0  0  0  0  0
  184.6760  178.6970  146.4420 C   0  0  0  0  0  2  0  0  0  0  0  0
  190.2130  175.8300  142.5320 C   0  0  2  0  0  3  0  0  0  0  0  0
  189.6830  173.1380  140.9440 C   0  0  0  0  0  2  0  0  0  0  0  0
  186.4040  175.8170  143.4210 C   0  0  0  0  0  2  0  0  0  0  0  0
  185.1440  177.2740  146.6520 C   0  0  0  0  0  2  0  0  0  0  0  0
  188.7830  175.2520  142.6200 C   0  0  1  0  0  3  0  0  0  0  0  0
  192.5210  175.0780  142.8220 C   0  0  0  0  0  2  0  0  0  0  0  0
  186.1080  176.7970  145.5710 C   0  0  2  0  0  3  0  0  0  0  0  0
  183.7700  178.7780  145.2190 C   0  0  0  0  0  2  0  0  0  0  0  0
  190.8730  173.3930  141.8880 C   0  0  1  0  0  3  0  0  0  0  0  0
  188.4380  176.6540  144.6790 C   0  0  0  0  0  0  0  0  0  0  0  0
  185.5480  178.0620  143.4590 C   0  0  2  0  0  3  0  0  0  0  0  0
  187.8780  176.2680  143.3260 C   0  0  2  0  0  3  0  0  0  0  0  0
  189.4470  177.5290  147.1120 C   0  0  0  0  0  3  0  0  0  0  0  0
  189.2030  174.3300  140.3720 O   0  0  0  0  0  0  0  0  0  0  0  0
  188.1050  177.4600  146.9080 N   0  0  0  0  0  0  0  0  0  0  0  0
  188.2230  174.8560  141.2380 C   0  0  0  0  0  2  0  0  0  0  0  0
  191.2790  174.8830  141.9580 C   0  0  1  0  0  3  0  0  0  0  0  0
  190.3330  177.1390  146.1060 C   0  0  0  0  0  3  0  0  0  0  0  0
  190.7020  176.2110  143.8470 N   0  0  0  0  0  0  0  0  0  0  0  0
  190.5680  172.8980  143.1620 O   0  0  0  0  0  0  0  0  0  0  0  0
  190.8130  171.5240  143.0920 C   0  0  0  0  0  2  0  0  0  0  0  0
  193.8160  171.6500  145.1870 C   0  0  0  0  0  3  0  0  0  0  0  0
  192.7280  169.9900  143.6610 C   0  0  0  0  0  3  0  0  0  0  0  0
  192.0750  171.2080  143.8170 C   0  0  0  0  0  0  0  0  0  0  0  0
  194.1000  170.0950  144.6260 S   0  0  0  0  0  0  0  0  0  0  0  0
  192.6690  172.1110  144.6450 N   0  0  0  0  0  0  0  0  0  0  0  0
  1 26  1  0  0  0  0
  3  7  1  1  0  0  0
  3 16  1  0  0  0  0
  4 23  2  0  0  0  0
  5 11  1  6  0  0  0
  5 15  1  0  0  0  0
  6  7  1  0  0  0  0
  8 12  1  0  0  0  0
  9 13  1  0  0  0  0
  9 27  1  1  0  0  0
 10 17  1  0  0  0  0
 13 24  1  6  0  0  0
 13 20  1  0  0  0  0
 14  2  1  0  0  0  0
 15  4  1  0  0  0  0
 15 12  1  1  0  0  0
 16  8  1  0  0  0  0
 17 25  1  0  0  0  0
 17 28  1  1  0  0  0
 18  1  2  0  0  0  0
 18  4  1  0  0  0  0
 19  6  1  1  0  0  0
 19  3  1  0  0  0  0
 19  5  1  0  0  0  0
 20 11  1  1  0  0  0
 20 18  1  0  0  0  0
 22 10  1  0  0  0  0
 22 24  1  0  0  0  0
 23 21  1  0  0  0  0
 25  9  1  0  0  0  0
 25 14  1  1  0  0  0
 26 21  2  0  0  0  0
 27  2  1  0  0  0  0
 27  1  1  0  0  0  0
 29 28  1  0  0  0  0
 29 32  1  0  0  0  0
 31 32  2  0  0  0  0
 31 33  1  0  0  0  0
 32 34  1  0  0  0  0
 33 30  1  0  0  0  0
 34 30  2  0  0  0  0
M  END
>  <MODEL>
1

>  <REMARK>
 VINA RESULT:      -8.5      0.000      0.000
  Name = 
  3 active torsions:
  status: ('A' for Active; 'I' for Inactive)
    1  A    between atoms: C_17  and  O_28
    2  A    between atoms: O_28  and  C_29
    3  A    between atoms: C_29  and  C_32
                            x       y       z     vdW  Elec       q    Type
                         _______ _______ _______ _____ _____    ______ ____

>  <TORSDO>
F 3

$$$$
=
 OpenBabel11112417503D

 34 41  0  0  1  0  0  0  0  0999 V2000
  189.6920  174.0720  143.6260 C   0  0  0  0  0  0  0  0  0  0  0  0
  191.5970  172.3940  143.7580 C   0  0  0  0  0  2  0  0  0  0  0  0
  186.1660  178.1940  145.9740 C   0  0  2  0  0  3  0  0  0  0  0  0
  188.2390  175.9650  143.2110 C   0  0  0  0  0  0  0  0  0  0  0  0
  188.3660  178.0160  144.6860 N   0  0  1  0  0  0  0  0  0  0  0  0
  187.1070  176.2980  145.8470 O   0  0  0  0  0  0  0  0  0  0  0  0
  185.7820  176.7320  146.0330 C   0  0  0  0  0  2  0  0  0  0  0  0
  185.5030  178.0000  143.4930 C   0  0  0  0  0  2  0  0  0  0  0  0
  191.5120  174.1920  145.3800 C   0  0  2  0  0  3  0  0  0  0  0  0
  194.2210  175.7850  145.7970 C   0  0  0  0  0  2  0  0  0  0  0  0
  189.7740  177.6660  144.9260 C   0  0  0  0  0  2  0  0  0  0  0  0
  186.7800  178.0790  142.6860 C   0  0  0  0  0  2  0  0  0  0  0  0
  191.4400  175.7250  145.2030 C   0  0  1  0  0  3  0  0  0  0  0  0
  192.8640  172.3120  144.5950 C   0  0  0  0  0  2  0  0  0  0  0  0
  187.9710  177.4340  143.3880 C   0  0  2  0  0  3  0  0  0  0  0  0
  185.6030  178.8910  144.7260 C   0  0  0  0  0  2  0  0  0  0  0  0
  194.0560  174.5260  144.9260 C   0  0  1  0  0  3  0  0  0  0  0  0
  189.3030  175.3880  143.9230 C   0  0  0  0  0  0  0  0  0  0  0  0
  187.5670  177.6270  145.8730 C   0  0  2  0  0  3  0  0  0  0  0  0
  189.9720  176.1400  145.0540 C   0  0  2  0  0  3  0  0  0  0  0  0
  187.9460  173.9660  141.9620 C   0  0  0  0  0  3  0  0  0  0  0  0
  193.2800  175.8270  146.8420 O   0  0  0  0  0  0  0  0  0  0  0  0
  187.5990  175.2500  142.2470 N   0  0  0  0  0  0  0  0  0  0  0  0
  192.1300  176.4820  146.3560 C   0  0  0  0  0  2  0  0  0  0  0  0
  192.9270  173.5930  145.4230 C   0  0  1  0  0  3  0  0  0  0  0  0
  189.0050  173.3570  142.6390 C   0  0  0  0  0  3  0  0  0  0  0  0
  190.8360  173.5100  144.2890 N   0  0  0  0  0  0  0  0  0  0  0  0
  193.8410  174.9060  143.5960 O   0  0  0  0  0  0  0  0  0  0  0  0
  194.5930  176.0700  143.4190 C   0  0  0  0  0  2  0  0  0  0  0  0
  197.7620  175.2920  141.7530 C   0  0  0  0  0  3  0  0  0  0  0  0
  195.4600  175.9880  141.0560 C   0  0  0  0  0  3  0  0  0  0  0  0
  195.6680  175.8190  142.4200 C   0  0  0  0  0  0  0  0  0  0  0  0
  196.9350  175.6350  140.3340 S   0  0  0  0  0  0  0  0  0  0  0  0
  196.9210  175.4440  142.7990 N   0  0  0  0  0  0  0  0  0  0  0  0
  1 18  1  0  0  0  0
  1 27  1  0  0  0  0
  2 27  1  0  0  0  0
  2 14  1  0  0  0  0
  3 16  1  6  0  0  0
  3  7  1  0  0  0  0
  4 15  1  0  0  0  0
  4 18  2  0  0  0  0
  5 11  1  1  0  0  0
  5 19  1  0  0  0  0
  6  7  1  0  0  0  0
  8 16  1  0  0  0  0
  9 27  1  6  0  0  0
  9 25  1  0  0  0  0
 10 22  1  0  0  0  0
 12  8  1  0  0  0  0
 13  9  1  0  0  0  0
 13 24  1  1  0  0  0
 15 12  1  1  0  0  0
 15  5  1  0  0  0  0
 17 28  1  6  0  0  0
 17 25  1  0  0  0  0
 17 10  1  0  0  0  0
 18 20  1  0  0  0  0
 19  6  1  6  0  0  0
 19  3  1  0  0  0  0
 20 11  1  6  0  0  0
 20 13  1  0  0  0  0
 21 23  2  0  0  0  0
 21 26  1  0  0  0  0
 23  4  1  0  0  0  0
 24 22  1  0  0  0  0
 25 14  1  6  0  0  0
 26  1  2  0  0  0  0
 29 28  1  0  0  0  0
 30 34  2  0  0  0  0
 31 32  2  0  0  0  0
 32 34  1  0  0  0  0
 32 29  1  0  0  0  0
 33 31  1  0  0  0  0
 33 30  1  0  0  0  0
M  END
>  <MODEL>
2

>  <REMARK>
 VINA RESULT:      -8.4      2.844      4.699
  Name = 
  3 active torsions:
  status: ('A' for Active; 'I' for Inactive)
    1  A    between atoms: C_17  and  O_28
    2  A    between atoms: O_28  and  C_29
    3  A    between atoms: C_29  and  C_32
                            x       y       z     vdW  Elec       q    Type
                         _______ _______ _______ _____ _____    ______ ____

>  <TORSDO>
F 3

$$$$
=
 OpenBabel11112417503D

 34 41  0  0  1  0  0  0  0  0999 V2000
  190.1500  173.6270  143.7000 C   0  0  0  0  0  0  0  0  0  0  0  0
  192.0850  172.0880  144.2890 C   0  0  0  0  0  2  0  0  0  0  0  0
  186.6120  178.2410  144.7630 C   0  0  2  0  0  3  0  0  0  0  0  0
  188.6560  175.2880  142.7630 C   0  0  0  0  0  0  0  0  0  0  0  0
  188.7840  177.6940  143.5310 N   0  0  1  0  0  0  0  0  0  0  0  0
  187.5820  176.4070  145.1990 O   0  0  0  0  0  0  0  0  0  0  0  0
  186.2550  176.8660  145.2790 C   0  0  0  0  0  2  0  0  0  0  0  0
  185.8950  177.2870  142.4810 C   0  0  0  0  0  2  0  0  0  0  0  0
  192.0090  174.2980  145.2810 C   0  0  2  0  0  3  0  0  0  0  0  0
  194.7000  175.9650  145.1120 C   0  0  0  0  0  2  0  0  0  0  0  0
  190.2030  177.4480  143.8280 C   0  0  0  0  0  2  0  0  0  0  0  0
  187.1510  177.1240  141.6540 C   0  0  0  0  0  2  0  0  0  0  0  0
  191.9080  175.7010  144.6430 C   0  0  1  0  0  3  0  0  0  0  0  0
  193.3740  172.2790  145.0750 C   0  0  0  0  0  2  0  0  0  0  0  0
  188.3680  176.7380  142.4870 C   0  0  2  0  0  3  0  0  0  0  0  0
  186.0090  178.5150  143.3760 C   0  0  0  0  0  2  0  0  0  0  0  0
  194.5360  174.4970  144.6760 C   0  0  1  0  0  3  0  0  0  0  0  0
  189.7460  174.9670  143.5890 C   0  0  0  0  0  0  0  0  0  0  0  0
  188.0200  177.6830  144.8020 C   0  0  2  0  0  3  0  0  0  0  0  0
  190.4290  176.0370  144.4140 C   0  0  2  0  0  3  0  0  0  0  0  0
  188.3670  172.9990  142.1980 C   0  0  0  0  0  3  0  0  0  0  0  0
  193.7840  176.3180  146.1190 O   0  0  0  0  0  0  0  0  0  0  0  0
  188.0050  174.3050  142.0840 N   0  0  0  0  0  0  0  0  0  0  0  0
  192.6120  176.7820  145.4870 C   0  0  0  0  0  2  0  0  0  0  0  0
  193.4350  173.7530  145.4660 C   0  0  1  0  0  3  0  0  0  0  0  0
  189.4520  172.6370  143.0000 C   0  0  0  0  0  3  0  0  0  0  0  0
  191.3190  173.3060  144.4720 N   0  0  0  0  0  0  0  0  0  0  0  0
  194.2830  174.4470  143.3000 O   0  0  0  0  0  0  0  0  0  0  0  0
  194.9600  175.5430  142.7600 C   0  0  0  0  0  2  0  0  0  0  0  0
  196.3050  175.2820  139.3620 C   0  0  0  0  0  3  0  0  0  0  0  0
  194.0640  175.0600  140.4570 C   0  0  0  0  0  3  0  0  0  0  0  0
  195.1360  175.3460  141.2950 C   0  0  0  0  0  0  0  0  0  0  0  0
  194.7200  174.9620  138.9130 S   0  0  0  0  0  0  0  0  0  0  0  0
  196.3530  175.4690  140.6980 N   0  0  0  0  0  0  0  0  0  0  0  0
  1 27  1  0  0  0  0
  2 27  1  0  0  0  0
  2 14  1  0  0  0  0
  3 16  1  6  0  0  0
  3 19  1  0  0  0  0
  3  7  1  0  0  0  0
  4 18  2  0  0  0  0
  5 11  1  1  0  0  0
  5 19  1  0  0  0  0
  6  7  1  0  0  0  0
  8 16  1  0  0  0  0
  9 27  1  6  0  0  0
  9 25  1  0  0  0  0
 10 22  1  0  0  0  0
 12  8  1  0  0  0  0
 13  9  1  0  0  0  0
 13 24  1  1  0  0  0
 15 12  1  1  0  0  0
 15  4  1  0  0  0  0
 15  5  1  0  0  0  0
 17 28  1  6  0  0  0
 17 10  1  0  0  0  0
 17 25  1  0  0  0  0
 18  1  1  0  0  0  0
 18 20  1  0  0  0  0
 19  6  1  6  0  0  0
 20 11  1  6  0  0  0
 20 13  1  0  0  0  0
 21 26  1  0  0  0  0
 23 21  2  0  0  0  0
 23  4  1  0  0  0  0
 24 22  1  0  0  0  0
 25 14  1  6  0  0  0
 26  1  2  0  0  0  0
 29 28  1  0  0  0  0
 30 34  2  0  0  0  0
 31 32  2  0  0  0  0
 32 29  1  0  0  0  0
 33 30  1  0  0  0  0
 33 31  1  0  0  0  0
 34 32  1  0  0  0  0
M  END
>  <MODEL>
3

>  <REMARK>
 VINA RESULT:      -7.9      2.882      4.870
  Name = 
  3 active torsions:
  status: ('A' for Active; 'I' for Inactive)
    1  A    between atoms: C_17  and  O_28
    2  A    between atoms: O_28  and  C_29
    3  A    between atoms: C_29  and  C_32
                            x       y       z     vdW  Elec       q    Type
                         _______ _______ _______ _____ _____    ______ ____

>  <TORSDO>
F 3

$$$$
=
 OpenBabel11112417503D

 34 41  0  0  1  0  0  0  0  0999 V2000
  192.6340  175.8140  145.4780 C   0  0  0  0  0  0  0  0  0  0  0  0
  190.2750  175.8130  146.4250 C   0  0  0  0  0  2  0  0  0  0  0  0
  196.9430  173.5310  142.1370 C   0  0  2  0  0  3  0  0  0  0  0  0
  194.6930  176.2300  144.2710 C   0  0  0  0  0  0  0  0  0  0  0  0
  195.0440  175.2360  141.9720 N   0  0  1  0  0  0  0  0  0  0  0  0
  195.4420  173.5150  143.6350 O   0  0  0  0  0  0  0  0  0  0  0  0
  196.7890  173.1140  143.5820 C   0  0  0  0  0  2  0  0  0  0  0  0
  197.8780  175.7120  143.1380 C   0  0  0  0  0  2  0  0  0  0  0  0
  190.7140  174.5810  144.3840 C   0  0  2  0  0  3  0  0  0  0  0  0
  188.6830  175.1050  142.0080 C   0  0  0  0  0  2  0  0  0  0  0  0
  193.5830  175.2650  141.8160 C   0  0  0  0  0  2  0  0  0  0  0  0
  196.8480  176.7910  142.8900 C   0  0  0  0  0  2  0  0  0  0  0  0
  191.3320  175.0200  143.0390 C   0  0  1  0  0  3  0  0  0  0  0  0
  188.9420  175.2900  145.9120 C   0  0  0  0  0  2  0  0  0  0  0  0
  195.4150  176.2740  142.9530 C   0  0  2  0  0  3  0  0  0  0  0  0
  197.8980  174.7240  141.9770 C   0  0  0  0  0  2  0  0  0  0  0  0
  188.5420  175.6630  143.4370 C   0  0  1  0  0  3  0  0  0  0  0  0
  193.3980  175.6870  144.3070 C   0  0  0  0  0  0  0  0  0  0  0  0
  195.4660  173.8440  142.2690 C   0  0  2  0  0  3  0  0  0  0  0  0
  192.8580  174.9030  143.1300 C   0  0  2  0  0  3  0  0  0  0  0  0
  194.4770  176.9820  146.5140 C   0  0  0  0  0  3  0  0  0  0  0  0
  189.4050  173.8990  141.9850 O   0  0  0  0  0  0  0  0  0  0  0  0
  195.1920  176.8690  145.3630 N   0  0  0  0  0  0  0  0  0  0  0  0
  190.7710  174.2200  141.8460 C   0  0  0  0  0  2  0  0  0  0  0  0
  189.1910  174.7540  144.5060 C   0  0  1  0  0  3  0  0  0  0  0  0
  193.1810  176.4650  146.5890 C   0  0  0  0  0  3  0  0  0  0  0  0
  191.2780  175.3400  145.4890 N   0  0  0  0  0  0  0  0  0  0  0  0
  189.0790  176.9550  143.4860 O   0  0  0  0  0  0  0  0  0  0  0  0
  188.2920  177.7150  142.6160 C   0  0  0  0  0  2  0  0  0  0  0  0
  185.9050  178.7680  145.1880 C   0  0  0  0  0  3  0  0  0  0  0  0
  185.9620  178.6690  142.6860 C   0  0  0  0  0  3  0  0  0  0  0  0
  187.1060  178.2380  143.3490 C   0  0  0  0  0  0  0  0  0  0  0  0
  184.8930  179.1290  143.8990 S   0  0  0  0  0  0  0  0  0  0  0  0
  187.0730  178.2900  144.7090 N   0  0  0  0  0  0  0  0  0  0  0  0
  1 27  1  0  0  0  0
  1 26  1  0  0  0  0
  3 16  1  1  0  0  0
  3 19  1  0  0  0  0
  3  7  1  0  0  0  0
  4 18  1  0  0  0  0
  4 23  2  0  0  0  0
  5 11  1  1  0  0  0
  5 19  1  0  0  0  0
  5 15  1  0  0  0  0
  7  6  1  0  0  0  0
  9 25  1  0  0  0  0
  9 27  1  1  0  0  0
 10 17  1  0  0  0  0
 12  8  1  0  0  0  0
 13 24  1  6  0  0  0
 13 20  1  0  0  0  0
 13  9  1  0  0  0  0
 14  2  1  0  0  0  0
 15 12  1  1  0  0  0
 15  4  1  0  0  0  0
 16  8  1  0  0  0  0
 17 28  1  6  0  0  0
 17 25  1  0  0  0  0
 18  1  2  0  0  0  0
 19  6  1  1  0  0  0
 20 11  1  6  0  0  0
 20 18  1  0  0  0  0
 21 26  2  0  0  0  0
 22 10  1  0  0  0  0
 23 21  1  0  0  0  0
 24 22  1  0  0  0  0
 25 14  1  1  0  0  0
 27  2  1  0  0  0  0
 29 32  1  0  0  0  0
 29 28  1  0  0  0  0
 31 32  2  0  0  0  0
 31 33  1  0  0  0  0
 32 34  1  0  0  0  0
 33 30  1  0  0  0  0
 34 30  2  0  0  0  0
M  END
>  <MODEL>
4

>  <REMARK>
 VINA RESULT:      -7.7      3.657      8.223
  Name = 
  3 active torsions:
  status: ('A' for Active; 'I' for Inactive)
    1  A    between atoms: C_17  and  O_28
    2  A    between atoms: O_28  and  C_29
    3  A    between atoms: C_29  and  C_32
                            x       y       z     vdW  Elec       q    Type
                         _______ _______ _______ _____ _____    ______ ____

>  <TORSDO>
F 3

$$$$
=
 OpenBabel11112417503D

 34 41  0  0  1  0  0  0  0  0999 V2000
  189.5800  174.6690  142.0800 C   0  0  0  0  0  0  0  0  0  0  0  0
  188.6150  176.9210  142.7540 C   0  0  0  0  0  2  0  0  0  0  0  0
  193.9900  170.7470  141.7350 C   0  0  2  0  0  3  0  0  0  0  0  0
  190.2010  172.3380  141.8590 C   0  0  0  0  0  0  0  0  0  0  0  0
  192.0540  171.3720  143.2840 N   0  0  1  0  0  0  0  0  0  0  0  0
  193.0460  172.6260  141.4600 O   0  0  0  0  0  0  0  0  0  0  0  0
  193.7680  171.7520  140.6270 C   0  0  0  0  0  2  0  0  0  0  0  0
  191.9110  169.5910  140.7490 C   0  0  0  0  0  2  0  0  0  0  0  0
  190.6020  176.1180  143.8860 C   0  0  2  0  0  3  0  0  0  0  0  0
  190.5270  176.2680  147.0510 C   0  0  0  0  0  2  0  0  0  0  0  0
  191.7130  172.3910  144.2880 C   0  0  0  0  0  2  0  0  0  0  0  0
  190.7840  169.7850  141.7400 C   0  0  0  0  0  2  0  0  0  0  0  0
  190.8860  174.8010  144.6410 C   0  0  1  0  0  3  0  0  0  0  0  0
  188.9340  177.9060  143.8690 C   0  0  0  0  0  2  0  0  0  0  0  0
  190.8520  171.1250  142.4650 C   0  0  2  0  0  3  0  0  0  0  0  0
  193.2370  169.4310  141.4840 C   0  0  0  0  0  2  0  0  0  0  0  0
  189.4480  176.8350  146.1090 C   0  0  1  0  0  3  0  0  0  0  0  0
  190.3370  173.5700  142.5180 C   0  0  0  0  0  0  0  0  0  0  0  0
  193.2830  171.7960  142.5700 C   0  0  2  0  0  3  0  0  0  0  0  0
  191.3460  173.7400  143.6340 C   0  0  2  0  0  3  0  0  0  0  0  0
  188.6200  173.2780  140.3570 C   0  0  0  0  0  3  0  0  0  0  0  0
  191.7910  176.2280  146.4370 O   0  0  0  0  0  0  0  0  0  0  0  0
  189.3430  172.2190  140.8100 N   0  0  0  0  0  0  0  0  0  0  0  0
  191.9090  174.9860  145.7790 C   0  0  0  0  0  2  0  0  0  0  0  0
  190.0120  177.2580  144.7330 C   0  0  1  0  0  3  0  0  0  0  0  0
  188.7170  174.5190  140.9890 C   0  0  0  0  0  3  0  0  0  0  0  0
  189.6500  175.9060  142.8070 N   0  0  0  0  0  0  0  0  0  0  0  0
  188.4200  175.8960  145.9610 O   0  0  0  0  0  0  0  0  0  0  0  0
  187.6490  176.0080  147.1210 C   0  0  0  0  0  2  0  0  0  0  0  0
  185.3590  178.8580  147.3610 C   0  0  0  0  0  3  0  0  0  0  0  0
  185.6230  176.8520  145.8860 C   0  0  0  0  0  3  0  0  0  0  0  0
  186.5620  177.0020  146.9000 C   0  0  0  0  0  0  0  0  0  0  0  0
  184.5890  178.1680  146.0400 S   0  0  0  0  0  0  0  0  0  0  0  0
  186.4160  178.0910  147.7030 N   0  0  0  0  0  0  0  0  0  0  0  0
  1 18  1  0  0  0  0
  1 27  1  0  0  0  0
  2 27  1  0  0  0  0
  2 14  1  0  0  0  0
  3  7  1  6  0  0  0
  3 19  1  0  0  0  0
  4 15  1  0  0  0  0
  4 18  2  0  0  0  0
  5 11  1  1  0  0  0
  7  6  1  0  0  0  0
  8 16  1  0  0  0  0
  8 12  1  0  0  0  0
  9 27  1  6  0  0  0
  9 13  1  0  0  0  0
  9 25  1  0  0  0  0
 13 24  1  1  0  0  0
 15 12  1  6  0  0  0
 15  5  1  0  0  0  0
 16  3  1  0  0  0  0
 17 28  1  6  0  0  0
 17 10  1  0  0  0  0
 18 20  1  0  0  0  0
 19  6  1  6  0  0  0
 19  5  1  0  0  0  0
 20 11  1  1  0  0  0
 20 13  1  0  0  0  0
 21 23  2  0  0  0  0
 21 26  1  0  0  0  0
 22 10  1  0  0  0  0
 23  4  1  0  0  0  0
 24 22  1  0  0  0  0
 25 14  1  6  0  0  0
 25 17  1  0  0  0  0
 26  1  2  0  0  0  0
 28 29  1  0  0  0  0
 30 34  2  0  0  0  0
 31 33  1  0  0  0  0
 31 32  2  0  0  0  0
 32 29  1  0  0  0  0
 32 34  1  0  0  0  0
 33 30  1  0  0  0  0
M  END
>  <MODEL>
5

>  <REMARK>
 VINA RESULT:      -7.3      3.049      8.116
  Name = 
  3 active torsions:
  status: ('A' for Active; 'I' for Inactive)
    1  A    between atoms: C_17  and  O_28
    2  A    between atoms: O_28  and  C_29
    3  A    between atoms: C_29  and  C_32
                            x       y       z     vdW  Elec       q    Type
                         _______ _______ _______ _____ _____    ______ ____

>  <TORSDO>
F 3

$$$$
=
 OpenBabel11112417503D

 34 41  0  0  1  0  0  0  0  0999 V2000
  191.2710  173.1130  143.1520 C   0  0  0  0  0  0  0  0  0  0  0  0
  188.8350  173.2050  142.4320 C   0  0  0  0  0  2  0  0  0  0  0  0
  196.8110  175.1760  143.1780 C   0  0  2  0  0  3  0  0  0  0  0  0
  193.3920  173.1990  144.3190 C   0  0  0  0  0  0  0  0  0  0  0  0
  194.6470  175.3850  144.5240 N   0  0  1  0  0  0  0  0  0  0  0  0
  195.0090  174.4830  142.3010 O   0  0  0  0  0  0  0  0  0  0  0  0
  196.3710  174.1710  142.1370 C   0  0  0  0  0  2  0  0  0  0  0  0
  196.7830  173.1500  144.7670 C   0  0  0  0  0  2  0  0  0  0  0  0
  190.1610  175.2300  142.3200 C   0  0  2  0  0  3  0  0  0  0  0  0
  188.8340  177.8050  143.6070 C   0  0  0  0  0  2  0  0  0  0  0  0
  193.3420  176.0580  144.4400 C   0  0  0  0  0  2  0  0  0  0  0  0
  195.6120  173.3380  145.7060 C   0  0  0  0  0  2  0  0  0  0  0  0
  190.9930  175.9670  143.3930 C   0  0  1  0  0  3  0  0  0  0  0  0
  187.9020  174.3400  142.0370 C   0  0  0  0  0  2  0  0  0  0  0  0
  194.4210  174.0220  145.0430 C   0  0  2  0  0  3  0  0  0  0  0  0
  197.4050  174.4980  144.4220 C   0  0  0  0  0  2  0  0  0  0  0  0
  188.1420  176.4400  143.4360 C   0  0  1  0  0  3  0  0  0  0  0  0
  192.3430  173.8630  143.6640 C   0  0  0  0  0  0  0  0  0  0  0  0
  195.3320  175.5030  143.2130 C   0  0  2  0  0  3  0  0  0  0  0  0
  192.4000  175.3590  143.4360 C   0  0  2  0  0  3  0  0  0  0  0  0
  192.3440  171.1000  143.9430 C   0  0  0  0  0  3  0  0  0  0  0  0
  189.8350  178.0090  142.6400 O   0  0  0  0  0  0  0  0  0  0  0  0
  193.3620  171.8450  144.4520 N   0  0  0  0  0  0  0  0  0  0  0  0
  191.0400  177.4900  143.1560 C   0  0  0  0  0  2  0  0  0  0  0  0
  188.6820  175.6370  142.2300 C   0  0  1  0  0  3  0  0  0  0  0  0
  191.2760  171.7210  143.2920 C   0  0  0  0  0  3  0  0  0  0  0  0
  190.1540  173.7960  142.5600 N   0  0  0  0  0  0  0  0  0  0  0  0
  188.2650  175.7050  144.6210 O   0  0  0  0  0  0  0  0  0  0  0  0
  188.2250  176.6520  145.6480 C   0  0  0  0  0  2  0  0  0  0  0  0
  191.0280  177.0450  147.9740 C   0  0  0  0  0  3  0  0  0  0  0  0
  189.8430  175.1450  146.8540 C   0  0  0  0  0  3  0  0  0  0  0  0
  189.3620  176.4210  146.5810 C   0  0  0  0  0  0  0  0  0  0  0  0
  191.1300  175.3720  147.9100 S   0  0  0  0  0  0  0  0  0  0  0  0
  190.0090  177.4530  147.1880 N   0  0  0  0  0  0  0  0  0  0  0  0
  1 26  2  0  0  0  0
  1 18  1  0  0  0  0
  2 27  1  0  0  0  0
  3  7  1  6  0  0  0
  3 19  1  0  0  0  0
  3 16  1  0  0  0  0
  4 23  1  0  0  0  0
  4 15  1  0  0  0  0
  5 11  1  6  0  0  0
  5 15  1  0  0  0  0
  7  6  1  0  0  0  0
  8 12  1  0  0  0  0
  9 27  1  1  0  0  0
  9 13  1  0  0  0  0
 13 24  1  6  0  0  0
 13 20  1  0  0  0  0
 14  2  1  0  0  0  0
 15 12  1  6  0  0  0
 16  8  1  0  0  0  0
 17 10  1  0  0  0  0
 17 28  1  1  0  0  0
 18  4  2  0  0  0  0
 19  6  1  6  0  0  0
 19  5  1  0  0  0  0
 20 18  1  0  0  0  0
 20 11  1  1  0  0  0
 21 23  2  0  0  0  0
 22 24  1  0  0  0  0
 22 10  1  0  0  0  0
 25 14  1  1  0  0  0
 25  9  1  0  0  0  0
 25 17  1  0  0  0  0
 26 21  1  0  0  0  0
 27  1  1  0  0  0  0
 28 29  1  0  0  0  0
 29 32  1  0  0  0  0
 31 33  1  0  0  0  0
 32 31  2  0  0  0  0
 32 34  1  0  0  0  0
 33 30  1  0  0  0  0
 34 30  2  0  0  0  0
M  END
>  <MODEL>
6

>  <REMARK>
 VINA RESULT:      -7.2      2.781      7.549
  Name = 
  3 active torsions:
  status: ('A' for Active; 'I' for Inactive)
    1  A    between atoms: C_17  and  O_28
    2  A    between atoms: O_28  and  C_29
    3  A    between atoms: C_29  and  C_32
                            x       y       z     vdW  Elec       q    Type
                         _______ _______ _______ _____ _____    ______ ____

>  <TORSDO>
F 3

$$$$
=
 OpenBabel11112417503D

 34 41  0  0  1  0  0  0  0  0999 V2000
  190.5730  176.2160  144.1630 C   0  0  0  0  0  0  0  0  0  0  0  0
  192.9230  175.3150  143.8060 C   0  0  0  0  0  2  0  0  0  0  0  0
  185.3190  178.0790  142.2000 C   0  0  2  0  0  3  0  0  0  0  0  0
  188.2310  176.5630  144.6740 C   0  0  0  0  0  0  0  0  0  0  0  0
  186.4530  175.9290  142.9900 N   0  0  1  0  0  0  0  0  0  0  0  0
  187.4350  178.0460  142.3270 O   0  0  0  0  0  0  0  0  0  0  0  0
  186.4580  179.0560  142.3880 C   0  0  0  0  0  2  0  0  0  0  0  0
  185.1930  178.1330  144.7720 C   0  0  0  0  0  2  0  0  0  0  0  0
  191.2780  175.0100  142.0530 C   0  0  2  0  0  3  0  0  0  0  0  0
  191.0550  172.0730  140.8840 C   0  0  0  0  0  2  0  0  0  0  0  0
  187.3920  174.9140  142.4890 C   0  0  0  0  0  2  0  0  0  0  0  0
  185.6880  176.7920  145.2680 C   0  0  0  0  0  2  0  0  0  0  0  0
  189.8720  174.3700  142.0710 C   0  0  1  0  0  3  0  0  0  0  0  0
  193.5610  174.4530  142.7270 C   0  0  0  0  0  2  0  0  0  0  0  0
  186.7960  176.2070  144.3980 C   0  0  2  0  0  3  0  0  0  0  0  0
  184.4410  177.9630  143.4570 C   0  0  0  0  0  2  0  0  0  0  0  0
  192.1080  172.5450  141.9030 C   0  0  1  0  0  3  0  0  0  0  0  0
  189.2220  176.0600  143.8150 C   0  0  0  0  0  0  0  0  0  0  0  0
  186.4490  177.0810  142.0560 C   0  0  2  0  0  3  0  0  0  0  0  0
  188.8470  175.4310  142.4900 C   0  0  2  0  0  3  0  0  0  0  0  0
  189.8890  177.3720  146.1690 C   0  0  0  0  0  3  0  0  0  0  0  0
  190.6020  173.1270  140.0710 O   0  0  0  0  0  0  0  0  0  0  0  0
  188.5850  177.1920  145.8270 N   0  0  0  0  0  0  0  0  0  0  0  0
  189.5030  173.7260  140.7200 C   0  0  0  0  0  2  0  0  0  0  0  0
  192.4430  174.0490  141.7700 C   0  0  1  0  0  3  0  0  0  0  0  0
  190.9060  176.8790  145.3490 C   0  0  0  0  0  3  0  0  0  0  0  0
  191.5860  175.6260  143.3340 N   0  0  0  0  0  0  0  0  0  0  0  0
  191.6700  172.2440  143.1980 O   0  0  0  0  0  0  0  0  0  0  0  0
  192.0970  170.9350  143.4360 C   0  0  0  0  0  2  0  0  0  0  0  0
  194.9680  171.7210  145.5710 C   0  0  0  0  0  3  0  0  0  0  0  0
  194.4660  170.1240  143.7090 C   0  0  0  0  0  3  0  0  0  0  0  0
  193.4270  170.9610  144.1040 C   0  0  0  0  0  0  0  0  0  0  0  0
  195.7610  170.5250  144.7020 S   0  0  0  0  0  0  0  0  0  0  0  0
  193.7020  171.8310  145.1140 N   0  0  0  0  0  0  0  0  0  0  0  0
  1 26  1  0  0  0  0
  3  7  1  1  0  0  0
  3 16  1  0  0  0  0
  4 23  2  0  0  0  0
  5 11  1  6  0  0  0
  5 15  1  0  0  0  0
  6  7  1  0  0  0  0
  8 12  1  0  0  0  0
  9 13  1  0  0  0  0
  9 27  1  1  0  0  0
 10 17  1  0  0  0  0
 13 24  1  6  0  0  0
 13 20  1  0  0  0  0
 14  2  1  0  0  0  0
 15  4  1  0  0  0  0
 15 12  1  6  0  0  0
 16  8  1  0  0  0  0
 17 28  1  1  0  0  0
 18  1  2  0  0  0  0
 18  4  1  0  0  0  0
 19  3  1  0  0  0  0
 19  6  1  1  0  0  0
 19  5  1  0  0  0  0
 20 11  1  1  0  0  0
 20 18  1  0  0  0  0
 22 24  1  0  0  0  0
 22 10  1  0  0  0  0
 23 21  1  0  0  0  0
 25 17  1  0  0  0  0
 25  9  1  0  0  0  0
 25 14  1  1  0  0  0
 26 21  2  0  0  0  0
 27  2  1  0  0  0  0
 27  1  1  0  0  0  0
 28 29  1  0  0  0  0
 29 32  1  0  0  0  0
 31 32  2  0  0  0  0
 31 33  1  0  0  0  0
 32 34  1  0  0  0  0
 33 30  1  0  0  0  0
 34 30  2  0  0  0  0
M  END
>  <MODEL>
7

>  <REMARK>
 VINA RESULT:      -7.2      1.286      1.546
  Name = 
  3 active torsions:
  status: ('A' for Active; 'I' for Inactive)
    1  A    between atoms: C_17  and  O_28
    2  A    between atoms: O_28  and  C_29
    3  A    between atoms: C_29  and  C_32
                            x       y       z     vdW  Elec       q    Type
                         _______ _______ _______ _____ _____    ______ ____

>  <TORSDO>
F 3

$$$$
=
 OpenBabel11112417503D

 34 41  0  0  1  0  0  0  0  0999 V2000
  190.9920  173.2420  142.8660 C   0  0  0  0  0  0  0  0  0  0  0  0
  188.9260  174.4140  141.9630 C   0  0  0  0  0  2  0  0  0  0  0  0
  196.7270  173.0820  144.2910 C   0  0  2  0  0  3  0  0  0  0  0  0
  192.7140  172.1950  144.2110 C   0  0  0  0  0  0  0  0  0  0  0  0
  194.4660  173.6090  145.3630 N   0  0  1  0  0  0  0  0  0  0  0  0
  195.0580  173.3890  143.0200 O   0  0  0  0  0  0  0  0  0  0  0  0
  196.2690  172.6840  142.9060 C   0  0  0  0  0  2  0  0  0  0  0  0
  195.7420  170.8070  144.9870 C   0  0  0  0  0  2  0  0  0  0  0  0
  190.7710  175.7610  142.7710 C   0  0  2  0  0  3  0  0  0  0  0  0
  189.9890  178.0910  144.7720 C   0  0  0  0  0  2  0  0  0  0  0  0
  193.4710  174.6900  145.3910 C   0  0  0  0  0  2  0  0  0  0  0  0
  194.4920  171.0920  145.7890 C   0  0  0  0  0  2  0  0  0  0  0  0
  191.5080  175.7750  144.1280 C   0  0  1  0  0  3  0  0  0  0  0  0
  188.4820  175.8690  141.9200 C   0  0  0  0  0  2  0  0  0  0  0  0
  193.7390  172.3260  145.3030 C   0  0  2  0  0  3  0  0  0  0  0  0
  196.7920  171.8810  145.2470 C   0  0  0  0  0  2  0  0  0  0  0  0
  188.9890  177.1890  144.0240 C   0  0  1  0  0  3  0  0  0  0  0  0
  192.0860  173.3590  143.7390 C   0  0  0  0  0  0  0  0  0  0  0  0
  195.4410  173.8840  144.2790 C   0  0  2  0  0  3  0  0  0  0  0  0
  192.6270  174.7270  144.0980 C   0  0  2  0  0  3  0  0  0  0  0  0
  191.2190  170.8400  142.9570 C   0  0  0  0  0  3  0  0  0  0  0  0
  191.2020  178.2210  144.0740 O   0  0  0  0  0  0  0  0  0  0  0  0
  192.2610  170.9720  143.8210 N   0  0  0  0  0  0  0  0  0  0  0  0
  192.0500  177.1730  144.4880 C   0  0  0  0  0  2  0  0  0  0  0  0
  189.5370  176.6720  142.6740 C   0  0  1  0  0  3  0  0  0  0  0  0
  190.5600  171.9710  142.4720 C   0  0  0  0  0  3  0  0  0  0  0  0
  190.2920  174.4250  142.4520 N   0  0  0  0  0  0  0  0  0  0  0  0
  188.6140  176.1240  144.8520 O   0  0  0  0  0  0  0  0  0  0  0  0
  188.5640  176.6600  146.1420 C   0  0  0  0  0  2  0  0  0  0  0  0
  185.6520  178.4380  147.4770 C   0  0  0  0  0  3  0  0  0  0  0  0
  186.0780  176.6920  145.7330 C   0  0  0  0  0  3  0  0  0  0  0  0
  187.1930  177.1750  146.4110 C   0  0  0  0  0  0  0  0  0  0  0  0
  184.7690  177.5220  146.3830 S   0  0  0  0  0  0  0  0  0  0  0  0
  186.9590  178.1220  147.3610 N   0  0  0  0  0  0  0  0  0  0  0  0
  1 18  1  0  0  0  0
  2 27  1  0  0  0  0
  3  7  1  6  0  0  0
  3 16  1  0  0  0  0
  4 15  1  0  0  0  0
  5 11  1  6  0  0  0
  7  6  1  0  0  0  0
  8 16  1  0  0  0  0
  8 12  1  0  0  0  0
  9 27  1  1  0  0  0
  9 13  1  0  0  0  0
 13 24  1  6  0  0  0
 14  2  1  0  0  0  0
 15  5  1  0  0  0  0
 15 12  1  6  0  0  0
 17 10  1  0  0  0  0
 17 28  1  1  0  0  0
 18 20  1  0  0  0  0
 18  4  2  0  0  0  0
 19  6  1  6  0  0  0
 19  3  1  0  0  0  0
 19  5  1  0  0  0  0
 20 13  1  0  0  0  0
 20 11  1  1  0  0  0
 21 23  2  0  0  0  0
 22 24  1  0  0  0  0
 22 10  1  0  0  0  0
 23  4  1  0  0  0  0
 25 14  1  1  0  0  0
 25  9  1  0  0  0  0
 25 17  1  0  0  0  0
 26  1  2  0  0  0  0
 26 21  1  0  0  0  0
 27  1  1  0  0  0  0
 28 29  1  0  0  0  0
 29 32  1  0  0  0  0
 31 33  1  0  0  0  0
 31 32  2  0  0  0  0
 32 34  1  0  0  0  0
 33 30  1  0  0  0  0
 34 30  2  0  0  0  0
M  END
>  <MODEL>
8

>  <REMARK>
 VINA RESULT:      -7.1      2.978      8.324
  Name = 
  3 active torsions:
  status: ('A' for Active; 'I' for Inactive)
    1  A    between atoms: C_17  and  O_28
    2  A    between atoms: O_28  and  C_29
    3  A    between atoms: C_29  and  C_32
                            x       y       z     vdW  Elec       q    Type
                         _______ _______ _______ _____ _____    ______ ____

>  <TORSDO>
F 3

$$$$
=
 OpenBabel11112417503D

 34 41  0  0  1  0  0  0  0  0999 V2000
  190.2380  175.9160  145.6790 C   0  0  0  0  0  0  0  0  0  0  0  0
  187.7430  176.4010  145.6700 C   0  0  0  0  0  2  0  0  0  0  0  0
  194.9630  172.7210  144.1260 C   0  0  2  0  0  3  0  0  0  0  0  0
  192.6380  175.8840  145.3470 C   0  0  0  0  0  0  0  0  0  0  0  0
  193.6280  174.7460  143.3170 N   0  0  1  0  0  0  0  0  0  0  0  0
  193.0370  173.0520  144.9500 O   0  0  0  0  0  0  0  0  0  0  0  0
  194.2030  172.4010  145.3930 C   0  0  0  0  0  2  0  0  0  0  0  0
  195.8530  174.7250  145.4760 C   0  0  0  0  0  2  0  0  0  0  0  0
  188.6700  175.0240  143.9040 C   0  0  2  0  0  3  0  0  0  0  0  0
  187.8170  175.8240  140.9580 C   0  0  0  0  0  2  0  0  0  0  0  0
  192.3660  175.0450  142.6240 C   0  0  0  0  0  2  0  0  0  0  0  0
  195.2180  175.9690  144.8950 C   0  0  0  0  0  2  0  0  0  0  0  0
  189.8190  175.2820  142.9040 C   0  0  1  0  0  3  0  0  0  0  0  0
  186.6250  176.1190  144.6770 C   0  0  0  0  0  2  0  0  0  0  0  0
  193.7950  175.7350  144.3990 C   0  0  2  0  0  3  0  0  0  0  0  0
  196.1170  173.7040  144.3750 C   0  0  0  0  0  2  0  0  0  0  0  0
  187.2610  176.4570  142.2460 C   0  0  1  0  0  3  0  0  0  0  0  0
  191.3460  175.5980  144.8760 C   0  0  0  0  0  0  0  0  0  0  0  0
  193.6330  173.3130  143.7040 C   0  0  2  0  0  3  0  0  0  0  0  0
  191.1470  174.8810  143.5570 C   0  0  2  0  0  3  0  0  0  0  0  0
  191.7450  176.7550  147.3680 C   0  0  0  0  0  3  0  0  0  0  0  0
  188.2510  174.5030  141.1680 O   0  0  0  0  0  0  0  0  0  0  0  0
  192.8040  176.4620  146.5670 N   0  0  0  0  0  0  0  0  0  0  0  0
  189.6040  174.5530  141.5620 C   0  0  0  0  0  2  0  0  0  0  0  0
  187.2760  175.4870  143.4500 C   0  0  1  0  0  3  0  0  0  0  0  0
  190.4430  176.4970  146.9350 C   0  0  0  0  0  3  0  0  0  0  0  0
  188.9130  175.7070  145.1640 N   0  0  0  0  0  0  0  0  0  0  0  0
  187.9760  177.6250  142.5360 O   0  0  0  0  0  0  0  0  0  0  0  0
  187.2130  178.6670  142.0020 C   0  0  0  0  0  2  0  0  0  0  0  0
  183.7380  178.6310  143.1620 C   0  0  0  0  0  3  0  0  0  0  0  0
  185.9410  179.4430  144.0330 C   0  0  0  0  0  3  0  0  0  0  0  0
  185.9590  178.8180  142.7900 C   0  0  0  0  0  0  0  0  0  0  0  0
  184.3330  179.4160  144.5200 S   0  0  0  0  0  0  0  0  0  0  0  0
  184.7610  178.3800  142.3170 N   0  0  0  0  0  0  0  0  0  0  0  0
  1 26  1  0  0  0  0
  3 16  1  1  0  0  0
  3  7  1  0  0  0  0
  4 23  2  0  0  0  0
  5 11  1  1  0  0  0
  5 19  1  0  0  0  0
  5 15  1  0  0  0  0
  6  7  1  0  0  0  0
  9 27  1  1  0  0  0
 10 22  1  0  0  0  0
 10 17  1  0  0  0  0
 12  8  1  0  0  0  0
 13 24  1  6  0  0  0
 13 20  1  0  0  0  0
 13  9  1  0  0  0  0
 14  2  1  0  0  0  0
 15 12  1  1  0  0  0
 15  4  1  0  0  0  0
 16  8  1  0  0  0  0
 17 28  1  1  0  0  0
 17 25  1  0  0  0  0
 18  4  1  0  0  0  0
 18  1  2  0  0  0  0
 19  3  1  0  0  0  0
 19  6  1  1  0  0  0
 20 11  1  6  0  0  0
 20 18  1  0  0  0  0
 22 24  1  0  0  0  0
 23 21  1  0  0  0  0
 25  9  1  0  0  0  0
 25 14  1  1  0  0  0
 26 21  2  0  0  0  0
 27  2  1  0  0  0  0
 27  1  1  0  0  0  0
 29 28  1  0  0  0  0
 29 32  1  0  0  0  0
 30 33  1  0  0  0  0
 31 33  1  0  0  0  0
 32 31  2  0  0  0  0
 34 32  1  0  0  0  0
 34 30  2  0  0  0  0
M  END
>  <MODEL>
9

>  <REMARK>
 VINA RESULT:      -7.0      3.010      7.707
  Name = 
  3 active torsions:
  status: ('A' for Active; 'I' for Inactive)
    1  A    between atoms: C_17  and  O_28
    2  A    between atoms: O_28  and  C_29
    3  A    between atoms: C_29  and  C_32
                            x       y       z     vdW  Elec       q    Type
                         _______ _______ _______ _____ _____    ______ ____

>  <TORSDO>
F 3

$$$$
