=
 OpenBabel11112417413D

 28 33  0  0  1  0  0  0  0  0999 V2000
  185.5330  177.2220  143.5090 C   0  0  0  0  0  0  0  0  0  0  0  0
  187.2200  173.6700  142.0060 O   0  0  0  0  0  0  0  0  0  0  0  0
  189.0560  174.5740  147.4030 C   0  0  0  0  0  1  0  0  0  0  0  0
  185.9120  178.0630  140.8660 C   0  0  0  0  0  3  0  0  0  0  0  0
  190.4040  176.1500  146.0450 C   0  0  1  0  0  3  0  0  0  0  0  0
  185.3710  176.8310  144.9490 C   0  0  1  0  0  3  0  0  0  0  0  0
  188.6570  174.5390  140.2120 O   0  0  0  0  0  0  0  0  0  0  0  0
  188.5860  174.2020  141.6740 S   0  0  0  0  0  0  0  0  0  0  0  0
  190.0030  172.9980  143.5600 C   0  0  0  0  0  0  0  0  0  0  0  0
  188.9710  175.6500  142.6530 C   0  0  2  0  0  3  0  0  0  0  0  0
  186.5110  179.0490  145.1680 O   0  0  0  0  0  1  0  0  0  0  0  0
  188.4760  176.8090  144.7380 C   0  0  2  0  0  3  0  0  0  0  0  0
  190.1060  174.1020  144.2190 N   0  0  0  0  0  0  0  0  0  0  0  0
  189.8190  172.9910  142.0750 C   0  0  0  0  0  2  0  0  0  0  0  0
  186.0990  177.8730  145.8060 C   0  0  2  0  0  0  0  0  0  0  0  0
  186.7500  176.9220  142.8490 C   0  0  0  0  0  0  0  0  0  0  0  0
  189.1310  175.9840  146.8540 C   0  0  1  0  0  3  0  0  0  0  0  0
  189.9450  171.7080  144.3000 C   0  0  0  0  0  1  0  0  0  0  0  0
  187.1160  177.1960  146.7210 C   0  0  0  0  0  2  0  0  0  0  0  0
  186.9240  177.3590  141.5240 C   0  0  0  0  0  3  0  0  0  0  0  0
  184.5200  177.9190  142.8390 C   0  0  0  0  0  3  0  0  0  0  0  0
  184.7090  178.3370  141.5200 C   0  0  0  0  0  3  0  0  0  0  0  0
  184.5990  177.7360  145.9060 C   0  0  0  0  0  2  0  0  0  0  0  0
  189.9640  176.5280  144.6480 C   0  0  2  0  0  3  0  0  0  0  0  0
  187.9750  176.2410  145.9990 N   0  0  1  0  0  0  0  0  0  0  0  0
  190.1490  175.4240  143.6010 C   0  0  2  0  0  3  0  0  0  0  0  0
  191.2330  177.2730  146.6350 C   0  0  0  0  0  1  0  0  0  0  0  0
  187.8220  176.0960  143.5470 C   0  0  1  0  0  3  0  0  0  0  0  0
  1  6  1  0  0  0  0
  4 22  2  0  0  0  0
  4 20  1  0  0  0  0
  5 27  1  1  0  0  0
  5 17  1  0  0  0  0
  6 15  1  0  0  0  0
  6 23  1  1  0  0  0
  7  8  2  0  0  0  0
  8  2  2  0  0  0  0
  8 14  1  0  0  0  0
  9 13  2  0  0  0  0
  9 18  1  0  0  0  0
 10  8  1  1  0  0  0
 10 28  1  0  0  0  0
 10 26  1  0  0  0  0
 11 15  1  0  0  0  0
 12 25  1  0  0  0  0
 14  9  1  0  0  0  0
 15 23  1  0  0  0  0
 15 19  1  0  0  0  0
 16  1  1  0  0  0  0
 16 28  1  0  0  0  0
 17  3  1  0  0  0  0
 20 16  2  0  0  0  0
 21  1  2  0  0  0  0
 22 21  1  0  0  0  0
 24 12  1  0  0  0  0
 24  5  1  0  0  0  0
 25 19  1  0  0  0  0
 25 17  1  0  0  0  0
 26 13  1  0  0  0  0
 26 24  1  0  0  0  0
 28 12  1  0  0  0  0
M  END
>  <MODEL>
1

>  <REMARK>
 VINA RESULT:      -8.8      0.000      0.000
  Name = 
  0 active torsions:
  status: ('A' for Active; 'I' for Inactive)
                            x       y       z     vdW  Elec       q    Type
                         _______ _______ _______ _____ _____    ______ ____

>  <TORSDO>
F 0

$$$$
=
 OpenBabel11112417413D

 28 33  0  0  1  0  0  0  0  0999 V2000
  187.6500  177.4430  144.2680 C   0  0  0  0  0  0  0  0  0  0  0  0
  191.4220  177.1660  146.1180 O   0  0  0  0  0  0  0  0  0  0  0  0
  191.4920  174.3160  141.0990 C   0  0  0  0  0  1  0  0  0  0  0  0
  186.7680  177.2500  146.9180 C   0  0  0  0  0  3  0  0  0  0  0  0
  190.2870  172.7860  142.6340 C   0  0  1  0  0  3  0  0  0  0  0  0
  188.0800  177.4870  142.8320 C   0  0  1  0  0  3  0  0  0  0  0  0
  190.8850  175.8350  148.1130 O   0  0  0  0  0  0  0  0  0  0  0  0
  191.2920  175.7730  146.6690 S   0  0  0  0  0  0  0  0  0  0  0  0
  192.9920  174.5070  145.0820 C   0  0  0  0  0  0  0  0  0  0  0  0
  190.0950  174.8200  145.7390 C   0  0  2  0  0  3  0  0  0  0  0  0
  186.3160  175.7110  142.7630 O   0  0  0  0  0  1  0  0  0  0  0  0
  188.9980  174.6070  143.5750 C   0  0  2  0  0  3  0  0  0  0  0  0
  192.0180  173.9730  144.4260 N   0  0  0  0  0  0  0  0  0  0  0  0
  192.8380  174.9160  146.5130 C   0  0  0  0  0  2  0  0  0  0  0  0
  187.3630  176.3520  142.0900 C   0  0  2  0  0  0  0  0  0  0  0  0
  188.2450  176.4940  145.1350 C   0  0  0  0  0  0  0  0  0  0  0  0
  190.1300  173.9060  141.6210 C   0  0  1  0  0  3  0  0  0  0  0  0
  194.2590  174.8340  144.3710 C   0  0  0  0  0  1  0  0  0  0  0  0
  188.3730  175.4560  141.3790 C   0  0  0  0  0  2  0  0  0  0  0  0
  187.7840  176.4070  146.4600 C   0  0  0  0  0  3  0  0  0  0  0  0
  186.6390  178.2910  144.7390 C   0  0  0  0  0  3  0  0  0  0  0  0
  186.2010  178.1950  146.0610 C   0  0  0  0  0  3  0  0  0  0  0  0
  187.0600  177.7880  141.7350 C   0  0  0  0  0  2  0  0  0  0  0  0
  189.6950  173.3070  143.9260 C   0  0  2  0  0  3  0  0  0  0  0  0
  189.4840  175.0510  142.2590 N   0  0  1  0  0  0  0  0  0  0  0  0
  190.7270  173.6310  145.0130 C   0  0  2  0  0  3  0  0  0  0  0  0
  189.5030  171.5750  142.1710 C   0  0  0  0  0  1  0  0  0  0  0  0
  189.3990  175.6240  144.6510 C   0  0  1  0  0  3  0  0  0  0  0  0
  1 21  2  0  0  0  0
  1 16  1  0  0  0  0
  2  8  2  0  0  0  0
  3 17  1  0  0  0  0
  5 27  1  6  0  0  0
  5 24  1  0  0  0  0
  6 23  1  6  0  0  0
  6  1  1  0  0  0  0
  8  7  2  0  0  0  0
  9 14  1  0  0  0  0
 10  8  1  6  0  0  0
 12 24  1  0  0  0  0
 12 28  1  0  0  0  0
 13 26  1  0  0  0  0
 13  9  2  0  0  0  0
 14  8  1  0  0  0  0
 15 11  1  0  0  0  0
 15  6  1  0  0  0  0
 16 20  2  0  0  0  0
 17 25  1  0  0  0  0
 17  5  1  0  0  0  0
 18  9  1  0  0  0  0
 19 15  1  0  0  0  0
 19 25  1  0  0  0  0
 20  4  1  0  0  0  0
 21 22  1  0  0  0  0
 22  4  2  0  0  0  0
 23 15  1  0  0  0  0
 24 26  1  0  0  0  0
 25 12  1  0  0  0  0
 26 10  1  0  0  0  0
 28 16  1  0  0  0  0
 28 10  1  0  0  0  0
M  END
>  <MODEL>
2

>  <REMARK>
 VINA RESULT:      -8.4      2.534      4.829
  Name = 
  0 active torsions:
  status: ('A' for Active; 'I' for Inactive)
                            x       y       z     vdW  Elec       q    Type
                         _______ _______ _______ _____ _____    ______ ____

>  <TORSDO>
F 0

$$$$
=
 OpenBabel11112417413D

 28 33  0  0  1  0  0  0  0  0999 V2000
  188.2470  176.6970  143.7350 C   0  0  0  0  0  0  0  0  0  0  0  0
  192.1200  176.7880  145.3850 O   0  0  0  0  0  0  0  0  0  0  0  0
  192.1270  173.6270  140.5560 C   0  0  0  0  0  1  0  0  0  0  0  0
  187.5190  176.6200  146.4370 C   0  0  0  0  0  3  0  0  0  0  0  0
  191.1110  172.1260  142.2460 C   0  0  1  0  0  3  0  0  0  0  0  0
  188.5990  176.6750  142.2770 C   0  0  1  0  0  3  0  0  0  0  0  0
  191.7800  175.5580  147.4850 O   0  0  0  0  0  0  0  0  0  0  0  0
  192.1140  175.4290  146.0270 S   0  0  0  0  0  0  0  0  0  0  0  0
  193.8140  174.1760  144.4290 C   0  0  0  0  0  0  0  0  0  0  0  0
  190.9400  174.3410  145.2260 C   0  0  2  0  0  3  0  0  0  0  0  0
  186.9600  174.7860  142.4160 O   0  0  0  0  0  1  0  0  0  0  0  0
  189.7500  173.9150  143.1440 C   0  0  2  0  0  3  0  0  0  0  0  0
  192.8460  173.5370  143.8630 N   0  0  0  0  0  0  0  0  0  0  0  0
  193.7050  174.6670  145.8380 C   0  0  0  0  0  2  0  0  0  0  0  0
  187.9250  175.4500  141.6470 C   0  0  2  0  0  0  0  0  0  0  0  0
  188.9500  175.8470  144.6240 C   0  0  0  0  0  0  0  0  0  0  0  0
  190.8250  173.1640  141.1770 C   0  0  1  0  0  3  0  0  0  0  0  0
  195.0170  174.5380  143.6290 C   0  0  0  0  0  1  0  0  0  0  0  0
  188.9560  174.5770  140.9380 C   0  0  0  0  0  2  0  0  0  0  0  0
  188.5650  175.8170  145.9750 C   0  0  0  0  0  3  0  0  0  0  0  0
  187.2060  177.5060  144.2080 C   0  0  0  0  0  3  0  0  0  0  0  0
  186.8440  177.4680  145.5560 C   0  0  0  0  0  3  0  0  0  0  0  0
  187.5060  176.8370  141.2220 C   0  0  0  0  0  2  0  0  0  0  0  0
  190.5520  172.6900  143.5350 C   0  0  2  0  0  3  0  0  0  0  0  0
  190.1350  174.3030  141.7780 N   0  0  1  0  0  0  0  0  0  0  0  0
  191.6130  173.1510  144.5410 C   0  0  2  0  0  3  0  0  0  0  0  0
  190.3890  170.8380  141.9040 C   0  0  0  0  0  1  0  0  0  0  0  0
  190.1340  175.0250  144.1310 C   0  0  1  0  0  3  0  0  0  0  0  0
  1 21  2  0  0  0  0
  1 16  1  0  0  0  0
  2  8  2  0  0  0  0
  3 17  1  0  0  0  0
  5 27  1  6  0  0  0
  5 24  1  0  0  0  0
  6 23  1  6  0  0  0
  6  1  1  0  0  0  0
  8  7  2  0  0  0  0
  9 14  1  0  0  0  0
 10  8  1  6  0  0  0
 12 24  1  0  0  0  0
 12 28  1  0  0  0  0
 13  9  2  0  0  0  0
 13 26  1  0  0  0  0
 14  8  1  0  0  0  0
 15  6  1  0  0  0  0
 15 11  1  0  0  0  0
 16 20  2  0  0  0  0
 17 25  1  0  0  0  0
 17  5  1  0  0  0  0
 18  9  1  0  0  0  0
 19 15  1  0  0  0  0
 19 25  1  0  0  0  0
 20  4  1  0  0  0  0
 21 22  1  0  0  0  0
 22  4  2  0  0  0  0
 23 15  1  0  0  0  0
 24 26  1  0  0  0  0
 25 12  1  0  0  0  0
 26 10  1  0  0  0  0
 28 16  1  0  0  0  0
 28 10  1  0  0  0  0
M  END
>  <MODEL>
3

>  <REMARK>
 VINA RESULT:      -7.7      2.838      5.224
  Name = 
  0 active torsions:
  status: ('A' for Active; 'I' for Inactive)
                            x       y       z     vdW  Elec       q    Type
                         _______ _______ _______ _____ _____    ______ ____

>  <TORSDO>
F 0

$$$$
=
 OpenBabel11112417413D

 28 33  0  0  1  0  0  0  0  0999 V2000
  188.1350  176.1200  144.4450 C   0  0  0  0  0  0  0  0  0  0  0  0
  188.4660  172.2670  142.7790 O   0  0  0  0  0  0  0  0  0  0  0  0
  193.3980  173.6840  145.4220 C   0  0  0  0  0  1  0  0  0  0  0  0
  186.6550  176.5780  142.1130 C   0  0  0  0  0  3  0  0  0  0  0  0
  193.4830  174.9460  143.2890 C   0  0  1  0  0  3  0  0  0  0  0  0
  188.9730  175.9320  145.6750 C   0  0  1  0  0  3  0  0  0  0  0  0
  188.3410  172.7670  140.3760 O   0  0  0  0  0  0  0  0  0  0  0  0
  189.2610  172.6270  141.5550 S   0  0  0  0  0  0  0  0  0  0  0  0
  191.5920  171.5520  142.2060 C   0  0  0  0  0  0  0  0  0  0  0  0
  190.1720  174.1480  141.8010 C   0  0  2  0  0  3  0  0  0  0  0  0
  189.9340  178.0480  144.7450 O   0  0  0  0  0  1  0  0  0  0  0  0
  191.1610  175.6030  143.4860 C   0  0  2  0  0  3  0  0  0  0  0  0
  192.0860  172.7170  142.4540 N   0  0  0  0  0  0  0  0  0  0  0  0
  190.4710  171.3710  141.2310 C   0  0  0  0  0  2  0  0  0  0  0  0
  190.0680  177.0050  145.6690 C   0  0  2  0  0  0  0  0  0  0  0  0
  188.6150  175.6290  143.2050 C   0  0  0  0  0  0  0  0  0  0  0  0
  193.0670  175.0010  144.7480 C   0  0  1  0  0  3  0  0  0  0  0  0
  192.0610  170.3770  142.9920 C   0  0  0  0  0  1  0  0  0  0  0  0
  191.4480  176.3620  145.7830 C   0  0  0  0  0  2  0  0  0  0  0  0
  187.8620  175.8750  142.0450 C   0  0  0  0  0  3  0  0  0  0  0  0
  186.9200  176.8140  144.5050 C   0  0  0  0  0  3  0  0  0  0  0  0
  186.1820  177.0410  143.3420 C   0  0  0  0  0  3  0  0  0  0  0  0
  189.0120  177.0170  146.7480 C   0  0  0  0  0  2  0  0  0  0  0  0
  192.2210  175.1810  142.4870 C   0  0  2  0  0  3  0  0  0  0  0  0
  191.6300  175.2480  144.8350 N   0  0  1  0  0  0  0  0  0  0  0  0
  191.6860  173.9390  141.7640 C   0  0  2  0  0  3  0  0  0  0  0  0
  194.4750  176.0560  143.0070 C   0  0  0  0  0  1  0  0  0  0  0  0
  189.8950  174.8060  143.1460 C   0  0  1  0  0  3  0  0  0  0  0  0
  1 21  1  0  0  0  0
  1  6  1  0  0  0  0
  4 22  1  0  0  0  0
  5 27  1  1  0  0  0
  5 17  1  0  0  0  0
  6 23  1  1  0  0  0
  7  8  2  0  0  0  0
  8  2  2  0  0  0  0
  9 13  2  0  0  0  0
  9 18  1  0  0  0  0
 10  8  1  1  0  0  0
 10 28  1  0  0  0  0
 11 15  1  0  0  0  0
 12 25  1  0  0  0  0
 14  8  1  0  0  0  0
 14  9  1  0  0  0  0
 15  6  1  0  0  0  0
 15 19  1  0  0  0  0
 15 23  1  0  0  0  0
 16  1  2  0  0  0  0
 17 25  1  0  0  0  0
 17  3  1  0  0  0  0
 20  4  2  0  0  0  0
 20 16  1  0  0  0  0
 22 21  2  0  0  0  0
 24  5  1  0  0  0  0
 24 12  1  0  0  0  0
 25 19  1  0  0  0  0
 26 10  1  0  0  0  0
 26 13  1  0  0  0  0
 26 24  1  0  0  0  0
 28 16  1  0  0  0  0
 28 12  1  0  0  0  0
M  END
>  <MODEL>
4

>  <REMARK>
 VINA RESULT:      -7.6      2.185      3.301
  Name = 
  0 active torsions:
  status: ('A' for Active; 'I' for Inactive)
                            x       y       z     vdW  Elec       q    Type
                         _______ _______ _______ _____ _____    ______ ____

>  <TORSDO>
F 0

$$$$
=
 OpenBabel11112417413D

 28 33  0  0  1  0  0  0  0  0999 V2000
  185.9980  177.6890  145.4400 C   0  0  0  0  0  0  0  0  0  0  0  0
  186.3410  175.6490  141.7730 O   0  0  0  0  0  0  0  0  0  0  0  0
  189.9550  173.3430  145.6380 C   0  0  0  0  0  1  0  0  0  0  0  0
  185.6750  179.8900  143.7400 C   0  0  0  0  0  3  0  0  0  0  0  0
  191.0920  175.4300  144.9320 C   0  0  1  0  0  3  0  0  0  0  0  0
  186.2290  176.5460  146.3840 C   0  0  1  0  0  3  0  0  0  0  0  0
  187.2740  177.4030  140.3290 O   0  0  0  0  0  0  0  0  0  0  0  0
  187.6070  176.2930  141.2830 S   0  0  0  0  0  0  0  0  0  0  0  0
  189.2720  174.2490  141.5320 C   0  0  0  0  0  0  0  0  0  0  0  0
  188.5760  176.9310  142.6460 C   0  0  2  0  0  3  0  0  0  0  0  0
  187.8120  178.2600  147.2920 O   0  0  0  0  0  1  0  0  0  0  0  0
  189.0270  176.6900  145.0280 C   0  0  2  0  0  3  0  0  0  0  0  0
  189.8070  174.7830  142.5770 N   0  0  0  0  0  0  0  0  0  0  0  0
  188.6240  175.0860  140.4740 C   0  0  0  0  0  2  0  0  0  0  0  0
  187.3930  176.9240  147.3070 C   0  0  2  0  0  0  0  0  0  0  0  0
  186.8490  177.8350  144.3170 C   0  0  0  0  0  0  0  0  0  0  0  0
  190.1410  174.8160  145.9430 C   0  0  1  0  0  3  0  0  0  0  0  0
  189.1890  172.7660  141.4300 C   0  0  0  0  0  1  0  0  0  0  0  0
  188.4860  175.8610  147.2530 C   0  0  0  0  0  2  0  0  0  0  0  0
  186.6760  178.9500  143.4790 C   0  0  0  0  0  3  0  0  0  0  0  0
  184.9910  178.6300  145.6880 C   0  0  0  0  0  3  0  0  0  0  0  0
  184.8290  179.7270  144.8400 C   0  0  0  0  0  3  0  0  0  0  0  0
  186.0100  176.7340  147.8830 C   0  0  0  0  0  2  0  0  0  0  0  0
  190.3150  176.5310  144.2430 C   0  0  2  0  0  3  0  0  0  0  0  0
  188.8510  175.4980  145.8720 N   0  0  1  0  0  0  0  0  0  0  0  0
  189.9220  176.2210  142.7940 C   0  0  2  0  0  3  0  0  0  0  0  0
  192.2800  176.0280  145.6590 C   0  0  0  0  0  1  0  0  0  0  0  0
  187.8930  176.7730  143.9970 C   0  0  1  0  0  3  0  0  0  0  0  0
  1 21  1  0  0  0  0
  1  6  1  0  0  0  0
  3 17  1  0  0  0  0
  4 22  1  0  0  0  0
  5 27  1  1  0  0  0
  5 17  1  0  0  0  0
  6 15  1  0  0  0  0
  6 23  1  1  0  0  0
  7  8  2  0  0  0  0
  8  2  2  0  0  0  0
  9 13  2  0  0  0  0
 10  8  1  6  0  0  0
 10 26  1  0  0  0  0
 10 28  1  0  0  0  0
 11 15  1  0  0  0  0
 12 25  1  0  0  0  0
 13 26  1  0  0  0  0
 14  8  1  0  0  0  0
 14  9  1  0  0  0  0
 15 23  1  0  0  0  0
 16  1  2  0  0  0  0
 18  9  1  0  0  0  0
 19 15  1  0  0  0  0
 20  4  2  0  0  0  0
 20 16  1  0  0  0  0
 22 21  2  0  0  0  0
 24  5  1  0  0  0  0
 24 12  1  0  0  0  0
 25 17  1  0  0  0  0
 25 19  1  0  0  0  0
 26 24  1  0  0  0  0
 28 16  1  0  0  0  0
 28 12  1  0  0  0  0
M  END
>  <MODEL>
5

>  <REMARK>
 VINA RESULT:      -7.6      1.766      2.243
  Name = 
  0 active torsions:
  status: ('A' for Active; 'I' for Inactive)
                            x       y       z     vdW  Elec       q    Type
                         _______ _______ _______ _____ _____    ______ ____

>  <TORSDO>
F 0

$$$$
=
 OpenBabel11112417413D

 28 33  0  0  1  0  0  0  0  0999 V2000
  194.7610  174.3680  144.8430 C   0  0  0  0  0  0  0  0  0  0  0  0
  192.6770  172.0230  142.0360 O   0  0  0  0  0  0  0  0  0  0  0  0
  189.5000  176.6190  143.4840 C   0  0  0  0  0  1  0  0  0  0  0  0
  195.5720  171.8510  145.7630 C   0  0  0  0  0  3  0  0  0  0  0  0
  189.2410  175.0860  145.4150 C   0  0  1  0  0  3  0  0  0  0  0  0
  194.3000  175.7320  144.4190 C   0  0  1  0  0  3  0  0  0  0  0  0
  192.2680  169.9720  143.3260 O   0  0  0  0  0  0  0  0  0  0  0  0
  191.7360  171.3340  142.9840 S   0  0  0  0  0  0  0  0  0  0  0  0
  189.4700  172.5250  142.3060 C   0  0  0  0  0  0  0  0  0  0  0  0
  191.5070  172.2930  144.4780 C   0  0  2  0  0  3  0  0  0  0  0  0
  193.8910  175.8200  146.8880 O   0  0  0  0  0  1  0  0  0  0  0  0
  191.5990  174.5420  145.4100 C   0  0  2  0  0  3  0  0  0  0  0  0
  189.4940  173.2350  143.3830 N   0  0  0  0  0  0  0  0  0  0  0  0
  190.1310  171.1850  142.2400 C   0  0  0  0  0  2  0  0  0  0  0  0
  193.6820  176.4220  145.6400 C   0  0  2  0  0  0  0  0  0  0  0  0
  193.8080  173.3260  144.9560 C   0  0  0  0  0  0  0  0  0  0  0  0
  190.0510  176.2340  144.8430 C   0  0  1  0  0  3  0  0  0  0  0  0
  188.8760  173.0980  141.0660 C   0  0  0  0  0  1  0  0  0  0  0  0
  192.2610  176.8850  145.3320 C   0  0  0  0  0  2  0  0  0  0  0  0
  194.2330  172.0710  145.4260 C   0  0  0  0  0  3  0  0  0  0  0  0
  196.1020  174.1360  145.1720 C   0  0  0  0  0  3  0  0  0  0  0  0
  196.5060  172.8800  145.6300 C   0  0  0  0  0  3  0  0  0  0  0  0
  194.9410  176.9790  145.0220 C   0  0  0  0  0  2  0  0  0  0  0  0
  190.2200  173.9520  145.6300 C   0  0  2  0  0  3  0  0  0  0  0  0
  191.4470  175.8260  144.7090 N   0  0  1  0  0  0  0  0  0  0  0  0
  190.0690  172.7860  144.6460 C   0  0  2  0  0  3  0  0  0  0  0  0
  188.6480  175.5010  146.7460 C   0  0  0  0  0  1  0  0  0  0  0  0
  192.3650  173.5500  144.5240 C   0  0  1  0  0  3  0  0  0  0  0  0
  1 16  2  0  0  0  0
  1 21  1  0  0  0  0
  2  8  2  0  0  0  0
  3 17  1  0  0  0  0
  5 24  1  0  0  0  0
  5 27  1  1  0  0  0
  6  1  1  0  0  0  0
  6 23  1  1  0  0  0
  6 15  1  0  0  0  0
  8  7  2  0  0  0  0
  9 13  2  0  0  0  0
 10  8  1  6  0  0  0
 10 28  1  0  0  0  0
 10 26  1  0  0  0  0
 12 24  1  0  0  0  0
 13 26  1  0  0  0  0
 14  9  1  0  0  0  0
 14  8  1  0  0  0  0
 15 11  1  0  0  0  0
 16 20  1  0  0  0  0
 17  5  1  0  0  0  0
 18  9  1  0  0  0  0
 19 15  1  0  0  0  0
 20  4  2  0  0  0  0
 21 22  2  0  0  0  0
 22  4  1  0  0  0  0
 23 15  1  0  0  0  0
 25 17  1  0  0  0  0
 25 19  1  0  0  0  0
 25 12  1  0  0  0  0
 26 24  1  0  0  0  0
 28 16  1  0  0  0  0
 28 12  1  0  0  0  0
M  END
>  <MODEL>
6

>  <REMARK>
 VINA RESULT:      -7.4      3.834      6.939
  Name = 
  0 active torsions:
  status: ('A' for Active; 'I' for Inactive)
                            x       y       z     vdW  Elec       q    Type
                         _______ _______ _______ _____ _____    ______ ____

>  <TORSDO>
F 0

$$$$
=
 OpenBabel11112417413D

 28 33  0  0  1  0  0  0  0  0999 V2000
  188.9570  175.7210  145.2730 C   0  0  0  0  0  0  0  0  0  0  0  0
  188.0980  173.1740  142.0330 O   0  0  0  0  0  0  0  0  0  0  0  0
  193.2170  171.7840  144.3070 C   0  0  0  0  0  1  0  0  0  0  0  0
  187.6970  177.6010  143.6260 C   0  0  0  0  0  3  0  0  0  0  0  0
  193.6920  173.8210  142.9760 C   0  0  1  0  0  3  0  0  0  0  0  0
  189.6930  174.7580  146.1580 C   0  0  1  0  0  3  0  0  0  0  0  0
  188.1400  174.7530  140.1520 O   0  0  0  0  0  0  0  0  0  0  0  0
  188.9690  173.8330  141.0010 S   0  0  0  0  0  0  0  0  0  0  0  0
  190.8560  171.9900  140.7680 C   0  0  0  0  0  0  0  0  0  0  0  0
  190.3010  174.7480  141.7700 C   0  0  2  0  0  3  0  0  0  0  0  0
  191.2590  176.7120  146.1470 O   0  0  0  0  0  1  0  0  0  0  0  0
  191.6830  174.9130  143.7690 C   0  0  2  0  0  3  0  0  0  0  0  0
  191.6830  172.7190  141.4380 N   0  0  0  0  0  0  0  0  0  0  0  0
  189.7370  172.6000  139.9830 C   0  0  0  0  0  2  0  0  0  0  0  0
  191.0640  175.3650  146.4780 C   0  0  2  0  0  0  0  0  0  0  0  0
  189.2680  175.7590  143.8920 C   0  0  0  0  0  0  0  0  0  0  0  0
  193.3080  173.2960  144.3470 C   0  0  1  0  0  3  0  0  0  0  0  0
  190.9400  170.5070  140.8710 C   0  0  0  0  0  1  0  0  0  0  0  0
  192.1800  174.3960  146.0970 C   0  0  0  0  0  2  0  0  0  0  0  0
  188.6300  176.7140  143.0820 C   0  0  0  0  0  3  0  0  0  0  0  0
  188.0130  176.6060  145.8080 C   0  0  0  0  0  3  0  0  0  0  0  0
  187.3830  177.5430  144.9860 C   0  0  0  0  0  3  0  0  0  0  0  0
  190.0590  175.1570  147.5860 C   0  0  0  0  0  2  0  0  0  0  0  0
  192.5660  174.7370  142.5490 C   0  0  2  0  0  3  0  0  0  0  0  0
  192.0160  173.8550  144.7370 N   0  0  1  0  0  0  0  0  0  0  0  0
  191.6790  174.1780  141.4310 C   0  0  2  0  0  3  0  0  0  0  0  0
  194.9780  174.6160  143.0830 C   0  0  0  0  0  1  0  0  0  0  0  0
  190.2340  174.7460  143.2910 C   0  0  1  0  0  3  0  0  0  0  0  0
  1 21  1  0  0  0  0
  1  6  1  0  0  0  0
  3 17  1  0  0  0  0
  4 22  1  0  0  0  0
  5 27  1  1  0  0  0
  5 17  1  0  0  0  0
  6 15  1  0  0  0  0
  6 23  1  1  0  0  0
  7  8  2  0  0  0  0
  8  2  2  0  0  0  0
  9 18  1  0  0  0  0
  9 13  2  0  0  0  0
 10  8  1  6  0  0  0
 10 28  1  0  0  0  0
 11 15  1  0  0  0  0
 12 25  1  0  0  0  0
 14  9  1  0  0  0  0
 14  8  1  0  0  0  0
 15 23  1  0  0  0  0
 16  1  2  0  0  0  0
 17 25  1  0  0  0  0
 19 15  1  0  0  0  0
 20  4  2  0  0  0  0
 20 16  1  0  0  0  0
 22 21  2  0  0  0  0
 24  5  1  0  0  0  0
 24 12  1  0  0  0  0
 25 19  1  0  0  0  0
 26 13  1  0  0  0  0
 26 10  1  0  0  0  0
 26 24  1  0  0  0  0
 28 12  1  0  0  0  0
 28 16  1  0  0  0  0
M  END
>  <MODEL>
7

>  <REMARK>
 VINA RESULT:      -7.3      2.426      4.154
  Name = 
  0 active torsions:
  status: ('A' for Active; 'I' for Inactive)
                            x       y       z     vdW  Elec       q    Type
                         _______ _______ _______ _____ _____    ______ ____

>  <TORSDO>
F 0

$$$$
=
 OpenBabel11112417413D

 28 33  0  0  1  0  0  0  0  0999 V2000
  187.0370  176.8050  146.6550 C   0  0  0  0  0  0  0  0  0  0  0  0
  185.2720  176.5840  142.8390 O   0  0  0  0  0  0  0  0  0  0  0  0
  190.6760  174.5710  142.6120 C   0  0  0  0  0  1  0  0  0  0  0  0
  185.5550  179.1770  146.7760 C   0  0  0  0  0  3  0  0  0  0  0  0
  190.9620  177.0330  142.6730 C   0  0  1  0  0  3  0  0  0  0  0  0
  187.8930  175.5740  146.6050 C   0  0  1  0  0  3  0  0  0  0  0  0
  184.9780  178.9640  142.3040 O   0  0  0  0  0  0  0  0  0  0  0  0
  185.9190  177.7960  142.2300 S   0  0  0  0  0  0  0  0  0  0  0  0
  187.5700  176.6130  140.5310 C   0  0  0  0  0  0  0  0  0  0  0  0
  187.4530  178.1960  143.0610 C   0  0  2  0  0  3  0  0  0  0  0  0
  189.5420  177.2870  147.3900 O   0  0  0  0  0  1  0  0  0  0  0  0
  189.2730  177.2720  144.3910 C   0  0  2  0  0  3  0  0  0  0  0  0
  188.5780  176.8770  141.2910 N   0  0  0  0  0  0  0  0  0  0  0  0
  186.3420  177.4680  140.5380 C   0  0  0  0  0  2  0  0  0  0  0  0
  189.3390  175.9920  146.8970 C   0  0  2  0  0  0  0  0  0  0  0  0
  187.0170  177.6740  145.5360 C   0  0  0  0  0  0  0  0  0  0  0  0
  190.8750  175.7720  143.5140 C   0  0  1  0  0  3  0  0  0  0  0  0
  187.5750  175.3660  139.7170 C   0  0  0  0  0  1  0  0  0  0  0  0
  190.2660  175.5320  145.7760 C   0  0  0  0  0  2  0  0  0  0  0  0
  186.2730  178.8630  145.6190 C   0  0  0  0  0  3  0  0  0  0  0  0
  186.3060  177.1220  147.8070 C   0  0  0  0  0  3  0  0  0  0  0  0
  185.5660  178.3050  147.8660 C   0  0  0  0  0  3  0  0  0  0  0  0
  188.6100  175.0870  147.8620 C   0  0  0  0  0  2  0  0  0  0  0  0
  189.8310  177.9240  143.1410 C   0  0  2  0  0  3  0  0  0  0  0  0
  189.7510  175.8820  144.4400 N   0  0  1  0  0  0  0  0  0  0  0  0
  188.6710  178.0540  142.1470 C   0  0  2  0  0  3  0  0  0  0  0  0
  192.2870  177.7200  142.9310 C   0  0  0  0  0  1  0  0  0  0  0  0
  187.7450  177.2950  144.2530 C   0  0  1  0  0  3  0  0  0  0  0  0
  1 21  1  0  0  0  0
  3 17  1  0  0  0  0
  4 22  1  0  0  0  0
  5 27  1  1  0  0  0
  5 24  1  0  0  0  0
  5 17  1  0  0  0  0
  6  1  1  0  0  0  0
  6 15  1  0  0  0  0
  6 23  1  1  0  0  0
  8  7  2  0  0  0  0
  8  2  2  0  0  0  0
  9 14  1  0  0  0  0
  9 13  2  0  0  0  0
 10  8  1  6  0  0  0
 10 28  1  0  0  0  0
 12 25  1  0  0  0  0
 13 26  1  0  0  0  0
 14  8  1  0  0  0  0
 15 11  1  0  0  0  0
 15 23  1  0  0  0  0
 16 20  1  0  0  0  0
 16  1  2  0  0  0  0
 17 25  1  0  0  0  0
 18  9  1  0  0  0  0
 19 15  1  0  0  0  0
 20  4  2  0  0  0  0
 21 22  2  0  0  0  0
 24 12  1  0  0  0  0
 25 19  1  0  0  0  0
 26 10  1  0  0  0  0
 26 24  1  0  0  0  0
 28 12  1  0  0  0  0
 28 16  1  0  0  0  0
M  END
>  <MODEL>
8

>  <REMARK>
 VINA RESULT:      -7.2      2.234      4.316
  Name = 
  0 active torsions:
  status: ('A' for Active; 'I' for Inactive)
                            x       y       z     vdW  Elec       q    Type
                         _______ _______ _______ _____ _____    ______ ____

>  <TORSDO>
F 0

$$$$
=
 OpenBabel11112417413D

 28 33  0  0  1  0  0  0  0  0999 V2000
  189.4740  175.6530  143.6650 C   0  0  0  0  0  0  0  0  0  0  0  0
  190.6690  171.7010  144.4920 O   0  0  0  0  0  0  0  0  0  0  0  0
  194.9300  175.3530  145.8390 C   0  0  0  0  0  1  0  0  0  0  0  0
  188.2220  174.4070  141.4930 C   0  0  0  0  0  3  0  0  0  0  0  0
  195.0430  175.1950  143.3670 C   0  0  1  0  0  3  0  0  0  0  0  0
  190.1810  176.3650  144.7800 C   0  0  1  0  0  3  0  0  0  0  0  0
  190.7420  170.7360  142.2330 O   0  0  0  0  0  0  0  0  0  0  0  0
  191.5260  171.4750  143.2780 S   0  0  0  0  0  0  0  0  0  0  0  0
  193.9170  171.4670  144.4190 C   0  0  0  0  0  0  0  0  0  0  0  0
  192.1220  173.0260  142.6100 C   0  0  2  0  0  3  0  0  0  0  0  0
  190.8600  177.7480  142.8060 O   0  0  0  0  0  1  0  0  0  0  0  0
  192.6360  175.3420  143.1620 C   0  0  2  0  0  3  0  0  0  0  0  0
  194.1670  172.6450  143.9560 N   0  0  0  0  0  0  0  0  0  0  0  0
  192.9680  170.5410  143.7240 C   0  0  0  0  0  2  0  0  0  0  0  0
  191.0650  177.4540  144.1600 C   0  0  2  0  0  0  0  0  0  0  0  0
  190.1750  174.6690  142.9250 C   0  0  0  0  0  0  0  0  0  0  0  0
  194.4550  175.9640  144.5350 C   0  0  1  0  0  3  0  0  0  0  0  0
  194.4890  171.0610  145.7320 C   0  0  0  0  0  1  0  0  0  0  0  0
  192.5120  177.2930  144.6150 C   0  0  0  0  0  2  0  0  0  0  0  0
  189.5320  174.0600  141.8340 C   0  0  0  0  0  3  0  0  0  0  0  0
  188.1580  175.9870  143.3230 C   0  0  0  0  0  3  0  0  0  0  0  0
  187.5330  175.3650  142.2410 C   0  0  0  0  0  3  0  0  0  0  0  0
  189.9040  177.8430  145.0430 C   0  0  0  0  0  2  0  0  0  0  0  0
  193.8630  174.6690  142.5780 C   0  0  2  0  0  3  0  0  0  0  0  0
  192.9970  175.9080  144.4710 N   0  0  1  0  0  0  0  0  0  0  0  0
  193.6430  173.1570  142.6940 C   0  0  2  0  0  3  0  0  0  0  0  0
  195.8520  176.1370  142.4990 C   0  0  0  0  0  1  0  0  0  0  0  0
  191.5780  174.2450  143.3410 C   0  0  1  0  0  3  0  0  0  0  0  0
  1  6  1  0  0  0  0
  4 20  2  0  0  0  0
  4 22  1  0  0  0  0
  5 27  1  6  0  0  0
  5 17  1  0  0  0  0
  6 23  1  1  0  0  0
  7  8  2  0  0  0  0
  8 14  1  0  0  0  0
  8  2  2  0  0  0  0
  9 18  1  0  0  0  0
 10 26  1  0  0  0  0
 10  8  1  1  0  0  0
 10 28  1  0  0  0  0
 11 15  1  0  0  0  0
 12 28  1  0  0  0  0
 12 25  1  0  0  0  0
 13  9  2  0  0  0  0
 14  9  1  0  0  0  0
 15 19  1  0  0  0  0
 15  6  1  0  0  0  0
 15 23  1  0  0  0  0
 16 28  1  0  0  0  0
 16  1  2  0  0  0  0
 17  3  1  0  0  0  0
 20 16  1  0  0  0  0
 21  1  1  0  0  0  0
 22 21  2  0  0  0  0
 24 26  1  0  0  0  0
 24 12  1  0  0  0  0
 24  5  1  0  0  0  0
 25 17  1  0  0  0  0
 25 19  1  0  0  0  0
 26 13  1  0  0  0  0
M  END
>  <MODEL>
9

>  <REMARK>
 VINA RESULT:      -6.9      3.381      4.833
  Name = 
  0 active torsions:
  status: ('A' for Active; 'I' for Inactive)
                            x       y       z     vdW  Elec       q    Type
                         _______ _______ _______ _____ _____    ______ ____

>  <TORSDO>
F 0

$$$$
