=
 OpenBabel11112417363D

 28 31  0  0  1  0  0  0  0  0999 V2000
  189.2350  176.8620  144.4690 C   0  0  0  0  0  0  0  0  0  0  0  0
  193.0880  177.1410  145.0590 O   0  0  0  0  0  0  0  0  0  0  0  0
  188.4700  175.6650  146.8880 C   0  0  0  0  0  3  0  0  0  0  0  0
  189.6300  177.5440  143.1970 C   0  0  0  0  0  2  0  0  0  0  0  0
  193.2560  174.7230  145.4760 O   0  0  0  0  0  0  0  0  0  0  0  0
  193.1910  175.7870  144.4170 S   0  0  0  0  0  0  0  0  0  0  0  0
  194.2660  176.2120  142.0800 C   0  0  1  0  0  3  0  0  0  0  0  0
  191.8120  175.5190  143.3340 C   0  0  1  0  0  3  0  0  0  0  0  0
  186.6310  176.3460  142.6670 C   0  0  0  0  0  1  0  0  0  0  0  0
  190.0270  173.9830  142.7560 C   0  0  2  0  0  3  0  0  0  0  0  0
  193.2860  175.2910  141.3170 C   0  0  0  0  0  2  0  0  0  0  0  0
  194.6120  175.7050  143.4130 N   0  0  0  0  0  2  0  0  0  0  0  0
  187.7100  176.7250  141.7590 N   0  0  0  0  0  0  0  0  0  0  0  0
  189.7170  175.5730  144.8040 C   0  0  0  0  0  0  0  0  0  0  0  0
  195.5250  176.4040  141.2630 C   0  0  0  0  0  1  0  0  0  0  0  0
  188.6060  175.6200  141.3680 C   0  0  0  0  0  2  0  0  0  0  0  0
  189.3160  174.9860  146.0090 C   0  0  0  0  0  3  0  0  0  0  0  0
  188.4000  177.5410  145.3660 C   0  0  0  0  0  3  0  0  0  0  0  0
  188.0160  176.9450  146.5680 C   0  0  0  0  0  3  0  0  0  0  0  0
  188.4320  177.8840  142.3000 C   0  0  0  0  0  2  0  0  0  0  0  0
  191.0510  174.0330  141.6120 C   0  0  1  0  0  3  0  0  0  0  0  0
  188.6150  174.4210  142.3330 C   0  0  1  0  0  3  0  0  0  0  0  0
  192.3000  174.5960  142.2560 C   0  0  2  0  0  3  0  0  0  0  0  0
  190.6470  174.7630  143.9300 C   0  0  2  0  0  3  0  0  0  0  0  0
  188.0940  172.2910  142.6460 C   0  0  0  0  0  1  0  0  0  0  0  0
  187.9430  173.3480  141.7460 O   0  0  0  0  0  0  0  0  0  0  0  0
  191.3120  172.6910  141.1190 N   0  0  0  0  0  2  0  0  0  0  0  0
  190.8240  172.6380  139.7530 C   0  0  0  0  0  1  0  0  0  0  0  0
  1 14  2  0  0  0  0
  1 18  1  0  0  0  0
  4  1  1  0  0  0  0
  6  2  2  0  0  0  0
  6  5  2  0  0  0  0
  7 15  1  6  0  0  0
  7 12  1  0  0  0  0
  8 24  1  0  0  0  0
  8  6  1  1  0  0  0
 10 24  1  0  0  0  0
 11  7  1  0  0  0  0
 11 23  1  0  0  0  0
 12  6  1  0  0  0  0
 13 20  1  0  0  0  0
 13  9  1  0  0  0  0
 14 17  1  0  0  0  0
 16 13  1  0  0  0  0
 16 22  1  0  0  0  0
 17  3  2  0  0  0  0
 18 19  2  0  0  0  0
 19  3  1  0  0  0  0
 20  4  1  0  0  0  0
 21 23  1  0  0  0  0
 21 10  1  0  0  0  0
 22 10  1  0  0  0  0
 23  8  1  0  0  0  0
 24 14  1  0  0  0  0
 26 22  1  0  0  0  0
 26 25  1  0  0  0  0
 27 21  1  0  0  0  0
 28 27  1  0  0  0  0
M  END
>  <MODEL>
1

>  <REMARK>
 VINA RESULT:      -6.9      0.000      0.000
  Name = 
  2 active torsions:
  status: ('A' for Active; 'I' for Inactive)
    1  A    between atoms: N_5  and  C_24
    2  A    between atoms: O_17  and  C_25
                            x       y       z     vdW  Elec       q    Type
                         _______ _______ _______ _____ _____    ______ ____

>  <TORSDO>
F 2

$$$$
=
 OpenBabel11112417363D

 28 31  0  0  1  0  0  0  0  0999 V2000
  187.9210  177.6350  144.4170 C   0  0  0  0  0  0  0  0  0  0  0  0
  190.7820  177.7770  147.0740 O   0  0  0  0  0  0  0  0  0  0  0  0
  185.7510  177.0330  146.0880 C   0  0  0  0  0  3  0  0  0  0  0  0
  189.0660  178.0050  143.5270 C   0  0  0  0  0  2  0  0  0  0  0  0
  190.2640  175.4970  147.8370 O   0  0  0  0  0  0  0  0  0  0  0  0
  190.9830  176.3140  146.8010 S   0  0  0  0  0  0  0  0  0  0  0  0
  193.2260  176.1620  145.4790 C   0  0  1  0  0  3  0  0  0  0  0  0
  190.4110  175.9150  145.1700 C   0  0  1  0  0  3  0  0  0  0  0  0
  186.7050  176.9230  141.5340 C   0  0  0  0  0  1  0  0  0  0  0  0
  189.0070  174.4130  143.8850 C   0  0  2  0  0  3  0  0  0  0  0  0
  192.6870  175.1660  144.4250 C   0  0  0  0  0  2  0  0  0  0  0  0
  192.6810  175.9270  146.8220 N   0  0  0  0  0  2  0  0  0  0  0  0
  188.1530  177.0280  141.3730 N   0  0  0  0  0  0  0  0  0  0  0  0
  187.9020  176.4180  145.1400 C   0  0  0  0  0  0  0  0  0  0  0  0
  194.7360  176.0910  145.5210 C   0  0  0  0  0  1  0  0  0  0  0  0
  188.9040  175.8090  141.7240 C   0  0  0  0  0  2  0  0  0  0  0  0
  186.8060  176.1280  145.9600 C   0  0  0  0  0  3  0  0  0  0  0  0
  186.8640  178.5430  144.5660 C   0  0  0  0  0  3  0  0  0  0  0  0
  185.7820  178.2430  145.3940 C   0  0  0  0  0  3  0  0  0  0  0  0
  188.6450  178.2250  142.0670 C   0  0  0  0  0  2  0  0  0  0  0  0
  190.4820  174.1510  143.5460 C   0  0  1  0  0  3  0  0  0  0  0  0
  188.1670  174.8440  142.6700 C   0  0  1  0  0  3  0  0  0  0  0  0
  191.2430  174.7530  144.7080 C   0  0  2  0  0  3  0  0  0  0  0  0
  189.0010  175.3820  145.0820 C   0  0  2  0  0  3  0  0  0  0  0  0
  188.5110  173.7390  140.7810 C   0  0  0  0  0  1  0  0  0  0  0  0
  187.7560  173.7170  141.9560 O   0  0  0  0  0  0  0  0  0  0  0  0
  190.7320  172.7210  143.4820 N   0  0  0  0  0  2  0  0  0  0  0  0
  189.9410  172.1030  144.5300 C   0  0  0  0  0  1  0  0  0  0  0  0
  1 18  2  0  0  0  0
  1 14  1  0  0  0  0
  4  1  1  0  0  0  0
  6 12  1  0  0  0  0
  6  2  2  0  0  0  0
  6  5  2  0  0  0  0
  7 15  1  1  0  0  0
  7 12  1  0  0  0  0
  8  6  1  1  0  0  0
 10 24  1  0  0  0  0
 11 23  1  0  0  0  0
 11  7  1  0  0  0  0
 13  9  1  0  0  0  0
 13 16  1  0  0  0  0
 13 20  1  0  0  0  0
 14 17  2  0  0  0  0
 16 22  1  0  0  0  0
 17  3  1  0  0  0  0
 18 19  1  0  0  0  0
 19  3  2  0  0  0  0
 20  4  1  0  0  0  0
 21 10  1  0  0  0  0
 21 23  1  0  0  0  0
 22 10  1  0  0  0  0
 23  8  1  0  0  0  0
 24 14  1  0  0  0  0
 24  8  1  0  0  0  0
 25 26  1  0  0  0  0
 26 22  1  0  0  0  0
 27 21  1  0  0  0  0
 27 28  1  0  0  0  0
M  END
>  <MODEL>
2

>  <REMARK>
 VINA RESULT:      -6.8      2.204      2.617
  Name = 
  2 active torsions:
  status: ('A' for Active; 'I' for Inactive)
    1  A    between atoms: N_5  and  C_24
    2  A    between atoms: O_17  and  C_25
                            x       y       z     vdW  Elec       q    Type
                         _______ _______ _______ _____ _____    ______ ____

>  <TORSDO>
F 2

$$$$
=
 OpenBabel11112417363D

 28 31  0  0  1  0  0  0  0  0999 V2000
  191.0320  173.7730  144.3900 C   0  0  0  0  0  0  0  0  0  0  0  0
  189.6180  176.5020  146.8040 O   0  0  0  0  0  0  0  0  0  0  0  0
  193.5340  174.9000  143.8130 C   0  0  0  0  0  3  0  0  0  0  0  0
  189.7180  173.1420  144.7330 C   0  0  0  0  0  2  0  0  0  0  0  0
  189.9460  178.2520  145.1070 O   0  0  0  0  0  0  0  0  0  0  0  0
  189.0380  177.1520  145.5800 S   0  0  0  0  0  0  0  0  0  0  0  0
  186.4680  176.7410  145.7340 C   0  0  1  0  0  3  0  0  0  0  0  0
  188.7920  175.9430  144.3060 C   0  0  1  0  0  3  0  0  0  0  0  0
  190.7770  171.5880  142.0540 C   0  0  0  0  0  1  0  0  0  0  0  0
  189.2120  175.4180  141.9760 C   0  0  2  0  0  3  0  0  0  0  0  0
  186.3140  176.3300  144.2510 C   0  0  0  0  0  2  0  0  0  0  0  0
  187.4630  177.8020  145.9350 N   0  0  0  0  0  2  0  0  0  0  0  0
  189.4440  171.7570  142.6270 N   0  0  0  0  0  0  0  0  0  0  0  0
  191.1080  175.0210  143.7250 C   0  0  0  0  0  0  0  0  0  0  0  0
  185.1290  177.1850  146.2810 C   0  0  0  0  0  1  0  0  0  0  0  0
  188.6820  172.9020  142.0930 C   0  0  0  0  0  2  0  0  0  0  0  0
  192.3650  175.5630  143.4350 C   0  0  0  0  0  3  0  0  0  0  0  0
  192.2110  173.1240  144.7790 C   0  0  0  0  0  3  0  0  0  0  0  0
  193.4560  173.6820  144.4890 C   0  0  0  0  0  3  0  0  0  0  0  0
  189.5300  171.7600  144.0930 C   0  0  0  0  0  2  0  0  0  0  0  0
  187.7090  175.6590  142.1850 C   0  0  1  0  0  3  0  0  0  0  0  0
  189.5390  174.0090  141.4540 C   0  0  1  0  0  3  0  0  0  0  0  0
  187.6330  176.4300  143.4850 C   0  0  2  0  0  3  0  0  0  0  0  0
  189.9040  175.8240  143.2900 C   0  0  2  0  0  3  0  0  0  0  0  0
  188.3270  173.0900  139.8430 C   0  0  0  0  0  1  0  0  0  0  0  0
  189.3870  173.9720  140.0670 O   0  0  0  0  0  0  0  0  0  0  0  0
  187.1790  176.4680  141.1010 N   0  0  0  0  0  2  0  0  0  0  0  0
  187.7760  177.7860  141.2220 C   0  0  0  0  0  1  0  0  0  0  0  0
  1  4  1  0  0  0  0
  1 18  1  0  0  0  0
  3 19  1  0  0  0  0
  5  6  2  0  0  0  0
  6 12  1  0  0  0  0
  6  2  2  0  0  0  0
  7 12  1  0  0  0  0
  7 15  1  6  0  0  0
  8  6  1  1  0  0  0
  9 13  1  0  0  0  0
 10 21  1  0  0  0  0
 10 24  1  0  0  0  0
 11  7  1  0  0  0  0
 13 20  1  0  0  0  0
 14  1  2  0  0  0  0
 16 13  1  0  0  0  0
 17 14  1  0  0  0  0
 17  3  2  0  0  0  0
 19 18  2  0  0  0  0
 20  4  1  0  0  0  0
 21 23  1  0  0  0  0
 22 10  1  0  0  0  0
 22 16  1  0  0  0  0
 23 11  1  0  0  0  0
 23  8  1  0  0  0  0
 24 14  1  0  0  0  0
 24  8  1  0  0  0  0
 25 26  1  0  0  0  0
 26 22  1  0  0  0  0
 27 28  1  0  0  0  0
 27 21  1  0  0  0  0
M  END
>  <MODEL>
3

>  <REMARK>
 VINA RESULT:      -6.7      2.477      5.401
  Name = 
  2 active torsions:
  status: ('A' for Active; 'I' for Inactive)
    1  A    between atoms: N_5  and  C_24
    2  A    between atoms: O_17  and  C_25
                            x       y       z     vdW  Elec       q    Type
                         _______ _______ _______ _____ _____    ______ ____

>  <TORSDO>
F 2

$$$$
=
 OpenBabel11112417363D

 28 31  0  0  1  0  0  0  0  0999 V2000
  189.8660  175.7240  144.8560 C   0  0  0  0  0  0  0  0  0  0  0  0
  190.0670  172.8100  142.2600 O   0  0  0  0  0  0  0  0  0  0  0  0
  189.8210  177.9160  143.1060 C   0  0  0  0  0  3  0  0  0  0  0  0
  189.8410  174.5570  145.7930 C   0  0  0  0  0  2  0  0  0  0  0  0
  192.0960  173.7710  141.2540 O   0  0  0  0  0  0  0  0  0  0  0  0
  191.5600  172.9300  142.3790 S   0  0  0  0  0  0  0  0  0  0  0  0
  192.3180  170.8150  143.7020 C   0  0  1  0  0  3  0  0  0  0  0  0
  191.9920  173.6270  143.9520 C   0  0  1  0  0  3  0  0  0  0  0  0
  190.5920  177.1580  147.6330 C   0  0  0  0  0  1  0  0  0  0  0  0
  193.2820  175.3580  145.0550 C   0  0  2  0  0  3  0  0  0  0  0  0
  193.2780  171.5860  144.6380 C   0  0  0  0  0  2  0  0  0  0  0  0
  192.2940  171.3520  142.3350 N   0  0  0  0  0  2  0  0  0  0  0  0
  190.8140  175.7260  147.8210 N   0  0  0  0  0  0  0  0  0  0  0  0
  190.9720  175.9750  144.0080 C   0  0  0  0  0  0  0  0  0  0  0  0
  192.7040  169.3530  143.6690 C   0  0  0  0  0  1  0  0  0  0  0  0
  192.1240  175.2370  147.3500 C   0  0  0  0  0  2  0  0  0  0  0  0
  190.9370  177.0790  143.1490 C   0  0  0  0  0  3  0  0  0  0  0  0
  188.7440  176.5610  144.7930 C   0  0  0  0  0  3  0  0  0  0  0  0
  188.7220  177.6540  143.9250 C   0  0  0  0  0  3  0  0  0  0  0  0
  189.6850  174.9700  147.2630 C   0  0  0  0  0  2  0  0  0  0  0  0
  193.8850  173.9830  145.3800 C   0  0  1  0  0  3  0  0  0  0  0  0
  192.8080  176.1280  146.2990 C   0  0  1  0  0  3  0  0  0  0  0  0
  193.3440  173.0750  144.2970 C   0  0  2  0  0  3  0  0  0  0  0  0
  192.2190  175.1210  143.9670 C   0  0  2  0  0  3  0  0  0  0  0  0
  194.4790  177.5100  145.8430 C   0  0  0  0  0  1  0  0  0  0  0  0
  193.8890  176.7910  146.8850 O   0  0  0  0  0  0  0  0  0  0  0  0
  195.3350  174.0410  145.2950 N   0  0  0  0  0  2  0  0  0  0  0  0
  195.6650  174.4530  143.9420 C   0  0  0  0  0  1  0  0  0  0  0  0
  1  4  1  0  0  0  0
  2  6  2  0  0  0  0
  3 17  2  0  0  0  0
  3 19  1  0  0  0  0
  4 20  1  0  0  0  0
  5  6  2  0  0  0  0
  7 15  1  6  0  0  0
  7 11  1  0  0  0  0
  8  6  1  6  0  0  0
  8 24  1  0  0  0  0
  8 23  1  0  0  0  0
  9 13  1  0  0  0  0
 10 21  1  0  0  0  0
 10 22  1  0  0  0  0
 12  6  1  0  0  0  0
 12  7  1  0  0  0  0
 14  1  2  0  0  0  0
 16 13  1  0  0  0  0
 17 14  1  0  0  0  0
 18  1  1  0  0  0  0
 19 18  2  0  0  0  0
 20 13  1  0  0  0  0
 22 26  1  0  0  0  0
 22 16  1  0  0  0  0
 23 11  1  0  0  0  0
 23 21  1  0  0  0  0
 24 14  1  0  0  0  0
 24 10  1  0  0  0  0
 25 26  1  0  0  0  0
 27 21  1  0  0  0  0
 28 27  1  0  0  0  0
M  END
>  <MODEL>
4

>  <REMARK>
 VINA RESULT:      -6.6      2.890      5.275
  Name = 
  2 active torsions:
  status: ('A' for Active; 'I' for Inactive)
    1  A    between atoms: N_5  and  C_24
    2  A    between atoms: O_17  and  C_25
                            x       y       z     vdW  Elec       q    Type
                         _______ _______ _______ _____ _____    ______ ____

>  <TORSDO>
F 2

$$$$
=
 OpenBabel11112417363D

 28 31  0  0  1  0  0  0  0  0999 V2000
  190.9430  176.8250  144.9850 C   0  0  0  0  0  0  0  0  0  0  0  0
  194.7820  177.4620  145.3380 O   0  0  0  0  0  0  0  0  0  0  0  0
  190.3340  176.1150  147.6290 C   0  0  0  0  0  3  0  0  0  0  0  0
  191.2530  177.2500  143.5840 C   0  0  0  0  0  2  0  0  0  0  0  0
  195.1320  175.2000  146.2400 O   0  0  0  0  0  0  0  0  0  0  0  0
  194.9620  176.0130  144.9870 S   0  0  0  0  0  0  0  0  0  0  0  0
  195.9370  176.0070  142.5680 C   0  0  1  0  0  3  0  0  0  0  0  0
  193.5750  175.4380  144.0430 C   0  0  1  0  0  3  0  0  0  0  0  0
  188.3310  175.7810  143.4420 C   0  0  0  0  0  1  0  0  0  0  0  0
  191.8860  173.7070  143.8720 C   0  0  2  0  0  3  0  0  0  0  0  0
  195.0030  174.8860  142.0550 C   0  0  0  0  0  2  0  0  0  0  0  0
  196.3550  175.8120  143.9620 N   0  0  0  0  0  2  0  0  0  0  0  0
  189.3540  176.0280  142.4290 N   0  0  0  0  0  0  0  0  0  0  0  0
  191.5240  175.6670  145.5580 C   0  0  0  0  0  0  0  0  0  0  0  0
  197.1550  176.1020  141.6770 C   0  0  0  0  0  1  0  0  0  0  0  0
  190.3140  174.9240  142.2370 C   0  0  0  0  0  2  0  0  0  0  0  0
  191.2010  175.3220  146.8750 C   0  0  0  0  0  3  0  0  0  0  0  0
  190.0890  177.6230  145.7570 C   0  0  0  0  0  3  0  0  0  0  0  0
  189.7820  177.2680  147.0710 C   0  0  0  0  0  3  0  0  0  0  0  0
  190.0080  177.3180  142.6880 C   0  0  0  0  0  2  0  0  0  0  0  0
  192.8710  173.5800  142.7000 C   0  0  1  0  0  3  0  0  0  0  0  0
  190.4350  173.9570  143.4280 C   0  0  1  0  0  3  0  0  0  0  0  0
  194.0950  174.3430  143.1590 C   0  0  2  0  0  3  0  0  0  0  0  0
  192.4830  174.7530  144.8310 C   0  0  2  0  0  3  0  0  0  0  0  0
  189.6540  172.0880  144.3270 C   0  0  0  0  0  1  0  0  0  0  0  0
  189.8240  172.7440  143.1050 O   0  0  0  0  0  0  0  0  0  0  0  0
  193.2110  172.1840  142.4840 N   0  0  0  0  0  2  0  0  0  0  0  0
  192.6800  171.8130  141.1840 C   0  0  0  0  0  1  0  0  0  0  0  0
  1 14  2  0  0  0  0
  1 18  1  0  0  0  0
  4  1  1  0  0  0  0
  6  2  2  0  0  0  0
  6  5  2  0  0  0  0
  7 15  1  6  0  0  0
  7 12  1  0  0  0  0
  8 24  1  0  0  0  0
  8  6  1  1  0  0  0
 10 24  1  0  0  0  0
 11  7  1  0  0  0  0
 11 23  1  0  0  0  0
 12  6  1  0  0  0  0
 13 20  1  0  0  0  0
 13  9  1  0  0  0  0
 14 17  1  0  0  0  0
 16 13  1  0  0  0  0
 16 22  1  0  0  0  0
 17  3  2  0  0  0  0
 18 19  2  0  0  0  0
 19  3  1  0  0  0  0
 20  4  1  0  0  0  0
 21 23  1  0  0  0  0
 21 10  1  0  0  0  0
 22 10  1  0  0  0  0
 23  8  1  0  0  0  0
 24 14  1  0  0  0  0
 26 22  1  0  0  0  0
 26 25  1  0  0  0  0
 27 21  1  0  0  0  0
 28 27  1  0  0  0  0
M  END
>  <MODEL>
5

>  <REMARK>
 VINA RESULT:      -6.5      1.828      2.005
  Name = 
  2 active torsions:
  status: ('A' for Active; 'I' for Inactive)
    1  A    between atoms: N_5  and  C_24
    2  A    between atoms: O_17  and  C_25
                            x       y       z     vdW  Elec       q    Type
                         _______ _______ _______ _____ _____    ______ ____

>  <TORSDO>
F 2

$$$$
=
 OpenBabel11112417363D

 28 31  0  0  1  0  0  0  0  0999 V2000
  189.0060  175.6510  145.1700 C   0  0  0  0  0  0  0  0  0  0  0  0
  188.3640  172.9210  142.4490 O   0  0  0  0  0  0  0  0  0  0  0  0
  188.0520  177.9110  143.8100 C   0  0  0  0  0  3  0  0  0  0  0  0
  189.4710  174.4420  145.9190 C   0  0  0  0  0  2  0  0  0  0  0  0
  189.7030  174.1660  140.8030 O   0  0  0  0  0  0  0  0  0  0  0  0
  189.7550  173.2110  141.9620 S   0  0  0  0  0  0  0  0  0  0  0  0
  191.1730  171.1340  142.6520 C   0  0  1  0  0  3  0  0  0  0  0  0
  190.7380  173.8700  143.2830 C   0  0  1  0  0  3  0  0  0  0  0  0
  190.6910  177.0130  147.5370 C   0  0  0  0  0  1  0  0  0  0  0  0
  192.2160  175.6820  143.9280 C   0  0  2  0  0  3  0  0  0  0  0  0
  192.3640  171.9620  143.1870 C   0  0  0  0  0  2  0  0  0  0  0  0
  190.5390  171.7350  141.4720 N   0  0  0  0  0  2  0  0  0  0  0  0
  191.0930  175.6100  147.4790 N   0  0  0  0  0  0  0  0  0  0  0  0
  189.6360  176.0750  143.9740 C   0  0  0  0  0  0  0  0  0  0  0  0
  191.6340  169.7300  142.3250 C   0  0  0  0  0  1  0  0  0  0  0  0
  192.1270  175.3040  146.4730 C   0  0  0  0  0  2  0  0  0  0  0  0
  189.1530  177.2110  143.3140 C   0  0  0  0  0  3  0  0  0  0  0  0
  187.8910  176.3520  145.6490 C   0  0  0  0  0  3  0  0  0  0  0  0
  187.4180  177.4780  144.9750 C   0  0  0  0  0  3  0  0  0  0  0  0
  189.9040  174.7560  147.3580 C   0  0  0  0  0  2  0  0  0  0  0  0
  193.0150  174.3720  143.8460 C   0  0  1  0  0  3  0  0  0  0  0  0
  192.2350  176.3240  145.3250 C   0  0  1  0  0  3  0  0  0  0  0  0
  192.1540  173.4640  142.9940 C   0  0  2  0  0  3  0  0  0  0  0  0
  190.8220  175.3770  143.3490 C   0  0  2  0  0  3  0  0  0  0  0  0
  194.1100  176.4360  146.5000 C   0  0  0  0  0  1  0  0  0  0  0  0
  193.4000  177.0780  145.4830 O   0  0  0  0  0  0  0  0  0  0  0  0
  194.2880  174.6060  143.1850 N   0  0  0  0  0  2  0  0  0  0  0  0
  195.3180  174.0230  144.0270 C   0  0  0  0  0  1  0  0  0  0  0  0
  1 18  1  0  0  0  0
  1  4  1  0  0  0  0
  3 19  1  0  0  0  0
  4 20  1  0  0  0  0
  5  6  2  0  0  0  0
  6  2  2  0  0  0  0
  7 15  1  6  0  0  0
  7 11  1  0  0  0  0
  8  6  1  6  0  0  0
  8 24  1  0  0  0  0
 10 22  1  0  0  0  0
 12  6  1  0  0  0  0
 12  7  1  0  0  0  0
 13  9  1  0  0  0  0
 14  1  2  0  0  0  0
 16 13  1  0  0  0  0
 17  3  2  0  0  0  0
 17 14  1  0  0  0  0
 19 18  2  0  0  0  0
 20 13  1  0  0  0  0
 21 10  1  0  0  0  0
 22 26  1  0  0  0  0
 22 16  1  0  0  0  0
 23 11  1  0  0  0  0
 23  8  1  0  0  0  0
 23 21  1  0  0  0  0
 24 10  1  0  0  0  0
 24 14  1  0  0  0  0
 26 25  1  0  0  0  0
 27 21  1  0  0  0  0
 27 28  1  0  0  0  0
M  END
>  <MODEL>
6

>  <REMARK>
 VINA RESULT:      -6.5      2.371      5.005
  Name = 
  2 active torsions:
  status: ('A' for Active; 'I' for Inactive)
    1  A    between atoms: N_5  and  C_24
    2  A    between atoms: O_17  and  C_25
                            x       y       z     vdW  Elec       q    Type
                         _______ _______ _______ _____ _____    ______ ____

>  <TORSDO>
F 2

$$$$
=
 OpenBabel11112417363D

 28 31  0  0  1  0  0  0  0  0999 V2000
  191.2660  174.4430  144.7880 C   0  0  0  0  0  0  0  0  0  0  0  0
  189.2660  177.7990  144.8000 O   0  0  0  0  0  0  0  0  0  0  0  0
  193.8590  175.4360  144.3930 C   0  0  0  0  0  3  0  0  0  0  0  0
  189.8920  173.9100  145.0480 C   0  0  0  0  0  2  0  0  0  0  0  0
  190.1530  178.4010  142.5860 O   0  0  0  0  0  0  0  0  0  0  0  0
  189.1100  177.6050  143.3180 S   0  0  0  0  0  0  0  0  0  0  0  0
  186.6050  176.9720  142.9660 C   0  0  1  0  0  3  0  0  0  0  0  0
  189.2290  175.8820  142.9140 C   0  0  1  0  0  3  0  0  0  0  0  0
  191.6730  171.3390  144.0820 C   0  0  0  0  0  1  0  0  0  0  0  0
  190.3280  174.2630  141.4820 C   0  0  2  0  0  3  0  0  0  0  0  0
  186.9010  175.8160  141.9820 C   0  0  0  0  0  2  0  0  0  0  0  0
  187.5220  178.1080  142.8100 N   0  0  0  0  0  2  0  0  0  0  0  0
  190.2350  171.5920  144.0770 N   0  0  0  0  0  0  0  0  0  0  0  0
  191.5820  175.1390  143.5960 C   0  0  0  0  0  0  0  0  0  0  0  0
  185.1770  177.4390  142.7880 C   0  0  0  0  0  1  0  0  0  0  0  0
  189.7100  172.1510  142.8170 C   0  0  0  0  0  2  0  0  0  0  0  0
  192.8830  175.6190  143.4110 C   0  0  0  0  0  3  0  0  0  0  0  0
  192.2480  174.2800  145.7740 C   0  0  0  0  0  3  0  0  0  0  0  0
  193.5400  174.7710  145.5770 C   0  0  0  0  0  3  0  0  0  0  0  0
  189.8660  172.3890  145.2550 C   0  0  0  0  0  2  0  0  0  0  0  0
  188.8410  174.3570  141.1040 C   0  0  1  0  0  3  0  0  0  0  0  0
  190.7560  172.8580  141.9370 C   0  0  1  0  0  3  0  0  0  0  0  0
  188.3940  175.6820  141.6830 C   0  0  2  0  0  3  0  0  0  0  0  0
  190.5950  175.4020  142.4820 C   0  0  2  0  0  3  0  0  0  0  0  0
  192.2340  172.5690  140.3120 C   0  0  0  0  0  1  0  0  0  0  0  0
  191.0350  172.0650  140.8220 O   0  0  0  0  0  0  0  0  0  0  0  0
  188.6950  174.3770  139.6580 N   0  0  0  0  0  2  0  0  0  0  0  0
  188.1810  173.0770  139.2650 C   0  0  0  0  0  1  0  0  0  0  0  0
  1  4  1  0  0  0  0
  1 18  1  0  0  0  0
  3 19  1  0  0  0  0
  4 20  1  0  0  0  0
  5  6  2  0  0  0  0
  6  2  2  0  0  0  0
  7 15  1  6  0  0  0
  8  6  1  6  0  0  0
 10 22  1  0  0  0  0
 10 24  1  0  0  0  0
 11  7  1  0  0  0  0
 12  7  1  0  0  0  0
 12  6  1  0  0  0  0
 13  9  1  0  0  0  0
 13 20  1  0  0  0  0
 14  1  2  0  0  0  0
 16 13  1  0  0  0  0
 17 14  1  0  0  0  0
 17  3  2  0  0  0  0
 19 18  2  0  0  0  0
 21 10  1  0  0  0  0
 21 23  1  0  0  0  0
 22 16  1  0  0  0  0
 23 11  1  0  0  0  0
 23  8  1  0  0  0  0
 24  8  1  0  0  0  0
 24 14  1  0  0  0  0
 25 26  1  0  0  0  0
 26 22  1  0  0  0  0
 27 21  1  0  0  0  0
 28 27  1  0  0  0  0
M  END
>  <MODEL>
7

>  <REMARK>
 VINA RESULT:      -6.1      2.728      5.094
  Name = 
  2 active torsions:
  status: ('A' for Active; 'I' for Inactive)
    1  A    between atoms: N_5  and  C_24
    2  A    between atoms: O_17  and  C_25
                            x       y       z     vdW  Elec       q    Type
                         _______ _______ _______ _____ _____    ______ ____

>  <TORSDO>
F 2

$$$$
=
 OpenBabel11112417363D

 28 31  0  0  1  0  0  0  0  0999 V2000
  194.1900  176.0050  143.7670 C   0  0  0  0  0  0  0  0  0  0  0  0
  191.1910  178.5090  143.7670 O   0  0  0  0  0  0  0  0  0  0  0  0
  194.7060  175.8810  141.0130 C   0  0  0  0  0  3  0  0  0  0  0  0
  193.9520  176.1050  145.2420 C   0  0  0  0  0  2  0  0  0  0  0  0
  189.9210  177.0750  142.2240 O   0  0  0  0  0  0  0  0  0  0  0  0
  190.3030  177.3020  143.6590 S   0  0  0  0  0  0  0  0  0  0  0  0
  189.1570  177.0800  145.9910 C   0  0  1  0  0  3  0  0  0  0  0  0
  191.1240  175.8800  144.3290 C   0  0  1  0  0  3  0  0  0  0  0  0
  195.7840  173.4250  144.8170 C   0  0  0  0  0  1  0  0  0  0  0  0
  191.7530  173.5790  143.8940 C   0  0  2  0  0  3  0  0  0  0  0  0
  189.3760  175.5530  146.0980 C   0  0  0  0  0  2  0  0  0  0  0  0
  188.8690  177.5240  144.6210 N   0  0  0  0  0  2  0  0  0  0  0  0
  194.8860  173.8390  145.8920 N   0  0  0  0  0  0  0  0  0  0  0  0
  193.2040  175.4990  142.8860 C   0  0  0  0  0  0  0  0  0  0  0  0
  188.0310  177.4990  146.9120 C   0  0  0  0  0  1  0  0  0  0  0  0
  193.5020  173.3440  145.7680 C   0  0  0  0  0  2  0  0  0  0  0  0
  193.4820  175.4340  141.5160 C   0  0  0  0  0  3  0  0  0  0  0  0
  195.4080  176.4660  143.2500 C   0  0  0  0  0  3  0  0  0  0  0  0
  195.6670  176.4010  141.8800 C   0  0  0  0  0  3  0  0  0  0  0  0
  194.9600  175.2950  146.0690 C   0  0  0  0  0  2  0  0  0  0  0  0
  190.6920  173.6200  145.0050 C   0  0  1  0  0  3  0  0  0  0  0  0
  193.0820  172.9480  144.3410 C   0  0  1  0  0  3  0  0  0  0  0  0
  190.0430  174.9780  144.8480 C   0  0  2  0  0  3  0  0  0  0  0  0
  191.8450  175.0070  143.3280 C   0  0  2  0  0  3  0  0  0  0  0  0
  192.8790  171.2900  142.8850 C   0  0  0  0  0  1  0  0  0  0  0  0
  192.9990  171.5570  144.2510 O   0  0  0  0  0  0  0  0  0  0  0  0
  189.7050  172.5740  144.7910 N   0  0  0  0  0  2  0  0  0  0  0  0
  189.3540  172.6030  143.3820 C   0  0  0  0  0  1  0  0  0  0  0  0
  1  4  1  0  0  0  0
  3 17  2  0  0  0  0
  3 19  1  0  0  0  0
  4 20  1  0  0  0  0
  5  6  2  0  0  0  0
  6  2  2  0  0  0  0
  6 12  1  0  0  0  0
  7 11  1  0  0  0  0
  7 15  1  1  0  0  0
  8  6  1  6  0  0  0
  8 23  1  0  0  0  0
  9 13  1  0  0  0  0
 10 22  1  0  0  0  0
 10 21  1  0  0  0  0
 12  7  1  0  0  0  0
 13 20  1  0  0  0  0
 14 24  1  0  0  0  0
 14  1  2  0  0  0  0
 16 13  1  0  0  0  0
 17 14  1  0  0  0  0
 18  1  1  0  0  0  0
 19 18  2  0  0  0  0
 22 16  1  0  0  0  0
 23 21  1  0  0  0  0
 23 11  1  0  0  0  0
 24 10  1  0  0  0  0
 24  8  1  0  0  0  0
 25 26  1  0  0  0  0
 26 22  1  0  0  0  0
 27 21  1  0  0  0  0
 28 27  1  0  0  0  0
M  END
>  <MODEL>
8

>  <REMARK>
 VINA RESULT:      -6.1      2.542      5.977
  Name = 
  2 active torsions:
  status: ('A' for Active; 'I' for Inactive)
    1  A    between atoms: N_5  and  C_24
    2  A    between atoms: O_17  and  C_25
                            x       y       z     vdW  Elec       q    Type
                         _______ _______ _______ _____ _____    ______ ____

>  <TORSDO>
F 2

$$$$
=
 OpenBabel11112417363D

 28 31  0  0  1  0  0  0  0  0999 V2000
  192.6260  174.0690  143.1140 C   0  0  0  0  0  0  0  0  0  0  0  0
  189.4480  173.9240  140.8440 O   0  0  0  0  0  0  0  0  0  0  0  0
  192.5610  171.4790  144.1870 C   0  0  0  0  0  3  0  0  0  0  0  0
  192.6930  175.4360  142.5080 C   0  0  0  0  0  2  0  0  0  0  0  0
  188.0390  173.2960  142.7600 O   0  0  0  0  0  0  0  0  0  0  0  0
  188.6880  174.4400  142.0330 S   0  0  0  0  0  0  0  0  0  0  0  0
  188.0870  176.9090  141.4480 C   0  0  1  0  0  3  0  0  0  0  0  0
  189.7760  175.3380  143.1090 C   0  0  1  0  0  3  0  0  0  0  0  0
  194.6640  175.5250  145.1200 C   0  0  0  0  0  1  0  0  0  0  0  0
  190.5360  175.5720  145.3990 C   0  0  2  0  0  3  0  0  0  0  0  0
  188.4820  177.4700  142.8340 C   0  0  0  0  0  2  0  0  0  0  0  0
  187.4730  175.5770  141.5220 N   0  0  0  0  0  2  0  0  0  0  0  0
  193.9750  176.5750  144.3760 N   0  0  0  0  0  0  0  0  0  0  0  0
  191.5340  173.6660  143.9220 C   0  0  0  0  0  0  0  0  0  0  0  0
  187.1430  177.8700  140.7600 C   0  0  0  0  0  1  0  0  0  0  0  0
  192.6550  176.9510  144.9170 C   0  0  0  0  0  2  0  0  0  0  0  0
  191.5230  172.3730  144.4580 C   0  0  0  0  0  3  0  0  0  0  0  0
  193.6530  173.1580  142.8360 C   0  0  0  0  0  3  0  0  0  0  0  0
  193.6230  171.8700  143.3730 C   0  0  0  0  0  3  0  0  0  0  0  0
  193.9320  176.2280  142.9490 C   0  0  0  0  0  2  0  0  0  0  0  0
  189.7330  176.8180  144.9960 C   0  0  1  0  0  3  0  0  0  0  0  0
  191.9880  175.8820  145.8000 C   0  0  1  0  0  3  0  0  0  0  0  0
  188.9280  176.3690  143.7960 C   0  0  2  0  0  3  0  0  0  0  0  0
  190.3580  174.5520  144.2600 C   0  0  2  0  0  3  0  0  0  0  0  0
  191.4010  175.2650  147.8450 C   0  0  0  0  0  1  0  0  0  0  0  0
  192.0340  176.2880  147.1350 O   0  0  0  0  0  0  0  0  0  0  0  0
  188.8390  177.2050  146.0730 N   0  0  0  0  0  2  0  0  0  0  0  0
  188.0300  176.0430  146.3930 C   0  0  0  0  0  1  0  0  0  0  0  0
  1 14  1  0  0  0  0
  2  6  2  0  0  0  0
  3 17  1  0  0  0  0
  4 20  1  0  0  0  0
  4  1  1  0  0  0  0
  6  5  2  0  0  0  0
  7 15  1  1  0  0  0
  7 12  1  0  0  0  0
  7 11  1  0  0  0  0
  8  6  1  6  0  0  0
  8 23  1  0  0  0  0
  8 24  1  0  0  0  0
 10 22  1  0  0  0  0
 11 23  1  0  0  0  0
 12  6  1  0  0  0  0
 13 16  1  0  0  0  0
 13  9  1  0  0  0  0
 14 24  1  0  0  0  0
 14 17  2  0  0  0  0
 16 22  1  0  0  0  0
 18  1  2  0  0  0  0
 18 19  1  0  0  0  0
 19  3  2  0  0  0  0
 20 13  1  0  0  0  0
 21 10  1  0  0  0  0
 21 27  1  0  0  0  0
 22 26  1  0  0  0  0
 23 21  1  0  0  0  0
 24 10  1  0  0  0  0
 26 25  1  0  0  0  0
 27 28  1  0  0  0  0
M  END
>  <MODEL>
9

>  <REMARK>
 VINA RESULT:      -6.0      2.254      5.966
  Name = 
  2 active torsions:
  status: ('A' for Active; 'I' for Inactive)
    1  A    between atoms: N_5  and  C_24
    2  A    between atoms: O_17  and  C_25
                            x       y       z     vdW  Elec       q    Type
                         _______ _______ _______ _____ _____    ______ ____

>  <TORSDO>
F 2

$$$$
