=
 OpenBabel11112417013D

 31 35  0  0  1  0  0  0  0  0999 V2000
  194.2370  176.5460  145.0470 C   0  0  0  0  0  0  0  0  0  0  0  0
  190.7070  176.8950  143.6830 C   0  0  2  0  0  3  0  0  0  0  0  0
  190.1830  175.6430  143.0080 C   0  0  0  0  0  0  0  0  0  0  0  0
  190.5650  173.4650  141.9960 C   0  0  0  0  0  0  0  0  0  0  0  0
  191.8570  176.6320  144.6120 C   0  0  0  0  0  0  0  0  0  0  0  0
  193.9830  176.1290  146.3580 C   0  0  0  0  0  3  0  0  0  0  0  0
  191.0520  174.5980  142.6520 C   0  0  0  0  0  3  0  0  0  0  0  0
  189.2270  177.0730  145.8390 C   0  0  1  0  0  3  0  0  0  0  0  0
  195.5450  176.7110  144.6130 O   0  0  0  0  0  1  0  0  0  0  0  0
  187.9170  176.6160  142.9700 N   0  0  0  0  0  2  0  0  0  0  0  0
  191.4920  172.3600  141.6390 C   0  0  0  0  0  1  0  0  0  0  0  0
  190.1930  175.9990  146.3720 C   0  0  0  0  0  2  0  0  0  0  0  0
  189.5920  177.6520  144.4390 C   0  0  2  0  0  3  0  0  0  0  0  0
  193.1740  176.7960  144.1730 C   0  0  0  0  0  3  0  0  0  0  0  0
  189.2090  173.3710  141.6740 C   0  0  0  0  0  3  0  0  0  0  0  0
  191.6030  176.2240  145.9300 C   0  0  0  0  0  0  0  0  0  0  0  0
  192.6670  175.9630  146.7980 C   0  0  0  0  0  3  0  0  0  0  0  0
  188.3910  177.8850  143.5180 C   0  0  0  0  0  2  0  0  0  0  0  0
  188.8220  175.5560  142.6470 C   0  0  0  0  0  0  0  0  0  0  0  0
  188.3390  174.4160  141.9980 C   0  0  0  0  0  3  0  0  0  0  0  0
  187.8950  176.5700  145.8710 O   0  0  0  0  0  0  0  0  0  0  0  0
  187.5830  175.4330  147.8600 O   0  0  0  0  0  0  0  0  0  0  0  0
  187.2030  176.3310  147.0630 C   0  0  0  0  0  0  0  0  0  0  0  0
  185.0050  179.1080  145.3690 C   0  0  1  0  0  3  0  0  0  0  0  0
  184.8600  176.8590  146.4080 C   0  0  0  0  0  2  0  0  0  0  0  0
  187.0010  179.0570  148.4270 O   0  0  0  0  0  0  0  0  0  0  0  0
  185.2590  179.8790  144.0910 C   0  0  0  0  0  1  0  0  0  0  0  0
  185.0540  177.6120  145.0940 C   0  0  0  0  0  2  0  0  0  0  0  0
  186.3420  178.6090  147.4540 C   0  0  0  0  0  0  0  0  0  0  0  0
  185.9960  177.1460  147.3970 C   0  0  2  0  0  3  0  0  0  0  0  0
  185.9930  179.4820  146.3740 N   0  0  0  0  0  2  0  0  0  0  0  0
  1  6  1  0  0  0  0
  2  3  1  1  0  0  0
  2 13  1  0  0  0  0
  2  5  1  0  0  0  0
  4  7  2  0  0  0  0
  5 16  2  0  0  0  0
  6 17  2  0  0  0  0
  7  3  1  0  0  0  0
  8 21  1  6  0  0  0
  8 12  1  0  0  0  0
  9  1  1  0  0  0  0
 10 18  1  0  0  0  0
 11  4  1  0  0  0  0
 13 18  1  6  0  0  0
 13  8  1  0  0  0  0
 14  5  1  0  0  0  0
 14  1  2  0  0  0  0
 15  4  1  0  0  0  0
 15 20  2  0  0  0  0
 16 12  1  0  0  0  0
 16 17  1  0  0  0  0
 19 10  1  0  0  0  0
 19  3  2  0  0  0  0
 20 19  1  0  0  0  0
 21 23  1  0  0  0  0
 23 22  2  0  0  0  0
 24 27  1  6  0  0  0
 24 31  1  0  0  0  0
 25 30  1  0  0  0  0
 28 24  1  0  0  0  0
 28 25  1  0  0  0  0
 29 26  2  0  0  0  0
 30 23  1  6  0  0  0
 30 29  1  0  0  0  0
 31 29  1  0  0  0  0
M  END
>  <MODEL>
1

>  <REMARK>
 VINA RESULT:      -8.6      0.000      0.000
  Name = 
  3 active torsions:
  status: ('A' for Active; 'I' for Inactive)
    1  A    between atoms: C_5  and  O_16
    2  A    between atoms: C_5  and  C_30
    3  A    between atoms: C_10  and  O_16
                            x       y       z     vdW  Elec       q    Type
                         _______ _______ _______ _____ _____    ______ ____

>  <TORSDO>
F 3

$$$$
=
 OpenBabel11112417013D

 31 35  0  0  1  0  0  0  0  0999 V2000
  186.4670  177.7860  140.5700 C   0  0  0  0  0  0  0  0  0  0  0  0
  189.0720  177.7620  143.3370 C   0  0  2  0  0  3  0  0  0  0  0  0
  188.5450  177.2710  144.6720 C   0  0  0  0  0  0  0  0  0  0  0  0
  186.6900  176.7450  146.1520 C   0  0  0  0  0  0  0  0  0  0  0  0
  188.2250  177.3360  142.1720 C   0  0  0  0  0  0  0  0  0  0  0  0
  186.6550  176.5190  140.0070 C   0  0  0  0  0  3  0  0  0  0  0  0
  187.1650  177.1610  144.9060 C   0  0  0  0  0  3  0  0  0  0  0  0
  190.7230  175.8580  142.6140 C   0  0  1  0  0  3  0  0  0  0  0  0
  185.5000  178.6380  140.0530 O   0  0  0  0  0  1  0  0  0  0  0  0
  190.8550  177.1380  145.5290 N   0  0  0  0  0  2  0  0  0  0  0  0
  185.2270  176.6170  146.3810 C   0  0  0  0  0  1  0  0  0  0  0  0
  189.4260  175.1400  142.1970 C   0  0  0  0  0  2  0  0  0  0  0  0
  190.5360  177.3270  143.1000 C   0  0  2  0  0  3  0  0  0  0  0  0
  187.2510  178.1940  141.6540 C   0  0  0  0  0  3  0  0  0  0  0  0
  187.5860  176.4510  147.1810 C   0  0  0  0  0  3  0  0  0  0  0  0
  188.4200  176.0700  141.6000 C   0  0  0  0  0  0  0  0  0  0  0  0
  187.6270  175.6590  140.5250 C   0  0  0  0  0  3  0  0  0  0  0  0
  191.4040  177.7100  144.3020 C   0  0  0  0  0  2  0  0  0  0  0  0
  189.4430  177.0070  145.7280 C   0  0  0  0  0  0  0  0  0  0  0  0
  188.9610  176.5840  146.9690 C   0  0  0  0  0  3  0  0  0  0  0  0
  191.4160  175.0680  143.5750 O   0  0  0  0  0  0  0  0  0  0  0  0
  191.7760  172.9980  142.6110 O   0  0  0  0  0  0  0  0  0  0  0  0
  192.2410  173.9960  143.2220 C   0  0  0  0  0  0  0  0  0  0  0  0
  194.5760  175.8600  145.7690 C   0  0  1  0  0  3  0  0  0  0  0  0
  193.9050  173.5880  145.0280 C   0  0  0  0  0  2  0  0  0  0  0  0
  194.4810  175.7560  142.1200 O   0  0  0  0  0  0  0  0  0  0  0  0
  194.2530  177.0190  146.6880 C   0  0  0  0  0  1  0  0  0  0  0  0
  193.5990  174.7170  146.0100 C   0  0  0  0  0  2  0  0  0  0  0  0
  194.2740  175.3910  143.3060 C   0  0  0  0  0  0  0  0  0  0  0  0
  193.6930  174.0290  143.5750 C   0  0  2  0  0  3  0  0  0  0  0  0
  194.5230  176.3020  144.3810 N   0  0  0  0  0  2  0  0  0  0  0  0
  1 14  1  0  0  0  0
  2  5  1  6  0  0  0
  2  3  1  0  0  0  0
  3  7  2  0  0  0  0
  3 19  1  0  0  0  0
  4 11  1  0  0  0  0
  4 15  2  0  0  0  0
  6 17  1  0  0  0  0
  6  1  2  0  0  0  0
  7  4  1  0  0  0  0
  8 13  1  0  0  0  0
  8 21  1  1  0  0  0
  9  1  1  0  0  0  0
 10 19  1  0  0  0  0
 12  8  1  0  0  0  0
 13  2  1  0  0  0  0
 13 18  1  1  0  0  0
 14  5  2  0  0  0  0
 16  5  1  0  0  0  0
 16 12  1  0  0  0  0
 17 16  2  0  0  0  0
 18 10  1  0  0  0  0
 19 20  2  0  0  0  0
 20 15  1  0  0  0  0
 22 23  2  0  0  0  0
 23 21  1  0  0  0  0
 24 28  1  0  0  0  0
 24 27  1  1  0  0  0
 25 28  1  0  0  0  0
 26 29  2  0  0  0  0
 29 30  1  0  0  0  0
 29 31  1  0  0  0  0
 30 23  1  1  0  0  0
 30 25  1  0  0  0  0
 31 24  1  0  0  0  0
M  END
>  <MODEL>
2

>  <REMARK>
 VINA RESULT:      -8.0      2.784      7.237
  Name = 
  3 active torsions:
  status: ('A' for Active; 'I' for Inactive)
    1  A    between atoms: C_5  and  O_16
    2  A    between atoms: C_5  and  C_30
    3  A    between atoms: C_10  and  O_16
                            x       y       z     vdW  Elec       q    Type
                         _______ _______ _______ _____ _____    ______ ____

>  <TORSDO>
F 3

$$$$
=
 OpenBabel11112417013D

 31 35  0  0  1  0  0  0  0  0999 V2000
  187.0890  177.1340  140.3840 C   0  0  0  0  0  0  0  0  0  0  0  0
  189.3460  177.4320  143.4280 C   0  0  2  0  0  3  0  0  0  0  0  0
  188.6450  177.1480  144.7420 C   0  0  0  0  0  0  0  0  0  0  0  0
  186.6070  176.8820  146.0410 C   0  0  0  0  0  0  0  0  0  0  0  0
  188.6250  176.8690  142.2370 C   0  0  0  0  0  0  0  0  0  0  0  0
  187.2890  175.7960  140.0270 C   0  0  0  0  0  3  0  0  0  0  0  0
  187.2430  177.1060  144.8180 C   0  0  0  0  0  3  0  0  0  0  0  0
  190.9890  175.4050  143.1790 C   0  0  1  0  0  3  0  0  0  0  0  0
  186.2270  177.9290  139.6420 O   0  0  0  0  0  1  0  0  0  0  0  0
  190.8290  177.0780  145.8860 N   0  0  0  0  0  2  0  0  0  0  0  0
  185.1240  176.8250  146.1040 C   0  0  0  0  0  1  0  0  0  0  0  0
  189.7210  174.6680  142.7080 C   0  0  0  0  0  2  0  0  0  0  0  0
  190.8070  176.9320  143.4340 C   0  0  2  0  0  3  0  0  0  0  0  0
  187.7560  177.6700  141.4900 C   0  0  0  0  0  3  0  0  0  0  0  0
  187.3630  176.7130  147.2030 C   0  0  0  0  0  3  0  0  0  0  0  0
  188.8330  175.5310  141.8710 C   0  0  0  0  0  0  0  0  0  0  0  0
  188.1560  174.9930  140.7730 C   0  0  0  0  0  3  0  0  0  0  0  0
  191.5430  177.4580  144.6700 C   0  0  0  0  0  2  0  0  0  0  0  0
  189.4000  177.0120  145.9260 C   0  0  0  0  0  0  0  0  0  0  0  0
  188.7580  176.7790  147.1460 C   0  0  0  0  0  3  0  0  0  0  0  0
  191.5290  174.7400  144.3170 O   0  0  0  0  0  0  0  0  0  0  0  0
  193.3560  173.8360  143.2250 O   0  0  0  0  0  0  0  0  0  0  0  0
  192.7860  174.1270  144.3100 C   0  0  0  0  0  0  0  0  0  0  0  0
  196.4440  173.9800  145.7260 C   0  0  1  0  0  3  0  0  0  0  0  0
  194.2290  175.0250  146.1290 C   0  0  0  0  0  2  0  0  0  0  0  0
  193.8310  171.4560  145.3600 O   0  0  0  0  0  0  0  0  0  0  0  0
  197.7600  174.0890  144.9850 C   0  0  0  0  0  1  0  0  0  0  0  0
  195.5720  175.1910  145.4220 C   0  0  0  0  0  2  0  0  0  0  0  0
  194.3470  172.5990  145.4560 C   0  0  0  0  0  0  0  0  0  0  0  0
  193.4610  173.8060  145.6040 C   0  0  2  0  0  3  0  0  0  0  0  0
  195.7670  172.7460  145.3470 N   0  0  0  0  0  2  0  0  0  0  0  0
  1 14  1  0  0  0  0
  2  5  1  6  0  0  0
  2 13  1  0  0  0  0
  2  3  1  0  0  0  0
  3  7  2  0  0  0  0
  3 19  1  0  0  0  0
  4 11  1  0  0  0  0
  4 15  2  0  0  0  0
  6  1  2  0  0  0  0
  6 17  1  0  0  0  0
  7  4  1  0  0  0  0
  8 13  1  0  0  0  0
  8 21  1  1  0  0  0
  9  1  1  0  0  0  0
 10 19  1  0  0  0  0
 12  8  1  0  0  0  0
 13 18  1  1  0  0  0
 14  5  2  0  0  0  0
 16  5  1  0  0  0  0
 16 12  1  0  0  0  0
 17 16  2  0  0  0  0
 18 10  1  0  0  0  0
 19 20  2  0  0  0  0
 20 15  1  0  0  0  0
 22 23  2  0  0  0  0
 23 21  1  0  0  0  0
 24 27  1  6  0  0  0
 26 29  2  0  0  0  0
 28 24  1  0  0  0  0
 28 25  1  0  0  0  0
 29 30  1  0  0  0  0
 30 23  1  6  0  0  0
 30 25  1  0  0  0  0
 31 29  1  0  0  0  0
 31 24  1  0  0  0  0
M  END
>  <MODEL>
3

>  <REMARK>
 VINA RESULT:      -7.9      3.150      7.668
  Name = 
  3 active torsions:
  status: ('A' for Active; 'I' for Inactive)
    1  A    between atoms: C_5  and  O_16
    2  A    between atoms: C_5  and  C_30
    3  A    between atoms: C_10  and  O_16
                            x       y       z     vdW  Elec       q    Type
                         _______ _______ _______ _____ _____    ______ ____

>  <TORSDO>
F 3

$$$$
=
 OpenBabel11112417013D

 31 35  0  0  1  0  0  0  0  0999 V2000
  196.5520  170.4860  145.8700 C   0  0  0  0  0  0  0  0  0  0  0  0
  195.7580  174.1870  145.5170 C   0  0  2  0  0  3  0  0  0  0  0  0
  195.9440  174.7230  144.1110 C   0  0  0  0  0  0  0  0  0  0  0  0
  196.8470  174.5060  141.8650 C   0  0  0  0  0  0  0  0  0  0  0  0
  195.6040  172.6930  145.5670 C   0  0  0  0  0  0  0  0  0  0  0  0
  195.2940  169.9150  145.6490 C   0  0  0  0  0  3  0  0  0  0  0  0
  196.6480  173.9860  143.1450 C   0  0  0  0  0  3  0  0  0  0  0  0
  193.1610  174.2960  145.8580 C   0  0  1  0  0  3  0  0  0  0  0  0
  197.6470  169.6740  146.1290 O   0  0  0  0  0  1  0  0  0  0  0  0
  194.7890  176.8050  144.7580 N   0  0  0  0  0  2  0  0  0  0  0  0
  197.5800  173.7090  140.8470 C   0  0  0  0  0  1  0  0  0  0  0  0
  193.1790  173.0010  145.0250 C   0  0  0  0  0  2  0  0  0  0  0  0
  194.5660  174.8550  146.2370 C   0  0  2  0  0  3  0  0  0  0  0  0
  196.7070  171.8760  145.8280 C   0  0  0  0  0  3  0  0  0  0  0  0
  196.3590  175.7740  141.5400 C   0  0  0  0  0  3  0  0  0  0  0  0
  194.3410  172.1210  145.3570 C   0  0  0  0  0  0  0  0  0  0  0  0
  194.1890  170.7310  145.3870 C   0  0  0  0  0  3  0  0  0  0  0  0
  194.6830  176.3800  146.1520 C   0  0  0  0  0  2  0  0  0  0  0  0
  195.4860  176.0170  143.7870 C   0  0  0  0  0  0  0  0  0  0  0  0
  195.6810  176.5290  142.5000 C   0  0  0  0  0  3  0  0  0  0  0  0
  192.3640  175.2740  145.1970 O   0  0  0  0  0  0  0  0  0  0  0  0
  191.1560  176.7720  146.4770 O   0  0  0  0  0  0  0  0  0  0  0  0
  191.1660  175.7590  145.7280 C   0  0  0  0  0  0  0  0  0  0  0  0
  187.3850  176.7140  145.2680 C   0  0  1  0  0  3  0  0  0  0  0  0
  189.2820  175.6130  144.1060 C   0  0  0  0  0  2  0  0  0  0  0  0
  189.1100  174.4960  147.6010 O   0  0  0  0  0  0  0  0  0  0  0  0
  186.6910  178.0280  145.5560 C   0  0  0  0  0  1  0  0  0  0  0  0
  188.5620  176.9410  144.3280 C   0  0  0  0  0  2  0  0  0  0  0  0
  188.9180  175.1790  146.5620 C   0  0  0  0  0  0  0  0  0  0  0  0
  189.8790  175.0690  145.4100 C   0  0  2  0  0  3  0  0  0  0  0  0
  187.8310  176.1090  146.5180 N   0  0  0  0  0  2  0  0  0  0  0  0
  1  9  1  0  0  0  0
  2  3  1  6  0  0  0
  2  5  1  0  0  0  0
  2 13  1  0  0  0  0
  4  7  1  0  0  0  0
  5 14  2  0  0  0  0
  6  1  2  0  0  0  0
  7  3  2  0  0  0  0
  8 21  1  6  0  0  0
  8 13  1  0  0  0  0
 10 18  1  0  0  0  0
 11  4  1  0  0  0  0
 12 16  1  0  0  0  0
 12  8  1  0  0  0  0
 13 18  1  6  0  0  0
 14  1  1  0  0  0  0
 15  4  2  0  0  0  0
 15 20  1  0  0  0  0
 16 17  2  0  0  0  0
 16  5  1  0  0  0  0
 17  6  1  0  0  0  0
 19  3  1  0  0  0  0
 19 10  1  0  0  0  0
 20 19  2  0  0  0  0
 21 23  1  0  0  0  0
 23 22  2  0  0  0  0
 24 27  1  1  0  0  0
 24 31  1  0  0  0  0
 25 28  1  0  0  0  0
 25 30  1  0  0  0  0
 28 24  1  0  0  0  0
 29 26  2  0  0  0  0
 30 23  1  1  0  0  0
 30 29  1  0  0  0  0
 31 29  1  0  0  0  0
M  END
>  <MODEL>
4

>  <REMARK>
 VINA RESULT:      -7.9      3.832      5.644
  Name = 
  3 active torsions:
  status: ('A' for Active; 'I' for Inactive)
    1  A    between atoms: C_5  and  O_16
    2  A    between atoms: C_5  and  C_30
    3  A    between atoms: C_10  and  O_16
                            x       y       z     vdW  Elec       q    Type
                         _______ _______ _______ _____ _____    ______ ____

>  <TORSDO>
F 3

$$$$
=
 OpenBabel11112417013D

 31 35  0  0  1  0  0  0  0  0999 V2000
  195.4660  175.3230  143.6810 C   0  0  0  0  0  0  0  0  0  0  0  0
  192.1700  173.6160  144.5010 C   0  0  2  0  0  3  0  0  0  0  0  0
  191.3680  174.3150  145.5810 C   0  0  0  0  0  0  0  0  0  0  0  0
  191.2210  175.9050  147.4140 C   0  0  0  0  0  0  0  0  0  0  0  0
  193.1940  174.5030  143.8530 C   0  0  0  0  0  0  0  0  0  0  0  0
  195.0820  176.1700  142.6360 C   0  0  0  0  0  3  0  0  0  0  0  0
  191.9570  175.2940  146.3970 C   0  0  0  0  0  3  0  0  0  0  0  0
  190.7260  173.9960  142.3470 C   0  0  1  0  0  3  0  0  0  0  0  0
  196.7840  175.3110  144.1150 O   0  0  0  0  0  1  0  0  0  0  0  0
  189.4180  172.9050  145.0390 N   0  0  0  0  0  2  0  0  0  0  0  0
  191.8520  176.9510  148.2610 C   0  0  0  0  0  1  0  0  0  0  0  0
  191.3790  175.3900  142.3730 C   0  0  0  0  0  2  0  0  0  0  0  0
  191.2600  172.9960  143.4170 C   0  0  2  0  0  3  0  0  0  0  0  0
  194.5210  174.4910  144.2910 C   0  0  0  0  0  3  0  0  0  0  0  0
  189.8930  175.5340  147.6380 C   0  0  0  0  0  3  0  0  0  0  0  0
  192.8120  175.3440  142.7970 C   0  0  0  0  0  0  0  0  0  0  0  0
  193.7540  176.1850  142.1970 C   0  0  0  0  0  3  0  0  0  0  0  0
  190.1790  172.1270  144.0650 C   0  0  0  0  0  2  0  0  0  0  0  0
  190.0380  173.9200  145.8360 C   0  0  0  0  0  0  0  0  0  0  0  0
  189.3030  174.5410  146.8500 C   0  0  0  0  0  3  0  0  0  0  0  0
  189.3100  174.1350  142.4140 O   0  0  0  0  0  0  0  0  0  0  0  0
  188.1920  175.5290  140.9480 O   0  0  0  0  0  0  0  0  0  0  0  0
  188.6500  175.3270  142.1040 C   0  0  0  0  0  0  0  0  0  0  0  0
  185.9220  177.9150  143.2330 C   0  0  1  0  0  3  0  0  0  0  0  0
  187.3130  176.0410  144.0790 C   0  0  0  0  0  2  0  0  0  0  0  0
  189.3420  178.3010  142.0130 O   0  0  0  0  0  0  0  0  0  0  0  0
  184.6280  178.2980  142.5480 C   0  0  0  0  0  1  0  0  0  0  0  0
  185.9730  176.4080  143.4460 C   0  0  0  0  0  2  0  0  0  0  0  0
  188.3390  177.7380  142.5230 C   0  0  0  0  0  0  0  0  0  0  0  0
  188.4870  176.3800  143.1520 C   0  0  2  0  0  3  0  0  0  0  0  0
  187.0550  178.3630  142.4320 N   0  0  0  0  0  2  0  0  0  0  0  0
  1  9  1  0  0  0  0
  1 14  1  0  0  0  0
  2  5  1  6  0  0  0
  2  3  1  0  0  0  0
  3 19  2  0  0  0  0
  3  7  1  0  0  0  0
  4 15  1  0  0  0  0
  4 11  1  0  0  0  0
  5 14  2  0  0  0  0
  6  1  2  0  0  0  0
  7  4  2  0  0  0  0
  8 12  1  0  0  0  0
  8 21  1  1  0  0  0
  8 13  1  0  0  0  0
 10 19  1  0  0  0  0
 12 16  1  0  0  0  0
 13 18  1  1  0  0  0
 13  2  1  0  0  0  0
 16  5  1  0  0  0  0
 17  6  1  0  0  0  0
 17 16  2  0  0  0  0
 18 10  1  0  0  0  0
 19 20  1  0  0  0  0
 20 15  2  0  0  0  0
 22 23  2  0  0  0  0
 23 21  1  0  0  0  0
 24 27  1  6  0  0  0
 24 28  1  0  0  0  0
 26 29  2  0  0  0  0
 28 25  1  0  0  0  0
 29 30  1  0  0  0  0
 30 23  1  6  0  0  0
 30 25  1  0  0  0  0
 31 29  1  0  0  0  0
 31 24  1  0  0  0  0
M  END
>  <MODEL>
5

>  <REMARK>
 VINA RESULT:      -7.8      2.803      4.612
  Name = 
  3 active torsions:
  status: ('A' for Active; 'I' for Inactive)
    1  A    between atoms: C_5  and  O_16
    2  A    between atoms: C_5  and  C_30
    3  A    between atoms: C_10  and  O_16
                            x       y       z     vdW  Elec       q    Type
                         _______ _______ _______ _____ _____    ______ ____

>  <TORSDO>
F 3

$$$$
=
 OpenBabel11112417013D

 31 35  0  0  1  0  0  0  0  0999 V2000
  192.5570  170.4600  142.6800 C   0  0  0  0  0  0  0  0  0  0  0  0
  191.2650  173.0670  145.1270 C   0  0  2  0  0  3  0  0  0  0  0  0
  192.3060  174.0880  145.5410 C   0  0  0  0  0  0  0  0  0  0  0  0
  194.6240  174.8020  145.7080 C   0  0  0  0  0  0  0  0  0  0  0  0
  191.6070  172.3560  143.8480 C   0  0  0  0  0  0  0  0  0  0  0  0
  192.2400  171.0560  141.4540 C   0  0  0  0  0  3  0  0  0  0  0  0
  193.6700  173.8720  145.2870 C   0  0  0  0  0  3  0  0  0  0  0  0
  189.5830  174.4770  143.6940 C   0  0  1  0  0  3  0  0  0  0  0  0
  193.1860  169.2230  142.7080 O   0  0  0  0  0  1  0  0  0  0  0  0
  190.5370  175.4660  146.5690 N   0  0  0  0  0  2  0  0  0  0  0  0
  196.0630  174.5680  145.4200 C   0  0  0  0  0  1  0  0  0  0  0  0
  190.6510  174.3040  142.5980 C   0  0  0  0  0  2  0  0  0  0  0  0
  189.8570  173.6910  145.0120 C   0  0  2  0  0  3  0  0  0  0  0  0
  192.2420  171.1110  143.8770 C   0  0  0  0  0  3  0  0  0  0  0  0
  194.2280  175.9490  146.3990 C   0  0  0  0  0  3  0  0  0  0  0  0
  191.2800  172.9480  142.6190 C   0  0  0  0  0  0  0  0  0  0  0  0
  191.6070  172.3020  141.4230 C   0  0  0  0  0  3  0  0  0  0  0  0
  189.5140  174.4620  146.2900 C   0  0  0  0  0  2  0  0  0  0  0  0
  191.9170  175.2310  146.2710 C   0  0  0  0  0  0  0  0  0  0  0  0
  192.8760  176.1620  146.6810 C   0  0  0  0  0  3  0  0  0  0  0  0
  189.3770  175.8650  143.9400 O   0  0  0  0  0  0  0  0  0  0  0  0
  187.1780  175.8890  143.2290 O   0  0  0  0  0  0  0  0  0  0  0  0
  188.1320  176.4830  143.7970 C   0  0  0  0  0  0  0  0  0  0  0  0
  185.4980  178.4120  145.9780 C   0  0  1  0  0  3  0  0  0  0  0  0
  187.9170  177.8710  145.8530 C   0  0  0  0  0  2  0  0  0  0  0  0
  186.6590  178.8470  142.5430 O   0  0  0  0  0  0  0  0  0  0  0  0
  184.1390  177.9520  146.4620 C   0  0  0  0  0  1  0  0  0  0  0  0
  186.5680  177.4190  146.4080 C   0  0  0  0  0  2  0  0  0  0  0  0
  186.6750  178.4740  143.7440 C   0  0  0  0  0  0  0  0  0  0  0  0
  187.9260  177.8680  144.3200 C   0  0  2  0  0  3  0  0  0  0  0  0
  185.4800  178.5580  144.5270 N   0  0  0  0  0  2  0  0  0  0  0  0
  1  9  1  0  0  0  0
  1 14  1  0  0  0  0
  2  5  1  6  0  0  0
  2  3  1  0  0  0  0
  3 19  1  0  0  0  0
  4 15  2  0  0  0  0
  5 14  2  0  0  0  0
  6  1  2  0  0  0  0
  7  3  2  0  0  0  0
  7  4  1  0  0  0  0
  8 21  1  1  0  0  0
  8 13  1  0  0  0  0
 11  4  1  0  0  0  0
 12 16  1  0  0  0  0
 12  8  1  0  0  0  0
 13  2  1  0  0  0  0
 13 18  1  1  0  0  0
 15 20  1  0  0  0  0
 16  5  1  0  0  0  0
 17  6  1  0  0  0  0
 17 16  2  0  0  0  0
 18 10  1  0  0  0  0
 19 10  1  0  0  0  0
 19 20  2  0  0  0  0
 22 23  2  0  0  0  0
 23 21  1  0  0  0  0
 24 28  1  0  0  0  0
 24 27  1  6  0  0  0
 25 28  1  0  0  0  0
 26 29  2  0  0  0  0
 29 30  1  0  0  0  0
 29 31  1  0  0  0  0
 30 23  1  6  0  0  0
 30 25  1  0  0  0  0
 31 24  1  0  0  0  0
M  END
>  <MODEL>
6

>  <REMARK>
 VINA RESULT:      -7.8      2.548      4.886
  Name = 
  3 active torsions:
  status: ('A' for Active; 'I' for Inactive)
    1  A    between atoms: C_5  and  O_16
    2  A    between atoms: C_5  and  C_30
    3  A    between atoms: C_10  and  O_16
                            x       y       z     vdW  Elec       q    Type
                         _______ _______ _______ _____ _____    ______ ____

>  <TORSDO>
F 3

$$$$
=
 OpenBabel11112417013D

 31 35  0  0  1  0  0  0  0  0999 V2000
  192.0430  171.4280  142.5400 C   0  0  0  0  0  0  0  0  0  0  0  0
  191.1560  173.6620  145.4840 C   0  0  2  0  0  3  0  0  0  0  0  0
  192.2190  174.6910  145.8160 C   0  0  0  0  0  0  0  0  0  0  0  0
  194.4970  175.5180  145.6290 C   0  0  0  0  0  0  0  0  0  0  0  0
  191.2690  173.1210  144.0880 C   0  0  0  0  0  0  0  0  0  0  0  0
  191.4720  172.1380  141.4780 C   0  0  0  0  0  3  0  0  0  0  0  0
  193.5150  174.5870  145.2860 C   0  0  0  0  0  3  0  0  0  0  0  0
  189.1770  175.1220  144.5770 C   0  0  1  0  0  3  0  0  0  0  0  0
  192.7110  170.2360  142.2980 O   0  0  0  0  0  1  0  0  0  0  0  0
  190.6330  175.8360  147.3200 N   0  0  0  0  0  2  0  0  0  0  0  0
  195.8600  175.4050  145.0480 C   0  0  0  0  0  1  0  0  0  0  0  0
  190.0170  175.1360  143.2870 C   0  0  0  0  0  2  0  0  0  0  0  0
  189.7300  174.2110  145.7150 C   0  0  2  0  0  3  0  0  0  0  0  0
  191.9430  171.9210  143.8450 C   0  0  0  0  0  3  0  0  0  0  0  0
  194.2010  176.5550  146.5170 C   0  0  0  0  0  3  0  0  0  0  0  0
  190.6870  173.8260  143.0240 C   0  0  0  0  0  0  0  0  0  0  0  0
  190.7990  173.3400  141.7180 C   0  0  0  0  0  3  0  0  0  0  0  0
  189.6130  174.8110  147.1190 C   0  0  0  0  0  2  0  0  0  0  0  0
  191.9370  175.7200  146.7400 C   0  0  0  0  0  0  0  0  0  0  0  0
  192.9220  176.6540  147.0730 C   0  0  0  0  0  3  0  0  0  0  0  0
  188.9710  176.4580  145.0240 O   0  0  0  0  0  0  0  0  0  0  0  0
  188.6400  178.3350  143.7160 O   0  0  0  0  0  0  0  0  0  0  0  0
  188.1480  177.3650  144.3500 C   0  0  0  0  0  0  0  0  0  0  0  0
  185.0970  177.8880  141.9350 C   0  0  1  0  0  3  0  0  0  0  0  0
  186.2180  176.1670  143.3290 C   0  0  0  0  0  2  0  0  0  0  0  0
  185.9610  179.3320  145.1760 O   0  0  0  0  0  0  0  0  0  0  0  0
  185.0550  178.5660  140.5820 C   0  0  0  0  0  1  0  0  0  0  0  0
  186.1520  176.7910  141.9360 C   0  0  0  0  0  2  0  0  0  0  0  0
  185.9660  178.5100  144.2230 C   0  0  0  0  0  0  0  0  0  0  0  0
  186.6640  177.1870  144.3830 C   0  0  2  0  0  3  0  0  0  0  0  0
  185.3750  178.8750  142.9720 N   0  0  0  0  0  2  0  0  0  0  0  0
  1 14  1  0  0  0  0
  2  5  1  6  0  0  0
  2 13  1  0  0  0  0
  2  3  1  0  0  0  0
  3 19  1  0  0  0  0
  4 15  2  0  0  0  0
  6 17  1  0  0  0  0
  6  1  2  0  0  0  0
  7  4  1  0  0  0  0
  7  3  2  0  0  0  0
  8 21  1  1  0  0  0
  8 13  1  0  0  0  0
  9  1  1  0  0  0  0
 11  4  1  0  0  0  0
 12  8  1  0  0  0  0
 13 18  1  1  0  0  0
 14  5  2  0  0  0  0
 15 20  1  0  0  0  0
 16 12  1  0  0  0  0
 16  5  1  0  0  0  0
 17 16  2  0  0  0  0
 18 10  1  0  0  0  0
 19 20  2  0  0  0  0
 19 10  1  0  0  0  0
 22 23  2  0  0  0  0
 23 21  1  0  0  0  0
 24 27  1  6  0  0  0
 24 28  1  0  0  0  0
 24 31  1  0  0  0  0
 25 30  1  0  0  0  0
 28 25  1  0  0  0  0
 29 30  1  0  0  0  0
 29 26  2  0  0  0  0
 30 23  1  6  0  0  0
 31 29  1  0  0  0  0
M  END
>  <MODEL>
7

>  <REMARK>
 VINA RESULT:      -7.7      2.561      4.720
  Name = 
  3 active torsions:
  status: ('A' for Active; 'I' for Inactive)
    1  A    between atoms: C_5  and  O_16
    2  A    between atoms: C_5  and  C_30
    3  A    between atoms: C_10  and  O_16
                            x       y       z     vdW  Elec       q    Type
                         _______ _______ _______ _____ _____    ______ ____

>  <TORSDO>
F 3

$$$$
=
 OpenBabel11112417013D

 31 35  0  0  1  0  0  0  0  0999 V2000
  186.2210  178.0140  146.9050 C   0  0  0  0  0  0  0  0  0  0  0  0
  189.4060  177.9070  144.8330 C   0  0  2  0  0  3  0  0  0  0  0  0
  190.4430  176.9310  145.3520 C   0  0  0  0  0  0  0  0  0  0  0  0
  191.3210  175.5180  147.1260 C   0  0  0  0  0  0  0  0  0  0  0  0
  188.0180  177.6190  145.3310 C   0  0  0  0  0  0  0  0  0  0  0  0
  185.4350  177.0620  146.2450 C   0  0  0  0  0  3  0  0  0  0  0  0
  190.3390  176.3860  146.6420 C   0  0  0  0  0  3  0  0  0  0  0  0
  188.6380  176.8150  142.5770 C   0  0  1  0  0  3  0  0  0  0  0  0
  185.7180  178.6810  148.0130 O   0  0  0  0  0  1  0  0  0  0  0  0
  191.7270  177.1910  143.2620 N   0  0  0  0  0  2  0  0  0  0  0  0
  191.1910  174.9370  148.4870 C   0  0  0  0  0  1  0  0  0  0  0  0
  187.7950  175.9220  143.5050 C   0  0  0  0  0  2  0  0  0  0  0  0
  189.3990  177.9740  143.2900 C   0  0  2  0  0  3  0  0  0  0  0  0
  187.5130  178.2910  146.4490 C   0  0  0  0  0  3  0  0  0  0  0  0
  192.4240  175.1970  146.3320 C   0  0  0  0  0  3  0  0  0  0  0  0
  187.2260  176.6740  144.6640 C   0  0  0  0  0  0  0  0  0  0  0  0
  185.9380  176.3880  145.1290 C   0  0  0  0  0  3  0  0  0  0  0  0
  190.8160  178.2180  142.7630 C   0  0  0  0  0  2  0  0  0  0  0  0
  191.5790  176.6300  144.5710 C   0  0  0  0  0  0  0  0  0  0  0  0
  192.5530  175.7540  145.0560 C   0  0  0  0  0  3  0  0  0  0  0  0
  189.5170  176.0020  141.8060 O   0  0  0  0  0  0  0  0  0  0  0  0
  188.0700  175.1640  140.2090 O   0  0  0  0  0  0  0  0  0  0  0  0
  189.0630  174.9830  140.9630 C   0  0  0  0  0  0  0  0  0  0  0  0
  189.8740  172.1080  143.5100 C   0  0  1  0  0  3  0  0  0  0  0  0
  188.7830  172.5360  141.3220 C   0  0  0  0  0  2  0  0  0  0  0  0
  191.9920  174.3120  141.5120 O   0  0  0  0  0  0  0  0  0  0  0  0
  189.6910  172.0840  145.0130 C   0  0  0  0  0  1  0  0  0  0  0  0
  188.5570  172.4550  142.8300 C   0  0  0  0  0  2  0  0  0  0  0  0
  190.9590  173.6870  141.8640 C   0  0  0  0  0  0  0  0  0  0  0  0
  189.7590  173.6600  140.9570 C   0  0  2  0  0  3  0  0  0  0  0  0
  190.9090  173.0720  143.1560 N   0  0  0  0  0  2  0  0  0  0  0  0
  1  9  1  0  0  0  0
  2  5  1  6  0  0  0
  2  3  1  0  0  0  0
  3  7  1  0  0  0  0
  4 11  1  0  0  0  0
  5 14  2  0  0  0  0
  6  1  2  0  0  0  0
  7  4  2  0  0  0  0
  8 21  1  1  0  0  0
  8 13  1  0  0  0  0
  8 12  1  0  0  0  0
 10 19  1  0  0  0  0
 12 16  1  0  0  0  0
 13 18  1  6  0  0  0
 13  2  1  0  0  0  0
 14  1  1  0  0  0  0
 15  4  1  0  0  0  0
 16 17  2  0  0  0  0
 16  5  1  0  0  0  0
 17  6  1  0  0  0  0
 18 10  1  0  0  0  0
 19 20  1  0  0  0  0
 19  3  2  0  0  0  0
 20 15  2  0  0  0  0
 22 23  2  0  0  0  0
 23 21  1  0  0  0  0
 24 27  1  1  0  0  0
 25 28  1  0  0  0  0
 26 29  2  0  0  0  0
 28 24  1  0  0  0  0
 29 31  1  0  0  0  0
 30 23  1  1  0  0  0
 30 25  1  0  0  0  0
 30 29  1  0  0  0  0
 31 24  1  0  0  0  0
M  END
>  <MODEL>
8

>  <REMARK>
 VINA RESULT:      -7.7      2.376      6.522
  Name = 
  3 active torsions:
  status: ('A' for Active; 'I' for Inactive)
    1  A    between atoms: C_5  and  O_16
    2  A    between atoms: C_5  and  C_30
    3  A    between atoms: C_10  and  O_16
                            x       y       z     vdW  Elec       q    Type
                         _______ _______ _______ _____ _____    ______ ____

>  <TORSDO>
F 3

$$$$
=
 OpenBabel11112417013D

 31 35  0  0  1  0  0  0  0  0999 V2000
  194.1910  170.1250  145.1150 C   0  0  0  0  0  0  0  0  0  0  0  0
  194.2000  173.8720  145.7560 C   0  0  2  0  0  3  0  0  0  0  0  0
  195.0610  174.6580  144.7870 C   0  0  0  0  0  0  0  0  0  0  0  0
  196.8110  174.7480  143.1020 C   0  0  0  0  0  0  0  0  0  0  0  0
  193.8160  172.5140  145.2420 C   0  0  0  0  0  0  0  0  0  0  0  0
  193.0860  169.9960  144.2670 C   0  0  0  0  0  3  0  0  0  0  0  0
  195.9960  174.0110  143.9630 C   0  0  0  0  0  3  0  0  0  0  0  0
  191.7650  174.6110  145.1260 C   0  0  1  0  0  3  0  0  0  0  0  0
  194.9250  169.0030  145.4730 O   0  0  0  0  0  1  0  0  0  0  0  0
  194.0680  176.7580  145.6170 N   0  0  0  0  0  2  0  0  0  0  0  0
  197.7860  174.0490  142.2250 C   0  0  0  0  0  1  0  0  0  0  0  0
  191.9500  173.6030  143.9770 C   0  0  0  0  0  2  0  0  0  0  0  0
  192.9290  174.6510  146.1620 C   0  0  2  0  0  3  0  0  0  0  0  0
  194.5570  171.3840  145.6020 C   0  0  0  0  0  3  0  0  0  0  0  0
  196.7120  176.1400  143.0650 C   0  0  0  0  0  3  0  0  0  0  0  0
  192.7020  172.3820  144.4000 C   0  0  0  0  0  0  0  0  0  0  0  0
  192.3450  171.1250  143.9040 C   0  0  0  0  0  3  0  0  0  0  0  0
  193.3000  176.0570  146.6430 C   0  0  0  0  0  2  0  0  0  0  0  0
  194.9920  176.0670  144.7700 C   0  0  0  0  0  0  0  0  0  0  0  0
  195.8040  176.7990  143.8990 C   0  0  0  0  0  3  0  0  0  0  0  0
  191.4950  175.9010  144.5860 O   0  0  0  0  0  0  0  0  0  0  0  0
  190.3260  177.8450  145.0330 O   0  0  0  0  0  0  0  0  0  0  0  0
  190.3120  176.5990  144.8460 C   0  0  0  0  0  0  0  0  0  0  0  0
  186.5140  177.4320  145.3870 C   0  0  1  0  0  3  0  0  0  0  0  0
  188.0710  176.3350  143.7950 C   0  0  0  0  0  2  0  0  0  0  0  0
  188.8800  175.3590  147.2420 O   0  0  0  0  0  0  0  0  0  0  0  0
  185.8730  178.7370  145.8080 C   0  0  0  0  0  1  0  0  0  0  0  0
  187.3870  177.6510  144.1590 C   0  0  0  0  0  2  0  0  0  0  0  0
  188.3920  175.9930  146.2710 C   0  0  0  0  0  0  0  0  0  0  0  0
  189.0140  175.8620  144.9070 C   0  0  2  0  0  3  0  0  0  0  0  0
  187.2990  176.8900  146.4900 N   0  0  0  0  0  2  0  0  0  0  0  0
  1  9  1  0  0  0  0
  1 14  1  0  0  0  0
  2  3  1  6  0  0  0
  2 13  1  0  0  0  0
  4  7  1  0  0  0  0
  5 14  2  0  0  0  0
  5  2  1  0  0  0  0
  6  1  2  0  0  0  0
  7  3  2  0  0  0  0
  8 21  1  6  0  0  0
  8 13  1  0  0  0  0
 10 18  1  0  0  0  0
 11  4  1  0  0  0  0
 12 16  1  0  0  0  0
 12  8  1  0  0  0  0
 13 18  1  6  0  0  0
 15  4  2  0  0  0  0
 15 20  1  0  0  0  0
 16  5  1  0  0  0  0
 17  6  1  0  0  0  0
 17 16  2  0  0  0  0
 19  3  1  0  0  0  0
 19 10  1  0  0  0  0
 20 19  2  0  0  0  0
 21 23  1  0  0  0  0
 23 22  2  0  0  0  0
 24 27  1  1  0  0  0
 24 31  1  0  0  0  0
 25 28  1  0  0  0  0
 25 30  1  0  0  0  0
 28 24  1  0  0  0  0
 29 31  1  0  0  0  0
 29 26  2  0  0  0  0
 30 23  1  1  0  0  0
 30 29  1  0  0  0  0
M  END
>  <MODEL>
9

>  <REMARK>
 VINA RESULT:      -7.6      3.270      5.271
  Name = 
  3 active torsions:
  status: ('A' for Active; 'I' for Inactive)
    1  A    between atoms: C_5  and  O_16
    2  A    between atoms: C_5  and  C_30
    3  A    between atoms: C_10  and  O_16
                            x       y       z     vdW  Elec       q    Type
                         _______ _______ _______ _____ _____    ______ ____

>  <TORSDO>
F 3

$$$$
