=
 OpenBabel11112417103D

 37 43  0  0  1  0  0  0  0  0999 V2000
  189.4410  173.8390  140.8160 C   0  0  0  0  0  2  0  0  0  0  0  0
  187.0330  177.3230  142.8920 C   0  0  0  0  0  0  0  0  0  0  0  0
  190.7660  176.2120  144.8720 C   0  0  1  0  0  3  0  0  0  0  0  0
  189.7030  172.6880  139.9530 N   0  0  0  0  0  0  0  0  0  0  0  0
  193.0080  174.0830  142.9430 C   0  0  0  0  0  2  0  0  0  0  0  0
  188.4150  177.3120  145.0480 C   0  0  1  0  0  3  0  0  0  0  0  0
  190.8580  174.7920  144.3190 C   0  0  2  0  0  3  0  0  0  0  0  0
  192.0490  171.9800  139.7360 C   0  0  2  0  0  3  0  0  0  0  0  0
  189.5590  176.8430  144.1880 C   0  0  2  0  0  3  0  0  0  0  0  0
  192.2940  174.1830  144.3130 C   0  0  2  0  0  3  0  0  0  0  0  0
  188.9450  178.0560  146.2520 C   0  0  0  0  0  2  0  0  0  0  0  0
  190.9600  172.9410  139.2480 C   0  0  0  0  0  2  0  0  0  0  0  0
  188.9640  175.7780  143.3180 C   0  0  1  0  0  3  0  0  0  0  0  0
  186.4920  178.2920  141.8620 C   0  0  0  0  0  1  0  0  0  0  0  0
  191.5020  175.3230  147.1840 C   0  0  0  0  0  3  0  0  0  0  0  0
  189.6950  177.0370  147.1070 C   0  0  0  0  0  2  0  0  0  0  0  0
  188.1680  176.4920  142.2310 C   0  0  0  0  0  2  0  0  0  0  0  0
  192.9710  172.5900  140.8050 C   0  0  0  0  0  2  0  0  0  0  0  0
  192.1930  173.3280  141.8860 C   0  0  1  0  0  3  0  0  0  0  0  0
  190.9340  176.4720  146.3940 C   0  0  2  0  0  3  0  0  0  0  0  0
  190.1410  174.9060  142.9590 C   0  0  2  0  0  3  0  0  0  0  0  0
  187.5030  178.1400  144.1330 C   0  0  0  0  0  2  0  0  0  0  0  0
  193.2020  174.6970  145.4490 C   0  0  1  0  0  3  0  0  0  0  0  0
  185.9040  176.3940  143.3030 C   0  0  0  0  0  1  0  0  0  0  0  0
  190.9580  172.5970  142.4050 C   0  0  0  0  0  2  0  0  0  0  0  0
  192.8180  171.5580  138.6520 O   0  0  0  0  0  1  0  0  0  0  0  0
  189.7760  173.5630  142.2970 C   0  0  2  0  0  3  0  0  0  0  0  0
  192.5240  174.5530  146.7840 C   0  0  0  0  0  3  0  0  0  0  0  0
  195.7020  174.7420  145.3980 C   0  0  0  0  0  3  0  0  0  0  0  0
  194.5260  173.9900  145.4810 C   0  0  0  0  0  0  0  0  0  0  0  0
  194.6030  172.5920  145.5910 C   0  0  0  0  0  3  0  0  0  0  0  0
  195.9180  170.6090  145.7190 F   0  0  0  0  0  0  0  0  0  0  0  0
  197.0200  172.7140  145.5300 C   0  0  0  0  0  3  0  0  0  0  0  0
  195.8470  171.9570  145.6140 C   0  0  0  0  0  0  0  0  0  0  0  0
  196.9480  174.1050  145.4220 C   0  0  0  0  0  3  0  0  0  0  0  0
  188.3030  174.0930  138.5500 C   0  0  0  0  0  1  0  0  0  0  0  0
  188.6600  172.6730  138.9420 C   0  0  0  0  0  2  0  0  0  0  0  0
  1 27  1  0  0  0  0
  2 24  1  0  0  0  0
  2 22  1  0  0  0  0
  3 20  1  0  0  0  0
  4  1  1  0  0  0  0
  5 10  1  0  0  0  0
  6 11  1  0  0  0  0
  7  3  1  0  0  0  0
  8 18  1  0  0  0  0
  9  3  1  0  0  0  0
  9  6  1  0  0  0  0
 10  7  1  0  0  0  0
 10 23  1  0  0  0  0
 11 16  1  0  0  0  0
 12  8  1  0  0  0  0
 12  4  1  0  0  0  0
 13  9  1  0  0  0  0
 14  2  1  0  0  0  0
 17  2  1  0  0  0  0
 17 13  1  0  0  0  0
 18 19  1  0  0  0  0
 19 25  1  0  0  0  0
 19  5  1  0  0  0  0
 20 16  1  0  0  0  0
 20 15  1  0  0  0  0
 21 13  1  0  0  0  0
 21  7  1  0  0  0  0
 22  6  1  0  0  0  0
 23 30  1  0  0  0  0
 23 28  1  0  0  0  0
 26  8  1  0  0  0  0
 27 25  1  0  0  0  0
 27 21  1  0  0  0  0
 28 15  2  0  0  0  0
 29 35  2  0  0  0  0
 29 30  1  0  0  0  0
 30 31  2  0  0  0  0
 31 34  1  0  0  0  0
 33 34  2  0  0  0  0
 34 32  1  0  0  0  0
 35 33  1  0  0  0  0
 36 37  1  0  0  0  0
 37  4  1  0  0  0  0
M  END
>  <MODEL>
1

>  <REMARK>
 VINA RESULT:      -8.9      0.000      0.000
  Name = 
  2 active torsions:
  status: ('A' for Active; 'I' for Inactive)
    1  A    between atoms: N_4  and  C_37
    2  A    between atoms: C_23  and  C_30
                            x       y       z     vdW  Elec       q    Type
                         _______ _______ _______ _____ _____    ______ ____

>  <TORSDO>
F 2

$$$$
=
 OpenBabel11112417103D

 37 43  0  0  1  0  0  0  0  0999 V2000
  189.9940  176.6230  146.5530 C   0  0  0  0  0  2  0  0  0  0  0  0
  185.7250  178.5380  147.1430 C   0  0  0  0  0  0  0  0  0  0  0  0
  186.4130  176.7080  143.2360 C   0  0  1  0  0  3  0  0  0  0  0  0
  191.4120  176.3490  146.7900 N   0  0  0  0  0  0  0  0  0  0  0  0
  189.3660  174.5890  142.9780 C   0  0  0  0  0  2  0  0  0  0  0  0
  185.0650  178.4080  144.6720 C   0  0  1  0  0  3  0  0  0  0  0  0
  187.9370  176.8030  143.2480 C   0  0  2  0  0  3  0  0  0  0  0  0
  192.4160  174.5160  145.4930 C   0  0  2  0  0  3  0  0  0  0  0  0
  185.9590  177.1970  144.6060 C   0  0  2  0  0  3  0  0  0  0  0  0
  188.6640  175.7940  142.3070 C   0  0  2  0  0  3  0  0  0  0  0  0
  183.9820  178.3070  143.6230 C   0  0  0  0  0  2  0  0  0  0  0  0
  191.5980  174.9000  146.7310 C   0  0  0  0  0  2  0  0  0  0  0  0
  187.2000  177.6060  145.3400 C   0  0  1  0  0  3  0  0  0  0  0  0
  185.1730  178.2110  148.5150 C   0  0  0  0  0  1  0  0  0  0  0  0
  186.4210  177.4520  140.7610 C   0  0  0  0  0  3  0  0  0  0  0  0
  184.6720  178.3950  142.2640 C   0  0  0  0  0  2  0  0  0  0  0  0
  186.8720  177.5390  146.8280 C   0  0  0  0  0  2  0  0  0  0  0  0
  191.5530  174.0680  144.3020 C   0  0  0  0  0  2  0  0  0  0  0  0
  190.3700  174.9970  144.0640 C   0  0  1  0  0  3  0  0  0  0  0  0
  185.6080  177.2050  142.0040 C   0  0  2  0  0  3  0  0  0  0  0  0
  188.2730  176.7250  144.7510 C   0  0  2  0  0  3  0  0  0  0  0  0
  184.5540  178.4840  146.1170 C   0  0  0  0  0  2  0  0  0  0  0  0
  187.8610  175.4170  141.0450 C   0  0  1  0  0  3  0  0  0  0  0  0
  186.2860  179.9500  147.1870 C   0  0  0  0  0  1  0  0  0  0  0  0
  190.6960  176.4870  144.1320 C   0  0  0  0  0  2  0  0  0  0  0  0
  193.3090  173.4980  145.8220 O   0  0  0  0  0  1  0  0  0  0  0  0
  189.7150  177.1240  145.1210 C   0  0  2  0  0  3  0  0  0  0  0  0
  187.3990  176.6500  140.3170 C   0  0  0  0  0  3  0  0  0  0  0  0
  188.1980  174.3760  138.7960 C   0  0  0  0  0  3  0  0  0  0  0  0
  188.6490  174.5490  140.1080 C   0  0  0  0  0  0  0  0  0  0  0  0
  189.8270  173.9080  140.5270 C   0  0  0  0  0  3  0  0  0  0  0  0
  191.6750  172.4830  140.0440 F   0  0  0  0  0  0  0  0  0  0  0  0
  190.0840  172.9310  138.3270 C   0  0  0  0  0  3  0  0  0  0  0  0
  190.5410  173.1010  139.6370 C   0  0  0  0  0  0  0  0  0  0  0  0
  188.9130  173.5690  137.9060 C   0  0  0  0  0  3  0  0  0  0  0  0
  190.7490  177.8540  148.5780 C   0  0  0  0  0  1  0  0  0  0  0  0
  191.6940  176.7450  148.1590 C   0  0  0  0  0  2  0  0  0  0  0  0
  1  4  1  0  0  0  0
  2 24  1  0  0  0  0
  2 14  1  0  0  0  0
  3  7  1  0  0  0  0
  3  9  1  0  0  0  0
  4 37  1  0  0  0  0
  5 19  1  0  0  0  0
  6 22  1  0  0  0  0
  7 21  1  0  0  0  0
  8 26  1  0  0  0  0
  8 12  1  0  0  0  0
  9  6  1  0  0  0  0
  9 13  1  0  0  0  0
 10  5  1  0  0  0  0
 10  7  1  0  0  0  0
 11  6  1  0  0  0  0
 12  4  1  0  0  0  0
 13 17  1  0  0  0  0
 15 20  1  0  0  0  0
 16 11  1  0  0  0  0
 17  2  1  0  0  0  0
 18  8  1  0  0  0  0
 19 25  1  0  0  0  0
 19 18  1  0  0  0  0
 20 16  1  0  0  0  0
 20  3  1  0  0  0  0
 21 27  1  0  0  0  0
 21 13  1  0  0  0  0
 22  2  1  0  0  0  0
 23 10  1  0  0  0  0
 25 27  1  0  0  0  0
 27  1  1  0  0  0  0
 28 15  2  0  0  0  0
 28 23  1  0  0  0  0
 29 30  1  0  0  0  0
 30 31  2  0  0  0  0
 30 23  1  0  0  0  0
 33 34  2  0  0  0  0
 34 32  1  0  0  0  0
 34 31  1  0  0  0  0
 35 33  1  0  0  0  0
 35 29  2  0  0  0  0
 37 36  1  0  0  0  0
M  END
>  <MODEL>
2

>  <REMARK>
 VINA RESULT:      -8.2      2.889      6.740
  Name = 
  2 active torsions:
  status: ('A' for Active; 'I' for Inactive)
    1  A    between atoms: N_4  and  C_37
    2  A    between atoms: C_23  and  C_30
                            x       y       z     vdW  Elec       q    Type
                         _______ _______ _______ _____ _____    ______ ____

>  <TORSDO>
F 2

$$$$
=
 OpenBabel11112417103D

 37 43  0  0  1  0  0  0  0  0999 V2000
  187.3380  176.0920  139.6980 C   0  0  0  0  0  2  0  0  0  0  0  0
  190.1800  172.3430  140.0290 C   0  0  0  0  0  0  0  0  0  0  0  0
  189.0110  174.1260  143.8420 C   0  0  1  0  0  3  0  0  0  0  0  0
  186.6540  177.2370  139.0970 N   0  0  0  0  0  0  0  0  0  0  0  0
  186.2660  176.5180  143.6950 C   0  0  0  0  0  2  0  0  0  0  0  0
  190.7040  172.6640  142.5150 C   0  0  1  0  0  3  0  0  0  0  0  0
  188.6890  175.5200  143.3080 C   0  0  2  0  0  3  0  0  0  0  0  0
  184.9000  178.3110  140.4470 C   0  0  2  0  0  3  0  0  0  0  0  0
  189.3340  173.2810  142.6160 C   0  0  2  0  0  3  0  0  0  0  0  0
  187.7200  176.3550  144.2000 C   0  0  2  0  0  3  0  0  0  0  0  0
  191.0990  172.0630  143.8440 C   0  0  0  0  0  2  0  0  0  0  0  0
  185.2460  177.1660  139.4880 C   0  0  0  0  0  2  0  0  0  0  0  0
  189.2460  174.1990  141.4350 C   0  0  1  0  0  3  0  0  0  0  0  0
  189.7580  171.2600  139.0580 C   0  0  0  0  0  1  0  0  0  0  0  0
  190.1810  175.2120  145.8730 C   0  0  0  0  0  3  0  0  0  0  0  0
  191.2560  173.2230  144.8250 C   0  0  0  0  0  2  0  0  0  0  0  0
  188.9880  173.3230  140.2150 C   0  0  0  0  0  2  0  0  0  0  0  0
  184.9350  177.9020  141.9290 C   0  0  0  0  0  2  0  0  0  0  0  0
  186.1750  177.0880  142.2740 C   0  0  1  0  0  3  0  0  0  0  0  0
  189.9300  173.9560  145.0820 C   0  0  2  0  0  3  0  0  0  0  0  0
  188.2390  175.2370  141.8610 C   0  0  2  0  0  3  0  0  0  0  0  0
  190.6380  171.6630  141.3530 C   0  0  0  0  0  2  0  0  0  0  0  0
  187.8200  176.0410  145.7070 C   0  0  1  0  0  3  0  0  0  0  0  0
  191.3540  173.0890  139.4180 C   0  0  0  0  0  1  0  0  0  0  0  0
  187.4810  177.6270  141.6960 C   0  0  0  0  0  2  0  0  0  0  0  0
  183.6360  178.8110  140.1380 O   0  0  0  0  0  1  0  0  0  0  0  0
  188.1580  176.4760  140.9470 C   0  0  2  0  0  3  0  0  0  0  0  0
  189.2470  176.1230  146.1770 C   0  0  0  0  0  3  0  0  0  0  0  0
  185.5770  176.7930  146.5200 C   0  0  0  0  0  3  0  0  0  0  0  0
  186.9660  176.9560  146.5360 C   0  0  0  0  0  0  0  0  0  0  0  0
  187.5360  177.9710  147.3220 C   0  0  0  0  0  3  0  0  0  0  0  0
  187.2720  179.7910  148.8370 F   0  0  0  0  0  0  0  0  0  0  0  0
  185.3310  178.6450  148.0610 C   0  0  0  0  0  3  0  0  0  0  0  0
  186.7200  178.8130  148.0810 C   0  0  0  0  0  0  0  0  0  0  0  0
  184.7610  177.6360  147.2800 C   0  0  0  0  0  3  0  0  0  0  0  0
  187.0660  175.6070  137.3430 C   0  0  0  0  0  1  0  0  0  0  0  0
  186.6910  177.0420  137.6580 C   0  0  0  0  0  2  0  0  0  0  0  0
  1 27  1  0  0  0  0
  2 17  1  0  0  0  0
  2 22  1  0  0  0  0
  3 20  1  0  0  0  0
  4 12  1  0  0  0  0
  4  1  1  0  0  0  0
  5 10  1  0  0  0  0
  6  9  1  0  0  0  0
  6 11  1  0  0  0  0
  7  3  1  0  0  0  0
  7 10  1  0  0  0  0
  8 18  1  0  0  0  0
  9  3  1  0  0  0  0
 10 23  1  0  0  0  0
 11 16  1  0  0  0  0
 12  8  1  0  0  0  0
 13 21  1  0  0  0  0
 13  9  1  0  0  0  0
 14  2  1  0  0  0  0
 15 28  2  0  0  0  0
 16 20  1  0  0  0  0
 17 13  1  0  0  0  0
 18 19  1  0  0  0  0
 19  5  1  0  0  0  0
 20 15  1  0  0  0  0
 21  7  1  0  0  0  0
 22  6  1  0  0  0  0
 23 28  1  0  0  0  0
 23 30  1  0  0  0  0
 24  2  1  0  0  0  0
 25 19  1  0  0  0  0
 26  8  1  0  0  0  0
 27 25  1  0  0  0  0
 27 21  1  0  0  0  0
 29 30  2  0  0  0  0
 29 35  1  0  0  0  0
 30 31  1  0  0  0  0
 31 34  2  0  0  0  0
 33 34  1  0  0  0  0
 34 32  1  0  0  0  0
 35 33  2  0  0  0  0
 36 37  1  0  0  0  0
 37  4  1  0  0  0  0
M  END
>  <MODEL>
3

>  <REMARK>
 VINA RESULT:      -8.0      3.844      7.299
  Name = 
  2 active torsions:
  status: ('A' for Active; 'I' for Inactive)
    1  A    between atoms: N_4  and  C_37
    2  A    between atoms: C_23  and  C_30
                            x       y       z     vdW  Elec       q    Type
                         _______ _______ _______ _____ _____    ______ ____

>  <TORSDO>
F 2

$$$$
=
 OpenBabel11112417103D

 37 43  0  0  1  0  0  0  0  0999 V2000
  192.2380  172.2020  140.4870 C   0  0  0  0  0  2  0  0  0  0  0  0
  196.2250  171.3130  142.8440 C   0  0  0  0  0  0  0  0  0  0  0  0
  193.4080  173.9500  144.8940 C   0  0  1  0  0  3  0  0  0  0  0  0
  191.3140  172.3010  139.3570 N   0  0  0  0  0  0  0  0  0  0  0  0
  190.0480  174.0740  143.4880 C   0  0  0  0  0  2  0  0  0  0  0  0
  195.8590  173.1250  144.6170 C   0  0  1  0  0  3  0  0  0  0  0  0
  192.6670  174.4380  143.6500 C   0  0  2  0  0  3  0  0  0  0  0  0
  188.9740  172.8450  139.8870 C   0  0  2  0  0  3  0  0  0  0  0  0
  194.3870  172.8920  144.4000 C   0  0  2  0  0  3  0  0  0  0  0  0
  191.2280  174.9790  143.9160 C   0  0  2  0  0  3  0  0  0  0  0  0
  196.1000  173.6340  146.0190 C   0  0  0  0  0  2  0  0  0  0  0  0
  190.0320  171.7400  139.7850 C   0  0  0  0  0  2  0  0  0  0  0  0
  194.2310  172.8350  142.9100 C   0  0  1  0  0  3  0  0  0  0  0  0
  196.6010  169.8500  142.7350 C   0  0  0  0  0  1  0  0  0  0  0  0
  193.3850  176.3650  145.8120 C   0  0  0  0  0  3  0  0  0  0  0  0
  195.4610  175.0180  146.1040 C   0  0  0  0  0  2  0  0  0  0  0  0
  194.7250  171.4610  142.4690 C   0  0  0  0  0  2  0  0  0  0  0  0
  188.7810  173.3790  141.3160 C   0  0  0  0  0  2  0  0  0  0  0  0
  190.1060  173.6520  142.0150 C   0  0  1  0  0  3  0  0  0  0  0  0
  193.9330  174.9690  145.9400 C   0  0  2  0  0  3  0  0  0  0  0  0
  192.7970  173.2440  142.6830 C   0  0  2  0  0  3  0  0  0  0  0  0
  196.5560  171.7980  144.2870 C   0  0  0  0  0  2  0  0  0  0  0  0
  191.0430  175.6230  145.3050 C   0  0  1  0  0  3  0  0  0  0  0  0
  197.0710  172.0910  141.8500 C   0  0  0  0  0  1  0  0  0  0  0  0
  191.1470  174.3750  141.1640 C   0  0  0  0  0  2  0  0  0  0  0  0
  187.7560  172.3690  139.4060 O   0  0  0  0  0  1  0  0  0  0  0  0
  192.4350  173.5470  141.2160 C   0  0  2  0  0  3  0  0  0  0  0  0
  192.1020  176.6610  145.5590 C   0  0  0  0  0  3  0  0  0  0  0  0
  189.2640  177.2080  144.5450 C   0  0  0  0  0  3  0  0  0  0  0  0
  189.6860  176.2440  145.4660 C   0  0  0  0  0  0  0  0  0  0  0  0
  188.8370  175.8770  146.5230 C   0  0  0  0  0  3  0  0  0  0  0  0
  186.7640  176.1170  147.6740 F   0  0  0  0  0  0  0  0  0  0  0  0
  187.1640  177.4360  145.7300 C   0  0  0  0  0  3  0  0  0  0  0  0
  187.5800  176.4720  146.6540 C   0  0  0  0  0  0  0  0  0  0  0  0
  188.0050  177.8040  144.6760 C   0  0  0  0  0  3  0  0  0  0  0  0
  193.1580  170.8430  138.7440 C   0  0  0  0  0  1  0  0  0  0  0  0
  191.8220  171.4200  138.3200 C   0  0  0  0  0  2  0  0  0  0  0  0
  1 27  1  0  0  0  0
  2 22  1  0  0  0  0
  3 20  1  0  0  0  0
  4 12  1  0  0  0  0
  4  1  1  0  0  0  0
  5 10  1  0  0  0  0
  6 11  1  0  0  0  0
  7 10  1  0  0  0  0
  7  3  1  0  0  0  0
  8 18  1  0  0  0  0
  9  6  1  0  0  0  0
  9  3  1  0  0  0  0
 10 23  1  0  0  0  0
 11 16  1  0  0  0  0
 12  8  1  0  0  0  0
 13  9  1  0  0  0  0
 14  2  1  0  0  0  0
 15 20  1  0  0  0  0
 17  2  1  0  0  0  0
 17 13  1  0  0  0  0
 18 19  1  0  0  0  0
 19  5  1  0  0  0  0
 20 16  1  0  0  0  0
 21 13  1  0  0  0  0
 21  7  1  0  0  0  0
 22  6  1  0  0  0  0
 23 30  1  0  0  0  0
 23 28  1  0  0  0  0
 24  2  1  0  0  0  0
 25 27  1  0  0  0  0
 25 19  1  0  0  0  0
 26  8  1  0  0  0  0
 27 21  1  0  0  0  0
 28 15  2  0  0  0  0
 29 35  2  0  0  0  0
 29 30  1  0  0  0  0
 30 31  2  0  0  0  0
 31 34  1  0  0  0  0
 33 34  2  0  0  0  0
 34 32  1  0  0  0  0
 35 33  1  0  0  0  0
 37 36  1  0  0  0  0
 37  4  1  0  0  0  0
M  END
>  <MODEL>
4

>  <REMARK>
 VINA RESULT:      -7.9      2.532      6.644
  Name = 
  2 active torsions:
  status: ('A' for Active; 'I' for Inactive)
    1  A    between atoms: N_4  and  C_37
    2  A    between atoms: C_23  and  C_30
                            x       y       z     vdW  Elec       q    Type
                         _______ _______ _______ _____ _____    ______ ____

>  <TORSDO>
F 2

$$$$
=
 OpenBabel11112417103D

 37 43  0  0  1  0  0  0  0  0999 V2000
  193.2040  171.7990  140.9470 C   0  0  0  0  0  2  0  0  0  0  0  0
  196.1120  172.6750  144.5550 C   0  0  0  0  0  0  0  0  0  0  0  0
  192.4830  175.1060  144.4670 C   0  0  1  0  0  3  0  0  0  0  0  0
  192.7550  171.3080  139.6440 N   0  0  0  0  0  0  0  0  0  0  0  0
  189.8820  173.9840  142.1730 C   0  0  0  0  0  2  0  0  0  0  0  0
  194.9350  174.8280  145.2890 C   0  0  1  0  0  3  0  0  0  0  0  0
  192.2060  174.9770  142.9700 C   0  0  2  0  0  3  0  0  0  0  0  0
  190.3420  171.4370  139.1850 C   0  0  2  0  0  3  0  0  0  0  0  0
  193.6790  174.2020  144.7420 C   0  0  2  0  0  3  0  0  0  0  0  0
  190.7230  175.2260  142.5550 C   0  0  2  0  0  3  0  0  0  0  0  0
  194.5890  175.8070  146.3870 C   0  0  0  0  0  2  0  0  0  0  0  0
  191.4710  170.6360  139.8440 C   0  0  0  0  0  2  0  0  0  0  0  0
  194.0880  173.6290  143.4190 C   0  0  1  0  0  3  0  0  0  0  0  0
  196.6500  171.3860  145.1390 C   0  0  0  0  0  1  0  0  0  0  0  0
  191.8750  177.6130  144.3280 C   0  0  0  0  0  3  0  0  0  0  0  0
  193.8240  176.9550  145.7330 C   0  0  0  0  0  2  0  0  0  0  0  0
  194.8480  172.3410  143.7160 C   0  0  0  0  0  2  0  0  0  0  0  0
  189.5830  172.3470  140.1640 C   0  0  0  0  0  2  0  0  0  0  0  0
  190.5220  173.1310  141.0710 C   0  0  1  0  0  3  0  0  0  0  0  0
  192.4780  176.5020  145.1450 C   0  0  2  0  0  3  0  0  0  0  0  0
  192.8050  173.5980  142.6280 C   0  0  2  0  0  3  0  0  0  0  0  0
  195.8370  173.6660  145.7260 C   0  0  0  0  0  2  0  0  0  0  0  0
  189.9740  176.2260  143.4600 C   0  0  1  0  0  3  0  0  0  0  0  0
  197.1790  173.2600  143.6460 C   0  0  0  0  0  1  0  0  0  0  0  0
  191.7230  173.7590  140.3670 C   0  0  0  0  0  2  0  0  0  0  0  0
  189.4420  170.5620  138.5790 O   0  0  0  0  0  1  0  0  0  0  0  0
  192.9780  173.3150  141.1230 C   0  0  2  0  0  3  0  0  0  0  0  0
  190.7520  177.5060  143.6030 C   0  0  0  0  0  3  0  0  0  0  0  0
  187.4890  176.2240  143.7450 C   0  0  0  0  0  3  0  0  0  0  0  0
  188.5960  176.5330  142.9480 C   0  0  0  0  0  0  0  0  0  0  0  0
  188.4020  177.1210  141.6880 C   0  0  0  0  0  3  0  0  0  0  0  0
  186.9240  177.9590  140.0160 F   0  0  0  0  0  0  0  0  0  0  0  0
  186.0060  177.0810  142.0320 C   0  0  0  0  0  3  0  0  0  0  0  0
  187.1090  177.3930  141.2320 C   0  0  0  0  0  0  0  0  0  0  0  0
  186.1960  176.4960  143.2880 C   0  0  0  0  0  3  0  0  0  0  0  0
  194.6230  169.9440  140.3870 C   0  0  0  0  0  1  0  0  0  0  0  0
  193.6970  170.2810  139.2350 C   0  0  0  0  0  2  0  0  0  0  0  0
  1 27  1  0  0  0  0
  2 14  1  0  0  0  0
  2 22  1  0  0  0  0
  3  9  1  0  0  0  0
  3 20  1  0  0  0  0
  4 12  1  0  0  0  0
  4  1  1  0  0  0  0
  5 10  1  0  0  0  0
  6 22  1  0  0  0  0
  6 11  1  0  0  0  0
  7  3  1  0  0  0  0
  8 12  1  0  0  0  0
  8 18  1  0  0  0  0
  9  6  1  0  0  0  0
 10  7  1  0  0  0  0
 10 23  1  0  0  0  0
 13 17  1  0  0  0  0
 13  9  1  0  0  0  0
 15 20  1  0  0  0  0
 16 11  1  0  0  0  0
 17  2  1  0  0  0  0
 18 19  1  0  0  0  0
 19  5  1  0  0  0  0
 20 16  1  0  0  0  0
 21  7  1  0  0  0  0
 21 13  1  0  0  0  0
 23 28  1  0  0  0  0
 24  2  1  0  0  0  0
 25 19  1  0  0  0  0
 25 27  1  0  0  0  0
 26  8  1  0  0  0  0
 27 21  1  0  0  0  0
 28 15  2  0  0  0  0
 30 23  1  0  0  0  0
 30 29  2  0  0  0  0
 31 30  1  0  0  0  0
 32 34  1  0  0  0  0
 33 35  2  0  0  0  0
 34 31  2  0  0  0  0
 34 33  1  0  0  0  0
 35 29  1  0  0  0  0
 37  4  1  0  0  0  0
 37 36  1  0  0  0  0
M  END
>  <MODEL>
5

>  <REMARK>
 VINA RESULT:      -7.9      2.752      6.884
  Name = 
  2 active torsions:
  status: ('A' for Active; 'I' for Inactive)
    1  A    between atoms: N_4  and  C_37
    2  A    between atoms: C_23  and  C_30
                            x       y       z     vdW  Elec       q    Type
                         _______ _______ _______ _____ _____    ______ ____

>  <TORSDO>
F 2

$$$$
=
 OpenBabel11112417103D

 37 43  0  0  1  0  0  0  0  0999 V2000
  194.5810  174.0830  143.3670 C   0  0  0  0  0  2  0  0  0  0  0  0
  194.2960  171.7400  139.2830 C   0  0  0  0  0  0  0  0  0  0  0  0
  190.6360  173.7900  140.5040 C   0  0  1  0  0  3  0  0  0  0  0  0
  195.0920  174.4820  144.6780 N   0  0  0  0  0  0  0  0  0  0  0  0
  190.9990  176.1940  143.2190 C   0  0  0  0  0  2  0  0  0  0  0  0
  191.7480  171.9100  139.0920 C   0  0  1  0  0  3  0  0  0  0  0  0
  190.9390  173.8420  142.0000 C   0  0  2  0  0  3  0  0  0  0  0  0
  194.0530  176.4560  145.7150 C   0  0  2  0  0  3  0  0  0  0  0  0
  191.8820  173.2030  139.8530 C   0  0  2  0  0  3  0  0  0  0  0  0
  190.1780  174.9560  142.7840 C   0  0  2  0  0  3  0  0  0  0  0  0
  190.5130  171.9490  138.2210 C   0  0  0  0  0  2  0  0  0  0  0  0
  195.1030  175.9440  144.7210 C   0  0  0  0  0  2  0  0  0  0  0  0
  192.8320  172.8860  140.9680 C   0  0  1  0  0  3  0  0  0  0  0  0
  195.5430  171.9550  138.4510 C   0  0  0  0  0  1  0  0  0  0  0  0
  188.1930  173.1550  141.0560 C   0  0  0  0  0  3  0  0  0  0  0  0
  189.3100  171.9850  139.1610 C   0  0  0  0  0  2  0  0  0  0  0  0
  194.2300  172.8580  140.3600 C   0  0  0  0  0  2  0  0  0  0  0  0
  192.7290  176.8680  145.0510 C   0  0  0  0  0  2  0  0  0  0  0  0
  192.2480  175.8400  144.0370 C   0  0  1  0  0  3  0  0  0  0  0  0
  189.2620  173.2700  140.0020 C   0  0  2  0  0  3  0  0  0  0  0  0
  192.4790  173.8900  142.0360 C   0  0  2  0  0  3  0  0  0  0  0  0
  193.0660  171.7240  138.3270 C   0  0  0  0  0  2  0  0  0  0  0  0
  188.7940  175.3060  142.1990 C   0  0  1  0  0  3  0  0  0  0  0  0
  194.4150  170.3890  139.9670 C   0  0  0  0  0  1  0  0  0  0  0  0
  192.3440  174.3870  144.4950 C   0  0  0  0  0  2  0  0  0  0  0  0
  194.5710  177.5410  146.4210 O   0  0  0  0  0  1  0  0  0  0  0  0
  193.1100  173.6170  143.4160 C   0  0  2  0  0  3  0  0  0  0  0  0
  187.9630  174.0650  142.0130 C   0  0  0  0  0  3  0  0  0  0  0  0
  187.9520  176.0520  144.4330 C   0  0  0  0  0  3  0  0  0  0  0  0
  188.0460  176.2850  143.0570 C   0  0  0  0  0  0  0  0  0  0  0  0
  187.4410  177.4240  142.5030 C   0  0  0  0  0  3  0  0  0  0  0  0
  186.1620  179.4160  142.7860 F   0  0  0  0  0  0  0  0  0  0  0  0
  186.6550  178.0800  144.6980 C   0  0  0  0  0  3  0  0  0  0  0  0
  186.7470  178.3190  143.3220 C   0  0  0  0  0  0  0  0  0  0  0  0
  187.2580  176.9480  145.2520 C   0  0  0  0  0  3  0  0  0  0  0  0
  196.8160  173.5860  146.1370 C   0  0  0  0  0  1  0  0  0  0  0  0
  196.4800  174.0580  144.7360 C   0  0  0  0  0  2  0  0  0  0  0  0
  1 27  1  0  0  0  0
  1  4  1  0  0  0  0
  2 24  1  0  0  0  0
  2 17  1  0  0  0  0
  3  7  1  0  0  0  0
  4 12  1  0  0  0  0
  4 37  1  0  0  0  0
  5 19  1  0  0  0  0
  6  9  1  0  0  0  0
  7 21  1  0  0  0  0
  7 10  1  0  0  0  0
  8 26  1  0  0  0  0
  9  3  1  0  0  0  0
  9 13  1  0  0  0  0
 10  5  1  0  0  0  0
 11  6  1  0  0  0  0
 11 16  1  0  0  0  0
 12  8  1  0  0  0  0
 13 21  1  0  0  0  0
 14  2  1  0  0  0  0
 15 28  2  0  0  0  0
 16 20  1  0  0  0  0
 17 13  1  0  0  0  0
 18  8  1  0  0  0  0
 19 25  1  0  0  0  0
 19 18  1  0  0  0  0
 20  3  1  0  0  0  0
 20 15  1  0  0  0  0
 21 27  1  0  0  0  0
 22  6  1  0  0  0  0
 22  2  1  0  0  0  0
 23 10  1  0  0  0  0
 23 30  1  0  0  0  0
 27 25  1  0  0  0  0
 28 23  1  0  0  0  0
 29 35  1  0  0  0  0
 30 29  2  0  0  0  0
 31 30  1  0  0  0  0
 31 34  2  0  0  0  0
 32 34  1  0  0  0  0
 33 35  2  0  0  0  0
 34 33  1  0  0  0  0
 37 36  1  0  0  0  0
M  END
>  <MODEL>
6

>  <REMARK>
 VINA RESULT:      -7.8      3.366      8.101
  Name = 
  2 active torsions:
  status: ('A' for Active; 'I' for Inactive)
    1  A    between atoms: N_4  and  C_37
    2  A    between atoms: C_23  and  C_30
                            x       y       z     vdW  Elec       q    Type
                         _______ _______ _______ _____ _____    ______ ____

>  <TORSDO>
F 2

$$$$
=
 OpenBabel11112417103D

 37 43  0  0  1  0  0  0  0  0999 V2000
  187.0910  176.7360  141.2760 C   0  0  0  0  0  2  0  0  0  0  0  0
  189.2970  172.9770  139.4740 C   0  0  0  0  0  0  0  0  0  0  0  0
  190.7710  174.3030  143.3680 C   0  0  1  0  0  3  0  0  0  0  0  0
  186.2650  177.9430  141.3190 N   0  0  0  0  0  0  0  0  0  0  0  0
  188.6590  176.6930  145.1290 C   0  0  0  0  0  2  0  0  0  0  0  0
  191.2260  173.0070  141.1590 C   0  0  1  0  0  3  0  0  0  0  0  0
  190.2910  175.7490  143.2690 C   0  0  2  0  0  3  0  0  0  0  0  0
  185.7480  178.8500  143.5460 C   0  0  2  0  0  3  0  0  0  0  0  0
  190.2360  173.6060  142.1220 C   0  0  2  0  0  3  0  0  0  0  0  0
  190.1100  176.4740  144.6380 C   0  0  2  0  0  3  0  0  0  0  0  0
  192.2960  172.2560  141.9180 C   0  0  0  0  0  2  0  0  0  0  0  0
  185.3710  177.8250  142.4710 C   0  0  0  0  0  2  0  0  0  0  0  0
  189.5230  174.6560  141.3250 C   0  0  1  0  0  3  0  0  0  0  0  0
  188.3040  172.0130  138.8580 C   0  0  0  0  0  1  0  0  0  0  0  0
  192.9970  175.1460  144.3730 C   0  0  0  0  0  3  0  0  0  0  0  0
  193.0880  173.2940  142.7090 C   0  0  0  0  0  2  0  0  0  0  0  0
  188.5260  173.9270  140.4320 C   0  0  0  0  0  2  0  0  0  0  0  0
  186.6350  178.2710  144.6610 C   0  0  0  0  0  2  0  0  0  0  0  0
  187.7750  177.4240  144.1110 C   0  0  1  0  0  3  0  0  0  0  0  0
  192.2350  173.9910  143.7800 C   0  0  2  0  0  3  0  0  0  0  0  0
  189.0460  175.6360  142.3670 C   0  0  2  0  0  3  0  0  0  0  0  0
  190.4090  172.1470  140.1840 C   0  0  0  0  0  2  0  0  0  0  0  0
  191.0700  175.9860  145.7420 C   0  0  1  0  0  3  0  0  0  0  0  0
  189.9200  173.7900  138.3530 C   0  0  0  0  0  1  0  0  0  0  0  0
  188.5090  178.0280  142.9160 C   0  0  0  0  0  2  0  0  0  0  0  0
  184.5890  179.3810  144.1100 O   0  0  0  0  0  1  0  0  0  0  0  0
  188.5200  176.9720  141.8070 C   0  0  2  0  0  3  0  0  0  0  0  0
  192.4960  176.0150  145.2630 C   0  0  0  0  0  3  0  0  0  0  0  0
  191.9980  176.7850  147.9230 C   0  0  0  0  0  3  0  0  0  0  0  0
  190.9490  176.7980  146.9990 C   0  0  0  0  0  0  0  0  0  0  0  0
  189.8020  177.5650  147.2630 C   0  0  0  0  0  3  0  0  0  0  0  0
  188.6050  179.0470  148.6950 F   0  0  0  0  0  0  0  0  0  0  0  0
  190.7640  178.2910  149.3630 C   0  0  0  0  0  3  0  0  0  0  0  0
  189.7110  178.3090  148.4420 C   0  0  0  0  0  0  0  0  0  0  0  0
  191.9070  177.5300  149.1030 C   0  0  0  0  0  3  0  0  0  0  0  0
  183.9990  178.2900  140.5130 C   0  0  0  0  0  1  0  0  0  0  0  0
  185.4200  177.9160  140.1380 C   0  0  0  0  0  2  0  0  0  0  0  0
  1  4  1  0  0  0  0
  1 27  1  0  0  0  0
  2 22  1  0  0  0  0
  2 17  1  0  0  0  0
  3 20  1  0  0  0  0
  4 12  1  0  0  0  0
  6 11  1  0  0  0  0
  6  9  1  0  0  0  0
  7  3  1  0  0  0  0
  7 10  1  0  0  0  0
  8 26  1  0  0  0  0
  8 18  1  0  0  0  0
  9  3  1  0  0  0  0
 10  5  1  0  0  0  0
 10 23  1  0  0  0  0
 11 16  1  0  0  0  0
 12  8  1  0  0  0  0
 13  9  1  0  0  0  0
 13 21  1  0  0  0  0
 14  2  1  0  0  0  0
 15 28  2  0  0  0  0
 16 20  1  0  0  0  0
 17 13  1  0  0  0  0
 19 18  1  0  0  0  0
 19  5  1  0  0  0  0
 20 15  1  0  0  0  0
 21  7  1  0  0  0  0
 22  6  1  0  0  0  0
 23 30  1  0  0  0  0
 24  2  1  0  0  0  0
 25 19  1  0  0  0  0
 27 21  1  0  0  0  0
 27 25  1  0  0  0  0
 28 23  1  0  0  0  0
 29 35  1  0  0  0  0
 30 31  1  0  0  0  0
 30 29  2  0  0  0  0
 31 34  2  0  0  0  0
 34 32  1  0  0  0  0
 34 33  1  0  0  0  0
 35 33  2  0  0  0  0
 37 36  1  0  0  0  0
 37  4  1  0  0  0  0
M  END
>  <MODEL>
7

>  <REMARK>
 VINA RESULT:      -7.6      3.507      6.479
  Name = 
  2 active torsions:
  status: ('A' for Active; 'I' for Inactive)
    1  A    between atoms: N_4  and  C_37
    2  A    between atoms: C_23  and  C_30
                            x       y       z     vdW  Elec       q    Type
                         _______ _______ _______ _____ _____    ______ ____

>  <TORSDO>
F 2

$$$$
=
 OpenBabel11112417103D

 37 43  0  0  1  0  0  0  0  0999 V2000
  192.9170  172.0340  140.3330 C   0  0  0  0  0  2  0  0  0  0  0  0
  196.9900  170.8590  142.4000 C   0  0  0  0  0  0  0  0  0  0  0  0
  194.2880  173.2580  144.8560 C   0  0  1  0  0  3  0  0  0  0  0  0
  191.9470  172.2670  139.2630 N   0  0  0  0  0  0  0  0  0  0  0  0
  190.8730  173.5620  143.6190 C   0  0  0  0  0  2  0  0  0  0  0  0
  196.7170  172.4570  144.3830 C   0  0  1  0  0  3  0  0  0  0  0  0
  193.5010  173.8890  143.7100 C   0  0  2  0  0  3  0  0  0  0  0  0
  189.6370  172.7600  139.9510 C   0  0  2  0  0  3  0  0  0  0  0  0
  195.2350  172.2590  144.2030 C   0  0  2  0  0  3  0  0  0  0  0  0
  192.0800  174.4050  144.0970 C   0  0  2  0  0  3  0  0  0  0  0  0
  197.0220  172.8000  145.8230 C   0  0  0  0  0  2  0  0  0  0  0  0
  190.6790  171.6690  139.6780 C   0  0  0  0  0  2  0  0  0  0  0  0
  195.0160  172.3730  142.7250 C   0  0  1  0  0  3  0  0  0  0  0  0
  197.3450  169.4160  142.1090 C   0  0  0  0  0  1  0  0  0  0  0  0
  194.3290  175.5520  146.0450 C   0  0  0  0  0  3  0  0  0  0  0  0
  196.4010  174.1690  146.0920 C   0  0  0  0  0  2  0  0  0  0  0  0
  195.4760  171.0570  142.1090 C   0  0  0  0  0  2  0  0  0  0  0  0
  189.5100  173.1280  141.4380 C   0  0  0  0  0  2  0  0  0  0  0  0
  190.8660  173.3110  142.1060 C   0  0  1  0  0  3  0  0  0  0  0  0
  194.8680  174.1470  145.9900 C   0  0  2  0  0  3  0  0  0  0  0  0
  193.5780  172.8140  142.6080 C   0  0  2  0  0  3  0  0  0  0  0  0
  197.3860  171.1730  143.8740 C   0  0  0  0  0  2  0  0  0  0  0  0
  191.9600  174.8870  145.5570 C   0  0  1  0  0  3  0  0  0  0  0  0
  197.8010  171.7410  141.4660 C   0  0  0  0  0  1  0  0  0  0  0  0
  191.8780  174.1210  141.3000 C   0  0  0  0  0  2  0  0  0  0  0  0
  188.3950  172.3490  139.4710 O   0  0  0  0  0  1  0  0  0  0  0  0
  193.1580  173.2860  141.2020 C   0  0  2  0  0  3  0  0  0  0  0  0
  193.0400  175.8820  145.8830 C   0  0  0  0  0  3  0  0  0  0  0  0
  189.7970  174.9020  146.8130 C   0  0  0  0  0  3  0  0  0  0  0  0
  190.6170  175.4920  145.8460 C   0  0  0  0  0  0  0  0  0  0  0  0
  190.1710  176.6360  145.1630 C   0  0  0  0  0  3  0  0  0  0  0  0
  188.4880  178.2790  144.7860 F   0  0  0  0  0  0  0  0  0  0  0  0
  188.0990  176.5830  146.4150 C   0  0  0  0  0  3  0  0  0  0  0  0
  188.9150  177.1780  145.4470 C   0  0  0  0  0  0  0  0  0  0  0  0
  188.5400  175.4460  147.0970 C   0  0  0  0  0  3  0  0  0  0  0  0
  193.7860  171.9760  137.7010 C   0  0  0  0  0  1  0  0  0  0  0  0
  192.4020  171.5090  138.1100 C   0  0  0  0  0  2  0  0  0  0  0  0
  1 27  1  0  0  0  0
  2 22  1  0  0  0  0
  3 20  1  0  0  0  0
  4 12  1  0  0  0  0
  4  1  1  0  0  0  0
  5 10  1  0  0  0  0
  6 11  1  0  0  0  0
  7 10  1  0  0  0  0
  7  3  1  0  0  0  0
  8 18  1  0  0  0  0
  9  6  1  0  0  0  0
  9  3  1  0  0  0  0
 10 23  1  0  0  0  0
 11 16  1  0  0  0  0
 12  8  1  0  0  0  0
 13  9  1  0  0  0  0
 14  2  1  0  0  0  0
 17  2  1  0  0  0  0
 17 13  1  0  0  0  0
 18 19  1  0  0  0  0
 19  5  1  0  0  0  0
 20 15  1  0  0  0  0
 20 16  1  0  0  0  0
 21 13  1  0  0  0  0
 21  7  1  0  0  0  0
 22  6  1  0  0  0  0
 23 30  1  0  0  0  0
 23 28  1  0  0  0  0
 24  2  1  0  0  0  0
 25 19  1  0  0  0  0
 26  8  1  0  0  0  0
 27 25  1  0  0  0  0
 27 21  1  0  0  0  0
 28 15  2  0  0  0  0
 29 35  1  0  0  0  0
 30 29  2  0  0  0  0
 31 34  2  0  0  0  0
 31 30  1  0  0  0  0
 32 34  1  0  0  0  0
 33 35  2  0  0  0  0
 34 33  1  0  0  0  0
 36 37  1  0  0  0  0
 37  4  1  0  0  0  0
M  END
>  <MODEL>
8

>  <REMARK>
 VINA RESULT:      -7.5      2.663      6.870
  Name = 
  2 active torsions:
  status: ('A' for Active; 'I' for Inactive)
    1  A    between atoms: N_4  and  C_37
    2  A    between atoms: C_23  and  C_30
                            x       y       z     vdW  Elec       q    Type
                         _______ _______ _______ _____ _____    ______ ____

>  <TORSDO>
F 2

$$$$
=
 OpenBabel11112417103D

 37 43  0  0  1  0  0  0  0  0999 V2000
  189.5730  173.7840  141.9330 C   0  0  0  0  0  2  0  0  0  0  0  0
  189.6280  175.9070  146.1440 C   0  0  0  0  0  0  0  0  0  0  0  0
  193.5030  175.6620  144.1400 C   0  0  1  0  0  3  0  0  0  0  0  0
  189.0920  172.9500  140.8310 N   0  0  0  0  0  0  0  0  0  0  0  0
  193.4070  174.7240  140.6190 C   0  0  0  0  0  2  0  0  0  0  0  0
  192.1800  175.9270  146.3640 C   0  0  1  0  0  3  0  0  0  0  0  0
  193.1780  174.4660  143.2460 C   0  0  2  0  0  3  0  0  0  0  0  0
  190.3630  173.0560  138.7270 C   0  0  2  0  0  3  0  0  0  0  0  0
  192.2030  176.0020  144.8600 C   0  0  2  0  0  3  0  0  0  0  0  0
  194.0640  174.3440  141.9680 C   0  0  2  0  0  3  0  0  0  0  0  0
  193.4270  176.5630  146.9320 C   0  0  0  0  0  2  0  0  0  0  0  0
  189.2760  173.7050  139.5920 C   0  0  0  0  0  2  0  0  0  0  0  0
  191.1960  174.9840  144.4160 C   0  0  1  0  0  3  0  0  0  0  0  0
  188.4390  176.8320  146.2970 C   0  0  0  0  0  1  0  0  0  0  0  0
  195.8270  174.6340  144.6100 C   0  0  0  0  0  3  0  0  0  0  0  0
  194.6040  175.6880  146.5080 C   0  0  0  0  0  2  0  0  0  0  0  0
  189.8210  175.6040  144.6320 C   0  0  0  0  0  2  0  0  0  0  0  0
  191.7440  173.7140  138.8820 C   0  0  0  0  0  2  0  0  0  0  0  0
  192.1050  173.9630  140.3400 C   0  0  1  0  0  3  0  0  0  0  0  0
  194.8050  175.6750  144.9840 C   0  0  2  0  0  3  0  0  0  0  0  0
  191.6570  174.6020  143.0320 C   0  0  2  0  0  3  0  0  0  0  0  0
  190.8650  176.5850  146.8050 C   0  0  0  0  0  2  0  0  0  0  0  0
  195.4940  174.8960  142.1370 C   0  0  1  0  0  3  0  0  0  0  0  0
  189.3150  174.6150  146.8790 C   0  0  0  0  0  1  0  0  0  0  0  0
  191.8060  172.8020  141.2860 C   0  0  0  0  0  2  0  0  0  0  0  0
  189.9800  173.1000  137.3880 O   0  0  0  0  0  1  0  0  0  0  0  0
  190.9670  173.3580  142.4400 C   0  0  2  0  0  3  0  0  0  0  0  0
  196.1560  174.3060  143.3530 C   0  0  0  0  0  3  0  0  0  0  0  0
  196.8490  175.7280  140.2060 C   0  0  0  0  0  3  0  0  0  0  0  0
  196.3480  174.6410  140.9290 C   0  0  0  0  0  0  0  0  0  0  0  0
  196.6480  173.3330  140.5130 C   0  0  0  0  0  3  0  0  0  0  0  0
  197.7290  171.8600  138.9830 F   0  0  0  0  0  0  0  0  0  0  0  0
  197.9390  174.2130  138.6630 C   0  0  0  0  0  3  0  0  0  0  0  0
  197.4420  173.1210  139.3820 C   0  0  0  0  0  0  0  0  0  0  0  0
  197.6430  175.5150  139.0750 C   0  0  0  0  0  3  0  0  0  0  0  0
  187.3640  172.3480  142.4300 C   0  0  0  0  0  1  0  0  0  0  0  0
  187.6590  172.7990  141.0120 C   0  0  0  0  0  2  0  0  0  0  0  0
  1 27  1  0  0  0  0
  2 14  1  0  0  0  0
  2 22  1  0  0  0  0
  2 24  1  0  0  0  0
  3  9  1  0  0  0  0
  3 20  1  0  0  0  0
  4 37  1  0  0  0  0
  4  1  1  0  0  0  0
  5 10  1  0  0  0  0
  6 22  1  0  0  0  0
  6 11  1  0  0  0  0
  7  3  1  0  0  0  0
  8 18  1  0  0  0  0
  8 12  1  0  0  0  0
  9  6  1  0  0  0  0
 10 23  1  0  0  0  0
 10  7  1  0  0  0  0
 12  4  1  0  0  0  0
 13 17  1  0  0  0  0
 13  9  1  0  0  0  0
 15 20  1  0  0  0  0
 16 11  1  0  0  0  0
 17  2  1  0  0  0  0
 18 19  1  0  0  0  0
 19  5  1  0  0  0  0
 19 25  1  0  0  0  0
 20 16  1  0  0  0  0
 21  7  1  0  0  0  0
 21 13  1  0  0  0  0
 23 28  1  0  0  0  0
 25 27  1  0  0  0  0
 26  8  1  0  0  0  0
 27 21  1  0  0  0  0
 28 15  2  0  0  0  0
 29 30  1  0  0  0  0
 30 23  1  0  0  0  0
 31 30  2  0  0  0  0
 32 34  1  0  0  0  0
 33 35  1  0  0  0  0
 33 34  2  0  0  0  0
 34 31  1  0  0  0  0
 35 29  2  0  0  0  0
 37 36  1  0  0  0  0
M  END
>  <MODEL>
9

>  <REMARK>
 VINA RESULT:      -7.3      2.724      4.131
  Name = 
  2 active torsions:
  status: ('A' for Active; 'I' for Inactive)
    1  A    between atoms: N_4  and  C_37
    2  A    between atoms: C_23  and  C_30
                            x       y       z     vdW  Elec       q    Type
                         _______ _______ _______ _____ _____    ______ ____

>  <TORSDO>
F 2

$$$$
