=
 OpenBabel11112417473D

 34 41  0  0  1  0  0  0  0  0999 V2000
  189.8550  176.9890  144.5610 C   0  0  0  0  0  0  0  0  0  0  0  0
  192.0830  176.3220  143.6820 C   0  0  0  0  0  3  0  0  0  0  0  0
  184.3410  179.1270  144.2230 C   0  0  2  0  0  3  0  0  0  0  0  0
  187.6540  176.9740  145.5890 C   0  0  0  0  0  0  0  0  0  0  0  0
  185.5640  176.7670  144.1180 C   0  0  1  0  0  3  0  0  0  0  0  0
  186.4350  179.1990  143.7120 C   0  0  0  0  0  2  0  0  0  0  0  0
  185.4460  180.1680  144.3400 C   0  0  0  0  0  2  0  0  0  0  0  0
  184.8770  178.5060  146.6550 C   0  0  0  0  0  2  0  0  0  0  0  0
  190.2200  176.0070  142.2040 C   0  0  2  0  0  3  0  0  0  0  0  0
  189.8570  172.9560  141.0930 C   0  0  0  0  0  2  0  0  0  0  0  0
  186.4260  175.9330  143.1730 C   0  0  0  0  0  2  0  0  0  0  0  0
  185.3000  177.0530  146.7000 C   0  0  0  0  0  2  0  0  0  0  0  0
  188.7850  175.4610  142.3800 C   0  0  1  0  0  3  0  0  0  0  0  0
  192.3730  175.2530  142.9550 C   0  0  0  0  0  3  0  0  0  0  0  0
  186.1820  176.6580  145.5170 C   0  0  2  0  0  3  0  0  0  0  0  0
  183.8000  178.7000  145.5950 C   0  0  0  0  0  2  0  0  0  0  0  0
  190.7960  173.4520  142.2090 C   0  0  1  0  0  3  0  0  0  0  0  0
  188.4650  176.7870  144.4480 C   0  0  0  0  0  0  0  0  0  0  0  0
  185.3200  178.1810  143.5290 C   0  0  2  0  0  3  0  0  0  0  0  0
  187.8720  176.4590  143.0890 C   0  0  2  0  0  3  0  0  0  0  0  0
  189.6230  177.5260  146.8690 C   0  0  0  0  0  3  0  0  0  0  0  0
  189.1850  174.0610  140.2630 C   0  0  0  0  0  2  0  0  0  0  0  0
  188.2470  177.3210  146.8060 C   0  0  0  0  0  3  0  0  0  0  0  0
  188.2070  174.9330  141.0590 C   0  0  0  0  0  2  0  0  0  0  0  0
  191.2850  174.9080  142.0000 C   0  0  1  0  0  3  0  0  0  0  0  0
  190.3870  177.3680  145.7570 N   0  0  0  0  0  0  0  0  0  0  0  0
  190.7480  176.9000  143.3460 C   0  0  1  0  0  3  0  0  0  0  0  0
  190.1680  173.2920  143.4520 O   0  0  0  0  0  0  0  0  0  0  0  0
  190.2900  171.9390  143.7760 C   0  0  0  0  0  2  0  0  0  0  0  0
  193.6270  170.6820  144.3930 N   0  0  0  0  0  0  0  0  0  0  0  0
  192.4630  172.4460  144.9160 N   0  0  0  0  0  0  0  0  0  0  0  0
  191.7040  171.6500  144.1460 C   0  0  0  0  0  0  0  0  0  0  0  0
  193.5970  171.8190  145.0260 O   0  0  0  0  0  0  0  0  0  0  0  0
  192.4220  170.5270  143.8090 C   0  0  0  0  0  3  0  0  0  0  0  0
  1 26  1  0  0  0  0
  3  7  1  1  0  0  0
  3 16  1  0  0  0  0
  4 23  2  0  0  0  0
  5 11  1  6  0  0  0
  5 15  1  0  0  0  0
  6  7  1  0  0  0  0
  8 12  1  0  0  0  0
  9 13  1  0  0  0  0
  9 27  1  0  0  0  0
 10 17  1  0  0  0  0
 13 20  1  0  0  0  0
 14  2  2  0  0  0  0
 15  4  1  0  0  0  0
 15 12  1  0  0  0  0
 16  8  1  0  0  0  0
 17 28  1  0  0  0  0
 18  1  2  0  0  0  0
 18  4  1  0  0  0  0
 19  6  1  0  0  0  0
 19  5  1  0  0  0  0
 19  3  1  0  0  0  0
 20 11  1  0  0  0  0
 20 18  1  0  0  0  0
 22 24  1  0  0  0  0
 22 10  1  0  0  0  0
 23 21  1  0  0  0  0
 24 13  1  0  0  0  0
 25  9  1  0  0  0  0
 25 17  1  0  0  0  0
 25 14  1  0  0  0  0
 26 21  2  0  0  0  0
 27  2  1  0  0  0  0
 27  1  1  0  0  0  0
 28 29  1  0  0  0  0
 29 32  1  0  0  0  0
 30 33  1  0  0  0  0
 31 33  1  0  0  0  0
 32 31  2  0  0  0  0
 34 32  1  0  0  0  0
 34 30  2  0  0  0  0
M  END
>  <MODEL>
1

>  <REMARK>
 VINA RESULT:      -9.3      0.000      0.000
  Name = 
  3 active torsions:
  status: ('A' for Active; 'I' for Inactive)
    1  A    between atoms: C_17  and  O_28
    2  A    between atoms: O_28  and  C_29
    3  A    between atoms: C_29  and  C_32
                            x       y       z     vdW  Elec       q    Type
                         _______ _______ _______ _____ _____    ______ ____

>  <TORSDO>
F 3

$$$$
=
 OpenBabel11112417473D

 34 41  0  0  1  0  0  0  0  0999 V2000
  189.6150  173.9570  143.8280 C   0  0  0  0  0  0  0  0  0  0  0  0
  191.3240  172.1660  144.0630 C   0  0  0  0  0  3  0  0  0  0  0  0
  186.0810  178.3220  145.7090 C   0  0  2  0  0  3  0  0  0  0  0  0
  188.4190  175.9650  143.1680 C   0  0  0  0  0  0  0  0  0  0  0  0
  188.5100  178.0490  144.6600 C   0  0  1  0  0  3  0  0  0  0  0  0
  186.9680  176.3700  145.9410 C   0  0  0  0  0  2  0  0  0  0  0  0
  185.5470  176.9110  145.9060 C   0  0  0  0  0  2  0  0  0  0  0  0
  185.7220  177.9450  143.1950 C   0  0  0  0  0  2  0  0  0  0  0  0
  191.5860  174.0780  145.4880 C   0  0  2  0  0  3  0  0  0  0  0  0
  194.4800  175.5750  145.2470 C   0  0  0  0  0  2  0  0  0  0  0  0
  189.9140  177.5920  145.0530 C   0  0  0  0  0  2  0  0  0  0  0  0
  187.0550  178.0790  142.4920 C   0  0  0  0  0  2  0  0  0  0  0  0
  191.4670  175.6030  145.2770 C   0  0  1  0  0  3  0  0  0  0  0  0
  192.6290  172.3170  144.2320 C   0  0  0  0  0  3  0  0  0  0  0  0
  188.2040  177.4530  143.2810 C   0  0  2  0  0  3  0  0  0  0  0  0
  185.6500  178.9220  144.3620 C   0  0  0  0  0  2  0  0  0  0  0  0
  193.9060  174.4720  144.3370 C   0  0  1  0  0  3  0  0  0  0  0  0
  189.3530  175.3290  144.0150 C   0  0  0  0  0  0  0  0  0  0  0  0
  187.5090  177.7860  145.8140 C   0  0  2  0  0  3  0  0  0  0  0  0
  190.0130  176.0590  145.1720 C   0  0  2  0  0  3  0  0  0  0  0  0
  188.0820  173.8770  142.0080 C   0  0  0  0  0  3  0  0  0  0  0  0
  193.6920  175.8330  146.5400 C   0  0  0  0  0  2  0  0  0  0  0  0
  187.8050  175.2350  142.1470 C   0  0  0  0  0  3  0  0  0  0  0  0
  192.2820  176.3910  146.3120 C   0  0  0  0  0  2  0  0  0  0  0  0
  192.9570  173.4960  145.0780 C   0  0  1  0  0  3  0  0  0  0  0  0
  188.9630  173.2730  142.8470 N   0  0  0  0  0  0  0  0  0  0  0  0
  190.5280  173.2120  144.7720 C   0  0  1  0  0  3  0  0  0  0  0  0
  193.2790  175.0600  143.2300 O   0  0  0  0  0  0  0  0  0  0  0  0
  194.0710  176.1540  142.8730 C   0  0  0  0  0  2  0  0  0  0  0  0
  196.2620  175.7210  140.0260 N   0  0  0  0  0  0  0  0  0  0  0  0
  194.1800  175.3150  140.5150 N   0  0  0  0  0  0  0  0  0  0  0  0
  194.7700  175.8540  141.5930 C   0  0  0  0  0  0  0  0  0  0  0  0
  195.1170  175.2570  139.6150 O   0  0  0  0  0  0  0  0  0  0  0  0
  196.0880  176.1220  141.3000 C   0  0  0  0  0  3  0  0  0  0  0  0
  1 18  1  0  0  0  0
  1 27  1  0  0  0  0
  2 14  2  0  0  0  0
  2 27  1  0  0  0  0
  3 16  1  6  0  0  0
  3 19  1  0  0  0  0
  3  7  1  0  0  0  0
  4 15  1  0  0  0  0
  4 18  2  0  0  0  0
  5 11  1  1  0  0  0
  5 19  1  0  0  0  0
  7  6  1  0  0  0  0
  8 16  1  0  0  0  0
 10 22  1  0  0  0  0
 11 20  1  0  0  0  0
 12  8  1  0  0  0  0
 12 15  1  0  0  0  0
 13  9  1  0  0  0  0
 13 24  1  0  0  0  0
 14 25  1  0  0  0  0
 15  5  1  0  0  0  0
 17 25  1  0  0  0  0
 17 10  1  0  0  0  0
 18 20  1  0  0  0  0
 19  6  1  0  0  0  0
 20 13  1  0  0  0  0
 21 23  2  0  0  0  0
 21 26  1  0  0  0  0
 23  4  1  0  0  0  0
 24 22  1  0  0  0  0
 25  9  1  0  0  0  0
 26  1  2  0  0  0  0
 27  9  1  0  0  0  0
 28 17  1  0  0  0  0
 29 28  1  0  0  0  0
 30 34  2  0  0  0  0
 31 32  2  0  0  0  0
 32 29  1  0  0  0  0
 33 30  1  0  0  0  0
 33 31  1  0  0  0  0
 34 32  1  0  0  0  0
M  END
>  <MODEL>
2

>  <REMARK>
 VINA RESULT:      -9.1      2.762      4.725
  Name = 
  3 active torsions:
  status: ('A' for Active; 'I' for Inactive)
    1  A    between atoms: C_17  and  O_28
    2  A    between atoms: O_28  and  C_29
    3  A    between atoms: C_29  and  C_32
                            x       y       z     vdW  Elec       q    Type
                         _______ _______ _______ _____ _____    ______ ____

>  <TORSDO>
F 3

$$$$
=
 OpenBabel11112417473D

 34 41  0  0  1  0  0  0  0  0999 V2000
  189.6450  173.9180  143.8430 C   0  0  0  0  0  0  0  0  0  0  0  0
  191.3640  172.1300  144.0250 C   0  0  0  0  0  3  0  0  0  0  0  0
  186.1490  178.2630  145.8380 C   0  0  2  0  0  3  0  0  0  0  0  0
  188.4270  175.9270  143.2250 C   0  0  0  0  0  0  0  0  0  0  0  0
  188.5510  178.0020  144.7260 C   0  0  1  0  0  3  0  0  0  0  0  0
  187.0470  176.3120  146.0360 C   0  0  0  0  0  2  0  0  0  0  0  0
  185.6230  176.8480  146.0410 C   0  0  0  0  0  2  0  0  0  0  0  0
  185.7260  177.8980  143.3320 C   0  0  0  0  0  2  0  0  0  0  0  0
  191.6570  174.0350  145.4530 C   0  0  2  0  0  3  0  0  0  0  0  0
  194.5400  175.5420  145.1470 C   0  0  0  0  0  2  0  0  0  0  0  0
  189.9650  177.5470  145.0800 C   0  0  0  0  0  2  0  0  0  0  0  0
  187.0410  178.0390  142.5960 C   0  0  0  0  0  2  0  0  0  0  0  0
  191.5290  175.5620  145.2530 C   0  0  1  0  0  3  0  0  0  0  0  0
  192.6720  172.2840  144.1610 C   0  0  0  0  0  3  0  0  0  0  0  0
  188.2110  177.4130  143.3510 C   0  0  2  0  0  3  0  0  0  0  0  0
  185.6820  178.8690  144.5060 C   0  0  0  0  0  2  0  0  0  0  0  0
  193.9460  174.4430  144.2460 C   0  0  1  0  0  3  0  0  0  0  0  0
  189.3840  175.2880  144.0440 C   0  0  0  0  0  0  0  0  0  0  0  0
  187.5790  177.7300  145.9030 C   0  0  2  0  0  3  0  0  0  0  0  0
  190.0710  176.0130  145.1880 C   0  0  2  0  0  3  0  0  0  0  0  0
  188.0660  173.8440  142.0620 C   0  0  0  0  0  3  0  0  0  0  0  0
  193.7840  175.7910  146.4610 C   0  0  0  0  0  2  0  0  0  0  0  0
  187.7890  175.2000  142.2160 C   0  0  0  0  0  3  0  0  0  0  0  0
  192.3680  176.3450  146.2720 C   0  0  0  0  0  2  0  0  0  0  0  0
  193.0190  173.4590  145.0050 C   0  0  1  0  0  3  0  0  0  0  0  0
  188.9700  173.2370  142.8750 N   0  0  0  0  0  0  0  0  0  0  0  0
  190.5840  173.1700  144.7600 C   0  0  1  0  0  3  0  0  0  0  0  0
  193.2890  175.0350  143.1580 O   0  0  0  0  0  0  0  0  0  0  0  0
  194.1040  174.8100  142.0460 C   0  0  0  0  0  2  0  0  0  0  0  0
  192.5390  173.9440  138.9000 N   0  0  0  0  0  0  0  0  0  0  0  0
  191.9670  174.0270  140.9990 N   0  0  0  0  0  0  0  0  0  0  0  0
  193.2560  174.3850  140.8970 C   0  0  0  0  0  0  0  0  0  0  0  0
  191.5940  173.7730  139.7790 O   0  0  0  0  0  0  0  0  0  0  0  0
  193.6340  174.3430  139.5750 C   0  0  0  0  0  3  0  0  0  0  0  0
  1 18  1  0  0  0  0
  1 27  1  0  0  0  0
  2 14  2  0  0  0  0
  2 27  1  0  0  0  0
  3 16  1  6  0  0  0
  3 19  1  0  0  0  0
  3  7  1  0  0  0  0
  4 15  1  0  0  0  0
  4 18  2  0  0  0  0
  5 11  1  1  0  0  0
  5 19  1  0  0  0  0
  6  7  1  0  0  0  0
  8 16  1  0  0  0  0
 10 22  1  0  0  0  0
 11 20  1  0  0  0  0
 12  8  1  0  0  0  0
 12 15  1  0  0  0  0
 13  9  1  0  0  0  0
 13 24  1  0  0  0  0
 14 25  1  0  0  0  0
 15  5  1  0  0  0  0
 17 25  1  0  0  0  0
 17 10  1  0  0  0  0
 18 20  1  0  0  0  0
 19  6  1  0  0  0  0
 20 13  1  0  0  0  0
 21 23  2  0  0  0  0
 21 26  1  0  0  0  0
 23  4  1  0  0  0  0
 24 22  1  0  0  0  0
 25  9  1  0  0  0  0
 26  1  2  0  0  0  0
 27  9  1  0  0  0  0
 28 17  1  0  0  0  0
 29 28  1  0  0  0  0
 30 34  2  0  0  0  0
 30 33  1  0  0  0  0
 32 31  2  0  0  0  0
 32 29  1  0  0  0  0
 33 31  1  0  0  0  0
 34 32  1  0  0  0  0
M  END
>  <MODEL>
3

>  <REMARK>
 VINA RESULT:      -8.9      2.428      4.515
  Name = 
  3 active torsions:
  status: ('A' for Active; 'I' for Inactive)
    1  A    between atoms: C_17  and  O_28
    2  A    between atoms: O_28  and  C_29
    3  A    between atoms: C_29  and  C_32
                            x       y       z     vdW  Elec       q    Type
                         _______ _______ _______ _____ _____    ______ ____

>  <TORSDO>
F 3

$$$$
=
 OpenBabel11112417473D

 34 41  0  0  1  0  0  0  0  0999 V2000
  193.2700  174.6350  143.7930 C   0  0  0  0  0  0  0  0  0  0  0  0
  194.0180  175.8760  145.8130 C   0  0  0  0  0  3  0  0  0  0  0  0
  190.8020  170.1390  140.8300 C   0  0  2  0  0  3  0  0  0  0  0  0
  192.1580  173.9890  141.7320 C   0  0  0  0  0  0  0  0  0  0  0  0
  190.0750  172.4960  141.8250 C   0  0  1  0  0  3  0  0  0  0  0  0
  192.0690  170.9050  142.3980 C   0  0  0  0  0  2  0  0  0  0  0  0
  192.2560  169.9420  141.2360 C   0  0  0  0  0  2  0  0  0  0  0  0
  191.6630  171.8970  139.1690 C   0  0  0  0  0  2  0  0  0  0  0  0
  192.0160  174.5750  146.0460 C   0  0  2  0  0  3  0  0  0  0  0  0
  189.4070  176.2520  147.0730 C   0  0  0  0  0  2  0  0  0  0  0  0
  189.7720  173.1610  143.1650 C   0  0  0  0  0  2  0  0  0  0  0  0
  191.0330  173.2300  139.5090 C   0  0  0  0  0  2  0  0  0  0  0  0
  190.7650  174.3550  145.1670 C   0  0  1  0  0  3  0  0  0  0  0  0
  193.2600  176.5280  146.6830 C   0  0  0  0  0  3  0  0  0  0  0  0
  190.9380  173.4710  141.0150 C   0  0  2  0  0  3  0  0  0  0  0  0
  190.6700  170.7720  139.4370 C   0  0  0  0  0  2  0  0  0  0  0  0
  190.7690  176.8070  146.6140 C   0  0  1  0  0  3  0  0  0  0  0  0
  192.1630  174.0550  143.1430 C   0  0  0  0  0  0  0  0  0  0  0  0
  190.5990  171.0520  142.0380 C   0  0  2  0  0  3  0  0  0  0  0  0
  191.0520  173.4400  143.9770 C   0  0  2  0  0  3  0  0  0  0  0  0
  194.3100  175.0790  141.6970 C   0  0  0  0  0  3  0  0  0  0  0  0
  189.3570  174.7310  147.2820 C   0  0  0  0  0  2  0  0  0  0  0  0
  193.2290  174.5290  141.0140 C   0  0  0  0  0  3  0  0  0  0  0  0
  189.5510  173.9180  145.9970 C   0  0  0  0  0  2  0  0  0  0  0  0
  191.9540  175.8530  146.9110 C   0  0  1  0  0  3  0  0  0  0  0  0
  194.3120  175.1110  143.0560 N   0  0  0  0  0  0  0  0  0  0  0  0
  193.3650  174.6350  145.3000 C   0  0  1  0  0  3  0  0  0  0  0  0
  190.7030  177.1400  145.2540 O   0  0  0  0  0  0  0  0  0  0  0  0
  189.4120  177.6260  145.0370 C   0  0  0  0  0  2  0  0  0  0  0  0
  187.5730  175.9860  142.3860 N   0  0  0  0  0  0  0  0  0  0  0  0
  189.5410  176.8800  142.6480 N   0  0  0  0  0  0  0  0  0  0  0  0
  188.8600  177.0110  143.7970 C   0  0  0  0  0  0  0  0  0  0  0  0
  188.7240  176.2660  141.8440 O   0  0  0  0  0  0  0  0  0  0  0  0
  187.6140  176.4470  143.6510 C   0  0  0  0  0  3  0  0  0  0  0  0
  1 27  1  0  0  0  0
  2 14  2  0  0  0  0
  3 16  1  6  0  0  0
  3  7  1  0  0  0  0
  3 19  1  0  0  0  0
  4 18  2  0  0  0  0
  5 19  1  0  0  0  0
  5 11  1  1  0  0  0
  7  6  1  0  0  0  0
  8 16  1  0  0  0  0
  8 12  1  0  0  0  0
  9 25  1  0  0  0  0
 10 22  1  0  0  0  0
 11 20  1  0  0  0  0
 12 15  1  0  0  0  0
 13 24  1  0  0  0  0
 13  9  1  0  0  0  0
 14 25  1  0  0  0  0
 15  4  1  0  0  0  0
 15  5  1  0  0  0  0
 17 25  1  0  0  0  0
 17 10  1  0  0  0  0
 18  1  1  0  0  0  0
 18 20  1  0  0  0  0
 19  6  1  0  0  0  0
 20 13  1  0  0  0  0
 21 26  1  0  0  0  0
 23 21  2  0  0  0  0
 23  4  1  0  0  0  0
 24 22  1  0  0  0  0
 26  1  2  0  0  0  0
 27  2  1  0  0  0  0
 27  9  1  0  0  0  0
 28 17  1  0  0  0  0
 29 28  1  0  0  0  0
 30 34  2  0  0  0  0
 31 32  2  0  0  0  0
 32 29  1  0  0  0  0
 33 30  1  0  0  0  0
 33 31  1  0  0  0  0
 34 32  1  0  0  0  0
M  END
>  <MODEL>
4

>  <REMARK>
 VINA RESULT:      -7.9      2.852      7.271
  Name = 
  3 active torsions:
  status: ('A' for Active; 'I' for Inactive)
    1  A    between atoms: C_17  and  O_28
    2  A    between atoms: O_28  and  C_29
    3  A    between atoms: C_29  and  C_32
                            x       y       z     vdW  Elec       q    Type
                         _______ _______ _______ _____ _____    ______ ____

>  <TORSDO>
F 3

$$$$
=
 OpenBabel11112417473D

 34 41  0  0  1  0  0  0  0  0999 V2000
  193.0700  176.1050  143.2530 C   0  0  0  0  0  0  0  0  0  0  0  0
  191.3770  177.9250  143.2950 C   0  0  0  0  0  3  0  0  0  0  0  0
  197.2920  172.6120  145.5010 C   0  0  2  0  0  3  0  0  0  0  0  0
  194.1690  173.9470  143.0640 C   0  0  0  0  0  0  0  0  0  0  0  0
  194.6520  172.5770  145.1770 C   0  0  1  0  0  3  0  0  0  0  0  0
  196.3720  174.5450  145.2440 C   0  0  0  0  0  2  0  0  0  0  0  0
  197.7590  173.9710  145.0000 C   0  0  0  0  0  2  0  0  0  0  0  0
  196.8960  172.0090  143.0380 C   0  0  0  0  0  2  0  0  0  0  0  0
  191.6660  176.6960  145.3340 C   0  0  2  0  0  3  0  0  0  0  0  0
  188.9360  175.3410  146.5120 C   0  0  0  0  0  2  0  0  0  0  0  0
  193.3900  173.2060  145.7620 C   0  0  0  0  0  2  0  0  0  0  0  0
  195.4310  171.6790  142.8520 C   0  0  0  0  0  2  0  0  0  0  0  0
  191.8270  175.1980  145.6760 C   0  0  1  0  0  3  0  0  0  0  0  0
  190.1870  177.9040  143.8770 C   0  0  0  0  0  3  0  0  0  0  0  0
  194.5120  172.6010  143.6500 C   0  0  2  0  0  3  0  0  0  0  0  0
  197.3640  171.5350  144.4080 C   0  0  0  0  0  2  0  0  0  0  0  0
  189.1490  175.9990  145.1350 C   0  0  1  0  0  3  0  0  0  0  0  0
  193.4710  174.8930  143.8480 C   0  0  0  0  0  0  0  0  0  0  0  0
  195.9190  173.2080  145.8100 C   0  0  2  0  0  3  0  0  0  0  0  0
  193.2200  174.6750  145.3300 C   0  0  2  0  0  3  0  0  0  0  0  0
  194.0140  175.4350  141.1720 C   0  0  0  0  0  3  0  0  0  0  0  0
  190.0750  175.5510  147.5210 C   0  0  0  0  0  2  0  0  0  0  0  0
  194.4150  174.2170  141.7150 C   0  0  0  0  0  3  0  0  0  0  0  0
  191.3970  174.8890  147.1170 C   0  0  0  0  0  2  0  0  0  0  0  0
  190.1970  177.1400  145.1540 C   0  0  1  0  0  3  0  0  0  0  0  0
  193.3670  176.3460  141.9450 N   0  0  0  0  0  0  0  0  0  0  0  0
  192.4130  177.1870  144.0770 C   0  0  1  0  0  3  0  0  0  0  0  0
  189.4750  175.0150  144.1920 O   0  0  0  0  0  0  0  0  0  0  0  0
  188.5370  175.1370  143.1650 C   0  0  0  0  0  2  0  0  0  0  0  0
  190.4730  173.7370  140.4470 N   0  0  0  0  0  0  0  0  0  0  0  0
  188.4780  174.5620  140.7270 N   0  0  0  0  0  0  0  0  0  0  0  0
  189.1150  174.5850  141.9070 C   0  0  0  0  0  0  0  0  0  0  0  0
  189.3340  174.0450  139.8950 O   0  0  0  0  0  0  0  0  0  0  0  0
  190.3810  174.0700  141.7480 C   0  0  0  0  0  3  0  0  0  0  0  0
  1 18  1  0  0  0  0
  1 27  1  0  0  0  0
  2 14  2  0  0  0  0
  2 27  1  0  0  0  0
  3 16  1  6  0  0  0
  3 19  1  0  0  0  0
  4 15  1  0  0  0  0
  4 18  2  0  0  0  0
  5 11  1  1  0  0  0
  5 19  1  0  0  0  0
  6 19  1  0  0  0  0
  7  6  1  0  0  0  0
  7  3  1  0  0  0  0
  8 16  1  0  0  0  0
  9 13  1  0  0  0  0
 10 22  1  0  0  0  0
 12  8  1  0  0  0  0
 12 15  1  0  0  0  0
 13 24  1  0  0  0  0
 14 25  1  0  0  0  0
 15  5  1  0  0  0  0
 17 25  1  0  0  0  0
 17 10  1  0  0  0  0
 18 20  1  0  0  0  0
 20 13  1  0  0  0  0
 20 11  1  0  0  0  0
 21 23  2  0  0  0  0
 21 26  1  0  0  0  0
 23  4  1  0  0  0  0
 24 22  1  0  0  0  0
 25  9  1  0  0  0  0
 26  1  2  0  0  0  0
 27  9  1  0  0  0  0
 28 17  1  0  0  0  0
 29 28  1  0  0  0  0
 30 34  2  0  0  0  0
 31 32  2  0  0  0  0
 32 29  1  0  0  0  0
 33 30  1  0  0  0  0
 33 31  1  0  0  0  0
 34 32  1  0  0  0  0
M  END
>  <MODEL>
5

>  <REMARK>
 VINA RESULT:      -7.8      3.327      8.043
  Name = 
  3 active torsions:
  status: ('A' for Active; 'I' for Inactive)
    1  A    between atoms: C_17  and  O_28
    2  A    between atoms: O_28  and  C_29
    3  A    between atoms: C_29  and  C_32
                            x       y       z     vdW  Elec       q    Type
                         _______ _______ _______ _____ _____    ______ ____

>  <TORSDO>
F 3

$$$$
=
 OpenBabel11112417473D

 34 41  0  0  1  0  0  0  0  0999 V2000
  190.7680  173.4440  142.9010 C   0  0  0  0  0  0  0  0  0  0  0  0
  188.4370  173.2690  142.0530 C   0  0  0  0  0  3  0  0  0  0  0  0
  196.2880  175.5810  143.1050 C   0  0  2  0  0  3  0  0  0  0  0  0
  192.7160  173.7760  144.3130 C   0  0  0  0  0  0  0  0  0  0  0  0
  193.9430  176.0280  144.2780 C   0  0  1  0  0  3  0  0  0  0  0  0
  194.5650  174.8870  142.0090 C   0  0  0  0  0  2  0  0  0  0  0  0
  196.0360  174.5050  142.0580 C   0  0  0  0  0  2  0  0  0  0  0  0
  196.0170  173.7260  144.8580 C   0  0  0  0  0  2  0  0  0  0  0  0
  189.4210  175.4560  142.0110 C   0  0  2  0  0  3  0  0  0  0  0  0
  187.7240  177.7500  143.6040 C   0  0  0  0  0  2  0  0  0  0  0  0
  192.5840  176.6580  143.9830 C   0  0  0  0  0  2  0  0  0  0  0  0
  194.8580  174.0840  145.7630 C   0  0  0  0  0  2  0  0  0  0  0  0
  190.2790  176.2710  143.0050 C   0  0  1  0  0  3  0  0  0  0  0  0
  187.4410  174.1190  142.2570 C   0  0  0  0  0  3  0  0  0  0  0  0
  193.6850  174.7020  145.0040 C   0  0  2  0  0  3  0  0  0  0  0  0
  196.7590  174.9900  144.4420 C   0  0  0  0  0  2  0  0  0  0  0  0
  187.4990  176.2250  143.6160 C   0  0  1  0  0  3  0  0  0  0  0  0
  191.7270  174.3120  143.4580 C   0  0  0  0  0  0  0  0  0  0  0  0
  194.8250  176.0090  143.0030 C   0  0  2  0  0  3  0  0  0  0  0  0
  191.7250  175.7770  143.0560 C   0  0  2  0  0  3  0  0  0  0  0  0
  191.7430  171.5870  144.0290 C   0  0  0  0  0  3  0  0  0  0  0  0
  188.7160  178.2560  142.5460 C   0  0  0  0  0  2  0  0  0  0  0  0
  192.7010  172.4110  144.6140 C   0  0  0  0  0  3  0  0  0  0  0  0
  190.1570  177.7820  142.7630 C   0  0  0  0  0  2  0  0  0  0  0  0
  187.9040  175.5330  142.2900 C   0  0  1  0  0  3  0  0  0  0  0  0
  190.8150  172.1130  143.1880 N   0  0  0  0  0  0  0  0  0  0  0  0
  189.7550  173.9540  141.9030 C   0  0  1  0  0  3  0  0  0  0  0  0
  188.1650  175.6640  144.7150 O   0  0  0  0  0  0  0  0  0  0  0  0
  188.1040  176.6190  145.7330 C   0  0  0  0  0  2  0  0  0  0  0  0
  191.1040  175.7960  147.5820 N   0  0  0  0  0  0  0  0  0  0  0  0
  189.8330  177.5410  147.2950 N   0  0  0  0  0  0  0  0  0  0  0  0
  189.3420  176.5330  146.5570 C   0  0  0  0  0  0  0  0  0  0  0  0
  190.8830  177.0450  147.8810 O   0  0  0  0  0  0  0  0  0  0  0  0
  190.1310  175.4190  146.7300 C   0  0  0  0  0  3  0  0  0  0  0  0
  1 26  2  0  0  0  0
  1 18  1  0  0  0  0
  2 14  2  0  0  0  0
  3  7  1  6  0  0  0
  3 16  1  0  0  0  0
  4 23  1  0  0  0  0
  4 15  1  0  0  0  0
  5 11  1  6  0  0  0
  5 15  1  0  0  0  0
  6  7  1  0  0  0  0
  6 19  1  0  0  0  0
  8 12  1  0  0  0  0
  9 25  1  0  0  0  0
  9 13  1  0  0  0  0
 10 17  1  0  0  0  0
 13 20  1  0  0  0  0
 14 25  1  0  0  0  0
 15 12  1  0  0  0  0
 16  8  1  0  0  0  0
 17 28  1  0  0  0  0
 18  4  2  0  0  0  0
 19  3  1  0  0  0  0
 19  5  1  0  0  0  0
 20 18  1  0  0  0  0
 20 11  1  0  0  0  0
 21 23  2  0  0  0  0
 22 24  1  0  0  0  0
 22 10  1  0  0  0  0
 24 13  1  0  0  0  0
 25 17  1  0  0  0  0
 26 21  1  0  0  0  0
 27  9  1  0  0  0  0
 27  2  1  0  0  0  0
 27  1  1  0  0  0  0
 28 29  1  0  0  0  0
 29 32  1  0  0  0  0
 30 33  1  0  0  0  0
 31 33  1  0  0  0  0
 32 34  1  0  0  0  0
 32 31  2  0  0  0  0
 34 30  2  0  0  0  0
M  END
>  <MODEL>
6

>  <REMARK>
 VINA RESULT:      -7.8      2.437      7.115
  Name = 
  3 active torsions:
  status: ('A' for Active; 'I' for Inactive)
    1  A    between atoms: C_17  and  O_28
    2  A    between atoms: O_28  and  C_29
    3  A    between atoms: C_29  and  C_32
                            x       y       z     vdW  Elec       q    Type
                         _______ _______ _______ _____ _____    ______ ____

>  <TORSDO>
F 3

$$$$
=
 OpenBabel11112417473D

 34 41  0  0  1  0  0  0  0  0999 V2000
  192.4450  172.2290  144.2210 C   0  0  0  0  0  0  0  0  0  0  0  0
  194.0090  170.2970  144.2820 C   0  0  0  0  0  3  0  0  0  0  0  0
  189.6210  176.9540  146.4070 C   0  0  2  0  0  3  0  0  0  0  0  0
  191.3400  174.3170  143.6560 C   0  0  0  0  0  0  0  0  0  0  0  0
  191.8320  176.4280  145.0270 C   0  0  1  0  0  3  0  0  0  0  0  0
  190.3620  174.9380  146.5920 C   0  0  0  0  0  2  0  0  0  0  0  0
  189.0030  175.6040  146.7420 C   0  0  0  0  0  2  0  0  0  0  0  0
  188.8570  176.5350  143.9920 C   0  0  0  0  0  2  0  0  0  0  0  0
  194.6450  172.2200  145.5680 C   0  0  2  0  0  3  0  0  0  0  0  0
  197.5890  173.4380  144.8410 C   0  0  0  0  0  2  0  0  0  0  0  0
  193.2340  175.8570  145.2290 C   0  0  0  0  0  2  0  0  0  0  0  0
  190.0770  176.5240  143.0960 C   0  0  0  0  0  2  0  0  0  0  0  0
  194.6280  173.7430  145.3100 C   0  0  1  0  0  3  0  0  0  0  0  0
  195.3330  170.3330  144.2510 C   0  0  0  0  0  3  0  0  0  0  0  0
  191.2730  175.8210  143.7340 C   0  0  2  0  0  3  0  0  0  0  0  0
  189.0460  177.5490  145.1130 C   0  0  0  0  0  2  0  0  0  0  0  0
  196.7910  172.3660  144.0740 C   0  0  1  0  0  3  0  0  0  0  0  0
  192.3320  173.6240  144.3850 C   0  0  0  0  0  0  0  0  0  0  0  0
  190.9960  176.2940  146.3250 C   0  0  2  0  0  3  0  0  0  0  0  0
  193.2180  174.3260  145.3990 C   0  0  2  0  0  3  0  0  0  0  0  0
  190.6560  172.2340  142.6510 C   0  0  0  0  0  3  0  0  0  0  0  0
  197.0280  173.8070  146.2230 C   0  0  0  0  0  2  0  0  0  0  0  0
  190.5200  173.6150  142.7690 C   0  0  0  0  0  3  0  0  0  0  0  0
  195.6530  174.4840  146.1790 C   0  0  0  0  0  2  0  0  0  0  0  0
  195.8840  171.5030  144.9880 C   0  0  1  0  0  3  0  0  0  0  0  0
  191.5970  171.5780  143.3780 N   0  0  0  0  0  0  0  0  0  0  0  0
  193.4220  171.4330  145.0540 C   0  0  1  0  0  3  0  0  0  0  0  0
  196.0590  172.9740  143.0460 O   0  0  0  0  0  0  0  0  0  0  0  0
  196.9890  173.6630  142.2630 C   0  0  0  0  0  2  0  0  0  0  0  0
  195.2030  176.5260  140.9570 N   0  0  0  0  0  0  0  0  0  0  0  0
  196.9370  176.1670  142.2230 N   0  0  0  0  0  0  0  0  0  0  0  0
  196.4170  174.9810  141.8720 C   0  0  0  0  0  0  0  0  0  0  0  0
  196.1720  177.0500  141.6510 O   0  0  0  0  0  0  0  0  0  0  0  0
  195.3210  175.1880  141.0670 C   0  0  0  0  0  3  0  0  0  0  0  0
  1 18  1  0  0  0  0
  1 27  1  0  0  0  0
  2 27  1  0  0  0  0
  3 16  1  6  0  0  0
  3  7  1  0  0  0  0
  4 15  1  0  0  0  0
  4 18  2  0  0  0  0
  5 11  1  1  0  0  0
  5 19  1  0  0  0  0
  6  7  1  0  0  0  0
  8 16  1  0  0  0  0
 10 22  1  0  0  0  0
 11 20  1  0  0  0  0
 12 15  1  0  0  0  0
 12  8  1  0  0  0  0
 13 20  1  0  0  0  0
 13  9  1  0  0  0  0
 13 24  1  0  0  0  0
 14  2  2  0  0  0  0
 14 25  1  0  0  0  0
 15  5  1  0  0  0  0
 17 10  1  0  0  0  0
 17 25  1  0  0  0  0
 18 20  1  0  0  0  0
 19  3  1  0  0  0  0
 19  6  1  0  0  0  0
 21 23  2  0  0  0  0
 21 26  1  0  0  0  0
 23  4  1  0  0  0  0
 24 22  1  0  0  0  0
 25  9  1  0  0  0  0
 26  1  2  0  0  0  0
 27  9  1  0  0  0  0
 28 17  1  0  0  0  0
 29 28  1  0  0  0  0
 30 34  2  0  0  0  0
 30 33  1  0  0  0  0
 32 31  2  0  0  0  0
 32 29  1  0  0  0  0
 33 31  1  0  0  0  0
 34 32  1  0  0  0  0
M  END
>  <MODEL>
7

>  <REMARK>
 VINA RESULT:      -7.7      3.442      6.535
  Name = 
  3 active torsions:
  status: ('A' for Active; 'I' for Inactive)
    1  A    between atoms: C_17  and  O_28
    2  A    between atoms: O_28  and  C_29
    3  A    between atoms: C_29  and  C_32
                            x       y       z     vdW  Elec       q    Type
                         _______ _______ _______ _____ _____    ______ ____

>  <TORSDO>
F 3

$$$$
=
 OpenBabel11112417473D

 34 41  0  0  1  0  0  0  0  0999 V2000
  194.4480  176.1540  144.5470 C   0  0  0  0  0  0  0  0  0  0  0  0
  196.7070  176.0330  143.5140 C   0  0  0  0  0  3  0  0  0  0  0  0
  188.5260  176.2450  144.5740 C   0  0  2  0  0  3  0  0  0  0  0  0
  192.4630  175.6990  145.8700 C   0  0  0  0  0  0  0  0  0  0  0  0
  190.4840  174.4600  144.8100 C   0  0  1  0  0  3  0  0  0  0  0  0
  190.4260  176.8510  143.7520 C   0  0  0  0  0  2  0  0  0  0  0  0
  189.2050  177.5790  144.2920 C   0  0  0  0  0  2  0  0  0  0  0  0
  189.4030  176.4790  146.9750 C   0  0  0  0  0  2  0  0  0  0  0  0
  194.9770  174.7670  142.4370 C   0  0  2  0  0  3  0  0  0  0  0  0
  195.6260  171.5830  142.0930 C   0  0  0  0  0  2  0  0  0  0  0  0
  191.5180  173.7330  143.9540 C   0  0  0  0  0  2  0  0  0  0  0  0
  190.3060  175.3030  147.2750 C   0  0  0  0  0  2  0  0  0  0  0  0
  193.8370  173.8540  142.9410 C   0  0  1  0  0  3  0  0  0  0  0  0
  197.3020  174.9650  143.0050 C   0  0  0  0  0  3  0  0  0  0  0  0
  191.1910  174.9210  146.0910 C   0  0  2  0  0  3  0  0  0  0  0  0
  188.2580  176.0370  146.0720 C   0  0  0  0  0  2  0  0  0  0  0  0
  196.4050  172.6250  142.9200 C   0  0  1  0  0  3  0  0  0  0  0  0
  193.2120  175.4940  144.6900 C   0  0  0  0  0  0  0  0  0  0  0  0
  189.7250  175.5180  143.9680 C   0  0  2  0  0  3  0  0  0  0  0  0
  192.6820  174.6540  143.5410 C   0  0  2  0  0  3  0  0  0  0  0  0
  194.1960  177.1650  146.6880 C   0  0  0  0  0  3  0  0  0  0  0  0
  194.5590  172.1610  141.1510 C   0  0  0  0  0  2  0  0  0  0  0  0
  192.9770  176.5200  146.8780 C   0  0  0  0  0  3  0  0  0  0  0  0
  193.3940  172.8470  141.8720 C   0  0  0  0  0  2  0  0  0  0  0  0
  196.3430  174.0540  142.3240 C   0  0  1  0  0  3  0  0  0  0  0  0
  194.8920  176.9780  145.5370 N   0  0  0  0  0  0  0  0  0  0  0  0
  195.2350  176.0450  143.2620 C   0  0  1  0  0  3  0  0  0  0  0  0
  195.9550  172.5990  144.2470 O   0  0  0  0  0  0  0  0  0  0  0  0
  196.8760  171.8210  144.9530 C   0  0  0  0  0  2  0  0  0  0  0  0
  195.6690  169.0570  146.9520 N   0  0  0  0  0  0  0  0  0  0  0  0
  194.8070  170.6800  145.7850 N   0  0  0  0  0  0  0  0  0  0  0  0
  196.1430  170.7840  145.7310 C   0  0  0  0  0  0  0  0  0  0  0  0
  194.5820  169.6360  146.5270 O   0  0  0  0  0  0  0  0  0  0  0  0
  196.7060  169.7620  146.4610 C   0  0  0  0  0  3  0  0  0  0  0  0
  1 18  2  0  0  0  0
  1 26  1  0  0  0  0
  3  7  1  1  0  0  0
  3 16  1  0  0  0  0
  4 15  1  0  0  0  0
  4 23  2  0  0  0  0
  5 11  1  6  0  0  0
  5 15  1  0  0  0  0
  6 19  1  0  0  0  0
  6  7  1  0  0  0  0
  8 12  1  0  0  0  0
  9 13  1  0  0  0  0
  9 27  1  0  0  0  0
 10 17  1  0  0  0  0
 13 20  1  0  0  0  0
 14  2  2  0  0  0  0
 15 12  1  0  0  0  0
 16  8  1  0  0  0  0
 17 28  1  0  0  0  0
 18  4  1  0  0  0  0
 19  3  1  0  0  0  0
 19  5  1  0  0  0  0
 20 11  1  0  0  0  0
 20 18  1  0  0  0  0
 21 23  1  0  0  0  0
 22 24  1  0  0  0  0
 22 10  1  0  0  0  0
 24 13  1  0  0  0  0
 25  9  1  0  0  0  0
 25 17  1  0  0  0  0
 25 14  1  0  0  0  0
 26 21  2  0  0  0  0
 27  2  1  0  0  0  0
 27  1  1  0  0  0  0
 28 29  1  0  0  0  0
 29 32  1  0  0  0  0
 31 33  1  0  0  0  0
 32 31  2  0  0  0  0
 32 34  1  0  0  0  0
 33 30  1  0  0  0  0
 34 30  2  0  0  0  0
M  END
>  <MODEL>
8

>  <REMARK>
 VINA RESULT:      -7.6      3.111      5.047
  Name = 
  3 active torsions:
  status: ('A' for Active; 'I' for Inactive)
    1  A    between atoms: C_17  and  O_28
    2  A    between atoms: O_28  and  C_29
    3  A    between atoms: C_29  and  C_32
                            x       y       z     vdW  Elec       q    Type
                         _______ _______ _______ _____ _____    ______ ____

>  <TORSDO>
F 3

$$$$
=
 OpenBabel11112417473D

 34 41  0  0  1  0  0  0  0  0999 V2000
  192.8300  175.4620  145.8980 C   0  0  0  0  0  0  0  0  0  0  0  0
  190.7140  175.2690  147.1890 C   0  0  0  0  0  3  0  0  0  0  0  0
  197.2260  173.5370  142.4260 C   0  0  2  0  0  3  0  0  0  0  0  0
  194.5340  176.1290  144.3000 C   0  0  0  0  0  0  0  0  0  0  0  0
  194.8770  174.7580  142.1610 C   0  0  1  0  0  3  0  0  0  0  0  0
  195.8620  173.2740  144.0760 C   0  0  0  0  0  2  0  0  0  0  0  0
  197.3720  173.2260  143.9090 C   0  0  0  0  0  2  0  0  0  0  0  0
  197.6360  175.9910  143.0550 C   0  0  0  0  0  2  0  0  0  0  0  0
  190.8530  173.9700  145.1770 C   0  0  2  0  0  3  0  0  0  0  0  0
  188.4510  174.5140  143.0300 C   0  0  0  0  0  2  0  0  0  0  0  0
  193.3820  174.4540  142.2270 C   0  0  0  0  0  2  0  0  0  0  0  0
  196.4270  176.8030  142.6440 C   0  0  0  0  0  2  0  0  0  0  0  0
  191.3660  174.2500  143.7470 C   0  0  1  0  0  3  0  0  0  0  0  0
  189.4810  175.2120  146.7080 C   0  0  0  0  0  3  0  0  0  0  0  0
  195.1100  176.0760  142.9090 C   0  0  2  0  0  3  0  0  0  0  0  0
  197.8780  174.8750  142.0470 C   0  0  0  0  0  2  0  0  0  0  0  0
  188.7860  175.3180  144.3010 C   0  0  1  0  0  3  0  0  0  0  0  0
  193.4180  175.3260  144.6250 C   0  0  0  0  0  0  0  0  0  0  0  0
  195.7060  173.5170  142.5820 C   0  0  2  0  0  3  0  0  0  0  0  0
  192.8920  174.2640  143.6750 C   0  0  2  0  0  3  0  0  0  0  0  0
  194.4050  177.1490  146.4830 C   0  0  0  0  0  3  0  0  0  0  0  0
  189.1970  173.1780  142.8860 C   0  0  0  0  0  2  0  0  0  0  0  0
  195.0070  177.0590  145.2300 C   0  0  0  0  0  3  0  0  0  0  0  0
  190.7120  173.3240  142.7120 C   0  0  0  0  0  2  0  0  0  0  0  0
  189.4080  174.4560  145.4280 C   0  0  1  0  0  3  0  0  0  0  0  0
  193.3490  176.3520  146.7900 N   0  0  0  0  0  0  0  0  0  0  0  0
  191.7010  174.5550  146.3260 C   0  0  1  0  0  3  0  0  0  0  0  0
  189.6090  176.4020  143.9650 O   0  0  0  0  0  0  0  0  0  0  0  0
  188.8190  177.5460  144.1050 C   0  0  0  0  0  2  0  0  0  0  0  0
  186.3470  177.9340  141.4920 N   0  0  0  0  0  0  0  0  0  0  0  0
  188.5150  177.7990  141.6310 N   0  0  0  0  0  0  0  0  0  0  0  0
  188.0060  177.7320  142.8710 C   0  0  0  0  0  0  0  0  0  0  0  0
  187.4810  177.9220  140.8520 O   0  0  0  0  0  0  0  0  0  0  0  0
  186.6340  177.8110  142.8020 C   0  0  0  0  0  3  0  0  0  0  0  0
  1 27  1  0  0  0  0
  1 26  1  0  0  0  0
  3 16  1  1  0  0  0
  3 19  1  0  0  0  0
  3  7  1  0  0  0  0
  4 18  1  0  0  0  0
  4 23  2  0  0  0  0
  5 11  1  1  0  0  0
  5 19  1  0  0  0  0
  5 15  1  0  0  0  0
  7  6  1  0  0  0  0
  9 25  1  0  0  0  0
  9 27  1  0  0  0  0
 10 17  1  0  0  0  0
 11 20  1  0  0  0  0
 12 15  1  0  0  0  0
 12  8  1  0  0  0  0
 13  9  1  0  0  0  0
 14  2  2  0  0  0  0
 15  4  1  0  0  0  0
 16  8  1  0  0  0  0
 17 25  1  0  0  0  0
 18  1  2  0  0  0  0
 19  6  1  0  0  0  0
 20 13  1  0  0  0  0
 20 18  1  0  0  0  0
 21 26  2  0  0  0  0
 22 10  1  0  0  0  0
 23 21  1  0  0  0  0
 24 22  1  0  0  0  0
 24 13  1  0  0  0  0
 25 14  1  0  0  0  0
 27  2  1  0  0  0  0
 28 29  1  0  0  0  0
 28 17  1  0  0  0  0
 30 34  2  0  0  0  0
 31 32  2  0  0  0  0
 32 29  1  0  0  0  0
 33 30  1  0  0  0  0
 33 31  1  0  0  0  0
 34 32  1  0  0  0  0
M  END
>  <MODEL>
9

>  <REMARK>
 VINA RESULT:      -7.6      3.388      8.052
  Name = 
  3 active torsions:
  status: ('A' for Active; 'I' for Inactive)
    1  A    between atoms: C_17  and  O_28
    2  A    between atoms: O_28  and  C_29
    3  A    between atoms: C_29  and  C_32
                            x       y       z     vdW  Elec       q    Type
                         _______ _______ _______ _____ _____    ______ ____

>  <TORSDO>
F 3

$$$$
