=
 OpenBabel11112417493D

 34 40  0  0  1  0  0  0  0  0999 V2000
  189.8140  174.1290  143.3810 C   0  0  0  0  0  0  0  0  0  0  0  0
  191.8630  172.6480  143.1390 C   0  0  0  0  0  2  0  0  0  0  0  0
  185.9950  177.7910  146.3010 C   0  0  1  0  0  3  0  0  0  0  0  0
  188.1200  175.8640  143.4240 C   0  0  0  0  0  0  0  0  0  0  0  0
  188.2560  177.7770  145.0800 C   0  0  1  0  0  3  0  0  0  0  0  0
  187.7180  176.2490  146.8860 O   0  0  0  0  0  1  0  0  0  0  0  0
  185.4570  178.2610  147.6380 C   0  0  0  0  0  1  0  0  0  0  0  0
  185.3250  177.9740  144.1910 C   0  0  0  0  0  2  0  0  0  0  0  0
  191.6870  174.0950  145.0750 C   0  0  2  0  0  3  0  0  0  0  0  0
  194.4780  175.4080  146.0610 C   0  0  0  0  0  2  0  0  0  0  0  0
  189.7540  177.4620  145.1520 C   0  0  0  0  0  2  0  0  0  0  0  0
  186.5220  177.8000  143.2610 C   0  0  0  0  0  2  0  0  0  0  0  0
  191.4980  175.6200  145.1730 C   0  0  1  0  0  3  0  0  0  0  0  0
  193.1360  172.4830  143.9490 C   0  0  0  0  0  2  0  0  0  0  0  0
  187.6110  177.1060  143.9450 N   0  0  0  0  0  0  0  0  0  0  0  0
  185.6880  178.7340  145.3110 O   0  0  0  0  0  0  0  0  0  0  0  0
  194.2080  174.6370  144.7740 C   0  0  2  0  0  3  0  0  0  0  0  0
  189.3080  175.3130  143.9410 C   0  0  0  0  0  0  0  0  0  0  0  0
  187.5050  177.5420  146.4070 C   0  0  2  0  0  3  0  0  0  0  0  0
  189.9970  175.9510  145.1280 C   0  0  2  0  0  3  0  0  0  0  0  0
  187.9650  174.1010  141.8300 C   0  0  0  0  0  3  0  0  0  0  0  0
  193.5390  176.5940  146.2180 C   0  0  0  0  0  2  0  0  0  0  0  0
  187.4880  175.2460  142.3860 N   0  0  0  0  0  0  0  0  0  0  0  0
  192.1090  176.1420  146.4660 C   0  0  0  0  0  2  0  0  0  0  0  0
  193.1320  173.5660  145.0330 C   0  0  1  0  0  3  0  0  0  0  0  0
  189.1390  173.5240  142.3140 C   0  0  0  0  0  3  0  0  0  0  0  0
  191.0430  173.5820  143.8800 N   0  0  0  0  0  0  0  0  0  0  0  0
  195.4540  174.0220  144.3420 N   0  0  0  0  0  2  0  0  0  0  0  0
  196.5280  174.9160  144.7390 C   0  0  0  0  0  2  0  0  0  0  0  0
  196.4720  175.4930  141.2830 N   0  0  0  0  0  2  0  0  0  0  0  0
  196.8710  176.7810  143.1380 C   0  0  0  0  0  2  0  0  0  0  0  0
  197.2920  175.3850  143.5130 C   0  0  0  0  0  3  0  0  0  0  0  0
  196.0670  176.6730  141.9310 N   0  0  0  0  0  2  0  0  0  0  0  0
  196.8760  174.5620  142.3250 C   0  0  0  0  0  2  0  0  0  0  0  0
  1 27  1  0  0  0  0
  1 18  1  0  0  0  0
  2 27  1  0  0  0  0
  2 14  1  0  0  0  0
  3 19  1  0  0  0  0
  3  7  1  1  0  0  0
  4 18  2  0  0  0  0
  4 15  1  0  0  0  0
  5 11  1  1  0  0  0
  5 19  1  0  0  0  0
  8 16  1  0  0  0  0
  9 27  1  6  0  0  0
  9 13  1  0  0  0  0
 10 22  1  0  0  0  0
 12 15  1  0  0  0  0
 12  8  1  0  0  0  0
 13 24  1  1  0  0  0
 15  5  1  0  0  0  0
 16  3  1  0  0  0  0
 17 28  1  1  0  0  0
 17 25  1  0  0  0  0
 17 10  1  0  0  0  0
 18 20  1  0  0  0  0
 19  6  1  6  0  0  0
 20 11  1  6  0  0  0
 20 13  1  0  0  0  0
 21 26  1  0  0  0  0
 21 23  2  0  0  0  0
 22 24  1  0  0  0  0
 23  4  1  0  0  0  0
 25 14  1  6  0  0  0
 25  9  1  0  0  0  0
 26  1  2  0  0  0  0
 28 29  1  0  0  0  0
 30 33  1  0  0  0  0
 30 34  1  0  0  0  0
 31 32  1  0  0  0  0
 32 29  1  0  0  0  0
 33 31  1  0  0  0  0
 34 32  1  0  0  0  0
M  END
>  <MODEL>
1

>  <REMARK>
 VINA RESULT:      -8.7      0.000      0.000
  Name = 
  3 active torsions:
  status: ('A' for Active; 'I' for Inactive)
    1  A    between atoms: C_17  and  N_28
    2  A    between atoms: N_28  and  C_29
    3  A    between atoms: C_29  and  C_32
                            x       y       z     vdW  Elec       q    Type
                         _______ _______ _______ _____ _____    ______ ____

>  <TORSDO>
F 3

$$$$
=
 OpenBabel11112417493D

 34 40  0  0  1  0  0  0  0  0999 V2000
  189.4980  174.7080  142.5860 C   0  0  0  0  0  0  0  0  0  0  0  0
  191.5090  173.1550  142.5900 C   0  0  0  0  0  2  0  0  0  0  0  0
  185.1210  178.0350  145.0940 C   0  0  1  0  0  3  0  0  0  0  0  0
  187.8880  176.5210  142.5340 C   0  0  0  0  0  0  0  0  0  0  0  0
  187.6220  178.0850  144.5090 C   0  0  1  0  0  3  0  0  0  0  0  0
  186.5970  176.2940  145.7860 O   0  0  0  0  0  1  0  0  0  0  0  0
  184.2600  178.2890  146.3160 C   0  0  0  0  0  1  0  0  0  0  0  0
  185.0330  178.6470  142.9610 C   0  0  0  0  0  2  0  0  0  0  0  0
  190.8590  174.2330  144.6610 C   0  0  2  0  0  3  0  0  0  0  0  0
  193.3180  175.1440  146.5610 C   0  0  0  0  0  2  0  0  0  0  0  0
  189.0420  177.6570  144.8980 C   0  0  0  0  0  2  0  0  0  0  0  0
  186.4290  178.5610  142.3510 C   0  0  0  0  0  2  0  0  0  0  0  0
  190.6810  175.7250  145.0020 C   0  0  1  0  0  3  0  0  0  0  0  0
  192.5200  172.7560  143.6490 C   0  0  0  0  0  2  0  0  0  0  0  0
  187.2850  177.6790  143.1400 N   0  0  0  0  0  0  0  0  0  0  0  0
  185.1040  179.1620  144.2620 O   0  0  0  0  0  0  0  0  0  0  0  0
  193.3800  174.6430  145.1230 C   0  0  2  0  0  3  0  0  0  0  0  0
  188.8860  175.8020  143.2190 C   0  0  0  0  0  0  0  0  0  0  0  0
  186.5440  177.6650  145.5300 C   0  0  2  0  0  3  0  0  0  0  0  0
  189.2520  176.1620  144.6430 C   0  0  2  0  0  3  0  0  0  0  0  0
  188.1220  175.0940  140.6420 C   0  0  0  0  0  3  0  0  0  0  0  0
  192.3950  176.3450  146.7010 C   0  0  0  0  0  2  0  0  0  0  0  0
  187.5390  176.1490  141.2700 N   0  0  0  0  0  0  0  0  0  0  0  0
  190.9410  175.9570  146.4850 C   0  0  0  0  0  2  0  0  0  0  0  0
  192.2530  173.6200  144.8850 C   0  0  1  0  0  3  0  0  0  0  0  0
  189.1160  174.3570  141.2870 C   0  0  0  0  0  3  0  0  0  0  0  0
  190.5410  173.9940  143.2650 N   0  0  0  0  0  0  0  0  0  0  0  0
  194.6830  174.0300  144.9100 N   0  0  0  0  0  2  0  0  0  0  0  0
  195.6070  174.6690  145.8310 C   0  0  0  0  0  2  0  0  0  0  0  0
  197.3360  171.7670  144.9040 N   0  0  0  0  0  2  0  0  0  0  0  0
  197.8530  173.9980  145.0170 C   0  0  0  0  0  2  0  0  0  0  0  0
  196.8050  173.7680  146.0730 C   0  0  0  0  0  3  0  0  0  0  0  0
  197.8360  172.8370  144.1410 N   0  0  0  0  0  2  0  0  0  0  0  0
  196.3990  172.3360  145.8590 C   0  0  0  0  0  2  0  0  0  0  0  0
  1 18  1  0  0  0  0
  1 27  1  0  0  0  0
  2 27  1  0  0  0  0
  2 14  1  0  0  0  0
  3 19  1  0  0  0  0
  3  7  1  1  0  0  0
  4 15  1  0  0  0  0
  4 18  2  0  0  0  0
  5 11  1  1  0  0  0
  5 19  1  0  0  0  0
  8 16  1  0  0  0  0
  9 27  1  6  0  0  0
  9 25  1  0  0  0  0
  9 13  1  0  0  0  0
 10 22  1  0  0  0  0
 12  8  1  0  0  0  0
 12 15  1  0  0  0  0
 13 24  1  1  0  0  0
 15  5  1  0  0  0  0
 16  3  1  0  0  0  0
 17 28  1  1  0  0  0
 17 10  1  0  0  0  0
 18 20  1  0  0  0  0
 19  6  1  6  0  0  0
 20 11  1  6  0  0  0
 20 13  1  0  0  0  0
 21 23  2  0  0  0  0
 21 26  1  0  0  0  0
 23  4  1  0  0  0  0
 24 22  1  0  0  0  0
 25 14  1  6  0  0  0
 25 17  1  0  0  0  0
 26  1  2  0  0  0  0
 28 29  1  0  0  0  0
 29 32  1  0  0  0  0
 30 34  1  0  0  0  0
 31 32  1  0  0  0  0
 33 30  1  0  0  0  0
 33 31  1  0  0  0  0
 34 32  1  0  0  0  0
M  END
>  <MODEL>
2

>  <REMARK>
 VINA RESULT:      -8.7      1.668      1.958
  Name = 
  3 active torsions:
  status: ('A' for Active; 'I' for Inactive)
    1  A    between atoms: C_17  and  N_28
    2  A    between atoms: N_28  and  C_29
    3  A    between atoms: C_29  and  C_32
                            x       y       z     vdW  Elec       q    Type
                         _______ _______ _______ _____ _____    ______ ____

>  <TORSDO>
F 3

$$$$
=
 OpenBabel11112417493D

 34 40  0  0  1  0  0  0  0  0999 V2000
  189.2490  174.7000  142.5660 C   0  0  0  0  0  0  0  0  0  0  0  0
  191.1650  173.0330  142.5860 C   0  0  0  0  0  2  0  0  0  0  0  0
  184.9680  178.1800  145.0340 C   0  0  1  0  0  3  0  0  0  0  0  0
  187.7500  176.6060  142.5250 C   0  0  0  0  0  0  0  0  0  0  0  0
  187.4910  178.1050  144.5520 C   0  0  1  0  0  3  0  0  0  0  0  0
  186.3110  176.3290  145.7110 O   0  0  0  0  0  1  0  0  0  0  0  0
  184.0720  178.4370  146.2290 C   0  0  0  0  0  1  0  0  0  0  0  0
  185.0060  178.8790  142.9260 C   0  0  0  0  0  2  0  0  0  0  0  0
  190.4910  174.0650  144.6730 C   0  0  2  0  0  3  0  0  0  0  0  0
  192.9160  174.7530  146.7050 C   0  0  0  0  0  2  0  0  0  0  0  0
  188.8660  177.5780  144.9790 C   0  0  0  0  0  2  0  0  0  0  0  0
  186.4200  178.7350  142.3690 C   0  0  0  0  0  2  0  0  0  0  0  0
  190.3850  175.5500  145.0680 C   0  0  1  0  0  3  0  0  0  0  0  0
  192.1060  172.5330  143.6670 C   0  0  0  0  0  2  0  0  0  0  0  0
  187.1890  177.7730  143.1550 N   0  0  0  0  0  0  0  0  0  0  0  0
  185.0510  179.3380  144.2490 O   0  0  0  0  0  0  0  0  0  0  0  0
  193.0100  174.3060  145.2520 C   0  0  2  0  0  3  0  0  0  0  0  0
  188.6750  175.8040  143.2190 C   0  0  0  0  0  0  0  0  0  0  0  0
  186.3480  177.7100  145.5100 C   0  0  2  0  0  3  0  0  0  0  0  0
  189.0010  176.0850  144.6700 C   0  0  2  0  0  3  0  0  0  0  0  0
  187.9820  175.2440  140.5870 C   0  0  0  0  0  3  0  0  0  0  0  0
  192.0580  176.0000  146.8580 C   0  0  0  0  0  2  0  0  0  0  0  0
  187.4340  176.3060  141.2340 N   0  0  0  0  0  0  0  0  0  0  0  0
  190.5950  175.7080  146.5680 C   0  0  0  0  0  2  0  0  0  0  0  0
  191.8370  173.3620  144.9270 C   0  0  1  0  0  3  0  0  0  0  0  0
  188.9030  174.4240  141.2390 C   0  0  0  0  0  3  0  0  0  0  0  0
  190.2200  173.9000  143.2560 N   0  0  0  0  0  0  0  0  0  0  0  0
  194.2830  173.6260  145.0660 N   0  0  0  0  0  2  0  0  0  0  0  0
  195.3100  174.6540  145.0300 C   0  0  0  0  0  2  0  0  0  0  0  0
  197.0110  176.6850  142.7370 N   0  0  0  0  0  2  0  0  0  0  0  0
  196.0370  174.6110  142.6570 C   0  0  0  0  0  2  0  0  0  0  0  0
  195.2690  175.3820  143.6980 C   0  0  0  0  0  3  0  0  0  0  0  0
  197.2690  175.3430  142.4080 N   0  0  0  0  0  2  0  0  0  0  0  0
  196.0340  176.6710  143.8140 C   0  0  0  0  0  2  0  0  0  0  0  0
  1 18  1  0  0  0  0
  1 27  1  0  0  0  0
  2 27  1  0  0  0  0
  2 14  1  0  0  0  0
  3 19  1  0  0  0  0
  3  7  1  1  0  0  0
  4 15  1  0  0  0  0
  4 18  2  0  0  0  0
  5 11  1  1  0  0  0
  5 19  1  0  0  0  0
  8 16  1  0  0  0  0
  9 27  1  6  0  0  0
  9 25  1  0  0  0  0
  9 13  1  0  0  0  0
 10 22  1  0  0  0  0
 12  8  1  0  0  0  0
 12 15  1  0  0  0  0
 13 24  1  1  0  0  0
 15  5  1  0  0  0  0
 16  3  1  0  0  0  0
 17 28  1  1  0  0  0
 17 10  1  0  0  0  0
 18 20  1  0  0  0  0
 19  6  1  6  0  0  0
 20 11  1  6  0  0  0
 20 13  1  0  0  0  0
 21 23  2  0  0  0  0
 21 26  1  0  0  0  0
 23  4  1  0  0  0  0
 24 22  1  0  0  0  0
 25 14  1  6  0  0  0
 25 17  1  0  0  0  0
 26  1  2  0  0  0  0
 29 28  1  0  0  0  0
 30 34  1  0  0  0  0
 31 32  1  0  0  0  0
 32 34  1  0  0  0  0
 32 29  1  0  0  0  0
 33 31  1  0  0  0  0
 33 30  1  0  0  0  0
M  END
>  <MODEL>
3

>  <REMARK>
 VINA RESULT:      -8.6      1.227      1.537
  Name = 
  3 active torsions:
  status: ('A' for Active; 'I' for Inactive)
    1  A    between atoms: C_17  and  N_28
    2  A    between atoms: N_28  and  C_29
    3  A    between atoms: C_29  and  C_32
                            x       y       z     vdW  Elec       q    Type
                         _______ _______ _______ _____ _____    ______ ____

>  <TORSDO>
F 3

$$$$
=
 OpenBabel11112417493D

 34 40  0  0  1  0  0  0  0  0999 V2000
  192.2600  176.2180  145.8730 C   0  0  0  0  0  0  0  0  0  0  0  0
  189.9440  176.4720  146.8860 C   0  0  0  0  0  2  0  0  0  0  0  0
  196.4140  173.8320  142.1880 C   0  0  1  0  0  3  0  0  0  0  0  0
  194.3470  176.3250  144.6420 C   0  0  0  0  0  0  0  0  0  0  0  0
  194.4850  175.5290  142.2400 C   0  0  1  0  0  3  0  0  0  0  0  0
  194.2480  173.2330  142.9900 O   0  0  0  0  0  1  0  0  0  0  0  0
  196.8280  172.6470  141.3400 C   0  0  0  0  0  1  0  0  0  0  0  0
  197.4560  175.6160  143.0040 C   0  0  0  0  0  2  0  0  0  0  0  0
  190.1960  175.1800  144.8510 C   0  0  2  0  0  3  0  0  0  0  0  0
  187.7730  175.4890  142.7250 C   0  0  0  0  0  2  0  0  0  0  0  0
  192.9700  175.7540  142.1950 C   0  0  0  0  0  2  0  0  0  0  0  0
  196.4350  176.7120  143.2950 C   0  0  0  0  0  2  0  0  0  0  0  0
  190.7950  175.5670  143.4850 C   0  0  1  0  0  3  0  0  0  0  0  0
  188.5590  176.0260  146.4550 C   0  0  0  0  0  2  0  0  0  0  0  0
  195.0940  176.1470  143.4240 N   0  0  0  0  0  0  0  0  0  0  0  0
  197.1420  174.9660  141.8040 O   0  0  0  0  0  0  0  0  0  0  0  0
  188.0260  176.3100  143.9840 C   0  0  2  0  0  3  0  0  0  0  0  0
  192.9810  175.9860  144.6910 C   0  0  0  0  0  0  0  0  0  0  0  0
  194.9010  174.0540  142.0680 C   0  0  2  0  0  3  0  0  0  0  0  0
  192.3120  175.3210  143.5070 C   0  0  2  0  0  3  0  0  0  0  0  0
  194.2590  177.1120  146.8880 C   0  0  0  0  0  3  0  0  0  0  0  0
  188.9720  175.5060  141.7890 C   0  0  0  0  0  2  0  0  0  0  0  0
  194.9420  176.8790  145.7360 N   0  0  0  0  0  0  0  0  0  0  0  0
  190.1480  174.7450  142.3780 C   0  0  0  0  0  2  0  0  0  0  0  0
  188.6890  175.4220  145.0530 C   0  0  1  0  0  3  0  0  0  0  0  0
  192.9040  176.7900  146.9760 C   0  0  0  0  0  3  0  0  0  0  0  0
  190.8600  175.9080  145.9170 N   0  0  0  0  0  0  0  0  0  0  0  0
  186.7480  176.8190  144.4600 N   0  0  0  0  0  2  0  0  0  0  0  0
  186.5210  178.0870  143.7860 C   0  0  0  0  0  2  0  0  0  0  0  0
  183.6910  179.0400  145.6210 N   0  0  0  0  0  2  0  0  0  0  0  0
  185.8600  178.5060  146.1420 C   0  0  0  0  0  2  0  0  0  0  0  0
  185.9050  179.0840  144.7520 C   0  0  0  0  0  3  0  0  0  0  0  0
  184.4700  178.1890  146.4260 N   0  0  0  0  0  2  0  0  0  0  0  0
  184.4550  179.2780  144.4060 C   0  0  0  0  0  2  0  0  0  0  0  0
  1 27  1  0  0  0  0
  1 26  1  0  0  0  0
  3  7  1  6  0  0  0
  4 18  1  0  0  0  0
  4 23  2  0  0  0  0
  5 11  1  1  0  0  0
  5 15  1  0  0  0  0
  8 12  1  0  0  0  0
  9 25  1  0  0  0  0
  9 27  1  1  0  0  0
 10 17  1  0  0  0  0
 12 15  1  0  0  0  0
 13 24  1  6  0  0  0
 13 20  1  0  0  0  0
 13  9  1  0  0  0  0
 14  2  1  0  0  0  0
 15  4  1  0  0  0  0
 16  3  1  0  0  0  0
 16  8  1  0  0  0  0
 17 28  1  1  0  0  0
 17 25  1  0  0  0  0
 18  1  2  0  0  0  0
 19  3  1  0  0  0  0
 19  5  1  0  0  0  0
 19  6  1  1  0  0  0
 20 11  1  6  0  0  0
 20 18  1  0  0  0  0
 21 26  2  0  0  0  0
 22 24  1  0  0  0  0
 22 10  1  0  0  0  0
 23 21  1  0  0  0  0
 25 14  1  1  0  0  0
 27  2  1  0  0  0  0
 29 28  1  0  0  0  0
 29 32  1  0  0  0  0
 30 33  1  0  0  0  0
 31 33  1  0  0  0  0
 32 31  1  0  0  0  0
 34 32  1  0  0  0  0
 34 30  1  0  0  0  0
M  END
>  <MODEL>
4

>  <REMARK>
 VINA RESULT:      -8.1      3.007      8.721
  Name = 
  3 active torsions:
  status: ('A' for Active; 'I' for Inactive)
    1  A    between atoms: C_17  and  N_28
    2  A    between atoms: N_28  and  C_29
    3  A    between atoms: C_29  and  C_32
                            x       y       z     vdW  Elec       q    Type
                         _______ _______ _______ _____ _____    ______ ____

>  <TORSDO>
F 3

$$$$
=
 OpenBabel11112417493D

 34 40  0  0  1  0  0  0  0  0999 V2000
  190.5820  172.9610  142.8450 C   0  0  0  0  0  0  0  0  0  0  0  0
  188.3980  173.9980  142.0640 C   0  0  0  0  0  2  0  0  0  0  0  0
  196.2730  173.0160  144.8770 C   0  0  1  0  0  3  0  0  0  0  0  0
  192.4570  171.9380  143.9930 C   0  0  0  0  0  0  0  0  0  0  0  0
  193.8380  173.2530  145.6620 C   0  0  1  0  0  3  0  0  0  0  0  0
  194.7770  174.5630  143.8480 O   0  0  0  0  0  1  0  0  0  0  0  0
  197.5660  173.7950  145.0140 C   0  0  0  0  0  1  0  0  0  0  0  0
  195.7010  170.8810  145.0940 C   0  0  0  0  0  2  0  0  0  0  0  0
  190.0340  175.4070  143.1670 C   0  0  2  0  0  3  0  0  0  0  0  0
  188.7940  177.6750  145.1170 C   0  0  0  0  0  2  0  0  0  0  0  0
  192.6120  174.1640  145.7910 C   0  0  0  0  0  2  0  0  0  0  0  0
  194.2060  170.7830  145.3830 C   0  0  0  0  0  2  0  0  0  0  0  0
  190.7000  175.2740  144.5490 C   0  0  1  0  0  3  0  0  0  0  0  0
  187.7960  175.3860  142.1870 C   0  0  0  0  0  2  0  0  0  0  0  0
  193.5180  172.0020  144.9640 N   0  0  0  0  0  0  0  0  0  0  0  0
  196.2610  171.9570  145.7950 O   0  0  0  0  0  0  0  0  0  0  0  0
  188.0680  176.5120  144.4520 C   0  0  2  0  0  3  0  0  0  0  0  0
  191.6440  173.0630  143.7580 C   0  0  0  0  0  0  0  0  0  0  0  0
  195.0760  173.9560  145.0690 C   0  0  2  0  0  3  0  0  0  0  0  0
  191.9480  174.3850  144.4300 C   0  0  2  0  0  3  0  0  0  0  0  0
  191.1700  170.6540  142.4550 C   0  0  0  0  0  3  0  0  0  0  0  0
  189.9750  177.2020  145.9510 C   0  0  0  0  0  2  0  0  0  0  0  0
  192.1950  170.7710  143.3400 N   0  0  0  0  0  0  0  0  0  0  0  0
  191.0880  176.6500  145.0770 C   0  0  0  0  0  2  0  0  0  0  0  0
  188.7210  176.2070  143.0910 C   0  0  1  0  0  3  0  0  0  0  0  0
  190.3420  171.7460  142.1950 C   0  0  0  0  0  3  0  0  0  0  0  0
  189.7280  174.0940  142.6270 N   0  0  0  0  0  0  0  0  0  0  0  0
  186.6720  176.8850  144.2800 N   0  0  0  0  0  2  0  0  0  0  0  0
  186.5400  178.2560  144.7410 C   0  0  0  0  0  2  0  0  0  0  0  0
  185.0220  178.3470  141.5850 N   0  0  0  0  0  2  0  0  0  0  0  0
  184.3070  178.6680  143.7390 C   0  0  0  0  0  2  0  0  0  0  0  0
  185.7580  179.0720  143.7270 C   0  0  0  0  0  3  0  0  0  0  0  0
  184.0640  177.9160  142.5190 N   0  0  0  0  0  2  0  0  0  0  0  0
  186.2110  178.7050  142.3410 C   0  0  0  0  0  2  0  0  0  0  0  0
  1 18  1  0  0  0  0
  2 14  1  0  0  0  0
  2 27  1  0  0  0  0
  3  7  1  1  0  0  0
  3 19  1  0  0  0  0
  3 16  1  0  0  0  0
  4 15  1  0  0  0  0
  5 11  1  6  0  0  0
  8 12  1  0  0  0  0
  8 16  1  0  0  0  0
  9 27  1  1  0  0  0
  9 13  1  0  0  0  0
 10 22  1  0  0  0  0
 13 24  1  6  0  0  0
 15 12  1  0  0  0  0
 15  5  1  0  0  0  0
 17 28  1  6  0  0  0
 17 10  1  0  0  0  0
 18  4  2  0  0  0  0
 18 20  1  0  0  0  0
 19  6  1  6  0  0  0
 19  5  1  0  0  0  0
 20 13  1  0  0  0  0
 20 11  1  1  0  0  0
 21 23  2  0  0  0  0
 23  4  1  0  0  0  0
 24 22  1  0  0  0  0
 25 14  1  6  0  0  0
 25  9  1  0  0  0  0
 25 17  1  0  0  0  0
 26 21  1  0  0  0  0
 26  1  2  0  0  0  0
 27  1  1  0  0  0  0
 28 29  1  0  0  0  0
 30 34  1  0  0  0  0
 30 33  1  0  0  0  0
 32 31  1  0  0  0  0
 32 29  1  0  0  0  0
 33 31  1  0  0  0  0
 34 32  1  0  0  0  0
M  END
>  <MODEL>
5

>  <REMARK>
 VINA RESULT:      -8.0      3.110      8.117
  Name = 
  3 active torsions:
  status: ('A' for Active; 'I' for Inactive)
    1  A    between atoms: C_17  and  N_28
    2  A    between atoms: N_28  and  C_29
    3  A    between atoms: C_29  and  C_32
                            x       y       z     vdW  Elec       q    Type
                         _______ _______ _______ _____ _____    ______ ____

>  <TORSDO>
F 3

$$$$
=
 OpenBabel11112417493D

 34 40  0  0  1  0  0  0  0  0999 V2000
  191.2160  173.0270  143.1320 C   0  0  0  0  0  0  0  0  0  0  0  0
  188.7490  173.1670  142.5430 C   0  0  0  0  0  2  0  0  0  0  0  0
  196.9010  175.0450  143.4980 C   0  0  1  0  0  3  0  0  0  0  0  0
  193.4350  173.0160  144.1110 C   0  0  0  0  0  0  0  0  0  0  0  0
  194.6210  175.1830  144.6750 C   0  0  1  0  0  3  0  0  0  0  0  0
  194.9190  175.6320  142.3090 O   0  0  0  0  0  1  0  0  0  0  0  0
  197.9410  176.0140  142.9730 C   0  0  0  0  0  1  0  0  0  0  0  0
  196.9620  173.1980  144.7310 C   0  0  0  0  0  2  0  0  0  0  0  0
  190.0770  175.1950  142.5110 C   0  0  2  0  0  3  0  0  0  0  0  0
  188.5450  177.8500  143.5530 C   0  0  0  0  0  2  0  0  0  0  0  0
  193.2240  175.8120  144.7000 C   0  0  0  0  0  2  0  0  0  0  0  0
  195.6010  172.9820  145.3880 C   0  0  0  0  0  2  0  0  0  0  0  0
  190.9340  175.8480  143.6110 C   0  0  1  0  0  3  0  0  0  0  0  0
  187.8170  174.3170  142.2080 C   0  0  0  0  0  2  0  0  0  0  0  0
  194.5600  173.7160  144.6740 N   0  0  0  0  0  0  0  0  0  0  0  0
  197.2990  174.5580  144.7500 O   0  0  0  0  0  0  0  0  0  0  0  0
  188.0770  176.4020  143.6430 C   0  0  2  0  0  3  0  0  0  0  0  0
  192.3240  173.7330  143.6270 C   0  0  0  0  0  0  0  0  0  0  0  0
  195.5320  175.7340  143.5580 C   0  0  2  0  0  3  0  0  0  0  0  0
  192.3480  175.2460  143.5800 C   0  0  2  0  0  3  0  0  0  0  0  0
  192.3480  170.9540  143.6250 C   0  0  0  0  0  3  0  0  0  0  0  0
  189.9100  178.0430  144.1950 C   0  0  0  0  0  2  0  0  0  0  0  0
  193.4130  171.6530  144.0990 N   0  0  0  0  0  0  0  0  0  0  0  0
  191.0040  177.3540  143.3950 C   0  0  0  0  0  2  0  0  0  0  0  0
  188.5990  175.6170  142.4250 C   0  0  1  0  0  3  0  0  0  0  0  0
  191.2280  171.6280  143.1380 C   0  0  0  0  0  3  0  0  0  0  0  0
  190.0670  173.7510  142.6700 N   0  0  0  0  0  0  0  0  0  0  0  0
  186.6220  176.3940  143.6740 N   0  0  0  0  0  2  0  0  0  0  0  0
  186.2120  177.4940  144.5300 C   0  0  0  0  0  2  0  0  0  0  0  0
  185.9470  177.8190  148.0090 N   0  0  0  0  0  2  0  0  0  0  0  0
  184.4630  177.8150  146.2620 C   0  0  0  0  0  2  0  0  0  0  0  0
  185.6160  176.9540  145.8180 C   0  0  0  0  0  3  0  0  0  0  0  0
  184.9150  178.5700  147.4190 N   0  0  0  0  0  2  0  0  0  0  0  0
  186.6160  177.1090  146.9300 C   0  0  0  0  0  2  0  0  0  0  0  0
  1 26  2  0  0  0  0
  1 18  1  0  0  0  0
  2 27  1  0  0  0  0
  3  7  1  1  0  0  0
  3 19  1  0  0  0  0
  3 16  1  0  0  0  0
  4 15  1  0  0  0  0
  5 11  1  6  0  0  0
  8 16  1  0  0  0  0
  8 12  1  0  0  0  0
  9 27  1  1  0  0  0
  9 13  1  0  0  0  0
 10 17  1  0  0  0  0
 10 22  1  0  0  0  0
 13 24  1  6  0  0  0
 14  2  1  0  0  0  0
 15  5  1  0  0  0  0
 15 12  1  0  0  0  0
 17 28  1  6  0  0  0
 18  4  2  0  0  0  0
 19  6  1  6  0  0  0
 19  5  1  0  0  0  0
 20 13  1  0  0  0  0
 20 18  1  0  0  0  0
 20 11  1  1  0  0  0
 21 23  2  0  0  0  0
 23  4  1  0  0  0  0
 24 22  1  0  0  0  0
 25 14  1  1  0  0  0
 25  9  1  0  0  0  0
 25 17  1  0  0  0  0
 26 21  1  0  0  0  0
 27  1  1  0  0  0  0
 28 29  1  0  0  0  0
 29 32  1  0  0  0  0
 31 33  1  0  0  0  0
 32 31  1  0  0  0  0
 32 34  1  0  0  0  0
 33 30  1  0  0  0  0
 34 30  1  0  0  0  0
M  END
>  <MODEL>
6

>  <REMARK>
 VINA RESULT:      -7.9      2.844      8.285
  Name = 
  3 active torsions:
  status: ('A' for Active; 'I' for Inactive)
    1  A    between atoms: C_17  and  N_28
    2  A    between atoms: N_28  and  C_29
    3  A    between atoms: C_29  and  C_32
                            x       y       z     vdW  Elec       q    Type
                         _______ _______ _______ _____ _____    ______ ____

>  <TORSDO>
F 3

$$$$
=
 OpenBabel11112417493D

 34 40  0  0  1  0  0  0  0  0999 V2000
  192.0780  175.8930  145.7690 C   0  0  0  0  0  0  0  0  0  0  0  0
  190.1030  177.1750  146.7250 C   0  0  0  0  0  2  0  0  0  0  0  0
  194.7700  171.4370  142.7010 C   0  0  1  0  0  3  0  0  0  0  0  0
  193.9420  174.9750  144.5180 C   0  0  0  0  0  0  0  0  0  0  0  0
  193.5600  173.6800  142.3740 C   0  0  1  0  0  3  0  0  0  0  0  0
  192.6210  171.8430  143.6530 O   0  0  0  0  0  1  0  0  0  0  0  0
  194.6650  170.0270  142.1540 C   0  0  0  0  0  1  0  0  0  0  0  0
  196.4380  172.8600  143.0530 C   0  0  0  0  0  2  0  0  0  0  0  0
  189.6920  175.4680  145.0530 C   0  0  2  0  0  3  0  0  0  0  0  0
  187.3270  176.1530  142.9500 C   0  0  0  0  0  2  0  0  0  0  0  0
  192.2180  174.4170  142.2980 C   0  0  0  0  0  2  0  0  0  0  0  0
  195.8910  174.2840  143.0880 C   0  0  0  0  0  2  0  0  0  0  0  0
  190.2510  175.3070  143.6270 C   0  0  1  0  0  3  0  0  0  0  0  0
  188.6140  177.1710  146.4330 C   0  0  0  0  0  2  0  0  0  0  0  0
  194.4580  174.2810  143.3680 N   0  0  0  0  0  0  0  0  0  0  0  0
  195.8020  172.1210  142.0470 O   0  0  0  0  0  0  0  0  0  0  0  0
  187.9700  177.0820  143.9730 C   0  0  2  0  0  3  0  0  0  0  0  0
  192.5550  175.1670  144.6660 C   0  0  0  0  0  0  0  0  0  0  0  0
  193.4220  172.1530  142.5530 C   0  0  2  0  0  3  0  0  0  0  0  0
  191.5840  174.5450  143.6850 C   0  0  2  0  0  3  0  0  0  0  0  0
  194.3510  176.2100  146.5120 C   0  0  0  0  0  3  0  0  0  0  0  0
  188.3600  175.5350  142.0210 C   0  0  0  0  0  2  0  0  0  0  0  0
  194.7950  175.5020  145.4400 N   0  0  0  0  0  0  0  0  0  0  0  0
  189.2550  174.5520  142.7570 C   0  0  0  0  0  2  0  0  0  0  0  0
  188.3890  176.2710  145.2140 C   0  0  1  0  0  3  0  0  0  0  0  0
  192.9840  176.4220  146.6940 C   0  0  0  0  0  3  0  0  0  0  0  0
  190.6680  176.1230  145.9060 N   0  0  0  0  0  0  0  0  0  0  0  0
  187.0000  178.1060  144.3320 N   0  0  0  0  0  2  0  0  0  0  0  0
  185.6830  177.5070  144.1970 C   0  0  0  0  0  2  0  0  0  0  0  0
  185.1890  178.1300  147.6090 N   0  0  0  0  0  2  0  0  0  0  0  0
  185.2030  179.4150  145.7100 C   0  0  0  0  0  2  0  0  0  0  0  0
  184.7560  178.0450  145.2720 C   0  0  0  0  0  3  0  0  0  0  0  0
  185.7800  179.2700  147.0370 N   0  0  0  0  0  2  0  0  0  0  0  0
  184.9050  177.2140  146.5160 C   0  0  0  0  0  2  0  0  0  0  0  0
  1 27  1  0  0  0  0
  1 26  1  0  0  0  0
  3  7  1  6  0  0  0
  4 18  1  0  0  0  0
  4 23  2  0  0  0  0
  5 11  1  1  0  0  0
  5 19  1  0  0  0  0
  5 15  1  0  0  0  0
  8 12  1  0  0  0  0
  9 25  1  0  0  0  0
  9 27  1  1  0  0  0
 10 17  1  0  0  0  0
 12 15  1  0  0  0  0
 13 24  1  6  0  0  0
 13 20  1  0  0  0  0
 13  9  1  0  0  0  0
 14  2  1  0  0  0  0
 15  4  1  0  0  0  0
 16  3  1  0  0  0  0
 16  8  1  0  0  0  0
 17 28  1  1  0  0  0
 17 25  1  0  0  0  0
 18  1  2  0  0  0  0
 19  3  1  0  0  0  0
 19  6  1  1  0  0  0
 20 11  1  6  0  0  0
 20 18  1  0  0  0  0
 21 26  2  0  0  0  0
 22 24  1  0  0  0  0
 22 10  1  0  0  0  0
 23 21  1  0  0  0  0
 25 14  1  1  0  0  0
 27  2  1  0  0  0  0
 29 28  1  0  0  0  0
 29 32  1  0  0  0  0
 31 33  1  0  0  0  0
 32 31  1  0  0  0  0
 32 34  1  0  0  0  0
 33 30  1  0  0  0  0
 34 30  1  0  0  0  0
M  END
>  <MODEL>
7

>  <REMARK>
 VINA RESULT:      -7.8      2.841      8.656
  Name = 
  3 active torsions:
  status: ('A' for Active; 'I' for Inactive)
    1  A    between atoms: C_17  and  N_28
    2  A    between atoms: N_28  and  C_29
    3  A    between atoms: C_29  and  C_32
                            x       y       z     vdW  Elec       q    Type
                         _______ _______ _______ _____ _____    ______ ____

>  <TORSDO>
F 3

$$$$
=
 OpenBabel11112417493D

 34 40  0  0  1  0  0  0  0  0999 V2000
  190.3010  176.7520  145.8890 C   0  0  0  0  0  0  0  0  0  0  0  0
  192.6240  176.0470  146.6370 C   0  0  0  0  0  2  0  0  0  0  0  0
  185.9460  177.9340  141.8690 C   0  0  1  0  0  3  0  0  0  0  0  0
  187.9700  176.9920  145.2630 C   0  0  0  0  0  0  0  0  0  0  0  0
  187.0900  175.9950  143.1070 C   0  0  1  0  0  3  0  0  0  0  0  0
  188.3160  177.6620  141.8390 O   0  0  0  0  0  1  0  0  0  0  0  0
  185.6020  178.2890  140.4360 C   0  0  0  0  0  1  0  0  0  0  0  0
  184.8480  177.9720  143.7990 C   0  0  0  0  0  2  0  0  0  0  0  0
  191.9550  175.6250  144.3460 C   0  0  2  0  0  3  0  0  0  0  0  0
  193.0370  172.8420  143.0940 C   0  0  0  0  0  2  0  0  0  0  0  0
  188.2950  175.0500  143.1810 C   0  0  0  0  0  2  0  0  0  0  0  0
  185.5030  176.9990  144.7750 C   0  0  0  0  0  2  0  0  0  0  0  0
  190.7510  174.8480  143.7810 C   0  0  1  0  0  3  0  0  0  0  0  0
  193.7640  175.3100  145.9570 C   0  0  0  0  0  2  0  0  0  0  0  0
  186.8770  176.7080  144.3710 N   0  0  0  0  0  0  0  0  0  0  0  0
  184.8140  177.4190  142.5120 O   0  0  0  0  0  0  0  0  0  0  0  0
  193.0950  173.3020  144.5460 C   0  0  2  0  0  3  0  0  0  0  0  0
  189.2610  176.5080  144.9770 C   0  0  0  0  0  0  0  0  0  0  0  0
  187.1190  176.9450  141.8920 C   0  0  2  0  0  3  0  0  0  0  0  0
  189.5410  175.7900  143.6750 C   0  0  2  0  0  3  0  0  0  0  0  0
  188.7450  177.9210  147.3140 C   0  0  0  0  0  3  0  0  0  0  0  0
  191.6150  172.8600  142.5530 C   0  0  0  0  0  2  0  0  0  0  0  0
  187.7500  177.6780  146.4200 N   0  0  0  0  0  0  0  0  0  0  0  0
  191.0920  174.2800  142.4100 C   0  0  0  0  0  2  0  0  0  0  0  0
  193.2510  174.8340  144.5940 C   0  0  1  0  0  3  0  0  0  0  0  0
  190.0370  177.4580  147.0670 C   0  0  0  0  0  3  0  0  0  0  0  0
  191.6110  176.2310  145.6200 N   0  0  0  0  0  0  0  0  0  0  0  0
  194.2280  172.6490  145.1850 N   0  0  0  0  0  2  0  0  0  0  0  0
  194.9540  171.9440  144.1430 C   0  0  0  0  0  2  0  0  0  0  0  0
  197.5170  174.1680  145.0140 N   0  0  0  0  0  2  0  0  0  0  0  0
  196.8210  172.1180  145.7680 C   0  0  0  0  0  2  0  0  0  0  0  0
  196.4470  172.1640  144.3110 C   0  0  0  0  0  3  0  0  0  0  0  0
  197.1200  173.4820  146.1750 N   0  0  0  0  0  2  0  0  0  0  0  0
  196.7890  173.5710  143.9060 C   0  0  0  0  0  2  0  0  0  0  0  0
  1 26  1  0  0  0  0
  3  7  1  6  0  0  0
  3 19  1  0  0  0  0
  3 16  1  0  0  0  0
  4 23  2  0  0  0  0
  5 11  1  1  0  0  0
  5 15  1  0  0  0  0
  8 12  1  0  0  0  0
  9 25  1  0  0  0  0
  9 27  1  1  0  0  0
 10 17  1  0  0  0  0
 13 24  1  6  0  0  0
 13  9  1  0  0  0  0
 14  2  1  0  0  0  0
 15 12  1  0  0  0  0
 15  4  1  0  0  0  0
 16  8  1  0  0  0  0
 17 25  1  0  0  0  0
 17 28  1  6  0  0  0
 18  4  1  0  0  0  0
 18  1  2  0  0  0  0
 19  6  1  1  0  0  0
 19  5  1  0  0  0  0
 20 11  1  1  0  0  0
 20 13  1  0  0  0  0
 20 18  1  0  0  0  0
 22 10  1  0  0  0  0
 23 21  1  0  0  0  0
 24 22  1  0  0  0  0
 25 14  1  1  0  0  0
 26 21  2  0  0  0  0
 27  1  1  0  0  0  0
 27  2  1  0  0  0  0
 29 32  1  0  0  0  0
 29 28  1  0  0  0  0
 30 33  1  0  0  0  0
 31 33  1  0  0  0  0
 32 31  1  0  0  0  0
 34 32  1  0  0  0  0
 34 30  1  0  0  0  0
M  END
>  <MODEL>
8

>  <REMARK>
 VINA RESULT:      -7.8      2.124      3.906
  Name = 
  3 active torsions:
  status: ('A' for Active; 'I' for Inactive)
    1  A    between atoms: C_17  and  N_28
    2  A    between atoms: N_28  and  C_29
    3  A    between atoms: C_29  and  C_32
                            x       y       z     vdW  Elec       q    Type
                         _______ _______ _______ _____ _____    ______ ____

>  <TORSDO>
F 3

$$$$
=
 OpenBabel11112417493D

 34 40  0  0  1  0  0  0  0  0999 V2000
  189.5890  174.3480  141.7250 C   0  0  0  0  0  0  0  0  0  0  0  0
  188.4170  176.5780  142.0580 C   0  0  0  0  0  2  0  0  0  0  0  0
  193.6530  170.0420  142.9350 C   0  0  1  0  0  3  0  0  0  0  0  0
  190.3630  172.0510  141.6510 C   0  0  0  0  0  0  0  0  0  0  0  0
  191.3740  170.9510  143.6980 C   0  0  1  0  0  3  0  0  0  0  0  0
  193.3460  172.3460  143.4710 O   0  0  0  0  0  1  0  0  0  0  0  0
  194.9810  169.6930  143.5760 C   0  0  0  0  0  1  0  0  0  0  0  0
  192.3030  169.0410  141.4830 C   0  0  0  0  0  2  0  0  0  0  0  0
  189.8950  175.7610  143.7970 C   0  0  2  0  0  3  0  0  0  0  0  0
  188.9250  176.3850  146.8230 C   0  0  0  0  0  2  0  0  0  0  0  0
  190.6180  172.0120  144.5050 C   0  0  0  0  0  2  0  0  0  0  0  0
  190.8890  169.5920  141.6410 C   0  0  0  0  0  2  0  0  0  0  0  0
  189.8810  174.4370  144.5840 C   0  0  1  0  0  3  0  0  0  0  0  0
  188.3680  177.5720  143.2030 C   0  0  0  0  0  2  0  0  0  0  0  0
  190.9120  170.8920  142.3060 N   0  0  0  0  0  0  0  0  0  0  0  0
  192.9020  168.8750  142.7380 O   0  0  0  0  0  0  0  0  0  0  0  0
  188.1390  176.5680  145.5300 C   0  0  2  0  0  3  0  0  0  0  0  0
  190.1760  173.2470  142.3700 C   0  0  0  0  0  0  0  0  0  0  0  0
  192.9080  171.0630  143.8050 C   0  0  2  0  0  3  0  0  0  0  0  0
  190.6590  173.3690  143.7990 C   0  0  2  0  0  3  0  0  0  0  0  0
  189.3940  173.0340  139.7110 C   0  0  0  0  0  3  0  0  0  0  0  0
  189.4320  174.9600  146.9780 C   0  0  0  0  0  2  0  0  0  0  0  0
  189.9650  171.9790  140.3500 N   0  0  0  0  0  0  0  0  0  0  0  0
  190.5100  174.6380  145.9570 C   0  0  0  0  0  2  0  0  0  0  0  0
  189.1050  176.9410  144.3890 C   0  0  1  0  0  3  0  0  0  0  0  0
  189.1910  174.2360  140.3880 C   0  0  0  0  0  3  0  0  0  0  0  0
  189.3630  175.5590  142.4610 N   0  0  0  0  0  0  0  0  0  0  0  0
  187.1580  177.6230  145.7380 N   0  0  0  0  0  2  0  0  0  0  0  0
  185.8470  177.0010  145.6700 C   0  0  0  0  0  2  0  0  0  0  0  0
  185.2730  180.0780  144.0960 N   0  0  0  0  0  2  0  0  0  0  0  0
  184.6850  177.9030  143.6710 C   0  0  0  0  0  2  0  0  0  0  0  0
  184.8230  178.0030  145.1670 C   0  0  0  0  0  3  0  0  0  0  0  0
  185.3220  179.0820  143.1050 N   0  0  0  0  0  2  0  0  0  0  0  0
  185.3480  179.3960  145.3780 C   0  0  0  0  0  2  0  0  0  0  0  0
  1 18  1  0  0  0  0
  1 27  1  0  0  0  0
  2 27  1  0  0  0  0
  2 14  1  0  0  0  0
  3  7  1  1  0  0  0
  3 19  1  0  0  0  0
  4 15  1  0  0  0  0
  4 18  2  0  0  0  0
  5 19  1  0  0  0  0
  5 11  1  6  0  0  0
  8 12  1  0  0  0  0
  8 16  1  0  0  0  0
  9 27  1  6  0  0  0
  9 25  1  0  0  0  0
  9 13  1  0  0  0  0
 10 22  1  0  0  0  0
 12 15  1  0  0  0  0
 13 24  1  1  0  0  0
 15  5  1  0  0  0  0
 16  3  1  0  0  0  0
 17 28  1  1  0  0  0
 17 10  1  0  0  0  0
 18 20  1  0  0  0  0
 19  6  1  6  0  0  0
 20 11  1  1  0  0  0
 20 13  1  0  0  0  0
 21 23  2  0  0  0  0
 21 26  1  0  0  0  0
 23  4  1  0  0  0  0
 24 22  1  0  0  0  0
 25 14  1  6  0  0  0
 25 17  1  0  0  0  0
 26  1  2  0  0  0  0
 29 28  1  0  0  0  0
 30 34  1  0  0  0  0
 31 32  1  0  0  0  0
 32 34  1  0  0  0  0
 32 29  1  0  0  0  0
 33 31  1  0  0  0  0
 33 30  1  0  0  0  0
M  END
>  <MODEL>
9

>  <REMARK>
 VINA RESULT:      -7.8      4.013      8.098
  Name = 
  3 active torsions:
  status: ('A' for Active; 'I' for Inactive)
    1  A    between atoms: C_17  and  N_28
    2  A    between atoms: N_28  and  C_29
    3  A    between atoms: C_29  and  C_32
                            x       y       z     vdW  Elec       q    Type
                         _______ _______ _______ _____ _____    ______ ____

>  <TORSDO>
F 3

$$$$
