=
 OpenBabel11112416273D

 32 38  0  0  1  0  0  0  0  0999 V2000
  193.6640  174.5130  145.6030 N   0  0  2  0  0  0  0  0  0  0  0  0
  188.6380  176.0990  144.4910 C   0  0  0  0  0  0  0  0  0  0  0  0
  186.8980  178.7390  148.2090 C   0  0  0  0  0  3  0  0  0  0  0  0
  185.9150  179.3050  147.3950 C   0  0  0  0  0  3  0  0  0  0  0  0
  187.5490  176.1560  142.1770 C   0  0  2  0  0  3  0  0  0  0  0  0
  186.4560  176.8380  141.4250 C   0  0  0  0  0  0  0  0  0  0  0  0
  191.0370  175.3620  144.4910 C   0  0  1  0  0  3  0  0  0  0  0  0
  189.9190  176.2910  146.5010 O   0  0  0  0  0  0  0  0  0  0  0  0
  184.6600  178.0970  140.9570 C   0  0  0  0  0  0  0  0  0  0  0  0
  192.3050  176.0830  146.6930 C   0  0  0  0  0  2  0  0  0  0  0  0
  187.8280  177.8510  147.6640 C   0  0  0  0  0  3  0  0  0  0  0  0
  188.7840  176.5980  145.7340 C   0  0  0  0  0  0  0  0  0  0  0  0
  187.7750  177.5120  146.3050 C   0  0  0  0  0  0  0  0  0  0  0  0
  186.7810  177.7700  144.0050 C   0  0  2  0  0  3  0  0  0  0  0  0
  185.4830  178.1420  139.9630 N   0  0  0  0  0  0  0  0  0  0  0  0
  193.4270  174.4020  144.1740 C   0  0  0  0  0  2  0  0  0  0  0  0
  191.0210  175.4990  146.0500 C   0  0  2  0  0  3  0  0  0  0  0  0
  186.6140  177.3800  140.2650 N   0  0  0  0  0  0  0  0  0  0  0  0
  191.9170  174.2000  143.9730 C   0  0  0  0  0  2  0  0  0  0  0  0
  193.4730  175.9620  145.7470 C   0  0  1  0  0  3  0  0  0  0  0  0
  185.8590  178.9790  146.0390 C   0  0  0  0  0  3  0  0  0  0  0  0
  186.7710  178.0660  145.4860 C   0  0  0  0  0  0  0  0  0  0  0  0
  185.3970  178.0030  143.3520 C   0  0  0  0  0  2  0  0  0  0  0  0
  189.6250  175.0810  144.0030 C   0  0  0  0  0  2  0  0  0  0  0  0
  187.5200  174.6780  141.8290 C   0  0  0  0  0  1  0  0  0  0  0  0
  183.3410  178.7850  140.9450 C   0  0  0  0  0  1  0  0  0  0  0  0
  187.3630  176.3630  143.7000 C   0  0  2  0  0  3  0  0  0  0  0  0
  185.1620  177.2210  142.0530 C   0  0  2  0  0  3  0  0  0  0  0  0
  194.7360  175.3750  146.1580 C   0  0  2  0  0  3  0  0  0  0  0  0
  195.8230  175.6460  145.1610 C   0  0  0  0  0  0  0  0  0  0  0  0
  195.8000  176.8060  144.3970 O   0  0  0  0  0  0  0  0  0  0  0  0
  196.7820  174.8400  145.0420 O   0  0  0  0  0  1  0  0  0  0  0  0
  1 16  1  6  0  0  0
  1 20  1  0  0  0  0
  1 29  1  0  0  0  0
  2 12  2  0  0  0  0
  4  3  2  0  0  0  0
  5 25  1  1  0  0  0
  5 27  1  0  0  0  0
  6 28  1  0  0  0  0
  6  5  1  0  0  0  0
  7 19  1  1  0  0  0
  7 17  1  0  0  0  0
  9 28  1  0  0  0  0
 11  3  1  0  0  0  0
 12 13  1  0  0  0  0
 12  8  1  0  0  0  0
 13 11  2  0  0  0  0
 14 23  1  1  0  0  0
 14 22  1  0  0  0  0
 15 18  1  0  0  0  0
 15  9  2  0  0  0  0
 17  8  1  0  0  0  0
 17 10  1  6  0  0  0
 18  6  2  0  0  0  0
 19 16  1  0  0  0  0
 20 29  1  0  0  0  0
 20 10  1  1  0  0  0
 21  4  1  0  0  0  0
 22 21  2  0  0  0  0
 22 13  1  0  0  0  0
 24  7  1  0  0  0  0
 24  2  1  0  0  0  0
 26  9  1  0  0  0  0
 27 14  1  0  0  0  0
 27  2  1  1  0  0  0
 28 23  1  1  0  0  0
 29 30  1  6  0  0  0
 31 30  2  0  0  0  0
 32 30  1  0  0  0  0
M  END
>  <MODEL>
1

>  <REMARK>
 VINA RESULT:      -9.2      0.000      0.000
  Name = 
  1 active torsions:
  status: ('A' for Active; 'I' for Inactive)
    1  A    between atoms: C_29  and  C_30
                            x       y       z     vdW  Elec       q    Type
                         _______ _______ _______ _____ _____    ______ ____

>  <TORSDO>
F 1

$$$$
=
 OpenBabel11112416273D

 32 38  0  0  1  0  0  0  0  0999 V2000
  185.9100  176.8170  144.8980 N   0  0  2  0  0  0  0  0  0  0  0  0
  190.7420  174.9520  143.4170 C   0  0  0  0  0  0  0  0  0  0  0  0
  190.4870  173.1780  138.8780 C   0  0  0  0  0  3  0  0  0  0  0  0
  191.8710  173.2700  138.7250 C   0  0  0  0  0  3  0  0  0  0  0  0
  192.9810  175.5230  144.5130 C   0  0  2  0  0  3  0  0  0  0  0  0
  194.4420  175.5710  144.2140 C   0  0  0  0  0  0  0  0  0  0  0  0
  188.7670  176.1400  144.4120 C   0  0  1  0  0  3  0  0  0  0  0  0
  188.6180  174.8030  142.3270 O   0  0  0  0  0  0  0  0  0  0  0  0
  196.4090  175.3060  143.1690 C   0  0  0  0  0  0  0  0  0  0  0  0
  186.6860  176.1560  142.7850 C   0  0  0  0  0  2  0  0  0  0  0  0
  189.8850  173.6180  140.0590 C   0  0  0  0  0  3  0  0  0  0  0  0
  190.0120  174.6360  142.3300 C   0  0  0  0  0  0  0  0  0  0  0  0
  190.6640  174.1430  141.1000 C   0  0  0  0  0  0  0  0  0  0  0  0
  192.8820  174.8730  142.0420 C   0  0  2  0  0  3  0  0  0  0  0  0
  196.4280  176.4090  143.8400 N   0  0  0  0  0  0  0  0  0  0  0  0
  186.9310  177.3780  145.7650 C   0  0  0  0  0  2  0  0  0  0  0  0
  187.8600  175.3560  143.4070 C   0  0  2  0  0  3  0  0  0  0  0  0
  195.1930  176.5880  144.4690 N   0  0  0  0  0  0  0  0  0  0  0  0
  188.1080  176.3890  145.7890 C   0  0  0  0  0  2  0  0  0  0  0  0
  186.3750  177.3730  143.6200 C   0  0  1  0  0  3  0  0  0  0  0  0
  192.6540  173.7990  139.7530 C   0  0  0  0  0  3  0  0  0  0  0  0
  192.0630  174.2190  140.9560 C   0  0  0  0  0  0  0  0  0  0  0  0
  194.3680  174.4400  141.9970 C   0  0  0  0  0  2  0  0  0  0  0  0
  190.0260  175.3310  144.6790 C   0  0  0  0  0  2  0  0  0  0  0  0
  192.7960  174.9170  145.8940 C   0  0  0  0  0  1  0  0  0  0  0  0
  197.5820  174.8080  142.4020 C   0  0  0  0  0  1  0  0  0  0  0  0
  192.2410  174.6830  143.4440 C   0  0  2  0  0  3  0  0  0  0  0  0
  195.1160  174.5810  143.3290 C   0  0  2  0  0  3  0  0  0  0  0  0
  185.0250  177.6710  144.0680 C   0  0  2  0  0  3  0  0  0  0  0  0
  184.9160  179.0670  144.6040 C   0  0  0  0  0  0  0  0  0  0  0  0
  185.6440  180.1000  144.0250 O   0  0  0  0  0  0  0  0  0  0  0  0
  184.1330  179.3150  145.5570 O   0  0  0  0  0  1  0  0  0  0  0  0
  1 16  1  1  0  0  0
  2 24  1  0  0  0  0
  3 11  1  0  0  0  0
  4  3  2  0  0  0  0
  4 21  1  0  0  0  0
  5 25  1  1  0  0  0
  6 18  2  0  0  0  0
  6  5  1  0  0  0  0
  7 24  1  1  0  0  0
  7 19  1  0  0  0  0
  8 12  1  0  0  0  0
  8 17  1  0  0  0  0
  9 28  1  0  0  0  0
  9 15  2  0  0  0  0
 11 13  2  0  0  0  0
 12  2  2  0  0  0  0
 13 12  1  0  0  0  0
 14 23  1  1  0  0  0
 14 27  1  0  0  0  0
 15 18  1  0  0  0  0
 16 19  1  0  0  0  0
 17 10  1  6  0  0  0
 17  7  1  0  0  0  0
 20 10  1  6  0  0  0
 20 29  1  0  0  0  0
 20  1  1  0  0  0  0
 21 22  2  0  0  0  0
 22 13  1  0  0  0  0
 22 14  1  0  0  0  0
 26  9  1  0  0  0  0
 27  2  1  6  0  0  0
 27  5  1  0  0  0  0
 28 23  1  6  0  0  0
 28  6  1  0  0  0  0
 29 30  1  1  0  0  0
 29  1  1  0  0  0  0
 30 32  1  0  0  0  0
 31 30  2  0  0  0  0
M  END
>  <MODEL>
2

>  <REMARK>
 VINA RESULT:      -8.2      3.026      8.763
  Name = 
  1 active torsions:
  status: ('A' for Active; 'I' for Inactive)
    1  A    between atoms: C_29  and  C_30
                            x       y       z     vdW  Elec       q    Type
                         _______ _______ _______ _____ _____    ______ ____

>  <TORSDO>
F 1

$$$$
=
 OpenBabel11112416273D

 32 38  0  0  1  0  0  0  0  0999 V2000
  186.5600  178.2530  144.3660 N   0  0  2  0  0  0  0  0  0  0  0  0
  190.6840  174.9640  143.2760 C   0  0  0  0  0  0  0  0  0  0  0  0
  194.4730  176.0900  146.1380 C   0  0  0  0  0  3  0  0  0  0  0  0
  195.0540  174.8390  145.9240 C   0  0  0  0  0  3  0  0  0  0  0  0
  190.5450  172.7230  142.0500 C   0  0  2  0  0  3  0  0  0  0  0  0
  191.2730  171.4280  141.9110 C   0  0  0  0  0  0  0  0  0  0  0  0
  188.4710  176.0960  143.6220 C   0  0  1  0  0  3  0  0  0  0  0  0
  190.5680  176.8970  144.6790 O   0  0  0  0  0  0  0  0  0  0  0  0
  192.8590  169.8500  142.0780 C   0  0  0  0  0  0  0  0  0  0  0  0
  188.5670  177.9160  145.5330 C   0  0  0  0  0  2  0  0  0  0  0  0
  193.2330  176.3900  145.5690 C   0  0  0  0  0  3  0  0  0  0  0  0
  191.2450  175.7630  144.2030 C   0  0  0  0  0  0  0  0  0  0  0  0
  192.5710  175.4460  144.7720 C   0  0  0  0  0  0  0  0  0  0  0  0
  192.4000  173.1470  143.7580 C   0  0  2  0  0  3  0  0  0  0  0  0
  191.6960  169.2890  142.0890 N   0  0  0  0  0  0  0  0  0  0  0  0
  186.0710  177.0810  143.6620 C   0  0  0  0  0  2  0  0  0  0  0  0
  189.2440  177.2790  144.2930 C   0  0  2  0  0  3  0  0  0  0  0  0
  190.7070  170.2730  142.0130 N   0  0  0  0  0  0  0  0  0  0  0  0
  187.2300  176.5380  142.8110 C   0  0  0  0  0  2  0  0  0  0  0  0
  187.0960  177.5850  145.5610 C   0  0  1  0  0  3  0  0  0  0  0  0
  194.3980  173.8900  145.1380 C   0  0  0  0  0  3  0  0  0  0  0  0
  193.1640  174.1900  144.5370 C   0  0  0  0  0  0  0  0  0  0  0  0
  193.3300  172.0640  143.1610 C   0  0  0  0  0  2  0  0  0  0  0  0
  189.3950  175.3930  142.6410 C   0  0  0  0  0  2  0  0  0  0  0  0
  190.0970  173.1700  140.6690 C   0  0  0  0  0  1  0  0  0  0  0  0
  194.1280  169.0770  142.1220 C   0  0  0  0  0  1  0  0  0  0  0  0
  191.4620  173.7880  142.6990 C   0  0  2  0  0  3  0  0  0  0  0  0
  192.7580  171.3310  141.9400 C   0  0  2  0  0  3  0  0  0  0  0  0
  186.0820  178.6130  145.7240 C   0  0  2  0  0  3  0  0  0  0  0  0
  184.7380  178.0200  146.0290 C   0  0  0  0  0  0  0  0  0  0  0  0
  184.6430  176.7790  146.6470 O   0  0  0  0  0  1  0  0  0  0  0  0
  183.6910  178.6660  145.7630 O   0  0  0  0  0  0  0  0  0  0  0  0
  1 16  1  6  0  0  0
  1 20  1  0  0  0  0
  1 29  1  0  0  0  0
  2 12  2  0  0  0  0
  4  3  1  0  0  0  0
  5 25  1  6  0  0  0
  5 27  1  0  0  0  0
  6 28  1  0  0  0  0
  6 18  2  0  0  0  0
  6  5  1  0  0  0  0
  7 24  1  6  0  0  0
  7 17  1  0  0  0  0
  9 15  2  0  0  0  0
  9 26  1  0  0  0  0
 11  3  2  0  0  0  0
 12  8  1  0  0  0  0
 12 13  1  0  0  0  0
 13 11  1  0  0  0  0
 14 23  1  6  0  0  0
 14 22  1  0  0  0  0
 17  8  1  0  0  0  0
 17 10  1  1  0  0  0
 18 15  1  0  0  0  0
 19  7  1  0  0  0  0
 19 16  1  0  0  0  0
 20 10  1  1  0  0  0
 20 29  1  0  0  0  0
 21  4  2  0  0  0  0
 22 13  2  0  0  0  0
 22 21  1  0  0  0  0
 24  2  1  0  0  0  0
 27  2  1  1  0  0  0
 27 14  1  0  0  0  0
 28  9  1  0  0  0  0
 28 23  1  1  0  0  0
 29 30  1  6  0  0  0
 30 31  1  0  0  0  0
 32 30  2  0  0  0  0
M  END
>  <MODEL>
3

>  <REMARK>
 VINA RESULT:      -8.1      3.091      8.056
  Name = 
  1 active torsions:
  status: ('A' for Active; 'I' for Inactive)
    1  A    between atoms: C_29  and  C_30
                            x       y       z     vdW  Elec       q    Type
                         _______ _______ _______ _____ _____    ______ ____

>  <TORSDO>
F 1

$$$$
=
 OpenBabel11112416273D

 32 38  0  0  1  0  0  0  0  0999 V2000
  195.2220  173.5490  141.6520 N   0  0  2  0  0  0  0  0  0  0  0  0
  190.7120  175.5630  143.8010 C   0  0  0  0  0  0  0  0  0  0  0  0
  191.5660  176.9300  148.4070 C   0  0  0  0  0  3  0  0  0  0  0  0
  190.4410  177.7570  148.4090 C   0  0  0  0  0  3  0  0  0  0  0  0
  188.6640  176.3890  142.5110 C   0  0  2  0  0  3  0  0  0  0  0  0
  187.4970  177.3080  142.6510 C   0  0  0  0  0  0  0  0  0  0  0  0
  192.6090  174.7890  142.3500 C   0  0  1  0  0  3  0  0  0  0  0  0
  192.8230  175.0630  144.8060 O   0  0  0  0  0  0  0  0  0  0  0  0
  185.9840  178.7060  143.5390 C   0  0  0  0  0  0  0  0  0  0  0  0
  194.9050  174.7310  143.6530 C   0  0  0  0  0  2  0  0  0  0  0  0
  191.9180  176.2340  147.2480 C   0  0  0  0  0  3  0  0  0  0  0  0
  191.5420  175.6340  144.8590 C   0  0  0  0  0  0  0  0  0  0  0  0
  191.1410  176.3490  146.0880 C   0  0  0  0  0  0  0  0  0  0  0  0
  189.2180  177.3580  144.8120 C   0  0  2  0  0  3  0  0  0  0  0  0
  186.2050  179.0410  142.3110 N   0  0  0  0  0  0  0  0  0  0  0  0
  194.2990  173.9080  140.5900 C   0  0  0  0  0  2  0  0  0  0  0  0
  193.3860  174.4230  143.6580 C   0  0  2  0  0  3  0  0  0  0  0  0
  187.1670  178.1870  141.7660 N   0  0  0  0  0  0  0  0  0  0  0  0
  192.8780  173.8270  141.1690 C   0  0  0  0  0  2  0  0  0  0  0  0
  195.4110  174.8820  142.2410 C   0  0  1  0  0  3  0  0  0  0  0  0
  189.6660  177.8830  147.2550 C   0  0  0  0  0  3  0  0  0  0  0  0
  189.9930  177.1660  146.0930 C   0  0  0  0  0  0  0  0  0  0  0  0
  187.7670  177.8290  145.0700 C   0  0  0  0  0  2  0  0  0  0  0  0
  191.1150  174.7230  142.6250 C   0  0  0  0  0  2  0  0  0  0  0  0
  188.1830  175.1000  141.8660 C   0  0  0  0  0  1  0  0  0  0  0  0
  184.9910  179.4030  144.3990 C   0  0  0  0  0  1  0  0  0  0  0  0
  189.2920  176.1050  143.8970 C   0  0  2  0  0  3  0  0  0  0  0  0
  186.7800  177.5110  143.9390 C   0  0  2  0  0  3  0  0  0  0  0  0
  196.5730  174.1560  141.7600 C   0  0  2  0  0  3  0  0  0  0  0  0
  197.0600  174.6960  140.4490 C   0  0  0  0  0  0  0  0  0  0  0  0
  196.8920  176.0410  140.1390 O   0  0  0  0  0  1  0  0  0  0  0  0
  197.6580  173.9400  139.6400 O   0  0  0  0  0  0  0  0  0  0  0  0
  1 16  1  6  0  0  0
  1 29  1  0  0  0  0
  1 20  1  0  0  0  0
  2 12  2  0  0  0  0
  3  4  1  0  0  0  0
  5 25  1  1  0  0  0
  5  6  1  0  0  0  0
  5 27  1  0  0  0  0
  6 28  1  0  0  0  0
  7 19  1  6  0  0  0
  7 24  1  0  0  0  0
  7 17  1  0  0  0  0
  8 12  1  0  0  0  0
  9 28  1  0  0  0  0
  9 26  1  0  0  0  0
 11  3  2  0  0  0  0
 12 13  1  0  0  0  0
 13 22  2  0  0  0  0
 13 11  1  0  0  0  0
 14 23  1  1  0  0  0
 14 22  1  0  0  0  0
 15  9  2  0  0  0  0
 16 19  1  0  0  0  0
 17 10  1  6  0  0  0
 17  8  1  0  0  0  0
 18 15  1  0  0  0  0
 18  6  2  0  0  0  0
 20 10  1  1  0  0  0
 21  4  2  0  0  0  0
 22 21  1  0  0  0  0
 24  2  1  0  0  0  0
 27  2  1  6  0  0  0
 27 14  1  0  0  0  0
 28 23  1  1  0  0  0
 29 30  1  6  0  0  0
 29 20  1  0  0  0  0
 31 30  1  0  0  0  0
 32 30  2  0  0  0  0
M  END
>  <MODEL>
4

>  <REMARK>
 VINA RESULT:      -8.1      2.507      3.543
  Name = 
  1 active torsions:
  status: ('A' for Active; 'I' for Inactive)
    1  A    between atoms: C_29  and  C_30
                            x       y       z     vdW  Elec       q    Type
                         _______ _______ _______ _____ _____    ______ ____

>  <TORSDO>
F 1

$$$$
=
 OpenBabel11112416273D

 32 38  0  0  1  0  0  0  0  0999 V2000
  192.0440  171.4140  141.2560 N   0  0  2  0  0  0  0  0  0  0  0  0
  189.0760  175.5060  143.1160 C   0  0  0  0  0  0  0  0  0  0  0  0
  186.3170  177.2940  139.5100 C   0  0  0  0  0  3  0  0  0  0  0  0
  185.4510  177.8990  140.4220 C   0  0  0  0  0  3  0  0  0  0  0  0
  188.5690  176.0100  145.5720 C   0  0  2  0  0  3  0  0  0  0  0  0
  187.5670  176.7030  146.4320 C   0  0  0  0  0  0  0  0  0  0  0  0
  190.4390  173.4310  142.7420 C   0  0  1  0  0  3  0  0  0  0  0  0
  189.3760  174.6920  140.8880 O   0  0  0  0  0  0  0  0  0  0  0  0
  185.8370  177.9750  147.0810 C   0  0  0  0  0  0  0  0  0  0  0  0
  190.2400  172.5380  140.2650 C   0  0  0  0  0  2  0  0  0  0  0  0
  187.3860  176.5220  139.9690 C   0  0  0  0  0  3  0  0  0  0  0  0
  188.7210  175.5150  141.8170 C   0  0  0  0  0  0  0  0  0  0  0  0
  187.6050  176.3600  141.3440 C   0  0  0  0  0  0  0  0  0  0  0  0
  186.9330  176.7270  143.7430 C   0  0  2  0  0  3  0  0  0  0  0  0
  185.9510  176.9700  147.8830 N   0  0  0  0  0  0  0  0  0  0  0  0
  191.9900  171.3530  142.7060 C   0  0  0  0  0  2  0  0  0  0  0  0
  190.4060  173.7540  141.2110 C   0  0  2  0  0  3  0  0  0  0  0  0
  187.0120  176.1630  147.4640 N   0  0  0  0  0  0  0  0  0  0  0  0
  191.7590  172.7830  143.2190 C   0  0  0  0  0  2  0  0  0  0  0  0
  190.6110  171.2600  140.9740 C   0  0  1  0  0  3  0  0  0  0  0  0
  185.6570  177.7370  141.7930 C   0  0  0  0  0  3  0  0  0  0  0  0
  186.7460  176.9860  142.2680 C   0  0  0  0  0  0  0  0  0  0  0  0
  186.2890  177.8300  144.6180 C   0  0  0  0  0  2  0  0  0  0  0  0
  190.2900  174.7260  143.5250 C   0  0  0  0  0  2  0  0  0  0  0  0
  189.9570  176.3350  146.0980 C   0  0  0  0  0  1  0  0  0  0  0  0
  184.8150  179.0410  147.2630 C   0  0  0  0  0  1  0  0  0  0  0  0
  188.4220  176.4670  144.1010 C   0  0  2  0  0  3  0  0  0  0  0  0
  186.8880  177.9630  146.0240 C   0  0  2  0  0  3  0  0  0  0  0  0
  191.5460  170.3080  140.4010 C   0  0  2  0  0  3  0  0  0  0  0  0
  191.5170  168.9970  141.1280 C   0  0  0  0  0  0  0  0  0  0  0  0
  192.6820  168.2560  141.2850 O   0  0  0  0  0  0  0  0  0  0  0  0
  190.4410  168.5830  141.6340 O   0  0  0  0  0  1  0  0  0  0  0  0
  1 16  1  1  0  0  0
  2 24  1  0  0  0  0
  3 11  2  0  0  0  0
  3  4  1  0  0  0  0
  4 21  2  0  0  0  0
  5 25  1  1  0  0  0
  5  6  1  0  0  0  0
  6 18  2  0  0  0  0
  7 19  1  1  0  0  0
  7 24  1  0  0  0  0
  8 17  1  0  0  0  0
  8 12  1  0  0  0  0
  9 26  1  0  0  0  0
  9 15  2  0  0  0  0
 11 13  1  0  0  0  0
 12  2  2  0  0  0  0
 13 12  1  0  0  0  0
 13 22  2  0  0  0  0
 14 27  1  0  0  0  0
 14 23  1  1  0  0  0
 16 19  1  0  0  0  0
 17 10  1  6  0  0  0
 17  7  1  0  0  0  0
 18 15  1  0  0  0  0
 20 10  1  6  0  0  0
 20  1  1  0  0  0  0
 21 22  1  0  0  0  0
 22 14  1  0  0  0  0
 27  2  1  6  0  0  0
 27  5  1  0  0  0  0
 28 23  1  6  0  0  0
 28  6  1  0  0  0  0
 28  9  1  0  0  0  0
 29 20  1  0  0  0  0
 29 30  1  1  0  0  0
 29  1  1  0  0  0  0
 30 31  2  0  0  0  0
 30 32  1  0  0  0  0
M  END
>  <MODEL>
5

>  <REMARK>
 VINA RESULT:      -7.9      3.861      5.901
  Name = 
  1 active torsions:
  status: ('A' for Active; 'I' for Inactive)
    1  A    between atoms: C_29  and  C_30
                            x       y       z     vdW  Elec       q    Type
                         _______ _______ _______ _____ _____    ______ ____

>  <TORSDO>
F 1

$$$$
=
 OpenBabel11112416273D

 32 38  0  0  1  0  0  0  0  0999 V2000
  193.5490  172.7710  139.9510 N   0  0  2  0  0  0  0  0  0  0  0  0
  190.0610  175.0560  143.3610 C   0  0  0  0  0  0  0  0  0  0  0  0
  192.1970  175.6870  147.7030 C   0  0  0  0  0  3  0  0  0  0  0  0
  191.2510  176.6450  148.0700 C   0  0  0  0  0  3  0  0  0  0  0  0
  187.9220  176.3030  142.7210 C   0  0  2  0  0  3  0  0  0  0  0  0
  186.9830  177.3400  143.2400 C   0  0  0  0  0  0  0  0  0  0  0  0
  191.4090  174.2390  141.4070 C   0  0  1  0  0  3  0  0  0  0  0  0
  192.2450  174.1590  143.7410 O   0  0  0  0  0  0  0  0  0  0  0  0
  185.9680  178.7950  144.6120 C   0  0  0  0  0  0  0  0  0  0  0  0
  193.9110  173.7110  142.0690 C   0  0  0  0  0  2  0  0  0  0  0  0
  192.1470  175.1080  146.4330 C   0  0  0  0  0  3  0  0  0  0  0  0
  191.1200  174.8790  144.1730 C   0  0  0  0  0  0  0  0  0  0  0  0
  191.1430  175.4740  145.5250 C   0  0  0  0  0  0  0  0  0  0  0  0
  189.1570  176.8830  144.8840 C   0  0  2  0  0  3  0  0  0  0  0  0
  185.9390  179.2560  143.4060 N   0  0  0  0  0  0  0  0  0  0  0  0
  192.4670  173.3820  139.1990 C   0  0  0  0  0  2  0  0  0  0  0  0
  192.4070  173.6060  142.4320 C   0  0  2  0  0  3  0  0  0  0  0  0
  186.5960  178.3630  142.5550 N   0  0  0  0  0  0  0  0  0  0  0  0
  191.2320  173.4120  140.1120 C   0  0  0  0  0  2  0  0  0  0  0  0
  194.0810  173.9790  140.5940 C   0  0  1  0  0  3  0  0  0  0  0  0
  190.2520  177.0210  147.1700 C   0  0  0  0  0  3  0  0  0  0  0  0
  190.1740  176.4260  145.9000 C   0  0  0  0  0  0  0  0  0  0  0  0
  187.9020  177.5010  145.5480 C   0  0  0  0  0  2  0  0  0  0  0  0
  190.0330  174.3320  142.0470 C   0  0  0  0  0  2  0  0  0  0  0  0
  187.1020  175.1840  142.1020 C   0  0  0  0  0  1  0  0  0  0  0  0
  185.3320  179.4970  145.7590 C   0  0  0  0  0  1  0  0  0  0  0  0
  188.8090  175.7610  143.8670 C   0  0  2  0  0  3  0  0  0  0  0  0
  186.6360  177.4640  144.6820 C   0  0  2  0  0  3  0  0  0  0  0  0
  194.9650  173.1770  139.7660 C   0  0  2  0  0  3  0  0  0  0  0  0
  195.2030  173.8160  138.4310 C   0  0  0  0  0  0  0  0  0  0  0  0
  195.1880  175.2000  138.3040 O   0  0  0  0  0  1  0  0  0  0  0  0
  195.4590  173.1000  137.4280 O   0  0  0  0  0  0  0  0  0  0  0  0
  1 16  1  6  0  0  0
  1 20  1  0  0  0  0
  2 12  2  0  0  0  0
  3  4  1  0  0  0  0
  5 25  1  1  0  0  0
  5  6  1  0  0  0  0
  5 27  1  0  0  0  0
  6 28  1  0  0  0  0
  7 19  1  6  0  0  0
  7 24  1  0  0  0  0
  7 17  1  0  0  0  0
  8 12  1  0  0  0  0
  9 28  1  0  0  0  0
  9 26  1  0  0  0  0
 11  3  2  0  0  0  0
 12 13  1  0  0  0  0
 13 22  2  0  0  0  0
 13 11  1  0  0  0  0
 14 23  1  1  0  0  0
 14 22  1  0  0  0  0
 15  9  2  0  0  0  0
 16 19  1  0  0  0  0
 17 10  1  6  0  0  0
 17  8  1  0  0  0  0
 18  6  2  0  0  0  0
 18 15  1  0  0  0  0
 20 10  1  1  0  0  0
 21  4  2  0  0  0  0
 22 21  1  0  0  0  0
 24  2  1  0  0  0  0
 27  2  1  6  0  0  0
 27 14  1  0  0  0  0
 28 23  1  1  0  0  0
 29 30  1  6  0  0  0
 29  1  1  0  0  0  0
 29 20  1  0  0  0  0
 31 30  1  0  0  0  0
 32 30  2  0  0  0  0
M  END
>  <MODEL>
6

>  <REMARK>
 VINA RESULT:      -7.8      3.195      4.530
  Name = 
  1 active torsions:
  status: ('A' for Active; 'I' for Inactive)
    1  A    between atoms: C_29  and  C_30
                            x       y       z     vdW  Elec       q    Type
                         _______ _______ _______ _____ _____    ______ ____

>  <TORSDO>
F 1

$$$$
=
 OpenBabel11112416273D

 32 38  0  0  1  0  0  0  0  0999 V2000
  194.9320  174.3210  142.9440 N   0  0  2  0  0  0  0  0  0  0  0  0
  189.6440  175.3190  143.1940 C   0  0  0  0  0  0  0  0  0  0  0  0
  188.2860  175.7670  147.8600 C   0  0  0  0  0  3  0  0  0  0  0  0
  187.1210  176.4440  147.4940 C   0  0  0  0  0  3  0  0  0  0  0  0
  188.1760  176.1660  141.2790 C   0  0  2  0  0  3  0  0  0  0  0  0
  186.9000  176.8990  141.0310 C   0  0  0  0  0  0  0  0  0  0  0  0
  192.0760  175.0860  142.6120 C   0  0  1  0  0  3  0  0  0  0  0  0
  191.2220  174.8560  144.9310 O   0  0  0  0  0  0  0  0  0  0  0  0
  184.9210  177.9000  141.3680 C   0  0  0  0  0  0  0  0  0  0  0  0
  193.6140  175.0090  144.7580 C   0  0  0  0  0  2  0  0  0  0  0  0
  189.2020  175.3760  146.8810 C   0  0  0  0  0  3  0  0  0  0  0  0
  189.9460  175.2560  144.5050 C   0  0  0  0  0  0  0  0  0  0  0  0
  188.9540  175.6460  145.5280 C   0  0  0  0  0  0  0  0  0  0  0  0
  187.5570  176.6820  143.7060 C   0  0  2  0  0  3  0  0  0  0  0  0
  185.5520  178.5100  140.4190 N   0  0  0  0  0  0  0  0  0  0  0  0
  194.4670  174.7910  141.6510 C   0  0  0  0  0  2  0  0  0  0  0  0
  192.3120  174.5400  144.0600 C   0  0  2  0  0  3  0  0  0  0  0  0
  186.7960  177.9040  140.2280 N   0  0  0  0  0  0  0  0  0  0  0  0
  192.9760  174.4310  141.5390 C   0  0  0  0  0  2  0  0  0  0  0  0
  194.6080  175.5110  143.7410 C   0  0  1  0  0  3  0  0  0  0  0  0
  186.8700  176.7240  146.1500 C   0  0  0  0  0  3  0  0  0  0  0  0
  187.7690  176.3110  145.1540 C   0  0  0  0  0  0  0  0  0  0  0  0
  186.0640  176.9230  143.3750 C   0  0  0  0  0  2  0  0  0  0  0  0
  190.6400  174.7980  142.2010 C   0  0  0  0  0  2  0  0  0  0  0  0
  188.2520  174.9980  140.3110 C   0  0  0  0  0  1  0  0  0  0  0  0
  183.5520  178.2850  141.8040 C   0  0  0  0  0  1  0  0  0  0  0  0
  188.2320  175.6670  142.7430 C   0  0  2  0  0  3  0  0  0  0  0  0
  185.6990  176.7430  141.8960 C   0  0  2  0  0  3  0  0  0  0  0  0
  195.9810  175.0370  143.7110 C   0  0  2  0  0  3  0  0  0  0  0  0
  196.8430  175.8940  142.8330 C   0  0  0  0  0  0  0  0  0  0  0  0
  197.7210  175.3090  141.9280 O   0  0  0  0  0  0  0  0  0  0  0  0
  196.7450  177.1470  142.8860 O   0  0  0  0  0  1  0  0  0  0  0  0
  1 16  1  6  0  0  0
  1 29  1  0  0  0  0
  1 20  1  0  0  0  0
  2 12  2  0  0  0  0
  4  3  1  0  0  0  0
  5 25  1  6  0  0  0
  5 27  1  0  0  0  0
  6  5  1  0  0  0  0
  6 28  1  0  0  0  0
  7 19  1  6  0  0  0
  7 17  1  0  0  0  0
  9 26  1  0  0  0  0
  9 28  1  0  0  0  0
 11  3  2  0  0  0  0
 12  8  1  0  0  0  0
 12 13  1  0  0  0  0
 13 11  1  0  0  0  0
 14 23  1  6  0  0  0
 14 22  1  0  0  0  0
 15  9  2  0  0  0  0
 17 10  1  1  0  0  0
 17  8  1  0  0  0  0
 18 15  1  0  0  0  0
 18  6  2  0  0  0  0
 19 16  1  0  0  0  0
 20 10  1  1  0  0  0
 21  4  2  0  0  0  0
 22 13  2  0  0  0  0
 22 21  1  0  0  0  0
 24  7  1  0  0  0  0
 24  2  1  0  0  0  0
 27  2  1  1  0  0  0
 27 14  1  0  0  0  0
 28 23  1  1  0  0  0
 29 30  1  6  0  0  0
 29 20  1  0  0  0  0
 30 32  1  0  0  0  0
 31 30  2  0  0  0  0
M  END
>  <MODEL>
7

>  <REMARK>
 VINA RESULT:      -7.5      1.661      2.230
  Name = 
  1 active torsions:
  status: ('A' for Active; 'I' for Inactive)
    1  A    between atoms: C_29  and  C_30
                            x       y       z     vdW  Elec       q    Type
                         _______ _______ _______ _____ _____    ______ ____

>  <TORSDO>
F 1

$$$$
=
 OpenBabel11112416273D

 32 38  0  0  1  0  0  0  0  0999 V2000
  194.9090  171.2410  142.9350 N   0  0  2  0  0  0  0  0  0  0  0  0
  190.5150  174.1890  143.9410 C   0  0  0  0  0  0  0  0  0  0  0  0
  191.1900  176.7910  148.0140 C   0  0  0  0  0  3  0  0  0  0  0  0
  190.1680  177.6750  147.6630 C   0  0  0  0  0  3  0  0  0  0  0  0
  188.6690  174.7680  142.2670 C   0  0  2  0  0  3  0  0  0  0  0  0
  187.6070  175.7840  142.0150 C   0  0  0  0  0  0  0  0  0  0  0  0
  192.4100  172.8560  142.9760 C   0  0  1  0  0  3  0  0  0  0  0  0
  192.4800  173.8310  145.2560 O   0  0  0  0  0  0  0  0  0  0  0  0
  186.2030  177.5100  142.3020 C   0  0  0  0  0  0  0  0  0  0  0  0
  194.5870  172.9890  144.4650 C   0  0  0  0  0  2  0  0  0  0  0  0
  191.5420  175.7530  147.1490 C   0  0  0  0  0  3  0  0  0  0  0  0
  191.2710  174.5010  145.0110 C   0  0  0  0  0  0  0  0  0  0  0  0
  190.8670  175.5830  145.9320 C   0  0  0  0  0  0  0  0  0  0  0  0
  189.1660  176.3280  144.2310 C   0  0  2  0  0  3  0  0  0  0  0  0
  186.5460  177.4420  141.0590 N   0  0  0  0  0  0  0  0  0  0  0  0
  194.1100  171.3450  141.7270 C   0  0  0  0  0  2  0  0  0  0  0  0
  193.0460  172.8300  144.4050 C   0  0  2  0  0  3  0  0  0  0  0  0
  187.4420  176.3840  140.8850 N   0  0  0  0  0  0  0  0  0  0  0  0
  192.6510  171.5650  142.1580 C   0  0  0  0  0  2  0  0  0  0  0  0
  195.2050  172.6670  143.1280 C   0  0  1  0  0  3  0  0  0  0  0  0
  189.4960  177.5180  146.4500 C   0  0  0  0  0  3  0  0  0  0  0  0
  189.8220  176.4600  145.5840 C   0  0  0  0  0  0  0  0  0  0  0  0
  187.7620  176.9790  144.1940 C   0  0  0  0  0  2  0  0  0  0  0  0
  190.9030  173.0050  143.1060 C   0  0  0  0  0  2  0  0  0  0  0  0
  188.0920  173.3920  141.9780 C   0  0  0  0  0  1  0  0  0  0  0  0
  185.2360  178.5160  142.8180 C   0  0  0  0  0  1  0  0  0  0  0  0
  189.1610  174.8570  143.7320 C   0  0  2  0  0  3  0  0  0  0  0  0
  186.8280  176.4240  143.1100 C   0  0  2  0  0  3  0  0  0  0  0  0
  196.3080  171.7320  142.9980 C   0  0  2  0  0  3  0  0  0  0  0  0
  196.9450  171.8120  141.6430 C   0  0  0  0  0  0  0  0  0  0  0  0
  197.3800  170.6570  141.0040 O   0  0  0  0  0  0  0  0  0  0  0  0
  197.0490  172.9230  141.0610 O   0  0  0  0  0  1  0  0  0  0  0  0
  1 16  1  6  0  0  0
  1 29  1  0  0  0  0
  1 20  1  0  0  0  0
  2 12  2  0  0  0  0
  4  3  1  0  0  0  0
  5 25  1  1  0  0  0
  5 27  1  0  0  0  0
  6  5  1  0  0  0  0
  6 28  1  0  0  0  0
  7 19  1  1  0  0  0
  7 24  1  0  0  0  0
  7 17  1  0  0  0  0
  9 26  1  0  0  0  0
  9 28  1  0  0  0  0
 11  3  2  0  0  0  0
 12  8  1  0  0  0  0
 12 13  1  0  0  0  0
 13 11  1  0  0  0  0
 14 23  1  1  0  0  0
 14 22  1  0  0  0  0
 15  9  2  0  0  0  0
 16 19  1  0  0  0  0
 17 10  1  6  0  0  0
 17  8  1  0  0  0  0
 18 15  1  0  0  0  0
 18  6  2  0  0  0  0
 20 10  1  1  0  0  0
 21  4  2  0  0  0  0
 22 13  2  0  0  0  0
 22 21  1  0  0  0  0
 24  2  1  0  0  0  0
 27  2  1  6  0  0  0
 27 14  1  0  0  0  0
 28 23  1  1  0  0  0
 29 30  1  6  0  0  0
 29 20  1  0  0  0  0
 31 30  2  0  0  0  0
 32 30  1  0  0  0  0
M  END
>  <MODEL>
8

>  <REMARK>
 VINA RESULT:      -7.4      2.511      3.657
  Name = 
  1 active torsions:
  status: ('A' for Active; 'I' for Inactive)
    1  A    between atoms: C_29  and  C_30
                            x       y       z     vdW  Elec       q    Type
                         _______ _______ _______ _____ _____    ______ ____

>  <TORSDO>
F 1

$$$$
=
 OpenBabel11112416273D

 32 38  0  0  1  0  0  0  0  0999 V2000
  187.3440  177.9160  145.3810 N   0  0  2  0  0  0  0  0  0  0  0  0
  191.1620  174.5530  143.6140 C   0  0  0  0  0  0  0  0  0  0  0  0
  195.2790  175.2890  146.1290 C   0  0  0  0  0  3  0  0  0  0  0  0
  195.7710  174.0350  145.7630 C   0  0  0  0  0  3  0  0  0  0  0  0
  190.7840  172.4230  142.2480 C   0  0  2  0  0  3  0  0  0  0  0  0
  191.4280  171.1140  141.9370 C   0  0  0  0  0  0  0  0  0  0  0  0
  189.0560  175.7470  144.2780 C   0  0  1  0  0  3  0  0  0  0  0  0
  191.2890  176.3720  145.1610 O   0  0  0  0  0  0  0  0  0  0  0  0
  192.9410  169.4630  141.8160 C   0  0  0  0  0  0  0  0  0  0  0  0
  189.4410  177.4040  146.2980 C   0  0  0  0  0  2  0  0  0  0  0  0
  194.0040  175.6850  145.7200 C   0  0  0  0  0  3  0  0  0  0  0  0
  191.8560  175.2530  144.5320 C   0  0  0  0  0  0  0  0  0  0  0  0
  193.2160  174.8360  144.9310 C   0  0  0  0  0  0  0  0  0  0  0  0
  192.8250  172.6330  143.7740 C   0  0  2  0  0  3  0  0  0  0  0  0
  191.7590  168.9520  141.9100 N   0  0  0  0  0  0  0  0  0  0  0  0
  186.7260  176.8250  144.6480 C   0  0  0  0  0  2  0  0  0  0  0  0
  189.9540  176.8390  144.9490 C   0  0  2  0  0  3  0  0  0  0  0  0
  190.8190  169.9800  142.0130 N   0  0  0  0  0  0  0  0  0  0  0  0
  187.7620  176.3030  143.6400 C   0  0  0  0  0  2  0  0  0  0  0  0
  187.9660  177.1350  146.4580 C   0  0  1  0  0  3  0  0  0  0  0  0
  194.9900  173.1800  144.9830 C   0  0  0  0  0  3  0  0  0  0  0  0
  193.7170  173.5780  144.5420 C   0  0  0  0  0  0  0  0  0  0  0  0
  193.6330  171.5620  143.0020 C   0  0  0  0  0  2  0  0  0  0  0  0
  189.8370  175.0840  143.1540 C   0  0  0  0  0  2  0  0  0  0  0  0
  190.2190  172.9970  140.9600 C   0  0  0  0  0  1  0  0  0  0  0  0
  194.1680  168.6360  141.6660 C   0  0  0  0  0  1  0  0  0  0  0  0
  191.8160  173.3940  142.8720 C   0  0  2  0  0  3  0  0  0  0  0  0
  192.9010  170.9530  141.7980 C   0  0  2  0  0  3  0  0  0  0  0  0
  187.0270  178.1880  146.8050 C   0  0  2  0  0  3  0  0  0  0  0  0
  185.6950  177.6310  147.2080 C   0  0  0  0  0  0  0  0  0  0  0  0
  184.5230  178.2920  146.8570 O   0  0  0  0  0  0  0  0  0  0  0  0
  185.6320  176.5390  147.8310 O   0  0  0  0  0  1  0  0  0  0  0  0
  1 16  1  6  0  0  0
  1 20  1  0  0  0  0
  1 29  1  0  0  0  0
  2 12  2  0  0  0  0
  4  3  1  0  0  0  0
  5 25  1  6  0  0  0
  5 27  1  0  0  0  0
  6 18  2  0  0  0  0
  6  5  1  0  0  0  0
  7 24  1  6  0  0  0
  7 17  1  0  0  0  0
  9 15  2  0  0  0  0
 11  3  2  0  0  0  0
 12 13  1  0  0  0  0
 12  8  1  0  0  0  0
 13 11  1  0  0  0  0
 14 23  1  6  0  0  0
 14 22  1  0  0  0  0
 15 18  1  0  0  0  0
 17  8  1  0  0  0  0
 17 10  1  1  0  0  0
 19  7  1  0  0  0  0
 19 16  1  0  0  0  0
 20 10  1  1  0  0  0
 20 29  1  0  0  0  0
 21  4  2  0  0  0  0
 22 13  2  0  0  0  0
 22 21  1  0  0  0  0
 24  2  1  0  0  0  0
 26  9  1  0  0  0  0
 27  2  1  1  0  0  0
 27 14  1  0  0  0  0
 28  9  1  0  0  0  0
 28  6  1  0  0  0  0
 28 23  1  1  0  0  0
 29 30  1  6  0  0  0
 30 32  1  0  0  0  0
 31 30  2  0  0  0  0
M  END
>  <MODEL>
9

>  <REMARK>
 VINA RESULT:      -7.3      3.196      8.099
  Name = 
  1 active torsions:
  status: ('A' for Active; 'I' for Inactive)
    1  A    between atoms: C_29  and  C_30
                            x       y       z     vdW  Elec       q    Type
                         _______ _______ _______ _____ _____    ______ ____

>  <TORSDO>
F 1

$$$$
