=
 OpenBabel11112417333D

 37 41  0  0  1  0  0  0  0  0999 V2000
  189.9860  176.1290  144.7300 C   0  0  1  0  0  3  0  0  0  0  0  0
  190.7390  174.5300  141.3570 C   0  0  0  0  0  2  0  0  0  0  0  0
  188.2850  177.6460  145.8870 C   0  0  2  0  0  3  0  0  0  0  0  0
  189.5460  175.4960  143.4500 C   0  0  2  0  0  3  0  0  0  0  0  0
  189.2940  177.4880  144.7400 C   0  0  2  0  0  3  0  0  0  0  0  0
  190.7880  174.7780  142.8650 C   0  0  1  0  0  3  0  0  0  0  0  0
  188.9140  177.2290  147.2240 C   0  0  0  0  0  2  0  0  0  0  0  0
  188.6940  177.7360  143.4910 O   0  0  0  0  0  0  0  0  0  0  0  0
  190.5720  174.1610  145.9250 C   0  0  0  0  0  2  0  0  0  0  0  0
  189.8690  176.0370  147.0980 C   0  0  0  0  0  2  0  0  0  0  0  0
  188.2850  173.9230  141.2090 C   0  0  0  0  0  2  0  0  0  0  0  0
  189.7150  173.4710  140.9490 C   0  0  0  0  0  2  0  0  0  0  0  0
  189.6310  175.2770  145.8730 N   0  0  1  0  0  0  0  0  0  0  0  0
  189.0210  176.6710  142.6230 C   0  0  2  0  0  3  0  0  0  0  0  0
  191.2120  173.5420  143.5730 N   0  0  2  0  0  0  0  0  0  0  0  0
  188.0650  175.3250  140.6680 C   0  0  0  0  0  2  0  0  0  0  0  0
  187.7670  176.3050  141.8000 C   0  0  2  0  0  3  0  0  0  0  0  0
  190.3770  173.1960  144.7460 C   0  0  0  0  0  2  0  0  0  0  0  0
  193.2500  174.9770  143.5640 C   0  0  0  0  0  2  0  0  0  0  0  0
  192.6400  173.6220  143.9420 C   0  0  2  0  0  3  0  0  0  0  0  0
  193.4570  172.5460  143.2260 C   0  0  0  0  0  2  0  0  0  0  0  0
  195.7650  171.6430  142.9740 C   0  0  0  0  0  1  0  0  0  0  0  0
  195.4480  173.9070  143.7930 N   0  0  0  0  0  0  0  0  0  0  0  0
  194.8790  172.5700  143.7790 C   0  0  1  0  0  3  0  0  0  0  0  0
  194.7450  174.9900  143.7510 C   0  0  0  0  0  3  0  0  0  0  0  0
  187.2240  177.4820  141.2400 O   0  0  0  0  0  0  0  0  0  0  0  0
  185.8170  177.5050  141.4080 C   0  0  1  0  0  3  0  0  0  0  0  0
  186.0230  179.2000  143.0440 O   0  0  0  0  0  0  0  0  0  0  0  0
  185.3870  178.2390  142.6460 C   0  0  0  0  0  3  0  0  0  0  0  0
  185.0570  177.9550  140.1610 C   0  0  0  0  0  2  0  0  0  0  0  0
  183.6820  178.4940  140.5190 C   0  0  0  0  0  2  0  0  0  0  0  0
  182.6890  177.6310  140.0550 O   0  0  0  0  0  1  0  0  0  0  0  0
  187.1300  176.8780  145.6450 O   0  0  0  0  0  0  0  0  0  0  0  0
  186.0350  177.5140  146.2680 C   0  0  0  0  0  0  0  0  0  0  0  0
  185.9190  177.1200  147.5920 F   0  0  0  0  0  0  0  0  0  0  0  0
  186.1610  178.8940  146.2010 F   0  0  0  0  0  0  0  0  0  0  0  0
  184.8780  177.1470  145.6080 F   0  0  0  0  0  0  0  0  0  0  0  0
  1  5  1  0  0  0  0
  1 13  1  0  0  0  0
  2  6  1  0  0  0  0
  3  7  1  0  0  0  0
  4  1  1  0  0  0  0
  5  3  1  0  0  0  0
  6  4  1  0  0  0  0
  6 15  1  0  0  0  0
  8  5  1  0  0  0  0
 10  7  1  0  0  0  0
 12 11  1  0  0  0  0
 12  2  1  0  0  0  0
 13  9  1  0  0  0  0
 13 10  1  0  0  0  0
 14  4  1  0  0  0  0
 14  8  1  0  0  0  0
 15 20  1  0  0  0  0
 15 18  1  0  0  0  0
 16 11  1  0  0  0  0
 16 17  1  0  0  0  0
 17 14  1  0  0  0  0
 18  9  1  0  0  0  0
 19 25  1  0  0  0  0
 19 20  1  0  0  0  0
 21 24  1  0  0  0  0
 21 20  1  0  0  0  0
 22 24  1  0  0  0  0
 24 23  1  0  0  0  0
 25 23  2  0  0  0  0
 26 27  1  0  0  0  0
 26 17  1  0  0  0  0
 27 29  1  0  0  0  0
 29 28  2  0  0  0  0
 30 31  1  0  0  0  0
 30 27  1  0  0  0  0
 32 31  1  0  0  0  0
 33  3  1  0  0  0  0
 33 34  1  0  0  0  0
 34 35  1  0  0  0  0
 36 34  1  0  0  0  0
 37 34  1  0  0  0  0
M  END
>  <MODEL>
1

>  <REMARK>
 VINA RESULT:      -6.9      0.000      0.000
  Name = 
  8 active torsions:
  status: ('A' for Active; 'I' for Inactive)
    1  A    between atoms: O_1  and  C_4
    2  A    between atoms: O_1  and  C_27
    3  A    between atoms: C_2  and  O_22
    4  A    between atoms: C_4  and  C_12
    5  A    between atoms: C_4  and  C_37
    6  A    between atoms: C_6  and  O_22
    7  A    between atoms: C_8  and  C_12
    8  A    between atoms: N_23  and  C_30
                            x       y       z     vdW  Elec       q    Type
                         _______ _______ _______ _____ _____    ______ ____

>  <TORSDO>
F 8

$$$$
=
 OpenBabel11112417333D

 37 41  0  0  1  0  0  0  0  0999 V2000
  189.4880  176.1390  144.8400 C   0  0  1  0  0  3  0  0  0  0  0  0
  190.9110  174.1540  141.9180 C   0  0  0  0  0  2  0  0  0  0  0  0
  187.6700  177.8480  145.3990 C   0  0  2  0  0  3  0  0  0  0  0  0
  189.3230  175.3930  143.5560 C   0  0  2  0  0  3  0  0  0  0  0  0
  188.9100  177.5210  144.5530 C   0  0  2  0  0  3  0  0  0  0  0  0
  190.6150  174.5610  143.3620 C   0  0  1  0  0  3  0  0  0  0  0  0
  187.9310  177.5500  146.8810 C   0  0  0  0  0  2  0  0  0  0  0  0
  188.6450  177.6610  143.1770 O   0  0  0  0  0  0  0  0  0  0  0  0
  189.6320  174.2870  146.3200 C   0  0  0  0  0  2  0  0  0  0  0  0
  188.8020  176.3080  147.1050 C   0  0  0  0  0  2  0  0  0  0  0  0
  188.5270  173.6470  141.2320 C   0  0  0  0  0  2  0  0  0  0  0  0
  189.9420  173.1050  141.3740 C   0  0  0  0  0  2  0  0  0  0  0  0
  188.8100  175.4320  145.9360 N   0  0  1  0  0  0  0  0  0  0  0  0
  189.0950  176.4950  142.5200 C   0  0  2  0  0  3  0  0  0  0  0  0
  190.7700  173.3900  144.2650 N   0  0  2  0  0  0  0  0  0  0  0  0
  188.5410  174.9910  140.5240 C   0  0  0  0  0  2  0  0  0  0  0  0
  188.0510  176.1000  141.4520 C   0  0  2  0  0  3  0  0  0  0  0  0
  189.6560  173.2110  145.2250 C   0  0  0  0  0  2  0  0  0  0  0  0
  192.8770  174.6860  144.5670 C   0  0  0  0  0  2  0  0  0  0  0  0
  192.0710  173.4440  144.9640 C   0  0  2  0  0  3  0  0  0  0  0  0
  192.9290  172.2250  144.6290 C   0  0  0  0  0  2  0  0  0  0  0  0
  195.1350  171.1610  145.0860 C   0  0  0  0  0  1  0  0  0  0  0  0
  194.8480  173.5400  145.4810 N   0  0  0  0  0  0  0  0  0  0  0  0
  194.1750  172.2520  145.5090 C   0  0  1  0  0  3  0  0  0  0  0  0
  194.2790  174.6420  145.1160 C   0  0  0  0  0  3  0  0  0  0  0  0
  187.7420  177.2330  140.6690 O   0  0  0  0  0  0  0  0  0  0  0  0
  186.4340  177.1210  140.1340 C   0  0  1  0  0  3  0  0  0  0  0  0
  184.4570  178.4020  140.3300 O   0  0  0  0  0  0  0  0  0  0  0  0
  185.4170  177.9150  140.9030 C   0  0  0  0  0  3  0  0  0  0  0  0
  186.3640  177.3700  138.6280 C   0  0  0  0  0  2  0  0  0  0  0  0
  186.6260  176.0940  137.8460 C   0  0  0  0  0  2  0  0  0  0  0  0
  185.7080  175.9680  136.8040 O   0  0  0  0  0  1  0  0  0  0  0  0
  186.5560  177.1120  144.9530 O   0  0  0  0  0  0  0  0  0  0  0  0
  185.4490  177.9850  144.8770 C   0  0  0  0  0  0  0  0  0  0  0  0
  184.5490  177.5630  143.9120 F   0  0  0  0  0  0  0  0  0  0  0  0
  184.8080  178.0790  146.1040 F   0  0  0  0  0  0  0  0  0  0  0  0
  185.9020  179.2400  144.5220 F   0  0  0  0  0  0  0  0  0  0  0  0
  1 13  1  0  0  0  0
  2  6  1  0  0  0  0
  3  7  1  0  0  0  0
  4  1  1  0  0  0  0
  5  1  1  0  0  0  0
  5  3  1  0  0  0  0
  6  4  1  0  0  0  0
  6 15  1  0  0  0  0
  7 10  1  0  0  0  0
  8  5  1  0  0  0  0
 11 12  1  0  0  0  0
 12  2  1  0  0  0  0
 13  9  1  0  0  0  0
 13 10  1  0  0  0  0
 14  8  1  0  0  0  0
 14  4  1  0  0  0  0
 15 20  1  0  0  0  0
 15 18  1  0  0  0  0
 16 11  1  0  0  0  0
 16 17  1  0  0  0  0
 17 14  1  0  0  0  0
 18  9  1  0  0  0  0
 19 20  1  0  0  0  0
 19 25  1  0  0  0  0
 21 20  1  0  0  0  0
 21 24  1  0  0  0  0
 22 24  1  0  0  0  0
 23 24  1  0  0  0  0
 25 23  2  0  0  0  0
 26 17  1  0  0  0  0
 27 26  1  0  0  0  0
 27 29  1  0  0  0  0
 28 29  2  0  0  0  0
 30 27  1  0  0  0  0
 31 30  1  0  0  0  0
 32 31  1  0  0  0  0
 33  3  1  0  0  0  0
 34 33  1  0  0  0  0
 34 36  1  0  0  0  0
 35 34  1  0  0  0  0
 37 34  1  0  0  0  0
M  END
>  <MODEL>
2

>  <REMARK>
 VINA RESULT:      -6.8      1.485      1.808
  Name = 
  8 active torsions:
  status: ('A' for Active; 'I' for Inactive)
    1  A    between atoms: O_1  and  C_4
    2  A    between atoms: O_1  and  C_27
    3  A    between atoms: C_2  and  O_22
    4  A    between atoms: C_4  and  C_12
    5  A    between atoms: C_4  and  C_37
    6  A    between atoms: C_6  and  O_22
    7  A    between atoms: C_8  and  C_12
    8  A    between atoms: N_23  and  C_30
                            x       y       z     vdW  Elec       q    Type
                         _______ _______ _______ _____ _____    ______ ____

>  <TORSDO>
F 8

$$$$
=
 OpenBabel11112417333D

 37 41  0  0  1  0  0  0  0  0999 V2000
  190.6320  175.2260  144.9030 C   0  0  1  0  0  3  0  0  0  0  0  0
  187.6510  174.9040  142.5560 C   0  0  0  0  0  2  0  0  0  0  0  0
  192.7740  174.0130  145.5920 C   0  0  2  0  0  3  0  0  0  0  0  0
  190.0240  174.8110  143.6030 C   0  0  2  0  0  3  0  0  0  0  0  0
  191.2450  173.9470  145.4630 C   0  0  2  0  0  3  0  0  0  0  0  0
  188.6700  175.5530  143.4940 C   0  0  1  0  0  3  0  0  0  0  0  0
  193.2030  175.3020  146.3050 C   0  0  0  0  0  2  0  0  0  0  0  0
  190.8410  172.8390  144.6940 O   0  0  0  0  0  0  0  0  0  0  0  0
  190.8770  177.5480  144.4630 C   0  0  0  0  0  2  0  0  0  0  0  0
  192.3340  176.5120  145.9430 C   0  0  0  0  0  2  0  0  0  0  0  0
  189.2790  174.2090  140.7450 C   0  0  0  0  0  2  0  0  0  0  0  0
  188.0310  175.0140  141.0800 C   0  0  0  0  0  2  0  0  0  0  0  0
  191.6080  176.3050  144.6920 N   0  0  1  0  0  0  0  0  0  0  0  0
  189.9280  173.2880  143.7160 C   0  0  2  0  0  3  0  0  0  0  0  0
  188.7530  177.0130  143.2270 N   0  0  2  0  0  0  0  0  0  0  0  0
  189.1750  172.8060  141.3180 C   0  0  0  0  0  2  0  0  0  0  0  0
  190.2420  172.5720  142.3840 C   0  0  2  0  0  3  0  0  0  0  0  0
  190.1360  177.5330  143.1180 C   0  0  0  0  0  2  0  0  0  0  0  0
  187.6130  176.8960  145.4400 C   0  0  0  0  0  2  0  0  0  0  0  0
  187.9790  177.7680  144.2330 C   0  0  2  0  0  3  0  0  0  0  0  0
  186.6690  178.2920  143.6440 C   0  0  0  0  0  2  0  0  0  0  0  0
  184.6230  179.6000  144.2000 C   0  0  0  0  0  1  0  0  0  0  0  0
  185.9190  178.5880  145.9870 N   0  0  0  0  0  0  0  0  0  0  0  0
  186.0050  179.2020  144.6730 C   0  0  1  0  0  3  0  0  0  0  0  0
  186.6570  177.5980  146.3690 C   0  0  0  0  0  3  0  0  0  0  0  0
  190.3410  171.1840  142.6200 O   0  0  0  0  0  0  0  0  0  0  0  0
  191.3950  170.6270  141.8540 C   0  0  1  0  0  3  0  0  0  0  0  0
  192.4570  170.1200  143.9040 O   0  0  0  0  0  0  0  0  0  0  0  0
  192.5630  170.1920  142.6920 C   0  0  0  0  0  3  0  0  0  0  0  0
  190.9380  169.5490  140.8720 C   0  0  0  0  0  2  0  0  0  0  0  0
  190.9650  170.0590  139.4420 C   0  0  0  0  0  2  0  0  0  0  0  0
  191.6860  171.2510  139.3680 O   0  0  0  0  0  1  0  0  0  0  0  0
  193.3850  173.9420  144.3250 O   0  0  0  0  0  0  0  0  0  0  0  0
  194.5440  173.1440  144.4340 C   0  0  0  0  0  0  0  0  0  0  0  0
  194.7910  172.4640  143.2530 F   0  0  0  0  0  0  0  0  0  0  0  0
  195.6460  173.9160  144.7690 F   0  0  0  0  0  0  0  0  0  0  0  0
  194.3430  172.2110  145.4330 F   0  0  0  0  0  0  0  0  0  0  0  0
  1  5  1  0  0  0  0
  2  6  1  0  0  0  0
  3  7  1  0  0  0  0
  4 14  1  0  0  0  0
  4  1  1  0  0  0  0
  5  3  1  0  0  0  0
  6  4  1  0  0  0  0
  8  5  1  0  0  0  0
  9 13  1  0  0  0  0
 10  7  1  0  0  0  0
 11 12  1  0  0  0  0
 11 16  1  0  0  0  0
 12  2  1  0  0  0  0
 13  1  1  0  0  0  0
 13 10  1  0  0  0  0
 14  8  1  0  0  0  0
 15  6  1  0  0  0  0
 15 20  1  0  0  0  0
 16 17  1  0  0  0  0
 17 26  1  0  0  0  0
 17 14  1  0  0  0  0
 18 15  1  0  0  0  0
 18  9  1  0  0  0  0
 19 25  1  0  0  0  0
 20 19  1  0  0  0  0
 21 20  1  0  0  0  0
 21 24  1  0  0  0  0
 22 24  1  0  0  0  0
 23 25  2  0  0  0  0
 24 23  1  0  0  0  0
 27 26  1  0  0  0  0
 27 29  1  0  0  0  0
 29 28  2  0  0  0  0
 30 27  1  0  0  0  0
 31 30  1  0  0  0  0
 32 31  1  0  0  0  0
 33 34  1  0  0  0  0
 33  3  1  0  0  0  0
 34 36  1  0  0  0  0
 34 37  1  0  0  0  0
 35 34  1  0  0  0  0
M  END
>  <MODEL>
3

>  <REMARK>
 VINA RESULT:      -6.7      4.453      7.574
  Name = 
  8 active torsions:
  status: ('A' for Active; 'I' for Inactive)
    1  A    between atoms: O_1  and  C_4
    2  A    between atoms: O_1  and  C_27
    3  A    between atoms: C_2  and  O_22
    4  A    between atoms: C_4  and  C_12
    5  A    between atoms: C_4  and  C_37
    6  A    between atoms: C_6  and  O_22
    7  A    between atoms: C_8  and  C_12
    8  A    between atoms: N_23  and  C_30
                            x       y       z     vdW  Elec       q    Type
                         _______ _______ _______ _____ _____    ______ ____

>  <TORSDO>
F 8

$$$$
=
 OpenBabel11112417333D

 37 41  0  0  1  0  0  0  0  0999 V2000
  191.0700  175.3550  142.8550 C   0  0  1  0  0  3  0  0  0  0  0  0
  190.8500  176.9680  146.2970 C   0  0  0  0  0  2  0  0  0  0  0  0
  192.7700  174.4250  141.1880 C   0  0  2  0  0  3  0  0  0  0  0  0
  191.5390  175.5080  144.2650 C   0  0  2  0  0  3  0  0  0  0  0  0
  192.3060  175.6380  142.0090 C   0  0  2  0  0  3  0  0  0  0  0  0
  190.4070  176.2380  145.0290 C   0  0  1  0  0  3  0  0  0  0  0  0
  191.5930  173.8030  140.4260 C   0  0  0  0  0  2  0  0  0  0  0  0
  193.3440  176.1380  142.8180 O   0  0  0  0  0  0  0  0  0  0  0  0
  189.1770  173.9750  143.2520 C   0  0  0  0  0  2  0  0  0  0  0  0
  190.2770  173.8360  141.2130 C   0  0  0  0  0  2  0  0  0  0  0  0
  192.5070  175.2330  147.1060 C   0  0  0  0  0  2  0  0  0  0  0  0
  191.2480  176.0250  147.4320 C   0  0  0  0  0  2  0  0  0  0  0  0
  190.5050  174.0140  142.6450 N   0  0  1  0  0  0  0  0  0  0  0  0
  192.8460  176.2920  144.1300 C   0  0  2  0  0  3  0  0  0  0  0  0
  189.1890  175.4310  145.3020 N   0  0  2  0  0  0  0  0  0  0  0  0
  193.5910  176.1530  146.5750 C   0  0  0  0  0  2  0  0  0  0  0  0
  193.9290  175.8170  145.1250 C   0  0  2  0  0  3  0  0  0  0  0  0
  189.2490  174.0440  144.7840 C   0  0  0  0  0  2  0  0  0  0  0  0
  188.3390  177.4370  144.0940 C   0  0  0  0  0  2  0  0  0  0  0  0
  187.9840  176.1300  144.8110 C   0  0  2  0  0  3  0  0  0  0  0  0
  187.0460  176.4900  145.9630 C   0  0  0  0  0  2  0  0  0  0  0  0
  184.8670  177.5800  146.4850 C   0  0  0  0  0  1  0  0  0  0  0  0
  185.9900  178.0890  144.3930 N   0  0  0  0  0  0  0  0  0  0  0  0
  185.7520  177.0470  145.3780 C   0  0  1  0  0  3  0  0  0  0  0  0
  187.1120  178.2500  143.7720 C   0  0  0  0  0  3  0  0  0  0  0  0
  195.1560  176.4330  144.7980 O   0  0  0  0  0  0  0  0  0  0  0  0
  196.0310  175.4980  144.1910 C   0  0  1  0  0  3  0  0  0  0  0  0
  196.6900  176.8690  142.3810 O   0  0  0  0  0  0  0  0  0  0  0  0
  197.0480  176.1430  143.2930 C   0  0  0  0  0  3  0  0  0  0  0  0
  196.6560  174.5120  145.1780 C   0  0  0  0  0  2  0  0  0  0  0  0
  197.9370  173.9140  144.6220 C   0  0  0  0  0  2  0  0  0  0  0  0
  197.8650  172.5210  144.6360 O   0  0  0  0  0  1  0  0  0  0  0  0
  193.3630  173.4570  142.0210 O   0  0  0  0  0  0  0  0  0  0  0  0
  194.6530  173.1730  141.5240 C   0  0  0  0  0  0  0  0  0  0  0  0
  195.2460  174.3100  141.0000 F   0  0  0  0  0  0  0  0  0  0  0  0
  195.4610  172.6410  142.5180 F   0  0  0  0  0  0  0  0  0  0  0  0
  194.5380  172.2420  140.5090 F   0  0  0  0  0  0  0  0  0  0  0  0
  1  4  1  0  0  0  0
  2 12  1  0  0  0  0
  3  5  1  0  0  0  0
  3 33  1  0  0  0  0
  4  6  1  0  0  0  0
  5  8  1  0  0  0  0
  5  1  1  0  0  0  0
  6 15  1  0  0  0  0
  6  2  1  0  0  0  0
  7  3  1  0  0  0  0
  7 10  1  0  0  0  0
  8 14  1  0  0  0  0
  9 18  1  0  0  0  0
 10 13  1  0  0  0  0
 11 12  1  0  0  0  0
 13  1  1  0  0  0  0
 13  9  1  0  0  0  0
 14  4  1  0  0  0  0
 14 17  1  0  0  0  0
 16 11  1  0  0  0  0
 17 16  1  0  0  0  0
 18 15  1  0  0  0  0
 19 20  1  0  0  0  0
 20 15  1  0  0  0  0
 20 21  1  0  0  0  0
 23 24  1  0  0  0  0
 24 21  1  0  0  0  0
 24 22  1  0  0  0  0
 25 19  1  0  0  0  0
 25 23  2  0  0  0  0
 26 17  1  0  0  0  0
 27 26  1  0  0  0  0
 27 30  1  0  0  0  0
 28 29  2  0  0  0  0
 29 27  1  0  0  0  0
 31 32  1  0  0  0  0
 31 30  1  0  0  0  0
 34 33  1  0  0  0  0
 34 36  1  0  0  0  0
 35 34  1  0  0  0  0
 37 34  1  0  0  0  0
M  END
>  <MODEL>
4

>  <REMARK>
 VINA RESULT:      -6.7      4.798      8.756
  Name = 
  8 active torsions:
  status: ('A' for Active; 'I' for Inactive)
    1  A    between atoms: O_1  and  C_4
    2  A    between atoms: O_1  and  C_27
    3  A    between atoms: C_2  and  O_22
    4  A    between atoms: C_4  and  C_12
    5  A    between atoms: C_4  and  C_37
    6  A    between atoms: C_6  and  O_22
    7  A    between atoms: C_8  and  C_12
    8  A    between atoms: N_23  and  C_30
                            x       y       z     vdW  Elec       q    Type
                         _______ _______ _______ _____ _____    ______ ____

>  <TORSDO>
F 8

$$$$
=
 OpenBabel11112417333D

 37 41  0  0  1  0  0  0  0  0999 V2000
  190.6690  174.0110  143.0280 C   0  0  1  0  0  3  0  0  0  0  0  0
  192.1120  174.5420  146.5110 C   0  0  0  0  0  2  0  0  0  0  0  0
  188.6240  174.5790  141.6030 C   0  0  2  0  0  3  0  0  0  0  0  0
  190.8810  174.8470  144.2470 C   0  0  2  0  0  3  0  0  0  0  0  0
  189.1540  173.9200  142.8860 C   0  0  2  0  0  3  0  0  0  0  0  0
  192.0610  174.2080  145.0200 C   0  0  1  0  0  3  0  0  0  0  0  0
  189.4180  174.1010  140.3810 C   0  0  0  0  0  2  0  0  0  0  0  0
  188.5270  174.4480  144.0310 O   0  0  0  0  0  0  0  0  0  0  0  0
  192.7700  174.3650  141.9760 C   0  0  0  0  0  2  0  0  0  0  0  0
  190.9100  173.8950  140.6690 C   0  0  0  0  0  2  0  0  0  0  0  0
  191.4090  176.9670  146.3240 C   0  0  0  0  0  2  0  0  0  0  0  0
  192.4830  175.9970  146.7950 C   0  0  0  0  0  2  0  0  0  0  0  0
  191.3350  174.6180  141.8660 N   0  0  1  0  0  0  0  0  0  0  0  0
  189.5290  174.7980  144.9620 C   0  0  2  0  0  3  0  0  0  0  0  0
  193.4040  174.3880  144.4090 N   0  0  2  0  0  0  0  0  0  0  0  0
  190.0390  176.5110  146.7940 C   0  0  0  0  0  2  0  0  0  0  0  0
  189.1490  176.1490  145.6080 C   0  0  2  0  0  3  0  0  0  0  0  0
  193.3980  175.1480  143.1380 C   0  0  0  0  0  2  0  0  0  0  0  0
  193.1550  171.9180  144.6260 C   0  0  0  0  0  2  0  0  0  0  0  0
  194.0760  173.0820  144.2450 C   0  0  2  0  0  3  0  0  0  0  0  0
  195.3160  172.9830  145.1320 C   0  0  0  0  0  2  0  0  0  0  0  0
  197.1920  171.4690  145.7650 C   0  0  0  0  0  1  0  0  0  0  0  0
  195.1790  170.5350  144.7780 N   0  0  0  0  0  0  0  0  0  0  0  0
  196.0560  171.6940  144.7890 C   0  0  1  0  0  3  0  0  0  0  0  0
  193.8950  170.6050  144.6550 C   0  0  0  0  0  3  0  0  0  0  0  0
  187.8120  176.0840  146.0560 O   0  0  0  0  0  0  0  0  0  0  0  0
  187.1930  177.3540  145.9460 C   0  0  1  0  0  3  0  0  0  0  0  0
  186.5400  178.6680  144.0920 O   0  0  0  0  0  0  0  0  0  0  0  0
  187.4210  178.0040  144.6120 C   0  0  0  0  0  3  0  0  0  0  0  0
  185.7220  177.3580  146.3610 C   0  0  0  0  0  2  0  0  0  0  0  0
  185.4860  178.2860  147.5410 C   0  0  0  0  0  2  0  0  0  0  0  0
  186.7000  178.7860  148.0130 O   0  0  0  0  0  1  0  0  0  0  0  0
  188.6930  175.9820  141.6980 O   0  0  0  0  0  0  0  0  0  0  0  0
  187.4720  176.5190  141.2370 C   0  0  0  0  0  0  0  0  0  0  0  0
  187.2210  176.1310  139.9300 F   0  0  0  0  0  0  0  0  0  0  0  0
  186.4200  176.1270  142.0510 F   0  0  0  0  0  0  0  0  0  0  0  0
  187.5590  177.8980  141.2660 F   0  0  0  0  0  0  0  0  0  0  0  0
  1  4  1  0  0  0  0
  2 12  1  0  0  0  0
  3 33  1  0  0  0  0
  3  5  1  0  0  0  0
  4 14  1  0  0  0  0
  4  6  1  0  0  0  0
  5  1  1  0  0  0  0
  5  8  1  0  0  0  0
  6  2  1  0  0  0  0
  7 10  1  0  0  0  0
  7  3  1  0  0  0  0
  8 14  1  0  0  0  0
  9 18  1  0  0  0  0
 10 13  1  0  0  0  0
 11 16  1  0  0  0  0
 11 12  1  0  0  0  0
 13  9  1  0  0  0  0
 13  1  1  0  0  0  0
 14 17  1  0  0  0  0
 15  6  1  0  0  0  0
 17 26  1  0  0  0  0
 17 16  1  0  0  0  0
 18 15  1  0  0  0  0
 19 25  1  0  0  0  0
 20 15  1  0  0  0  0
 20 19  1  0  0  0  0
 20 21  1  0  0  0  0
 23 24  1  0  0  0  0
 24 21  1  0  0  0  0
 24 22  1  0  0  0  0
 25 23  2  0  0  0  0
 27 26  1  0  0  0  0
 27 30  1  0  0  0  0
 28 29  2  0  0  0  0
 29 27  1  0  0  0  0
 30 31  1  0  0  0  0
 31 32  1  0  0  0  0
 34 37  1  0  0  0  0
 34 33  1  0  0  0  0
 34 36  1  0  0  0  0
 35 34  1  0  0  0  0
M  END
>  <MODEL>
5

>  <REMARK>
 VINA RESULT:      -6.6      2.441      4.891
  Name = 
  8 active torsions:
  status: ('A' for Active; 'I' for Inactive)
    1  A    between atoms: O_1  and  C_4
    2  A    between atoms: O_1  and  C_27
    3  A    between atoms: C_2  and  O_22
    4  A    between atoms: C_4  and  C_12
    5  A    between atoms: C_4  and  C_37
    6  A    between atoms: C_6  and  O_22
    7  A    between atoms: C_8  and  C_12
    8  A    between atoms: N_23  and  C_30
                            x       y       z     vdW  Elec       q    Type
                         _______ _______ _______ _____ _____    ______ ____

>  <TORSDO>
F 8

$$$$
=
 OpenBabel11112417333D

 37 41  0  0  1  0  0  0  0  0999 V2000
  190.6260  176.1970  144.9590 C   0  0  1  0  0  3  0  0  0  0  0  0
  190.7240  174.3490  141.6310 C   0  0  0  0  0  2  0  0  0  0  0  0
  189.0050  177.3870  146.5370 C   0  0  2  0  0  3  0  0  0  0  0  0
  190.0150  175.2850  143.9450 C   0  0  2  0  0  3  0  0  0  0  0  0
  189.6070  177.3190  145.1260 C   0  0  2  0  0  3  0  0  0  0  0  0
  191.1650  174.8280  143.0150 C   0  0  1  0  0  3  0  0  0  0  0  0
  190.1110  177.3540  147.6010 C   0  0  0  0  0  2  0  0  0  0  0  0
  188.6030  177.2140  144.1440 O   0  0  0  0  0  0  0  0  0  0  0  0
  192.1000  174.6490  145.9950 C   0  0  0  0  0  2  0  0  0  0  0  0
  191.2840  176.4390  147.2270 C   0  0  0  0  0  2  0  0  0  0  0  0
  188.6350  173.1210  142.3650 C   0  0  0  0  0  2  0  0  0  0  0  0
  189.9790  173.0150  141.6600 C   0  0  0  0  0  2  0  0  0  0  0  0
  190.9080  175.4660  146.2030 N   0  0  1  0  0  0  0  0  0  0  0  0
  188.9400  176.1480  143.2810 C   0  0  2  0  0  3  0  0  0  0  0  0
  192.1280  173.8640  143.6070 N   0  0  2  0  0  0  0  0  0  0  0  0
  187.8590  174.3210  141.8510 C   0  0  0  0  0  2  0  0  0  0  0  0
  187.6560  175.3530  142.9570 C   0  0  2  0  0  3  0  0  0  0  0  0
  191.8380  173.4990  145.0130 C   0  0  0  0  0  2  0  0  0  0  0  0
  193.5590  175.7040  142.7260 C   0  0  0  0  0  2  0  0  0  0  0  0
  193.5120  174.3600  143.4610 C   0  0  2  0  0  3  0  0  0  0  0  0
  194.3700  173.3800  142.6600 C   0  0  0  0  0  2  0  0  0  0  0  0
  196.6680  173.0200  141.7690 C   0  0  0  0  0  1  0  0  0  0  0  0
  195.9440  175.2660  142.3420 N   0  0  0  0  0  0  0  0  0  0  0  0
  195.8170  173.8620  142.6950 C   0  0  1  0  0  3  0  0  0  0  0  0
  194.9710  176.1140  142.3970 C   0  0  0  0  0  3  0  0  0  0  0  0
  186.6480  176.2530  142.5480 O   0  0  0  0  0  0  0  0  0  0  0  0
  187.1920  177.2530  141.7040 C   0  0  1  0  0  3  0  0  0  0  0  0
  186.1600  177.3990  139.5820 O   0  0  0  0  0  0  0  0  0  0  0  0
  187.0650  176.9210  140.2440 C   0  0  0  0  0  3  0  0  0  0  0  0
  186.7080  178.6650  142.0330 C   0  0  0  0  0  2  0  0  0  0  0  0
  185.5800  178.6370  143.0500 C   0  0  0  0  0  2  0  0  0  0  0  0
  185.8920  179.4500  144.1400 O   0  0  0  0  0  1  0  0  0  0  0  0
  188.1080  176.3230  146.7490 O   0  0  0  0  0  0  0  0  0  0  0  0
  186.8050  176.8550  146.8570 C   0  0  0  0  0  0  0  0  0  0  0  0
  186.1830  176.4140  148.0130 F   0  0  0  0  0  0  0  0  0  0  0  0
  186.8340  178.2410  146.8410 F   0  0  0  0  0  0  0  0  0  0  0  0
  186.0620  176.4200  145.7760 F   0  0  0  0  0  0  0  0  0  0  0  0
  1  5  1  0  0  0  0
  1 13  1  0  0  0  0
  2 12  1  0  0  0  0
  2  6  1  0  0  0  0
  3 33  1  0  0  0  0
  3  7  1  0  0  0  0
  4  1  1  0  0  0  0
  5  3  1  0  0  0  0
  6 15  1  0  0  0  0
  6  4  1  0  0  0  0
  8  5  1  0  0  0  0
  9 13  1  0  0  0  0
 10  7  1  0  0  0  0
 12 11  1  0  0  0  0
 13 10  1  0  0  0  0
 14  4  1  0  0  0  0
 14  8  1  0  0  0  0
 15 18  1  0  0  0  0
 16 11  1  0  0  0  0
 16 17  1  0  0  0  0
 17 14  1  0  0  0  0
 18  9  1  0  0  0  0
 19 20  1  0  0  0  0
 20 15  1  0  0  0  0
 21 24  1  0  0  0  0
 21 20  1  0  0  0  0
 22 24  1  0  0  0  0
 23 25  2  0  0  0  0
 23 24  1  0  0  0  0
 25 19  1  0  0  0  0
 26 17  1  0  0  0  0
 27 30  1  0  0  0  0
 27 26  1  0  0  0  0
 28 29  2  0  0  0  0
 29 27  1  0  0  0  0
 30 31  1  0  0  0  0
 31 32  1  0  0  0  0
 33 34  1  0  0  0  0
 34 35  1  0  0  0  0
 36 34  1  0  0  0  0
 37 34  1  0  0  0  0
M  END
>  <MODEL>
6

>  <REMARK>
 VINA RESULT:      -6.6      1.454      1.866
  Name = 
  8 active torsions:
  status: ('A' for Active; 'I' for Inactive)
    1  A    between atoms: O_1  and  C_4
    2  A    between atoms: O_1  and  C_27
    3  A    between atoms: C_2  and  O_22
    4  A    between atoms: C_4  and  C_12
    5  A    between atoms: C_4  and  C_37
    6  A    between atoms: C_6  and  O_22
    7  A    between atoms: C_8  and  C_12
    8  A    between atoms: N_23  and  C_30
                            x       y       z     vdW  Elec       q    Type
                         _______ _______ _______ _____ _____    ______ ____

>  <TORSDO>
F 8

$$$$
=
 OpenBabel11112417333D

 37 41  0  0  1  0  0  0  0  0999 V2000
  190.7050  173.6290  141.9410 C   0  0  1  0  0  3  0  0  0  0  0  0
  191.5340  176.0360  144.7740 C   0  0  0  0  0  2  0  0  0  0  0  0
  188.8730  173.1010  140.2390 C   0  0  2  0  0  3  0  0  0  0  0  0
  190.6560  174.9840  142.5690 C   0  0  2  0  0  3  0  0  0  0  0  0
  189.2430  173.2580  141.7210 C   0  0  2  0  0  3  0  0  0  0  0  0
  191.7450  174.9990  143.6700 C   0  0  1  0  0  3  0  0  0  0  0  0
  189.8860  172.2000  139.5200 C   0  0  0  0  0  2  0  0  0  0  0  0
  188.4040  174.1870  142.3640 O   0  0  0  0  0  0  0  0  0  0  0  0
  192.9120  173.7170  141.0650 C   0  0  0  0  0  2  0  0  0  0  0  0
  191.3240  172.3880  140.0150 C   0  0  0  0  0  2  0  0  0  0  0  0
  190.6820  177.9090  143.2970 C   0  0  0  0  0  2  0  0  0  0  0  0
  191.7410  177.4740  144.3010 C   0  0  0  0  0  2  0  0  0  0  0  0
  191.4980  173.6660  140.7040 N   0  0  1  0  0  0  0  0  0  0  0  0
  189.2160  175.0990  143.0730 C   0  0  2  0  0  3  0  0  0  0  0  0
  193.1490  175.0450  143.1870 N   0  0  2  0  0  0  0  0  0  0  0  0
  189.2950  177.5520  143.8010 C   0  0  0  0  0  2  0  0  0  0  0  0
  188.6350  176.5190  142.8910 C   0  0  2  0  0  3  0  0  0  0  0  0
  193.2860  175.0590  141.7120 C   0  0  0  0  0  2  0  0  0  0  0  0
  193.0680  173.0260  144.6450 C   0  0  0  0  0  2  0  0  0  0  0  0
  193.9380  173.9480  143.7840 C   0  0  2  0  0  3  0  0  0  0  0  0
  195.0470  174.4910  144.6850 C   0  0  0  0  0  2  0  0  0  0  0  0
  196.9290  173.7920  146.1620 C   0  0  0  0  0  1  0  0  0  0  0  0
  195.1530  172.2140  145.6570 N   0  0  0  0  0  0  0  0  0  0  0  0
  195.9260  173.3250  145.1270 C   0  0  1  0  0  3  0  0  0  0  0  0
  193.8970  172.0310  145.4150 C   0  0  0  0  0  3  0  0  0  0  0  0
  187.2530  176.4910  143.1780 O   0  0  0  0  0  0  0  0  0  0  0  0
  186.5920  177.5630  142.5290 C   0  0  1  0  0  3  0  0  0  0  0  0
  186.1000  177.5360  140.2170 O   0  0  0  0  0  0  0  0  0  0  0  0
  186.9530  177.6810  141.0760 C   0  0  0  0  0  3  0  0  0  0  0  0
  185.0820  177.5890  142.7670 C   0  0  0  0  0  2  0  0  0  0  0  0
  184.6890  178.7380  143.6790 C   0  0  0  0  0  2  0  0  0  0  0  0
  185.6990  179.7000  143.7080 O   0  0  0  0  0  1  0  0  0  0  0  0
  188.8170  174.3560  139.6030 O   0  0  0  0  0  0  0  0  0  0  0  0
  188.3670  174.1650  138.2800 C   0  0  0  0  0  0  0  0  0  0  0  0
  189.4010  174.3380  137.3730 F   0  0  0  0  0  0  0  0  0  0  0  0
  187.8150  172.9020  138.1230 F   0  0  0  0  0  0  0  0  0  0  0  0
  187.3930  175.1060  138.0050 F   0  0  0  0  0  0  0  0  0  0  0  0
  1  4  1  0  0  0  0
  3  5  1  0  0  0  0
  4 14  1  0  0  0  0
  4  6  1  0  0  0  0
  5  1  1  0  0  0  0
  5  8  1  0  0  0  0
  6  2  1  0  0  0  0
  7 10  1  0  0  0  0
  7  3  1  0  0  0  0
  8 14  1  0  0  0  0
  9 18  1  0  0  0  0
 10 13  1  0  0  0  0
 11 16  1  0  0  0  0
 11 12  1  0  0  0  0
 12  2  1  0  0  0  0
 13  9  1  0  0  0  0
 13  1  1  0  0  0  0
 15  6  1  0  0  0  0
 15 20  1  0  0  0  0
 17 14  1  0  0  0  0
 17 26  1  0  0  0  0
 17 16  1  0  0  0  0
 18 15  1  0  0  0  0
 19 25  1  0  0  0  0
 20 19  1  0  0  0  0
 20 21  1  0  0  0  0
 21 24  1  0  0  0  0
 24 23  1  0  0  0  0
 24 22  1  0  0  0  0
 25 23  2  0  0  0  0
 27 30  1  0  0  0  0
 27 26  1  0  0  0  0
 28 29  2  0  0  0  0
 29 27  1  0  0  0  0
 30 31  1  0  0  0  0
 31 32  1  0  0  0  0
 33  3  1  0  0  0  0
 34 33  1  0  0  0  0
 35 34  1  0  0  0  0
 36 34  1  0  0  0  0
 37 34  1  0  0  0  0
M  END
>  <MODEL>
7

>  <REMARK>
 VINA RESULT:      -6.5      3.289      5.171
  Name = 
  8 active torsions:
  status: ('A' for Active; 'I' for Inactive)
    1  A    between atoms: O_1  and  C_4
    2  A    between atoms: O_1  and  C_27
    3  A    between atoms: C_2  and  O_22
    4  A    between atoms: C_4  and  C_12
    5  A    between atoms: C_4  and  C_37
    6  A    between atoms: C_6  and  O_22
    7  A    between atoms: C_8  and  C_12
    8  A    between atoms: N_23  and  C_30
                            x       y       z     vdW  Elec       q    Type
                         _______ _______ _______ _____ _____    ______ ____

>  <TORSDO>
F 8

$$$$
=
 OpenBabel11112417333D

 37 41  0  0  1  0  0  0  0  0999 V2000
  191.9130  174.1550  143.4220 C   0  0  1  0  0  3  0  0  0  0  0  0
  189.6400  174.0090  140.3710 C   0  0  0  0  0  2  0  0  0  0  0  0
  192.0570  175.1780  145.7610 C   0  0  2  0  0  3  0  0  0  0  0  0
  190.5570  174.1200  142.7960 C   0  0  2  0  0  3  0  0  0  0  0  0
  191.9170  175.4340  144.2520 C   0  0  2  0  0  3  0  0  0  0  0  0
  190.7560  173.6240  141.3430 C   0  0  1  0  0  3  0  0  0  0  0  0
  193.2230  174.2200  146.0410 C   0  0  0  0  0  2  0  0  0  0  0  0
  190.7710  176.2020  143.9670 O   0  0  0  0  0  0  0  0  0  0  0  0
  192.4330  171.8410  143.2910 C   0  0  0  0  0  2  0  0  0  0  0  0
  193.3750  173.1230  144.9810 C   0  0  0  0  0  2  0  0  0  0  0  0
  187.6970  173.6650  141.9590 C   0  0  0  0  0  2  0  0  0  0  0  0
  188.3280  173.2690  140.6320 C   0  0  0  0  0  2  0  0  0  0  0  0
  192.1460  172.9380  144.2120 N   0  0  1  0  0  0  0  0  0  0  0  0
  190.0550  175.5590  142.9330 C   0  0  2  0  0  3  0  0  0  0  0  0
  191.0910  172.1840  141.1920 N   0  0  2  0  0  0  0  0  0  0  0  0
  187.6650  175.1770  142.1010 C   0  0  0  0  0  2  0  0  0  0  0  0
  188.5470  175.6330  143.2600 C   0  0  2  0  0  3  0  0  0  0  0  0
  191.1950  171.4470  142.4730 C   0  0  0  0  0  2  0  0  0  0  0  0
  192.9320  173.3720  140.0050 C   0  0  0  0  0  2  0  0  0  0  0  0
  192.3170  172.0210  140.3840 C   0  0  2  0  0  3  0  0  0  0  0  0
  192.0250  171.2790  139.0800 C   0  0  0  0  0  2  0  0  0  0  0  0
  193.0940  170.4150  137.0020 C   0  0  0  0  0  1  0  0  0  0  0  0
  194.1910  172.1690  138.2730 N   0  0  0  0  0  0  0  0  0  0  0  0
  193.3490  170.9900  138.3790 C   0  0  1  0  0  3  0  0  0  0  0  0
  194.0600  173.2180  139.0170 C   0  0  0  0  0  3  0  0  0  0  0  0
  188.2110  176.9670  143.5780 O   0  0  0  0  0  0  0  0  0  0  0  0
  187.0360  177.0040  144.3700 C   0  0  1  0  0  3  0  0  0  0  0  0
  187.5050  177.4220  146.6490 O   0  0  0  0  0  0  0  0  0  0  0  0
  187.2730  176.5860  145.7920 C   0  0  0  0  0  3  0  0  0  0  0  0
  186.2640  178.3190  144.2610 C   0  0  0  0  0  2  0  0  0  0  0  0
  184.7650  178.0750  144.2120 C   0  0  0  0  0  2  0  0  0  0  0  0
  184.1240  178.8060  145.2120 O   0  0  0  0  0  1  0  0  0  0  0  0
  190.8650  174.6460  146.2890 O   0  0  0  0  0  0  0  0  0  0  0  0
  190.5340  175.3700  147.4540 C   0  0  0  0  0  0  0  0  0  0  0  0
  191.4050  175.0720  148.4890 F   0  0  0  0  0  0  0  0  0  0  0  0
  190.5490  176.7350  147.2090 F   0  0  0  0  0  0  0  0  0  0  0  0
  189.2600  175.0100  147.8480 F   0  0  0  0  0  0  0  0  0  0  0  0
  1 13  1  0  0  0  0
  1  5  1  0  0  0  0
  2 12  1  0  0  0  0
  2  6  1  0  0  0  0
  3  7  1  0  0  0  0
  3 33  1  0  0  0  0
  4 14  1  0  0  0  0
  4  1  1  0  0  0  0
  5  3  1  0  0  0  0
  6  4  1  0  0  0  0
  8  5  1  0  0  0  0
  9 13  1  0  0  0  0
 10  7  1  0  0  0  0
 11 16  1  0  0  0  0
 12 11  1  0  0  0  0
 13 10  1  0  0  0  0
 14 17  1  0  0  0  0
 14  8  1  0  0  0  0
 15  6  1  0  0  0  0
 15 18  1  0  0  0  0
 16 17  1  0  0  0  0
 17 26  1  0  0  0  0
 18  9  1  0  0  0  0
 19 20  1  0  0  0  0
 20 15  1  0  0  0  0
 21 20  1  0  0  0  0
 22 24  1  0  0  0  0
 23 24  1  0  0  0  0
 23 25  2  0  0  0  0
 24 21  1  0  0  0  0
 25 19  1  0  0  0  0
 26 27  1  0  0  0  0
 27 29  1  0  0  0  0
 29 28  2  0  0  0  0
 30 27  1  0  0  0  0
 31 30  1  0  0  0  0
 31 32  1  0  0  0  0
 33 34  1  0  0  0  0
 34 37  1  0  0  0  0
 34 35  1  0  0  0  0
 36 34  1  0  0  0  0
M  END
>  <MODEL>
8

>  <REMARK>
 VINA RESULT:      -6.3      2.883      4.059
  Name = 
  8 active torsions:
  status: ('A' for Active; 'I' for Inactive)
    1  A    between atoms: O_1  and  C_4
    2  A    between atoms: O_1  and  C_27
    3  A    between atoms: C_2  and  O_22
    4  A    between atoms: C_4  and  C_12
    5  A    between atoms: C_4  and  C_37
    6  A    between atoms: C_6  and  O_22
    7  A    between atoms: C_8  and  C_12
    8  A    between atoms: N_23  and  C_30
                            x       y       z     vdW  Elec       q    Type
                         _______ _______ _______ _____ _____    ______ ____

>  <TORSDO>
F 8

$$$$
=
 OpenBabel11112417333D

 37 41  0  0  1  0  0  0  0  0999 V2000
  191.6690  175.2640  144.1290 C   0  0  1  0  0  3  0  0  0  0  0  0
  191.1930  173.7340  140.6750 C   0  0  0  0  0  2  0  0  0  0  0  0
  190.5560  176.8760  145.7720 C   0  0  2  0  0  3  0  0  0  0  0  0
  190.7990  174.7190  143.0430 C   0  0  2  0  0  3  0  0  0  0  0  0
  191.1420  176.6760  144.3660 C   0  0  2  0  0  3  0  0  0  0  0  0
  191.7280  173.9210  142.0950 C   0  0  1  0  0  3  0  0  0  0  0  0
  191.5260  176.3580  146.8420 C   0  0  0  0  0  2  0  0  0  0  0  0
  190.2110  177.0210  143.3680 O   0  0  0  0  0  0  0  0  0  0  0  0
  192.4120  173.2110  145.0650 C   0  0  0  0  0  2  0  0  0  0  0  0
  192.2810  175.0950  146.4160 C   0  0  0  0  0  2  0  0  0  0  0  0
  188.7690  173.3430  141.2920 C   0  0  0  0  0  2  0  0  0  0  0  0
  190.0010  172.7810  140.5970 C   0  0  0  0  0  2  0  0  0  0  0  0
  191.6070  174.4030  145.3190 N   0  0  1  0  0  0  0  0  0  0  0  0
  190.1550  175.9640  142.4320 C   0  0  2  0  0  3  0  0  0  0  0  0
  192.2340  172.6280  142.6250 N   0  0  2  0  0  0  0  0  0  0  0  0
  188.5220  174.7780  140.8580 C   0  0  0  0  0  2  0  0  0  0  0  0
  188.6800  175.7370  142.0360 C   0  0  2  0  0  3  0  0  0  0  0  0
  191.7740  172.3110  143.9970 C   0  0  0  0  0  2  0  0  0  0  0  0
  194.2910  173.8760  141.9760 C   0  0  0  0  0  2  0  0  0  0  0  0
  193.7080  172.5730  142.5330 C   0  0  2  0  0  3  0  0  0  0  0  0
  194.1610  171.4450  141.6060 C   0  0  0  0  0  2  0  0  0  0  0  0
  196.1860  170.3460  140.6560 C   0  0  0  0  0  1  0  0  0  0  0  0
  196.3460  172.6110  141.5190 N   0  0  0  0  0  0  0  0  0  0  0  0
  195.6800  171.3300  141.6900 C   0  0  1  0  0  3  0  0  0  0  0  0
  195.7650  173.7530  141.6900 C   0  0  0  0  0  3  0  0  0  0  0  0
  188.1010  176.9750  141.6830 O   0  0  0  0  0  0  0  0  0  0  0  0
  186.7010  176.9450  141.8980 C   0  0  1  0  0  3  0  0  0  0  0  0
  185.5600  176.7900  143.9630 O   0  0  0  0  0  0  0  0  0  0  0  0
  186.3180  176.2520  143.1740 C   0  0  0  0  0  3  0  0  0  0  0  0
  186.0270  178.3080  141.7400 C   0  0  0  0  0  2  0  0  0  0  0  0
  184.8770  178.2410  140.7490 C   0  0  0  0  0  2  0  0  0  0  0  0
  183.6580  178.1920  141.4250 O   0  0  0  0  0  1  0  0  0  0  0  0
  189.3170  176.2190  145.8940 O   0  0  0  0  0  0  0  0  0  0  0  0
  188.3450  177.1690  146.2730 C   0  0  0  0  0  0  0  0  0  0  0  0
  188.0780  178.0480  145.2350 F   0  0  0  0  0  0  0  0  0  0  0  0
  187.1710  176.5460  146.6700 F   0  0  0  0  0  0  0  0  0  0  0  0
  188.8350  177.8990  147.3380 F   0  0  0  0  0  0  0  0  0  0  0  0
  1  5  1  0  0  0  0
  1 13  1  0  0  0  0
  2  6  1  0  0  0  0
  3 33  1  0  0  0  0
  3  7  1  0  0  0  0
  4  1  1  0  0  0  0
  5  3  1  0  0  0  0
  6 15  1  0  0  0  0
  6  4  1  0  0  0  0
  8  5  1  0  0  0  0
  9 13  1  0  0  0  0
 10  7  1  0  0  0  0
 12  2  1  0  0  0  0
 12 11  1  0  0  0  0
 13 10  1  0  0  0  0
 14  4  1  0  0  0  0
 14  8  1  0  0  0  0
 15 18  1  0  0  0  0
 16 11  1  0  0  0  0
 16 17  1  0  0  0  0
 17 14  1  0  0  0  0
 18  9  1  0  0  0  0
 19 20  1  0  0  0  0
 20 15  1  0  0  0  0
 21 24  1  0  0  0  0
 21 20  1  0  0  0  0
 22 24  1  0  0  0  0
 23 25  2  0  0  0  0
 23 24  1  0  0  0  0
 25 19  1  0  0  0  0
 26 27  1  0  0  0  0
 26 17  1  0  0  0  0
 27 29  1  0  0  0  0
 29 28  2  0  0  0  0
 30 27  1  0  0  0  0
 31 32  1  0  0  0  0
 31 30  1  0  0  0  0
 33 34  1  0  0  0  0
 34 36  1  0  0  0  0
 34 37  1  0  0  0  0
 35 34  1  0  0  0  0
M  END
>  <MODEL>
9

>  <REMARK>
 VINA RESULT:      -6.3      1.688      2.147
  Name = 
  8 active torsions:
  status: ('A' for Active; 'I' for Inactive)
    1  A    between atoms: O_1  and  C_4
    2  A    between atoms: O_1  and  C_27
    3  A    between atoms: C_2  and  O_22
    4  A    between atoms: C_4  and  C_12
    5  A    between atoms: C_4  and  C_37
    6  A    between atoms: C_6  and  O_22
    7  A    between atoms: C_8  and  C_12
    8  A    between atoms: N_23  and  C_30
                            x       y       z     vdW  Elec       q    Type
                         _______ _______ _______ _____ _____    ______ ____

>  <TORSDO>
F 8

$$$$
