=
 OpenBabel11112416163D

 30 36  0  0  1  0  0  0  0  0999 V2000
  187.0720  176.9620  143.8950 C   0  0  1  0  0  3  0  0  0  0  0  0
  185.2400  178.4200  142.7970 C   0  0  0  0  0  0  0  0  0  0  0  0
  188.0420  175.2840  139.9910 C   0  0  0  0  0  2  0  0  0  0  0  0
  188.3170  176.0690  143.6290 C   0  0  1  0  0  3  0  0  0  0  0  0
  187.4900  177.9960  144.9320 C   0  0  0  0  0  2  0  0  0  0  0  0
  188.9780  175.5720  147.2410 O   0  0  0  0  0  0  0  0  0  0  0  0
  189.6890  173.1260  144.1240 C   0  0  1  0  0  3  0  0  0  0  0  0
  188.5450  176.0720  146.1660 C   0  0  0  0  0  0  0  0  0  0  0  0
  189.6820  173.1320  142.5960 C   0  0  2  0  0  3  0  0  0  0  0  0
  189.1010  174.3890  140.5090 C   0  0  0  0  0  0  0  0  0  0  0  0
  187.8800  177.3490  146.1850 N   0  0  0  0  0  0  0  0  0  0  0  0
  188.6150  175.2540  144.8960 C   0  0  2  0  0  3  0  0  0  0  0  0
  184.2400  178.4430  141.6680 C   0  0  0  0  0  2  0  0  0  0  0  0
  191.1010  172.7890  142.1960 C   0  0  0  0  0  2  0  0  0  0  0  0
  190.7900  172.1560  144.5240 C   0  0  0  0  0  2  0  0  0  0  0  0
  184.9920  179.0250  143.8280 O   0  0  0  0  0  0  0  0  0  0  0  0
  187.7850  176.1020  141.2320 C   0  0  2  0  0  3  0  0  0  0  0  0
  184.9420  178.2200  140.3500 C   0  0  0  0  0  3  0  0  0  0  0  0
  186.5520  177.6780  142.6230 C   0  0  2  0  0  3  0  0  0  0  0  0
  188.0740  175.1750  142.4010 C   0  0  1  0  0  3  0  0  0  0  0  0
  189.8100  173.6710  139.7550 O   0  0  0  0  0  0  0  0  0  0  0  0
  189.1990  174.3580  141.9390 N   0  0  0  0  0  0  0  0  0  0  0  0
  191.5920  171.8430  143.2700 C   0  0  0  0  0  2  0  0  0  0  0  0
  191.1080  175.2760  144.2960 C   0  0  0  0  0  1  0  0  0  0  0  0
  185.9530  177.4210  140.2660 N   0  0  0  0  0  0  0  0  0  0  0  0
  186.4200  176.7070  141.4370 C   0  0  1  0  0  3  0  0  0  0  0  0
  189.9170  174.4690  144.8130 C   0  0  2  0  0  3  0  0  0  0  0  0
  187.3870  177.9070  147.4450 C   0  0  0  0  0  3  0  0  0  0  0  0
  186.0040  177.3590  147.7690 C   0  0  0  0  0  2  0  0  0  0  0  0
  186.1450  178.7480  147.1930 C   0  0  0  0  0  2  0  0  0  0  0  0
  1  5  1  1  0  0  0
  2 16  2  0  0  0  0
  3 10  1  0  0  0  0
  3 17  1  0  0  0  0
  4  1  1  0  0  0  0
  4 12  1  0  0  0  0
  5 11  1  0  0  0  0
  7 15  1  0  0  0  0
  7 27  1  0  0  0  0
  8 11  1  0  0  0  0
  8  6  2  0  0  0  0
  9  7  1  0  0  0  0
 10 22  1  0  0  0  0
 11 28  1  0  0  0  0
 12  8  1  0  0  0  0
 13  2  1  0  0  0  0
 14  9  1  0  0  0  0
 14 23  1  0  0  0  0
 17 26  1  0  0  0  0
 17 20  1  0  0  0  0
 18 13  1  0  0  0  0
 19  2  1  0  0  0  0
 19  1  1  0  0  0  0
 20  4  1  0  0  0  0
 21 10  2  0  0  0  0
 22 20  1  0  0  0  0
 22  9  1  0  0  0  0
 23 15  1  0  0  0  0
 24 27  1  0  0  0  0
 25 18  2  0  0  0  0
 25 26  1  0  0  0  0
 26 19  1  0  0  0  0
 27 12  1  0  0  0  0
 28 29  1  0  0  0  0
 30 28  1  0  0  0  0
 30 29  1  0  0  0  0
M  END
>  <MODEL>
1

>  <REMARK>
 VINA RESULT:      -8.0      0.000      0.000
  Name = 
  1 active torsions:
  status: ('A' for Active; 'I' for Inactive)
    1  A    between atoms: N_11  and  C_28
                            x       y       z     vdW  Elec       q    Type
                         _______ _______ _______ _____ _____    ______ ____

>  <TORSDO>
F 1

$$$$
=
 OpenBabel11112416163D

 30 36  0  0  1  0  0  0  0  0999 V2000
  188.0380  176.5170  144.8750 C   0  0  1  0  0  3  0  0  0  0  0  0
  186.5110  178.3280  145.9110 C   0  0  0  0  0  0  0  0  0  0  0  0
  186.3620  177.3870  140.9470 C   0  0  0  0  0  2  0  0  0  0  0  0
  188.6160  175.9460  143.5490 C   0  0  1  0  0  3  0  0  0  0  0  0
  189.2240  176.7720  145.7950 C   0  0  0  0  0  2  0  0  0  0  0  0
  190.7410  173.4730  145.3100 O   0  0  0  0  0  0  0  0  0  0  0  0
  188.9830  173.2610  141.6940 C   0  0  1  0  0  3  0  0  0  0  0  0
  190.0350  174.4960  145.0880 C   0  0  0  0  0  0  0  0  0  0  0  0
  188.2360  174.1420  140.6940 C   0  0  2  0  0  3  0  0  0  0  0  0
  187.1710  176.3640  140.2460 C   0  0  0  0  0  0  0  0  0  0  0  0
  189.9320  175.5270  146.0890 N   0  0  0  0  0  0  0  0  0  0  0  0
  189.2010  174.5540  143.8290 C   0  0  2  0  0  3  0  0  0  0  0  0
  185.1620  178.9880  145.7670 C   0  0  0  0  0  2  0  0  0  0  0  0
  189.0740  174.1000  139.4330 C   0  0  0  0  0  2  0  0  0  0  0  0
  189.7430  172.2450  140.8560 C   0  0  0  0  0  2  0  0  0  0  0  0
  187.0130  178.2310  147.0200 O   0  0  0  0  0  0  0  0  0  0  0  0
  187.0320  177.3440  142.2980 C   0  0  2  0  0  3  0  0  0  0  0  0
  185.0130  179.5660  144.3810 C   0  0  0  0  0  3  0  0  0  0  0  0
  187.2380  177.8290  144.6770 C   0  0  2  0  0  3  0  0  0  0  0  0
  187.5240  175.9160  142.4650 C   0  0  1  0  0  3  0  0  0  0  0  0
  187.1380  176.2140  138.9960 O   0  0  0  0  0  0  0  0  0  0  0  0
  187.9360  175.5200  141.1160 N   0  0  0  0  0  0  0  0  0  0  0  0
  189.6770  172.7120  139.4110 C   0  0  0  0  0  2  0  0  0  0  0  0
  190.9300  174.9330  141.9730 C   0  0  0  0  0  1  0  0  0  0  0  0
  185.5220  178.9660  143.3560 N   0  0  0  0  0  0  0  0  0  0  0  0
  186.2300  177.7130  143.5200 C   0  0  1  0  0  3  0  0  0  0  0  0
  189.9500  173.9670  142.6400 C   0  0  2  0  0  3  0  0  0  0  0  0
  190.3330  175.2580  147.4710 C   0  0  0  0  0  3  0  0  0  0  0  0
  191.1140  176.4330  148.0410 C   0  0  0  0  0  2  0  0  0  0  0  0
  191.8490  175.2000  147.5730 C   0  0  0  0  0  2  0  0  0  0  0  0
  1  5  1  1  0  0  0
  2 16  2  0  0  0  0
  3 17  1  0  0  0  0
  4 12  1  0  0  0  0
  4  1  1  0  0  0  0
  5 11  1  0  0  0  0
  7 27  1  0  0  0  0
  8  6  2  0  0  0  0
  8 11  1  0  0  0  0
  9 22  1  0  0  0  0
  9  7  1  0  0  0  0
 10  3  1  0  0  0  0
 10 22  1  0  0  0  0
 11 28  1  0  0  0  0
 12  8  1  0  0  0  0
 13  2  1  0  0  0  0
 14  9  1  0  0  0  0
 15  7  1  0  0  0  0
 17 20  1  0  0  0  0
 17 26  1  0  0  0  0
 18 13  1  0  0  0  0
 19  1  1  0  0  0  0
 19  2  1  0  0  0  0
 20  4  1  0  0  0  0
 21 10  2  0  0  0  0
 22 20  1  0  0  0  0
 23 14  1  0  0  0  0
 23 15  1  0  0  0  0
 24 27  1  0  0  0  0
 25 26  1  0  0  0  0
 25 18  2  0  0  0  0
 26 19  1  0  0  0  0
 27 12  1  0  0  0  0
 28 30  1  0  0  0  0
 28 29  1  0  0  0  0
 30 29  1  0  0  0  0
M  END
>  <MODEL>
2

>  <REMARK>
 VINA RESULT:      -7.9      2.015      3.242
  Name = 
  1 active torsions:
  status: ('A' for Active; 'I' for Inactive)
    1  A    between atoms: N_11  and  C_28
                            x       y       z     vdW  Elec       q    Type
                         _______ _______ _______ _____ _____    ______ ____

>  <TORSDO>
F 1

$$$$
=
 OpenBabel11112416163D

 30 36  0  0  1  0  0  0  0  0999 V2000
  188.7220  175.3550  141.6750 C   0  0  1  0  0  3  0  0  0  0  0  0
  187.0580  176.4410  140.0200 C   0  0  0  0  0  0  0  0  0  0  0  0
  187.1340  177.8530  144.8740 C   0  0  0  0  0  2  0  0  0  0  0  0
  189.0800  175.1590  143.1760 C   0  0  1  0  0  3  0  0  0  0  0  0
  188.6710  173.9650  141.0540 C   0  0  0  0  0  2  0  0  0  0  0  0
  191.8940  172.8730  142.4100 O   0  0  0  0  0  0  0  0  0  0  0  0
  191.4220  175.4600  145.4580 C   0  0  1  0  0  3  0  0  0  0  0  0
  190.8230  173.5290  142.2860 C   0  0  0  0  0  0  0  0  0  0  0  0
  190.3560  176.3550  146.0900 C   0  0  2  0  0  3  0  0  0  0  0  0
  188.0520  177.3190  145.9050 C   0  0  0  0  0  0  0  0  0  0  0  0
  189.9740  173.3060  141.1430 N   0  0  0  0  0  0  0  0  0  0  0  0
  190.5200  174.6350  143.2720 C   0  0  2  0  0  3  0  0  0  0  0  0
  186.3340  177.7290  139.7180 C   0  0  0  0  0  2  0  0  0  0  0  0
  190.2150  175.8520  147.5110 C   0  0  0  0  0  2  0  0  0  0  0  0
  192.3080  175.0060  146.6070 C   0  0  0  0  0  2  0  0  0  0  0  0
  187.3610  175.6950  139.1020 O   0  0  0  0  0  0  0  0  0  0  0  0
  187.4320  176.8840  143.7570 C   0  0  2  0  0  3  0  0  0  0  0  0
  185.5230  178.1610  140.9150 C   0  0  0  0  0  3  0  0  0  0  0  0
  187.3660  176.0730  141.4600 C   0  0  2  0  0  3  0  0  0  0  0  0
  188.8840  176.4780  143.9420 C   0  0  1  0  0  3  0  0  0  0  0  0
  187.9870  177.6650  147.1140 O   0  0  0  0  0  0  0  0  0  0  0  0
  189.0610  176.4360  145.3960 N   0  0  0  0  0  0  0  0  0  0  0  0
  191.5990  175.3820  147.8990 C   0  0  0  0  0  2  0  0  0  0  0  0
  189.8950  173.3790  145.4190 C   0  0  0  0  0  1  0  0  0  0  0  0
  185.9590  177.9630  142.1150 N   0  0  0  0  0  0  0  0  0  0  0  0
  187.2460  177.3360  142.3310 C   0  0  1  0  0  3  0  0  0  0  0  0
  190.9230  174.2410  144.6860 C   0  0  2  0  0  3  0  0  0  0  0  0
  190.4890  172.6070  139.9650 C   0  0  0  0  0  3  0  0  0  0  0  0
  191.2710  173.5610  139.0740 C   0  0  0  0  0  2  0  0  0  0  0  0
  189.8590  173.1750  138.7040 C   0  0  0  0  0  2  0  0  0  0  0  0
  1  5  1  6  0  0  0
  1  4  1  0  0  0  0
  2 19  1  0  0  0  0
  3 10  1  0  0  0  0
  4 12  1  0  0  0  0
  4 20  1  0  0  0  0
  5 11  1  0  0  0  0
  7  9  1  0  0  0  0
  7 15  1  0  0  0  0
  8  6  2  0  0  0  0
  8 12  1  0  0  0  0
  9 14  1  0  0  0  0
 10 21  2  0  0  0  0
 11  8  1  0  0  0  0
 12 27  1  0  0  0  0
 13  2  1  0  0  0  0
 13 18  1  0  0  0  0
 14 23  1  0  0  0  0
 15 23  1  0  0  0  0
 16  2  2  0  0  0  0
 17 20  1  0  0  0  0
 17  3  1  0  0  0  0
 18 25  2  0  0  0  0
 19  1  1  0  0  0  0
 19 26  1  0  0  0  0
 20 22  1  0  0  0  0
 22 10  1  0  0  0  0
 22  9  1  0  0  0  0
 25 26  1  0  0  0  0
 26 17  1  0  0  0  0
 27 24  1  0  0  0  0
 27  7  1  0  0  0  0
 28 11  1  0  0  0  0
 29 28  1  0  0  0  0
 30 29  1  0  0  0  0
 30 28  1  0  0  0  0
M  END
>  <MODEL>
3

>  <REMARK>
 VINA RESULT:      -7.8      1.838      5.368
  Name = 
  1 active torsions:
  status: ('A' for Active; 'I' for Inactive)
    1  A    between atoms: N_11  and  C_28
                            x       y       z     vdW  Elec       q    Type
                         _______ _______ _______ _____ _____    ______ ____

>  <TORSDO>
F 1

$$$$
=
 OpenBabel11112416163D

 30 36  0  0  1  0  0  0  0  0999 V2000
  189.8070  175.4290  144.1530 C   0  0  1  0  0  3  0  0  0  0  0  0
  191.5090  173.9600  142.8750 C   0  0  0  0  0  0  0  0  0  0  0  0
  187.5510  175.9810  140.4650 C   0  0  0  0  0  2  0  0  0  0  0  0
  188.3990  176.0850  144.0980 C   0  0  1  0  0  3  0  0  0  0  0  0
  189.8710  174.6410  145.4540 C   0  0  0  0  0  2  0  0  0  0  0  0
  188.6470  177.3750  147.5630 O   0  0  0  0  0  0  0  0  0  0  0  0
  186.7090  178.8880  144.3750 C   0  0  1  0  0  3  0  0  0  0  0  0
  188.8590  176.6790  146.5320 C   0  0  0  0  0  0  0  0  0  0  0  0
  186.3100  178.5080  142.9500 C   0  0  2  0  0  3  0  0  0  0  0  0
  186.5270  176.8510  141.0840 C   0  0  0  0  0  0  0  0  0  0  0  0
  189.7210  175.5270  146.6080 N   0  0  0  0  0  0  0  0  0  0  0  0
  188.3100  177.1470  145.2030 C   0  0  2  0  0  3  0  0  0  0  0  0
  192.1590  173.7720  141.5270 C   0  0  0  0  0  2  0  0  0  0  0  0
  184.7980  178.5830  142.9330 C   0  0  0  0  0  2  0  0  0  0  0  0
  185.6010  179.7970  144.8820 C   0  0  0  0  0  2  0  0  0  0  0  0
  192.1260  173.6570  143.8840 O   0  0  0  0  0  0  0  0  0  0  0  0
  188.2700  175.5260  141.7110 C   0  0  2  0  0  3  0  0  0  0  0  0
  191.1040  173.5850  140.4640 C   0  0  0  0  0  3  0  0  0  0  0  0
  190.0880  174.4850  142.9560 C   0  0  2  0  0  3  0  0  0  0  0  0
  188.1430  176.6720  142.6990 C   0  0  1  0  0  3  0  0  0  0  0  0
  185.5280  177.2790  140.4490 O   0  0  0  0  0  0  0  0  0  0  0  0
  186.8090  177.2210  142.4400 N   0  0  0  0  0  0  0  0  0  0  0  0
  184.4510  179.7030  143.8910 C   0  0  0  0  0  2  0  0  0  0  0  0
  185.7910  176.7020  145.3970 C   0  0  0  0  0  1  0  0  0  0  0  0
  189.9820  174.2230  140.5270 N   0  0  0  0  0  0  0  0  0  0  0  0
  189.7250  175.1440  141.6140 C   0  0  1  0  0  3  0  0  0  0  0  0
  186.9150  177.7380  145.3580 C   0  0  2  0  0  3  0  0  0  0  0  0
  190.6230  175.3530  147.7480 C   0  0  0  0  0  3  0  0  0  0  0  0
  191.7150  176.4120  147.7340 C   0  0  0  0  0  2  0  0  0  0  0  0
  192.0210  175.0110  147.2600 C   0  0  0  0  0  2  0  0  0  0  0  0
  1  5  1  1  0  0  0
  2 19  1  0  0  0  0
  2 16  2  0  0  0  0
  3 10  1  0  0  0  0
  3 17  1  0  0  0  0
  4  1  1  0  0  0  0
  4 12  1  0  0  0  0
  5 11  1  0  0  0  0
  7 15  1  0  0  0  0
  7 27  1  0  0  0  0
  8 11  1  0  0  0  0
  8  6  2  0  0  0  0
  9  7  1  0  0  0  0
 10 22  1  0  0  0  0
 11 28  1  0  0  0  0
 12 27  1  0  0  0  0
 12  8  1  0  0  0  0
 13  2  1  0  0  0  0
 14  9  1  0  0  0  0
 14 23  1  0  0  0  0
 17 20  1  0  0  0  0
 18 25  2  0  0  0  0
 18 13  1  0  0  0  0
 19  1  1  0  0  0  0
 20  4  1  0  0  0  0
 21 10  2  0  0  0  0
 22 20  1  0  0  0  0
 22  9  1  0  0  0  0
 23 15  1  0  0  0  0
 25 26  1  0  0  0  0
 26 17  1  0  0  0  0
 26 19  1  0  0  0  0
 27 24  1  0  0  0  0
 29 28  1  0  0  0  0
 30 29  1  0  0  0  0
 30 28  1  0  0  0  0
M  END
>  <MODEL>
4

>  <REMARK>
 VINA RESULT:      -7.7      2.015      5.646
  Name = 
  1 active torsions:
  status: ('A' for Active; 'I' for Inactive)
    1  A    between atoms: N_11  and  C_28
                            x       y       z     vdW  Elec       q    Type
                         _______ _______ _______ _____ _____    ______ ____

>  <TORSDO>
F 1

$$$$
=
 OpenBabel11112416163D

 30 36  0  0  1  0  0  0  0  0999 V2000
  186.4560  177.5550  143.8580 C   0  0  1  0  0  3  0  0  0  0  0  0
  185.3220  178.8870  145.7620 C   0  0  0  0  0  0  0  0  0  0  0  0
  188.8480  175.4190  146.8090 C   0  0  0  0  0  2  0  0  0  0  0  0
  187.3350  176.3180  143.5180 C   0  0  1  0  0  3  0  0  0  0  0  0
  185.2190  177.4670  142.9750 C   0  0  0  0  0  2  0  0  0  0  0  0
  187.0660  176.8820  139.8660 O   0  0  0  0  0  0  0  0  0  0  0  0
  190.0620  175.2690  142.0180 C   0  0  1  0  0  3  0  0  0  0  0  0
  186.8120  176.9270  141.1010 C   0  0  0  0  0  0  0  0  0  0  0  0
  190.3640  174.7790  143.4330 C   0  0  2  0  0  3  0  0  0  0  0  0
  189.5780  174.6130  145.8050 C   0  0  0  0  0  0  0  0  0  0  0  0
  185.5840  177.5250  141.5600 N   0  0  0  0  0  0  0  0  0  0  0  0
  187.8660  176.4730  142.0860 C   0  0  2  0  0  3  0  0  0  0  0  0
  185.5660  179.4640  147.1350 C   0  0  0  0  0  2  0  0  0  0  0  0
  190.7260  173.3170  143.2730 C   0  0  0  0  0  2  0  0  0  0  0  0
  190.8870  174.3870  141.0950 C   0  0  0  0  0  2  0  0  0  0  0  0
  184.5310  179.4390  145.0140 O   0  0  0  0  0  0  0  0  0  0  0  0
  187.8080  176.0410  145.9120 C   0  0  2  0  0  3  0  0  0  0  0  0
  186.0230  178.3790  148.0800 C   0  0  0  0  0  3  0  0  0  0  0  0
  186.0320  177.6120  145.3470 C   0  0  2  0  0  3  0  0  0  0  0  0
  188.4680  176.1750  144.5500 C   0  0  1  0  0  3  0  0  0  0  0  0
  190.4050  173.7190  146.1270 O   0  0  0  0  0  0  0  0  0  0  0  0
  189.3160  174.9850  144.4460 N   0  0  0  0  0  0  0  0  0  0  0  0
  191.4160  173.2300  141.9290 C   0  0  0  0  0  2  0  0  0  0  0  0
  187.8680  173.9200  141.8360 C   0  0  0  0  0  1  0  0  0  0  0  0
  186.7830  177.4200  147.6670 N   0  0  0  0  0  0  0  0  0  0  0  0
  187.2270  177.3800  146.2890 C   0  0  1  0  0  3  0  0  0  0  0  0
  188.6000  175.2380  141.5800 C   0  0  2  0  0  3  0  0  0  0  0  0
  184.8020  178.3840  140.6680 C   0  0  0  0  0  3  0  0  0  0  0  0
  183.3210  178.3020  141.0080 C   0  0  0  0  0  2  0  0  0  0  0  0
  183.8630  177.5410  139.8210 C   0  0  0  0  0  2  0  0  0  0  0  0
  1  5  1  6  0  0  0
  1 19  1  0  0  0  0
  2 13  1  0  0  0  0
  4  1  1  0  0  0  0
  4 20  1  0  0  0  0
  6  8  2  0  0  0  0
  7  9  1  0  0  0  0
  8 11  1  0  0  0  0
  8 12  1  0  0  0  0
  9 22  1  0  0  0  0
 10 21  2  0  0  0  0
 10  3  1  0  0  0  0
 11  5  1  0  0  0  0
 12  4  1  0  0  0  0
 13 18  1  0  0  0  0
 14  9  1  0  0  0  0
 15 23  1  0  0  0  0
 15  7  1  0  0  0  0
 16  2  2  0  0  0  0
 17 26  1  0  0  0  0
 17  3  1  0  0  0  0
 19  2  1  0  0  0  0
 19 26  1  0  0  0  0
 20 17  1  0  0  0  0
 22 20  1  0  0  0  0
 22 10  1  0  0  0  0
 23 14  1  0  0  0  0
 25 18  2  0  0  0  0
 26 25  1  0  0  0  0
 27 24  1  0  0  0  0
 27  7  1  0  0  0  0
 27 12  1  0  0  0  0
 28 29  1  0  0  0  0
 28 11  1  0  0  0  0
 30 28  1  0  0  0  0
 30 29  1  0  0  0  0
M  END
>  <MODEL>
5

>  <REMARK>
 VINA RESULT:      -7.7      1.540      4.878
  Name = 
  1 active torsions:
  status: ('A' for Active; 'I' for Inactive)
    1  A    between atoms: N_11  and  C_28
                            x       y       z     vdW  Elec       q    Type
                         _______ _______ _______ _____ _____    ______ ____

>  <TORSDO>
F 1

$$$$
=
 OpenBabel11112416163D

 30 36  0  0  1  0  0  0  0  0999 V2000
  188.6740  176.0840  143.3390 C   0  0  1  0  0  3  0  0  0  0  0  0
  186.2720  177.0340  143.4610 C   0  0  0  0  0  0  0  0  0  0  0  0
  189.4290  177.5410  147.3770 C   0  0  0  0  0  2  0  0  0  0  0  0
  189.9390  175.7120  144.1640 C   0  0  1  0  0  3  0  0  0  0  0  0
  188.3100  174.8530  142.5190 C   0  0  0  0  0  2  0  0  0  0  0  0
  191.6900  174.3080  141.2150 O   0  0  0  0  0  0  0  0  0  0  0  0
  193.1810  176.1340  144.4790 C   0  0  1  0  0  3  0  0  0  0  0  0
  190.7630  174.7120  141.9710 C   0  0  0  0  0  0  0  0  0  0  0  0
  192.7400  176.6330  145.8540 C   0  0  2  0  0  3  0  0  0  0  0  0
  190.8270  177.0580  147.4150 C   0  0  0  0  0  0  0  0  0  0  0  0
  189.3880  174.5070  141.5930 N   0  0  0  0  0  0  0  0  0  0  0  0
  191.1160  175.5250  143.1960 C   0  0  2  0  0  3  0  0  0  0  0  0
  185.4520  178.1540  144.0530 C   0  0  0  0  0  2  0  0  0  0  0  0
  193.5950  175.8660  146.8410 C   0  0  0  0  0  2  0  0  0  0  0  0
  194.6280  175.6990  144.6460 C   0  0  0  0  0  2  0  0  0  0  0  0
  185.9410  176.5540  142.3880 O   0  0  0  0  0  0  0  0  0  0  0  0
  188.9780  176.8800  146.0980 C   0  0  2  0  0  3  0  0  0  0  0  0
  185.6020  178.1680  145.5550 C   0  0  0  0  0  3  0  0  0  0  0  0
  187.4690  176.4970  144.2220 C   0  0  2  0  0  3  0  0  0  0  0  0
  190.2160  176.7930  145.2220 C   0  0  1  0  0  3  0  0  0  0  0  0
  191.5510  177.1590  148.4410 O   0  0  0  0  0  0  0  0  0  0  0  0
  191.3050  176.5350  146.1680 N   0  0  0  0  0  0  0  0  0  0  0  0
  194.9200  175.6660  146.1380 C   0  0  0  0  0  2  0  0  0  0  0  0
  192.1290  173.7980  144.7990 C   0  0  0  0  0  1  0  0  0  0  0  0
  186.7280  177.8650  146.1090 N   0  0  0  0  0  0  0  0  0  0  0  0
  187.8760  177.5230  145.2950 C   0  0  1  0  0  3  0  0  0  0  0  0
  192.3710  174.9900  143.8730 C   0  0  2  0  0  3  0  0  0  0  0  0
  189.0440  174.1650  140.2120 C   0  0  0  0  0  3  0  0  0  0  0  0
  188.1910  172.9050  140.1680 C   0  0  0  0  0  2  0  0  0  0  0  0
  189.6620  172.8270  139.8360 C   0  0  0  0  0  2  0  0  0  0  0  0
  1  5  1  1  0  0  0
  1  4  1  0  0  0  0
  1 19  1  0  0  0  0
  2 13  1  0  0  0  0
  2 19  1  0  0  0  0
  3 10  1  0  0  0  0
  4 20  1  0  0  0  0
  6  8  2  0  0  0  0
  7 15  1  0  0  0  0
  7  9  1  0  0  0  0
  8 12  1  0  0  0  0
  9 22  1  0  0  0  0
  9 14  1  0  0  0  0
 10 21  2  0  0  0  0
 11  8  1  0  0  0  0
 11  5  1  0  0  0  0
 12 27  1  0  0  0  0
 12  4  1  0  0  0  0
 13 18  1  0  0  0  0
 15 23  1  0  0  0  0
 16  2  2  0  0  0  0
 17  3  1  0  0  0  0
 18 25  2  0  0  0  0
 19 26  1  0  0  0  0
 20 17  1  0  0  0  0
 20 22  1  0  0  0  0
 22 10  1  0  0  0  0
 23 14  1  0  0  0  0
 26 17  1  0  0  0  0
 26 25  1  0  0  0  0
 27  7  1  0  0  0  0
 27 24  1  0  0  0  0
 28 11  1  0  0  0  0
 29 28  1  0  0  0  0
 30 29  1  0  0  0  0
 30 28  1  0  0  0  0
M  END
>  <MODEL>
6

>  <REMARK>
 VINA RESULT:      -7.7      2.147      5.573
  Name = 
  1 active torsions:
  status: ('A' for Active; 'I' for Inactive)
    1  A    between atoms: N_11  and  C_28
                            x       y       z     vdW  Elec       q    Type
                         _______ _______ _______ _____ _____    ______ ____

>  <TORSDO>
F 1

$$$$
=
 OpenBabel11112416163D

 30 36  0  0  1  0  0  0  0  0999 V2000
  188.4540  176.1050  143.9360 C   0  0  1  0  0  3  0  0  0  0  0  0
  187.0340  178.0310  144.9150 C   0  0  0  0  0  0  0  0  0  0  0  0
  186.7350  176.8670  140.0050 C   0  0  0  0  0  2  0  0  0  0  0  0
  188.9770  175.4470  142.6280 C   0  0  1  0  0  3  0  0  0  0  0  0
  189.6710  176.3480  144.8190 C   0  0  0  0  0  2  0  0  0  0  0  0
  191.0260  172.9630  144.4620 O   0  0  0  0  0  0  0  0  0  0  0  0
  189.1820  172.6640  140.8960 C   0  0  1  0  0  3  0  0  0  0  0  0
  190.3620  174.0060  144.2060 C   0  0  0  0  0  0  0  0  0  0  0  0
  188.4540  173.5310  139.8700 C   0  0  2  0  0  3  0  0  0  0  0  0
  187.4810  175.7770  139.3380 C   0  0  0  0  0  0  0  0  0  0  0  0
  190.3290  175.0870  145.1590 N   0  0  0  0  0  0  0  0  0  0  0  0
  189.5040  174.0440  142.9620 C   0  0  2  0  0  3  0  0  0  0  0  0
  185.7130  178.7450  144.7660 C   0  0  0  0  0  2  0  0  0  0  0  0
  189.2610  173.3910  138.5960 C   0  0  0  0  0  2  0  0  0  0  0  0
  189.8770  171.5760  140.0930 C   0  0  0  0  0  2  0  0  0  0  0  0
  187.5560  177.9630  146.0170 O   0  0  0  0  0  0  0  0  0  0  0  0
  187.4310  176.8560  141.3430 C   0  0  2  0  0  3  0  0  0  0  0  0
  185.5610  179.2640  143.3560 C   0  0  0  0  0  3  0  0  0  0  0  0
  187.7110  177.4430  143.6910 C   0  0  2  0  0  3  0  0  0  0  0  0
  187.8620  175.4170  141.5690 C   0  0  1  0  0  3  0  0  0  0  0  0
  187.4130  175.5700  138.0980 O   0  0  0  0  0  0  0  0  0  0  0  0
  188.2260  174.9390  140.2320 N   0  0  0  0  0  0  0  0  0  0  0  0
  189.8000  171.9780  138.6280 C   0  0  0  0  0  2  0  0  0  0  0  0
  191.2080  174.2560  141.0570 C   0  0  0  0  0  1  0  0  0  0  0  0
  186.0200  178.5940  142.3520 N   0  0  0  0  0  0  0  0  0  0  0  0
  186.6740  177.3190  142.5620 C   0  0  1  0  0  3  0  0  0  0  0  0
  190.2010  173.3680  141.7880 C   0  0  2  0  0  3  0  0  0  0  0  0
  190.7470  174.8650  146.5440 C   0  0  0  0  0  3  0  0  0  0  0  0
  189.5380  174.8010  147.4660 C   0  0  0  0  0  2  0  0  0  0  0  0
  190.3670  176.0610  147.4020 C   0  0  0  0  0  2  0  0  0  0  0  0
  1  5  1  1  0  0  0
  2 16  2  0  0  0  0
  3 17  1  0  0  0  0
  4 12  1  0  0  0  0
  4  1  1  0  0  0  0
  5 11  1  0  0  0  0
  7 27  1  0  0  0  0
  8  6  2  0  0  0  0
  8 11  1  0  0  0  0
  9 22  1  0  0  0  0
  9  7  1  0  0  0  0
 10  3  1  0  0  0  0
 10 22  1  0  0  0  0
 11 28  1  0  0  0  0
 12  8  1  0  0  0  0
 13  2  1  0  0  0  0
 14 23  1  0  0  0  0
 14  9  1  0  0  0  0
 15  7  1  0  0  0  0
 17 20  1  0  0  0  0
 17 26  1  0  0  0  0
 18 13  1  0  0  0  0
 19  1  1  0  0  0  0
 19  2  1  0  0  0  0
 20  4  1  0  0  0  0
 21 10  2  0  0  0  0
 22 20  1  0  0  0  0
 23 15  1  0  0  0  0
 24 27  1  0  0  0  0
 25 26  1  0  0  0  0
 25 18  2  0  0  0  0
 26 19  1  0  0  0  0
 27 12  1  0  0  0  0
 28 30  1  0  0  0  0
 28 29  1  0  0  0  0
 30 29  1  0  0  0  0
M  END
>  <MODEL>
7

>  <REMARK>
 VINA RESULT:      -7.6      2.014      3.218
  Name = 
  1 active torsions:
  status: ('A' for Active; 'I' for Inactive)
    1  A    between atoms: N_11  and  C_28
                            x       y       z     vdW  Elec       q    Type
                         _______ _______ _______ _____ _____    ______ ____

>  <TORSDO>
F 1

$$$$
=
 OpenBabel11112416163D

 30 36  0  0  1  0  0  0  0  0999 V2000
  190.7650  174.9180  143.7710 C   0  0  1  0  0  3  0  0  0  0  0  0
  193.1760  173.9870  143.8520 C   0  0  0  0  0  0  0  0  0  0  0  0
  191.4550  176.9680  147.5550 C   0  0  0  0  0  2  0  0  0  0  0  0
  189.7830  175.9620  144.3730 C   0  0  1  0  0  3  0  0  0  0  0  0
  190.7220  175.0990  142.2590 C   0  0  0  0  0  2  0  0  0  0  0  0
  187.0660  175.0570  142.0210 O   0  0  0  0  0  0  0  0  0  0  0  0
  186.8620  176.4160  145.8050 C   0  0  1  0  0  3  0  0  0  0  0  0
  188.2190  175.1850  142.5190 C   0  0  0  0  0  0  0  0  0  0  0  0
  187.7570  177.0030  146.8960 C   0  0  2  0  0  3  0  0  0  0  0  0
  190.0920  177.5410  147.6260 C   0  0  0  0  0  0  0  0  0  0  0  0
  189.3800  174.8340  141.7410 N   0  0  0  0  0  0  0  0  0  0  0  0
  188.3520  175.5760  143.9740 C   0  0  2  0  0  3  0  0  0  0  0  0
  194.2550  173.5300  144.8020 C   0  0  0  0  0  2  0  0  0  0  0  0
  187.1700  178.3670  147.1930 C   0  0  0  0  0  2  0  0  0  0  0  0
  185.4990  177.0570  146.0060 C   0  0  0  0  0  2  0  0  0  0  0  0
  193.1050  173.4850  142.7420 O   0  0  0  0  0  0  0  0  0  0  0  0
  191.4150  176.4200  146.1500 C   0  0  2  0  0  3  0  0  0  0  0  0
  194.5780  174.6270  145.7870 C   0  0  0  0  0  3  0  0  0  0  0  0
  192.2200  175.0870  144.2750 C   0  0  2  0  0  3  0  0  0  0  0  0
  189.9650  176.0410  145.8980 C   0  0  1  0  0  3  0  0  0  0  0  0
  189.7350  178.3270  148.5430 O   0  0  0  0  0  0  0  0  0  0  0  0
  189.1990  177.0690  146.6080 N   0  0  0  0  0  0  0  0  0  0  0  0
  185.6790  178.2020  146.9900 C   0  0  0  0  0  2  0  0  0  0  0  0
  187.7000  178.0570  143.9960 C   0  0  0  0  0  1  0  0  0  0  0  0
  193.6520  175.4090  146.2320 N   0  0  0  0  0  0  0  0  0  0  0  0
  192.2790  175.2330  145.8060 C   0  0  1  0  0  3  0  0  0  0  0  0
  187.3160  176.6230  144.3620 C   0  0  2  0  0  3  0  0  0  0  0  0
  189.2420  174.0140  140.5370 C   0  0  0  0  0  3  0  0  0  0  0  0
  189.4590  172.5430  140.8620 C   0  0  0  0  0  2  0  0  0  0  0  0
  190.5650  173.3390  140.2110 C   0  0  0  0  0  2  0  0  0  0  0  0
  1  5  1  6  0  0  0
  1 19  1  0  0  0  0
  1  4  1  0  0  0  0
  2 19  1  0  0  0  0
  2 13  1  0  0  0  0
  3 10  1  0  0  0  0
  4 20  1  0  0  0  0
  6  8  2  0  0  0  0
  7 15  1  0  0  0  0
  7  9  1  0  0  0  0
  8 12  1  0  0  0  0
  9 14  1  0  0  0  0
 10 21  2  0  0  0  0
 11  5  1  0  0  0  0
 11  8  1  0  0  0  0
 12 27  1  0  0  0  0
 12  4  1  0  0  0  0
 13 18  1  0  0  0  0
 15 23  1  0  0  0  0
 16  2  2  0  0  0  0
 17  3  1  0  0  0  0
 18 25  2  0  0  0  0
 19 26  1  0  0  0  0
 20 17  1  0  0  0  0
 20 22  1  0  0  0  0
 22  9  1  0  0  0  0
 22 10  1  0  0  0  0
 23 14  1  0  0  0  0
 24 27  1  0  0  0  0
 26 17  1  0  0  0  0
 26 25  1  0  0  0  0
 27  7  1  0  0  0  0
 28 29  1  0  0  0  0
 28 11  1  0  0  0  0
 30 28  1  0  0  0  0
 30 29  1  0  0  0  0
M  END
>  <MODEL>
8

>  <REMARK>
 VINA RESULT:      -7.5      2.386      7.383
  Name = 
  1 active torsions:
  status: ('A' for Active; 'I' for Inactive)
    1  A    between atoms: N_11  and  C_28
                            x       y       z     vdW  Elec       q    Type
                         _______ _______ _______ _____ _____    ______ ____

>  <TORSDO>
F 1

$$$$
=
 OpenBabel11112416163D

 30 36  0  0  1  0  0  0  0  0999 V2000
  191.0490  174.2090  143.3440 C   0  0  1  0  0  3  0  0  0  0  0  0
  191.4230  173.2150  140.9860 C   0  0  0  0  0  0  0  0  0  0  0  0
  187.1170  175.6180  142.1000 C   0  0  0  0  0  2  0  0  0  0  0  0
  189.9950  174.7900  144.3280 C   0  0  1  0  0  3  0  0  0  0  0  0
  191.7850  173.1060  144.0930 C   0  0  0  0  0  2  0  0  0  0  0  0
  192.4540  175.1190  147.0810 O   0  0  0  0  0  0  0  0  0  0  0  0
  189.1980  177.3350  146.2450 C   0  0  1  0  0  3  0  0  0  0  0  0
  191.9060  174.7340  146.0110 C   0  0  0  0  0  0  0  0  0  0  0  0
  187.9730  177.3310  145.3310 C   0  0  2  0  0  3  0  0  0  0  0  0
  186.8000  176.2430  143.4040 C   0  0  0  0  0  0  0  0  0  0  0  0
  192.4800  173.6450  145.2620 N   0  0  0  0  0  0  0  0  0  0  0  0
  190.7310  175.5130  145.4640 C   0  0  2  0  0  3  0  0  0  0  0  0
  191.0930  173.4240  139.5290 C   0  0  0  0  0  2  0  0  0  0  0  0
  186.7850  177.3370  146.2700 C   0  0  0  0  0  2  0  0  0  0  0  0
  188.7520  178.0230  147.5250 C   0  0  0  0  0  2  0  0  0  0  0  0
  192.4790  172.6830  141.2900 O   0  0  0  0  0  0  0  0  0  0  0  0
  188.3760  174.8810  142.4840 C   0  0  2  0  0  3  0  0  0  0  0  0
  189.5970  173.4780  139.3380 C   0  0  0  0  0  3  0  0  0  0  0  0
  190.4240  173.6330  142.0490 C   0  0  2  0  0  3  0  0  0  0  0  0
  189.0230  175.7160  143.5760 C   0  0  1  0  0  3  0  0  0  0  0  0
  185.6860  176.7770  143.6460 O   0  0  0  0  0  0  0  0  0  0  0  0
  187.8900  176.2500  144.3350 N   0  0  0  0  0  0  0  0  0  0  0  0
  187.2370  178.1430  147.4680 C   0  0  0  0  0  2  0  0  0  0  0  0
  188.8120  174.9150  147.0570 C   0  0  0  0  0  1  0  0  0  0  0  0
  188.8370  174.0220  140.2290 N   0  0  0  0  0  0  0  0  0  0  0  0
  189.4120  174.6080  141.4220 C   0  0  1  0  0  3  0  0  0  0  0  0
  189.8050  175.9760  146.5820 C   0  0  2  0  0  3  0  0  0  0  0  0
  193.8560  173.2150  145.5200 C   0  0  0  0  0  3  0  0  0  0  0  0
  194.8360  174.0330  144.6910 C   0  0  0  0  0  2  0  0  0  0  0  0
  194.4670  172.6360  144.2540 C   0  0  0  0  0  2  0  0  0  0  0  0
  1  5  1  1  0  0  0
  1  4  1  0  0  0  0
  2 16  2  0  0  0  0
  2 19  1  0  0  0  0
  3 17  1  0  0  0  0
  3 10  1  0  0  0  0
  4 12  1  0  0  0  0
  5 11  1  0  0  0  0
  7 27  1  0  0  0  0
  7 15  1  0  0  0  0
  8  6  2  0  0  0  0
  9  7  1  0  0  0  0
  9 14  1  0  0  0  0
 10 21  2  0  0  0  0
 10 22  1  0  0  0  0
 11 28  1  0  0  0  0
 11  8  1  0  0  0  0
 12  8  1  0  0  0  0
 12 27  1  0  0  0  0
 13  2  1  0  0  0  0
 14 23  1  0  0  0  0
 17 20  1  0  0  0  0
 18 13  1  0  0  0  0
 18 25  2  0  0  0  0
 19  1  1  0  0  0  0
 20  4  1  0  0  0  0
 20 22  1  0  0  0  0
 22  9  1  0  0  0  0
 23 15  1  0  0  0  0
 25 26  1  0  0  0  0
 26 19  1  0  0  0  0
 26 17  1  0  0  0  0
 27 24  1  0  0  0  0
 29 28  1  0  0  0  0
 30 29  1  0  0  0  0
 30 28  1  0  0  0  0
M  END
>  <MODEL>
9

>  <REMARK>
 VINA RESULT:      -7.5      2.091      6.075
  Name = 
  1 active torsions:
  status: ('A' for Active; 'I' for Inactive)
    1  A    between atoms: N_11  and  C_28
                            x       y       z     vdW  Elec       q    Type
                         _______ _______ _______ _____ _____    ______ ____

>  <TORSDO>
F 1

$$$$
