=
 OpenBabel11112416453D

 32 37  0  0  1  0  0  0  0  0999 V2000
  186.7830  177.8370  147.1380 C   0  0  0  0  0  2  0  0  0  0  0  0
  190.4600  175.0730  144.6310 C   0  0  2  0  0  3  0  0  0  0  0  0
  189.3900  173.8300  139.9840 C   0  0  0  0  0  3  0  0  0  0  0  0
  190.6540  173.2630  139.8370 C   0  0  0  0  0  3  0  0  0  0  0  0
  192.7620  174.4300  145.4360 C   0  0  0  0  0  0  0  0  0  0  0  0
  194.1160  173.8300  145.2000 C   0  0  1  0  0  3  0  0  0  0  0  0
  189.0130  176.8350  145.6740 C   0  0  1  0  0  3  0  0  0  0  0  0
  188.3260  175.7960  143.5070 N   0  0  0  0  0  2  0  0  0  0  0  0
  195.5500  172.6940  143.6390 C   0  0  2  0  0  3  0  0  0  0  0  0
  186.6490  177.1610  144.6520 C   0  0  0  0  0  2  0  0  0  0  0  0
  189.0390  174.4460  141.1860 C   0  0  0  0  0  3  0  0  0  0  0  0
  189.5840  175.1150  143.4040 C   0  0  0  0  0  0  0  0  0  0  0  0
  189.9410  174.4970  142.2630 C   0  0  0  0  0  0  0  0  0  0  0  0
  192.1510  174.0110  143.0850 C   0  0  0  0  0  0  0  0  0  0  0  0
  195.3320  171.7920  144.8480 C   0  0  0  0  0  2  0  0  0  0  0  0
  187.0650  176.3410  147.3030 C   0  0  0  0  0  2  0  0  0  0  0  0
  188.1420  176.9380  144.4000 C   0  0  1  0  0  3  0  0  0  0  0  0
  194.1930  172.3910  145.6520 C   0  0  0  0  0  2  0  0  0  0  0  0
  188.4460  175.9270  146.7770 C   0  0  0  0  0  2  0  0  0  0  0  0
  186.3630  178.2350  145.7080 C   0  0  1  0  0  3  0  0  0  0  0  0
  191.5690  173.3180  140.8870 C   0  0  0  0  0  3  0  0  0  0  0  0
  191.2330  173.9320  142.1060 C   0  0  0  0  0  0  0  0  0  0  0  0
  193.4350  173.4940  142.8810 O   0  0  0  0  0  0  0  0  0  0  0  0
  190.4460  176.4380  145.3190 C   0  0  0  0  0  2  0  0  0  0  0  0
  192.4480  174.7600  146.6120 O   0  0  0  0  0  0  0  0  0  0  0  0
  196.9520  173.2710  143.6850 C   0  0  0  0  0  1  0  0  0  0  0  0
  191.8260  174.6000  144.3550 N   0  0  0  0  0  0  0  0  0  0  0  0
  194.5300  173.8130  143.7350 C   0  0  1  0  0  3  0  0  0  0  0  0
  184.8800  178.5680  145.6760 C   0  0  0  0  0  2  0  0  0  0  0  0
  184.5380  179.3510  144.4550 C   0  0  0  0  0  0  0  0  0  0  0  0
  183.4960  179.0810  143.8060 O   0  0  0  0  0  0  0  0  0  0  0  0
  185.3560  180.3980  144.0490 O   0  0  0  0  0  1  0  0  0  0  0  0
  1 16  1  0  0  0  0
  2 24  1  6  0  0  0
  3 11  2  0  0  0  0
  4  3  1  0  0  0  0
  4 21  2  0  0  0  0
  5 25  2  0  0  0  0
  6  5  1  0  0  0  0
  6 18  1  6  0  0  0
  7 24  1  6  0  0  0
  7 19  1  0  0  0  0
  8 17  1  0  0  0  0
  9 26  1  1  0  0  0
  9 28  1  0  0  0  0
  9 15  1  0  0  0  0
 10 20  1  0  0  0  0
 11 13  1  0  0  0  0
 12  8  1  0  0  0  0
 12  2  1  0  0  0  0
 13 12  2  0  0  0  0
 14 27  1  0  0  0  0
 15 18  1  0  0  0  0
 17 10  1  1  0  0  0
 17  7  1  0  0  0  0
 19 16  1  0  0  0  0
 20 29  1  1  0  0  0
 20  1  1  0  0  0  0
 21 22  1  0  0  0  0
 22 13  1  0  0  0  0
 22 14  2  0  0  0  0
 23 14  1  0  0  0  0
 27  2  1  0  0  0  0
 27  5  1  0  0  0  0
 28 23  1  6  0  0  0
 28  6  1  0  0  0  0
 30 29  1  0  0  0  0
 31 30  2  0  0  0  0
 32 30  1  0  0  0  0
M  END
>  <MODEL>
1

>  <REMARK>
 VINA RESULT:      -8.5      0.000      0.000
  Name = 
  2 active torsions:
  status: ('A' for Active; 'I' for Inactive)
    1  A    between atoms: C_20  and  C_29
    2  A    between atoms: C_29  and  C_30
                            x       y       z     vdW  Elec       q    Type
                         _______ _______ _______ _____ _____    ______ ____

>  <TORSDO>
F 2

$$$$
=
 OpenBabel11112416453D

 32 37  0  0  1  0  0  0  0  0999 V2000
  185.9440  178.9670  144.3750 C   0  0  0  0  0  2  0  0  0  0  0  0
  190.2340  176.0000  143.8850 C   0  0  2  0  0  3  0  0  0  0  0  0
  189.7170  171.9510  141.1250 C   0  0  0  0  0  3  0  0  0  0  0  0
  191.0740  171.6680  141.2730 C   0  0  0  0  0  3  0  0  0  0  0  0
  192.5610  176.4520  144.7460 C   0  0  0  0  0  0  0  0  0  0  0  0
  194.0170  176.1060  144.8400 C   0  0  1  0  0  3  0  0  0  0  0  0
  188.4110  177.7140  143.7010 C   0  0  1  0  0  3  0  0  0  0  0  0
  188.0760  175.4420  142.7140 N   0  0  0  0  0  2  0  0  0  0  0  0
  195.7380  174.5400  144.2310 C   0  0  2  0  0  3  0  0  0  0  0  0
  186.0990  176.8750  142.8730 C   0  0  0  0  0  2  0  0  0  0  0  0
  189.1790  173.1030  141.7000 C   0  0  0  0  0  3  0  0  0  0  0  0
  189.4450  175.0990  142.9680 C   0  0  0  0  0  0  0  0  0  0  0  0
  189.9850  173.9850  142.4410 C   0  0  0  0  0  0  0  0  0  0  0  0
  192.1920  174.5490  143.2240 C   0  0  0  0  0  0  0  0  0  0  0  0
  195.6210  174.5720  145.7510 C   0  0  0  0  0  2  0  0  0  0  0  0
  186.4960  177.9910  145.4170 C   0  0  0  0  0  2  0  0  0  0  0  0
  187.6200  176.8300  142.7090 C   0  0  1  0  0  3  0  0  0  0  0  0
  194.3390  175.3130  146.0840 C   0  0  0  0  0  2  0  0  0  0  0  0
  187.9610  177.6090  145.1670 C   0  0  0  0  0  2  0  0  0  0  0  0
  185.5460  178.2940  143.0440 C   0  0  1  0  0  3  0  0  0  0  0  0
  191.8930  172.5400  141.9900 C   0  0  0  0  0  3  0  0  0  0  0  0
  191.3690  173.7040  142.5780 C   0  0  0  0  0  0  0  0  0  0  0  0
  193.5600  174.2720  143.2950 O   0  0  0  0  0  0  0  0  0  0  0  0
  189.9140  177.4610  143.5690 C   0  0  0  0  0  2  0  0  0  0  0  0
  192.1150  177.3780  145.4780 O   0  0  0  0  0  0  0  0  0  0  0  0
  196.9970  175.2700  143.8050 C   0  0  0  0  0  1  0  0  0  0  0  0
  191.6790  175.7270  143.8670 N   0  0  0  0  0  0  0  0  0  0  0  0
  194.5180  175.2550  143.6810 C   0  0  1  0  0  3  0  0  0  0  0  0
  184.0320  178.2470  142.9190 C   0  0  0  0  0  2  0  0  0  0  0  0
  183.6180  178.2330  141.4870 C   0  0  0  0  0  0  0  0  0  0  0  0
  182.4450  177.9050  141.1740 O   0  0  0  0  0  1  0  0  0  0  0  0
  184.5200  178.6090  140.5000 O   0  0  0  0  0  0  0  0  0  0  0  0
  1 16  1  0  0  0  0
  2 24  1  6  0  0  0
  3  4  1  0  0  0  0
  3 11  2  0  0  0  0
  4 21  2  0  0  0  0
  5  6  1  0  0  0  0
  5 25  2  0  0  0  0
  6 18  1  1  0  0  0
  7 24  1  1  0  0  0
  7 19  1  0  0  0  0
  8 12  1  0  0  0  0
  9 26  1  1  0  0  0
  9 15  1  0  0  0  0
 10 20  1  0  0  0  0
 11 13  1  0  0  0  0
 12  2  1  0  0  0  0
 13 22  1  0  0  0  0
 13 12  2  0  0  0  0
 14 23  1  0  0  0  0
 14 27  1  0  0  0  0
 15 18  1  0  0  0  0
 17  8  1  0  0  0  0
 17 10  1  1  0  0  0
 17  7  1  0  0  0  0
 19 16  1  0  0  0  0
 20 29  1  1  0  0  0
 20  1  1  0  0  0  0
 21 22  1  0  0  0  0
 22 14  2  0  0  0  0
 27  2  1  0  0  0  0
 27  5  1  0  0  0  0
 28 23  1  1  0  0  0
 28  9  1  0  0  0  0
 28  6  1  0  0  0  0
 30 29  1  0  0  0  0
 31 30  1  0  0  0  0
 32 30  2  0  0  0  0
M  END
>  <MODEL>
2

>  <REMARK>
 VINA RESULT:      -8.5      1.852      2.207
  Name = 
  2 active torsions:
  status: ('A' for Active; 'I' for Inactive)
    1  A    between atoms: C_20  and  C_29
    2  A    between atoms: C_29  and  C_30
                            x       y       z     vdW  Elec       q    Type
                         _______ _______ _______ _____ _____    ______ ____

>  <TORSDO>
F 2

$$$$
=
 OpenBabel11112416453D

 32 37  0  0  1  0  0  0  0  0999 V2000
  185.4020  178.5090  143.3050 C   0  0  0  0  0  2  0  0  0  0  0  0
  188.9850  174.8540  142.1900 C   0  0  2  0  0  3  0  0  0  0  0  0
  192.4640  174.1710  145.6110 C   0  0  0  0  0  3  0  0  0  0  0  0
  193.0000  173.1210  144.8680 C   0  0  0  0  0  3  0  0  0  0  0  0
  189.0740  173.2960  140.2080 C   0  0  0  0  0  0  0  0  0  0  0  0
  189.6810  172.1380  139.4740 C   0  0  1  0  0  3  0  0  0  0  0  0
  186.9670  176.1640  142.8990 C   0  0  1  0  0  3  0  0  0  0  0  0
  188.9880  176.1150  144.3700 N   0  0  0  0  0  2  0  0  0  0  0  0
  191.4290  170.4860  139.4520 C   0  0  2  0  0  3  0  0  0  0  0  0
  187.2630  177.7590  144.9250 C   0  0  0  0  0  2  0  0  0  0  0  0
  191.3250  174.8360  145.1570 C   0  0  0  0  0  3  0  0  0  0  0  0
  189.5990  175.1140  143.5420 C   0  0  0  0  0  0  0  0  0  0  0  0
  190.7080  174.4700  143.9480 C   0  0  0  0  0  0  0  0  0  0  0  0
  190.6560  172.9640  142.0700 C   0  0  0  0  0  0  0  0  0  0  0  0
  191.5840  171.3790  138.2260 C   0  0  0  0  0  2  0  0  0  0  0  0
  186.5930  178.6660  142.3560 C   0  0  0  0  0  2  0  0  0  0  0  0
  187.5530  176.3870  144.3130 C   0  0  1  0  0  3  0  0  0  0  0  0
  190.6810  172.5810  138.4320 C   0  0  0  0  0  2  0  0  0  0  0  0
  187.1900  177.3230  141.9130 C   0  0  0  0  0  2  0  0  0  0  0  0
  185.8050  178.2030  144.7620 C   0  0  1  0  0  3  0  0  0  0  0  0
  192.3930  172.7320  143.6750 C   0  0  0  0  0  3  0  0  0  0  0  0
  191.2460  173.3920  143.2000 C   0  0  0  0  0  0  0  0  0  0  0  0
  191.1770  171.8630  141.3830 O   0  0  0  0  0  0  0  0  0  0  0  0
  187.4620  174.8420  142.3110 C   0  0  0  0  0  2  0  0  0  0  0  0
  188.1920  173.9830  139.6230 O   0  0  0  0  0  0  0  0  0  0  0  0
  190.8820  169.1360  139.0280 C   0  0  0  0  0  1  0  0  0  0  0  0
  189.5040  173.6410  141.5390 N   0  0  0  0  0  0  0  0  0  0  0  0
  190.4410  171.1750  140.3750 C   0  0  1  0  0  3  0  0  0  0  0  0
  185.5660  179.4250  145.6340 C   0  0  0  0  0  2  0  0  0  0  0  0
  185.3990  179.0330  147.0630 C   0  0  0  0  0  0  0  0  0  0  0  0
  184.4440  178.2910  147.4040 O   0  0  0  0  0  0  0  0  0  0  0  0
  186.3160  179.4640  148.0120 O   0  0  0  0  0  1  0  0  0  0  0  0
  1 20  1  0  0  0  0
  2 24  1  1  0  0  0
  2 12  1  0  0  0  0
  4  3  1  0  0  0  0
  5 27  1  0  0  0  0
  6 18  1  6  0  0  0
  6  5  1  0  0  0  0
  6 28  1  0  0  0  0
  7 19  1  6  0  0  0
  7 17  1  0  0  0  0
  9 26  1  6  0  0  0
  9 28  1  0  0  0  0
 11  3  2  0  0  0  0
 12 13  2  0  0  0  0
 12  8  1  0  0  0  0
 13 11  1  0  0  0  0
 14 22  2  0  0  0  0
 15 18  1  0  0  0  0
 15  9  1  0  0  0  0
 16  1  1  0  0  0  0
 17  8  1  0  0  0  0
 17 10  1  6  0  0  0
 19 16  1  0  0  0  0
 20 10  1  0  0  0  0
 20 29  1  1  0  0  0
 21  4  2  0  0  0  0
 22 21  1  0  0  0  0
 22 13  1  0  0  0  0
 23 14  1  0  0  0  0
 24  7  1  0  0  0  0
 25  5  2  0  0  0  0
 27 14  1  0  0  0  0
 27  2  1  0  0  0  0
 28 23  1  1  0  0  0
 29 30  1  0  0  0  0
 30 31  2  0  0  0  0
 30 32  1  0  0  0  0
M  END
>  <MODEL>
3

>  <REMARK>
 VINA RESULT:      -8.1      2.346      4.787
  Name = 
  2 active torsions:
  status: ('A' for Active; 'I' for Inactive)
    1  A    between atoms: C_20  and  C_29
    2  A    between atoms: C_29  and  C_30
                            x       y       z     vdW  Elec       q    Type
                         _______ _______ _______ _____ _____    ______ ____

>  <TORSDO>
F 2

$$$$
=
 OpenBabel11112416453D

 32 37  0  0  1  0  0  0  0  0999 V2000
  186.2050  177.1860  142.9610 C   0  0  0  0  0  2  0  0  0  0  0  0
  190.7700  174.6370  143.2910 C   0  0  2  0  0  3  0  0  0  0  0  0
  194.0700  176.5760  146.3940 C   0  0  0  0  0  3  0  0  0  0  0  0
  194.9380  175.5140  146.1470 C   0  0  0  0  0  3  0  0  0  0  0  0
  191.4400  172.4690  142.1900 C   0  0  0  0  0  0  0  0  0  0  0  0
  192.4080  171.3400  141.9930 C   0  0  1  0  0  3  0  0  0  0  0  0
  188.4150  175.4730  143.5050 C   0  0  1  0  0  3  0  0  0  0  0  0
  190.2620  176.6670  144.6930 N   0  0  0  0  0  2  0  0  0  0  0  0
  194.5620  170.4370  142.5640 C   0  0  2  0  0  3  0  0  0  0  0  0
  188.0980  177.8040  144.6010 C   0  0  0  0  0  2  0  0  0  0  0  0
  192.8170  176.6080  145.7820 C   0  0  0  0  0  3  0  0  0  0  0  0
  191.1920  175.6320  144.3430 C   0  0  0  0  0  0  0  0  0  0  0  0
  192.4140  175.5860  144.9050 C   0  0  0  0  0  0  0  0  0  0  0  0
  192.9280  173.4670  143.8840 C   0  0  0  0  0  0  0  0  0  0  0  0
  194.5250  170.7020  141.0630 C   0  0  0  0  0  2  0  0  0  0  0  0
  187.3550  177.2500  141.9520 C   0  0  0  0  0  2  0  0  0  0  0  0
  188.8180  176.4540  144.6300 C   0  0  1  0  0  3  0  0  0  0  0  0
  193.2970  171.5500  140.7900 C   0  0  0  0  0  2  0  0  0  0  0  0
  188.3490  176.0890  142.0980 C   0  0  0  0  0  2  0  0  0  0  0  0
  186.5870  177.6840  144.3700 C   0  0  1  0  0  3  0  0  0  0  0  0
  194.5500  174.4820  145.2930 C   0  0  0  0  0  3  0  0  0  0  0  0
  193.2920  174.4980  144.6650 C   0  0  0  0  0  0  0  0  0  0  0  0
  193.7930  172.3820  143.7110 O   0  0  0  0  0  0  0  0  0  0  0  0
  189.3130  174.2350  143.5190 C   0  0  0  0  0  2  0  0  0  0  0  0
  190.4350  172.5380  141.4320 O   0  0  0  0  0  0  0  0  0  0  0  0
  194.4650  168.9450  142.8160 C   0  0  0  0  0  1  0  0  0  0  0  0
  191.6640  173.4720  143.2000 N   0  0  0  0  0  0  0  0  0  0  0  0
  193.3590  171.1390  143.1640 C   0  0  1  0  0  3  0  0  0  0  0  0
  185.9440  179.0350  144.6350 C   0  0  0  0  0  2  0  0  0  0  0  0
  185.1230  178.9970  145.8790 C   0  0  0  0  0  0  0  0  0  0  0  0
  185.6430  179.2890  146.9860 O   0  0  0  0  0  1  0  0  0  0  0  0
  183.7760  178.6680  145.8110 O   0  0  0  0  0  0  0  0  0  0  0  0
  1 20  1  0  0  0  0
  2 24  1  1  0  0  0
  2 12  1  0  0  0  0
  4  3  1  0  0  0  0
  5 27  1  0  0  0  0
  6 18  1  6  0  0  0
  6  5  1  0  0  0  0
  6 28  1  0  0  0  0
  7 19  1  6  0  0  0
  7 24  1  0  0  0  0
  7 17  1  0  0  0  0
  9 26  1  6  0  0  0
  9 28  1  0  0  0  0
 11  3  2  0  0  0  0
 12  8  1  0  0  0  0
 12 13  2  0  0  0  0
 13 11  1  0  0  0  0
 14 22  2  0  0  0  0
 15  9  1  0  0  0  0
 16 19  1  0  0  0  0
 16  1  1  0  0  0  0
 17 10  1  6  0  0  0
 17  8  1  0  0  0  0
 18 15  1  0  0  0  0
 20 10  1  0  0  0  0
 20 29  1  6  0  0  0
 21  4  2  0  0  0  0
 22 13  1  0  0  0  0
 22 21  1  0  0  0  0
 23 14  1  0  0  0  0
 25  5  2  0  0  0  0
 27  2  1  0  0  0  0
 27 14  1  0  0  0  0
 28 23  1  6  0  0  0
 29 30  1  0  0  0  0
 30 31  1  0  0  0  0
 32 30  2  0  0  0  0
M  END
>  <MODEL>
4

>  <REMARK>
 VINA RESULT:      -7.9      2.047      4.035
  Name = 
  2 active torsions:
  status: ('A' for Active; 'I' for Inactive)
    1  A    between atoms: C_20  and  C_29
    2  A    between atoms: C_29  and  C_30
                            x       y       z     vdW  Elec       q    Type
                         _______ _______ _______ _____ _____    ______ ____

>  <TORSDO>
F 2

$$$$
=
 OpenBabel11112416453D

 32 37  0  0  1  0  0  0  0  0999 V2000
  185.8790  177.8100  143.0390 C   0  0  0  0  0  2  0  0  0  0  0  0
  190.4520  175.2620  142.8260 C   0  0  2  0  0  3  0  0  0  0  0  0
  193.5910  176.2130  146.5030 C   0  0  0  0  0  3  0  0  0  0  0  0
  194.4800  175.2650  145.9990 C   0  0  0  0  0  3  0  0  0  0  0  0
  191.1920  173.5020  141.1790 C   0  0  0  0  0  0  0  0  0  0  0  0
  192.1790  172.4760  140.7080 C   0  0  1  0  0  3  0  0  0  0  0  0
  188.0810  176.0070  143.1650 C   0  0  1  0  0  3  0  0  0  0  0  0
  189.8610  176.8020  144.7290 N   0  0  0  0  0  2  0  0  0  0  0  0
  194.3160  171.4400  141.0910 C   0  0  2  0  0  3  0  0  0  0  0  0
  187.6910  177.9230  144.8720 C   0  0  0  0  0  2  0  0  0  0  0  0
  192.3660  176.4250  145.8700 C   0  0  0  0  0  3  0  0  0  0  0  0
  190.8160  175.9090  144.1390 C   0  0  0  0  0  0  0  0  0  0  0  0
  192.0130  175.7000  144.7180 C   0  0  0  0  0  0  0  0  0  0  0  0
  192.5930  173.9640  143.1540 C   0  0  0  0  0  0  0  0  0  0  0  0
  194.3420  172.1270  139.7310 C   0  0  0  0  0  2  0  0  0  0  0  0
  187.0720  178.1590  142.1450 C   0  0  0  0  0  2  0  0  0  0  0  0
  188.4230  176.6200  144.5430 C   0  0  1  0  0  3  0  0  0  0  0  0
  193.1180  173.0210  139.6590 C   0  0  0  0  0  2  0  0  0  0  0  0
  188.0700  177.0030  141.9950 C   0  0  0  0  0  2  0  0  0  0  0  0
  186.1940  177.8790  144.5480 C   0  0  1  0  0  3  0  0  0  0  0  0
  194.1410  174.5250  144.8680 C   0  0  0  0  0  3  0  0  0  0  0  0
  192.9120  174.7250  144.2150 C   0  0  0  0  0  0  0  0  0  0  0  0
  193.4770  172.9730  142.7150 O   0  0  0  0  0  0  0  0  0  0  0  0
  188.9910  174.8150  142.8630 C   0  0  0  0  0  2  0  0  0  0  0  0
  190.2210  173.7900  140.4280 O   0  0  0  0  0  0  0  0  0  0  0  0
  194.2230  169.9390  140.8970 C   0  0  0  0  0  1  0  0  0  0  0  0
  191.3610  174.1700  142.4440 N   0  0  0  0  0  0  0  0  0  0  0  0
  193.0800  171.9420  141.8140 C   0  0  1  0  0  3  0  0  0  0  0  0
  185.5250  179.0980  145.1620 C   0  0  0  0  0  2  0  0  0  0  0  0
  185.1560  178.8410  146.5840 C   0  0  0  0  0  0  0  0  0  0  0  0
  185.8060  179.3890  147.5110 O   0  0  0  0  0  1  0  0  0  0  0  0
  184.0770  178.0210  146.8840 O   0  0  0  0  0  0  0  0  0  0  0  0
  1 20  1  0  0  0  0
  2 24  1  1  0  0  0
  2 12  1  0  0  0  0
  4  3  1  0  0  0  0
  5 27  1  0  0  0  0
  6 18  1  6  0  0  0
  6  5  1  0  0  0  0
  6 28  1  0  0  0  0
  7 19  1  6  0  0  0
  7 17  1  0  0  0  0
  9 26  1  6  0  0  0
  9 28  1  0  0  0  0
 11  3  2  0  0  0  0
 12 13  2  0  0  0  0
 12  8  1  0  0  0  0
 13 11  1  0  0  0  0
 14 22  2  0  0  0  0
 15  9  1  0  0  0  0
 16  1  1  0  0  0  0
 17  8  1  0  0  0  0
 17 10  1  6  0  0  0
 18 15  1  0  0  0  0
 19 16  1  0  0  0  0
 20 10  1  0  0  0  0
 20 29  1  6  0  0  0
 21  4  2  0  0  0  0
 22 13  1  0  0  0  0
 22 21  1  0  0  0  0
 23 14  1  0  0  0  0
 24  7  1  0  0  0  0
 25  5  2  0  0  0  0
 27  2  1  0  0  0  0
 27 14  1  0  0  0  0
 28 23  1  1  0  0  0
 29 30  1  0  0  0  0
 30 32  2  0  0  0  0
 30 31  1  0  0  0  0
M  END
>  <MODEL>
5

>  <REMARK>
 VINA RESULT:      -7.8      2.095      4.161
  Name = 
  2 active torsions:
  status: ('A' for Active; 'I' for Inactive)
    1  A    between atoms: C_20  and  C_29
    2  A    between atoms: C_29  and  C_30
                            x       y       z     vdW  Elec       q    Type
                         _______ _______ _______ _____ _____    ______ ____

>  <TORSDO>
F 2

$$$$
=
 OpenBabel11112416453D

 32 37  0  0  1  0  0  0  0  0999 V2000
  189.3280  172.9140  138.4990 C   0  0  0  0  0  2  0  0  0  0  0  0
  188.7980  175.0460  143.2550 C   0  0  2  0  0  3  0  0  0  0  0  0
  192.6580  174.5090  146.2710 C   0  0  0  0  0  3  0  0  0  0  0  0
  192.0220  175.2890  147.2350 C   0  0  0  0  0  3  0  0  0  0  0  0
  186.8940  176.4390  144.1470 C   0  0  0  0  0  0  0  0  0  0  0  0
  186.2800  177.2950  145.2150 C   0  0  1  0  0  3  0  0  0  0  0  0
  189.2000  174.5460  140.8310 C   0  0  1  0  0  3  0  0  0  0  0  0
  190.9190  173.9020  142.5270 N   0  0  0  0  0  2  0  0  0  0  0  0
  186.5340  178.2210  147.4200 C   0  0  2  0  0  3  0  0  0  0  0  0
  191.1970  172.9840  140.2760 C   0  0  0  0  0  2  0  0  0  0  0  0
  192.0410  174.2830  145.0400 C   0  0  0  0  0  3  0  0  0  0  0  0
  190.2090  174.6070  143.5540 C   0  0  0  0  0  0  0  0  0  0  0  0
  190.7740  174.8240  144.7570 C   0  0  0  0  0  0  0  0  0  0  0  0
  188.9530  176.2200  145.4860 C   0  0  0  0  0  0  0  0  0  0  0  0
  185.3110  177.3110  147.4090 C   0  0  0  0  0  2  0  0  0  0  0  0
  188.5360  172.3310  139.6720 C   0  0  0  0  0  2  0  0  0  0  0  0
  190.6700  174.1530  141.1100 C   0  0  1  0  0  3  0  0  0  0  0  0
  185.3620  176.5100  146.1210 C   0  0  0  0  0  2  0  0  0  0  0  0
  188.2160  173.3680  140.7570 C   0  0  0  0  0  2  0  0  0  0  0  0
  190.8340  173.0810  138.7900 C   0  0  1  0  0  3  0  0  0  0  0  0
  190.7740  175.8480  146.9660 C   0  0  0  0  0  3  0  0  0  0  0  0
  190.1350  175.6300  145.7340 C   0  0  0  0  0  0  0  0  0  0  0  0
  188.3730  177.0540  146.4470 O   0  0  0  0  0  0  0  0  0  0  0  0
  188.7230  175.5980  141.8320 C   0  0  0  0  0  2  0  0  0  0  0  0
  186.1790  176.0990  143.1650 O   0  0  0  0  0  0  0  0  0  0  0  0
  186.0860  179.6700  147.4450 C   0  0  0  0  0  1  0  0  0  0  0  0
  188.2580  175.9860  144.2490 N   0  0  0  0  0  0  0  0  0  0  0  0
  187.3010  177.9420  146.1410 C   0  0  1  0  0  3  0  0  0  0  0  0
  191.6300  172.0370  138.0230 C   0  0  0  0  0  2  0  0  0  0  0  0
  191.4080  172.1740  136.5560 C   0  0  0  0  0  0  0  0  0  0  0  0
  191.7570  173.2260  135.9610 O   0  0  0  0  0  1  0  0  0  0  0  0
  190.8420  171.1280  135.8390 O   0  0  0  0  0  0  0  0  0  0  0  0
  1 20  1  0  0  0  0
  1 16  1  0  0  0  0
  2 24  1  6  0  0  0
  2 12  1  0  0  0  0
  2 27  1  0  0  0  0
  3  4  1  0  0  0  0
  5 27  1  0  0  0  0
  5  6  1  0  0  0  0
  6 18  1  1  0  0  0
  6 28  1  0  0  0  0
  7 19  1  1  0  0  0
  7 17  1  0  0  0  0
  7 24  1  0  0  0  0
  8 12  1  0  0  0  0
  9 26  1  6  0  0  0
 11  3  2  0  0  0  0
 12 13  2  0  0  0  0
 13 11  1  0  0  0  0
 13 22  1  0  0  0  0
 14 22  2  0  0  0  0
 14 23  1  0  0  0  0
 15  9  1  0  0  0  0
 16 19  1  0  0  0  0
 17 10  1  6  0  0  0
 17  8  1  0  0  0  0
 18 15  1  0  0  0  0
 20 29  1  6  0  0  0
 20 10  1  0  0  0  0
 21  4  2  0  0  0  0
 22 21  1  0  0  0  0
 25  5  2  0  0  0  0
 27 14  1  0  0  0  0
 28 23  1  1  0  0  0
 28  9  1  0  0  0  0
 30 29  1  0  0  0  0
 31 30  1  0  0  0  0
 32 30  2  0  0  0  0
M  END
>  <MODEL>
6

>  <REMARK>
 VINA RESULT:      -7.6      2.664      8.256
  Name = 
  2 active torsions:
  status: ('A' for Active; 'I' for Inactive)
    1  A    between atoms: C_20  and  C_29
    2  A    between atoms: C_29  and  C_30
                            x       y       z     vdW  Elec       q    Type
                         _______ _______ _______ _____ _____    ______ ____

>  <TORSDO>
F 2

$$$$
=
 OpenBabel11112416453D

 32 37  0  0  1  0  0  0  0  0999 V2000
  189.6950  177.5420  147.3110 C   0  0  0  0  0  2  0  0  0  0  0  0
  192.5020  175.5540  143.3600 C   0  0  2  0  0  3  0  0  0  0  0  0
  189.9370  173.0650  139.9680 C   0  0  0  0  0  3  0  0  0  0  0  0
  191.0930  172.8930  139.2090 C   0  0  0  0  0  3  0  0  0  0  0  0
  194.9640  175.8350  142.8860 C   0  0  0  0  0  0  0  0  0  0  0  0
  196.1630  175.6400  142.0070 C   0  0  1  0  0  3  0  0  0  0  0  0
  191.1720  176.9740  144.9420 C   0  0  1  0  0  3  0  0  0  0  0  0
  189.9970  175.3300  143.4710 N   0  0  0  0  0  2  0  0  0  0  0  0
  197.0060  174.6840  139.9680 C   0  0  2  0  0  3  0  0  0  0  0  0
  188.6780  176.3340  145.2710 C   0  0  0  0  0  2  0  0  0  0  0  0
  189.9870  173.7910  141.1580 C   0  0  0  0  0  3  0  0  0  0  0  0
  191.2110  175.0600  142.7570 C   0  0  0  0  0  0  0  0  0  0  0  0
  191.1950  174.3470  141.6160 C   0  0  0  0  0  0  0  0  0  0  0  0
  193.5320  174.7490  141.1990 C   0  0  0  0  0  0  0  0  0  0  0  0
  197.7330  174.0440  141.1450 C   0  0  0  0  0  2  0  0  0  0  0  0
  190.5560  176.2770  147.3560 C   0  0  0  0  0  2  0  0  0  0  0  0
  189.8400  176.5270  144.2950 C   0  0  1  0  0  3  0  0  0  0  0  0
  196.9720  174.4270  142.4010 C   0  0  0  0  0  2  0  0  0  0  0  0
  191.5720  176.1990  146.2080 C   0  0  0  0  0  2  0  0  0  0  0  0
  188.5420  177.4720  146.2880 C   0  0  1  0  0  3  0  0  0  0  0  0
  192.2970  173.4510  139.6370 C   0  0  0  0  0  3  0  0  0  0  0  0
  192.3680  174.1830  140.8350 C   0  0  0  0  0  0  0  0  0  0  0  0
  194.6580  174.6160  140.3800 O   0  0  0  0  0  0  0  0  0  0  0  0
  192.3030  176.9650  143.9130 C   0  0  0  0  0  2  0  0  0  0  0  0
  195.1380  176.3000  144.0460 O   0  0  0  0  0  0  0  0  0  0  0  0
  197.9370  175.6560  139.2680 C   0  0  0  0  0  1  0  0  0  0  0  0
  193.6440  175.4720  142.4360 N   0  0  0  0  0  0  0  0  0  0  0  0
  195.8160  175.4320  140.5390 C   0  0  1  0  0  3  0  0  0  0  0  0
  187.2140  177.3230  147.0140 C   0  0  0  0  0  2  0  0  0  0  0  0
  186.0760  177.6520  146.1100 C   0  0  0  0  0  0  0  0  0  0  0  0
  185.1330  176.8330  145.9600 O   0  0  0  0  0  1  0  0  0  0  0  0
  186.0410  178.8760  145.4550 O   0  0  0  0  0  0  0  0  0  0  0  0
  1 16  1  0  0  0  0
  2 24  1  6  0  0  0
  3 11  2  0  0  0  0
  4 21  2  0  0  0  0
  4  3  1  0  0  0  0
  5 25  2  0  0  0  0
  6 18  1  1  0  0  0
  6  5  1  0  0  0  0
  7 24  1  6  0  0  0
  7 19  1  0  0  0  0
  8 17  1  0  0  0  0
  9 26  1  1  0  0  0
  9 28  1  0  0  0  0
  9 15  1  0  0  0  0
 10 20  1  0  0  0  0
 11 13  1  0  0  0  0
 12  2  1  0  0  0  0
 12  8  1  0  0  0  0
 13 12  2  0  0  0  0
 14 27  1  0  0  0  0
 15 18  1  0  0  0  0
 17  7  1  0  0  0  0
 17 10  1  1  0  0  0
 19 16  1  0  0  0  0
 20 29  1  1  0  0  0
 20  1  1  0  0  0  0
 21 22  1  0  0  0  0
 22 14  2  0  0  0  0
 22 13  1  0  0  0  0
 23 14  1  0  0  0  0
 27  5  1  0  0  0  0
 27  2  1  0  0  0  0
 28 23  1  1  0  0  0
 28  6  1  0  0  0  0
 30 29  1  0  0  0  0
 31 30  1  0  0  0  0
 32 30  2  0  0  0  0
M  END
>  <MODEL>
7

>  <REMARK>
 VINA RESULT:      -7.6      2.288      3.005
  Name = 
  2 active torsions:
  status: ('A' for Active; 'I' for Inactive)
    1  A    between atoms: C_20  and  C_29
    2  A    between atoms: C_29  and  C_30
                            x       y       z     vdW  Elec       q    Type
                         _______ _______ _______ _____ _____    ______ ____

>  <TORSDO>
F 2

$$$$
=
 OpenBabel11112416453D

 32 37  0  0  1  0  0  0  0  0999 V2000
  191.8170  170.8090  140.7170 C   0  0  0  0  0  2  0  0  0  0  0  0
  189.5950  174.5950  143.5760 C   0  0  2  0  0  3  0  0  0  0  0  0
  192.0040  175.8470  147.6880 C   0  0  0  0  0  3  0  0  0  0  0  0
  191.0770  176.8590  147.9320 C   0  0  0  0  0  3  0  0  0  0  0  0
  187.5430  175.9630  143.0460 C   0  0  0  0  0  0  0  0  0  0  0  0
  186.6000  177.0880  143.3520 C   0  0  1  0  0  3  0  0  0  0  0  0
  190.8700  173.2130  141.9160 C   0  0  1  0  0  3  0  0  0  0  0  0
  191.7950  173.5480  144.2140 N   0  0  0  0  0  2  0  0  0  0  0  0
  186.0300  178.8540  144.8820 C   0  0  2  0  0  3  0  0  0  0  0  0
  192.8740  171.8420  142.8310 C   0  0  0  0  0  2  0  0  0  0  0  0
  191.8920  175.0620  146.5410 C   0  0  0  0  0  3  0  0  0  0  0  0
  190.7720  174.5080  144.5150 C   0  0  0  0  0  0  0  0  0  0  0  0
  190.8460  175.2670  145.6240 C   0  0  0  0  0  0  0  0  0  0  0  0
  188.9320  176.5820  144.9870 C   0  0  0  0  0  0  0  0  0  0  0  0
  184.8720  177.8640  144.8250 C   0  0  0  0  0  2  0  0  0  0  0  0
  190.6200  170.6520  141.6580 C   0  0  0  0  0  2  0  0  0  0  0  0
  192.1100  173.1670  142.8380 C   0  0  1  0  0  3  0  0  0  0  0  0
  185.3810  176.6240  144.1120 C   0  0  0  0  0  2  0  0  0  0  0  0
  189.9470  171.9870  142.0050 C   0  0  0  0  0  2  0  0  0  0  0  0
  193.1050  171.2790  141.4240 C   0  0  1  0  0  3  0  0  0  0  0  0
  190.0430  177.0890  147.0260 C   0  0  0  0  0  3  0  0  0  0  0  0
  189.9120  176.3060  145.8660 C   0  0  0  0  0  0  0  0  0  0  0  0
  188.0600  177.6490  145.2260 O   0  0  0  0  0  0  0  0  0  0  0  0
  190.0840  174.5080  142.1310 C   0  0  0  0  0  2  0  0  0  0  0  0
  187.2430  175.1620  142.1200 O   0  0  0  0  0  0  0  0  0  0  0  0
  185.6550  180.1140  144.1270 C   0  0  0  0  0  1  0  0  0  0  0  0
  188.7510  175.7770  143.8100 N   0  0  0  0  0  0  0  0  0  0  0  0
  187.2150  178.1840  144.2100 C   0  0  1  0  0  3  0  0  0  0  0  0
  194.0960  170.1300  141.5140 C   0  0  0  0  0  2  0  0  0  0  0  0
  195.4330  170.6170  141.9580 C   0  0  0  0  0  0  0  0  0  0  0  0
  195.9960  170.0910  142.9510 O   0  0  0  0  0  1  0  0  0  0  0  0
  196.0710  171.6310  141.2560 O   0  0  0  0  0  0  0  0  0  0  0  0
  1 20  1  0  0  0  0
  1 16  1  0  0  0  0
  2 24  1  6  0  0  0
  2 27  1  0  0  0  0
  2 12  1  0  0  0  0
  3  4  1  0  0  0  0
  5  6  1  0  0  0  0
  5 27  1  0  0  0  0
  6 18  1  1  0  0  0
  6 28  1  0  0  0  0
  7 19  1  1  0  0  0
  7 24  1  0  0  0  0
  7 17  1  0  0  0  0
  8 12  1  0  0  0  0
  9 26  1  6  0  0  0
 11  3  2  0  0  0  0
 12 13  2  0  0  0  0
 13 22  1  0  0  0  0
 13 11  1  0  0  0  0
 14 23  1  0  0  0  0
 14 22  2  0  0  0  0
 15  9  1  0  0  0  0
 16 19  1  0  0  0  0
 17 10  1  1  0  0  0
 17  8  1  0  0  0  0
 18 15  1  0  0  0  0
 20 29  1  1  0  0  0
 20 10  1  0  0  0  0
 21  4  2  0  0  0  0
 22 21  1  0  0  0  0
 25  5  2  0  0  0  0
 27 14  1  0  0  0  0
 28  9  1  0  0  0  0
 28 23  1  1  0  0  0
 29 30  1  0  0  0  0
 30 31  1  0  0  0  0
 32 30  2  0  0  0  0
M  END
>  <MODEL>
8

>  <REMARK>
 VINA RESULT:      -7.4      2.402      8.769
  Name = 
  2 active torsions:
  status: ('A' for Active; 'I' for Inactive)
    1  A    between atoms: C_20  and  C_29
    2  A    between atoms: C_29  and  C_30
                            x       y       z     vdW  Elec       q    Type
                         _______ _______ _______ _____ _____    ______ ____

>  <TORSDO>
F 2

$$$$
=
 OpenBabel11112416453D

 32 37  0  0  1  0  0  0  0  0999 V2000
  196.8590  172.8610  146.1370 C   0  0  0  0  0  2  0  0  0  0  0  0
  192.1350  174.2630  144.3590 C   0  0  2  0  0  3  0  0  0  0  0  0
  190.5270  171.7910  140.4110 C   0  0  0  0  0  3  0  0  0  0  0  0
  189.3110  172.4700  140.4720 C   0  0  0  0  0  3  0  0  0  0  0  0
  190.5150  175.9230  145.3490 C   0  0  0  0  0  0  0  0  0  0  0  0
  189.1740  176.5940  145.3750 C   0  0  1  0  0  3  0  0  0  0  0  0
  194.0990  173.2760  145.5670 C   0  0  1  0  0  3  0  0  0  0  0  0
  193.4570  172.3880  143.3200 N   0  0  0  0  0  2  0  0  0  0  0  0
  187.0260  176.8020  144.3130 C   0  0  2  0  0  3  0  0  0  0  0  0
  195.6240  171.6770  144.2060 C   0  0  0  0  0  2  0  0  0  0  0  0
  191.5100  172.0360  141.3700 C   0  0  0  0  0  3  0  0  0  0  0  0
  192.2570  173.1740  143.3230 C   0  0  0  0  0  0  0  0  0  0  0  0
  191.2990  172.9700  142.3990 C   0  0  0  0  0  0  0  0  0  0  0  0
  189.7840  174.5050  143.4690 C   0  0  0  0  0  0  0  0  0  0  0  0
  187.7300  178.1530  144.2610 C   0  0  0  0  0  2  0  0  0  0  0  0
  196.5370  174.0980  145.2940 C   0  0  0  0  0  2  0  0  0  0  0  0
  194.1990  172.1160  144.5490 C   0  0  1  0  0  3  0  0  0  0  0  0
  189.1790  177.9160  144.6450 C   0  0  0  0  0  2  0  0  0  0  0  0
  195.0450  174.4580  145.3000 C   0  0  0  0  0  2  0  0  0  0  0  0
  196.5290  171.5280  145.4340 C   0  0  1  0  0  3  0  0  0  0  0  0
  189.0760  173.3870  141.4950 C   0  0  0  0  0  3  0  0  0  0  0  0
  190.0560  173.6490  142.4680 C   0  0  0  0  0  0  0  0  0  0  0  0
  188.5280  175.1170  143.5420 O   0  0  0  0  0  0  0  0  0  0  0  0
  192.6520  173.7520  145.7030 C   0  0  0  0  0  2  0  0  0  0  0  0
  191.4220  176.3630  146.1060 O   0  0  0  0  0  0  0  0  0  0  0  0
  185.9200  176.8480  145.3510 C   0  0  0  0  0  1  0  0  0  0  0  0
  190.7770  174.8210  144.4580 N   0  0  0  0  0  0  0  0  0  0  0  0
  188.0690  175.7770  144.7190 C   0  0  1  0  0  3  0  0  0  0  0  0
  197.8130  170.8310  145.0130 C   0  0  0  0  0  2  0  0  0  0  0  0
  197.7440  169.3710  145.3050 C   0  0  0  0  0  0  0  0  0  0  0  0
  197.5760  168.5490  144.3670 O   0  0  0  0  0  0  0  0  0  0  0  0
  197.8940  168.9150  146.6080 O   0  0  0  0  0  1  0  0  0  0  0  0
  2 27  1  0  0  0  0
  2 24  1  1  0  0  0
  3  4  1  0  0  0  0
  3 11  2  0  0  0  0
  4 21  2  0  0  0  0
  5  6  1  0  0  0  0
  5 25  2  0  0  0  0
  6 18  1  6  0  0  0
  7 19  1  6  0  0  0
  7 24  1  0  0  0  0
  8 12  1  0  0  0  0
  8 17  1  0  0  0  0
  9 28  1  0  0  0  0
  9 26  1  1  0  0  0
 10 20  1  0  0  0  0
 11 13  1  0  0  0  0
 12  2  1  0  0  0  0
 13 22  1  0  0  0  0
 13 12  2  0  0  0  0
 14 23  1  0  0  0  0
 14 27  1  0  0  0  0
 15  9  1  0  0  0  0
 15 18  1  0  0  0  0
 16 19  1  0  0  0  0
 16  1  1  0  0  0  0
 17 10  1  6  0  0  0
 17  7  1  0  0  0  0
 20 29  1  6  0  0  0
 20  1  1  0  0  0  0
 21 22  1  0  0  0  0
 22 14  2  0  0  0  0
 27  5  1  0  0  0  0
 28 23  1  6  0  0  0
 28  6  1  0  0  0  0
 29 30  1  0  0  0  0
 30 32  1  0  0  0  0
 31 30  2  0  0  0  0
M  END
>  <MODEL>
9

>  <REMARK>
 VINA RESULT:      -7.3      2.437      8.557
  Name = 
  2 active torsions:
  status: ('A' for Active; 'I' for Inactive)
    1  A    between atoms: C_20  and  C_29
    2  A    between atoms: C_29  and  C_30
                            x       y       z     vdW  Elec       q    Type
                         _______ _______ _______ _____ _____    ______ ____

>  <TORSDO>
F 2

$$$$
