=
 OpenBabel11112417173D

 37 44  0  0  1  0  0  0  0  0999 V2000
  190.6750  173.1200  142.6500 C   0  0  0  0  0  2  0  0  0  0  0  0
  195.4930  175.8860  142.5660 S   0  0  0  0  0  0  0  0  0  0  0  0
  191.9480  175.8510  145.0470 C   0  0  0  0  0  0  0  0  0  0  0  0
  190.4510  171.9910  141.6390 C   0  0  2  0  0  3  0  0  0  0  0  0
  188.4910  176.3350  143.2090 C   0  0  0  0  0  2  0  0  0  0  0  0
  194.3610  175.5340  145.0180 C   0  0  0  0  0  0  0  0  0  0  0  0
  190.8330  175.8740  144.1480 N   0  0  0  0  0  0  0  0  0  0  0  0
  188.1370  172.9310  141.3880 C   0  0  0  0  0  0  0  0  0  0  0  0
  193.1130  175.5240  144.3920 C   0  0  0  0  0  0  0  0  0  0  0  0
  189.4820  176.4110  144.3570 C   0  0  0  0  0  0  0  0  0  0  0  0
  194.4130  175.7970  146.3870 C   0  0  0  0  0  3  0  0  0  0  0  0
  189.2740  172.2480  140.6920 C   0  0  0  0  0  2  0  0  0  0  0  0
  192.8880  175.2560  142.9640 C   0  0  2  0  0  3  0  0  0  0  0  0
  196.1000  174.8910  141.6170 O   0  0  0  0  0  0  0  0  0  0  0  0
  190.8400  176.4380  147.2490 C   0  0  0  0  0  3  0  0  0  0  0  0
  193.2300  176.0840  147.0830 C   0  0  0  0  0  3  0  0  0  0  0  0
  193.7790  176.1590  142.1240 C   0  0  0  0  0  2  0  0  0  0  0  0
  188.0710  174.4310  141.4430 C   0  0  1  0  0  3  0  0  0  0  0  0
  188.5640  174.9250  142.7160 C   0  0  1  0  0  3  0  0  0  0  0  0
  191.9890  176.1290  146.4210 C   0  0  0  0  0  0  0  0  0  0  0  0
  191.4080  175.6030  142.7960 C   0  0  1  0  0  3  0  0  0  0  0  0
  195.6120  175.2490  144.2410 C   0  0  0  0  0  2  0  0  0  0  0  0
  188.9830  176.8480  145.5470 C   0  0  0  0  0  0  0  0  0  0  0  0
  196.2420  177.1840  142.4730 O   0  0  0  0  0  0  0  0  0  0  0  0
  189.4090  175.0670  141.5170 N   0  0  1  0  0  0  0  0  0  0  0  0
  187.2620  172.2650  141.9160 O   0  0  0  0  0  0  0  0  0  0  0  0
  190.6920  174.5090  141.9750 C   0  0  2  0  0  3  0  0  0  0  0  0
  189.6090  176.7340  146.8730 C   0  0  0  0  0  3  0  0  0  0  0  0
  186.7100  176.9960  146.5930 C   0  0  0  0  0  3  0  0  0  0  0  0
  187.6230  177.4390  145.6230 C   0  0  0  0  0  0  0  0  0  0  0  0
  187.2470  178.4730  144.7500 C   0  0  0  0  0  3  0  0  0  0  0  0
  185.6070  180.0580  143.9660 O   0  0  0  0  0  1  0  0  0  0  0  0
  185.0680  178.5870  145.7990 C   0  0  0  0  0  3  0  0  0  0  0  0
  185.9720  179.0420  144.8360 C   0  0  0  0  0  0  0  0  0  0  0  0
  185.4370  177.5650  146.6790 C   0  0  0  0  0  3  0  0  0  0  0  0
  190.8060  169.5820  141.5770 N   0  0  0  0  0  1  0  0  0  0  0  0
  190.2540  170.6710  142.3640 C   0  0  0  0  0  2  0  0  0  0  0  0
  2 22  1  0  0  0  0
  3 20  1  0  0  0  0
  4 37  1  1  0  0  0
  4  1  1  0  0  0  0
  5 10  1  0  0  0  0
  6 11  2  0  0  0  0
  7 10  1  0  0  0  0
  7  3  1  0  0  0  0
  8 26  2  0  0  0  0
  9  6  1  0  0  0  0
  9  3  2  0  0  0  0
 10 23  2  0  0  0  0
 11 16  1  0  0  0  0
 12  8  1  0  0  0  0
 12  4  1  0  0  0  0
 13 17  1  6  0  0  0
 13  9  1  0  0  0  0
 14  2  2  0  0  0  0
 17  2  1  0  0  0  0
 18  8  1  1  0  0  0
 18 25  1  0  0  0  0
 18 19  1  0  0  0  0
 19  5  1  6  0  0  0
 20 16  2  0  0  0  0
 20 15  1  0  0  0  0
 21 13  1  0  0  0  0
 21  7  1  1  0  0  0
 22  6  1  0  0  0  0
 23 30  1  0  0  0  0
 23 28  1  0  0  0  0
 24  2  2  0  0  0  0
 25 27  1  0  0  0  0
 25 19  1  0  0  0  0
 27  1  1  0  0  0  0
 27 21  1  0  0  0  0
 28 15  2  0  0  0  0
 29 35  1  0  0  0  0
 30 29  2  0  0  0  0
 31 34  2  0  0  0  0
 31 30  1  0  0  0  0
 32 34  1  0  0  0  0
 33 35  2  0  0  0  0
 34 33  1  0  0  0  0
 36 37  1  0  0  0  0
M  END
>  <MODEL>
1

>  <REMARK>
 VINA RESULT:      -9.7      0.000      0.000
  Name = 
  2 active torsions:
  status: ('A' for Active; 'I' for Inactive)
    1  A    between atoms: C_4  and  C_37
    2  A    between atoms: C_23  and  C_30
                            x       y       z     vdW  Elec       q    Type
                         _______ _______ _______ _____ _____    ______ ____

>  <TORSDO>
F 2

$$$$
=
 OpenBabel11112417173D

 37 44  0  0  1  0  0  0  0  0999 V2000
  193.1000  174.9570  143.8740 C   0  0  0  0  0  2  0  0  0  0  0  0
  191.3980  170.3800  141.2220 S   0  0  0  0  0  0  0  0  0  0  0  0
  189.7030  174.2360  142.2140 C   0  0  0  0  0  0  0  0  0  0  0  0
  194.5540  175.0370  144.3550 C   0  0  2  0  0  3  0  0  0  0  0  0
  189.8240  175.3050  146.0090 C   0  0  0  0  0  2  0  0  0  0  0  0
  190.2830  172.7230  140.3970 C   0  0  0  0  0  0  0  0  0  0  0  0
  190.0140  174.4640  143.5930 N   0  0  0  0  0  0  0  0  0  0  0  0
  193.6040  176.0380  146.4520 C   0  0  0  0  0  0  0  0  0  0  0  0
  190.4630  173.2150  141.6910 C   0  0  0  0  0  0  0  0  0  0  0  0
  189.2850  175.2590  144.5900 C   0  0  0  0  0  0  0  0  0  0  0  0
  189.3550  173.3580  139.5710 C   0  0  0  0  0  3  0  0  0  0  0  0
  194.6830  175.1750  145.8760 C   0  0  0  0  0  2  0  0  0  0  0  0
  191.4040  172.6650  142.6780 C   0  0  2  0  0  3  0  0  0  0  0  0
  192.8080  169.8710  141.1010 O   0  0  0  0  0  0  0  0  0  0  0  0
  187.9260  175.9930  141.7930 C   0  0  0  0  0  3  0  0  0  0  0  0
  188.6050  174.4340  140.0690 C   0  0  0  0  0  3  0  0  0  0  0  0
  191.1860  171.1660  142.8180 C   0  0  0  0  0  2  0  0  0  0  0  0
  192.3000  175.4350  146.8880 C   0  0  1  0  0  3  0  0  0  0  0  0
  191.2800  175.6100  145.8690 C   0  0  1  0  0  3  0  0  0  0  0  0
  188.7590  174.8750  141.3960 C   0  0  0  0  0  0  0  0  0  0  0  0
  191.0160  173.4160  143.9530 C   0  0  1  0  0  3  0  0  0  0  0  0
  191.0810  171.5550  139.9010 C   0  0  0  0  0  2  0  0  0  0  0  0
  188.2360  176.0870  144.3240 C   0  0  0  0  0  0  0  0  0  0  0  0
  190.4410  169.2290  141.1060 O   0  0  0  0  0  0  0  0  0  0  0  0
  191.8870  174.2800  146.0530 N   0  0  1  0  0  0  0  0  0  0  0  0
  193.7850  177.2400  146.5640 O   0  0  0  0  0  0  0  0  0  0  0  0
  192.2790  173.9260  144.6790 C   0  0  2  0  0  3  0  0  0  0  0  0
  187.7190  176.4780  143.0040 C   0  0  0  0  0  3  0  0  0  0  0  0
  188.2570  177.4430  146.4320 C   0  0  0  0  0  3  0  0  0  0  0  0
  187.5280  176.7870  145.4270 C   0  0  0  0  0  0  0  0  0  0  0  0
  186.1260  176.8310  145.4580 C   0  0  0  0  0  3  0  0  0  0  0  0
  184.0760  177.5400  146.5130 O   0  0  0  0  0  1  0  0  0  0  0  0
  186.1960  178.1500  147.4870 C   0  0  0  0  0  3  0  0  0  0  0  0
  185.4620  177.5070  146.4870 C   0  0  0  0  0  0  0  0  0  0  0  0
  187.5930  178.1190  147.4590 C   0  0  0  0  0  3  0  0  0  0  0  0
  196.6820  175.8840  143.5270 N   0  0  0  0  0  1  0  0  0  0  0  0
  195.2680  176.1880  143.6680 C   0  0  0  0  0  2  0  0  0  0  0  0
  1  4  1  0  0  0  0
  1 27  1  0  0  0  0
  2 17  1  0  0  0  0
  3  7  1  0  0  0  0
  4 37  1  6  0  0  0
  4 12  1  0  0  0  0
  6  9  2  0  0  0  0
  7 10  1  0  0  0  0
  8 26  2  0  0  0  0
  9  3  1  0  0  0  0
  9 13  1  0  0  0  0
 10  5  1  0  0  0  0
 11 16  2  0  0  0  0
 11  6  1  0  0  0  0
 12  8  1  0  0  0  0
 13 17  1  1  0  0  0
 13 21  1  0  0  0  0
 14  2  2  0  0  0  0
 15 28  2  0  0  0  0
 16 20  1  0  0  0  0
 18  8  1  6  0  0  0
 19  5  1  1  0  0  0
 19 25  1  0  0  0  0
 19 18  1  0  0  0  0
 20 15  1  0  0  0  0
 20  3  2  0  0  0  0
 21  7  1  6  0  0  0
 21 27  1  0  0  0  0
 22  6  1  0  0  0  0
 22  2  1  0  0  0  0
 23 10  2  0  0  0  0
 23 30  1  0  0  0  0
 24  2  2  0  0  0  0
 25 18  1  0  0  0  0
 27 25  1  0  0  0  0
 28 23  1  0  0  0  0
 29 35  1  0  0  0  0
 30 31  1  0  0  0  0
 30 29  2  0  0  0  0
 31 34  2  0  0  0  0
 34 32  1  0  0  0  0
 34 33  1  0  0  0  0
 35 33  2  0  0  0  0
 36 37  1  0  0  0  0
M  END
>  <MODEL>
2

>  <REMARK>
 VINA RESULT:      -8.8      2.491      5.621
  Name = 
  2 active torsions:
  status: ('A' for Active; 'I' for Inactive)
    1  A    between atoms: C_4  and  C_37
    2  A    between atoms: C_23  and  C_30
                            x       y       z     vdW  Elec       q    Type
                         _______ _______ _______ _____ _____    ______ ____

>  <TORSDO>
F 2

$$$$
=
 OpenBabel11112417173D

 37 44  0  0  1  0  0  0  0  0999 V2000
  192.9970  174.8680  143.3030 C   0  0  0  0  0  2  0  0  0  0  0  0
  191.3850  169.8490  141.5460 S   0  0  0  0  0  0  0  0  0  0  0  0
  189.6340  173.8000  141.7620 C   0  0  0  0  0  0  0  0  0  0  0  0
  194.4410  175.0580  143.7800 C   0  0  2  0  0  3  0  0  0  0  0  0
  189.6820  175.5730  145.2860 C   0  0  0  0  0  2  0  0  0  0  0  0
  190.2590  171.9780  140.2740 C   0  0  0  0  0  0  0  0  0  0  0  0
  189.9200  174.2910  143.0770 N   0  0  0  0  0  0  0  0  0  0  0  0
  193.4470  176.4270  145.6350 C   0  0  0  0  0  0  0  0  0  0  0  0
  190.4130  172.7100  141.4540 C   0  0  0  0  0  0  0  0  0  0  0  0
  189.1670  175.2520  143.8940 C   0  0  0  0  0  0  0  0  0  0  0  0
  189.3380  172.4320  139.3300 C   0  0  0  0  0  3  0  0  0  0  0  0
  194.5440  175.4830  145.2490 C   0  0  0  0  0  2  0  0  0  0  0  0
  191.3430  172.3700  142.5410 C   0  0  2  0  0  3  0  0  0  0  0  0
  192.8010  169.3450  141.5440 O   0  0  0  0  0  0  0  0  0  0  0  0
  187.8460  175.4220  140.9900 C   0  0  0  0  0  3  0  0  0  0  0  0
  188.5700  173.5730  139.6040 C   0  0  0  0  0  3  0  0  0  0  0  0
  191.1380  170.9210  142.9600 C   0  0  0  0  0  2  0  0  0  0  0  0
  192.1420  175.9000  146.1590 C   0  0  1  0  0  3  0  0  0  0  0  0
  191.1380  175.8650  145.1110 C   0  0  1  0  0  3  0  0  0  0  0  0
  188.6970  174.2600  140.8240 C   0  0  0  0  0  0  0  0  0  0  0  0
  190.9270  173.3440  143.6440 C   0  0  1  0  0  3  0  0  0  0  0  0
  191.0770  170.7470  140.0220 C   0  0  0  0  0  2  0  0  0  0  0  0
  188.1140  176.0000  143.4600 C   0  0  0  0  0  0  0  0  0  0  0  0
  190.4410  168.6840  141.6380 O   0  0  0  0  0  0  0  0  0  0  0  0
  191.7550  174.6030  145.5540 N   0  0  1  0  0  0  0  0  0  0  0  0
  193.6140  177.6300  145.5190 O   0  0  0  0  0  0  0  0  0  0  0  0
  192.1730  173.9990  144.2780 C   0  0  2  0  0  3  0  0  0  0  0  0
  187.6150  176.1260  142.0830 C   0  0  0  0  0  3  0  0  0  0  0  0
  187.0230  178.1880  144.0120 C   0  0  0  0  0  3  0  0  0  0  0  0
  187.3820  176.8880  144.4000 C   0  0  0  0  0  0  0  0  0  0  0  0
  187.0080  176.4240  145.6720 C   0  0  0  0  0  3  0  0  0  0  0  0
  185.9440  176.7910  147.8050 O   0  0  0  0  0  1  0  0  0  0  0  0
  185.9580  178.5510  146.1560 C   0  0  0  0  0  3  0  0  0  0  0  0
  186.3030  177.2540  146.5480 C   0  0  0  0  0  0  0  0  0  0  0  0
  186.3160  179.0170  144.8880 C   0  0  0  0  0  3  0  0  0  0  0  0
  196.4050  176.4730  143.5150 N   0  0  0  0  0  1  0  0  0  0  0  0
  195.1550  176.0660  142.8970 C   0  0  0  0  0  2  0  0  0  0  0  0
  1  4  1  0  0  0  0
  1 27  1  0  0  0  0
  2 24  2  0  0  0  0
  2 17  1  0  0  0  0
  3  7  1  0  0  0  0
  4 37  1  6  0  0  0
  4 12  1  0  0  0  0
  6  9  2  0  0  0  0
  7 10  1  0  0  0  0
  9  3  1  0  0  0  0
  9 13  1  0  0  0  0
 10  5  1  0  0  0  0
 11 16  2  0  0  0  0
 11  6  1  0  0  0  0
 12  8  1  0  0  0  0
 13 17  1  1  0  0  0
 13 21  1  0  0  0  0
 14  2  2  0  0  0  0
 15 28  2  0  0  0  0
 16 20  1  0  0  0  0
 18  8  1  6  0  0  0
 19  5  1  1  0  0  0
 19 25  1  0  0  0  0
 19 18  1  0  0  0  0
 20 15  1  0  0  0  0
 20  3  2  0  0  0  0
 21  7  1  6  0  0  0
 21 27  1  0  0  0  0
 22  6  1  0  0  0  0
 22  2  1  0  0  0  0
 23 10  2  0  0  0  0
 23 30  1  0  0  0  0
 25 18  1  0  0  0  0
 26  8  2  0  0  0  0
 27 25  1  0  0  0  0
 28 23  1  0  0  0  0
 29 30  2  0  0  0  0
 29 35  1  0  0  0  0
 30 31  1  0  0  0  0
 31 34  2  0  0  0  0
 33 34  1  0  0  0  0
 34 32  1  0  0  0  0
 35 33  2  0  0  0  0
 37 36  1  0  0  0  0
M  END
>  <MODEL>
3

>  <REMARK>
 VINA RESULT:      -8.7      2.536      5.773
  Name = 
  2 active torsions:
  status: ('A' for Active; 'I' for Inactive)
    1  A    between atoms: C_4  and  C_37
    2  A    between atoms: C_23  and  C_30
                            x       y       z     vdW  Elec       q    Type
                         _______ _______ _______ _____ _____    ______ ____

>  <TORSDO>
F 2

$$$$
=
 OpenBabel11112417173D

 37 44  0  0  1  0  0  0  0  0999 V2000
  192.1780  173.0650  141.7970 C   0  0  0  0  0  2  0  0  0  0  0  0
  189.3540  175.6810  145.8040 S   0  0  0  0  0  0  0  0  0  0  0  0
  193.4100  174.2850  145.2350 C   0  0  0  0  0  0  0  0  0  0  0  0
  191.4800  172.7810  140.4630 C   0  0  2  0  0  3  0  0  0  0  0  0
  193.8590  170.4940  144.2420 C   0  0  0  0  0  2  0  0  0  0  0  0
  192.0170  176.2350  145.6640 C   0  0  0  0  0  0  0  0  0  0  0  0
  193.3040  172.9510  144.7250 N   0  0  0  0  0  0  0  0  0  0  0  0
  192.5830  170.5300  140.5820 C   0  0  0  0  0  0  0  0  0  0  0  0
  192.2120  174.9540  145.1420 C   0  0  0  0  0  0  0  0  0  0  0  0
  194.2400  171.8280  144.8600 C   0  0  0  0  0  0  0  0  0  0  0  0
  193.1120  176.8960  146.2190 C   0  0  0  0  0  3  0  0  0  0  0  0
  191.3690  171.2870  140.1420 C   0  0  0  0  0  2  0  0  0  0  0  0
  191.1660  174.1300  144.5170 C   0  0  2  0  0  3  0  0  0  0  0  0
  188.2340  176.0160  144.8590 O   0  0  0  0  0  0  0  0  0  0  0  0
  195.8480  174.3770  145.9200 C   0  0  0  0  0  3  0  0  0  0  0  0
  194.3560  176.2500  146.2780 C   0  0  0  0  0  3  0  0  0  0  0  0
  189.9630  174.0350  145.4440 C   0  0  0  0  0  2  0  0  0  0  0  0
  192.6570  169.9510  141.9660 C   0  0  1  0  0  3  0  0  0  0  0  0
  193.4210  170.8140  142.8490 C   0  0  1  0  0  3  0  0  0  0  0  0
  194.5160  174.9360  145.8010 C   0  0  0  0  0  0  0  0  0  0  0  0
  191.8660  172.7810  144.3560 C   0  0  1  0  0  3  0  0  0  0  0  0
  190.6690  176.8890  145.6100 C   0  0  0  0  0  2  0  0  0  0  0  0
  195.5010  171.9100  145.3710 C   0  0  0  0  0  0  0  0  0  0  0  0
  188.8440  175.7230  147.2160 O   0  0  0  0  0  0  0  0  0  0  0  0
  191.9540  170.7770  142.9780 N   0  0  1  0  0  0  0  0  0  0  0  0
  193.5190  170.3850  139.8130 O   0  0  0  0  0  0  0  0  0  0  0  0
  191.6050  172.2070  142.9460 C   0  0  2  0  0  3  0  0  0  0  0  0
  196.2370  173.1270  145.7410 C   0  0  0  0  0  3  0  0  0  0  0  0
  197.1360  170.2400  144.4660 C   0  0  0  0  0  3  0  0  0  0  0  0
  196.3330  170.6880  145.5260 C   0  0  0  0  0  0  0  0  0  0  0  0
  196.3530  169.9910  146.7440 C   0  0  0  0  0  3  0  0  0  0  0  0
  197.1610  168.1660  148.0980 O   0  0  0  0  0  1  0  0  0  0  0  0
  197.9410  168.4090  145.8290 C   0  0  0  0  0  3  0  0  0  0  0  0
  197.1520  168.8530  146.8930 C   0  0  0  0  0  0  0  0  0  0  0  0
  197.9350  169.1030  144.6160 C   0  0  0  0  0  3  0  0  0  0  0  0
  193.3260  174.2500  139.8580 N   0  0  0  0  0  1  0  0  0  0  0  0
  192.1970  173.5020  139.3340 C   0  0  0  0  0  2  0  0  0  0  0  0
  1 27  1  0  0  0  0
  2 24  2  0  0  0  0
  3 20  1  0  0  0  0
  4 37  1  6  0  0  0
  4  1  1  0  0  0  0
  5 10  1  0  0  0  0
  6 11  2  0  0  0  0
  7 10  1  0  0  0  0
  7  3  1  0  0  0  0
  9  3  2  0  0  0  0
  9  6  1  0  0  0  0
 10 23  2  0  0  0  0
 11 16  1  0  0  0  0
 12  4  1  0  0  0  0
 12  8  1  0  0  0  0
 13  9  1  0  0  0  0
 13 17  1  1  0  0  0
 14  2  2  0  0  0  0
 17  2  1  0  0  0  0
 18  8  1  6  0  0  0
 18 19  1  0  0  0  0
 18 25  1  0  0  0  0
 19 25  1  0  0  0  0
 19  5  1  1  0  0  0
 20 15  1  0  0  0  0
 20 16  2  0  0  0  0
 21 13  1  0  0  0  0
 21  7  1  6  0  0  0
 22  6  1  0  0  0  0
 22  2  1  0  0  0  0
 23 30  1  0  0  0  0
 23 28  1  0  0  0  0
 26  8  2  0  0  0  0
 27 25  1  0  0  0  0
 27 21  1  0  0  0  0
 28 15  2  0  0  0  0
 29 35  2  0  0  0  0
 29 30  1  0  0  0  0
 30 31  2  0  0  0  0
 31 34  1  0  0  0  0
 33 34  2  0  0  0  0
 34 32  1  0  0  0  0
 35 33  1  0  0  0  0
 37 36  1  0  0  0  0
M  END
>  <MODEL>
4

>  <REMARK>
 VINA RESULT:      -8.0      4.114      7.886
  Name = 
  2 active torsions:
  status: ('A' for Active; 'I' for Inactive)
    1  A    between atoms: C_4  and  C_37
    2  A    between atoms: C_23  and  C_30
                            x       y       z     vdW  Elec       q    Type
                         _______ _______ _______ _____ _____    ______ ____

>  <TORSDO>
F 2

$$$$
=
 OpenBabel11112417173D

 37 44  0  0  1  0  0  0  0  0999 V2000
  192.5270  175.2350  142.5110 C   0  0  0  0  0  2  0  0  0  0  0  0
  190.3320  171.2520  139.3180 S   0  0  0  0  0  0  0  0  0  0  0  0
  188.9240  174.8850  141.1990 C   0  0  0  0  0  0  0  0  0  0  0  0
  194.0310  175.2030  142.8070 C   0  0  2  0  0  3  0  0  0  0  0  0
  189.5560  175.2360  145.0770 C   0  0  0  0  0  2  0  0  0  0  0  0
  189.2150  173.7240  139.0800 C   0  0  0  0  0  0  0  0  0  0  0  0
  189.4120  174.8510  142.5450 N   0  0  0  0  0  0  0  0  0  0  0  0
  193.3880  175.8160  145.1550 C   0  0  0  0  0  0  0  0  0  0  0  0
  189.5730  173.9670  140.4080 C   0  0  0  0  0  0  0  0  0  0  0  0
  188.8440  175.4610  143.7550 C   0  0  0  0  0  0  0  0  0  0  0  0
  188.2180  174.5150  138.5080 C   0  0  0  0  0  3  0  0  0  0  0  0
  194.3520  175.0560  144.2980 C   0  0  0  0  0  2  0  0  0  0  0  0
  190.6070  173.2300  141.1500 C   0  0  2  0  0  3  0  0  0  0  0  0
  191.6950  170.7520  138.9260 O   0  0  0  0  0  0  0  0  0  0  0  0
  187.1790  176.7180  141.3350 C   0  0  0  0  0  3  0  0  0  0  0  0
  187.5790  175.4920  139.2850 C   0  0  0  0  0  3  0  0  0  0  0  0
  190.3500  171.7340  141.0430 C   0  0  0  0  0  2  0  0  0  0  0  0
  192.1250  175.1630  145.6390 C   0  0  1  0  0  3  0  0  0  0  0  0
  190.9950  175.5390  144.8090 C   0  0  1  0  0  3  0  0  0  0  0  0
  187.9120  175.6790  140.6390 C   0  0  0  0  0  0  0  0  0  0  0  0
  190.4100  173.7390  142.5780 C   0  0  1  0  0  3  0  0  0  0  0  0
  189.9000  172.6550  138.2830 C   0  0  0  0  0  2  0  0  0  0  0  0
  187.8030  176.3390  143.7800 C   0  0  0  0  0  0  0  0  0  0  0  0
  189.3240  170.1570  139.1200 O   0  0  0  0  0  0  0  0  0  0  0  0
  191.5680  174.1880  144.6700 N   0  0  1  0  0  0  0  0  0  0  0  0
  193.6280  176.9730  145.4580 O   0  0  0  0  0  0  0  0  0  0  0  0
  191.7720  174.0870  143.2160 C   0  0  2  0  0  3  0  0  0  0  0  0
  187.1430  176.9750  142.6300 C   0  0  0  0  0  3  0  0  0  0  0  0
  188.1380  177.1670  146.1220 C   0  0  0  0  0  3  0  0  0  0  0  0
  187.2660  176.8360  145.0740 C   0  0  0  0  0  0  0  0  0  0  0  0
  185.8840  177.0130  145.2490 C   0  0  0  0  0  3  0  0  0  0  0  0
  184.0150  177.6650  146.6270 O   0  0  0  0  0  1  0  0  0  0  0  0
  186.2580  177.8170  147.5020 C   0  0  0  0  0  3  0  0  0  0  0  0
  185.3820  177.4980  146.4600 C   0  0  0  0  0  0  0  0  0  0  0  0
  187.6350  177.6530  147.3320 C   0  0  0  0  0  3  0  0  0  0  0  0
  196.1350  176.3790  142.4620 N   0  0  0  0  0  1  0  0  0  0  0  0
  194.6990  176.4490  142.2530 C   0  0  0  0  0  2  0  0  0  0  0  0
  1  4  1  0  0  0  0
  1 27  1  0  0  0  0
  2 17  1  0  0  0  0
  3  7  1  0  0  0  0
  4 37  1  1  0  0  0
  4 12  1  0  0  0  0
  6  9  1  0  0  0  0
  7 10  1  0  0  0  0
  8 26  2  0  0  0  0
  9 13  1  0  0  0  0
  9  3  2  0  0  0  0
 10 23  2  0  0  0  0
 10  5  1  0  0  0  0
 11  6  2  0  0  0  0
 11 16  1  0  0  0  0
 12  8  1  0  0  0  0
 13 17  1  1  0  0  0
 13 21  1  0  0  0  0
 14  2  2  0  0  0  0
 15 28  2  0  0  0  0
 16 20  2  0  0  0  0
 18  8  1  6  0  0  0
 19  5  1  1  0  0  0
 19 18  1  0  0  0  0
 20  3  1  0  0  0  0
 20 15  1  0  0  0  0
 21  7  1  6  0  0  0
 21 27  1  0  0  0  0
 22  6  1  0  0  0  0
 22  2  1  0  0  0  0
 23 30  1  0  0  0  0
 24  2  2  0  0  0  0
 25 19  1  0  0  0  0
 25 18  1  0  0  0  0
 27 25  1  0  0  0  0
 28 23  1  0  0  0  0
 29 35  1  0  0  0  0
 30 31  1  0  0  0  0
 30 29  2  0  0  0  0
 31 34  2  0  0  0  0
 34 32  1  0  0  0  0
 34 33  1  0  0  0  0
 35 33  2  0  0  0  0
 37 36  1  0  0  0  0
M  END
>  <MODEL>
5

>  <REMARK>
 VINA RESULT:      -7.6      2.523      5.758
  Name = 
  2 active torsions:
  status: ('A' for Active; 'I' for Inactive)
    1  A    between atoms: C_4  and  C_37
    2  A    between atoms: C_23  and  C_30
                            x       y       z     vdW  Elec       q    Type
                         _______ _______ _______ _____ _____    ______ ____

>  <TORSDO>
F 2

$$$$
=
 OpenBabel11112417173D

 37 44  0  0  1  0  0  0  0  0999 V2000
  190.2260  176.3190  142.8590 C   0  0  0  0  0  2  0  0  0  0  0  0
  195.0130  175.2780  145.4800 S   0  0  0  0  0  0  0  0  0  0  0  0
  193.5610  175.0510  141.4110 C   0  0  0  0  0  0  0  0  0  0  0  0
  189.0640  176.9280  143.6520 C   0  0  2  0  0  3  0  0  0  0  0  0
  190.2650  172.9660  140.8160 C   0  0  0  0  0  2  0  0  0  0  0  0
  195.2210  176.0570  142.8800 C   0  0  0  0  0  0  0  0  0  0  0  0
  192.2880  174.3970  141.4790 N   0  0  0  0  0  0  0  0  0  0  0  0
  187.6120  175.3040  142.4060 C   0  0  0  0  0  0  0  0  0  0  0  0
  193.9690  175.4820  142.6520 C   0  0  0  0  0  0  0  0  0  0  0  0
  191.6100  173.5770  140.4660 C   0  0  0  0  0  0  0  0  0  0  0  0
  196.0520  176.2880  141.7830 C   0  0  0  0  0  3  0  0  0  0  0  0
  187.8240  176.0300  143.6980 C   0  0  0  0  0  2  0  0  0  0  0  0
  192.9770  175.1820  143.6950 C   0  0  2  0  0  3  0  0  0  0  0  0
  194.5650  176.0390  146.6970 O   0  0  0  0  0  0  0  0  0  0  0  0
  194.0730  174.9150  138.9330 C   0  0  0  0  0  3  0  0  0  0  0  0
  195.6320  175.9020  140.5020 C   0  0  0  0  0  3  0  0  0  0  0  0
  193.6260  174.3680  144.8050 C   0  0  0  0  0  2  0  0  0  0  0  0
  188.2450  173.9610  142.1770 C   0  0  1  0  0  3  0  0  0  0  0  0
  189.4600  174.0860  141.3930 C   0  0  1  0  0  3  0  0  0  0  0  0
  194.3920  175.2680  140.3020 C   0  0  0  0  0  0  0  0  0  0  0  0
  191.9330  174.3680  142.9300 C   0  0  1  0  0  3  0  0  0  0  0  0
  195.6520  176.4350  144.2650 C   0  0  0  0  0  2  0  0  0  0  0  0
  192.0150  173.4270  139.1740 C   0  0  0  0  0  0  0  0  0  0  0  0
  196.0970  174.3130  145.8680 O   0  0  0  0  0  0  0  0  0  0  0  0
  189.5640  173.8210  142.8390 N   0  0  1  0  0  0  0  0  0  0  0  0
  186.9250  175.8080  141.5330 O   0  0  0  0  0  0  0  0  0  0  0  0
  190.5110  174.8600  143.2760 C   0  0  2  0  0  3  0  0  0  0  0  0
  193.0910  174.1540  138.4850 C   0  0  0  0  0  3  0  0  0  0  0  0
  190.3510  173.0180  137.3450 C   0  0  0  0  0  3  0  0  0  0  0  0
  191.2880  172.5100  138.2580 C   0  0  0  0  0  0  0  0  0  0  0  0
  191.5580  171.1320  138.2690 C   0  0  0  0  0  3  0  0  0  0  0  0
  191.1540  168.9130  137.4150 O   0  0  0  0  0  1  0  0  0  0  0  0
  189.9480  170.7880  136.4940 C   0  0  0  0  0  3  0  0  0  0  0  0
  190.8870  170.2740  137.3930 C   0  0  0  0  0  0  0  0  0  0  0  0
  189.6810  172.1590  136.4690 C   0  0  0  0  0  3  0  0  0  0  0  0
  188.9410  178.3090  141.6500 N   0  0  0  0  0  1  0  0  0  0  0  0
  188.6980  178.2870  143.0820 C   0  0  0  0  0  2  0  0  0  0  0  0
  1 27  1  0  0  0  0
  1  4  1  0  0  0  0
  2 24  2  0  0  0  0
  2 14  2  0  0  0  0
  3  7  1  0  0  0  0
  3  9  1  0  0  0  0
  4 37  1  6  0  0  0
  4 12  1  0  0  0  0
  6 22  1  0  0  0  0
  8 12  1  0  0  0  0
  9  6  2  0  0  0  0
  9 13  1  0  0  0  0
 10  5  1  0  0  0  0
 10  7  1  0  0  0  0
 11  6  1  0  0  0  0
 13 17  1  1  0  0  0
 15 20  1  0  0  0  0
 16 11  2  0  0  0  0
 17  2  1  0  0  0  0
 18  8  1  1  0  0  0
 18 25  1  0  0  0  0
 19  5  1  6  0  0  0
 19 18  1  0  0  0  0
 19 25  1  0  0  0  0
 20 16  1  0  0  0  0
 20  3  2  0  0  0  0
 21  7  1  6  0  0  0
 21 27  1  0  0  0  0
 21 13  1  0  0  0  0
 22  2  1  0  0  0  0
 23 10  2  0  0  0  0
 25 27  1  0  0  0  0
 26  8  2  0  0  0  0
 28 15  2  0  0  0  0
 28 23  1  0  0  0  0
 29 30  1  0  0  0  0
 30 31  2  0  0  0  0
 30 23  1  0  0  0  0
 33 34  2  0  0  0  0
 34 32  1  0  0  0  0
 34 31  1  0  0  0  0
 35 33  1  0  0  0  0
 35 29  2  0  0  0  0
 36 37  1  0  0  0  0
M  END
>  <MODEL>
6

>  <REMARK>
 VINA RESULT:      -7.5      2.885      6.860
  Name = 
  2 active torsions:
  status: ('A' for Active; 'I' for Inactive)
    1  A    between atoms: C_4  and  C_37
    2  A    between atoms: C_23  and  C_30
                            x       y       z     vdW  Elec       q    Type
                         _______ _______ _______ _____ _____    ______ ____

>  <TORSDO>
F 2

$$$$
=
 OpenBabel11112417173D

 37 44  0  0  1  0  0  0  0  0999 V2000
  191.6630  175.7050  145.3440 C   0  0  0  0  0  2  0  0  0  0  0  0
  187.3450  177.7020  142.4720 S   0  0  0  0  0  0  0  0  0  0  0  0
  190.1500  174.4360  142.0390 C   0  0  0  0  0  0  0  0  0  0  0  0
  192.0020  176.3290  146.7020 C   0  0  2  0  0  3  0  0  0  0  0  0
  193.9830  175.3550  142.1960 C   0  0  0  0  0  2  0  0  0  0  0  0
  187.7970  175.0270  142.2420 C   0  0  0  0  0  0  0  0  0  0  0  0
  191.4460  174.9880  142.2960 N   0  0  0  0  0  0  0  0  0  0  0  0
  194.3950  176.1720  145.9630 C   0  0  0  0  0  0  0  0  0  0  0  0
  189.1520  175.2800  142.4680 C   0  0  0  0  0  0  0  0  0  0  0  0
  192.7560  174.5600  141.7860 C   0  0  0  0  0  0  0  0  0  0  0  0
  187.4410  173.8210  141.6380 C   0  0  0  0  0  3  0  0  0  0  0  0
  193.3960  176.9640  146.7470 C   0  0  0  0  0  2  0  0  0  0  0  0
  189.6890  176.4950  143.0990 C   0  0  2  0  0  3  0  0  0  0  0  0
  186.8840  178.5190  143.6470 O   0  0  0  0  0  0  0  0  0  0  0  0
  190.7430  172.2190  140.9640 C   0  0  0  0  0  3  0  0  0  0  0  0
  188.4430  172.9240  141.2390 C   0  0  0  0  0  3  0  0  0  0  0  0
  189.1350  177.7270  142.3990 C   0  0  0  0  0  2  0  0  0  0  0  0
  194.6100  176.4520  144.5030 C   0  0  1  0  0  3  0  0  0  0  0  0
  193.8790  175.5070  143.6790 C   0  0  1  0  0  3  0  0  0  0  0  0
  189.8050  173.2250  141.4200 C   0  0  0  0  0  0  0  0  0  0  0  0
  191.1930  176.3420  142.8740 C   0  0  1  0  0  3  0  0  0  0  0  0
  186.7520  176.0180  142.6570 C   0  0  0  0  0  2  0  0  0  0  0  0
  192.9930  173.4170  141.0850 C   0  0  0  0  0  0  0  0  0  0  0  0
  186.7900  178.2910  141.2070 O   0  0  0  0  0  0  0  0  0  0  0  0
  193.3740  176.8850  143.8080 N   0  0  1  0  0  0  0  0  0  0  0  0
  195.0360  175.2910  146.5130 O   0  0  0  0  0  0  0  0  0  0  0  0
  191.9640  176.6650  144.1720 C   0  0  2  0  0  3  0  0  0  0  0  0
  192.0540  172.3140  140.8290 C   0  0  0  0  0  3  0  0  0  0  0  0
  195.2230  172.2870  141.2690 C   0  0  0  0  0  3  0  0  0  0  0  0
  194.3510  173.1240  140.5560 C   0  0  0  0  0  0  0  0  0  0  0  0
  194.7620  173.6500  139.3210 C   0  0  0  0  0  3  0  0  0  0  0  0
  196.4330  173.8880  137.5980 O   0  0  0  0  0  1  0  0  0  0  0  0
  196.8980  172.5310  139.5380 C   0  0  0  0  0  3  0  0  0  0  0  0
  196.0320  173.3580  138.8160 C   0  0  0  0  0  0  0  0  0  0  0  0
  196.4920  171.9950  140.7630 C   0  0  0  0  0  3  0  0  0  0  0  0
  190.4750  174.9240  147.9760 N   0  0  0  0  0  1  0  0  0  0  0  0
  191.8690  175.2910  147.8020 C   0  0  0  0  0  2  0  0  0  0  0  0
  1  4  1  0  0  0  0
  2 22  1  0  0  0  0
  2 14  2  0  0  0  0
  3  7  1  0  0  0  0
  3  9  1  0  0  0  0
  4 12  1  0  0  0  0
  4 37  1  1  0  0  0
  6  9  2  0  0  0  0
  6 22  1  0  0  0  0
  8 26  2  0  0  0  0
  8 12  1  0  0  0  0
  9 13  1  0  0  0  0
 10  5  1  0  0  0  0
 10  7  1  0  0  0  0
 11  6  1  0  0  0  0
 13 17  1  6  0  0  0
 15 20  1  0  0  0  0
 16 20  1  0  0  0  0
 16 11  2  0  0  0  0
 17  2  1  0  0  0  0
 18  8  1  1  0  0  0
 19  5  1  6  0  0  0
 19 25  1  0  0  0  0
 19 18  1  0  0  0  0
 20  3  2  0  0  0  0
 21  7  1  1  0  0  0
 21 13  1  0  0  0  0
 21 27  1  0  0  0  0
 23 10  2  0  0  0  0
 24  2  2  0  0  0  0
 25 27  1  0  0  0  0
 25 18  1  0  0  0  0
 27  1  1  0  0  0  0
 28 15  2  0  0  0  0
 28 23  1  0  0  0  0
 30 23  1  0  0  0  0
 30 29  2  0  0  0  0
 31 30  1  0  0  0  0
 32 34  1  0  0  0  0
 33 35  2  0  0  0  0
 34 31  2  0  0  0  0
 34 33  1  0  0  0  0
 35 29  1  0  0  0  0
 37 36  1  0  0  0  0
M  END
>  <MODEL>
7

>  <REMARK>
 VINA RESULT:      -7.4      2.931      8.231
  Name = 
  2 active torsions:
  status: ('A' for Active; 'I' for Inactive)
    1  A    between atoms: C_4  and  C_37
    2  A    between atoms: C_23  and  C_30
                            x       y       z     vdW  Elec       q    Type
                         _______ _______ _______ _____ _____    ______ ____

>  <TORSDO>
F 2

$$$$
=
 OpenBabel11112417173D

 37 44  0  0  1  0  0  0  0  0999 V2000
  192.8630  174.1660  139.9680 C   0  0  0  0  0  2  0  0  0  0  0  0
  187.9390  175.8640  141.9030 S   0  0  0  0  0  0  0  0  0  0  0  0
  191.8640  175.1150  143.5630 C   0  0  0  0  0  0  0  0  0  0  0  0
  193.0340  173.9530  138.4590 C   0  0  2  0  0  3  0  0  0  0  0  0
  193.4440  171.5700  142.8560 C   0  0  0  0  0  2  0  0  0  0  0  0
  190.1280  176.7890  143.2320 C   0  0  0  0  0  0  0  0  0  0  0  0
  192.2840  173.8510  143.0360 N   0  0  0  0  0  0  0  0  0  0  0  0
  194.2950  171.8760  139.0860 C   0  0  0  0  0  0  0  0  0  0  0  0
  190.7960  175.6200  142.8600 C   0  0  0  0  0  0  0  0  0  0  0  0
  193.1960  172.8580  143.6200 C   0  0  0  0  0  0  0  0  0  0  0  0
  190.6290  177.5220  144.3090 C   0  0  0  0  0  3  0  0  0  0  0  0
  193.3800  172.5090  138.0850 C   0  0  0  0  0  2  0  0  0  0  0  0
  190.4020  174.7430  141.7470 C   0  0  2  0  0  3  0  0  0  0  0  0
  187.4430  176.1540  140.5140 O   0  0  0  0  0  0  0  0  0  0  0  0
  193.5170  175.4560  145.4530 C   0  0  0  0  0  3  0  0  0  0  0  0
  191.7490  177.0490  145.0070 C   0  0  0  0  0  3  0  0  0  0  0  0
  188.9320  174.3730  141.8780 C   0  0  0  0  0  2  0  0  0  0  0  0
  193.7350  171.1490  140.2760 C   0  0  1  0  0  3  0  0  0  0  0  0
  193.7520  171.9940  141.4560 C   0  0  1  0  0  3  0  0  0  0  0  0
  192.3700  175.8380  144.6540 C   0  0  0  0  0  0  0  0  0  0  0  0
  191.3130  173.5320  141.9470 C   0  0  1  0  0  3  0  0  0  0  0  0
  188.9170  177.2550  142.4810 C   0  0  0  0  0  2  0  0  0  0  0  0
  193.9610  173.0490  144.7320 C   0  0  0  0  0  0  0  0  0  0  0  0
  186.7660  175.6630  142.8190 O   0  0  0  0  0  0  0  0  0  0  0  0
  192.4700  171.7420  140.7740 N   0  0  1  0  0  0  0  0  0  0  0  0
  195.5040  171.9550  138.9370 O   0  0  0  0  0  0  0  0  0  0  0  0
  191.9390  173.1040  140.6020 C   0  0  2  0  0  3  0  0  0  0  0  0
  194.1600  174.3020  145.4750 C   0  0  0  0  0  3  0  0  0  0  0  0
  196.1900  172.0710  145.3320 C   0  0  0  0  0  3  0  0  0  0  0  0
  194.7930  171.9430  145.2730 C   0  0  0  0  0  0  0  0  0  0  0  0
  194.1900  170.7750  145.7650 C   0  0  0  0  0  3  0  0  0  0  0  0
  194.3710  168.5890  146.7700 O   0  0  0  0  0  1  0  0  0  0  0  0
  196.3640  169.8760  146.3380 C   0  0  0  0  0  3  0  0  0  0  0  0
  194.9740  169.7440  146.2920 C   0  0  0  0  0  0  0  0  0  0  0  0
  196.9720  171.0410  145.8600 C   0  0  0  0  0  3  0  0  0  0  0  0
  194.9960  175.3000  138.9790 N   0  0  0  0  0  1  0  0  0  0  0  0
  194.0920  174.8970  137.9150 C   0  0  0  0  0  2  0  0  0  0  0  0
  1 27  1  0  0  0  0
  2 22  1  0  0  0  0
  2 24  2  0  0  0  0
  3 20  1  0  0  0  0
  4 37  1  1  0  0  0
  4  1  1  0  0  0  0
  5 10  1  0  0  0  0
  6 11  2  0  0  0  0
  7  3  1  0  0  0  0
  7 10  1  0  0  0  0
  9  6  1  0  0  0  0
  9  3  2  0  0  0  0
 10 23  2  0  0  0  0
 11 16  1  0  0  0  0
 12  4  1  0  0  0  0
 12  8  1  0  0  0  0
 13 17  1  1  0  0  0
 13 21  1  0  0  0  0
 13  9  1  0  0  0  0
 14  2  2  0  0  0  0
 15 28  2  0  0  0  0
 17  2  1  0  0  0  0
 18  8  1  6  0  0  0
 18 25  1  0  0  0  0
 18 19  1  0  0  0  0
 19  5  1  1  0  0  0
 20 16  2  0  0  0  0
 20 15  1  0  0  0  0
 21  7  1  1  0  0  0
 22  6  1  0  0  0  0
 23 30  1  0  0  0  0
 23 28  1  0  0  0  0
 25 19  1  0  0  0  0
 26  8  2  0  0  0  0
 27 25  1  0  0  0  0
 27 21  1  0  0  0  0
 29 35  1  0  0  0  0
 30 29  2  0  0  0  0
 30 31  1  0  0  0  0
 31 34  2  0  0  0  0
 34 33  1  0  0  0  0
 34 32  1  0  0  0  0
 35 33  2  0  0  0  0
 37 36  1  0  0  0  0
M  END
>  <MODEL>
8

>  <REMARK>
 VINA RESULT:      -7.3      3.746      7.377
  Name = 
  2 active torsions:
  status: ('A' for Active; 'I' for Inactive)
    1  A    between atoms: C_4  and  C_37
    2  A    between atoms: C_23  and  C_30
                            x       y       z     vdW  Elec       q    Type
                         _______ _______ _______ _____ _____    ______ ____

>  <TORSDO>
F 2

$$$$
=
 OpenBabel11112417173D

 37 44  0  0  1  0  0  0  0  0999 V2000
  191.6240  175.7060  143.5480 C   0  0  0  0  0  2  0  0  0  0  0  0
  196.6920  173.7750  144.7540 S   0  0  0  0  0  0  0  0  0  0  0  0
  194.4530  174.6540  141.1580 C   0  0  0  0  0  0  0  0  0  0  0  0
  190.7120  176.1630  144.6920 C   0  0  2  0  0  3  0  0  0  0  0  0
  190.9000  172.9730  140.8230 C   0  0  0  0  0  2  0  0  0  0  0  0
  196.4680  175.1660  142.4240 C   0  0  0  0  0  0  0  0  0  0  0  0
  193.1560  174.0770  141.3460 N   0  0  0  0  0  0  0  0  0  0  0  0
  188.8780  174.9850  143.4480 C   0  0  0  0  0  0  0  0  0  0  0  0
  195.1410  174.7380  142.3460 C   0  0  0  0  0  0  0  0  0  0  0  0
  192.2080  173.5750  140.3420 C   0  0  0  0  0  0  0  0  0  0  0  0
  197.0870  175.6160  141.2580 C   0  0  0  0  0  3  0  0  0  0  0  0
  189.4160  175.3520  144.7960 C   0  0  0  0  0  2  0  0  0  0  0  0
  194.3470  174.2440  143.4800 C   0  0  2  0  0  3  0  0  0  0  0  0
  196.5760  174.2320  146.1820 O   0  0  0  0  0  0  0  0  0  0  0  0
  194.4510  175.1130  138.6650 C   0  0  0  0  0  3  0  0  0  0  0  0
  196.3850  175.5870  140.0440 C   0  0  0  0  0  3  0  0  0  0  0  0
  195.1090  173.1430  144.2030 C   0  0  0  0  0  2  0  0  0  0  0  0
  189.3050  173.7080  142.7820 C   0  0  1  0  0  3  0  0  0  0  0  0
  190.3500  173.9570  141.8050 C   0  0  1  0  0  3  0  0  0  0  0  0
  195.0690  175.0940  139.9760 C   0  0  0  0  0  0  0  0  0  0  0  0
  193.0920  173.7070  142.7920 C   0  0  1  0  0  3  0  0  0  0  0  0
  197.2010  175.1610  143.7320 C   0  0  0  0  0  2  0  0  0  0  0  0
  192.3330  173.7290  138.9940 C   0  0  0  0  0  0  0  0  0  0  0  0
  197.7200  172.6840  144.6630 O   0  0  0  0  0  0  0  0  0  0  0  0
  190.7060  173.3340  143.0910 N   0  0  1  0  0  0  0  0  0  0  0  0
  188.0910  175.7290  142.8870 O   0  0  0  0  0  0  0  0  0  0  0  0
  191.8270  174.1750  143.5420 C   0  0  2  0  0  3  0  0  0  0  0  0
  193.3250  174.5440  138.2760 C   0  0  0  0  0  3  0  0  0  0  0  0
  190.2220  173.8400  137.6460 C   0  0  0  0  0  3  0  0  0  0  0  0
  191.3460  173.1130  138.0690 C   0  0  0  0  0  0  0  0  0  0  0  0
  191.5450  171.8120  137.5800 C   0  0  0  0  0  3  0  0  0  0  0  0
  190.8270  169.9530  136.2230 O   0  0  0  0  0  1  0  0  0  0  0  0
  189.5050  171.9690  136.2870 C   0  0  0  0  0  3  0  0  0  0  0  0
  190.6260  171.2410  136.6960 C   0  0  0  0  0  0  0  0  0  0  0  0
  189.3040  173.2690  136.7610 C   0  0  0  0  0  3  0  0  0  0  0  0
  191.1650  178.2150  143.4610 N   0  0  0  0  0  1  0  0  0  0  0  0
  190.3900  177.6400  144.5470 C   0  0  0  0  0  2  0  0  0  0  0  0
  1  4  1  0  0  0  0
  2 14  2  0  0  0  0
  3  7  1  0  0  0  0
  3  9  1  0  0  0  0
  4 37  1  6  0  0  0
  4 12  1  0  0  0  0
  6 22  1  0  0  0  0
  8 12  1  0  0  0  0
  9  6  2  0  0  0  0
  9 13  1  0  0  0  0
 10  5  1  0  0  0  0
 10  7  1  0  0  0  0
 11  6  1  0  0  0  0
 13 17  1  6  0  0  0
 15 20  1  0  0  0  0
 16 11  2  0  0  0  0
 17  2  1  0  0  0  0
 18 25  1  0  0  0  0
 18  8  1  1  0  0  0
 19  5  1  6  0  0  0
 19 18  1  0  0  0  0
 19 25  1  0  0  0  0
 20 16  1  0  0  0  0
 20  3  2  0  0  0  0
 21  7  1  6  0  0  0
 21 13  1  0  0  0  0
 21 27  1  0  0  0  0
 22  2  1  0  0  0  0
 23 10  2  0  0  0  0
 24  2  2  0  0  0  0
 25 27  1  0  0  0  0
 26  8  2  0  0  0  0
 27  1  1  0  0  0  0
 28 15  2  0  0  0  0
 28 23  1  0  0  0  0
 29 30  1  0  0  0  0
 30 23  1  0  0  0  0
 31 30  2  0  0  0  0
 32 34  1  0  0  0  0
 33 34  2  0  0  0  0
 33 35  1  0  0  0  0
 34 31  1  0  0  0  0
 35 29  2  0  0  0  0
 36 37  1  0  0  0  0
M  END
>  <MODEL>
9

>  <REMARK>
 VINA RESULT:      -7.3      3.091      6.891
  Name = 
  2 active torsions:
  status: ('A' for Active; 'I' for Inactive)
    1  A    between atoms: C_4  and  C_37
    2  A    between atoms: C_23  and  C_30
                            x       y       z     vdW  Elec       q    Type
                         _______ _______ _______ _____ _____    ______ ____

>  <TORSDO>
F 2

$$$$
