=
 OpenBabel11112416283D

 32 38  0  0  1  0  0  0  0  0999 V2000
  186.2720  176.8770  145.2290 C   0  0  2  0  0  3  0  0  0  0  0  0
  191.2090  175.8540  143.0690 C   0  0  1  0  0  3  0  0  0  0  0  0
  190.2830  172.9110  139.1760 C   0  0  0  0  0  3  0  0  0  0  0  0
  191.6290  172.9770  138.8160 C   0  0  0  0  0  3  0  0  0  0  0  0
  193.6570  176.2070  143.8710 C   0  0  2  0  0  3  0  0  0  0  0  0
  195.1010  175.6910  143.7890 C   0  0  2  0  0  3  0  0  0  0  0  0
  189.1710  176.6670  144.3390 C   0  0  1  0  0  3  0  0  0  0  0  0
  189.0120  175.4980  142.1980 O   0  0  0  0  0  0  0  0  0  0  0  0
  196.4280  175.9190  141.9480 C   0  0  0  0  0  0  0  0  0  0  0  0
  186.8840  176.0030  143.1500 C   0  0  0  0  0  2  0  0  0  0  0  0
  189.8470  173.5280  140.3500 C   0  0  0  0  0  3  0  0  0  0  0  0
  190.2340  174.8480  142.4400 C   0  0  1  0  0  3  0  0  0  0  0  0
  190.7470  174.2220  141.1730 C   0  0  0  0  0  0  0  0  0  0  0  0
  193.1140  175.0090  141.6820 C   0  0  2  0  0  3  0  0  0  0  0  0
  196.8650  176.8420  142.9190 N   0  0  0  0  0  0  0  0  0  0  0  0
  187.3770  177.6430  145.9180 C   0  0  0  0  0  2  0  0  0  0  0  0
  188.3680  175.6570  143.4390 C   0  0  2  0  0  3  0  0  0  0  0  0
  196.0610  176.7730  144.0720 N   0  0  0  0  0  0  0  0  0  0  0  0
  188.6500  176.7970  145.7870 C   0  0  0  0  0  2  0  0  0  0  0  0
  186.4920  177.3090  143.7960 C   0  0  1  0  0  3  0  0  0  0  0  0
  192.5380  173.6440  139.6390 C   0  0  0  0  0  3  0  0  0  0  0  0
  192.1190  174.2420  140.8400 C   0  0  0  0  0  0  0  0  0  0  0  0
  194.4970  174.3580  141.6510 C   0  0  0  0  0  2  0  0  0  0  0  0
  190.6280  176.2120  144.4350 C   0  0  0  0  0  2  0  0  0  0  0  0
  193.3370  176.3500  145.3510 C   0  0  0  0  0  1  0  0  0  0  0  0
  196.9660  175.8540  140.5610 C   0  0  0  0  0  1  0  0  0  0  0  0
  192.6380  175.2710  143.1390 C   0  0  2  0  0  3  0  0  0  0  0  0
  195.4150  175.2360  142.4140 C   0  0  0  0  0  0  0  0  0  0  0  0
  185.1320  177.4940  144.4250 C   0  0  2  0  0  3  0  0  0  0  0  0
  184.9030  178.9260  144.7970 C   0  0  0  0  0  0  0  0  0  0  0  0
  185.5160  179.9430  144.0750 O   0  0  0  0  0  0  0  0  0  0  0  0
  184.1210  179.2150  145.7400 O   0  0  0  0  0  1  0  0  0  0  0  0
  1 16  1  1  0  0  0
  2 27  1  0  0  0  0
  2 24  1  1  0  0  0
  3 11  1  0  0  0  0
  4  3  2  0  0  0  0
  4 21  1  0  0  0  0
  5 25  1  1  0  0  0
  6 28  1  6  0  0  0
  6  5  1  0  0  0  0
  6 18  1  0  0  0  0
  7 24  1  1  0  0  0
  7 19  1  0  0  0  0
  8 12  1  0  0  0  0
  8 17  1  0  0  0  0
  9 28  2  0  0  0  0
  9 15  1  0  0  0  0
 11 13  2  0  0  0  0
 12 13  1  6  0  0  0
 12  2  1  0  0  0  0
 14 23  1  1  0  0  0
 14 27  1  0  0  0  0
 15 18  2  0  0  0  0
 17 10  1  6  0  0  0
 17  7  1  0  0  0  0
 19 16  1  0  0  0  0
 20 10  1  6  0  0  0
 20 29  1  0  0  0  0
 20  1  1  0  0  0  0
 21 22  2  0  0  0  0
 22 13  1  0  0  0  0
 22 14  1  0  0  0  0
 23 28  1  0  0  0  0
 26  9  1  0  0  0  0
 27  5  1  0  0  0  0
 29 30  1  0  0  0  0
 29  1  1  0  0  0  0
 30 32  1  0  0  0  0
 31 30  2  0  0  0  0
M  END
>  <MODEL>
1

>  <REMARK>
 VINA RESULT:      -8.7      0.000      0.000
  Name = 
  1 active torsions:
  status: ('A' for Active; 'I' for Inactive)
    1  A    between atoms: C_29  and  C_30
                            x       y       z     vdW  Elec       q    Type
                         _______ _______ _______ _____ _____    ______ ____

>  <TORSDO>
F 1

$$$$
=
 OpenBabel11112416283D

 32 38  0  0  1  0  0  0  0  0999 V2000
  186.6630  177.9330  144.0500 C   0  0  2  0  0  3  0  0  0  0  0  0
  190.5630  174.0790  143.9440 C   0  0  1  0  0  3  0  0  0  0  0  0
  194.4630  176.1850  146.1870 C   0  0  0  0  0  3  0  0  0  0  0  0
  195.1470  174.9720  146.1190 C   0  0  0  0  0  3  0  0  0  0  0  0
  190.8550  171.8160  142.6970 C   0  0  2  0  0  3  0  0  0  0  0  0
  191.8640  170.8190  142.1050 C   0  0  2  0  0  3  0  0  0  0  0  0
  188.4610  175.4900  143.8440 C   0  0  1  0  0  3  0  0  0  0  0  0
  190.4120  176.1220  145.1740 O   0  0  0  0  0  0  0  0  0  0  0  0
  193.2130  169.4800  143.3650 C   0  0  0  0  0  0  0  0  0  0  0  0
  188.6720  177.7530  145.2300 C   0  0  0  0  0  2  0  0  0  0  0  0
  193.2000  176.3040  145.6030 C   0  0  0  0  0  3  0  0  0  0  0  0
  191.2560  175.3980  144.3140 C   0  0  1  0  0  3  0  0  0  0  0  0
  192.6070  175.2130  144.9500 C   0  0  0  0  0  0  0  0  0  0  0  0
  192.7000  172.7930  144.1690 C   0  0  2  0  0  3  0  0  0  0  0  0
  192.1830  168.6820  142.8280 N   0  0  0  0  0  0  0  0  0  0  0  0
  186.1690  176.6230  143.4830 C   0  0  0  0  0  2  0  0  0  0  0  0
  189.3710  176.6510  144.3900 C   0  0  2  0  0  3  0  0  0  0  0  0
  191.2930  169.4600  142.0640 N   0  0  0  0  0  2  0  0  0  0  0  0
  187.3790  175.9370  142.8350 C   0  0  0  0  0  2  0  0  0  0  0  0
  187.1990  177.4680  145.3860 C   0  0  1  0  0  3  0  0  0  0  0  0
  194.5760  173.8870  145.4520 C   0  0  0  0  0  3  0  0  0  0  0  0
  193.3210  174.0010  144.8310 C   0  0  0  0  0  0  0  0  0  0  0  0
  193.7560  171.9180  143.4910 C   0  0  0  0  0  2  0  0  0  0  0  0
  189.3320  174.4600  143.1250 C   0  0  0  0  0  2  0  0  0  0  0  0
  189.8280  172.0830  141.6070 C   0  0  0  0  0  1  0  0  0  0  0  0
  194.2210  168.9890  144.3440 C   0  0  0  0  0  1  0  0  0  0  0  0
  191.5340  173.1340  143.1990 C   0  0  2  0  0  3  0  0  0  0  0  0
  193.0640  170.7170  142.9670 C   0  0  2  0  0  3  0  0  0  0  0  0
  186.1770  178.5800  145.3430 C   0  0  2  0  0  3  0  0  0  0  0  0
  184.8230  178.0800  145.7390 C   0  0  0  0  0  0  0  0  0  0  0  0
  184.7000  176.9490  146.5380 O   0  0  0  0  0  1  0  0  0  0  0  0
  183.7920  178.7060  145.3810 O   0  0  0  0  0  0  0  0  0  0  0  0
  1 16  1  1  0  0  0
  1 29  1  0  0  0  0
  1 20  1  0  0  0  0
  2 24  1  6  0  0  0
  2 12  1  0  0  0  0
  4  3  1  0  0  0  0
  5 25  1  6  0  0  0
  5 27  1  0  0  0  0
  6 18  1  1  0  0  0
  6  5  1  0  0  0  0
  6 28  1  0  0  0  0
  7 19  1  6  0  0  0
  7 17  1  0  0  0  0
  9 26  1  0  0  0  0
 11  3  2  0  0  0  0
 12 13  1  1  0  0  0
 12  8  1  0  0  0  0
 13 11  1  0  0  0  0
 14 23  1  6  0  0  0
 14 22  1  0  0  0  0
 15  9  2  0  0  0  0
 17  8  1  0  0  0  0
 17 10  1  1  0  0  0
 18 15  1  0  0  0  0
 19 16  1  0  0  0  0
 20 10  1  6  0  0  0
 21  4  2  0  0  0  0
 22 13  2  0  0  0  0
 22 21  1  0  0  0  0
 24  7  1  0  0  0  0
 27  2  1  0  0  0  0
 27 14  1  0  0  0  0
 28  9  1  0  0  0  0
 28 23  1  0  0  0  0
 29 20  1  0  0  0  0
 29 30  1  0  0  0  0
 30 31  1  0  0  0  0
 32 30  2  0  0  0  0
M  END
>  <MODEL>
2

>  <REMARK>
 VINA RESULT:      -8.7      3.272      5.035
  Name = 
  1 active torsions:
  status: ('A' for Active; 'I' for Inactive)
    1  A    between atoms: C_29  and  C_30
                            x       y       z     vdW  Elec       q    Type
                         _______ _______ _______ _____ _____    ______ ____

>  <TORSDO>
F 1

$$$$
=
 OpenBabel11112416283D

 32 38  0  0  1  0  0  0  0  0999 V2000
  192.0910  172.0130  141.2990 C   0  0  2  0  0  3  0  0  0  0  0  0
  188.4150  175.5170  143.3700 C   0  0  1  0  0  3  0  0  0  0  0  0
  186.1470  177.4430  139.3930 C   0  0  0  0  0  3  0  0  0  0  0  0
  185.2570  178.1110  140.2330 C   0  0  0  0  0  3  0  0  0  0  0  0
  188.0090  176.5540  145.7190 C   0  0  2  0  0  3  0  0  0  0  0  0
  187.4690  177.7690  146.4890 C   0  0  2  0  0  3  0  0  0  0  0  0
  190.1630  173.7470  142.8860 C   0  0  1  0  0  3  0  0  0  0  0  0
  188.6560  174.6170  141.1690 O   0  0  0  0  0  0  0  0  0  0  0  0
  185.2520  178.2710  146.6730 C   0  0  0  0  0  0  0  0  0  0  0  0
  190.2440  173.0530  140.3170 C   0  0  0  0  0  2  0  0  0  0  0  0
  187.1960  176.7030  139.9400 C   0  0  0  0  0  3  0  0  0  0  0  0
  188.5260  175.8280  141.8700 C   0  0  1  0  0  3  0  0  0  0  0  0
  187.3650  176.6170  141.3300 C   0  0  0  0  0  0  0  0  0  0  0  0
  186.6270  177.2410  143.6850 C   0  0  2  0  0  3  0  0  0  0  0  0
  185.6840  177.7440  147.9060 N   0  0  0  0  0  0  0  0  0  0  0  0
  192.0390  171.9750  142.8080 C   0  0  0  0  0  2  0  0  0  0  0  0
  189.9670  174.1510  141.3780 C   0  0  2  0  0  3  0  0  0  0  0  0
  187.0430  177.3810  147.8470 N   0  0  0  0  0  0  0  0  0  0  0  0
  191.6120  173.3740  143.2710 C   0  0  0  0  0  2  0  0  0  0  0  0
  190.6390  171.7520  140.9690 C   0  0  1  0  0  3  0  0  0  0  0  0
  185.4290  178.0520  141.6170 C   0  0  0  0  0  3  0  0  0  0  0  0
  186.5000  177.3380  142.1810 C   0  0  0  0  0  0  0  0  0  0  0  0
  186.1920  178.5360  144.3710 C   0  0  0  0  0  2  0  0  0  0  0  0
  189.7590  174.9190  143.7810 C   0  0  0  0  0  2  0  0  0  0  0  0
  189.3990  176.2790  146.2740 C   0  0  0  0  0  1  0  0  0  0  0  0
  183.8340  178.6010  146.3610 C   0  0  0  0  0  1  0  0  0  0  0  0
  188.0310  176.7810  144.1710 C   0  0  2  0  0  3  0  0  0  0  0  0
  186.2540  178.3040  145.8330 C   0  0  0  0  0  0  0  0  0  0  0  0
  191.7060  170.8670  140.3680 C   0  0  2  0  0  3  0  0  0  0  0  0
  191.7620  169.5440  141.0660 C   0  0  0  0  0  0  0  0  0  0  0  0
  190.6210  169.0180  141.6600 O   0  0  0  0  0  1  0  0  0  0  0  0
  192.8340  168.8850  141.0810 O   0  0  0  0  0  0  0  0  0  0  0  0
  1 16  1  1  0  0  0
  2 24  1  1  0  0  0
  2 27  1  0  0  0  0
  3 11  2  0  0  0  0
  3  4  1  0  0  0  0
  4 21  2  0  0  0  0
  5 25  1  1  0  0  0
  5  6  1  0  0  0  0
  6 28  1  6  0  0  0
  6 18  1  0  0  0  0
  7 19  1  6  0  0  0
  7 24  1  0  0  0  0
  8 17  1  0  0  0  0
  9 15  1  0  0  0  0
 11 13  1  0  0  0  0
 12  8  1  6  0  0  0
 12  2  1  0  0  0  0
 13 12  1  0  0  0  0
 13 22  2  0  0  0  0
 14 27  1  0  0  0  0
 14 23  1  1  0  0  0
 16 19  1  0  0  0  0
 17 10  1  6  0  0  0
 17  7  1  0  0  0  0
 18 15  2  0  0  0  0
 20 10  1  6  0  0  0
 20  1  1  0  0  0  0
 21 22  1  0  0  0  0
 22 14  1  0  0  0  0
 23 28  1  0  0  0  0
 26  9  1  0  0  0  0
 27  5  1  0  0  0  0
 28  9  2  0  0  0  0
 29 20  1  0  0  0  0
 29 30  1  0  0  0  0
 29  1  1  0  0  0  0
 30 32  2  0  0  0  0
 30 31  1  0  0  0  0
M  END
>  <MODEL>
3

>  <REMARK>
 VINA RESULT:      -8.5      4.043      8.217
  Name = 
  1 active torsions:
  status: ('A' for Active; 'I' for Inactive)
    1  A    between atoms: C_29  and  C_30
                            x       y       z     vdW  Elec       q    Type
                         _______ _______ _______ _____ _____    ______ ____

>  <TORSDO>
F 1

$$$$
=
 OpenBabel11112416283D

 32 38  0  0  1  0  0  0  0  0999 V2000
  180.9940  179.3520  141.1020 C   0  0  2  0  0  3  0  0  0  0  0  0
  185.6220  177.3280  143.2370 C   0  0  1  0  0  3  0  0  0  0  0  0
  185.9410  179.4160  147.7330 C   0  0  0  0  0  3  0  0  0  0  0  0
  187.0530  178.6230  148.0140 C   0  0  0  0  0  3  0  0  0  0  0  0
  187.6460  176.0070  142.2780 C   0  0  2  0  0  3  0  0  0  0  0  0
  189.1480  175.7170  142.4170 C   0  0  2  0  0  3  0  0  0  0  0  0
  183.5510  177.9160  141.8990 C   0  0  1  0  0  3  0  0  0  0  0  0
  183.8140  178.5130  144.2540 O   0  0  0  0  0  0  0  0  0  0  0  0
  190.0500  174.4730  144.1020 C   0  0  0  0  0  0  0  0  0  0  0  0
  181.7890  179.3370  143.2990 C   0  0  0  0  0  2  0  0  0  0  0  0
  185.3530  179.3640  146.4680 C   0  0  0  0  0  3  0  0  0  0  0  0
  185.2120  178.5180  144.1180 C   0  0  1  0  0  3  0  0  0  0  0  0
  185.8650  178.5180  145.4730 C   0  0  0  0  0  0  0  0  0  0  0  0
  187.5840  176.8060  144.7020 C   0  0  2  0  0  3  0  0  0  0  0  0
  190.0590  173.6920  142.9290 N   0  0  0  0  0  0  0  0  0  0  0  0
  181.6380  178.3150  140.2120 C   0  0  0  0  0  2  0  0  0  0  0  0
  183.2720  178.9650  143.0370 C   0  0  2  0  0  3  0  0  0  0  0  0
  189.4810  174.3960  141.8560 N   0  0  0  0  0  2  0  0  0  0  0  0
  183.1470  178.3780  140.4810 C   0  0  0  0  0  2  0  0  0  0  0  0
  180.8650  178.5670  142.3880 C   0  0  1  0  0  3  0  0  0  0  0  0
  187.5860  177.7950  147.0240 C   0  0  0  0  0  3  0  0  0  0  0  0
  187.0240  177.7570  145.7360 C   0  0  0  0  0  0  0  0  0  0  0  0
  189.1020  176.6720  144.8250 C   0  0  0  0  0  2  0  0  0  0  0  0
  185.0480  177.6080  141.8500 C   0  0  0  0  0  2  0  0  0  0  0  0
  187.4130  176.3650  140.8180 C   0  0  0  0  0  1  0  0  0  0  0  0
  190.4430  173.9630  145.4440 C   0  0  0  0  0  1  0  0  0  0  0  0
  187.1560  177.1360  143.2450 C   0  0  2  0  0  3  0  0  0  0  0  0
  189.5360  175.6480  143.8450 C   0  0  2  0  0  3  0  0  0  0  0  0
  179.6390  179.2140  141.7890 C   0  0  2  0  0  3  0  0  0  0  0  0
  178.7740  178.1980  141.1100 C   0  0  0  0  0  0  0  0  0  0  0  0
  178.2220  178.4680  139.8640 O   0  0  0  0  0  0  0  0  0  0  0  0
  178.5760  177.0780  141.6500 O   0  0  0  0  0  1  0  0  0  0  0  0
  1 16  1  6  0  0  0
  1 29  1  0  0  0  0
  1 20  1  0  0  0  0
  2 24  1  6  0  0  0
  2 27  1  0  0  0  0
  2 12  1  0  0  0  0
  3  4  1  0  0  0  0
  5 25  1  6  0  0  0
  5  6  1  0  0  0  0
  5 27  1  0  0  0  0
  6 18  1  1  0  0  0
  6 28  1  0  0  0  0
  7 19  1  6  0  0  0
  7 17  1  0  0  0  0
  9 26  1  0  0  0  0
 11  3  2  0  0  0  0
 12  8  1  1  0  0  0
 12 13  1  0  0  0  0
 13 22  2  0  0  0  0
 13 11  1  0  0  0  0
 14 23  1  6  0  0  0
 14 22  1  0  0  0  0
 15  9  2  0  0  0  0
 16 19  1  0  0  0  0
 17 10  1  1  0  0  0
 17  8  1  0  0  0  0
 18 15  1  0  0  0  0
 20 10  1  1  0  0  0
 21  4  2  0  0  0  0
 22 21  1  0  0  0  0
 24  7  1  0  0  0  0
 27 14  1  0  0  0  0
 28  9  1  0  0  0  0
 28 23  1  0  0  0  0
 29 20  1  0  0  0  0
 30 32  1  0  0  0  0
 30 29  1  0  0  0  0
 31 30  2  0  0  0  0
M  END
>  <MODEL>
4

>  <REMARK>
 VINA RESULT:      -8.4      4.012      7.496
  Name = 
  1 active torsions:
  status: ('A' for Active; 'I' for Inactive)
    1  A    between atoms: C_29  and  C_30
                            x       y       z     vdW  Elec       q    Type
                         _______ _______ _______ _____ _____    ______ ____

>  <TORSDO>
F 1

$$$$
=
 OpenBabel11112416283D

 32 38  0  0  1  0  0  0  0  0999 V2000
  194.9830  173.3130  141.4640 C   0  0  2  0  0  3  0  0  0  0  0  0
  190.4800  175.9640  143.1310 C   0  0  1  0  0  3  0  0  0  0  0  0
  191.2370  176.7910  147.9700 C   0  0  0  0  0  3  0  0  0  0  0  0
  190.0660  177.5470  148.0160 C   0  0  0  0  0  3  0  0  0  0  0  0
  188.1370  176.4040  142.0940 C   0  0  2  0  0  3  0  0  0  0  0  0
  186.6490  176.6480  142.3890 C   0  0  2  0  0  3  0  0  0  0  0  0
  192.3800  174.8210  141.9030 C   0  0  1  0  0  3  0  0  0  0  0  0
  192.6010  175.6570  144.1890 O   0  0  0  0  0  0  0  0  0  0  0  0
  185.8310  178.5840  143.2740 C   0  0  0  0  0  0  0  0  0  0  0  0
  194.5570  174.5360  143.4090 C   0  0  0  0  0  2  0  0  0  0  0  0
  191.5990  176.1420  146.7880 C   0  0  0  0  0  3  0  0  0  0  0  0
  191.2190  175.5080  144.3980 C   0  0  1  0  0  3  0  0  0  0  0  0
  190.8000  176.2460  145.6390 C   0  0  0  0  0  0  0  0  0  0  0  0
  188.7170  177.1300  144.4730 C   0  0  2  0  0  3  0  0  0  0  0  0
  185.5040  178.5570  141.9040 N   0  0  0  0  0  0  0  0  0  0  0  0
  194.0400  173.6280  140.3270 C   0  0  0  0  0  2  0  0  0  0  0  0
  193.0100  174.6200  143.3310 C   0  0  2  0  0  3  0  0  0  0  0  0
  186.0130  177.3970  141.2900 N   0  0  0  0  0  0  0  0  0  0  0  0
  192.6250  173.6550  140.9190 C   0  0  0  0  0  2  0  0  0  0  0  0
  195.1810  174.6950  142.0450 C   0  0  1  0  0  3  0  0  0  0  0  0
  189.2510  177.6380  146.8860 C   0  0  0  0  0  3  0  0  0  0  0  0
  189.5860  176.9640  145.6990 C   0  0  0  0  0  0  0  0  0  0  0  0
  187.2370  177.2350  144.8420 C   0  0  0  0  0  2  0  0  0  0  0  0
  190.8650  174.9720  142.0340 C   0  0  0  0  0  2  0  0  0  0  0  0
  188.1910  175.2910  141.0590 C   0  0  0  0  0  1  0  0  0  0  0  0
  185.5760  179.7470  144.1680 C   0  0  0  0  0  1  0  0  0  0  0  0
  188.9570  176.0510  143.3790 C   0  0  2  0  0  3  0  0  0  0  0  0
  186.4880  177.4980  143.5910 C   0  0  0  0  0  0  0  0  0  0  0  0
  196.3880  173.8830  141.6370 C   0  0  2  0  0  3  0  0  0  0  0  0
  196.9500  174.3740  140.3390 C   0  0  0  0  0  0  0  0  0  0  0  0
  196.8400  175.7140  139.9900 O   0  0  0  0  0  1  0  0  0  0  0  0
  197.5610  173.5790  139.5780 O   0  0  0  0  0  0  0  0  0  0  0  0
  1 16  1  6  0  0  0
  1 29  1  0  0  0  0
  1 20  1  0  0  0  0
  2 24  1  6  0  0  0
  2 27  1  0  0  0  0
  2 12  1  0  0  0  0
  3  4  1  0  0  0  0
  5 25  1  6  0  0  0
  5  6  1  0  0  0  0
  5 27  1  0  0  0  0
  6 18  1  6  0  0  0
  6 28  1  0  0  0  0
  7 19  1  6  0  0  0
  7 24  1  0  0  0  0
  7 17  1  0  0  0  0
  9 28  2  0  0  0  0
  9 26  1  0  0  0  0
 11  3  2  0  0  0  0
 12  8  1  6  0  0  0
 12 13  1  0  0  0  0
 13 22  2  0  0  0  0
 13 11  1  0  0  0  0
 14 23  1  1  0  0  0
 14 22  1  0  0  0  0
 15  9  1  0  0  0  0
 16 19  1  0  0  0  0
 17 10  1  6  0  0  0
 17  8  1  0  0  0  0
 18 15  2  0  0  0  0
 20 10  1  1  0  0  0
 21  4  2  0  0  0  0
 22 21  1  0  0  0  0
 27 14  1  0  0  0  0
 28 23  1  0  0  0  0
 29 20  1  0  0  0  0
 30 29  1  0  0  0  0
 31 30  1  0  0  0  0
 32 30  2  0  0  0  0
M  END
>  <MODEL>
5

>  <REMARK>
 VINA RESULT:      -8.3      3.776      8.805
  Name = 
  1 active torsions:
  status: ('A' for Active; 'I' for Inactive)
    1  A    between atoms: C_29  and  C_30
                            x       y       z     vdW  Elec       q    Type
                         _______ _______ _______ _____ _____    ______ ____

>  <TORSDO>
F 1

$$$$
=
 OpenBabel11112416283D

 32 38  0  0  1  0  0  0  0  0999 V2000
  186.3670  178.2600  144.0060 C   0  0  2  0  0  3  0  0  0  0  0  0
  189.7740  174.4830  141.9560 C   0  0  1  0  0  3  0  0  0  0  0  0
  194.1960  175.5870  143.9290 C   0  0  0  0  0  3  0  0  0  0  0  0
  194.7300  174.4330  143.3590 C   0  0  0  0  0  3  0  0  0  0  0  0
  189.6130  172.7330  140.0400 C   0  0  2  0  0  3  0  0  0  0  0  0
  190.3960  171.9370  138.9840 C   0  0  2  0  0  3  0  0  0  0  0  0
  187.8410  175.9400  142.7100 C   0  0  1  0  0  3  0  0  0  0  0  0
  190.0470  176.0260  143.7600 O   0  0  0  0  0  0  0  0  0  0  0  0
  191.7970  170.2080  139.4800 C   0  0  0  0  0  0  0  0  0  0  0  0
  188.5190  177.6240  144.6560 C   0  0  0  0  0  2  0  0  0  0  0  0
  192.8710  175.9410  143.6690 C   0  0  0  0  0  3  0  0  0  0  0  0
  190.6520  175.5820  142.5720 C   0  0  1  0  0  3  0  0  0  0  0  0
  192.0650  175.1450  142.8420 C   0  0  0  0  0  0  0  0  0  0  0  0
  191.7730  173.1040  141.3500 C   0  0  2  0  0  3  0  0  0  0  0  0
  190.6140  169.6700  138.9360 N   0  0  0  0  0  0  0  0  0  0  0  0
  185.6510  177.2250  143.1710 C   0  0  0  0  0  2  0  0  0  0  0  0
  188.9460  176.8240  143.3980 C   0  0  2  0  0  3  0  0  0  0  0  0
  189.6910  170.6890  138.6390 N   0  0  0  0  0  2  0  0  0  0  0  0
  186.6540  176.7330  142.1200 C   0  0  0  0  0  2  0  0  0  0  0  0
  187.0730  177.3670  145.0020 C   0  0  1  0  0  3  0  0  0  0  0  0
  193.9450  173.6450  142.5150 C   0  0  0  0  0  3  0  0  0  0  0  0
  192.6200  174.0070  142.2180 C   0  0  0  0  0  0  0  0  0  0  0  0
  192.6010  172.4500  140.2430 C   0  0  0  0  0  2  0  0  0  0  0  0
  188.4660  175.1600  141.5520 C   0  0  0  0  0  2  0  0  0  0  0  0
  188.4460  173.3800  139.3090 C   0  0  0  0  0  1  0  0  0  0  0  0
  192.9030  169.3850  140.0430 C   0  0  0  0  0  1  0  0  0  0  0  0
  190.4990  173.7890  140.7810 C   0  0  2  0  0  3  0  0  0  0  0  0
  191.7100  171.5120  139.5200 C   0  0  2  0  0  3  0  0  0  0  0  0
  186.1790  178.4760  145.5050 C   0  0  2  0  0  3  0  0  0  0  0  0
  184.8690  177.9330  145.9840 C   0  0  0  0  0  0  0  0  0  0  0  0
  183.7010  178.6650  145.8080 O   0  0  0  0  0  0  0  0  0  0  0  0
  184.8160  176.7920  146.5130 O   0  0  0  0  0  1  0  0  0  0  0  0
  1 16  1  6  0  0  0
  1 20  1  0  0  0  0
  1 29  1  0  0  0  0
  2 24  1  6  0  0  0
  2 12  1  0  0  0  0
  4  3  2  0  0  0  0
  5 25  1  6  0  0  0
  5 27  1  0  0  0  0
  6 18  1  1  0  0  0
  6 28  1  0  0  0  0
  6  5  1  0  0  0  0
  7 24  1  6  0  0  0
  7 17  1  0  0  0  0
  9 28  1  0  0  0  0
  9 26  1  0  0  0  0
 11  3  1  0  0  0  0
 12 13  1  1  0  0  0
 12  8  1  0  0  0  0
 13 11  2  0  0  0  0
 14 23  1  6  0  0  0
 14 22  1  0  0  0  0
 15  9  2  0  0  0  0
 17  8  1  0  0  0  0
 17 10  1  1  0  0  0
 18 15  1  0  0  0  0
 19  7  1  0  0  0  0
 19 16  1  0  0  0  0
 20 10  1  1  0  0  0
 20 29  1  0  0  0  0
 21  4  1  0  0  0  0
 22 21  2  0  0  0  0
 22 13  1  0  0  0  0
 27 14  1  0  0  0  0
 27  2  1  0  0  0  0
 28 23  1  0  0  0  0
 29 30  1  0  0  0  0
 30 32  1  0  0  0  0
 31 30  2  0  0  0  0
M  END
>  <MODEL>
6

>  <REMARK>
 VINA RESULT:      -8.3      2.983      4.937
  Name = 
  1 active torsions:
  status: ('A' for Active; 'I' for Inactive)
    1  A    between atoms: C_29  and  C_30
                            x       y       z     vdW  Elec       q    Type
                         _______ _______ _______ _____ _____    ______ ____

>  <TORSDO>
F 1

$$$$
=
 OpenBabel11112416283D

 32 38  0  0  1  0  0  0  0  0999 V2000
  191.0920  171.9770  137.8790 C   0  0  2  0  0  3  0  0  0  0  0  0
  188.8280  174.7490  142.0340 C   0  0  1  0  0  3  0  0  0  0  0  0
  185.6260  177.8630  139.8600 C   0  0  0  0  0  3  0  0  0  0  0  0
  185.1690  178.2580  141.1170 C   0  0  0  0  0  3  0  0  0  0  0  0
  189.3790  175.0160  144.5600 C   0  0  2  0  0  3  0  0  0  0  0  0
  189.2960  175.9450  145.7820 C   0  0  2  0  0  3  0  0  0  0  0  0
  190.0600  173.1770  140.4730 C   0  0  1  0  0  3  0  0  0  0  0  0
  188.1910  174.5700  139.7370 O   0  0  0  0  0  0  0  0  0  0  0  0
  187.3580  176.4160  146.8880 C   0  0  0  0  0  0  0  0  0  0  0  0
  189.1760  173.3120  137.9660 C   0  0  0  0  0  2  0  0  0  0  0  0
  186.6910  176.9660  139.7590 C   0  0  0  0  0  3  0  0  0  0  0  0
  188.4670  175.5070  140.7480 C   0  0  1  0  0  3  0  0  0  0  0  0
  187.3060  176.4500  140.9090 C   0  0  0  0  0  0  0  0  0  0  0  0
  187.4950  176.3310  143.4450 C   0  0  2  0  0  3  0  0  0  0  0  0
  188.1070  175.5230  147.6790 N   0  0  0  0  0  0  0  0  0  0  0  0
  191.5480  171.4740  139.2280 C   0  0  0  0  0  2  0  0  0  0  0  0
  189.4220  174.0320  139.3180 C   0  0  2  0  0  3  0  0  0  0  0  0
  189.3060  175.1660  147.0330 N   0  0  0  0  0  0  0  0  0  0  0  0
  191.4910  172.6700  140.1880 C   0  0  0  0  0  2  0  0  0  0  0  0
  189.5930  171.8630  138.0370 C   0  0  1  0  0  3  0  0  0  0  0  0
  185.7890  177.7700  142.2680 C   0  0  0  0  0  3  0  0  0  0  0  0
  186.8820  176.8920  142.1810 C   0  0  0  0  0  0  0  0  0  0  0  0
  187.4920  177.3600  144.5760 C   0  0  0  0  0  2  0  0  0  0  0  0
  190.1400  174.0230  141.7450 C   0  0  0  0  0  2  0  0  0  0  0  0
  190.8250  174.5520  144.4740 C   0  0  0  0  0  1  0  0  0  0  0  0
  185.9750  176.8580  147.2160 C   0  0  0  0  0  1  0  0  0  0  0  0
  188.9070  175.7120  143.2400 C   0  0  2  0  0  3  0  0  0  0  0  0
  188.0130  176.6850  145.7880 C   0  0  0  0  0  0  0  0  0  0  0  0
  190.2680  171.1850  136.8680 C   0  0  2  0  0  3  0  0  0  0  0  0
  190.3800  169.7100  137.0960 C   0  0  0  0  0  0  0  0  0  0  0  0
  191.3160  168.9610  136.3930 O   0  0  0  0  0  0  0  0  0  0  0  0
  189.6520  169.1490  137.9560 O   0  0  0  0  0  1  0  0  0  0  0  0
  1 20  1  0  0  0  0
  1 16  1  1  0  0  0
  2 24  1  6  0  0  0
  2 27  1  0  0  0  0
  3  4  1  0  0  0  0
  4 21  2  0  0  0  0
  5 25  1  6  0  0  0
  5  6  1  0  0  0  0
  6 28  1  6  0  0  0
  6 18  1  0  0  0  0
  7 19  1  6  0  0  0
  7 24  1  0  0  0  0
  9 26  1  0  0  0  0
  9 15  1  0  0  0  0
 11  3  2  0  0  0  0
 11 13  1  0  0  0  0
 12  8  1  6  0  0  0
 12 13  1  0  0  0  0
 12  2  1  0  0  0  0
 13 22  2  0  0  0  0
 14 23  1  1  0  0  0
 16 19  1  0  0  0  0
 17 10  1  6  0  0  0
 17  8  1  0  0  0  0
 17  7  1  0  0  0  0
 18 15  2  0  0  0  0
 20 10  1  6  0  0  0
 22 21  1  0  0  0  0
 22 14  1  0  0  0  0
 23 28  1  0  0  0  0
 27 14  1  0  0  0  0
 27  5  1  0  0  0  0
 28  9  2  0  0  0  0
 29 30  1  0  0  0  0
 29  1  1  0  0  0  0
 29 20  1  0  0  0  0
 30 32  1  0  0  0  0
 31 30  2  0  0  0  0
M  END
>  <MODEL>
7

>  <REMARK>
 VINA RESULT:      -7.7      3.897      8.114
  Name = 
  1 active torsions:
  status: ('A' for Active; 'I' for Inactive)
    1  A    between atoms: C_29  and  C_30
                            x       y       z     vdW  Elec       q    Type
                         _______ _______ _______ _____ _____    ______ ____

>  <TORSDO>
F 1

$$$$
=
 OpenBabel11112416283D

 32 38  0  0  1  0  0  0  0  0999 V2000
  191.2240  173.0090  139.4140 C   0  0  2  0  0  3  0  0  0  0  0  0
  189.0320  175.7960  143.5980 C   0  0  1  0  0  3  0  0  0  0  0  0
  192.3150  175.2910  147.2920 C   0  0  0  0  0  3  0  0  0  0  0  0
  191.5660  176.1750  148.0680 C   0  0  0  0  0  3  0  0  0  0  0  0
  186.6890  176.8140  144.0810 C   0  0  2  0  0  3  0  0  0  0  0  0
  185.6740  177.1920  145.1710 C   0  0  2  0  0  3  0  0  0  0  0  0
  189.6850  174.7260  141.3960 C   0  0  1  0  0  3  0  0  0  0  0  0
  191.2370  174.9340  143.2730 O   0  0  0  0  0  0  0  0  0  0  0  0
  185.9410  178.9490  146.6000 C   0  0  0  0  0  0  0  0  0  0  0  0
  192.1680  173.7660  141.4130 C   0  0  0  0  0  2  0  0  0  0  0  0
  191.8500  174.9060  146.0330 C   0  0  0  0  0  3  0  0  0  0  0  0
  190.1660  174.9410  144.1830 C   0  0  1  0  0  3  0  0  0  0  0  0
  190.6370  175.4050  145.5340 C   0  0  0  0  0  0  0  0  0  0  0  0
  188.5560  176.8410  145.8230 C   0  0  2  0  0  3  0  0  0  0  0  0
  184.9720  179.3080  145.6420 N   0  0  0  0  0  0  0  0  0  0  0  0
  189.9510  173.7280  139.0300 C   0  0  0  0  0  2  0  0  0  0  0  0
  190.8750  174.0910  142.2060 C   0  0  2  0  0  3  0  0  0  0  0  0
  184.7850  178.2730  144.7070 N   0  0  0  0  0  2  0  0  0  0  0  0
  189.0930  173.8140  140.2980 C   0  0  0  0  0  2  0  0  0  0  0  0
  192.0330  174.1630  139.9630 C   0  0  1  0  0  3  0  0  0  0  0  0
  190.3460  176.6580  147.5910 C   0  0  0  0  0  3  0  0  0  0  0  0
  189.8500  176.2550  146.3400 C   0  0  0  0  0  0  0  0  0  0  0  0
  187.5500  177.0670  146.9520 C   0  0  0  0  0  2  0  0  0  0  0  0
  188.5410  175.0590  142.3540 C   0  0  0  0  0  2  0  0  0  0  0  0
  185.9260  175.9930  143.0520 C   0  0  0  0  0  1  0  0  0  0  0  0
  186.4800  179.8820  147.6270 C   0  0  0  0  0  1  0  0  0  0  0  0
  187.9250  176.0410  144.6490 C   0  0  2  0  0  3  0  0  0  0  0  0
  186.3660  177.7350  146.3620 C   0  0  2  0  0  3  0  0  0  0  0  0
  192.6140  173.3090  138.8610 C   0  0  2  0  0  3  0  0  0  0  0  0
  192.5460  174.0150  137.5430 C   0  0  0  0  0  0  0  0  0  0  0  0
  192.1500  173.3300  136.4010 O   0  0  0  0  0  0  0  0  0  0  0  0
  192.8080  175.2450  137.4740 O   0  0  0  0  0  1  0  0  0  0  0  0
  1 16  1  6  0  0  0
  1 20  1  0  0  0  0
  2 24  1  6  0  0  0
  2 12  1  0  0  0  0
  2 27  1  0  0  0  0
  3  4  1  0  0  0  0
  5 25  1  6  0  0  0
  5 27  1  0  0  0  0
  5  6  1  0  0  0  0
  6 18  1  6  0  0  0
  6 28  1  0  0  0  0
  7 19  1  6  0  0  0
  7 17  1  0  0  0  0
  7 24  1  0  0  0  0
  9 26  1  0  0  0  0
 11  3  2  0  0  0  0
 12  8  1  6  0  0  0
 12 13  1  0  0  0  0
 13 11  1  0  0  0  0
 13 22  2  0  0  0  0
 14 22  1  0  0  0  0
 14 23  1  1  0  0  0
 15  9  2  0  0  0  0
 16 19  1  0  0  0  0
 17 10  1  6  0  0  0
 17  8  1  0  0  0  0
 18 15  1  0  0  0  0
 20 10  1  1  0  0  0
 21  4  2  0  0  0  0
 22 21  1  0  0  0  0
 27 14  1  0  0  0  0
 28  9  1  0  0  0  0
 28 23  1  0  0  0  0
 29  1  1  0  0  0  0
 29 20  1  0  0  0  0
 30 29  1  0  0  0  0
 31 30  2  0  0  0  0
 32 30  1  0  0  0  0
M  END
>  <MODEL>
8

>  <REMARK>
 VINA RESULT:      -7.6      4.143      8.424
  Name = 
  1 active torsions:
  status: ('A' for Active; 'I' for Inactive)
    1  A    between atoms: C_29  and  C_30
                            x       y       z     vdW  Elec       q    Type
                         _______ _______ _______ _____ _____    ______ ____

>  <TORSDO>
F 1

$$$$
=
 OpenBabel11112416283D

 32 38  0  0  1  0  0  0  0  0999 V2000
  190.6890  171.5010  137.6100 C   0  0  2  0  0  3  0  0  0  0  0  0
  190.9450  174.3960  142.2610 C   0  0  1  0  0  3  0  0  0  0  0  0
  186.3160  176.0610  142.9510 C   0  0  0  0  0  3  0  0  0  0  0  0
  186.6950  176.5760  144.1900 C   0  0  0  0  0  3  0  0  0  0  0  0
  192.8830  175.3130  143.7310 C   0  0  2  0  0  3  0  0  0  0  0  0
  193.3180  176.4210  144.7030 C   0  0  2  0  0  3  0  0  0  0  0  0
  191.2840  172.9050  140.2390 C   0  0  1  0  0  3  0  0  0  0  0  0
  189.0700  173.5870  141.0180 O   0  0  0  0  0  0  0  0  0  0  0  0
  192.5630  176.5960  146.8480 C   0  0  0  0  0  0  0  0  0  0  0  0
  189.0000  172.2860  139.0200 C   0  0  0  0  0  2  0  0  0  0  0  0
  187.2720  175.4680  142.1250 C   0  0  0  0  0  3  0  0  0  0  0  0
  189.6090  174.7520  141.5910 C   0  0  1  0  0  3  0  0  0  0  0  0
  188.6120  175.3770  142.5280 C   0  0  0  0  0  0  0  0  0  0  0  0
  190.4360  175.8380  144.2430 C   0  0  2  0  0  3  0  0  0  0  0  0
  193.8850  176.1100  146.8880 N   0  0  0  0  0  0  0  0  0  0  0  0
  192.0470  171.4230  138.2680 C   0  0  0  0  0  2  0  0  0  0  0  0
  189.8130  173.3090  139.8560 C   0  0  2  0  0  3  0  0  0  0  0  0
  194.3980  175.9480  145.5870 N   0  0  0  0  0  0  0  0  0  0  0  0
  192.2410  172.7360  139.0380 C   0  0  0  0  0  2  0  0  0  0  0  0
  189.8070  171.0400  138.7480 C   0  0  1  0  0  3  0  0  0  0  0  0
  188.0300  176.5130  144.5920 C   0  0  0  0  0  3  0  0  0  0  0  0
  189.0080  175.9480  143.7570 C   0  0  0  0  0  0  0  0  0  0  0  0
  190.8340  177.0430  145.0970 C   0  0  0  0  0  2  0  0  0  0  0  0
  191.8900  173.9880  141.1330 C   0  0  0  0  0  2  0  0  0  0  0  0
  193.9660  175.2290  142.6660 C   0  0  0  0  0  1  0  0  0  0  0  0
  191.6880  176.7260  148.0450 C   0  0  0  0  0  1  0  0  0  0  0  0
  191.4690  175.5750  143.1110 C   0  0  2  0  0  3  0  0  0  0  0  0
  192.2030  176.7910  145.6050 C   0  0  0  0  0  0  0  0  0  0  0  0
  189.7280  170.3320  137.4170 C   0  0  2  0  0  3  0  0  0  0  0  0
  190.4390  169.0160  137.4670 C   0  0  0  0  0  0  0  0  0  0  0  0
  191.1910  168.5840  136.3810 O   0  0  0  0  0  0  0  0  0  0  0  0
  190.3900  168.3130  138.5100 O   0  0  0  0  0  1  0  0  0  0  0  0
  1 16  1  1  0  0  0
  1 20  1  0  0  0  0
  2 24  1  6  0  0  0
  2 27  1  0  0  0  0
  3  4  1  0  0  0  0
  4 21  2  0  0  0  0
  5 25  1  6  0  0  0
  5  6  1  0  0  0  0
  6 18  1  1  0  0  0
  6 28  1  0  0  0  0
  7 19  1  6  0  0  0
  7 24  1  0  0  0  0
  9 15  1  0  0  0  0
  9 26  1  0  0  0  0
 11 13  1  0  0  0  0
 11  3  2  0  0  0  0
 12  8  1  1  0  0  0
 12  2  1  0  0  0  0
 12 13  1  0  0  0  0
 13 22  2  0  0  0  0
 14 23  1  6  0  0  0
 16 19  1  0  0  0  0
 17 10  1  1  0  0  0
 17  7  1  0  0  0  0
 17  8  1  0  0  0  0
 18 15  2  0  0  0  0
 20 10  1  6  0  0  0
 22 14  1  0  0  0  0
 22 21  1  0  0  0  0
 23 28  1  0  0  0  0
 27  5  1  0  0  0  0
 27 14  1  0  0  0  0
 28  9  2  0  0  0  0
 29 30  1  0  0  0  0
 29  1  1  0  0  0  0
 29 20  1  0  0  0  0
 30 32  1  0  0  0  0
 31 30  2  0  0  0  0
M  END
>  <MODEL>
9

>  <REMARK>
 VINA RESULT:      -7.4      2.785      7.227
  Name = 
  1 active torsions:
  status: ('A' for Active; 'I' for Inactive)
    1  A    between atoms: C_29  and  C_30
                            x       y       z     vdW  Elec       q    Type
                         _______ _______ _______ _____ _____    ______ ____

>  <TORSDO>
F 1

$$$$
