=
 OpenBabel11112417253D

 37 43  0  0  1  0  0  0  0  0999 V2000
  191.9840  173.1570  141.2000 O   0  0  0  0  0  0  0  0  0  0  0  0
  194.3070  173.7660  145.4470 C   0  0  0  0  0  0  0  0  0  0  0  0
  190.4210  175.3180  144.8510 C   0  0  0  0  0  0  0  0  0  0  0  0
  192.3090  173.1220  139.8360 C   0  0  2  0  0  3  0  0  0  0  0  0
  188.4400  174.8030  141.8740 O   0  0  0  0  0  0  0  0  0  0  0  0
  192.3050  174.9700  146.3390 C   0  0  0  0  0  0  0  0  0  0  0  0
  190.2580  175.2110  143.5330 C   0  0  0  0  0  0  0  0  0  0  0  0
  189.9110  172.3900  139.4920 C   0  0  0  0  0  0  0  0  0  0  0  0
  191.7110  174.8170  145.1790 C   0  0  0  0  0  0  0  0  0  0  0  0
  189.0260  175.6550  142.8190 C   0  0  0  0  0  0  0  0  0  0  0  0
  191.5380  175.6100  147.4310 C   0  0  0  0  0  3  0  0  0  0  0  0
  191.0560  173.2100  138.9560 C   0  0  0  0  0  2  0  0  0  0  0  0
  192.3590  174.3870  143.9950 C   0  0  0  0  0  0  0  0  0  0  0  0
  194.0520  172.2960  145.7290 C   0  0  0  0  0  1  0  0  0  0  0  0
  189.3560  177.4370  145.3840 C   0  0  0  0  0  3  0  0  0  0  0  0
  190.2890  176.0860  147.2140 C   0  0  0  0  0  3  0  0  0  0  0  0
  193.8290  174.0920  144.0030 C   0  0  0  0  0  2  0  0  0  0  0  0
  188.8810  172.9700  140.4260 C   0  0  1  0  0  3  0  0  0  0  0  0
  189.0960  174.4170  140.6800 C   0  0  1  0  0  3  0  0  0  0  0  0
  189.5820  176.0400  145.8580 C   0  0  2  0  0  3  0  0  0  0  0  0
  191.5240  174.6250  142.9820 C   0  0  0  0  0  0  0  0  0  0  0  0
  193.6450  174.5630  146.4590 O   0  0  0  0  0  0  0  0  0  0  0  0
  188.3760  176.8100  143.1350 C   0  0  0  0  0  0  0  0  0  0  0  0
  195.7990  174.0120  145.5300 C   0  0  0  0  0  1  0  0  0  0  0  0
  188.1400  173.9580  139.7530 O   0  0  0  0  0  0  0  0  0  0  0  0
  189.8260  171.2140  139.1770 O   0  0  0  0  0  0  0  0  0  0  0  0
  191.9250  174.5090  141.5500 C   0  0  0  0  0  2  0  0  0  0  0  0
  188.8130  177.7500  144.2040 C   0  0  0  0  0  3  0  0  0  0  0  0
  187.3100  177.3990  140.9510 C   0  0  0  0  0  3  0  0  0  0  0  0
  187.2030  177.2620  142.3420 C   0  0  0  0  0  0  0  0  0  0  0  0
  185.9640  177.5130  142.9500 C   0  0  0  0  0  3  0  0  0  0  0  0
  183.6220  178.1760  142.7880 N   0  0  0  0  0  1  0  0  0  0  0  0
  185.0150  178.0470  140.8260 N   0  0  0  0  0  0  0  0  0  0  0  0
  184.8770  177.9120  142.1730 C   0  0  0  0  0  0  0  0  0  0  0  0
  186.1990  177.7980  140.2050 C   0  0  0  0  0  3  0  0  0  0  0  0
  193.0030  170.9730  140.6040 O   0  0  0  0  0  1  0  0  0  0  0  0
  193.0780  171.8500  139.5230 C   0  0  0  0  0  2  0  0  0  0  0  0
  1 27  1  0  0  0  0
  2 24  1  0  0  0  0
  2 14  1  0  0  0  0
  2 22  1  0  0  0  0
  3  9  1  0  0  0  0
  3 20  1  0  0  0  0
  4 37  1  1  0  0  0
  4  1  1  0  0  0  0
  5 10  1  0  0  0  0
  6 22  1  0  0  0  0
  6 11  1  0  0  0  0
  7  3  2  0  0  0  0
  9  6  2  0  0  0  0
 10 23  2  0  0  0  0
 10  7  1  0  0  0  0
 12  8  1  0  0  0  0
 12  4  1  0  0  0  0
 13 17  1  0  0  0  0
 13  9  1  0  0  0  0
 16 11  2  0  0  0  0
 17  2  1  0  0  0  0
 18  8  1  6  0  0  0
 18 19  1  0  0  0  0
 19 25  1  6  0  0  0
 19  5  1  0  0  0  0
 20 15  1  6  0  0  0
 20 16  1  0  0  0  0
 21  7  1  0  0  0  0
 21 13  2  0  0  0  0
 23 28  1  0  0  0  0
 25 18  1  0  0  0  0
 26  8  2  0  0  0  0
 27 21  1  0  0  0  0
 28 15  2  0  0  0  0
 29 30  1  0  0  0  0
 30 31  2  0  0  0  0
 30 23  1  0  0  0  0
 33 34  2  0  0  0  0
 34 32  1  0  0  0  0
 34 31  1  0  0  0  0
 35 33  1  0  0  0  0
 35 29  2  0  0  0  0
 37 36  1  0  0  0  0
M  END
>  <MODEL>
1

>  <REMARK>
 VINA RESULT:      -8.9      0.000      0.000
  Name = 
  2 active torsions:
  status: ('A' for Active; 'I' for Inactive)
    1  A    between atoms: C_4  and  C_37
    2  A    between atoms: C_23  and  C_30
                            x       y       z     vdW  Elec       q    Type
                         _______ _______ _______ _____ _____    ______ ____

>  <TORSDO>
F 2

$$$$
=
 OpenBabel11112417253D

 37 43  0  0  1  0  0  0  0  0999 V2000
  190.3590  174.3910  140.8900 O   0  0  0  0  0  0  0  0  0  0  0  0
  187.0760  176.8650  143.5190 C   0  0  0  0  0  0  0  0  0  0  0  0
  190.9450  176.0950  145.0360 C   0  0  0  0  0  0  0  0  0  0  0  0
  190.3680  173.3160  139.9890 C   0  0  2  0  0  3  0  0  0  0  0  0
  193.5900  174.4740  143.1860 O   0  0  0  0  0  0  0  0  0  0  0  0
  188.7720  177.1320  145.3360 C   0  0  0  0  0  0  0  0  0  0  0  0
  191.4190  175.1820  144.1900 C   0  0  0  0  0  0  0  0  0  0  0  0
  192.7990  173.9120  139.6190 C   0  0  0  0  0  0  0  0  0  0  0  0
  189.6290  176.4410  144.6220 C   0  0  0  0  0  0  0  0  0  0  0  0
  192.7720  174.5670  144.3190 C   0  0  0  0  0  0  0  0  0  0  0  0
  189.2390  177.6960  146.6220 C   0  0  0  0  0  3  0  0  0  0  0  0
  191.7910  172.7990  139.7430 C   0  0  0  0  0  2  0  0  0  0  0  0
  189.2940  175.6960  143.4650 C   0  0  0  0  0  0  0  0  0  0  0  0
  187.3010  178.0390  142.5820 C   0  0  0  0  0  1  0  0  0  0  0  0
  191.7890  175.3600  147.1950 C   0  0  0  0  0  3  0  0  0  0  0  0
  190.4890  177.4440  147.0780 C   0  0  0  0  0  3  0  0  0  0  0  0
  187.8740  175.6390  142.9880 C   0  0  0  0  0  2  0  0  0  0  0  0
  193.5610  174.4370  140.8090 C   0  0  1  0  0  3  0  0  0  0  0  0
  193.2490  173.6930  142.0560 C   0  0  1  0  0  3  0  0  0  0  0  0
  191.4980  176.5550  146.3490 C   0  0  2  0  0  3  0  0  0  0  0  0
  190.3380  174.9140  143.1850 C   0  0  0  0  0  0  0  0  0  0  0  0
  187.4550  177.2530  144.8610 O   0  0  0  0  0  0  0  0  0  0  0  0
  193.2940  174.1970  145.5220 C   0  0  0  0  0  0  0  0  0  0  0  0
  185.6010  176.5240  143.5060 C   0  0  0  0  0  1  0  0  0  0  0  0
  194.4100  173.4310  141.3040 O   0  0  0  0  0  0  0  0  0  0  0  0
  192.9920  174.4180  138.5260 O   0  0  0  0  0  0  0  0  0  0  0  0
  190.2930  173.8250  142.1670 C   0  0  0  0  0  2  0  0  0  0  0  0
  192.5870  174.3550  146.8230 C   0  0  0  0  0  3  0  0  0  0  0  0
  195.7770  174.2520  145.8130 C   0  0  0  0  0  3  0  0  0  0  0  0
  194.6080  173.5070  145.6000 C   0  0  0  0  0  0  0  0  0  0  0  0
  194.7050  172.1110  145.5120 C   0  0  0  0  0  3  0  0  0  0  0  0
  196.0540  170.0790  145.5170 N   0  0  0  0  0  1  0  0  0  0  0  0
  197.0690  172.2440  145.8110 N   0  0  0  0  0  0  0  0  0  0  0  0
  195.9520  171.4930  145.6150 C   0  0  0  0  0  0  0  0  0  0  0  0
  197.0070  173.5980  145.9130 C   0  0  0  0  0  3  0  0  0  0  0  0
  188.4220  174.1590  138.8980 O   0  0  0  0  0  1  0  0  0  0  0  0
  189.7330  173.7400  138.6760 C   0  0  0  0  0  2  0  0  0  0  0  0
  1 27  1  0  0  0  0
  2 22  1  0  0  0  0
  3 20  1  0  0  0  0
  4 37  1  6  0  0  0
  4  1  1  0  0  0  0
  5 10  1  0  0  0  0
  6 11  1  0  0  0  0
  7 10  1  0  0  0  0
  7  3  2  0  0  0  0
  8 12  1  0  0  0  0
  9  3  1  0  0  0  0
  9  6  2  0  0  0  0
 10 23  2  0  0  0  0
 11 16  2  0  0  0  0
 12  4  1  0  0  0  0
 13  9  1  0  0  0  0
 14  2  1  0  0  0  0
 17 13  1  0  0  0  0
 17  2  1  0  0  0  0
 18  8  1  6  0  0  0
 18 25  1  0  0  0  0
 18 19  1  0  0  0  0
 19 25  1  6  0  0  0
 19  5  1  0  0  0  0
 20 16  1  1  0  0  0
 20 15  1  0  0  0  0
 21 13  2  0  0  0  0
 21  7  1  0  0  0  0
 22  6  1  0  0  0  0
 23 30  1  0  0  0  0
 23 28  1  0  0  0  0
 24  2  1  0  0  0  0
 26  8  2  0  0  0  0
 27 21  1  0  0  0  0
 28 15  2  0  0  0  0
 29 35  1  0  0  0  0
 30 29  2  0  0  0  0
 31 30  1  0  0  0  0
 31 34  2  0  0  0  0
 32 34  1  0  0  0  0
 33 35  2  0  0  0  0
 34 33  1  0  0  0  0
 37 36  1  0  0  0  0
M  END
>  <MODEL>
2

>  <REMARK>
 VINA RESULT:      -8.3      3.729      6.960
  Name = 
  2 active torsions:
  status: ('A' for Active; 'I' for Inactive)
    1  A    between atoms: C_4  and  C_37
    2  A    between atoms: C_23  and  C_30
                            x       y       z     vdW  Elec       q    Type
                         _______ _______ _______ _____ _____    ______ ____

>  <TORSDO>
F 2

$$$$
=
 OpenBabel11112417253D

 37 43  0  0  1  0  0  0  0  0999 V2000
  193.4260  174.1850  144.1080 O   0  0  0  0  0  0  0  0  0  0  0  0
  192.7800  171.2870  140.2370 C   0  0  0  0  0  0  0  0  0  0  0  0
  189.9130  174.2180  141.2620 C   0  0  0  0  0  0  0  0  0  0  0  0
  193.9610  174.0850  145.4000 C   0  0  2  0  0  3  0  0  0  0  0  0
  190.2870  176.6030  143.9490 O   0  0  0  0  0  0  0  0  0  0  0  0
  190.6360  172.4720  139.7400 C   0  0  0  0  0  0  0  0  0  0  0  0
  190.2850  174.5810  142.4880 C   0  0  1  0  0  3  0  0  0  0  0  0
  193.6380  176.5920  145.5090 C   0  0  0  0  0  0  0  0  0  0  0  0
  190.8170  173.2220  140.8020 C   0  0  0  0  0  0  0  0  0  0  0  0
  189.5580  175.5990  143.3000 C   0  0  0  0  0  0  0  0  0  0  0  0
  189.4600  172.7550  138.8870 C   0  0  0  0  0  3  0  0  0  0  0  0
  193.5750  175.2910  146.2660 C   0  0  0  0  0  2  0  0  0  0  0  0
  191.7850  172.9720  141.8050 C   0  0  0  0  0  0  0  0  0  0  0  0
  193.8580  172.0910  139.5310 C   0  0  0  0  0  1  0  0  0  0  0  0
  187.4840  174.2250  141.3810 C   0  0  0  0  0  3  0  0  0  0  0  0
  188.5640  173.7090  139.2330 C   0  0  0  0  0  3  0  0  0  0  0  0
  192.6770  171.7700  141.7120 C   0  0  0  0  0  2  0  0  0  0  0  0
  192.4410  177.1570  144.7880 C   0  0  1  0  0  3  0  0  0  0  0  0
  191.2230  176.3290  144.9750 C   0  0  1  0  0  3  0  0  0  0  0  0
  188.6570  174.5410  140.5140 C   0  0  0  0  0  0  0  0  0  0  0  0
  191.4880  173.7560  142.8420 C   0  0  0  0  0  0  0  0  0  0  0  0
  191.5370  171.4200  139.5060 O   0  0  0  0  0  0  0  0  0  0  0  0
  188.1970  175.6620  143.3410 C   0  0  0  0  0  0  0  0  0  0  0  0
  193.1970  169.8310  140.2320 C   0  0  0  0  0  1  0  0  0  0  0  0
  191.4480  177.5000  145.7230 O   0  0  0  0  0  0  0  0  0  0  0  0
  194.6950  177.1990  145.4600 O   0  0  0  0  0  0  0  0  0  0  0  0
  192.1440  173.6310  144.1760 C   0  0  0  0  0  2  0  0  0  0  0  0
  187.2940  174.7380  142.6000 C   0  0  0  0  0  3  0  0  0  0  0  0
  187.5480  176.4570  145.6220 C   0  0  0  0  0  3  0  0  0  0  0  0
  187.5090  176.6330  144.2310 C   0  0  0  0  0  0  0  0  0  0  0  0
  186.8540  177.7600  143.7130 C   0  0  0  0  0  3  0  0  0  0  0  0
  185.5660  179.8040  144.0550 N   0  0  0  0  0  1  0  0  0  0  0  0
  186.2850  178.4610  145.9230 N   0  0  0  0  0  0  0  0  0  0  0  0
  186.2390  178.6650  144.5790 C   0  0  0  0  0  0  0  0  0  0  0  0
  186.9240  177.3860  146.4570 C   0  0  0  0  0  3  0  0  0  0  0  0
  195.9070  174.2690  144.0340 O   0  0  0  0  0  1  0  0  0  0  0  0
  195.4730  173.9620  145.3230 C   0  0  0  0  0  2  0  0  0  0  0  0
  1 27  1  0  0  0  0
  1  4  1  0  0  0  0
  2 17  1  0  0  0  0
  4 37  1  6  0  0  0
  4 12  1  0  0  0  0
  6  9  1  0  0  0  0
  7  3  1  1  0  0  0
  7 21  1  0  0  0  0
  7 10  1  0  0  0  0
  8 12  1  0  0  0  0
  9  3  2  0  0  0  0
  9 13  1  0  0  0  0
 10 23  2  0  0  0  0
 10  5  1  0  0  0  0
 11 16  1  0  0  0  0
 11  6  2  0  0  0  0
 13 21  2  0  0  0  0
 14  2  1  0  0  0  0
 15 28  2  0  0  0  0
 16 20  2  0  0  0  0
 17 13  1  0  0  0  0
 18 19  1  0  0  0  0
 18  8  1  1  0  0  0
 18 25  1  0  0  0  0
 19  5  1  6  0  0  0
 19 25  1  0  0  0  0
 20  3  1  0  0  0  0
 20 15  1  0  0  0  0
 21 27  1  0  0  0  0
 22  6  1  0  0  0  0
 22  2  1  0  0  0  0
 23 30  1  0  0  0  0
 24  2  1  0  0  0  0
 26  8  2  0  0  0  0
 28 23  1  0  0  0  0
 29 35  1  0  0  0  0
 30 29  2  0  0  0  0
 31 30  1  0  0  0  0
 31 34  2  0  0  0  0
 32 34  1  0  0  0  0
 33 35  2  0  0  0  0
 34 33  1  0  0  0  0
 36 37  1  0  0  0  0
M  END
>  <MODEL>
3

>  <REMARK>
 VINA RESULT:      -7.8      2.003      5.582
  Name = 
  2 active torsions:
  status: ('A' for Active; 'I' for Inactive)
    1  A    between atoms: C_4  and  C_37
    2  A    between atoms: C_23  and  C_30
                            x       y       z     vdW  Elec       q    Type
                         _______ _______ _______ _____ _____    ______ ____

>  <TORSDO>
F 2

$$$$
=
 OpenBabel11112417253D

 37 43  0  0  1  0  0  0  0  0999 V2000
  193.6750  173.6540  144.0810 O   0  0  0  0  0  0  0  0  0  0  0  0
  192.9760  170.1700  140.7380 C   0  0  0  0  0  0  0  0  0  0  0  0
  190.2430  173.3660  141.1530 C   0  0  0  0  0  0  0  0  0  0  0  0
  194.1720  173.7510  145.3890 C   0  0  2  0  0  3  0  0  0  0  0  0
  190.6740  176.1560  143.4070 O   0  0  0  0  0  0  0  0  0  0  0  0
  190.9110  171.3530  139.9750 C   0  0  0  0  0  0  0  0  0  0  0  0
  190.6030  173.9160  142.3110 C   0  0  1  0  0  3  0  0  0  0  0  0
  193.9790  176.2530  145.0590 C   0  0  0  0  0  0  0  0  0  0  0  0
  191.1050  172.2640  140.8990 C   0  0  0  0  0  0  0  0  0  0  0  0
  189.9100  175.0910  142.9130 C   0  0  0  0  0  0  0  0  0  0  0  0
  189.7740  171.5410  139.0460 C   0  0  0  0  0  3  0  0  0  0  0  0
  193.8280  175.1050  146.0230 C   0  0  0  0  0  2  0  0  0  0  0  0
  192.0320  172.1440  141.9630 C   0  0  0  0  0  0  0  0  0  0  0  0
  194.1130  170.7880  139.9430 C   0  0  0  0  0  1  0  0  0  0  0  0
  187.8160  173.5100  141.1850 C   0  0  0  0  0  3  0  0  0  0  0  0
  188.9220  172.5830  139.1950 C   0  0  0  0  0  3  0  0  0  0  0  0
  192.8620  170.9020  142.1060 C   0  0  0  0  0  2  0  0  0  0  0  0
  192.8330  176.7420  144.2130 C   0  0  1  0  0  3  0  0  0  0  0  0
  191.5680  176.0180  144.4960 C   0  0  1  0  0  3  0  0  0  0  0  0
  189.0260  173.6160  140.3180 C   0  0  0  0  0  0  0  0  0  0  0  0
  191.7510  173.1080  142.8410 C   0  0  0  0  0  0  0  0  0  0  0  0
  191.7610  170.2350  139.9540 O   0  0  0  0  0  0  0  0  0  0  0  0
  188.5540  175.2260  142.8970 C   0  0  0  0  0  0  0  0  0  0  0  0
  193.3150  168.7160  140.9960 C   0  0  0  0  0  1  0  0  0  0  0  0
  191.8360  177.2870  145.0410 O   0  0  0  0  0  0  0  0  0  0  0  0
  195.0680  176.7910  144.9440 O   0  0  0  0  0  0  0  0  0  0  0  0
  192.3650  173.1810  144.1980 C   0  0  0  0  0  2  0  0  0  0  0  0
  187.6230  174.2330  142.2930 C   0  0  0  0  0  3  0  0  0  0  0  0
  187.3190  177.3990  142.8300 C   0  0  0  0  0  3  0  0  0  0  0  0
  187.8960  176.3670  143.5840 C   0  0  0  0  0  0  0  0  0  0  0  0
  187.7930  176.4160  144.9820 C   0  0  0  0  0  3  0  0  0  0  0  0
  187.0480  177.5470  147.0110 N   0  0  0  0  0  1  0  0  0  0  0  0
  186.6060  178.4820  144.8350 N   0  0  0  0  0  0  0  0  0  0  0  0
  187.1460  177.4900  145.5940 C   0  0  0  0  0  0  0  0  0  0  0  0
  186.6770  178.4560  143.4780 C   0  0  0  0  0  3  0  0  0  0  0  0
  196.1590  173.6000  144.0780 O   0  0  0  0  0  1  0  0  0  0  0  0
  195.6770  173.5450  145.3850 C   0  0  0  0  0  2  0  0  0  0  0  0
  1 27  1  0  0  0  0
  1  4  1  0  0  0  0
  2 24  1  0  0  0  0
  2 17  1  0  0  0  0
  4 37  1  6  0  0  0
  4 12  1  0  0  0  0
  6  9  1  0  0  0  0
  7  3  1  1  0  0  0
  7 21  1  0  0  0  0
  7 10  1  0  0  0  0
  8 12  1  0  0  0  0
  9  3  2  0  0  0  0
  9 13  1  0  0  0  0
 10  5  1  0  0  0  0
 11 16  1  0  0  0  0
 11  6  2  0  0  0  0
 13 17  1  0  0  0  0
 13 21  2  0  0  0  0
 14  2  1  0  0  0  0
 15 28  2  0  0  0  0
 16 20  2  0  0  0  0
 18 19  1  0  0  0  0
 18 25  1  1  0  0  0
 18  8  1  0  0  0  0
 19  5  1  6  0  0  0
 19 25  1  0  0  0  0
 20  3  1  0  0  0  0
 20 15  1  0  0  0  0
 21 27  1  0  0  0  0
 22  6  1  0  0  0  0
 22  2  1  0  0  0  0
 23 10  2  0  0  0  0
 23 30  1  0  0  0  0
 26  8  2  0  0  0  0
 28 23  1  0  0  0  0
 29 35  2  0  0  0  0
 29 30  1  0  0  0  0
 30 31  2  0  0  0  0
 31 34  1  0  0  0  0
 33 34  2  0  0  0  0
 34 32  1  0  0  0  0
 35 33  1  0  0  0  0
 36 37  1  0  0  0  0
M  END
>  <MODEL>
4

>  <REMARK>
 VINA RESULT:      -7.7      2.197      5.567
  Name = 
  2 active torsions:
  status: ('A' for Active; 'I' for Inactive)
    1  A    between atoms: C_4  and  C_37
    2  A    between atoms: C_23  and  C_30
                            x       y       z     vdW  Elec       q    Type
                         _______ _______ _______ _____ _____    ______ ____

>  <TORSDO>
F 2

$$$$
=
 OpenBabel11112417253D

 37 43  0  0  1  0  0  0  0  0999 V2000
  194.8330  174.0140  141.7350 O   0  0  0  0  0  0  0  0  0  0  0  0
  193.0180  172.2030  137.5840 C   0  0  0  0  0  0  0  0  0  0  0  0
  190.4900  173.9640  140.4770 C   0  0  0  0  0  0  0  0  0  0  0  0
  195.8540  173.7010  142.6430 C   0  0  2  0  0  3  0  0  0  0  0  0
  191.6390  175.5510  143.5120 O   0  0  0  0  0  0  0  0  0  0  0  0
  190.7330  172.9230  138.2990 C   0  0  0  0  0  0  0  0  0  0  0  0
  191.2820  174.0610  141.5430 C   0  0  1  0  0  3  0  0  0  0  0  0
  195.3100  175.9310  143.7100 C   0  0  0  0  0  0  0  0  0  0  0  0
  191.2410  173.3780  139.4200 C   0  0  0  0  0  0  0  0  0  0  0  0
  190.8330  174.6140  142.8540 C   0  0  0  0  0  0  0  0  0  0  0  0
  189.2880  173.1320  138.0580 C   0  0  0  0  0  3  0  0  0  0  0  0
  195.7130  174.4980  143.9460 C   0  0  0  0  0  2  0  0  0  0  0  0
  192.5540  173.1090  139.8760 C   0  0  0  0  0  0  0  0  0  0  0  0
  193.6140  173.4040  136.8700 C   0  0  0  0  0  1  0  0  0  0  0  0
  188.3360  173.3510  141.4240 C   0  0  0  0  0  3  0  0  0  0  0  0
  188.5050  173.7110  138.9980 C   0  0  0  0  0  3  0  0  0  0  0  0
  193.4660  172.2300  139.0730 C   0  0  0  0  0  2  0  0  0  0  0  0
  193.8670  176.3620  143.6880 C   0  0  1  0  0  3  0  0  0  0  0  0
  192.9360  175.2460  143.9900 C   0  0  1  0  0  3  0  0  0  0  0  0
  189.0110  174.1630  140.3690 C   0  0  0  0  0  0  0  0  0  0  0  0
  192.6140  173.4880  141.1530 C   0  0  0  0  0  0  0  0  0  0  0  0
  191.5790  172.2240  137.4220 O   0  0  0  0  0  0  0  0  0  0  0  0
  189.6090  174.3330  143.3820 C   0  0  0  0  0  0  0  0  0  0  0  0
  193.5650  170.9480  136.9360 C   0  0  0  0  0  1  0  0  0  0  0  0
  193.3050  176.1900  144.9660 O   0  0  0  0  0  0  0  0  0  0  0  0
  196.1770  176.7650  143.5090 O   0  0  0  0  0  0  0  0  0  0  0  0
  193.7640  173.1690  142.0480 C   0  0  0  0  0  2  0  0  0  0  0  0
  188.5990  173.4540  142.7310 C   0  0  0  0  0  3  0  0  0  0  0  0
  189.6910  174.1660  145.8760 C   0  0  0  0  0  3  0  0  0  0  0  0
  189.2320  174.8310  144.7300 C   0  0  0  0  0  0  0  0  0  0  0  0
  188.4580  175.9900  144.8900 C   0  0  0  0  0  3  0  0  0  0  0  0
  187.3520  177.6140  146.3350 N   0  0  0  0  0  1  0  0  0  0  0  0
  188.5950  175.7700  147.2630 N   0  0  0  0  0  0  0  0  0  0  0  0
  188.1430  176.4450  146.1710 C   0  0  0  0  0  0  0  0  0  0  0  0
  189.3580  174.6520  147.1420 C   0  0  0  0  0  3  0  0  0  0  0  0
  197.0430  174.7210  140.8440 O   0  0  0  0  0  1  0  0  0  0  0  0
  197.2080  173.9740  142.0100 C   0  0  0  0  0  2  0  0  0  0  0  0
  1 27  1  0  0  0  0
  1  4  1  0  0  0  0
  2 17  1  0  0  0  0
  4 37  1  6  0  0  0
  4 12  1  0  0  0  0
  6  9  1  0  0  0  0
  7  3  1  1  0  0  0
  7 10  1  0  0  0  0
  8 12  1  0  0  0  0
  9 13  1  0  0  0  0
  9  3  2  0  0  0  0
 10 23  2  0  0  0  0
 10  5  1  0  0  0  0
 11  6  2  0  0  0  0
 11 16  1  0  0  0  0
 13 21  2  0  0  0  0
 14  2  1  0  0  0  0
 15 28  2  0  0  0  0
 16 20  2  0  0  0  0
 17 13  1  0  0  0  0
 18  8  1  1  0  0  0
 18 19  1  0  0  0  0
 18 25  1  0  0  0  0
 19  5  1  6  0  0  0
 19 25  1  0  0  0  0
 20  3  1  0  0  0  0
 20 15  1  0  0  0  0
 21  7  1  0  0  0  0
 21 27  1  0  0  0  0
 22  2  1  0  0  0  0
 22  6  1  0  0  0  0
 23 30  1  0  0  0  0
 24  2  1  0  0  0  0
 26  8  2  0  0  0  0
 28 23  1  0  0  0  0
 29 35  1  0  0  0  0
 30 31  1  0  0  0  0
 30 29  2  0  0  0  0
 31 34  2  0  0  0  0
 34 32  1  0  0  0  0
 34 33  1  0  0  0  0
 35 33  2  0  0  0  0
 36 37  1  0  0  0  0
M  END
>  <MODEL>
5

>  <REMARK>
 VINA RESULT:      -7.4      2.729      6.315
  Name = 
  2 active torsions:
  status: ('A' for Active; 'I' for Inactive)
    1  A    between atoms: C_4  and  C_37
    2  A    between atoms: C_23  and  C_30
                            x       y       z     vdW  Elec       q    Type
                         _______ _______ _______ _____ _____    ______ ____

>  <TORSDO>
F 2

$$$$
=
 OpenBabel11112417253D

 37 43  0  0  1  0  0  0  0  0999 V2000
  190.7950  173.8390  143.0260 O   0  0  0  0  0  0  0  0  0  0  0  0
  189.2940  173.1840  138.4300 C   0  0  0  0  0  0  0  0  0  0  0  0
  187.7090  176.2930  140.8140 C   0  0  0  0  0  0  0  0  0  0  0  0
  191.1860  173.0430  144.1130 C   0  0  2  0  0  3  0  0  0  0  0  0
  188.8250  177.0890  144.1560 O   0  0  0  0  0  0  0  0  0  0  0  0
  187.7900  175.1670  138.6670 C   0  0  0  0  0  0  0  0  0  0  0  0
  188.1280  175.9730  142.0370 C   0  0  1  0  0  3  0  0  0  0  0  0
  191.8360  175.2260  145.2160 C   0  0  0  0  0  0  0  0  0  0  0  0
  188.1890  175.3070  139.9090 C   0  0  0  0  0  0  0  0  0  0  0  0
  187.8030  176.7730  143.2530 C   0  0  0  0  0  0  0  0  0  0  0  0
  186.8550  176.1770  138.1220 C   0  0  0  0  0  3  0  0  0  0  0  0
  191.2440  173.8540  145.4130 C   0  0  0  0  0  2  0  0  0  0  0  0
  188.9360  174.3410  140.6260 C   0  0  0  0  0  0  0  0  0  0  0  0
  190.6310  173.7440  137.9770 C   0  0  0  0  0  1  0  0  0  0  0  0
  185.4630  177.1460  141.1900 C   0  0  0  0  0  3  0  0  0  0  0  0
  186.3740  177.1700  138.9050 C   0  0  0  0  0  3  0  0  0  0  0  0
  189.3070  173.0400  139.9790 C   0  0  0  0  0  2  0  0  0  0  0  0
  190.9820  176.4270  144.9040 C   0  0  1  0  0  3  0  0  0  0  0  0
  189.5330  176.1060  144.8880 C   0  0  1  0  0  3  0  0  0  0  0  0
  186.7110  177.3250  140.3900 C   0  0  0  0  0  0  0  0  0  0  0  0
  188.9080  174.6960  141.9110 C   0  0  0  0  0  0  0  0  0  0  0  0
  188.2340  174.0440  137.9470 O   0  0  0  0  0  0  0  0  0  0  0  0
  186.5690  177.3100  143.4630 C   0  0  0  0  0  0  0  0  0  0  0  0
  189.1250  171.8090  137.8180 C   0  0  0  0  0  1  0  0  0  0  0  0
  190.1480  176.7100  146.0010 O   0  0  0  0  0  0  0  0  0  0  0  0
  193.0450  175.3660  145.2910 O   0  0  0  0  0  0  0  0  0  0  0  0
  189.3970  173.8180  143.0130 C   0  0  0  0  0  2  0  0  0  0  0  0
  185.4210  177.1620  142.5250 C   0  0  0  0  0  3  0  0  0  0  0  0
  185.8850  179.3770  144.6930 C   0  0  0  0  0  3  0  0  0  0  0  0
  186.2570  178.0250  144.7280 C   0  0  0  0  0  0  0  0  0  0  0  0
  186.2800  177.3650  145.9650 C   0  0  0  0  0  3  0  0  0  0  0  0
  185.9890  177.3950  148.3860 N   0  0  0  0  0  1  0  0  0  0  0  0
  185.6110  179.3750  147.0650 N   0  0  0  0  0  0  0  0  0  0  0  0
  185.9570  178.0610  147.1300 C   0  0  0  0  0  0  0  0  0  0  0  0
  185.5660  180.0400  145.8800 C   0  0  0  0  0  3  0  0  0  0  0  0
  193.0880  171.9200  145.0120 O   0  0  0  0  0  1  0  0  0  0  0  0
  192.5390  172.4140  143.8300 C   0  0  0  0  0  2  0  0  0  0  0  0
  1  4  1  0  0  0  0
  2 17  1  0  0  0  0
  4 37  1  6  0  0  0
  4 12  1  0  0  0  0
  6  9  1  0  0  0  0
  7  3  1  1  0  0  0
  7 10  1  0  0  0  0
  8 26  2  0  0  0  0
  8 12  1  0  0  0  0
  9 13  1  0  0  0  0
  9  3  2  0  0  0  0
 10 23  2  0  0  0  0
 10  5  1  0  0  0  0
 11  6  2  0  0  0  0
 11 16  1  0  0  0  0
 13 21  2  0  0  0  0
 14  2  1  0  0  0  0
 15 28  2  0  0  0  0
 16 20  2  0  0  0  0
 17 13  1  0  0  0  0
 18  8  1  1  0  0  0
 18 25  1  0  0  0  0
 19  5  1  6  0  0  0
 19 18  1  0  0  0  0
 19 25  1  0  0  0  0
 20  3  1  0  0  0  0
 20 15  1  0  0  0  0
 21  7  1  0  0  0  0
 21 27  1  0  0  0  0
 22  2  1  0  0  0  0
 22  6  1  0  0  0  0
 23 30  1  0  0  0  0
 24  2  1  0  0  0  0
 27  1  1  0  0  0  0
 28 23  1  0  0  0  0
 29 30  2  0  0  0  0
 29 35  1  0  0  0  0
 30 31  1  0  0  0  0
 31 34  2  0  0  0  0
 33 34  1  0  0  0  0
 34 32  1  0  0  0  0
 35 33  2  0  0  0  0
 37 36  1  0  0  0  0
M  END
>  <MODEL>
6

>  <REMARK>
 VINA RESULT:      -7.3      2.407      6.129
  Name = 
  2 active torsions:
  status: ('A' for Active; 'I' for Inactive)
    1  A    between atoms: C_4  and  C_37
    2  A    between atoms: C_23  and  C_30
                            x       y       z     vdW  Elec       q    Type
                         _______ _______ _______ _____ _____    ______ ____

>  <TORSDO>
F 2

$$$$
=
 OpenBabel11112417253D

 37 43  0  0  1  0  0  0  0  0999 V2000
  190.7020  173.6670  142.1450 O   0  0  0  0  0  0  0  0  0  0  0  0
  189.3480  176.2150  146.0780 C   0  0  0  0  0  0  0  0  0  0  0  0
  187.0840  176.3530  142.5120 C   0  0  0  0  0  0  0  0  0  0  0  0
  191.8970  173.2920  141.5130 C   0  0  2  0  0  3  0  0  0  0  0  0
  187.7830  174.3890  139.5610 O   0  0  0  0  0  0  0  0  0  0  0  0
  187.3450  177.0340  144.8260 C   0  0  0  0  0  0  0  0  0  0  0  0
  187.9000  175.7920  141.6210 C   0  0  0  0  0  0  0  0  0  0  0  0
  190.4290  171.8530  140.0390 C   0  0  0  0  0  0  0  0  0  0  0  0
  187.7440  176.3620  143.7720 C   0  0  0  0  0  0  0  0  0  0  0  0
  187.5530  175.6240  140.1800 C   0  0  0  0  0  0  0  0  0  0  0  0
  186.0510  177.7480  144.7420 C   0  0  0  0  0  3  0  0  0  0  0  0
  191.6420  172.7430  140.1040 C   0  0  0  0  0  2  0  0  0  0  0  0
  189.0250  175.7750  143.6310 C   0  0  0  0  0  0  0  0  0  0  0  0
  188.9200  174.9010  146.7080 C   0  0  0  0  0  1  0  0  0  0  0  0
  186.0260  178.1480  141.2600 C   0  0  0  0  0  3  0  0  0  0  0  0
  185.3410  177.7640  143.5900 C   0  0  0  0  0  3  0  0  0  0  0  0
  190.0450  175.9190  144.7200 C   0  0  0  0  0  2  0  0  0  0  0  0
  189.0600  172.3890  139.7100 C   0  0  1  0  0  3  0  0  0  0  0  0
  189.0780  173.8410  139.4010 C   0  0  1  0  0  3  0  0  0  0  0  0
  185.8030  177.0950  142.2940 C   0  0  2  0  0  3  0  0  0  0  0  0
  189.1640  175.4360  142.3480 C   0  0  0  0  0  0  0  0  0  0  0  0
  188.1900  177.0750  145.9480 O   0  0  0  0  0  0  0  0  0  0  0  0
  186.9100  176.5910  139.4680 C   0  0  0  0  0  0  0  0  0  0  0  0
  190.3480  176.8790  147.0020 C   0  0  0  0  0  1  0  0  0  0  0  0
  189.0470  172.8660  138.3860 O   0  0  0  0  0  0  0  0  0  0  0  0
  190.5530  170.6630  140.2800 O   0  0  0  0  0  0  0  0  0  0  0  0
  190.4570  174.9870  141.7570 C   0  0  0  0  0  2  0  0  0  0  0  0
  186.4910  177.9050  140.0310 C   0  0  0  0  0  3  0  0  0  0  0  0
  185.3650  176.1440  137.5530 C   0  0  0  0  0  3  0  0  0  0  0  0
  186.6600  176.4240  138.0130 C   0  0  0  0  0  0  0  0  0  0  0  0
  187.6880  176.5860  137.0720 C   0  0  0  0  0  3  0  0  0  0  0  0
  188.4550  176.6020  134.7570 N   0  0  0  0  0  1  0  0  0  0  0  0
  186.1480  176.1640  135.2980 N   0  0  0  0  0  0  0  0  0  0  0  0
  187.4130  176.4460  135.7110 C   0  0  0  0  0  0  0  0  0  0  0  0
  185.1280  176.0130  136.1830 C   0  0  0  0  0  3  0  0  0  0  0  0
  192.0120  172.1520  143.6050 O   0  0  0  0  0  1  0  0  0  0  0  0
  192.6190  172.2530  142.3540 C   0  0  0  0  0  2  0  0  0  0  0  0
  2 14  1  0  0  0  0
  2 24  1  0  0  0  0
  3  9  1  0  0  0  0
  4  1  1  0  0  0  0
  4 37  1  1  0  0  0
  5 10  1  0  0  0  0
  6 22  1  0  0  0  0
  7 21  1  0  0  0  0
  7  3  2  0  0  0  0
  8 12  1  0  0  0  0
  8 26  2  0  0  0  0
  9  6  2  0  0  0  0
 10  7  1  0  0  0  0
 11  6  1  0  0  0  0
 12  4  1  0  0  0  0
 13  9  1  0  0  0  0
 13 17  1  0  0  0  0
 16 11  2  0  0  0  0
 17  2  1  0  0  0  0
 18 25  1  6  0  0  0
 18  8  1  0  0  0  0
 19 25  1  6  0  0  0
 19  5  1  0  0  0  0
 19 18  1  0  0  0  0
 20 15  1  6  0  0  0
 20  3  1  0  0  0  0
 20 16  1  0  0  0  0
 21 13  2  0  0  0  0
 22  2  1  0  0  0  0
 23 28  1  0  0  0  0
 23 10  2  0  0  0  0
 27  1  1  0  0  0  0
 27 21  1  0  0  0  0
 28 15  2  0  0  0  0
 29 30  1  0  0  0  0
 30 23  1  0  0  0  0
 31 30  2  0  0  0  0
 32 34  1  0  0  0  0
 33 34  2  0  0  0  0
 33 35  1  0  0  0  0
 34 31  1  0  0  0  0
 35 29  2  0  0  0  0
 37 36  1  0  0  0  0
M  END
>  <MODEL>
7

>  <REMARK>
 VINA RESULT:      -7.2      2.576      4.537
  Name = 
  2 active torsions:
  status: ('A' for Active; 'I' for Inactive)
    1  A    between atoms: C_4  and  C_37
    2  A    between atoms: C_23  and  C_30
                            x       y       z     vdW  Elec       q    Type
                         _______ _______ _______ _____ _____    ______ ____

>  <TORSDO>
F 2

$$$$
=
 OpenBabel11112417253D

 37 43  0  0  1  0  0  0  0  0999 V2000
  193.3370  176.1370  144.5190 O   0  0  0  0  0  0  0  0  0  0  0  0
  188.4790  176.5860  144.5350 C   0  0  0  0  0  0  0  0  0  0  0  0
  190.4070  173.9030  141.8990 C   0  0  0  0  0  0  0  0  0  0  0  0
  194.4560  176.9670  144.6830 C   0  0  2  0  0  3  0  0  0  0  0  0
  193.9610  173.2580  141.8650 O   0  0  0  0  0  0  0  0  0  0  0  0
  188.3370  174.8290  142.7620 C   0  0  0  0  0  0  0  0  0  0  0  0
  191.6840  174.2710  141.9840 C   0  0  0  0  0  0  0  0  0  0  0  0
  195.7970  174.8210  144.6670 C   0  0  0  0  0  0  0  0  0  0  0  0
  189.6470  174.7450  142.7570 C   0  0  2  0  0  3  0  0  0  0  0  0
  192.7800  173.6210  141.2070 C   0  0  0  0  0  0  0  0  0  0  0  0
  187.5810  173.8990  141.8940 C   0  0  0  0  0  3  0  0  0  0  0  0
  195.7470  176.2660  144.2440 C   0  0  0  0  0  2  0  0  0  0  0  0
  190.5130  175.6680  143.3910 C   0  0  0  0  0  0  0  0  0  0  0  0
  188.4740  175.8310  145.8520 C   0  0  0  0  0  1  0  0  0  0  0  0
  190.1260  173.3660  139.5440 C   0  0  0  0  0  3  0  0  0  0  0  0
  188.2250  173.0410  141.0690 C   0  0  0  0  0  3  0  0  0  0  0  0
  189.9530  176.8560  144.1150 C   0  0  0  0  0  2  0  0  0  0  0  0
  195.2940  173.7110  143.7810 C   0  0  1  0  0  3  0  0  0  0  0  0
  194.8290  174.2050  142.4600 C   0  0  1  0  0  3  0  0  0  0  0  0
  189.7470  172.9700  140.9330 C   0  0  0  0  0  0  0  0  0  0  0  0
  191.7450  175.4270  142.9380 C   0  0  0  0  0  0  0  0  0  0  0  0
  187.7370  175.8250  143.5520 O   0  0  0  0  0  0  0  0  0  0  0  0
  192.6320  173.2580  139.9020 C   0  0  0  0  0  0  0  0  0  0  0  0
  187.7860  177.9160  144.7490 C   0  0  0  0  0  1  0  0  0  0  0  0
  196.1010  173.6250  142.6310 O   0  0  0  0  0  0  0  0  0  0  0  0
  196.2380  174.5410  145.7690 O   0  0  0  0  0  0  0  0  0  0  0  0
  192.9040  176.3280  143.2040 C   0  0  0  0  0  2  0  0  0  0  0  0
  191.3870  173.4670  139.1120 C   0  0  0  0  0  3  0  0  0  0  0  0
  193.8750  171.3080  138.9510 C   0  0  0  0  0  3  0  0  0  0  0  0
  193.7740  172.6940  139.1370 C   0  0  0  0  0  0  0  0  0  0  0  0
  194.7390  173.5240  138.5480 C   0  0  0  0  0  3  0  0  0  0  0  0
  196.7690  173.8020  137.2240 N   0  0  0  0  0  1  0  0  0  0  0  0
  195.8610  171.6130  137.6620 N   0  0  0  0  0  0  0  0  0  0  0  0
  195.7850  172.9620  137.8140 C   0  0  0  0  0  0  0  0  0  0  0  0
  194.9340  170.7820  138.2080 C   0  0  0  0  0  3  0  0  0  0  0  0
  193.6540  176.6860  146.9130 O   0  0  0  0  0  1  0  0  0  0  0  0
  194.5660  177.4000  146.1350 C   0  0  0  0  0  2  0  0  0  0  0  0
  1  4  1  0  0  0  0
  2 24  1  0  0  0  0
  2 14  1  0  0  0  0
  3  7  2  0  0  0  0
  4 37  1  1  0  0  0
  6 22  1  0  0  0  0
  7 21  1  0  0  0  0
  8 26  2  0  0  0  0
  9  3  1  6  0  0  0
  9  6  1  0  0  0  0
  9 13  1  0  0  0  0
 10  5  1  0  0  0  0
 10  7  1  0  0  0  0
 11  6  2  0  0  0  0
 12  8  1  0  0  0  0
 12  4  1  0  0  0  0
 13 17  1  0  0  0  0
 15 20  1  0  0  0  0
 16 11  1  0  0  0  0
 17  2  1  0  0  0  0
 18 25  1  6  0  0  0
 18  8  1  0  0  0  0
 19  5  1  6  0  0  0
 19 25  1  0  0  0  0
 19 18  1  0  0  0  0
 20 16  2  0  0  0  0
 20  3  1  0  0  0  0
 21 27  1  0  0  0  0
 21 13  2  0  0  0  0
 22  2  1  0  0  0  0
 23 10  2  0  0  0  0
 27  1  1  0  0  0  0
 28 15  2  0  0  0  0
 28 23  1  0  0  0  0
 29 30  1  0  0  0  0
 30 23  1  0  0  0  0
 31 30  2  0  0  0  0
 32 34  1  0  0  0  0
 33 34  2  0  0  0  0
 33 35  1  0  0  0  0
 34 31  1  0  0  0  0
 35 29  2  0  0  0  0
 37 36  1  0  0  0  0
M  END
>  <MODEL>
8

>  <REMARK>
 VINA RESULT:      -7.1      3.972      7.685
  Name = 
  2 active torsions:
  status: ('A' for Active; 'I' for Inactive)
    1  A    between atoms: C_4  and  C_37
    2  A    between atoms: C_23  and  C_30
                            x       y       z     vdW  Elec       q    Type
                         _______ _______ _______ _____ _____    ______ ____

>  <TORSDO>
F 2

$$$$
=
 OpenBabel11112417253D

 37 43  0  0  1  0  0  0  0  0999 V2000
  189.8220  173.4090  142.2410 O   0  0  0  0  0  0  0  0  0  0  0  0
  189.7500  175.4550  146.6690 C   0  0  0  0  0  0  0  0  0  0  0  0
  193.3160  175.2900  144.4070 C   0  0  0  0  0  0  0  0  0  0  0  0
  189.2180  172.3230  141.5910 C   0  0  2  0  0  3  0  0  0  0  0  0
  193.5490  174.0170  141.0340 O   0  0  0  0  0  0  0  0  0  0  0  0
  192.1750  176.0120  146.4220 C   0  0  0  0  0  0  0  0  0  0  0  0
  193.0110  174.4330  143.4340 C   0  0  0  0  0  0  0  0  0  0  0  0
  190.2790  173.2510  139.4900 C   0  0  0  0  0  0  0  0  0  0  0  0
  192.1760  175.4320  145.2450 C   0  0  0  0  0  0  0  0  0  0  0  0
  193.9710  174.0230  142.3690 C   0  0  0  0  0  0  0  0  0  0  0  0
  193.4220  176.6720  146.8700 C   0  0  0  0  0  3  0  0  0  0  0  0
  189.9080  172.0090  140.2570 C   0  0  0  0  0  2  0  0  0  0  0  0
  191.1300  174.6160  144.7510 C   0  0  0  0  0  0  0  0  0  0  0  0
  189.0030  176.6240  146.0510 C   0  0  0  0  0  1  0  0  0  0  0  0
  195.6240  174.7430  144.9420 C   0  0  0  0  0  3  0  0  0  0  0  0
  194.5460  176.6140  146.1180 C   0  0  0  0  0  3  0  0  0  0  0  0
  189.9210  174.3430  145.5960 C   0  0  0  0  0  2  0  0  0  0  0  0
  191.6250  173.9120  139.6420 C   0  0  1  0  0  3  0  0  0  0  0  0
  192.5250  173.1660  140.5570 C   0  0  1  0  0  3  0  0  0  0  0  0
  194.6460  175.8600  144.7910 C   0  0  2  0  0  3  0  0  0  0  0  0
  191.5990  173.9850  143.6730 C   0  0  0  0  0  0  0  0  0  0  0  0
  191.0100  175.9300  147.2040 O   0  0  0  0  0  0  0  0  0  0  0  0
  195.2830  173.7640  142.6310 C   0  0  0  0  0  0  0  0  0  0  0  0
  188.9130  174.9060  147.8050 C   0  0  0  0  0  1  0  0  0  0  0  0
  192.6280  173.0530  139.1580 O   0  0  0  0  0  0  0  0  0  0  0  0
  189.4600  173.7510  138.7370 O   0  0  0  0  0  0  0  0  0  0  0  0
  190.8700  172.8740  142.9950 C   0  0  0  0  0  2  0  0  0  0  0  0
  195.8990  173.8530  143.9840 C   0  0  0  0  0  3  0  0  0  0  0  0
  197.0610  174.1630  140.9190 C   0  0  0  0  0  3  0  0  0  0  0  0
  196.1880  173.2720  141.5600 C   0  0  0  0  0  0  0  0  0  0  0  0
  196.2270  171.9170  141.2020 C   0  0  0  0  0  3  0  0  0  0  0  0
  197.1420  170.1120  139.8390 N   0  0  0  0  0  1  0  0  0  0  0  0
  197.9340  172.3760  139.5980 N   0  0  0  0  0  0  0  0  0  0  0  0
  197.1080  171.4850  140.2100 C   0  0  0  0  0  0  0  0  0  0  0  0
  197.9300  173.6930  139.9320 C   0  0  0  0  0  3  0  0  0  0  0  0
  187.3900  173.7960  142.0110 O   0  0  0  0  0  1  0  0  0  0  0  0
  187.7460  172.6160  141.3590 C   0  0  0  0  0  2  0  0  0  0  0  0
  1 27  1  0  0  0  0
  2 22  1  0  0  0  0
  2 24  1  0  0  0  0
  3 20  1  0  0  0  0
  3  9  1  0  0  0  0
  4 37  1  6  0  0  0
  4  1  1  0  0  0  0
  5 10  1  0  0  0  0
  6 11  1  0  0  0  0
  6 22  1  0  0  0  0
  7 21  1  0  0  0  0
  7  3  2  0  0  0  0
  8 18  1  0  0  0  0
  8 12  1  0  0  0  0
  9  6  2  0  0  0  0
 10 23  2  0  0  0  0
 10  7  1  0  0  0  0
 12  4  1  0  0  0  0
 13  9  1  0  0  0  0
 13 17  1  0  0  0  0
 14  2  1  0  0  0  0
 16 11  2  0  0  0  0
 17  2  1  0  0  0  0
 18 25  1  6  0  0  0
 18 19  1  0  0  0  0
 19 25  1  6  0  0  0
 19  5  1  0  0  0  0
 20 15  1  1  0  0  0
 20 16  1  0  0  0  0
 21 13  2  0  0  0  0
 23 28  1  0  0  0  0
 26  8  2  0  0  0  0
 27 21  1  0  0  0  0
 28 15  2  0  0  0  0
 29 30  1  0  0  0  0
 30 23  1  0  0  0  0
 31 30  2  0  0  0  0
 32 34  1  0  0  0  0
 33 35  1  0  0  0  0
 33 34  2  0  0  0  0
 34 31  1  0  0  0  0
 35 29  2  0  0  0  0
 37 36  1  0  0  0  0
M  END
>  <MODEL>
9

>  <REMARK>
 VINA RESULT:      -7.0      4.247      6.879
  Name = 
  2 active torsions:
  status: ('A' for Active; 'I' for Inactive)
    1  A    between atoms: C_4  and  C_37
    2  A    between atoms: C_23  and  C_30
                            x       y       z     vdW  Elec       q    Type
                         _______ _______ _______ _____ _____    ______ ____

>  <TORSDO>
F 2

$$$$
