=
 OpenBabel11112416413D

 32 37  0  0  1  0  0  0  0  0999 V2000
  188.3280  176.1470  141.8900 C   0  0  1  0  0  3  0  0  0  0  0  0
  191.9990  178.2840  144.3450 C   0  0  0  0  0  3  0  0  0  0  0  0
  192.5760  177.0290  144.5490 C   0  0  0  0  0  3  0  0  0  0  0  0
  188.4850  173.7570  141.0520 C   0  0  2  0  0  3  0  0  0  0  0  0
  189.2080  172.4350  141.3780 C   0  0  2  0  0  3  0  0  0  0  0  0
  186.3580  177.2240  141.7150 C   0  0  2  0  0  3  0  0  0  0  0  0
  188.3890  178.6160  142.1730 O   0  0  0  0  0  0  0  0  0  0  0  0
  191.0050  171.4090  142.4900 N   0  0  0  0  0  0  0  0  0  0  0  0
  190.8760  178.4110  143.5240 C   0  0  0  0  0  3  0  0  0  0  0  0
  189.1510  177.4300  141.9700 C   0  0  1  0  0  3  0  0  0  0  0  0
  190.3150  177.2830  142.9110 C   0  0  0  0  0  0  0  0  0  0  0  0
  190.3030  174.7590  142.4940 C   0  0  2  0  0  3  0  0  0  0  0  0
  189.9670  171.4760  143.4380 N   0  0  0  0  0  2  0  0  0  0  0  0
  187.0370  178.3590  142.5340 C   0  0  2  0  0  3  0  0  0  0  0  0
  188.7650  171.8900  142.7170 C   0  0  0  0  0  2  0  0  0  0  0  0
  192.0370  175.9000  143.9270 C   0  0  0  0  0  3  0  0  0  0  0  0
  190.9250  176.0150  143.0790 C   0  0  0  0  0  0  0  0  0  0  0  0
  191.3340  173.8350  141.8670 C   0  0  0  0  0  2  0  0  0  0  0  0
  187.2650  176.3920  141.0170 O   0  0  0  0  0  0  0  0  0  0  0  0
  188.1560  173.7840  139.6970 O   0  0  0  0  0  1  0  0  0  0  0  0
  192.2740  171.5840  143.1900 C   0  0  0  0  0  1  0  0  0  0  0  0
  189.2510  175.0340  141.4170 C   0  0  2  0  0  3  0  0  0  0  0  0
  190.7300  172.4540  141.4960 C   0  0  2  0  0  3  0  0  0  0  0  0
  185.9690  179.0880  144.6580 C   0  0  0  0  0  2  0  0  0  0  0  0
  186.9200  178.0900  144.0280 C   0  0  1  0  0  3  0  0  0  0  0  0
  185.4960  177.6830  144.3500 C   0  0  1  0  0  3  0  0  0  0  0  0
  185.4970  176.8580  145.6220 C   0  0  0  0  0  2  0  0  0  0  0  0
  185.0240  177.6880  146.7640 C   0  0  0  0  0  0  0  0  0  0  0  0
  183.8500  178.1390  146.7700 O   0  0  0  0  0  0  0  0  0  0  0  0
  185.8670  177.9350  147.8390 O   0  0  0  0  0  1  0  0  0  0  0  0
  184.1840  178.1500  141.4040 O   0  0  0  0  0  1  0  0  0  0  0  0
  185.3690  177.8310  140.7400 C   0  0  0  0  0  2  0  0  0  0  0  0
  1 19  1  6  0  0  0
  1 10  1  0  0  0  0
  2  3  1  0  0  0  0
  4 20  1  6  0  0  0
  4  5  1  0  0  0  0
  4 22  1  0  0  0  0
  5 23  1  0  0  0  0
  5 15  1  1  0  0  0
  6 32  1  6  0  0  0
  6 14  1  0  0  0  0
  8 21  1  0  0  0  0
  8 13  1  0  0  0  0
  9  2  2  0  0  0  0
 10  7  1  1  0  0  0
 10 11  1  0  0  0  0
 11 17  2  0  0  0  0
 11  9  1  0  0  0  0
 12 18  1  6  0  0  0
 12 17  1  0  0  0  0
 14  7  1  6  0  0  0
 14 25  1  0  0  0  0
 15 13  1  0  0  0  0
 16  3  2  0  0  0  0
 17 16  1  0  0  0  0
 19  6  1  0  0  0  0
 22  1  1  0  0  0  0
 22 12  1  0  0  0  0
 23 18  1  0  0  0  0
 23  8  1  0  0  0  0
 25 26  1  0  0  0  0
 25 24  1  0  0  0  0
 26 24  1  0  0  0  0
 26 27  1  0  0  0  0
 27 28  1  0  0  0  0
 28 29  2  0  0  0  0
 28 30  1  0  0  0  0
 32 31  1  0  0  0  0
M  END
>  <MODEL>
1

>  <REMARK>
 VINA RESULT:      -7.4      0.000      0.000
  Name = 
  4 active torsions:
  status: ('A' for Active; 'I' for Inactive)
    1  A    between atoms: C_7  and  C_19
    2  A    between atoms: C_10  and  C_17
    3  A    between atoms: C_20  and  C_29
    4  A    between atoms: C_29  and  C_30
                            x       y       z     vdW  Elec       q    Type
                         _______ _______ _______ _____ _____    ______ ____

>  <TORSDO>
F 4

$$$$
=
 OpenBabel11112416413D

 32 37  0  0  1  0  0  0  0  0999 V2000
  190.2790  174.6670  143.6280 C   0  0  1  0  0  3  0  0  0  0  0  0
  191.1600  176.7080  148.0010 C   0  0  0  0  0  3  0  0  0  0  0  0
  190.1460  177.6350  147.7580 C   0  0  0  0  0  3  0  0  0  0  0  0
  188.1570  175.1490  142.3230 C   0  0  2  0  0  3  0  0  0  0  0  0
  187.0890  176.2510  142.1690 C   0  0  2  0  0  3  0  0  0  0  0  0
  191.9050  173.4650  142.6350 C   0  0  2  0  0  3  0  0  0  0  0  0
  192.0390  173.7430  145.1210 O   0  0  0  0  0  0  0  0  0  0  0  0
  186.0990  178.1620  143.1060 N   0  0  0  0  0  0  0  0  0  0  0  0
  191.3700  175.6530  147.1090 C   0  0  0  0  0  3  0  0  0  0  0  0
  190.7520  174.3490  145.0430 C   0  0  1  0  0  3  0  0  0  0  0  0
  190.5740  175.5250  145.9640 C   0  0  0  0  0  0  0  0  0  0  0  0
  188.6800  176.3760  144.4710 C   0  0  2  0  0  3  0  0  0  0  0  0
  187.1910  178.6360  142.3580 N   0  0  0  0  0  2  0  0  0  0  0  0
  192.7580  173.7950  143.8940 C   0  0  2  0  0  3  0  0  0  0  0  0
  187.6870  177.5060  141.5750 C   0  0  0  0  0  2  0  0  0  0  0  0
  189.3320  177.5060  146.6290 C   0  0  0  0  0  3  0  0  0  0  0  0
  189.5140  176.4370  145.7390 C   0  0  0  0  0  0  0  0  0  0  0  0
  187.1970  176.5770  144.7380 C   0  0  0  0  0  2  0  0  0  0  0  0
  190.5080  173.5290  142.8500 O   0  0  0  0  0  0  0  0  0  0  0  0
  187.6020  173.9140  141.9880 O   0  0  0  0  0  1  0  0  0  0  0  0
  185.9480  179.0120  144.2840 C   0  0  0  0  0  1  0  0  0  0  0  0
  188.8110  175.0560  143.7070 C   0  0  2  0  0  3  0  0  0  0  0  0
  186.3870  176.7590  143.4260 C   0  0  2  0  0  3  0  0  0  0  0  0
  194.7470  175.1450  144.5300 C   0  0  0  0  0  2  0  0  0  0  0  0
  193.4570  175.1380  143.7350 C   0  0  1  0  0  3  0  0  0  0  0  0
  194.7820  174.9290  143.0320 C   0  0  1  0  0  3  0  0  0  0  0  0
  195.1820  176.2190  142.3420 C   0  0  0  0  0  2  0  0  0  0  0  0
  196.6630  176.3690  142.3700 C   0  0  0  0  0  0  0  0  0  0  0  0
  197.2030  177.1260  143.2180 O   0  0  0  0  0  1  0  0  0  0  0  0
  197.4520  175.6460  141.4850 O   0  0  0  0  0  0  0  0  0  0  0  0
  191.6800  171.1080  142.9100 O   0  0  0  0  0  1  0  0  0  0  0  0
  192.2800  172.0890  142.1210 C   0  0  0  0  0  2  0  0  0  0  0  0
  1 19  1  6  0  0  0
  1 22  1  0  0  0  0
  1 10  1  0  0  0  0
  3  2  1  0  0  0  0
  4 20  1  1  0  0  0
  4 22  1  0  0  0  0
  5 15  1  1  0  0  0
  5  4  1  0  0  0  0
  5 23  1  0  0  0  0
  6 32  1  1  0  0  0
  6 19  1  0  0  0  0
  6 14  1  0  0  0  0
  8 23  1  0  0  0  0
  8 21  1  0  0  0  0
  9  2  2  0  0  0  0
 10  7  1  6  0  0  0
 10 11  1  0  0  0  0
 11  9  1  0  0  0  0
 12 18  1  1  0  0  0
 12 17  1  0  0  0  0
 13  8  1  0  0  0  0
 14  7  1  1  0  0  0
 15 13  1  0  0  0  0
 16  3  2  0  0  0  0
 17 11  2  0  0  0  0
 17 16  1  0  0  0  0
 22 12  1  0  0  0  0
 23 18  1  0  0  0  0
 25 14  1  0  0  0  0
 25 24  1  0  0  0  0
 26 25  1  0  0  0  0
 26 24  1  0  0  0  0
 27 28  1  0  0  0  0
 27 26  1  0  0  0  0
 28 29  1  0  0  0  0
 30 28  2  0  0  0  0
 32 31  1  0  0  0  0
M  END
>  <MODEL>
2

>  <REMARK>
 VINA RESULT:      -7.4      4.123      7.361
  Name = 
  4 active torsions:
  status: ('A' for Active; 'I' for Inactive)
    1  A    between atoms: C_7  and  C_19
    2  A    between atoms: C_10  and  C_17
    3  A    between atoms: C_20  and  C_29
    4  A    between atoms: C_29  and  C_30
                            x       y       z     vdW  Elec       q    Type
                         _______ _______ _______ _____ _____    ______ ____

>  <TORSDO>
F 4

$$$$
=
 OpenBabel11112416413D

 32 37  0  0  1  0  0  0  0  0999 V2000
  190.9410  175.7320  143.0300 C   0  0  1  0  0  3  0  0  0  0  0  0
  194.5520  176.7710  146.1840 C   0  0  0  0  0  3  0  0  0  0  0  0
  194.9380  175.4300  146.1630 C   0  0  0  0  0  3  0  0  0  0  0  0
  190.8870  173.5610  141.7170 C   0  0  2  0  0  3  0  0  0  0  0  0
  191.3960  172.1090  141.8130 C   0  0  2  0  0  3  0  0  0  0  0  0
  189.1550  177.1010  142.9230 C   0  0  2  0  0  3  0  0  0  0  0  0
  191.2810  178.0580  143.8380 O   0  0  0  0  0  0  0  0  0  0  0  0
  192.9110  170.6290  142.8280 N   0  0  0  0  0  0  0  0  0  0  0  0
  193.5540  177.2240  145.3170 C   0  0  0  0  0  3  0  0  0  0  0  0
  191.9050  176.8380  143.4500 C   0  0  1  0  0  3  0  0  0  0  0  0
  192.9280  176.3360  144.4330 C   0  0  0  0  0  0  0  0  0  0  0  0
  192.6430  173.9770  143.4880 C   0  0  2  0  0  3  0  0  0  0  0  0
  191.7900  170.6560  143.6770 N   0  0  0  0  0  2  0  0  0  0  0  0
  189.8760  177.9360  144.0200 C   0  0  2  0  0  3  0  0  0  0  0  0
  190.7390  171.3790  142.9630 C   0  0  0  0  0  2  0  0  0  0  0  0
  194.3350  174.5400  145.2720 C   0  0  0  0  0  3  0  0  0  0  0  0
  193.3490  174.9840  144.3780 C   0  0  0  0  0  0  0  0  0  0  0  0
  193.6130  173.0550  142.7670 C   0  0  0  0  0  2  0  0  0  0  0  0
  190.0230  176.3000  142.1430 O   0  0  0  0  0  0  0  0  0  0  0  0
  190.7200  173.9070  140.3770 O   0  0  0  0  0  1  0  0  0  0  0  0
  194.1050  170.4720  143.6530 C   0  0  0  0  0  1  0  0  0  0  0  0
  191.7620  174.6120  142.4090 C   0  0  2  0  0  3  0  0  0  0  0  0
  192.8850  171.8790  142.0600 C   0  0  2  0  0  3  0  0  0  0  0  0
  188.1270  177.7350  145.7780 C   0  0  0  0  0  2  0  0  0  0  0  0
  189.5570  177.3950  145.4070 C   0  0  1  0  0  3  0  0  0  0  0  0
  188.4740  176.3430  145.2940 C   0  0  1  0  0  3  0  0  0  0  0  0
  188.5750  175.4040  146.4810 C   0  0  0  0  0  2  0  0  0  0  0  0
  189.7960  174.5610  146.3560 C   0  0  0  0  0  0  0  0  0  0  0  0
  189.7940  173.5610  145.5930 O   0  0  0  0  0  0  0  0  0  0  0  0
  190.9480  174.9000  147.0530 O   0  0  0  0  0  1  0  0  0  0  0  0
  187.0670  178.1700  142.5050 O   0  0  0  0  0  1  0  0  0  0  0  0
  188.3670  178.0290  142.0210 C   0  0  0  0  0  2  0  0  0  0  0  0
  1 19  1  6  0  0  0
  1 10  1  0  0  0  0
  3  2  1  0  0  0  0
  4 20  1  6  0  0  0
  4  5  1  0  0  0  0
  4 22  1  0  0  0  0
  5 23  1  0  0  0  0
  5 15  1  1  0  0  0
  6 32  1  6  0  0  0
  6 14  1  0  0  0  0
  8 21  1  0  0  0  0
  8 13  1  0  0  0  0
  9  2  2  0  0  0  0
 10  7  1  1  0  0  0
 10 11  1  0  0  0  0
 11  9  1  0  0  0  0
 12 18  1  6  0  0  0
 12 17  1  0  0  0  0
 14  7  1  6  0  0  0
 14 25  1  0  0  0  0
 15 13  1  0  0  0  0
 16  3  2  0  0  0  0
 17 11  2  0  0  0  0
 17 16  1  0  0  0  0
 19  6  1  0  0  0  0
 22  1  1  0  0  0  0
 22 12  1  0  0  0  0
 23 18  1  0  0  0  0
 23  8  1  0  0  0  0
 25 24  1  0  0  0  0
 26 25  1  0  0  0  0
 26 24  1  0  0  0  0
 26 27  1  0  0  0  0
 28 27  1  0  0  0  0
 28 30  1  0  0  0  0
 29 28  2  0  0  0  0
 32 31  1  0  0  0  0
M  END
>  <MODEL>
3

>  <REMARK>
 VINA RESULT:      -7.1      2.531      3.402
  Name = 
  4 active torsions:
  status: ('A' for Active; 'I' for Inactive)
    1  A    between atoms: C_7  and  C_19
    2  A    between atoms: C_10  and  C_17
    3  A    between atoms: C_20  and  C_29
    4  A    between atoms: C_29  and  C_30
                            x       y       z     vdW  Elec       q    Type
                         _______ _______ _______ _____ _____    ______ ____

>  <TORSDO>
F 4

$$$$
=
 OpenBabel11112416413D

 32 37  0  0  1  0  0  0  0  0999 V2000
  190.0360  174.2220  143.6100 C   0  0  1  0  0  3  0  0  0  0  0  0
  191.1920  176.1850  147.9550 C   0  0  0  0  0  3  0  0  0  0  0  0
  190.2800  177.2140  147.7180 C   0  0  0  0  0  3  0  0  0  0  0  0
  187.9600  174.9210  142.3290 C   0  0  2  0  0  3  0  0  0  0  0  0
  187.0150  176.1300  142.1800 C   0  0  2  0  0  3  0  0  0  0  0  0
  191.5090  172.8450  142.6060 C   0  0  2  0  0  3  0  0  0  0  0  0
  191.7060  173.1230  145.0880 O   0  0  0  0  0  0  0  0  0  0  0  0
  186.2500  178.1440  143.1150 N   0  0  0  0  0  0  0  0  0  0  0  0
  191.2740  175.1070  147.0700 C   0  0  0  0  0  3  0  0  0  0  0  0
  190.4910  173.8630  145.0220 C   0  0  1  0  0  3  0  0  0  0  0  0
  190.4530  175.0580  145.9350 C   0  0  0  0  0  0  0  0  0  0  0  0
  188.6420  176.0990  144.4600 C   0  0  2  0  0  3  0  0  0  0  0  0
  187.3770  178.4920  142.3490 N   0  0  0  0  0  2  0  0  0  0  0  0
  192.4090  173.0890  143.8510 C   0  0  2  0  0  3  0  0  0  0  0  0
  187.7360  177.3100  141.5690 C   0  0  0  0  0  2  0  0  0  0  0  0
  189.4420  177.1660  146.6010 C   0  0  0  0  0  3  0  0  0  0  0  0
  189.4950  176.0780  145.7170 C   0  0  0  0  0  0  0  0  0  0  0  0
  187.1930  176.4600  144.7450 C   0  0  0  0  0  2  0  0  0  0  0  0
  190.1300  173.0600  142.8390 O   0  0  0  0  0  0  0  0  0  0  0  0
  187.2710  173.7510  142.0120 O   0  0  0  0  0  1  0  0  0  0  0  0
  186.2080  179.0130  144.2870 C   0  0  0  0  0  1  0  0  0  0  0  0
  188.6190  174.7670  143.7050 C   0  0  2  0  0  3  0  0  0  0  0  0
  186.3900  176.7200  143.4420 C   0  0  2  0  0  3  0  0  0  0  0  0
  194.2510  174.1450  142.5550 C   0  0  0  0  0  2  0  0  0  0  0  0
  193.2470  174.3480  143.6720 C   0  0  1  0  0  3  0  0  0  0  0  0
  192.9820  174.9310  142.3000 C   0  0  1  0  0  3  0  0  0  0  0  0
  193.2910  176.4160  142.3290 C   0  0  0  0  0  2  0  0  0  0  0  0
  192.3180  177.1170  143.2120 C   0  0  0  0  0  0  0  0  0  0  0  0
  191.1930  177.4580  142.7630 O   0  0  0  0  0  0  0  0  0  0  0  0
  192.6370  177.3610  144.5410 O   0  0  0  0  0  1  0  0  0  0  0  0
  190.5170  170.7380  142.0980 O   0  0  0  0  0  1  0  0  0  0  0  0
  191.7260  171.4330  142.0980 C   0  0  0  0  0  2  0  0  0  0  0  0
  1 19  1  6  0  0  0
  1 22  1  0  0  0  0
  1 10  1  0  0  0  0
  3  2  1  0  0  0  0
  4 20  1  1  0  0  0
  4 22  1  0  0  0  0
  5 15  1  1  0  0  0
  5  4  1  0  0  0  0
  5 23  1  0  0  0  0
  6 32  1  1  0  0  0
  6 19  1  0  0  0  0
  6 14  1  0  0  0  0
  8 23  1  0  0  0  0
  8 21  1  0  0  0  0
  9  2  2  0  0  0  0
 10  7  1  6  0  0  0
 10 11  1  0  0  0  0
 11  9  1  0  0  0  0
 12 18  1  1  0  0  0
 12 17  1  0  0  0  0
 13  8  1  0  0  0  0
 14  7  1  1  0  0  0
 15 13  1  0  0  0  0
 16  3  2  0  0  0  0
 17 11  2  0  0  0  0
 17 16  1  0  0  0  0
 22 12  1  0  0  0  0
 23 18  1  0  0  0  0
 24 25  1  0  0  0  0
 25 14  1  0  0  0  0
 26 27  1  0  0  0  0
 26 24  1  0  0  0  0
 26 25  1  0  0  0  0
 27 28  1  0  0  0  0
 28 30  1  0  0  0  0
 29 28  2  0  0  0  0
 32 31  1  0  0  0  0
M  END
>  <MODEL>
4

>  <REMARK>
 VINA RESULT:      -7.0      3.371      6.462
  Name = 
  4 active torsions:
  status: ('A' for Active; 'I' for Inactive)
    1  A    between atoms: C_7  and  C_19
    2  A    between atoms: C_10  and  C_17
    3  A    between atoms: C_20  and  C_29
    4  A    between atoms: C_29  and  C_30
                            x       y       z     vdW  Elec       q    Type
                         _______ _______ _______ _____ _____    ______ ____

>  <TORSDO>
F 4

$$$$
=
 OpenBabel11112416413D

 32 37  0  0  1  0  0  0  0  0999 V2000
  191.6110  175.4640  145.2730 C   0  0  1  0  0  3  0  0  0  0  0  0
  190.2660  171.2650  143.1220 C   0  0  0  0  0  3  0  0  0  0  0  0
  191.5550  171.1320  142.6040 C   0  0  0  0  0  3  0  0  0  0  0  0
  194.0490  176.1150  145.5420 C   0  0  2  0  0  3  0  0  0  0  0  0
  195.4190  175.8640  144.8810 C   0  0  2  0  0  3  0  0  0  0  0  0
  190.0270  176.9710  145.8150 C   0  0  2  0  0  3  0  0  0  0  0  0
  189.3010  174.5890  145.5470 O   0  0  0  0  0  0  0  0  0  0  0  0
  196.6810  174.4940  143.4510 N   0  0  0  0  0  0  0  0  0  0  0  0
  189.9770  172.2930  144.0240 C   0  0  0  0  0  3  0  0  0  0  0  0
  190.6820  174.2630  145.4290 C   0  0  1  0  0  3  0  0  0  0  0  0
  190.9740  173.2020  144.4030 C   0  0  0  0  0  0  0  0  0  0  0  0
  193.3810  174.0510  144.2440 C   0  0  2  0  0  3  0  0  0  0  0  0
  196.0640  175.4400  142.6130 N   0  0  0  0  0  2  0  0  0  0  0  0
  189.0150  175.9460  145.2280 C   0  0  2  0  0  3  0  0  0  0  0  0
  195.4630  176.4460  143.4870 C   0  0  0  0  0  2  0  0  0  0  0  0
  192.5620  172.0200  142.9920 C   0  0  0  0  0  3  0  0  0  0  0  0
  192.2950  173.0420  143.9160 C   0  0  0  0  0  0  0  0  0  0  0  0
  194.7080  173.3900  144.5790 C   0  0  0  0  0  2  0  0  0  0  0  0
  191.2460  176.3970  146.2470 O   0  0  0  0  0  0  0  0  0  0  0  0
  194.2330  176.4320  146.8870 O   0  0  0  0  0  1  0  0  0  0  0  0
  196.7680  173.2290  142.7260 C   0  0  0  0  0  1  0  0  0  0  0  0
  193.0410  174.9660  145.4230 C   0  0  2  0  0  3  0  0  0  0  0  0
  195.8670  174.4200  144.6700 C   0  0  2  0  0  3  0  0  0  0  0  0
  187.4250  175.9580  143.3150 C   0  0  0  0  0  2  0  0  0  0  0  0
  188.8750  176.1270  143.7220 C   0  0  1  0  0  3  0  0  0  0  0  0
  188.0170  177.3450  143.4460 C   0  0  1  0  0  3  0  0  0  0  0  0
  188.3560  177.8830  142.0700 C   0  0  0  0  0  2  0  0  0  0  0  0
  187.1190  177.9900  141.2490 C   0  0  0  0  0  0  0  0  0  0  0  0
  187.0640  177.4410  140.1180 O   0  0  0  0  0  0  0  0  0  0  0  0
  186.0100  178.6630  141.7460 O   0  0  0  0  0  1  0  0  0  0  0  0
  187.9940  177.5470  146.9160 O   0  0  0  0  0  1  0  0  0  0  0  0
  189.3780  177.7160  146.9640 C   0  0  0  0  0  2  0  0  0  0  0  0
  1 22  1  0  0  0  0
  1 10  1  0  0  0  0
  1 19  1  1  0  0  0
  2  9  1  0  0  0  0
  3 16  1  0  0  0  0
  3  2  2  0  0  0  0
  4 20  1  1  0  0  0
  5 15  1  6  0  0  0
  5  4  1  0  0  0  0
  6 19  1  0  0  0  0
  6 32  1  1  0  0  0
  8 23  1  0  0  0  0
  9 11  2  0  0  0  0
 10 11  1  6  0  0  0
 10  7  1  0  0  0  0
 12 18  1  1  0  0  0
 12 22  1  0  0  0  0
 13  8  1  0  0  0  0
 13 15  1  0  0  0  0
 14  7  1  6  0  0  0
 14  6  1  0  0  0  0
 16 17  2  0  0  0  0
 17 12  1  0  0  0  0
 17 11  1  0  0  0  0
 18 23  1  0  0  0  0
 21  8  1  0  0  0  0
 22  4  1  0  0  0  0
 23  5  1  0  0  0  0
 24 26  1  0  0  0  0
 24 25  1  0  0  0  0
 25 14  1  0  0  0  0
 26 25  1  0  0  0  0
 27 26  1  0  0  0  0
 28 30  1  0  0  0  0
 28 27  1  0  0  0  0
 29 28  2  0  0  0  0
 31 32  1  0  0  0  0
M  END
>  <MODEL>
5

>  <REMARK>
 VINA RESULT:      -7.0      3.376      5.933
  Name = 
  4 active torsions:
  status: ('A' for Active; 'I' for Inactive)
    1  A    between atoms: C_7  and  C_19
    2  A    between atoms: C_10  and  C_17
    3  A    between atoms: C_20  and  C_29
    4  A    between atoms: C_29  and  C_30
                            x       y       z     vdW  Elec       q    Type
                         _______ _______ _______ _____ _____    ______ ____

>  <TORSDO>
F 4

$$$$
=
 OpenBabel11112416413D

 32 37  0  0  1  0  0  0  0  0999 V2000
  190.8930  175.1040  142.8570 C   0  0  1  0  0  3  0  0  0  0  0  0
  194.2190  176.5710  146.1500 C   0  0  0  0  0  3  0  0  0  0  0  0
  194.7770  175.2910  146.1390 C   0  0  0  0  0  3  0  0  0  0  0  0
  191.1700  172.9570  141.5320 C   0  0  2  0  0  3  0  0  0  0  0  0
  191.8590  171.5820  141.6410 C   0  0  2  0  0  3  0  0  0  0  0  0
  188.9500  176.2310  142.6890 C   0  0  2  0  0  3  0  0  0  0  0  0
  190.8990  177.4470  143.6880 O   0  0  0  0  0  0  0  0  0  0  0  0
  193.5140  170.3000  142.7060 N   0  0  0  0  0  0  0  0  0  0  0  0
  193.2040  176.8990  145.2490 C   0  0  0  0  0  3  0  0  0  0  0  0
  191.6900  176.3210  143.3190 C   0  0  1  0  0  3  0  0  0  0  0  0
  192.7310  175.9460  144.3370 C   0  0  0  0  0  0  0  0  0  0  0  0
  192.7900  173.5790  143.3700 C   0  0  2  0  0  3  0  0  0  0  0  0
  192.3680  170.1740  143.5120 N   0  0  0  0  0  2  0  0  0  0  0  0
  189.5150  177.1420  143.8160 C   0  0  2  0  0  3  0  0  0  0  0  0
  191.2600  170.7620  142.7610 C   0  0  0  0  0  2  0  0  0  0  0  0
  194.3280  174.3390  145.2200 C   0  0  0  0  0  3  0  0  0  0  0  0
  193.3270  174.6610  144.2910 C   0  0  0  0  0  0  0  0  0  0  0  0
  193.8980  172.7970  142.6830 C   0  0  0  0  0  2  0  0  0  0  0  0
  189.9420  175.5570  141.9380 O   0  0  0  0  0  0  0  0  0  0  0  0
  191.0090  173.2910  140.1880 O   0  0  0  0  0  1  0  0  0  0  0  0
  194.6870  170.2910  143.5750 C   0  0  0  0  0  1  0  0  0  0  0  0
  191.8750  174.1060  142.2620 C   0  0  2  0  0  3  0  0  0  0  0  0
  193.3550  171.5440  141.9430 C   0  0  2  0  0  3  0  0  0  0  0  0
  189.6010  177.5410  146.2700 C   0  0  0  0  0  2  0  0  0  0  0  0
  189.2180  176.5510  145.1880 C   0  0  1  0  0  3  0  0  0  0  0  0
  188.1500  177.3820  145.8670 C   0  0  1  0  0  3  0  0  0  0  0  0
  187.4310  176.5210  146.8870 C   0  0  0  0  0  2  0  0  0  0  0  0
  186.0970  177.1070  147.1940 C   0  0  0  0  0  0  0  0  0  0  0  0
  185.9700  177.9140  148.1510 O   0  0  0  0  0  1  0  0  0  0  0  0
  185.0010  176.7920  146.4010 O   0  0  0  0  0  0  0  0  0  0  0  0
  187.8060  178.2930  142.3480 O   0  0  0  0  0  1  0  0  0  0  0  0
  188.0830  177.0580  141.7610 C   0  0  0  0  0  2  0  0  0  0  0  0
  1 19  1  6  0  0  0
  1 10  1  0  0  0  0
  3  2  1  0  0  0  0
  4 20  1  6  0  0  0
  4  5  1  0  0  0  0
  4 22  1  0  0  0  0
  5 23  1  0  0  0  0
  5 15  1  1  0  0  0
  6 32  1  6  0  0  0
  6 14  1  0  0  0  0
  8 13  1  0  0  0  0
  8 21  1  0  0  0  0
  9  2  2  0  0  0  0
 10  7  1  1  0  0  0
 10 11  1  0  0  0  0
 11  9  1  0  0  0  0
 12 18  1  6  0  0  0
 12 17  1  0  0  0  0
 14  7  1  6  0  0  0
 14 25  1  0  0  0  0
 15 13  1  0  0  0  0
 16  3  2  0  0  0  0
 17 11  2  0  0  0  0
 17 16  1  0  0  0  0
 19  6  1  0  0  0  0
 22  1  1  0  0  0  0
 22 12  1  0  0  0  0
 23 18  1  0  0  0  0
 23  8  1  0  0  0  0
 25 26  1  0  0  0  0
 25 24  1  0  0  0  0
 26 24  1  0  0  0  0
 26 27  1  0  0  0  0
 27 28  1  0  0  0  0
 28 29  1  0  0  0  0
 30 28  2  0  0  0  0
 32 31  1  0  0  0  0
M  END
>  <MODEL>
6

>  <REMARK>
 VINA RESULT:      -6.9      2.025      2.958
  Name = 
  4 active torsions:
  status: ('A' for Active; 'I' for Inactive)
    1  A    between atoms: C_7  and  C_19
    2  A    between atoms: C_10  and  C_17
    3  A    between atoms: C_20  and  C_29
    4  A    between atoms: C_29  and  C_30
                            x       y       z     vdW  Elec       q    Type
                         _______ _______ _______ _____ _____    ______ ____

>  <TORSDO>
F 4

$$$$
=
 OpenBabel11112416413D

 32 37  0  0  1  0  0  0  0  0999 V2000
  194.0270  174.5590  144.7410 C   0  0  1  0  0  3  0  0  0  0  0  0
  191.3910  173.2330  140.8230 C   0  0  0  0  0  3  0  0  0  0  0  0
  190.2290  173.6340  141.4850 C   0  0  0  0  0  3  0  0  0  0  0  0
  193.0670  176.0310  146.5710 C   0  0  2  0  0  3  0  0  0  0  0  0
  191.7080  176.4000  147.1990 C   0  0  2  0  0  3  0  0  0  0  0  0
  196.0600  173.6410  145.0520 C   0  0  2  0  0  3  0  0  0  0  0  0
  195.1440  173.6360  142.7210 O   0  0  0  0  0  0  0  0  0  0  0  0
  189.3740  176.4160  146.9460 N   0  0  0  0  0  0  0  0  0  0  0  0
  192.6410  173.4790  141.3950 C   0  0  0  0  0  3  0  0  0  0  0  0
  194.0850  174.4470  143.2200 C   0  0  1  0  0  3  0  0  0  0  0  0
  192.7370  174.1170  142.6390 C   0  0  0  0  0  0  0  0  0  0  0  0
  191.6220  175.1920  144.6740 C   0  0  2  0  0  3  0  0  0  0  0  0
  189.6810  175.1620  147.5050 N   0  0  0  0  0  2  0  0  0  0  0  0
  195.7850  172.8660  143.7310 C   0  0  2  0  0  3  0  0  0  0  0  0
  191.0890  175.2090  147.8930 C   0  0  0  0  0  2  0  0  0  0  0  0
  190.3140  174.2890  142.7160 C   0  0  0  0  0  3  0  0  0  0  0  0
  191.5630  174.5660  143.2920 C   0  0  0  0  0  0  0  0  0  0  0  0
  190.7150  176.4040  144.8050 C   0  0  0  0  0  2  0  0  0  0  0  0
  195.3230  174.8410  145.1830 O   0  0  0  0  0  0  0  0  0  0  0  0
  193.9640  177.0820  146.7530 O   0  0  0  0  0  1  0  0  0  0  0  0
  188.2380  176.2470  146.0440 C   0  0  0  0  0  1  0  0  0  0  0  0
  193.0240  175.6480  145.0870 C   0  0  2  0  0  3  0  0  0  0  0  0
  190.5930  176.8850  146.2760 C   0  0  2  0  0  3  0  0  0  0  0  0
  195.8810  170.3810  143.7260 C   0  0  0  0  0  2  0  0  0  0  0  0
  195.0070  171.5870  144.0080 C   0  0  1  0  0  3  0  0  0  0  0  0
  195.6640  170.8420  145.1520 C   0  0  1  0  0  3  0  0  0  0  0  0
  194.6310  169.9570  145.8200 C   0  0  0  0  0  2  0  0  0  0  0  0
  195.2380  169.2690  146.9930 C   0  0  0  0  0  0  0  0  0  0  0  0
  196.4710  169.3770  147.2170 O   0  0  0  0  0  0  0  0  0  0  0  0
  194.4380  168.5380  147.8610 O   0  0  0  0  0  1  0  0  0  0  0  0
  197.9410  174.7530  144.1000 O   0  0  0  0  0  1  0  0  0  0  0  0
  197.5430  173.9380  145.1600 C   0  0  0  0  0  2  0  0  0  0  0  0
  1 22  1  0  0  0  0
  1 19  1  6  0  0  0
  2  9  2  0  0  0  0
  2  3  1  0  0  0  0
  3 16  2  0  0  0  0
  4 20  1  6  0  0  0
  4  5  1  0  0  0  0
  5 15  1  6  0  0  0
  6 32  1  6  0  0  0
  6 19  1  0  0  0  0
  7 10  1  0  0  0  0
  8 13  1  0  0  0  0
  9 11  1  0  0  0  0
 10 11  1  1  0  0  0
 10  1  1  0  0  0  0
 11 17  2  0  0  0  0
 12 18  1  6  0  0  0
 12 22  1  0  0  0  0
 13 15  1  0  0  0  0
 14  7  1  6  0  0  0
 14 25  1  0  0  0  0
 14  6  1  0  0  0  0
 16 17  1  0  0  0  0
 17 12  1  0  0  0  0
 18 23  1  0  0  0  0
 21  8  1  0  0  0  0
 22  4  1  0  0  0  0
 23  8  1  0  0  0  0
 23  5  1  0  0  0  0
 24 25  1  0  0  0  0
 24 26  1  0  0  0  0
 25 26  1  0  0  0  0
 26 27  1  0  0  0  0
 27 28  1  0  0  0  0
 28 29  2  0  0  0  0
 28 30  1  0  0  0  0
 31 32  1  0  0  0  0
M  END
>  <MODEL>
7

>  <REMARK>
 VINA RESULT:      -6.7      5.208      8.975
  Name = 
  4 active torsions:
  status: ('A' for Active; 'I' for Inactive)
    1  A    between atoms: C_7  and  C_19
    2  A    between atoms: C_10  and  C_17
    3  A    between atoms: C_20  and  C_29
    4  A    between atoms: C_29  and  C_30
                            x       y       z     vdW  Elec       q    Type
                         _______ _______ _______ _____ _____    ______ ____

>  <TORSDO>
F 4

$$$$
=
 OpenBabel11112416413D

 32 37  0  0  1  0  0  0  0  0999 V2000
  191.6740  173.4770  143.5660 C   0  0  1  0  0  3  0  0  0  0  0  0
  189.1070  177.5560  144.4790 C   0  0  0  0  0  3  0  0  0  0  0  0
  188.5650  177.4870  143.1950 C   0  0  0  0  0  3  0  0  0  0  0  0
  191.1340  171.9610  141.6030 C   0  0  2  0  0  3  0  0  0  0  0  0
  190.4890  172.0230  140.2050 C   0  0  2  0  0  3  0  0  0  0  0  0
  193.5330  173.0630  144.7670 C   0  0  2  0  0  3  0  0  0  0  0  0
  191.8330  174.6000  145.7780 O   0  0  0  0  0  0  0  0  0  0  0  0
  189.0990  173.2240  138.7410 N   0  0  0  0  0  0  0  0  0  0  0  0
  189.9100  176.5160  144.9560 C   0  0  0  0  0  3  0  0  0  0  0  0
  190.9870  174.2540  144.6850 C   0  0  1  0  0  3  0  0  0  0  0  0
  190.1840  175.4060  144.1460 C   0  0  0  0  0  0  0  0  0  0  0  0
  189.9330  174.1620  141.9260 C   0  0  2  0  0  3  0  0  0  0  0  0
  190.3890  173.7500  138.5480 N   0  0  0  0  0  2  0  0  0  0  0  0
  193.2140  174.3950  145.5040 C   0  0  2  0  0  3  0  0  0  0  0  0
  191.3130  172.8730  139.2650 C   0  0  0  0  0  2  0  0  0  0  0  0
  188.8150  176.3760  142.3870 C   0  0  0  0  0  3  0  0  0  0  0  0
  189.5980  175.3120  142.8600 C   0  0  0  0  0  0  0  0  0  0  0  0
  188.7090  173.6200  141.2060 C   0  0  0  0  0  2  0  0  0  0  0  0
  192.4090  172.4510  144.1660 O   0  0  0  0  0  0  0  0  0  0  0  0
  191.0080  170.6700  142.1160 O   0  0  0  0  0  1  0  0  0  0  0  0
  188.1350  174.3090  138.5800 C   0  0  0  0  0  1  0  0  0  0  0  0
  190.5930  172.9690  142.6230 C   0  0  2  0  0  3  0  0  0  0  0  0
  189.0900  172.6210  140.0800 C   0  0  2  0  0  3  0  0  0  0  0  0
  194.3950  176.5740  145.7250 C   0  0  0  0  0  2  0  0  0  0  0  0
  193.7950  175.5830  144.7480 C   0  0  1  0  0  3  0  0  0  0  0  0
  195.2940  175.6240  144.9620 C   0  0  1  0  0  3  0  0  0  0  0  0
  195.9360  176.3580  143.8000 C   0  0  0  0  0  2  0  0  0  0  0  0
  195.8980  175.5040  142.5810 C   0  0  0  0  0  0  0  0  0  0  0  0
  196.2430  174.2960  142.6470 O   0  0  0  0  0  1  0  0  0  0  0  0
  195.4460  176.0310  141.3770 O   0  0  0  0  0  0  0  0  0  0  0  0
  195.5720  172.2110  145.6610 O   0  0  0  0  0  1  0  0  0  0  0  0
  194.1840  172.0970  145.7370 C   0  0  0  0  0  2  0  0  0  0  0  0
  1 19  1  1  0  0  0
  1 10  1  0  0  0  0
  2  9  1  0  0  0  0
  3  2  2  0  0  0  0
  4 20  1  1  0  0  0
  4 22  1  0  0  0  0
  5 15  1  6  0  0  0
  5  4  1  0  0  0  0
  6 14  1  0  0  0  0
  6 32  1  1  0  0  0
  8 23  1  0  0  0  0
 10 11  1  6  0  0  0
 10  7  1  0  0  0  0
 11  9  2  0  0  0  0
 12 18  1  1  0  0  0
 12 22  1  0  0  0  0
 12 17  1  0  0  0  0
 13  8  1  0  0  0  0
 13 15  1  0  0  0  0
 14  7  1  6  0  0  0
 16 17  2  0  0  0  0
 16  3  1  0  0  0  0
 17 11  1  0  0  0  0
 19  6  1  0  0  0  0
 21  8  1  0  0  0  0
 22  1  1  0  0  0  0
 23  5  1  0  0  0  0
 23 18  1  0  0  0  0
 25 26  1  0  0  0  0
 25 14  1  0  0  0  0
 25 24  1  0  0  0  0
 26 24  1  0  0  0  0
 27 26  1  0  0  0  0
 28 29  1  0  0  0  0
 28 27  1  0  0  0  0
 30 28  2  0  0  0  0
 31 32  1  0  0  0  0
M  END
>  <MODEL>
8

>  <REMARK>
 VINA RESULT:      -6.6      3.986      7.137
  Name = 
  4 active torsions:
  status: ('A' for Active; 'I' for Inactive)
    1  A    between atoms: C_7  and  C_19
    2  A    between atoms: C_10  and  C_17
    3  A    between atoms: C_20  and  C_29
    4  A    between atoms: C_29  and  C_30
                            x       y       z     vdW  Elec       q    Type
                         _______ _______ _______ _____ _____    ______ ____

>  <TORSDO>
F 4

$$$$
=
 OpenBabel11112416413D

 32 37  0  0  1  0  0  0  0  0999 V2000
  192.1270  175.7030  143.1140 C   0  0  1  0  0  3  0  0  0  0  0  0
  190.2480  172.3390  140.0780 C   0  0  0  0  0  3  0  0  0  0  0  0
  188.9650  172.7050  140.4870 C   0  0  0  0  0  3  0  0  0  0  0  0
  190.7020  177.5400  144.1320 C   0  0  2  0  0  3  0  0  0  0  0  0
  189.2370  177.8200  144.5190 C   0  0  2  0  0  3  0  0  0  0  0  0
  194.2530  175.4720  143.8210 C   0  0  2  0  0  3  0  0  0  0  0  0
  193.6190  174.3100  141.6940 O   0  0  0  0  0  0  0  0  0  0  0  0
  186.9860  177.2090  144.2410 N   0  0  0  0  0  0  0  0  0  0  0  0
  191.3560  173.0700  140.5140 C   0  0  0  0  0  3  0  0  0  0  0  0
  192.3730  174.9950  141.7840 C   0  0  1  0  0  3  0  0  0  0  0  0
  191.1880  174.1640  141.3730 C   0  0  0  0  0  0  0  0  0  0  0  0
  189.6670  175.6990  142.7420 C   0  0  2  0  0  3  0  0  0  0  0  0
  187.4680  176.3970  145.2840 N   0  0  0  0  0  2  0  0  0  0  0  0
  194.2810  174.1850  142.9470 C   0  0  2  0  0  3  0  0  0  0  0  0
  188.7890  176.9110  145.6410 C   0  0  0  0  0  2  0  0  0  0  0  0
  188.7840  173.8070  141.3260 C   0  0  0  0  0  3  0  0  0  0  0  0
  189.8840  174.5660  141.7530 C   0  0  0  0  0  0  0  0  0  0  0  0
  188.5330  176.6230  142.3310 C   0  0  0  0  0  2  0  0  0  0  0  0
  193.2860  176.4220  143.4190 O   0  0  0  0  0  0  0  0  0  0  0  0
  191.3520  178.7450  143.8670 O   0  0  0  0  0  1  0  0  0  0  0  0
  186.0110  176.4380  143.4750 C   0  0  0  0  0  1  0  0  0  0  0  0
  190.8980  176.5850  142.9480 C   0  0  2  0  0  3  0  0  0  0  0  0
  188.1570  177.6220  143.4580 C   0  0  2  0  0  3  0  0  0  0  0  0
  194.3880  171.7150  143.2250 C   0  0  0  0  0  2  0  0  0  0  0  0
  193.7420  172.9920  143.7250 C   0  0  1  0  0  3  0  0  0  0  0  0
  194.8720  172.3570  144.5090 C   0  0  1  0  0  3  0  0  0  0  0  0
  194.2910  171.6160  145.6970 C   0  0  0  0  0  2  0  0  0  0  0  0
  195.1280  170.4240  146.0080 C   0  0  0  0  0  0  0  0  0  0  0  0
  194.5810  169.3150  146.2410 O   0  0  0  0  0  1  0  0  0  0  0  0
  196.5130  170.5270  146.0050 O   0  0  0  0  0  0  0  0  0  0  0  0
  195.9050  176.6350  142.5580 O   0  0  0  0  0  1  0  0  0  0  0  0
  195.6280  176.1100  143.8200 C   0  0  0  0  0  2  0  0  0  0  0  0
  1 19  1  6  0  0  0
  2  3  2  0  0  0  0
  2  9  1  0  0  0  0
  3 16  1  0  0  0  0
  4 20  1  6  0  0  0
  4  5  1  0  0  0  0
  5 15  1  1  0  0  0
  6 32  1  6  0  0  0
  7 10  1  0  0  0  0
  8 13  1  0  0  0  0
  9 11  2  0  0  0  0
 10 11  1  1  0  0  0
 10  1  1  0  0  0  0
 11 17  1  0  0  0  0
 12 18  1  6  0  0  0
 12 22  1  0  0  0  0
 13 15  1  0  0  0  0
 14  7  1  6  0  0  0
 14 25  1  0  0  0  0
 14  6  1  0  0  0  0
 16 17  2  0  0  0  0
 17 12  1  0  0  0  0
 18 23  1  0  0  0  0
 19  6  1  0  0  0  0
 21  8  1  0  0  0  0
 22  1  1  0  0  0  0
 22  4  1  0  0  0  0
 23  8  1  0  0  0  0
 23  5  1  0  0  0  0
 24 25  1  0  0  0  0
 24 26  1  0  0  0  0
 25 26  1  0  0  0  0
 26 27  1  0  0  0  0
 27 28  1  0  0  0  0
 28 29  1  0  0  0  0
 30 28  2  0  0  0  0
 31 32  1  0  0  0  0
M  END
>  <MODEL>
9

>  <REMARK>
 VINA RESULT:      -6.6      4.095      7.921
  Name = 
  4 active torsions:
  status: ('A' for Active; 'I' for Inactive)
    1  A    between atoms: C_7  and  C_19
    2  A    between atoms: C_10  and  C_17
    3  A    between atoms: C_20  and  C_29
    4  A    between atoms: C_29  and  C_30
                            x       y       z     vdW  Elec       q    Type
                         _______ _______ _______ _____ _____    ______ ____

>  <TORSDO>
F 4

$$$$
