=
 OpenBabel11112418083D

 34 40  0  0  1  0  0  0  0  0999 V2000
  192.5050  176.3250  146.2580 C   0  0  1  0  0  3  0  0  0  0  0  0
  194.5580  175.1220  146.4380 C   0  0  0  0  0  2  0  0  0  0  0  0
  186.9130  176.6820  142.9010 C   0  0  1  0  0  3  0  0  0  0  0  0
  190.1460  177.1660  145.9130 C   0  0  0  0  0  0  0  0  0  0  0  0
  189.2100  177.4360  143.6840 C   0  0  0  0  0  0  0  0  0  0  0  0
  188.3850  178.0500  141.4440 N   0  0  0  0  0  1  0  0  0  0  0  0
  187.1770  175.6450  142.0040 O   0  0  0  0  0  1  0  0  0  0  0  0
  186.5700  177.1250  145.4220 C   0  0  0  0  0  2  0  0  0  0  0  0
  193.8480  175.8580  144.3710 C   0  0  2  0  0  3  0  0  0  0  0  0
  194.4500  174.5260  141.4620 C   0  0  0  0  0  2  0  0  0  0  0  0
  190.3910  176.9230  143.1320 C   0  0  0  0  0  3  0  0  0  0  0  0
  187.7870  178.0340  145.6780 C   0  0  0  0  0  2  0  0  0  0  0  0
  192.7060  175.9450  143.3430 C   0  0  1  0  0  3  0  0  0  0  0  0
  195.8320  174.3370  145.4090 S   0  0  0  0  0  0  0  0  0  0  0  0
  189.0810  177.5420  145.0810 C   0  0  0  0  0  0  0  0  0  0  0  0
  186.7340  176.0850  144.3040 C   0  0  0  0  0  2  0  0  0  0  0  0
  194.7800  173.9600  142.8560 C   0  0  1  0  0  3  0  0  0  0  0  0
  191.3440  176.6860  145.3490 C   0  0  0  0  0  0  0  0  0  0  0  0
  188.0150  177.7540  142.8220 C   0  0  1  0  0  3  0  0  0  0  0  0
  191.4740  176.5780  143.9490 C   0  0  0  0  0  0  0  0  0  0  0  0
  191.0830  176.9380  148.1980 C   0  0  0  0  0  2  0  0  0  0  0  0
  194.3900  176.0560  141.3940 C   0  0  0  0  0  2  0  0  0  0  0  0
  190.0010  177.2190  147.3070 O   0  0  0  0  0  0  0  0  0  0  0  0
  193.1300  176.6420  142.0410 C   0  0  0  0  0  2  0  0  0  0  0  0
  195.0650  175.0420  143.9220 C   0  0  1  0  0  3  0  0  0  0  0  0
  191.9780  175.8500  147.6160 C   0  0  0  0  0  2  0  0  0  0  0  0
  193.3590  175.3080  145.6310 N   0  0  2  0  0  0  0  0  0  0  0  0
  193.7180  173.0570  143.2780 N   0  0  0  0  0  2  0  0  0  0  0  0
  192.9100  172.8560  142.2090 O   0  0  0  0  0  0  0  0  0  0  0  0
  190.5970  172.4500  144.7150 O   0  0  0  0  0  0  0  0  0  0  0  0
  190.5450  172.8400  142.3890 C   0  0  0  0  0  2  0  0  0  0  0  0
  191.8280  172.1360  142.7160 C   0  0  2  0  0  3  0  0  0  0  0  0
  190.0130  173.2650  143.7360 C   0  0  0  0  0  2  0  0  0  0  0  0
  191.8780  172.1490  144.2280 C   0  0  0  0  0  2  0  0  0  0  0  0
  1 26  1  1  0  0  0
  3  7  1  6  0  0  0
  3 16  1  0  0  0  0
  4 23  1  0  0  0  0
  5 15  1  0  0  0  0
  6 19  1  0  0  0  0
  8 12  1  0  0  0  0
  9 27  1  0  0  0  0
 10 17  1  0  0  0  0
 11  5  2  0  0  0  0
 11 20  1  0  0  0  0
 13 20  1  0  0  0  0
 13  9  1  0  0  0  0
 14  2  1  0  0  0  0
 15 12  1  0  0  0  0
 15  4  2  0  0  0  0
 16  8  1  0  0  0  0
 17 28  1  0  0  0  0
 17 25  1  0  0  0  0
 18  4  1  0  0  0  0
 18  1  1  0  0  0  0
 19  3  1  0  0  0  0
 19  5  1  0  0  0  0
 20 18  2  0  0  0  0
 22 10  1  0  0  0  0
 22 24  1  0  0  0  0
 23 21  1  0  0  0  0
 24 13  1  0  0  0  0
 25  9  1  0  0  0  0
 25 14  1  0  0  0  0
 26 21  1  0  0  0  0
 27  1  1  0  0  0  0
 27  2  1  0  0  0  0
 29 32  1  0  0  0  0
 29 28  1  0  0  0  0
 31 32  1  0  0  0  0
 31 33  1  0  0  0  0
 32 34  1  0  0  0  0
 33 30  1  0  0  0  0
 34 30  1  0  0  0  0
M  END
>  <MODEL>
1

>  <REMARK>
 VINA RESULT:      -7.0      0.000      0.000
  Name = 
  3 active torsions:
  status: ('A' for Active; 'I' for Inactive)
    1  A    between atoms: C_17  and  N_28
    2  A    between atoms: N_28  and  O_29
    3  A    between atoms: O_29  and  C_32
                            x       y       z     vdW  Elec       q    Type
                         _______ _______ _______ _____ _____    ______ ____

>  <TORSDO>
F 3

$$$$
=
 OpenBabel11112418083D

 34 40  0  0  1  0  0  0  0  0999 V2000
  190.6030  172.8780  140.7200 C   0  0  1  0  0  3  0  0  0  0  0  0
  192.5520  171.8360  139.8190 C   0  0  0  0  0  2  0  0  0  0  0  0
  188.5670  177.5240  144.8340 C   0  0  1  0  0  3  0  0  0  0  0  0
  188.8250  174.3850  141.6970 C   0  0  0  0  0  0  0  0  0  0  0  0
  188.9410  175.1520  144.0030 C   0  0  0  0  0  0  0  0  0  0  0  0
  188.8610  175.6370  146.4190 N   0  0  0  0  0  1  0  0  0  0  0  0
  189.8270  177.9410  145.2700 O   0  0  0  0  0  1  0  0  0  0  0  0
  187.1140  177.4010  142.7030 C   0  0  0  0  0  2  0  0  0  0  0  0
  192.3780  172.1460  142.0980 C   0  0  2  0  0  3  0  0  0  0  0  0
  194.7860  172.5760  144.2450 C   0  0  0  0  0  2  0  0  0  0  0  0
  190.1700  174.4960  144.1540 C   0  0  0  0  0  3  0  0  0  0  0  0
  186.9860  175.8700  142.5830 C   0  0  0  0  0  2  0  0  0  0  0  0
  192.0780  173.1100  143.2600 C   0  0  1  0  0  3  0  0  0  0  0  0
  194.2130  171.2840  140.3050 S   0  0  0  0  0  0  0  0  0  0  0  0
  188.2750  175.1110  142.7640 C   0  0  0  0  0  0  0  0  0  0  0  0
  188.4030  177.9160  143.3590 C   0  0  0  0  0  2  0  0  0  0  0  0
  194.8760  172.5280  142.7080 C   0  0  1  0  0  3  0  0  0  0  0  0
  190.0420  173.6960  141.8680 C   0  0  0  0  0  0  0  0  0  0  0  0
  188.3770  176.0200  145.0990 C   0  0  1  0  0  3  0  0  0  0  0  0
  190.7120  173.7380  143.1080 C   0  0  0  0  0  0  0  0  0  0  0  0
  188.6560  173.5900  139.3550 C   0  0  0  0  0  2  0  0  0  0  0  0
  193.6200  171.7770  144.8390 C   0  0  0  0  0  2  0  0  0  0  0  0
  188.1910  174.3870  140.4460 O   0  0  0  0  0  0  0  0  0  0  0  0
  192.2590  172.4530  144.6380 C   0  0  0  0  0  2  0  0  0  0  0  0
  193.8160  171.6220  142.0440 C   0  0  1  0  0  3  0  0  0  0  0  0
  190.1780  173.4920  139.3820 C   0  0  0  0  0  2  0  0  0  0  0  0
  192.0650  172.7770  140.8190 N   0  0  2  0  0  0  0  0  0  0  0  0
  194.8340  173.8840  142.1770 N   0  0  0  0  0  2  0  0  0  0  0  0
  195.7290  174.6210  142.8780 O   0  0  0  0  0  0  0  0  0  0  0  0
  192.9310  176.6130  142.9250 O   0  0  0  0  0  0  0  0  0  0  0  0
  194.8310  176.3030  144.2890 C   0  0  0  0  0  2  0  0  0  0  0  0
  195.1920  175.9090  142.8880 C   0  0  2  0  0  3  0  0  0  0  0  0
  193.3260  176.4160  144.2550 C   0  0  0  0  0  2  0  0  0  0  0  0
  193.8700  175.9100  142.1550 C   0  0  0  0  0  2  0  0  0  0  0  0
  1 26  1  6  0  0  0
  1 27  1  0  0  0  0
  1 18  1  0  0  0  0
  2 14  1  0  0  0  0
  2 27  1  0  0  0  0
  3 19  1  0  0  0  0
  3  7  1  6  0  0  0
  4 18  2  0  0  0  0
  4 15  1  0  0  0  0
  5 11  1  0  0  0  0
  5 19  1  0  0  0  0
  8 16  1  0  0  0  0
  9 13  1  0  0  0  0
 10 22  1  0  0  0  0
 12  8  1  0  0  0  0
 12 15  1  0  0  0  0
 13 24  1  0  0  0  0
 14 25  1  0  0  0  0
 15  5  2  0  0  0  0
 16  3  1  0  0  0  0
 17 10  1  0  0  0  0
 18 20  1  0  0  0  0
 19  6  1  0  0  0  0
 20 13  1  0  0  0  0
 20 11  2  0  0  0  0
 21 26  1  0  0  0  0
 21 23  1  0  0  0  0
 23  4  1  0  0  0  0
 24 22  1  0  0  0  0
 25  9  1  0  0  0  0
 25 17  1  0  0  0  0
 27  9  1  0  0  0  0
 28 17  1  0  0  0  0
 28 29  1  0  0  0  0
 29 32  1  0  0  0  0
 30 33  1  0  0  0  0
 32 31  1  0  0  0  0
 33 31  1  0  0  0  0
 34 32  1  0  0  0  0
 34 30  1  0  0  0  0
M  END
>  <MODEL>
2

>  <REMARK>
 VINA RESULT:      -6.5      2.546      4.990
  Name = 
  3 active torsions:
  status: ('A' for Active; 'I' for Inactive)
    1  A    between atoms: C_17  and  N_28
    2  A    between atoms: N_28  and  O_29
    3  A    between atoms: O_29  and  C_32
                            x       y       z     vdW  Elec       q    Type
                         _______ _______ _______ _____ _____    ______ ____

>  <TORSDO>
F 3

$$$$
=
 OpenBabel11112418083D

 34 40  0  0  1  0  0  0  0  0999 V2000
  193.0980  172.3640  144.1100 C   0  0  1  0  0  3  0  0  0  0  0  0
  195.4200  172.5500  144.6270 C   0  0  0  0  0  2  0  0  0  0  0  0
  187.9570  175.6670  141.8000 C   0  0  1  0  0  3  0  0  0  0  0  0
  190.7390  172.4990  143.2090 C   0  0  0  0  0  0  0  0  0  0  0  0
  189.3640  174.4760  143.5500 C   0  0  0  0  0  0  0  0  0  0  0  0
  187.8520  176.3130  144.1940 N   0  0  0  0  0  1  0  0  0  0  0  0
  188.6020  176.8910  141.6130 O   0  0  0  0  0  1  0  0  0  0  0  0
  188.0010  173.2210  140.9700 C   0  0  0  0  0  2  0  0  0  0  0  0
  193.9560  174.1720  145.3660 C   0  0  2  0  0  3  0  0  0  0  0  0
  194.5750  177.3190  145.9220 C   0  0  0  0  0  2  0  0  0  0  0  0
  190.4370  175.1050  144.1960 C   0  0  0  0  0  3  0  0  0  0  0  0
  188.3890  172.5230  142.2880 C   0  0  0  0  0  2  0  0  0  0  0  0
  192.8180  175.1510  145.0240 C   0  0  1  0  0  3  0  0  0  0  0  0
  196.6240  173.7170  145.3260 S   0  0  0  0  0  0  0  0  0  0  0  0
  189.5220  173.1750  143.0390 C   0  0  0  0  0  0  0  0  0  0  0  0
  188.5220  174.6550  140.7930 C   0  0  0  0  0  2  0  0  0  0  0  0
  195.4960  176.2650  145.2790 C   0  0  1  0  0  3  0  0  0  0  0  0
  191.8020  173.1230  143.8930 C   0  0  0  0  0  0  0  0  0  0  0  0
  188.0800  175.2130  143.2660 C   0  0  1  0  0  3  0  0  0  0  0  0
  191.6450  174.4280  144.4040 C   0  0  0  0  0  0  0  0  0  0  0  0
  192.1020  170.4530  142.8770 C   0  0  0  0  0  2  0  0  0  0  0  0
  193.5500  176.7500  146.9100 C   0  0  0  0  0  2  0  0  0  0  0  0
  190.9190  171.2230  142.6550 O   0  0  0  0  0  0  0  0  0  0  0  0
  192.3940  176.0110  146.2250 C   0  0  0  0  0  2  0  0  0  0  0  0
  195.2700  174.8290  145.8010 C   0  0  1  0  0  3  0  0  0  0  0  0
  193.3180  171.3670  142.9670 C   0  0  0  0  0  2  0  0  0  0  0  0
  194.2290  173.2920  144.2340 N   0  0  2  0  0  0  0  0  0  0  0  0
  195.3750  176.3350  143.8290 N   0  0  0  0  0  2  0  0  0  0  0  0
  196.6010  176.6310  143.3340 O   0  0  0  0  0  0  0  0  0  0  0  0
  197.2080  174.4720  140.7330 O   0  0  0  0  0  0  0  0  0  0  0  0
  195.3130  175.4930  141.6990 C   0  0  0  0  0  2  0  0  0  0  0  0
  196.5030  176.3660  141.9680 C   0  0  2  0  0  3  0  0  0  0  0  0
  195.9180  174.2000  141.2090 C   0  0  0  0  0  2  0  0  0  0  0  0
  197.6800  175.5240  141.5320 C   0  0  0  0  0  2  0  0  0  0  0  0
  1 26  1  6  0  0  0
  1 27  1  0  0  0  0
  2 14  1  0  0  0  0
  3  7  1  1  0  0  0
  3 19  1  0  0  0  0
  4 18  1  0  0  0  0
  5 11  2  0  0  0  0
  8 12  1  0  0  0  0
  9 25  1  0  0  0  0
 10 22  1  0  0  0  0
 11 20  1  0  0  0  0
 12 15  1  0  0  0  0
 13  9  1  0  0  0  0
 13 24  1  0  0  0  0
 14 25  1  0  0  0  0
 15  4  2  0  0  0  0
 15  5  1  0  0  0  0
 16  8  1  0  0  0  0
 16  3  1  0  0  0  0
 17 25  1  0  0  0  0
 17 10  1  0  0  0  0
 18  1  1  0  0  0  0
 18 20  2  0  0  0  0
 19  5  1  0  0  0  0
 19  6  1  0  0  0  0
 20 13  1  0  0  0  0
 21 26  1  0  0  0  0
 23 21  1  0  0  0  0
 23  4  1  0  0  0  0
 24 22  1  0  0  0  0
 27  2  1  0  0  0  0
 27  9  1  0  0  0  0
 28 17  1  0  0  0  0
 29 28  1  0  0  0  0
 30 33  1  0  0  0  0
 30 34  1  0  0  0  0
 31 32  1  0  0  0  0
 32 29  1  0  0  0  0
 33 31  1  0  0  0  0
 34 32  1  0  0  0  0
M  END
>  <MODEL>
3

>  <REMARK>
 VINA RESULT:      -6.5      2.270      4.826
  Name = 
  3 active torsions:
  status: ('A' for Active; 'I' for Inactive)
    1  A    between atoms: C_17  and  N_28
    2  A    between atoms: N_28  and  O_29
    3  A    between atoms: O_29  and  C_32
                            x       y       z     vdW  Elec       q    Type
                         _______ _______ _______ _____ _____    ______ ____

>  <TORSDO>
F 3

$$$$
=
 OpenBabel11112418083D

 34 40  0  0  1  0  0  0  0  0999 V2000
  190.9350  174.0130  141.2920 C   0  0  1  0  0  3  0  0  0  0  0  0
  188.5870  174.2840  141.6180 C   0  0  0  0  0  2  0  0  0  0  0  0
  196.7150  174.2850  144.3230 C   0  0  1  0  0  3  0  0  0  0  0  0
  193.4220  173.5790  141.4210 C   0  0  0  0  0  0  0  0  0  0  0  0
  194.8950  175.0230  142.7100 C   0  0  0  0  0  0  0  0  0  0  0  0
  196.4320  176.6730  143.7070 N   0  0  0  0  0  1  0  0  0  0  0  0
  196.2400  174.6680  145.5790 O   0  0  0  0  0  1  0  0  0  0  0  0
  196.5900  172.3380  142.6310 C   0  0  0  0  0  2  0  0  0  0  0  0
  190.0370  175.9010  142.3930 C   0  0  2  0  0  3  0  0  0  0  0  0
  189.6350  177.8910  144.9380 C   0  0  0  0  0  2  0  0  0  0  0  0
  193.7870  175.7710  143.1300 C   0  0  0  0  0  3  0  0  0  0  0  0
  195.8950  173.0710  141.4670 C   0  0  0  0  0  2  0  0  0  0  0  0
  191.3090  176.2310  143.1950 C   0  0  1  0  0  3  0  0  0  0  0  0
  187.3920  175.3330  142.4980 S   0  0  0  0  0  0  0  0  0  0  0  0
  194.7100  173.9130  141.8670 C   0  0  0  0  0  0  0  0  0  0  0  0
  196.2540  172.8480  144.0390 C   0  0  0  0  0  2  0  0  0  0  0  0
  188.7520  176.7040  144.5060 C   0  0  1  0  0  3  0  0  0  0  0  0
  192.3170  174.3570  141.8170 C   0  0  0  0  0  0  0  0  0  0  0  0
  196.2760  175.2980  143.2500 C   0  0  1  0  0  3  0  0  0  0  0  0
  192.5010  175.4700  142.6640 C   0  0  0  0  0  0  0  0  0  0  0  0
  191.9540  172.1090  140.0680 C   0  0  0  0  0  2  0  0  0  0  0  0
  190.3950  178.5670  143.7910 C   0  0  0  0  0  2  0  0  0  0  0  0
  193.2270  172.4410  140.6250 O   0  0  0  0  0  0  0  0  0  0  0  0
  191.5810  177.7410  143.2810 C   0  0  0  0  0  2  0  0  0  0  0  0
  188.7350  176.4540  142.9820 C   0  0  1  0  0  3  0  0  0  0  0  0
  190.8370  172.5070  141.0270 C   0  0  0  0  0  2  0  0  0  0  0  0
  189.8970  174.4580  142.2310 N   0  0  2  0  0  0  0  0  0  0  0  0
  189.1500  175.5120  145.2420 N   0  0  0  0  0  2  0  0  0  0  0  0
  189.1650  175.8340  146.5580 O   0  0  0  0  0  0  0  0  0  0  0  0
  192.3160  174.5290  146.1530 O   0  0  0  0  0  0  0  0  0  0  0  0
  191.2560  175.9980  147.6650 C   0  0  0  0  0  2  0  0  0  0  0  0
  190.2140  175.0850  147.0920 C   0  0  2  0  0  3  0  0  0  0  0  0
  192.4570  175.7750  146.7790 C   0  0  0  0  0  2  0  0  0  0  0  0
  190.9340  174.3610  145.9770 C   0  0  0  0  0  2  0  0  0  0  0  0
  1 26  1  1  0  0  0
  1 18  1  0  0  0  0
  1 27  1  0  0  0  0
  2 27  1  0  0  0  0
  2 14  1  0  0  0  0
  3  7  1  1  0  0  0
  4 18  2  0  0  0  0
  4 15  1  0  0  0  0
  5 11  1  0  0  0  0
  5 19  1  0  0  0  0
  8 16  1  0  0  0  0
  9 25  1  0  0  0  0
  9 13  1  0  0  0  0
 12 15  1  0  0  0  0
 12  8  1  0  0  0  0
 13 24  1  0  0  0  0
 14 25  1  0  0  0  0
 15  5  2  0  0  0  0
 16  3  1  0  0  0  0
 17 10  1  0  0  0  0
 17 28  1  0  0  0  0
 18 20  1  0  0  0  0
 19  6  1  0  0  0  0
 19  3  1  0  0  0  0
 20 11  2  0  0  0  0
 20 13  1  0  0  0  0
 21 23  1  0  0  0  0
 21 26  1  0  0  0  0
 22 10  1  0  0  0  0
 23  4  1  0  0  0  0
 24 22  1  0  0  0  0
 25 17  1  0  0  0  0
 27  9  1  0  0  0  0
 28 29  1  0  0  0  0
 29 32  1  0  0  0  0
 30 33  1  0  0  0  0
 32 31  1  0  0  0  0
 33 31  1  0  0  0  0
 34 30  1  0  0  0  0
 34 32  1  0  0  0  0
M  END
>  <MODEL>
4

>  <REMARK>
 VINA RESULT:      -6.5      2.660      6.970
  Name = 
  3 active torsions:
  status: ('A' for Active; 'I' for Inactive)
    1  A    between atoms: C_17  and  N_28
    2  A    between atoms: N_28  and  O_29
    3  A    between atoms: O_29  and  C_32
                            x       y       z     vdW  Elec       q    Type
                         _______ _______ _______ _____ _____    ______ ____

>  <TORSDO>
F 3

$$$$
=
 OpenBabel11112418083D

 34 40  0  0  1  0  0  0  0  0999 V2000
  192.3290  175.9020  145.1920 C   0  0  1  0  0  3  0  0  0  0  0  0
  190.3450  176.9030  144.3210 C   0  0  0  0  0  2  0  0  0  0  0  0
  196.8210  171.3010  144.0430 C   0  0  1  0  0  3  0  0  0  0  0  0
  194.5450  174.7710  145.6370 C   0  0  0  0  0  0  0  0  0  0  0  0
  194.8590  172.3930  145.2320 C   0  0  0  0  0  0  0  0  0  0  0  0
  195.0790  169.9390  145.1680 N   0  0  0  0  0  1  0  0  0  0  0  0
  196.2760  170.8140  142.8530 O   0  0  0  0  0  1  0  0  0  0  0  0
  197.8510  173.4420  145.0560 C   0  0  0  0  0  2  0  0  0  0  0  0
  190.5070  174.6050  144.4300 C   0  0  2  0  0  3  0  0  0  0  0  0
  189.0820  172.4080  142.4960 C   0  0  0  0  0  2  0  0  0  0  0  0
  193.5500  172.3100  144.7390 C   0  0  0  0  0  3  0  0  0  0  0  0
  196.7920  173.7350  146.1360 C   0  0  0  0  0  2  0  0  0  0  0  0
  191.3330  173.3430  144.1240 C   0  0  1  0  0  3  0  0  0  0  0  0
  188.8050  176.4730  143.4590 S   0  0  0  0  0  0  0  0  0  0  0  0
  195.3640  173.6320  145.6660 C   0  0  0  0  0  0  0  0  0  0  0  0
  197.3430  172.7250  143.7970 C   0  0  0  0  0  2  0  0  0  0  0  0
  189.1120  173.9400  142.3380 C   0  0  1  0  0  3  0  0  0  0  0  0
  193.2180  174.6730  145.1760 C   0  0  0  0  0  0  0  0  0  0  0  0
  195.7910  171.2100  145.1830 C   0  0  1  0  0  3  0  0  0  0  0  0
  192.7110  173.4310  144.7380 C   0  0  0  0  0  0  0  0  0  0  0  0
  194.2480  177.1900  146.0970 C   0  0  0  0  0  2  0  0  0  0  0  0
  189.1940  171.9160  143.9430 C   0  0  0  0  0  2  0  0  0  0  0  0
  195.0620  176.0180  146.0180 O   0  0  0  0  0  0  0  0  0  0  0  0
  190.6080  172.0470  144.5200 C   0  0  0  0  0  2  0  0  0  0  0  0
  189.1770  174.7090  143.6760 C   0  0  1  0  0  3  0  0  0  0  0  0
  193.1780  177.1650  145.0110 C   0  0  0  0  0  2  0  0  0  0  0  0
  191.2900  175.8060  144.1580 N   0  0  2  0  0  0  0  0  0  0  0  0
  190.2040  174.3150  141.4500 N   0  0  0  0  0  2  0  0  0  0  0  0
  190.1230  173.5240  140.3530 O   0  0  0  0  0  0  0  0  0  0  0  0
  193.4620  173.3440  141.1360 O   0  0  0  0  0  0  0  0  0  0  0  0
  191.8940  171.9810  140.0190 C   0  0  0  0  0  2  0  0  0  0  0  0
  191.4390  173.4060  139.9060 C   0  0  2  0  0  3  0  0  0  0  0  0
  192.9780  172.0300  141.0670 C   0  0  0  0  0  2  0  0  0  0  0  0
  192.3590  174.1590  140.8410 C   0  0  0  0  0  2  0  0  0  0  0  0
  1 26  1  6  0  0  0
  3  7  1  6  0  0  0
  3 19  1  0  0  0  0
  4 15  1  0  0  0  0
  4 23  1  0  0  0  0
  5 15  2  0  0  0  0
  6 19  1  0  0  0  0
  8 12  1  0  0  0  0
 10 22  1  0  0  0  0
 11  5  1  0  0  0  0
 13  9  1  0  0  0  0
 13 24  1  0  0  0  0
 13 20  1  0  0  0  0
 14 25  1  0  0  0  0
 14  2  1  0  0  0  0
 15 12  1  0  0  0  0
 16  3  1  0  0  0  0
 16  8  1  0  0  0  0
 17 10  1  0  0  0  0
 17 25  1  0  0  0  0
 18  1  1  0  0  0  0
 18  4  2  0  0  0  0
 19  5  1  0  0  0  0
 20 11  2  0  0  0  0
 20 18  1  0  0  0  0
 22 24  1  0  0  0  0
 23 21  1  0  0  0  0
 25  9  1  0  0  0  0
 26 21  1  0  0  0  0
 27  2  1  0  0  0  0
 27  9  1  0  0  0  0
 27  1  1  0  0  0  0
 28 17  1  0  0  0  0
 29 28  1  0  0  0  0
 31 33  1  0  0  0  0
 32 31  1  0  0  0  0
 32 29  1  0  0  0  0
 32 34  1  0  0  0  0
 33 30  1  0  0  0  0
 34 30  1  0  0  0  0
M  END
>  <MODEL>
5

>  <REMARK>
 VINA RESULT:      -6.4      2.938      6.600
  Name = 
  3 active torsions:
  status: ('A' for Active; 'I' for Inactive)
    1  A    between atoms: C_17  and  N_28
    2  A    between atoms: N_28  and  O_29
    3  A    between atoms: O_29  and  C_32
                            x       y       z     vdW  Elec       q    Type
                         _______ _______ _______ _____ _____    ______ ____

>  <TORSDO>
F 3

$$$$
=
 OpenBabel11112418083D

 34 40  0  0  1  0  0  0  0  0999 V2000
  193.6110  176.3460  143.0970 C   0  0  1  0  0  3  0  0  0  0  0  0
  191.6060  177.6390  143.1360 C   0  0  0  0  0  2  0  0  0  0  0  0
  196.0270  170.3820  144.2230 C   0  0  1  0  0  3  0  0  0  0  0  0
  195.4320  174.5990  142.9470 C   0  0  0  0  0  0  0  0  0  0  0  0
  195.6660  172.8640  144.6360 C   0  0  0  0  0  0  0  0  0  0  0  0
  196.1300  171.3350  146.5130 N   0  0  0  0  0  1  0  0  0  0  0  0
  194.8370  169.7850  144.6460 O   0  0  0  0  0  1  0  0  0  0  0  0
  197.0960  171.4950  142.1520 C   0  0  0  0  0  2  0  0  0  0  0  0
  192.1500  176.3300  144.9550 C   0  0  2  0  0  3  0  0  0  0  0  0
  190.1250  174.9160  147.0760 C   0  0  0  0  0  2  0  0  0  0  0  0
  194.5260  173.3520  145.2880 C   0  0  0  0  0  3  0  0  0  0  0  0
  197.2990  172.9150  142.7160 C   0  0  0  0  0  2  0  0  0  0  0  0
  192.5850  174.9500  145.4810 C   0  0  1  0  0  3  0  0  0  0  0  0
  190.0920  177.8730  144.1120 S   0  0  0  0  0  0  0  0  0  0  0  0
  196.1100  173.4790  143.4510 C   0  0  0  0  0  0  0  0  0  0  0  0
  195.9090  170.7100  142.7280 C   0  0  0  0  0  2  0  0  0  0  0  0
  189.7750  175.6560  145.7710 C   0  0  1  0  0  3  0  0  0  0  0  0
  194.3080  175.1070  143.6280 C   0  0  0  0  0  0  0  0  0  0  0  0
  196.3550  171.6050  145.0990 C   0  0  1  0  0  3  0  0  0  0  0  0
  193.8610  174.4900  144.8150 C   0  0  0  0  0  0  0  0  0  0  0  0
  195.2440  176.3770  141.2290 C   0  0  0  0  0  2  0  0  0  0  0  0
  191.4240  175.3820  147.7420 C   0  0  0  0  0  2  0  0  0  0  0  0
  195.8390  175.1810  141.7380 O   0  0  0  0  0  0  0  0  0  0  0  0
  192.6850  174.9030  147.0130 C   0  0  0  0  0  2  0  0  0  0  0  0
  190.7600  176.7890  145.4060 C   0  0  1  0  0  3  0  0  0  0  0  0
  193.7600  176.4180  141.5740 C   0  0  0  0  0  2  0  0  0  0  0  0
  192.1980  176.3580  143.4970 N   0  0  2  0  0  0  0  0  0  0  0  0
  189.6400  174.6920  144.6870 N   0  0  0  0  0  2  0  0  0  0  0  0
  189.6910  173.4550  145.2370 O   0  0  0  0  0  0  0  0  0  0  0  0
  190.6240  172.9050  141.9780 O   0  0  0  0  0  0  0  0  0  0  0  0
  191.0630  171.9100  144.0720 C   0  0  0  0  0  2  0  0  0  0  0  0
  189.7260  172.5860  144.1460 C   0  0  2  0  0  3  0  0  0  0  0  0
  191.6650  172.4410  142.7940 C   0  0  0  0  0  2  0  0  0  0  0  0
  189.6470  173.3830  142.8640 C   0  0  0  0  0  2  0  0  0  0  0  0
  1 26  1  6  0  0  0
  1 27  1  0  0  0  0
  1 18  1  0  0  0  0
  2 27  1  0  0  0  0
  2 14  1  0  0  0  0
  3  7  1  1  0  0  0
  3 19  1  0  0  0  0
  4 15  2  0  0  0  0
  4 18  1  0  0  0  0
  5 19  1  0  0  0  0
  5 11  2  0  0  0  0
  8 12  1  0  0  0  0
  8 16  1  0  0  0  0
  9 25  1  0  0  0  0
  9 13  1  0  0  0  0
 10 22  1  0  0  0  0
 12 15  1  0  0  0  0
 13 24  1  0  0  0  0
 14 25  1  0  0  0  0
 15  5  1  0  0  0  0
 16  3  1  0  0  0  0
 17 10  1  0  0  0  0
 18 20  2  0  0  0  0
 19  6  1  0  0  0  0
 20 11  1  0  0  0  0
 20 13  1  0  0  0  0
 21 26  1  0  0  0  0
 21 23  1  0  0  0  0
 23  4  1  0  0  0  0
 24 22  1  0  0  0  0
 25 17  1  0  0  0  0
 27  9  1  0  0  0  0
 28 29  1  0  0  0  0
 28 17  1  0  0  0  0
 30 33  1  0  0  0  0
 30 34  1  0  0  0  0
 31 32  1  0  0  0  0
 32 29  1  0  0  0  0
 33 31  1  0  0  0  0
 34 32  1  0  0  0  0
M  END
>  <MODEL>
6

>  <REMARK>
 VINA RESULT:      -6.1      2.614      6.930
  Name = 
  3 active torsions:
  status: ('A' for Active; 'I' for Inactive)
    1  A    between atoms: C_17  and  N_28
    2  A    between atoms: N_28  and  O_29
    3  A    between atoms: O_29  and  C_32
                            x       y       z     vdW  Elec       q    Type
                         _______ _______ _______ _____ _____    ______ ____

>  <TORSDO>
F 3

$$$$
=
 OpenBabel11112418083D

 34 40  0  0  1  0  0  0  0  0999 V2000
  192.4510  175.5960  145.5930 C   0  0  1  0  0  3  0  0  0  0  0  0
  190.3240  176.2120  146.4840 C   0  0  0  0  0  2  0  0  0  0  0  0
  195.8150  174.9340  140.0320 C   0  0  1  0  0  3  0  0  0  0  0  0
  194.5960  175.2720  144.2940 C   0  0  0  0  0  0  0  0  0  0  0  0
  194.6120  174.1570  142.1320 C   0  0  0  0  0  0  0  0  0  0  0  0
  194.6910  172.7240  140.1290 N   0  0  0  0  0  1  0  0  0  0  0  0
  194.7870  175.2940  139.1580 O   0  0  0  0  0  1  0  0  0  0  0  0
  197.2620  175.8970  141.9420 C   0  0  0  0  0  2  0  0  0  0  0  0
  190.4330  174.7350  144.7150 C   0  0  2  0  0  3  0  0  0  0  0  0
  188.2250  174.2630  142.3700 C   0  0  0  0  0  2  0  0  0  0  0  0
  193.2170  174.0370  142.1890 C   0  0  0  0  0  3  0  0  0  0  0  0
  196.7950  174.9800  143.0890 C   0  0  0  0  0  2  0  0  0  0  0  0
  190.9950  174.4180  143.3170 C   0  0  1  0  0  3  0  0  0  0  0  0
  188.5480  176.0590  146.1370 S   0  0  0  0  0  0  0  0  0  0  0  0
  195.3020  174.7930  143.1810 C   0  0  0  0  0  0  0  0  0  0  0  0
  196.2290  176.1720  140.8410 C   0  0  0  0  0  2  0  0  0  0  0  0
  188.2400  175.3510  143.4600 C   0  0  1  0  0  3  0  0  0  0  0  0
  193.1970  175.1140  144.3620 C   0  0  0  0  0  0  0  0  0  0  0  0
  195.3850  173.7420  140.9060 C   0  0  1  0  0  3  0  0  0  0  0  0
  192.5050  174.4780  143.3110 C   0  0  0  0  0  0  0  0  0  0  0  0
  194.6190  176.3790  146.5130 C   0  0  0  0  0  2  0  0  0  0  0  0
  188.9410  172.9640  142.7580 C   0  0  0  0  0  2  0  0  0  0  0  0
  195.2730  175.9550  145.3150 O   0  0  0  0  0  0  0  0  0  0  0  0
  190.4690  173.0900  142.7530 C   0  0  0  0  0  2  0  0  0  0  0  0
  188.9120  174.9110  144.7790 C   0  0  1  0  0  3  0  0  0  0  0  0
  193.1820  176.7910  146.2130 C   0  0  0  0  0  2  0  0  0  0  0  0
  191.0620  175.9350  145.2580 N   0  0  2  0  0  0  0  0  0  0  0  0
  188.8470  176.5640  142.9270 N   0  0  0  0  0  2  0  0  0  0  0  0
  188.5240  176.6330  141.6130 O   0  0  0  0  0  0  0  0  0  0  0  0
  185.5700  178.2910  141.0480 O   0  0  0  0  0  0  0  0  0  0  0  0
  187.1820  178.2120  142.7680 C   0  0  0  0  0  2  0  0  0  0  0  0
  187.8570  177.8510  141.4780 C   0  0  2  0  0  3  0  0  0  0  0  0
  185.7120  178.1510  142.4360 C   0  0  0  0  0  2  0  0  0  0  0  0
  186.7150  177.6940  140.5000 C   0  0  0  0  0  2  0  0  0  0  0  0
  1 26  1  6  0  0  0
  3  7  1  6  0  0  0
  3 16  1  0  0  0  0
  3 19  1  0  0  0  0
  4 18  1  0  0  0  0
  4 23  1  0  0  0  0
  5 11  2  0  0  0  0
  5 15  1  0  0  0  0
  6 19  1  0  0  0  0
  8 12  1  0  0  0  0
  9 25  1  0  0  0  0
  9 27  1  0  0  0  0
 10 22  1  0  0  0  0
 10 17  1  0  0  0  0
 11 20  1  0  0  0  0
 12 15  1  0  0  0  0
 13  9  1  0  0  0  0
 14  2  1  0  0  0  0
 15  4  2  0  0  0  0
 16  8  1  0  0  0  0
 17 25  1  0  0  0  0
 18  1  1  0  0  0  0
 19  5  1  0  0  0  0
 20 13  1  0  0  0  0
 20 18  2  0  0  0  0
 23 21  1  0  0  0  0
 24 22  1  0  0  0  0
 24 13  1  0  0  0  0
 25 14  1  0  0  0  0
 26 21  1  0  0  0  0
 27  1  1  0  0  0  0
 27  2  1  0  0  0  0
 28 17  1  0  0  0  0
 29 28  1  0  0  0  0
 30 33  1  0  0  0  0
 32 29  1  0  0  0  0
 32 31  1  0  0  0  0
 33 31  1  0  0  0  0
 34 30  1  0  0  0  0
 34 32  1  0  0  0  0
M  END
>  <MODEL>
7

>  <REMARK>
 VINA RESULT:      -6.0      2.706      6.560
  Name = 
  3 active torsions:
  status: ('A' for Active; 'I' for Inactive)
    1  A    between atoms: C_17  and  N_28
    2  A    between atoms: N_28  and  O_29
    3  A    between atoms: O_29  and  C_32
                            x       y       z     vdW  Elec       q    Type
                         _______ _______ _______ _____ _____    ______ ____

>  <TORSDO>
F 3

$$$$
=
 OpenBabel11112418083D

 34 40  0  0  1  0  0  0  0  0999 V2000
  193.8560  175.0770  141.7600 C   0  0  1  0  0  3  0  0  0  0  0  0
  194.1490  176.2530  143.8150 C   0  0  0  0  0  2  0  0  0  0  0  0
  189.4290  173.4270  137.2480 C   0  0  1  0  0  3  0  0  0  0  0  0
  193.1920  174.1700  139.4950 C   0  0  0  0  0  0  0  0  0  0  0  0
  191.0630  173.0430  139.1560 C   0  0  0  0  0  0  0  0  0  0  0  0
  189.0860  171.5950  138.8870 N   0  0  0  0  0  1  0  0  0  0  0  0
  188.3240  174.0270  137.8560 O   0  0  0  0  0  1  0  0  0  0  0  0
  191.7160  174.0150  136.2040 C   0  0  0  0  0  2  0  0  0  0  0  0
  192.4040  174.7620  143.5970 C   0  0  2  0  0  3  0  0  0  0  0  0
  189.5130  174.8380  145.0920 C   0  0  0  0  0  2  0  0  0  0  0  0
  190.7220  173.2960  140.4910 C   0  0  0  0  0  3  0  0  0  0  0  0
  192.6350  173.2800  137.1990 C   0  0  0  0  0  2  0  0  0  0  0  0
  191.2030  174.2770  142.7640 C   0  0  1  0  0  3  0  0  0  0  0  0
  193.3130  176.5680  145.3970 S   0  0  0  0  0  0  0  0  0  0  0  0
  192.2960  173.4970  138.6520 C   0  0  0  0  0  0  0  0  0  0  0  0
  190.3870  174.5300  136.7740 C   0  0  0  0  0  2  0  0  0  0  0  0
  190.6210  175.9080  145.1040 C   0  0  1  0  0  3  0  0  0  0  0  0
  192.8580  174.3880  140.8460 C   0  0  0  0  0  0  0  0  0  0  0  0
  190.0810  172.4110  138.2030 C   0  0  1  0  0  3  0  0  0  0  0  0
  191.6220  173.9350  141.3520 C   0  0  0  0  0  0  0  0  0  0  0  0
  195.3860  175.2800  139.8160 C   0  0  0  0  0  2  0  0  0  0  0  0
  190.0140  173.4060  144.8780 C   0  0  0  0  0  2  0  0  0  0  0  0
  194.3980  174.6710  138.9830 O   0  0  0  0  0  0  0  0  0  0  0  0
  190.4430  173.1220  143.4340 C   0  0  0  0  0  2  0  0  0  0  0  0
  192.0500  175.3350  144.9730 C   0  0  1  0  0  3  0  0  0  0  0  0
  194.7200  176.0500  140.9510 C   0  0  0  0  0  2  0  0  0  0  0  0
  193.1650  175.7640  142.8590 N   0  0  2  0  0  0  0  0  0  0  0  0
  190.3460  176.9050  144.0790 N   0  0  0  0  0  2  0  0  0  0  0  0
  189.0460  176.7710  143.7240 O   0  0  0  0  0  0  0  0  0  0  0  0
  187.3070  176.6130  140.7660 O   0  0  0  0  0  0  0  0  0  0  0  0
  188.3730  178.2940  142.0330 C   0  0  0  0  0  2  0  0  0  0  0  0
  189.0340  176.9840  142.3450 C   0  0  2  0  0  3  0  0  0  0  0  0
  187.1190  177.8980  141.2930 C   0  0  0  0  0  2  0  0  0  0  0  0
  188.1400  175.9580  141.6850 C   0  0  0  0  0  2  0  0  0  0  0  0
  1 26  1  6  0  0  0
  1 27  1  0  0  0  0
  2 14  1  0  0  0  0
  3  7  1  1  0  0  0
  3 19  1  0  0  0  0
  4 18  1  0  0  0  0
  5 11  2  0  0  0  0
  8 16  1  0  0  0  0
  8 12  1  0  0  0  0
  9 25  1  0  0  0  0
 10 17  1  0  0  0  0
 11 20  1  0  0  0  0
 12 15  1  0  0  0  0
 13 24  1  0  0  0  0
 13  9  1  0  0  0  0
 15  5  1  0  0  0  0
 15  4  2  0  0  0  0
 16  3  1  0  0  0  0
 18 20  2  0  0  0  0
 18  1  1  0  0  0  0
 19  6  1  0  0  0  0
 19  5  1  0  0  0  0
 20 13  1  0  0  0  0
 21 26  1  0  0  0  0
 22 10  1  0  0  0  0
 23  4  1  0  0  0  0
 23 21  1  0  0  0  0
 24 22  1  0  0  0  0
 25 17  1  0  0  0  0
 25 14  1  0  0  0  0
 27  9  1  0  0  0  0
 27  2  1  0  0  0  0
 28 17  1  0  0  0  0
 29 28  1  0  0  0  0
 30 33  1  0  0  0  0
 30 34  1  0  0  0  0
 31 32  1  0  0  0  0
 32 29  1  0  0  0  0
 33 31  1  0  0  0  0
 34 32  1  0  0  0  0
M  END
>  <MODEL>
8

>  <REMARK>
 VINA RESULT:      -6.0      3.113      6.394
  Name = 
  3 active torsions:
  status: ('A' for Active; 'I' for Inactive)
    1  A    between atoms: C_17  and  N_28
    2  A    between atoms: N_28  and  O_29
    3  A    between atoms: O_29  and  C_32
                            x       y       z     vdW  Elec       q    Type
                         _______ _______ _______ _____ _____    ______ ____

>  <TORSDO>
F 3

$$$$
=
 OpenBabel11112418083D

 34 40  0  0  1  0  0  0  0  0999 V2000
  189.9450  172.1230  142.5440 C   0  0  1  0  0  3  0  0  0  0  0  0
  190.0830  172.9880  144.7630 C   0  0  0  0  0  2  0  0  0  0  0  0
  191.0040  173.5920  136.2670 C   0  0  1  0  0  3  0  0  0  0  0  0
  190.1870  171.5020  140.1050 C   0  0  0  0  0  0  0  0  0  0  0  0
  189.6210  173.0720  138.3350 C   0  0  0  0  0  0  0  0  0  0  0  0
  188.7170  174.5140  136.5520 N   0  0  0  0  0  1  0  0  0  0  0  0
  191.4370  174.9050  136.4620 O   0  0  0  0  0  1  0  0  0  0  0  0
  191.6530  171.1550  136.8240 C   0  0  0  0  0  2  0  0  0  0  0  0
  189.0860  174.2500  143.1100 C   0  0  2  0  0  3  0  0  0  0  0  0
  188.9250  177.4950  142.8980 C   0  0  0  0  0  2  0  0  0  0  0  0
  189.3290  174.0460  139.2990 C   0  0  0  0  0  3  0  0  0  0  0  0
  190.4440  170.7750  137.7010 C   0  0  0  0  0  2  0  0  0  0  0  0
  189.1740  174.8360  141.6890 C   0  0  1  0  0  3  0  0  0  0  0  0
  189.8110  174.5180  145.7050 S   0  0  0  0  0  0  0  0  0  0  0  0
  190.0690  171.8010  138.7390 C   0  0  0  0  0  0  0  0  0  0  0  0
  192.0570  172.6360  136.8460 C   0  0  0  0  0  2  0  0  0  0  0  0
  189.7210  176.6440  143.9050 C   0  0  1  0  0  3  0  0  0  0  0  0
  189.8560  172.4740  141.0700 C   0  0  0  0  0  0  0  0  0  0  0  0
  189.5980  173.3960  136.8630 C   0  0  1  0  0  3  0  0  0  0  0  0
  189.4090  173.7490  140.6650 C   0  0  0  0  0  0  0  0  0  0  0  0
  190.7370  169.8650  141.8840 C   0  0  0  0  0  2  0  0  0  0  0  0
  187.6640  176.8180  142.3500 C   0  0  0  0  0  2  0  0  0  0  0  0
  190.6850  170.2550  140.5110 O   0  0  0  0  0  0  0  0  0  0  0  0
  187.9630  175.7110  141.3320 C   0  0  0  0  0  2  0  0  0  0  0  0
  189.0640  175.2860  144.2390 C   0  0  1  0  0  3  0  0  0  0  0  0
  191.0380  171.0720  142.7660 C   0  0  0  0  0  2  0  0  0  0  0  0
  190.1900  173.3260  143.3500 N   0  0  2  0  0  0  0  0  0  0  0  0
  191.0870  176.4760  143.4270 N   0  0  0  0  0  2  0  0  0  0  0  0
  191.8980  177.1530  144.2750 O   0  0  0  0  0  0  0  0  0  0  0  0
  194.5280  175.3200  145.5060 O   0  0  0  0  0  0  0  0  0  0  0  0
  193.0430  175.1620  143.6800 C   0  0  0  0  0  2  0  0  0  0  0  0
  193.1640  176.6080  144.0600 C   0  0  2  0  0  3  0  0  0  0  0  0
  193.6760  174.4300  144.8380 C   0  0  0  0  0  2  0  0  0  0  0  0
  193.9280  176.5800  145.3650 C   0  0  0  0  0  2  0  0  0  0  0  0
  1 26  1  6  0  0  0
  1 27  1  0  0  0  0
  2 14  1  0  0  0  0
  3  7  1  1  0  0  0
  3 16  1  0  0  0  0
  3 19  1  0  0  0  0
  4 23  1  0  0  0  0
  4 18  1  0  0  0  0
  5 15  1  0  0  0  0
  5 11  2  0  0  0  0
  6 19  1  0  0  0  0
  8 16  1  0  0  0  0
  8 12  1  0  0  0  0
  9 27  1  0  0  0  0
  9 25  1  0  0  0  0
 10 17  1  0  0  0  0
 11 20  1  0  0  0  0
 12 15  1  0  0  0  0
 13  9  1  0  0  0  0
 15  4  2  0  0  0  0
 17 25  1  0  0  0  0
 18  1  1  0  0  0  0
 19  5  1  0  0  0  0
 20 18  2  0  0  0  0
 20 13  1  0  0  0  0
 21 26  1  0  0  0  0
 22 10  1  0  0  0  0
 23 21  1  0  0  0  0
 24 13  1  0  0  0  0
 24 22  1  0  0  0  0
 25 14  1  0  0  0  0
 27  2  1  0  0  0  0
 28 17  1  0  0  0  0
 28 29  1  0  0  0  0
 31 32  1  0  0  0  0
 31 33  1  0  0  0  0
 32 29  1  0  0  0  0
 32 34  1  0  0  0  0
 33 30  1  0  0  0  0
 34 30  1  0  0  0  0
M  END
>  <MODEL>
9

>  <REMARK>
 VINA RESULT:      -6.0      3.603      6.793
  Name = 
  3 active torsions:
  status: ('A' for Active; 'I' for Inactive)
    1  A    between atoms: C_17  and  N_28
    2  A    between atoms: N_28  and  O_29
    3  A    between atoms: O_29  and  C_32
                            x       y       z     vdW  Elec       q    Type
                         _______ _______ _______ _____ _____    ______ ____

>  <TORSDO>
F 3

$$$$
