=
 OpenBabel11112417243D

 37 42  0  0  1  0  0  0  0  0999 V2000
  185.2680  178.2140  142.7390 S   0  0  0  0  0  0  0  0  0  0  0  0
  188.3130  175.9380  144.8800 C   0  0  0  0  0  0  0  0  0  0  0  0
  191.0090  173.8240  142.8290 C   0  0  0  0  0  2  0  0  0  0  0  0
  186.2110  177.1540  145.0580 C   0  0  0  0  0  0  0  0  0  0  0  0
  189.2280  175.4840  143.7660 C   0  0  1  0  0  3  0  0  0  0  0  0
  187.2230  176.5460  144.2980 C   0  0  0  0  0  0  0  0  0  0  0  0
  190.0910  174.2280  144.0080 C   0  0  2  0  0  3  0  0  0  0  0  0
  186.3260  177.1200  146.4520 C   0  0  0  0  0  3  0  0  0  0  0  0
  187.2590  176.4610  142.8800 N   0  0  0  0  0  0  0  0  0  0  0  0
  186.0610  179.4890  142.6780 O   0  0  0  0  0  0  0  0  0  0  0  0
  189.6400  175.3920  147.0320 C   0  0  0  0  0  2  0  0  0  0  0  0
  187.4390  176.5180  147.0590 C   0  0  0  0  0  3  0  0  0  0  0  0
  186.1900  176.8920  141.9850 C   0  0  0  0  0  2  0  0  0  0  0  0
  189.6580  173.0270  141.1990 C   0  0  1  0  0  3  0  0  0  0  0  0
  190.4470  174.1260  141.5790 O   0  0  0  0  0  0  0  0  0  0  0  0
  188.4490  175.9190  146.2900 C   0  0  0  0  0  0  0  0  0  0  0  0
  188.2880  175.4960  142.5160 C   0  0  2  0  0  3  0  0  0  0  0  0
  184.9850  177.7560  144.4380 C   0  0  0  0  0  2  0  0  0  0  0  0
  190.8750  174.3730  145.2320 N   0  0  0  0  0  0  0  0  0  0  0  0
  183.9570  178.3980  142.0290 O   0  0  0  0  0  0  0  0  0  0  0  0
  188.4020  172.8920  142.0690 C   0  0  0  0  0  2  0  0  0  0  0  0
  187.5610  174.1650  142.2010 C   0  0  0  0  0  2  0  0  0  0  0  0
  190.1670  174.0870  146.4670 C   0  0  0  0  0  2  0  0  0  0  0  0
  192.2000  176.4440  144.9910 C   0  0  0  0  0  3  0  0  0  0  0  0
  192.1390  175.0730  145.2880 C   0  0  0  0  0  0  0  0  0  0  0  0
  193.3280  174.3950  145.6080 C   0  0  0  0  0  3  0  0  0  0  0  0
  195.7960  174.3480  145.9840 C   0  0  0  0  0  1  0  0  0  0  0  0
  194.5930  176.4420  145.3490 C   0  0  0  0  0  3  0  0  0  0  0  0
  194.5480  175.0770  145.6400 C   0  0  0  0  0  0  0  0  0  0  0  0
  193.4200  177.1260  145.0220 C   0  0  0  0  0  3  0  0  0  0  0  0
  188.9930  173.4150  136.8740 O   0  0  0  0  0  0  0  0  0  0  0  0
  190.0530  173.8130  137.4240 C   0  0  0  0  0  0  0  0  0  0  0  0
  189.3020  173.1180  139.7510 C   0  0  0  0  0  0  0  0  0  0  0  0
  190.2500  173.6780  138.8360 N   0  0  0  0  0  2  0  0  0  0  0  0
  188.1900  172.6830  139.3460 O   0  0  0  0  0  0  0  0  0  0  0  0
  192.2870  174.5550  137.3580 O   0  0  0  0  0  1  0  0  0  0  0  0
  191.1340  174.4010  136.5900 C   0  0  0  0  0  2  0  0  0  0  0  0
  1 18  1  0  0  0  0
  2 16  1  0  0  0  0
  4  8  2  0  0  0  0
  5  7  1  0  0  0  0
  5  2  1  1  0  0  0
  6  2  2  0  0  0  0
  6  4  1  0  0  0  0
  7  3  1  6  0  0  0
  7 19  1  0  0  0  0
  8 12  1  0  0  0  0
  9  6  1  0  0  0  0
 10  1  2  0  0  0  0
 13  1  1  0  0  0  0
 13  9  1  0  0  0  0
 14 33  1  6  0  0  0
 14 15  1  0  0  0  0
 14 21  1  0  0  0  0
 15  3  1  0  0  0  0
 16 11  1  0  0  0  0
 16 12  2  0  0  0  0
 17 22  1  1  0  0  0
 17  9  1  0  0  0  0
 17  5  1  0  0  0  0
 18  4  1  0  0  0  0
 19 25  1  0  0  0  0
 19 23  1  0  0  0  0
 20  1  2  0  0  0  0
 21 22  1  0  0  0  0
 23 11  1  0  0  0  0
 24 30  2  0  0  0  0
 24 25  1  0  0  0  0
 25 26  2  0  0  0  0
 26 29  1  0  0  0  0
 28 29  2  0  0  0  0
 29 27  1  0  0  0  0
 30 28  1  0  0  0  0
 31 32  2  0  0  0  0
 32 34  1  0  0  0  0
 34 33  1  0  0  0  0
 35 33  2  0  0  0  0
 37 36  1  0  0  0  0
 37 32  1  0  0  0  0
M  END
>  <MODEL>
1

>  <REMARK>
 VINA RESULT:      -9.3      0.000      0.000
  Name = 
  3 active torsions:
  status: ('A' for Active; 'I' for Inactive)
    1  A    between atoms: C_4  and  C_37
    2  A    between atoms: C_8  and  C_18
    3  A    between atoms: N_23  and  C_30
                            x       y       z     vdW  Elec       q    Type
                         _______ _______ _______ _____ _____    ______ ____

>  <TORSDO>
F 3

$$$$
=
 OpenBabel11112417243D

 37 42  0  0  1  0  0  0  0  0999 V2000
  185.1090  178.3400  143.0820 S   0  0  0  0  0  0  0  0  0  0  0  0
  188.2500  175.9590  144.9530 C   0  0  0  0  0  0  0  0  0  0  0  0
  190.9490  174.1020  142.6700 C   0  0  0  0  0  2  0  0  0  0  0  0
  186.1250  177.1020  145.2790 C   0  0  0  0  0  0  0  0  0  0  0  0
  189.1510  175.6280  143.7850 C   0  0  1  0  0  3  0  0  0  0  0  0
  187.1340  176.5890  144.4480 C   0  0  0  0  0  0  0  0  0  0  0  0
  190.0470  174.3770  143.8970 C   0  0  2  0  0  3  0  0  0  0  0  0
  186.2700  176.9480  146.6610 C   0  0  0  0  0  3  0  0  0  0  0  0
  187.1420  176.6310  143.0280 N   0  0  0  0  0  0  0  0  0  0  0  0
  185.8710  179.6340  143.1210 O   0  0  0  0  0  0  0  0  0  0  0  0
  189.6340  175.2570  147.0220 C   0  0  0  0  0  2  0  0  0  0  0  0
  187.4100  176.3220  147.1910 C   0  0  0  0  0  3  0  0  0  0  0  0
  186.0440  177.1140  142.1960 C   0  0  0  0  0  2  0  0  0  0  0  0
  189.5820  173.4200  141.0010 C   0  0  1  0  0  3  0  0  0  0  0  0
  190.3530  174.5000  141.4620 O   0  0  0  0  0  0  0  0  0  0  0  0
  188.4170  175.8180  146.3520 C   0  0  0  0  0  0  0  0  0  0  0  0
  188.1850  175.7280  142.5590 C   0  0  2  0  0  3  0  0  0  0  0  0
  184.8720  177.7260  144.7390 C   0  0  0  0  0  2  0  0  0  0  0  0
  190.8530  174.4320  145.1140 N   0  0  0  0  0  0  0  0  0  0  0  0
  183.7790  178.5540  142.4170 O   0  0  0  0  0  0  0  0  0  0  0  0
  188.3480  173.1770  141.8800 C   0  0  0  0  0  2  0  0  0  0  0  0
  187.4810  174.4120  142.1410 C   0  0  0  0  0  2  0  0  0  0  0  0
  190.1790  174.0200  146.3320 C   0  0  0  0  0  2  0  0  0  0  0  0
  192.1380  176.5360  144.9550 C   0  0  0  0  0  3  0  0  0  0  0  0
  192.1020  175.1550  145.2080 C   0  0  0  0  0  0  0  0  0  0  0  0
  193.3010  174.4920  145.5200 C   0  0  0  0  0  3  0  0  0  0  0  0
  195.7650  174.4820  145.9250 C   0  0  0  0  0  1  0  0  0  0  0  0
  194.5270  176.5710  145.3420 C   0  0  0  0  0  3  0  0  0  0  0  0
  194.5060  175.1970  145.5900 C   0  0  0  0  0  0  0  0  0  0  0  0
  193.3440  177.2410  145.0240 C   0  0  0  0  0  3  0  0  0  0  0  0
  188.2240  174.3620  136.9310 O   0  0  0  0  0  0  0  0  0  0  0  0
  187.7650  174.9560  137.9420 C   0  0  0  0  0  0  0  0  0  0  0  0
  189.1930  173.6310  139.5750 C   0  0  0  0  0  0  0  0  0  0  0  0
  188.2210  174.6330  139.2600 N   0  0  0  0  0  2  0  0  0  0  0  0
  189.7360  172.9480  138.6640 O   0  0  0  0  0  0  0  0  0  0  0  0
  186.6930  176.8130  138.9170 O   0  0  0  0  0  1  0  0  0  0  0  0
  186.7590  176.0370  137.7610 C   0  0  0  0  0  2  0  0  0  0  0  0
  1 10  2  0  0  0  0
  1 18  1  0  0  0  0
  2 16  1  0  0  0  0
  4  8  2  0  0  0  0
  5  7  1  0  0  0  0
  5  2  1  1  0  0  0
  6  2  2  0  0  0  0
  6  4  1  0  0  0  0
  7  3  1  6  0  0  0
  7 19  1  0  0  0  0
  8 12  1  0  0  0  0
  9  6  1  0  0  0  0
 13  9  1  0  0  0  0
 13  1  1  0  0  0  0
 14 33  1  6  0  0  0
 14 15  1  0  0  0  0
 14 21  1  0  0  0  0
 15  3  1  0  0  0  0
 16 11  1  0  0  0  0
 16 12  2  0  0  0  0
 17 22  1  1  0  0  0
 17  9  1  0  0  0  0
 17  5  1  0  0  0  0
 18  4  1  0  0  0  0
 19 25  1  0  0  0  0
 19 23  1  0  0  0  0
 20  1  2  0  0  0  0
 21 22  1  0  0  0  0
 23 11  1  0  0  0  0
 24 30  2  0  0  0  0
 24 25  1  0  0  0  0
 25 26  2  0  0  0  0
 26 29  1  0  0  0  0
 28 29  2  0  0  0  0
 29 27  1  0  0  0  0
 30 28  1  0  0  0  0
 31 32  2  0  0  0  0
 32 34  1  0  0  0  0
 34 33  1  0  0  0  0
 35 33  2  0  0  0  0
 37 32  1  0  0  0  0
 37 36  1  0  0  0  0
M  END
>  <MODEL>
2

>  <REMARK>
 VINA RESULT:      -9.2      1.211      1.478
  Name = 
  3 active torsions:
  status: ('A' for Active; 'I' for Inactive)
    1  A    between atoms: C_4  and  C_37
    2  A    between atoms: C_8  and  C_18
    3  A    between atoms: N_23  and  C_30
                            x       y       z     vdW  Elec       q    Type
                         _______ _______ _______ _____ _____    ______ ____

>  <TORSDO>
F 3

$$$$
=
 OpenBabel11112417243D

 37 42  0  0  1  0  0  0  0  0999 V2000
  185.3980  178.1530  142.6130 S   0  0  0  0  0  0  0  0  0  0  0  0
  188.3820  175.8970  144.8590 C   0  0  0  0  0  0  0  0  0  0  0  0
  191.1730  173.8160  142.9030 C   0  0  0  0  0  2  0  0  0  0  0  0
  186.2640  177.0930  144.9630 C   0  0  0  0  0  0  0  0  0  0  0  0
  189.3420  175.4560  143.7780 C   0  0  1  0  0  3  0  0  0  0  0  0
  187.3090  176.4970  144.2390 C   0  0  0  0  0  0  0  0  0  0  0  0
  190.2080  174.2070  144.0470 C   0  0  2  0  0  3  0  0  0  0  0  0
  186.3270  177.0550  146.3590 C   0  0  0  0  0  3  0  0  0  0  0  0
  187.3990  176.4180  142.8230 N   0  0  0  0  0  0  0  0  0  0  0  0
  186.1810  179.4350  142.5870 O   0  0  0  0  0  0  0  0  0  0  0  0
  189.6330  175.3550  147.0570 C   0  0  0  0  0  2  0  0  0  0  0  0
  187.4230  176.4610  147.0060 C   0  0  0  0  0  3  0  0  0  0  0  0
  186.3600  176.8430  141.8900 C   0  0  0  0  0  2  0  0  0  0  0  0
  189.8910  173.0130  141.2200 C   0  0  1  0  0  3  0  0  0  0  0  0
  190.6550  174.1170  141.6330 O   0  0  0  0  0  0  0  0  0  0  0  0
  188.4660  175.8740  146.2730 C   0  0  0  0  0  0  0  0  0  0  0  0
  188.4500  175.4640  142.4940 C   0  0  2  0  0  3  0  0  0  0  0  0
  185.0560  177.6860  144.3000 C   0  0  0  0  0  2  0  0  0  0  0  0
  190.9440  174.3540  145.3000 N   0  0  0  0  0  0  0  0  0  0  0  0
  184.1130  178.3280  141.8560 O   0  0  0  0  0  0  0  0  0  0  0  0
  188.6040  172.8630  142.0430 C   0  0  0  0  0  2  0  0  0  0  0  0
  187.7470  174.1270  142.1470 C   0  0  0  0  0  2  0  0  0  0  0  0
  190.1930  174.0570  146.5070 C   0  0  0  0  0  2  0  0  0  0  0  0
  192.2480  176.4480  145.1640 C   0  0  0  0  0  3  0  0  0  0  0  0
  192.1990  175.0660  145.4060 C   0  0  0  0  0  0  0  0  0  0  0  0
  193.3900  174.3890  145.7200 C   0  0  0  0  0  3  0  0  0  0  0  0
  195.8510  174.3550  146.1380 C   0  0  0  0  0  1  0  0  0  0  0  0
  194.6340  176.4590  145.5630 C   0  0  0  0  0  3  0  0  0  0  0  0
  194.6000  175.0830  145.8010 C   0  0  0  0  0  0  0  0  0  0  0  0
  193.4590  177.1410  145.2430 C   0  0  0  0  0  3  0  0  0  0  0  0
  189.0680  172.8870  136.9070 O   0  0  0  0  0  0  0  0  0  0  0  0
  189.5310  171.8940  137.5270 C   0  0  0  0  0  0  0  0  0  0  0  0
  189.5880  173.1060  139.7610 C   0  0  0  0  0  0  0  0  0  0  0  0
  189.7930  171.9560  138.9330 N   0  0  0  0  0  2  0  0  0  0  0  0
  189.1340  174.1790  139.2770 O   0  0  0  0  0  0  0  0  0  0  0  0
  189.6920  169.5490  137.6800 O   0  0  0  0  0  1  0  0  0  0  0  0
  189.7760  170.6230  136.7950 C   0  0  0  0  0  2  0  0  0  0  0  0
  1 18  1  0  0  0  0
  2 16  1  0  0  0  0
  4  8  2  0  0  0  0
  5  7  1  0  0  0  0
  5  2  1  1  0  0  0
  6  2  2  0  0  0  0
  6  4  1  0  0  0  0
  7  3  1  6  0  0  0
  7 19  1  0  0  0  0
  8 12  1  0  0  0  0
  9  6  1  0  0  0  0
 10  1  2  0  0  0  0
 13  1  1  0  0  0  0
 13  9  1  0  0  0  0
 14 33  1  6  0  0  0
 14 15  1  0  0  0  0
 14 21  1  0  0  0  0
 15  3  1  0  0  0  0
 16 12  2  0  0  0  0
 16 11  1  0  0  0  0
 17 22  1  1  0  0  0
 17  9  1  0  0  0  0
 17  5  1  0  0  0  0
 18  4  1  0  0  0  0
 19 25  1  0  0  0  0
 19 23  1  0  0  0  0
 20  1  2  0  0  0  0
 21 22  1  0  0  0  0
 23 11  1  0  0  0  0
 24 30  2  0  0  0  0
 24 25  1  0  0  0  0
 25 26  2  0  0  0  0
 26 29  1  0  0  0  0
 28 29  2  0  0  0  0
 29 27  1  0  0  0  0
 30 28  1  0  0  0  0
 31 32  2  0  0  0  0
 32 34  1  0  0  0  0
 34 33  1  0  0  0  0
 35 33  2  0  0  0  0
 37 32  1  0  0  0  0
 37 36  1  0  0  0  0
M  END
>  <MODEL>
3

>  <REMARK>
 VINA RESULT:      -9.2      0.999      1.268
  Name = 
  3 active torsions:
  status: ('A' for Active; 'I' for Inactive)
    1  A    between atoms: C_4  and  C_37
    2  A    between atoms: C_8  and  C_18
    3  A    between atoms: N_23  and  C_30
                            x       y       z     vdW  Elec       q    Type
                         _______ _______ _______ _____ _____    ______ ____

>  <TORSDO>
F 3

$$$$
=
 OpenBabel11112417243D

 37 42  0  0  1  0  0  0  0  0999 V2000
  195.3880  170.6020  145.1040 S   0  0  0  0  0  0  0  0  0  0  0  0
  193.2190  174.3690  144.7390 C   0  0  0  0  0  0  0  0  0  0  0  0
  189.8690  174.5210  142.5700 C   0  0  0  0  0  2  0  0  0  0  0  0
  195.2970  173.3010  145.4200 C   0  0  0  0  0  0  0  0  0  0  0  0
  191.9430  173.9490  144.0450 C   0  0  1  0  0  3  0  0  0  0  0  0
  194.0520  173.2740  144.7710 C   0  0  0  0  0  0  0  0  0  0  0  0
  191.1680  175.0180  143.2480 C   0  0  2  0  0  3  0  0  0  0  0  0
  195.6910  174.4930  146.0370 C   0  0  0  0  0  3  0  0  0  0  0  0
  193.5030  172.1650  144.0740 N   0  0  0  0  0  0  0  0  0  0  0  0
  194.6870  170.1560  146.3560 O   0  0  0  0  0  0  0  0  0  0  0  0
  192.7340  176.7900  145.5090 C   0  0  0  0  0  2  0  0  0  0  0  0
  194.8460  175.6130  146.0250 C   0  0  0  0  0  3  0  0  0  0  0  0
  194.1960  170.9060  143.8190 C   0  0  0  0  0  2  0  0  0  0  0  0
  190.5020  173.1820  140.8600 C   0  0  1  0  0  3  0  0  0  0  0  0
  189.9550  173.1830  142.1530 O   0  0  0  0  0  0  0  0  0  0  0  0
  193.5990  175.5740  145.3790 C   0  0  0  0  0  0  0  0  0  0  0  0
  192.3680  172.6440  143.2950 C   0  0  2  0  0  3  0  0  0  0  0  0
  196.2440  172.1370  145.4020 C   0  0  0  0  0  2  0  0  0  0  0  0
  190.8860  176.1790  144.0880 N   0  0  0  0  0  0  0  0  0  0  0  0
  196.3610  169.5460  144.6650 O   0  0  0  0  0  0  0  0  0  0  0  0
  191.9800  173.5940  140.8580 C   0  0  0  0  0  2  0  0  0  0  0  0
  192.8700  172.8280  141.8410 C   0  0  0  0  0  2  0  0  0  0  0  0
  191.9780  177.1250  144.2370 C   0  0  0  0  0  2  0  0  0  0  0  0
  189.6790  175.3720  146.0860 C   0  0  0  0  0  3  0  0  0  0  0  0
  189.7620  176.2510  144.9950 C   0  0  0  0  0  0  0  0  0  0  0  0
  188.7210  177.1710  144.7850 C   0  0  0  0  0  3  0  0  0  0  0  0
  186.5370  178.2010  145.4240 C   0  0  0  0  0  1  0  0  0  0  0  0
  187.5620  176.3430  146.7420 C   0  0  0  0  0  3  0  0  0  0  0  0
  187.6290  177.2190  145.6560 C   0  0  0  0  0  0  0  0  0  0  0  0
  188.5860  175.4180  146.9570 C   0  0  0  0  0  3  0  0  0  0  0  0
  190.0010  169.4420  138.6110 O   0  0  0  0  0  0  0  0  0  0  0  0
  190.0470  170.5630  138.0390 C   0  0  0  0  0  0  0  0  0  0  0  0
  190.3160  171.8470  140.2170 C   0  0  0  0  0  0  0  0  0  0  0  0
  190.2100  171.7700  138.7910 N   0  0  0  0  0  2  0  0  0  0  0  0
  190.2790  170.8040  140.9260 O   0  0  0  0  0  0  0  0  0  0  0  0
  189.3100  171.8010  136.1760 O   0  0  0  0  0  1  0  0  0  0  0  0
  189.9670  170.6320  136.5560 C   0  0  0  0  0  2  0  0  0  0  0  0
  1 18  1  0  0  0  0
  1 10  2  0  0  0  0
  2  6  2  0  0  0  0
  2 16  1  0  0  0  0
  4  8  2  0  0  0  0
  5  2  1  6  0  0  0
  6  4  1  0  0  0  0
  7  3  1  1  0  0  0
  7  5  1  0  0  0  0
  7 19  1  0  0  0  0
  9  6  1  0  0  0  0
 12  8  1  0  0  0  0
 13  9  1  0  0  0  0
 13  1  1  0  0  0  0
 14 33  1  1  0  0  0
 14 15  1  0  0  0  0
 15  3  1  0  0  0  0
 16 11  1  0  0  0  0
 16 12  2  0  0  0  0
 17 22  1  6  0  0  0
 17  5  1  0  0  0  0
 17  9  1  0  0  0  0
 18  4  1  0  0  0  0
 19 23  1  0  0  0  0
 19 25  1  0  0  0  0
 20  1  2  0  0  0  0
 21 14  1  0  0  0  0
 21 22  1  0  0  0  0
 23 11  1  0  0  0  0
 24 30  1  0  0  0  0
 25 24  2  0  0  0  0
 26 25  1  0  0  0  0
 26 29  2  0  0  0  0
 27 29  1  0  0  0  0
 28 30  2  0  0  0  0
 29 28  1  0  0  0  0
 32 31  2  0  0  0  0
 32 34  1  0  0  0  0
 33 35  2  0  0  0  0
 34 33  1  0  0  0  0
 36 37  1  0  0  0  0
 37 32  1  0  0  0  0
M  END
>  <MODEL>
4

>  <REMARK>
 VINA RESULT:      -8.1      3.390      6.869
  Name = 
  3 active torsions:
  status: ('A' for Active; 'I' for Inactive)
    1  A    between atoms: C_4  and  C_37
    2  A    between atoms: C_8  and  C_18
    3  A    between atoms: N_23  and  C_30
                            x       y       z     vdW  Elec       q    Type
                         _______ _______ _______ _____ _____    ______ ____

>  <TORSDO>
F 3

$$$$
=
 OpenBabel11112417243D

 37 42  0  0  1  0  0  0  0  0999 V2000
  187.5460  177.1340  142.0240 S   0  0  0  0  0  0  0  0  0  0  0  0
  190.9240  175.5900  144.3130 C   0  0  0  0  0  0  0  0  0  0  0  0
  193.0370  172.5140  142.8920 C   0  0  0  0  0  2  0  0  0  0  0  0
  188.9500  177.0140  144.3500 C   0  0  0  0  0  0  0  0  0  0  0  0
  191.5560  174.6130  143.3490 C   0  0  1  0  0  3  0  0  0  0  0  0
  189.7500  176.0310  143.7460 C   0  0  0  0  0  0  0  0  0  0  0  0
  192.4150  173.4730  143.9350 C   0  0  2  0  0  3  0  0  0  0  0  0
  189.3710  177.5420  145.5750 C   0  0  0  0  0  3  0  0  0  0  0  0
  189.4680  175.3680  142.5210 N   0  0  0  0  0  0  0  0  0  0  0  0
  188.3420  178.1660  141.2770 O   0  0  0  0  0  0  0  0  0  0  0  0
  192.6800  175.8200  146.1990 C   0  0  0  0  0  2  0  0  0  0  0  0
  190.5730  177.1130  146.1580 C   0  0  0  0  0  3  0  0  0  0  0  0
  188.2400  175.5190  141.7480 C   0  0  0  0  0  2  0  0  0  0  0  0
  191.3350  171.2860  142.0450 C   0  0  1  0  0  3  0  0  0  0  0  0
  192.2190  172.3410  141.7630 O   0  0  0  0  0  0  0  0  0  0  0  0
  191.3700  176.1350  145.5430 C   0  0  0  0  0  0  0  0  0  0  0  0
  190.3630  174.2230  142.4160 C   0  0  2  0  0  3  0  0  0  0  0  0
  187.6350  177.4510  143.7770 C   0  0  0  0  0  2  0  0  0  0  0  0
  193.4550  174.0120  144.8080 N   0  0  0  0  0  0  0  0  0  0  0  0
  186.1160  177.1660  141.5660 O   0  0  0  0  0  0  0  0  0  0  0  0
  190.3000  171.6720  143.1100 C   0  0  0  0  0  2  0  0  0  0  0  0
  189.5460  172.9770  142.8420 C   0  0  0  0  0  2  0  0  0  0  0  0
  193.0310  174.3450  146.1560 C   0  0  0  0  0  2  0  0  0  0  0  0
  195.9140  174.1710  144.9710 C   0  0  0  0  0  3  0  0  0  0  0  0
  194.7190  174.5160  144.3200 C   0  0  0  0  0  0  0  0  0  0  0  0
  194.7750  175.3820  143.2140 C   0  0  0  0  0  3  0  0  0  0  0  0
  196.0440  176.7910  141.5890 C   0  0  0  0  0  1  0  0  0  0  0  0
  197.1830  175.5220  143.4150 C   0  0  0  0  0  3  0  0  0  0  0  0
  196.0010  175.8800  142.7630 C   0  0  0  0  0  0  0  0  0  0  0  0
  197.1400  174.6690  144.5200 C   0  0  0  0  0  3  0  0  0  0  0  0
  189.4150  170.2870  138.2220 O   0  0  0  0  0  0  0  0  0  0  0  0
  189.6920  171.4740  138.5400 C   0  0  0  0  0  0  0  0  0  0  0  0
  190.6690  170.8180  140.7930 C   0  0  0  0  0  0  0  0  0  0  0  0
  190.3170  171.7780  139.7910 N   0  0  0  0  0  2  0  0  0  0  0  0
  190.4460  169.5890  140.6180 O   0  0  0  0  0  0  0  0  0  0  0  0
  189.3670  173.7900  138.2650 O   0  0  0  0  0  1  0  0  0  0  0  0
  189.3980  172.5740  137.5840 C   0  0  0  0  0  2  0  0  0  0  0  0
  1 18  1  0  0  0  0
  2 16  1  0  0  0  0
  4  8  2  0  0  0  0
  5  7  1  0  0  0  0
  5  2  1  1  0  0  0
  6  2  2  0  0  0  0
  6  4  1  0  0  0  0
  7  3  1  6  0  0  0
  7 19  1  0  0  0  0
  8 12  1  0  0  0  0
  9  6  1  0  0  0  0
 10  1  2  0  0  0  0
 13  1  1  0  0  0  0
 13  9  1  0  0  0  0
 14 33  1  6  0  0  0
 14 21  1  0  0  0  0
 15 14  1  0  0  0  0
 15  3  1  0  0  0  0
 16 12  2  0  0  0  0
 16 11  1  0  0  0  0
 17  9  1  0  0  0  0
 17 22  1  1  0  0  0
 17  5  1  0  0  0  0
 18  4  1  0  0  0  0
 19 23  1  0  0  0  0
 20  1  2  0  0  0  0
 22 21  1  0  0  0  0
 23 11  1  0  0  0  0
 25 19  1  0  0  0  0
 25 24  2  0  0  0  0
 26 25  1  0  0  0  0
 27 29  1  0  0  0  0
 28 30  2  0  0  0  0
 29 26  2  0  0  0  0
 29 28  1  0  0  0  0
 30 24  1  0  0  0  0
 31 32  2  0  0  0  0
 32 34  1  0  0  0  0
 34 33  1  0  0  0  0
 35 33  2  0  0  0  0
 37 36  1  0  0  0  0
 37 32  1  0  0  0  0
M  END
>  <MODEL>
5

>  <REMARK>
 VINA RESULT:      -8.0      2.188      3.020
  Name = 
  3 active torsions:
  status: ('A' for Active; 'I' for Inactive)
    1  A    between atoms: C_4  and  C_37
    2  A    between atoms: C_8  and  C_18
    3  A    between atoms: N_23  and  C_30
                            x       y       z     vdW  Elec       q    Type
                         _______ _______ _______ _____ _____    ______ ____

>  <TORSDO>
F 3

$$$$
=
 OpenBabel11112417243D

 37 42  0  0  1  0  0  0  0  0999 V2000
  189.4710  172.8550  139.4660 S   0  0  0  0  0  0  0  0  0  0  0  0
  193.0300  174.3900  141.4690 C   0  0  0  0  0  0  0  0  0  0  0  0
  192.8190  175.5030  145.2980 C   0  0  0  0  0  2  0  0  0  0  0  0
  192.0120  173.8140  139.3330 C   0  0  0  0  0  0  0  0  0  0  0  0
  192.5840  174.4790  142.9100 C   0  0  1  0  0  3  0  0  0  0  0  0
  191.9280  174.0550  140.7140 C   0  0  0  0  0  0  0  0  0  0  0  0
  193.3230  175.4680  143.8350 C   0  0  2  0  0  3  0  0  0  0  0  0
  193.2630  173.9350  138.7210 C   0  0  0  0  0  3  0  0  0  0  0  0
  190.7420  174.0040  141.4960 N   0  0  0  0  0  0  0  0  0  0  0  0
  189.7390  171.4130  139.7860 O   0  0  0  0  0  0  0  0  0  0  0  0
  195.5900  174.7370  141.5920 C   0  0  0  0  0  2  0  0  0  0  0  0
  194.3980  174.2600  139.4790 C   0  0  0  0  0  3  0  0  0  0  0  0
  189.3960  173.8050  140.9670 C   0  0  0  0  0  2  0  0  0  0  0  0
  190.7860  176.4950  145.2600 C   0  0  1  0  0  3  0  0  0  0  0  0
  191.4400  175.2600  145.4000 O   0  0  0  0  0  0  0  0  0  0  0  0
  194.3050  174.4930  140.8610 C   0  0  0  0  0  0  0  0  0  0  0  0
  191.0300  174.6170  142.7860 C   0  0  2  0  0  3  0  0  0  0  0  0
  190.8080  173.5190  138.4900 C   0  0  0  0  0  2  0  0  0  0  0  0
  194.7620  175.2210  143.8020 N   0  0  0  0  0  0  0  0  0  0  0  0
  188.1750  172.9760  138.7150 O   0  0  0  0  0  0  0  0  0  0  0  0
  190.8900  177.0420  143.8300 C   0  0  0  0  0  2  0  0  0  0  0  0
  190.4790  176.0630  142.7270 C   0  0  0  0  0  2  0  0  0  0  0  0
  195.4710  175.7950  142.6730 C   0  0  0  0  0  2  0  0  0  0  0  0
  196.5420  174.5390  145.3740 C   0  0  0  0  0  3  0  0  0  0  0  0
  195.4140  174.2100  144.6060 C   0  0  0  0  0  0  0  0  0  0  0  0
  194.9550  172.8810  144.6080 C   0  0  0  0  0  3  0  0  0  0  0  0
  195.1050  170.5080  145.3680 C   0  0  0  0  0  1  0  0  0  0  0  0
  196.7210  172.2500  146.1380 C   0  0  0  0  0  3  0  0  0  0  0  0
  195.6040  171.9080  145.3730 C   0  0  0  0  0  0  0  0  0  0  0  0
  197.1910  173.5640  146.1380 C   0  0  0  0  0  3  0  0  0  0  0  0
  186.5190  176.4920  146.3030 O   0  0  0  0  0  0  0  0  0  0  0  0
  187.0560  177.4530  145.6910 C   0  0  0  0  0  0  0  0  0  0  0  0
  189.3600  176.3800  145.6890 C   0  0  0  0  0  0  0  0  0  0  0  0
  188.4490  177.4340  145.3610 N   0  0  0  0  0  2  0  0  0  0  0  0
  188.9680  175.3540  146.3080 O   0  0  0  0  0  0  0  0  0  0  0  0
  185.4440  179.0410  146.3450 O   0  0  0  0  0  1  0  0  0  0  0  0
  186.2220  178.6100  145.2710 C   0  0  0  0  0  2  0  0  0  0  0  0
  1 10  2  0  0  0  0
  1 13  1  0  0  0  0
  3 15  1  0  0  0  0
  4  6  1  0  0  0  0
  5  2  1  6  0  0  0
  5  7  1  0  0  0  0
  6  2  2  0  0  0  0
  6  9  1  0  0  0  0
  7  3  1  1  0  0  0
  8  4  2  0  0  0  0
  8 12  1  0  0  0  0
  9 17  1  0  0  0  0
 11 23  1  0  0  0  0
 12 16  2  0  0  0  0
 13  9  1  0  0  0  0
 14 15  1  0  0  0  0
 14 33  1  6  0  0  0
 16  2  1  0  0  0  0
 16 11  1  0  0  0  0
 17 22  1  6  0  0  0
 17  5  1  0  0  0  0
 18  4  1  0  0  0  0
 18  1  1  0  0  0  0
 19  7  1  0  0  0  0
 19 25  1  0  0  0  0
 20  1  2  0  0  0  0
 21 14  1  0  0  0  0
 22 21  1  0  0  0  0
 23 19  1  0  0  0  0
 24 30  1  0  0  0  0
 25 26  1  0  0  0  0
 25 24  2  0  0  0  0
 26 29  2  0  0  0  0
 27 29  1  0  0  0  0
 28 30  2  0  0  0  0
 29 28  1  0  0  0  0
 32 31  2  0  0  0  0
 33 35  2  0  0  0  0
 34 33  1  0  0  0  0
 34 32  1  0  0  0  0
 37 32  1  0  0  0  0
 37 36  1  0  0  0  0
M  END
>  <MODEL>
6

>  <REMARK>
 VINA RESULT:      -7.8      2.962      6.937
  Name = 
  3 active torsions:
  status: ('A' for Active; 'I' for Inactive)
    1  A    between atoms: C_4  and  C_37
    2  A    between atoms: C_8  and  C_18
    3  A    between atoms: N_23  and  C_30
                            x       y       z     vdW  Elec       q    Type
                         _______ _______ _______ _____ _____    ______ ____

>  <TORSDO>
F 3

$$$$
=
 OpenBabel11112417243D

 37 42  0  0  1  0  0  0  0  0999 V2000
  192.8820  176.3690  145.9630 S   0  0  0  0  0  0  0  0  0  0  0  0
  191.1560  173.7700  142.9140 C   0  0  0  0  0  0  0  0  0  0  0  0
  188.1910  175.1250  140.6070 C   0  0  0  0  0  2  0  0  0  0  0  0
  192.5790  173.8920  144.8860 C   0  0  0  0  0  0  0  0  0  0  0  0
  190.2530  174.7120  142.1510 C   0  0  1  0  0  3  0  0  0  0  0  0
  191.6430  174.4560  144.0040 C   0  0  0  0  0  0  0  0  0  0  0  0
  189.0690  174.1050  141.3710 C   0  0  2  0  0  3  0  0  0  0  0  0
  193.0090  172.5840  144.6380 C   0  0  0  0  0  3  0  0  0  0  0  0
  191.0770  175.7550  144.1130 N   0  0  0  0  0  0  0  0  0  0  0  0
  193.9660  176.9200  145.0820 O   0  0  0  0  0  0  0  0  0  0  0  0
  191.2340  171.6520  141.4310 C   0  0  0  0  0  2  0  0  0  0  0  0
  192.5330  171.8780  143.5220 C   0  0  0  0  0  3  0  0  0  0  0  0
  191.2910  176.6730  145.2270 C   0  0  0  0  0  2  0  0  0  0  0  0
  187.0380  176.2860  142.1700 C   0  0  1  0  0  3  0  0  0  0  0  0
  188.1080  176.3640  141.2630 O   0  0  0  0  0  0  0  0  0  0  0  0
  191.6030  172.4540  142.6430 C   0  0  0  0  0  0  0  0  0  0  0  0
  189.9400  175.8250  143.2040 C   0  0  2  0  0  3  0  0  0  0  0  0
  193.0630  174.6020  146.1150 C   0  0  0  0  0  2  0  0  0  0  0  0
  189.5360  173.0610  140.4620 N   0  0  0  0  0  0  0  0  0  0  0  0
  192.9540  177.0130  147.3190 O   0  0  0  0  0  0  0  0  0  0  0  0
  187.3440  175.3440  143.3420 C   0  0  0  0  0  2  0  0  0  0  0  0
  188.6680  175.6100  144.0620 C   0  0  0  0  0  2  0  0  0  0  0  0
  189.7650  171.7610  141.0660 C   0  0  0  0  0  2  0  0  0  0  0  0
  189.2870  173.1100  138.0050 C   0  0  0  0  0  3  0  0  0  0  0  0
  190.0730  173.3330  139.1470 C   0  0  0  0  0  0  0  0  0  0  0  0
  191.3920  173.7910  138.9840 C   0  0  0  0  0  3  0  0  0  0  0  0
  193.3020  174.5200  137.5510 C   0  0  0  0  0  1  0  0  0  0  0  0
  191.1120  173.8130  136.5800 C   0  0  0  0  0  3  0  0  0  0  0  0
  191.9070  174.0320  137.7080 C   0  0  0  0  0  0  0  0  0  0  0  0
  189.8030  173.3510  136.7280 C   0  0  0  0  0  3  0  0  0  0  0  0
  185.7300  180.1100  143.8890 O   0  0  0  0  0  0  0  0  0  0  0  0
  185.2370  179.0100  144.2560 C   0  0  0  0  0  0  0  0  0  0  0  0
  186.6690  177.6480  142.6570 C   0  0  0  0  0  0  0  0  0  0  0  0
  185.6780  177.7750  143.6820 N   0  0  0  0  0  2  0  0  0  0  0  0
  187.2460  178.6660  142.1850 O   0  0  0  0  0  0  0  0  0  0  0  0
  184.4370  177.9080  146.1770 O   0  0  0  0  0  1  0  0  0  0  0  0
  184.2080  178.9910  145.3290 C   0  0  0  0  0  2  0  0  0  0  0  0
  1 18  1  0  0  0  0
  1 20  2  0  0  0  0
  2  6  1  0  0  0  0
  3 15  1  0  0  0  0
  4 18  1  0  0  0  0
  5  2  1  1  0  0  0
  5 17  1  0  0  0  0
  6  9  1  0  0  0  0
  6  4  2  0  0  0  0
  7  3  1  6  0  0  0
  7  5  1  0  0  0  0
  8  4  1  0  0  0  0
  9 13  1  0  0  0  0
 10  1  2  0  0  0  0
 11 16  1  0  0  0  0
 12  8  2  0  0  0  0
 13  1  1  0  0  0  0
 14 33  1  1  0  0  0
 14 21  1  0  0  0  0
 15 14  1  0  0  0  0
 16  2  2  0  0  0  0
 16 12  1  0  0  0  0
 17 22  1  1  0  0  0
 17  9  1  0  0  0  0
 19 23  1  0  0  0  0
 19  7  1  0  0  0  0
 21 22  1  0  0  0  0
 23 11  1  0  0  0  0
 24 25  1  0  0  0  0
 25 19  1  0  0  0  0
 26 25  2  0  0  0  0
 27 29  1  0  0  0  0
 28 30  1  0  0  0  0
 28 29  2  0  0  0  0
 29 26  1  0  0  0  0
 30 24  2  0  0  0  0
 31 32  2  0  0  0  0
 32 37  1  0  0  0  0
 33 34  1  0  0  0  0
 34 32  1  0  0  0  0
 35 33  2  0  0  0  0
 37 36  1  0  0  0  0
M  END
>  <MODEL>
7

>  <REMARK>
 VINA RESULT:      -7.6      2.740      7.295
  Name = 
  3 active torsions:
  status: ('A' for Active; 'I' for Inactive)
    1  A    between atoms: C_4  and  C_37
    2  A    between atoms: C_8  and  C_18
    3  A    between atoms: N_23  and  C_30
                            x       y       z     vdW  Elec       q    Type
                         _______ _______ _______ _____ _____    ______ ____

>  <TORSDO>
F 3

$$$$
=
 OpenBabel11112417243D

 37 42  0  0  1  0  0  0  0  0999 V2000
  186.6050  177.1050  142.7450 S   0  0  0  0  0  0  0  0  0  0  0  0
  190.0480  175.2770  144.7020 C   0  0  0  0  0  0  0  0  0  0  0  0
  192.4530  172.8590  142.6240 C   0  0  0  0  0  2  0  0  0  0  0  0
  187.9570  176.4840  145.0190 C   0  0  0  0  0  0  0  0  0  0  0  0
  190.7850  174.6410  143.5460 C   0  0  1  0  0  3  0  0  0  0  0  0
  188.8540  175.7600  144.2160 C   0  0  0  0  0  0  0  0  0  0  0  0
  191.7250  173.4570  143.8520 C   0  0  2  0  0  3  0  0  0  0  0  0
  188.3020  176.6990  146.3580 C   0  0  0  0  0  3  0  0  0  0  0  0
  188.6600  175.4250  142.8490 N   0  0  0  0  0  0  0  0  0  0  0  0
  187.3250  178.3570  142.3310 O   0  0  0  0  0  0  0  0  0  0  0  0
  191.7320  175.1350  146.6610 C   0  0  0  0  0  2  0  0  0  0  0  0
  189.5230  176.2260  146.8630 C   0  0  0  0  0  3  0  0  0  0  0  0
  187.4420  175.6800  142.0870 C   0  0  0  0  0  2  0  0  0  0  0  0
  190.8840  171.7720  141.4080 C   0  0  1  0  0  3  0  0  0  0  0  0
  191.6810  172.9280  141.4530 O   0  0  0  0  0  0  0  0  0  0  0  0
  190.4150  175.5100  146.0500 C   0  0  0  0  0  0  0  0  0  0  0  0
  189.6530  174.4210  142.4900 C   0  0  2  0  0  3  0  0  0  0  0  0
  186.6230  176.9530  144.5210 C   0  0  0  0  0  2  0  0  0  0  0  0
  192.6930  173.8250  144.8820 N   0  0  0  0  0  0  0  0  0  0  0  0
  185.1880  177.1460  142.2450 O   0  0  0  0  0  0  0  0  0  0  0  0
  189.7950  171.7810  142.4880 C   0  0  0  0  0  2  0  0  0  0  0  0
  188.9370  173.0480  142.5380 C   0  0  0  0  0  2  0  0  0  0  0  0
  192.2110  173.7550  146.2490 C   0  0  0  0  0  2  0  0  0  0  0  0
  193.8860  175.7530  143.9020 C   0  0  0  0  0  3  0  0  0  0  0  0
  193.9210  174.5370  144.6020 C   0  0  0  0  0  0  0  0  0  0  0  0
  195.1660  174.0140  144.9920 C   0  0  0  0  0  3  0  0  0  0  0  0
  197.6570  174.1370  145.1220 C   0  0  0  0  0  1  0  0  0  0  0  0
  196.2980  175.9130  144.0080 C   0  0  0  0  0  3  0  0  0  0  0  0
  196.3480  174.7000  144.6990 C   0  0  0  0  0  0  0  0  0  0  0  0
  195.0690  176.4390  143.6080 C   0  0  0  0  0  3  0  0  0  0  0  0
  189.0830  171.6710  137.4030 O   0  0  0  0  0  0  0  0  0  0  0  0
  189.0850  172.7150  138.1080 C   0  0  0  0  0  0  0  0  0  0  0  0
  190.2920  171.6010  140.0480 C   0  0  0  0  0  0  0  0  0  0  0  0
  189.6770  172.7260  139.4110 N   0  0  0  0  0  2  0  0  0  0  0  0
  190.3580  170.4840  139.4660 O   0  0  0  0  0  0  0  0  0  0  0  0
  187.9620  174.7240  138.6040 O   0  0  0  0  0  1  0  0  0  0  0  0
  188.4960  173.9670  137.5630 C   0  0  0  0  0  2  0  0  0  0  0  0
  1 18  1  0  0  0  0
  2 16  1  0  0  0  0
  4  8  2  0  0  0  0
  5  7  1  0  0  0  0
  5  2  1  1  0  0  0
  6  2  2  0  0  0  0
  6  4  1  0  0  0  0
  7  3  1  6  0  0  0
  7 19  1  0  0  0  0
  8 12  1  0  0  0  0
  9  6  1  0  0  0  0
 10  1  2  0  0  0  0
 13  1  1  0  0  0  0
 13  9  1  0  0  0  0
 14 33  1  6  0  0  0
 14 15  1  0  0  0  0
 14 21  1  0  0  0  0
 15  3  1  0  0  0  0
 16 11  1  0  0  0  0
 16 12  2  0  0  0  0
 17 22  1  1  0  0  0
 17  9  1  0  0  0  0
 17  5  1  0  0  0  0
 18  4  1  0  0  0  0
 19 23  1  0  0  0  0
 20  1  2  0  0  0  0
 21 22  1  0  0  0  0
 23 11  1  0  0  0  0
 24 25  1  0  0  0  0
 25 19  1  0  0  0  0
 25 26  2  0  0  0  0
 28 29  2  0  0  0  0
 29 26  1  0  0  0  0
 29 27  1  0  0  0  0
 30 24  2  0  0  0  0
 30 28  1  0  0  0  0
 31 32  2  0  0  0  0
 32 34  1  0  0  0  0
 34 33  1  0  0  0  0
 35 33  2  0  0  0  0
 37 32  1  0  0  0  0
 37 36  1  0  0  0  0
M  END
>  <MODEL>
8

>  <REMARK>
 VINA RESULT:      -7.6      1.672      2.074
  Name = 
  3 active torsions:
  status: ('A' for Active; 'I' for Inactive)
    1  A    between atoms: C_4  and  C_37
    2  A    between atoms: C_8  and  C_18
    3  A    between atoms: N_23  and  C_30
                            x       y       z     vdW  Elec       q    Type
                         _______ _______ _______ _____ _____    ______ ____

>  <TORSDO>
F 3

$$$$
=
 OpenBabel11112417243D

 37 42  0  0  1  0  0  0  0  0999 V2000
  193.3740  176.3430  145.7930 S   0  0  0  0  0  0  0  0  0  0  0  0
  191.5730  173.4200  143.1020 C   0  0  0  0  0  0  0  0  0  0  0  0
  188.5290  174.5040  140.7560 C   0  0  0  0  0  2  0  0  0  0  0  0
  193.0560  173.7620  145.0020 C   0  0  0  0  0  0  0  0  0  0  0  0
  190.6410  174.2700  142.2690 C   0  0  1  0  0  3  0  0  0  0  0  0
  192.0890  174.2230  144.0950 C   0  0  0  0  0  0  0  0  0  0  0  0
  189.4370  173.5770  141.5980 C   0  0  2  0  0  3  0  0  0  0  0  0
  193.4880  172.4370  144.8850 C   0  0  0  0  0  3  0  0  0  0  0  0
  191.5180  175.5240  144.0790 N   0  0  0  0  0  0  0  0  0  0  0  0
  194.4270  176.7990  144.8230 O   0  0  0  0  0  0  0  0  0  0  0  0
  191.6210  171.1540  141.8560 C   0  0  0  0  0  2  0  0  0  0  0  0
  192.9830  171.6110  143.8690 C   0  0  0  0  0  3  0  0  0  0  0  0
  191.7590  176.5590  145.0790 C   0  0  0  0  0  2  0  0  0  0  0  0
  187.4170  175.8240  142.2180 C   0  0  1  0  0  3  0  0  0  0  0  0
  188.4570  175.8070  141.2750 O   0  0  0  0  0  0  0  0  0  0  0  0
  192.0210  172.0840  142.9610 C   0  0  0  0  0  0  0  0  0  0  0  0
  190.3530  175.4900  143.2040 C   0  0  2  0  0  3  0  0  0  0  0  0
  193.5730  174.6040  146.1310 C   0  0  0  0  0  2  0  0  0  0  0  0
  189.8830  172.4410  140.7940 N   0  0  0  0  0  0  0  0  0  0  0  0
  193.4840  177.1320  147.0680 O   0  0  0  0  0  0  0  0  0  0  0  0
  187.7650  175.0170  143.4760 C   0  0  0  0  0  2  0  0  0  0  0  0
  189.1100  175.3650  144.1210 C   0  0  0  0  0  2  0  0  0  0  0  0
  190.1410  171.2160  141.5290 C   0  0  0  0  0  2  0  0  0  0  0  0
  191.4090  173.4770  139.1500 C   0  0  0  0  0  3  0  0  0  0  0  0
  190.3770  172.5700  139.4410 C   0  0  0  0  0  0  0  0  0  0  0  0
  189.8170  171.8210  138.3920 C   0  0  0  0  0  3  0  0  0  0  0  0
  189.6890  171.1650  135.9860 C   0  0  0  0  0  1  0  0  0  0  0  0
  191.3190  172.8680  136.8100 C   0  0  0  0  0  3  0  0  0  0  0  0
  190.2880  171.9680  137.0840 C   0  0  0  0  0  0  0  0  0  0  0  0
  191.8790  173.6240  137.8420 C   0  0  0  0  0  3  0  0  0  0  0  0
  186.0350  179.8070  143.4500 O   0  0  0  0  0  0  0  0  0  0  0  0
  185.3550  178.7690  143.6660 C   0  0  0  0  0  0  0  0  0  0  0  0
  187.0530  177.2300  142.5660 C   0  0  0  0  0  0  0  0  0  0  0  0
  185.8240  177.4800  143.2550 N   0  0  0  0  0  2  0  0  0  0  0  0
  187.8360  178.1750  142.2750 O   0  0  0  0  0  0  0  0  0  0  0  0
  184.3020  179.0390  145.7550 O   0  0  0  0  0  1  0  0  0  0  0  0
  184.0620  178.8790  144.3920 C   0  0  0  0  0  2  0  0  0  0  0  0
  1 18  1  0  0  0  0
  1 20  2  0  0  0  0
  2  6  1  0  0  0  0
  3 15  1  0  0  0  0
  4 18  1  0  0  0  0
  5  2  1  1  0  0  0
  5 17  1  0  0  0  0
  6  4  2  0  0  0  0
  7  3  1  6  0  0  0
  7  5  1  0  0  0  0
  8  4  1  0  0  0  0
  9  6  1  0  0  0  0
  9 13  1  0  0  0  0
 10  1  2  0  0  0  0
 11 16  1  0  0  0  0
 12  8  2  0  0  0  0
 13  1  1  0  0  0  0
 14 33  1  1  0  0  0
 14 21  1  0  0  0  0
 15 14  1  0  0  0  0
 16  2  2  0  0  0  0
 16 12  1  0  0  0  0
 17  9  1  0  0  0  0
 17 22  1  1  0  0  0
 19 23  1  0  0  0  0
 19  7  1  0  0  0  0
 21 22  1  0  0  0  0
 23 11  1  0  0  0  0
 24 25  1  0  0  0  0
 25 19  1  0  0  0  0
 26 25  2  0  0  0  0
 27 29  1  0  0  0  0
 28 29  2  0  0  0  0
 28 30  1  0  0  0  0
 29 26  1  0  0  0  0
 30 24  2  0  0  0  0
 31 32  2  0  0  0  0
 32 37  1  0  0  0  0
 33 34  1  0  0  0  0
 34 32  1  0  0  0  0
 35 33  2  0  0  0  0
 37 36  1  0  0  0  0
M  END
>  <MODEL>
9

>  <REMARK>
 VINA RESULT:      -7.5      2.717      7.419
  Name = 
  3 active torsions:
  status: ('A' for Active; 'I' for Inactive)
    1  A    between atoms: C_4  and  C_37
    2  A    between atoms: C_8  and  C_18
    3  A    between atoms: N_23  and  C_30
                            x       y       z     vdW  Elec       q    Type
                         _______ _______ _______ _____ _____    ______ ____

>  <TORSDO>
F 3

$$$$
