=
 OpenBabel11112416273D

 32 37  0  0  1  0  0  0  0  0999 V2000
  190.2620  175.0710  143.5530 C   0  0  2  0  0  3  0  0  0  0  0  0
  193.8440  176.9030  145.3940 C   0  0  0  0  0  3  0  0  0  0  0  0
  194.3030  175.7410  146.2490 C   0  0  0  0  0  2  0  0  0  0  0  0
  190.2180  172.5790  142.7820 C   0  0  0  0  0  0  0  0  0  0  0  0
  190.9550  171.3260  142.8720 C   0  0  0  0  0  0  0  0  0  0  0  0
  187.9810  175.8840  143.6630 O   0  0  0  0  0  0  0  0  0  0  0  0
  189.7590  177.2070  144.6610 C   0  0  0  0  0  2  0  0  0  0  0  0
  192.4850  169.9420  143.5270 C   0  0  0  0  0  0  0  0  0  0  0  0
  192.5610  176.9590  144.9980 C   0  0  0  0  0  3  0  0  0  0  0  0
  190.2920  175.8440  144.8120 N   0  0  2  0  0  0  0  0  0  0  0  0
  191.6260  175.8500  145.4480 C   0  0  1  0  0  3  0  0  0  0  0  0
  191.7480  173.3670  144.6720 C   0  0  0  0  0  0  0  0  0  0  0  0
  191.8260  169.3930  142.4810 N   0  0  0  0  0  0  0  0  0  0  0  0
  188.4080  177.1980  143.9290 C   0  0  2  0  0  3  0  0  0  0  0  0
  190.8870  170.2440  142.0740 N   0  0  0  0  0  0  0  0  0  0  0  0
  193.6340  174.4780  145.7720 C   0  0  0  0  0  3  0  0  0  0  0  0
  192.3440  174.5110  145.3930 C   0  0  0  0  0  0  0  0  0  0  0  0
  192.3890  172.2250  144.6310 N   0  0  0  0  0  0  0  0  0  0  0  0
  188.9430  175.3370  142.8010 C   0  0  0  0  0  2  0  0  0  0  0  0
  189.3790  172.7600  141.8610 O   0  0  0  0  0  0  0  0  0  0  0  0
  193.6600  169.3290  144.2020 C   0  0  0  0  0  1  0  0  0  0  0  0
  190.4240  173.5820  143.9160 C   0  0  1  0  0  3  0  0  0  0  0  0
  191.9280  171.1650  143.7940 C   0  0  1  0  0  3  0  0  0  0  0  0
  186.2880  178.6600  143.9690 C   0  0  2  0  0  3  0  0  0  0  0  0
  187.3610  177.9180  144.7750 C   0  0  1  0  0  3  0  0  0  0  0  0
  186.0010  177.2900  144.5520 C   0  0  1  0  0  3  0  0  0  0  0  0
  186.4750  178.5450  142.5310 N   0  0  0  0  0  2  0  0  0  0  0  0
  184.9010  178.1400  141.8440 S   0  0  0  0  0  1  0  0  0  0  0  0
  185.1650  177.4450  145.8120 C   0  0  0  0  0  2  0  0  0  0  0  0
  185.9900  177.5230  147.0670 C   0  0  0  0  0  0  0  0  0  0  0  0
  186.1860  178.8010  147.8190 C   0  0  0  0  0  1  0  0  0  0  0  0
  186.5180  176.5070  147.4870 O   0  0  0  0  0  0  0  0  0  0  0  0
  1 19  1  1  0  0  0
  1 22  1  0  0  0  0
  1 10  1  0  0  0  0
  2  3  1  0  0  0  0
  4  5  1  0  0  0  0
  6 14  1  0  0  0  0
  8 23  1  0  0  0  0
  8 21  1  0  0  0  0
  9  2  2  0  0  0  0
 10  7  1  6  0  0  0
 10 11  1  0  0  0  0
 11  9  1  6  0  0  0
 12 17  1  0  0  0  0
 13  8  2  0  0  0  0
 14  7  1  1  0  0  0
 15 13  1  0  0  0  0
 15  5  2  0  0  0  0
 16  3  1  0  0  0  0
 17 11  1  0  0  0  0
 17 16  2  0  0  0  0
 18 12  2  0  0  0  0
 19  6  1  0  0  0  0
 20  4  2  0  0  0  0
 22  4  1  6  0  0  0
 22 12  1  0  0  0  0
 23  5  1  6  0  0  0
 23 18  1  0  0  0  0
 24 27  1  6  0  0  0
 24 26  1  0  0  0  0
 24 25  1  0  0  0  0
 25 14  1  6  0  0  0
 26 25  1  0  0  0  0
 26 29  1  1  0  0  0
 28 27  1  0  0  0  0
 29 30  1  0  0  0  0
 30 32  2  0  0  0  0
 30 31  1  0  0  0  0
M  END
>  <MODEL>
1

>  <REMARK>
 VINA RESULT:      -7.9      0.000      0.000
  Name = 
  4 active torsions:
  status: ('A' for Active; 'I' for Inactive)
    1  A    between atoms: C_1  and  N_16
    2  A    between atoms: C_10  and  C_17
    3  A    between atoms: C_20  and  C_29
    4  A    between atoms: C_29  and  C_30
                            x       y       z     vdW  Elec       q    Type
                         _______ _______ _______ _____ _____    ______ ____

>  <TORSDO>
F 4

$$$$
=
 OpenBabel11112416273D

 32 37  0  0  1  0  0  0  0  0999 V2000
  189.1170  175.8880  143.8190 C   0  0  2  0  0  3  0  0  0  0  0  0
  186.6930  176.8240  147.4000 C   0  0  0  0  0  3  0  0  0  0  0  0
  185.9980  178.0750  146.9070 C   0  0  0  0  0  2  0  0  0  0  0  0
  188.1920  176.1900  141.3980 C   0  0  0  0  0  0  0  0  0  0  0  0
  187.0940  176.7780  140.6440 C   0  0  0  0  0  0  0  0  0  0  0  0
  191.5280  175.6640  143.7010 O   0  0  0  0  0  0  0  0  0  0  0  0
  190.4780  176.0390  145.8600 C   0  0  0  0  0  2  0  0  0  0  0  0
  185.2990  177.9330  140.2860 C   0  0  0  0  0  0  0  0  0  0  0  0
  187.8440  176.4420  146.8200 C   0  0  0  0  0  3  0  0  0  0  0  0
  189.5410  176.7270  144.9590 N   0  0  2  0  0  0  0  0  0  0  0  0
  188.3990  177.3030  145.7000 C   0  0  1  0  0  3  0  0  0  0  0  0
  187.3230  177.5980  143.3470 C   0  0  0  0  0  0  0  0  0  0  0  0
  185.5670  177.2000  139.1810 N   0  0  0  0  0  0  0  0  0  0  0  0
  191.6200  175.3750  145.0740 C   0  0  2  0  0  3  0  0  0  0  0  0
  186.6680  176.4850  139.4010 N   0  0  0  0  0  0  0  0  0  0  0  0
  186.1160  178.1510  145.4060 C   0  0  0  0  0  3  0  0  0  0  0  0
  187.2680  177.7930  144.8110 C   0  0  0  0  0  0  0  0  0  0  0  0
  186.3320  178.0200  142.6020 N   0  0  0  0  0  0  0  0  0  0  0  0
  190.3200  175.0950  143.2700 C   0  0  0  0  0  2  0  0  0  0  0  0
  188.8950  175.2760  140.8930 O   0  0  0  0  0  0  0  0  0  0  0  0
  184.1000  178.7960  140.4570 C   0  0  0  0  0  1  0  0  0  0  0  0
  188.5120  176.8220  142.7520 C   0  0  1  0  0  3  0  0  0  0  0  0
  186.2730  177.6850  141.2170 C   0  0  1  0  0  3  0  0  0  0  0  0
  193.9540  174.7420  145.9610 C   0  0  2  0  0  3  0  0  0  0  0  0
  192.9630  175.8590  145.6130 C   0  0  1  0  0  3  0  0  0  0  0  0
  194.0680  175.4880  144.6460 C   0  0  1  0  0  3  0  0  0  0  0  0
  193.4180  173.4110  145.7170 N   0  0  0  0  0  2  0  0  0  0  0  0
  194.7910  172.3720  145.3350 S   0  0  0  0  0  1  0  0  0  0  0  0
  195.1870  176.5130  144.7460 C   0  0  0  0  0  2  0  0  0  0  0  0
  196.2720  176.3100  143.7250 C   0  0  0  0  0  0  0  0  0  0  0  0
  196.5020  174.9940  143.0520 C   0  0  0  0  0  1  0  0  0  0  0  0
  196.9900  177.2520  143.4350 O   0  0  0  0  0  0  0  0  0  0  0  0
  1 19  1  6  0  0  0
  1 10  1  0  0  0  0
  3  2  1  0  0  0  0
  5 23  1  0  0  0  0
  5  4  1  0  0  0  0
  6 14  1  0  0  0  0
  8 21  1  0  0  0  0
  9  2  2  0  0  0  0
 10 11  1  0  0  0  0
 10  7  1  1  0  0  0
 11  9  1  1  0  0  0
 12 17  1  0  0  0  0
 13 15  1  0  0  0  0
 13  8  2  0  0  0  0
 14  7  1  1  0  0  0
 15  5  2  0  0  0  0
 16  3  1  0  0  0  0
 17 16  2  0  0  0  0
 17 11  1  0  0  0  0
 18 12  2  0  0  0  0
 19  6  1  0  0  0  0
 20  4  2  0  0  0  0
 22  4  1  6  0  0  0
 22 12  1  0  0  0  0
 22  1  1  0  0  0  0
 23  8  1  1  0  0  0
 23 18  1  0  0  0  0
 24 27  1  6  0  0  0
 25 14  1  6  0  0  0
 25 24  1  0  0  0  0
 26 29  1  1  0  0  0
 26 25  1  0  0  0  0
 26 24  1  0  0  0  0
 28 27  1  0  0  0  0
 30 29  1  0  0  0  0
 31 30  1  0  0  0  0
 32 30  2  0  0  0  0
M  END
>  <MODEL>
2

>  <REMARK>
 VINA RESULT:      -7.9      3.509      7.898
  Name = 
  4 active torsions:
  status: ('A' for Active; 'I' for Inactive)
    1  A    between atoms: C_1  and  N_16
    2  A    between atoms: C_10  and  C_17
    3  A    between atoms: C_20  and  C_29
    4  A    between atoms: C_29  and  C_30
                            x       y       z     vdW  Elec       q    Type
                         _______ _______ _______ _____ _____    ______ ____

>  <TORSDO>
F 4

$$$$
=
 OpenBabel11112416273D

 32 37  0  0  1  0  0  0  0  0999 V2000
  190.5120  175.4330  143.9920 C   0  0  2  0  0  3  0  0  0  0  0  0
  189.8230  171.9530  141.3490 C   0  0  0  0  0  3  0  0  0  0  0  0
  190.7930  172.2920  140.2380 C   0  0  0  0  0  2  0  0  0  0  0  0
  192.8900  176.4340  144.3790 C   0  0  0  0  0  0  0  0  0  0  0  0
  194.2570  176.3980  143.8780 C   0  0  0  0  0  0  0  0  0  0  0  0
  188.8660  177.0420  144.7540 O   0  0  0  0  0  0  0  0  0  0  0  0
  188.1390  175.1440  143.4210 C   0  0  0  0  0  2  0  0  0  0  0  0
  195.9000  175.8730  142.5700 C   0  0  0  0  0  0  0  0  0  0  0  0
  189.3730  172.9350  142.1490 C   0  0  0  0  0  3  0  0  0  0  0  0
  189.5040  175.3480  142.9140 N   0  0  2  0  0  0  0  0  0  0  0  0
  189.8550  174.3500  141.8830 C   0  0  1  0  0  3  0  0  0  0  0  0
  192.2930  175.2030  142.2200 C   0  0  0  0  0  0  0  0  0  0  0  0
  196.4040  176.4460  143.6870 N   0  0  0  0  0  0  0  0  0  0  0  0
  187.8100  176.1360  144.5480 C   0  0  2  0  0  3  0  0  0  0  0  0
  195.3960  176.7650  144.4950 N   0  0  0  0  0  2  0  0  0  0  0  0
  191.7660  173.3330  140.7270 C   0  0  0  0  0  3  0  0  0  0  0  0
  191.3290  174.3350  141.5100 C   0  0  0  0  0  0  0  0  0  0  0  0
  193.5600  175.1670  141.8890 N   0  0  0  0  0  0  0  0  0  0  0  0
  189.9600  176.2670  145.1670 C   0  0  0  0  0  2  0  0  0  0  0  0
  192.6490  176.8550  145.5410 O   0  0  0  0  0  0  0  0  0  0  0  0
  196.7200  175.3050  141.4670 C   0  0  0  0  0  1  0  0  0  0  0  0
  191.7850  176.0620  143.3920 C   0  0  1  0  0  3  0  0  0  0  0  0
  194.5340  175.8520  142.6740 C   0  0  0  0  0  0  0  0  0  0  0  0
  185.6660  177.2730  145.4110 C   0  0  2  0  0  3  0  0  0  0  0  0
  186.5350  176.9000  144.2040 C   0  0  1  0  0  3  0  0  0  0  0  0
  186.5990  178.2950  144.7910 C   0  0  1  0  0  3  0  0  0  0  0  0
  186.2220  176.8150  146.6750 N   0  0  0  0  0  2  0  0  0  0  0  0
  186.3320  178.2280  147.7250 S   0  0  0  0  0  1  0  0  0  0  0  0
  185.7940  179.2440  143.9170 C   0  0  0  0  0  2  0  0  0  0  0  0
  185.5400  178.7090  142.5350 C   0  0  0  0  0  0  0  0  0  0  0  0
  184.1860  178.2570  142.0880 C   0  0  0  0  0  1  0  0  0  0  0  0
  186.4720  178.6410  141.7510 O   0  0  0  0  0  0  0  0  0  0  0  0
  1 19  1  1  0  0  0
  2  9  2  0  0  0  0
  3 16  1  0  0  0  0
  3  2  1  0  0  0  0
  4 20  2  0  0  0  0
  5  4  1  0  0  0  0
  5 15  1  0  0  0  0
  6 19  1  0  0  0  0
  8 23  1  0  0  0  0
  8 13  2  0  0  0  0
 10  7  1  1  0  0  0
 10  1  1  0  0  0  0
 11  9  1  1  0  0  0
 11 10  1  0  0  0  0
 13 15  1  0  0  0  0
 14  7  1  6  0  0  0
 14  6  1  0  0  0  0
 16 17  2  0  0  0  0
 17 11  1  0  0  0  0
 17 12  1  0  0  0  0
 18 12  2  0  0  0  0
 18 23  1  0  0  0  0
 21  8  1  0  0  0  0
 22 12  1  6  0  0  0
 22  1  1  0  0  0  0
 22  4  1  0  0  0  0
 23  5  2  0  0  0  0
 24 27  1  1  0  0  0
 25 14  1  1  0  0  0
 25 26  1  0  0  0  0
 25 24  1  0  0  0  0
 26 29  1  6  0  0  0
 26 24  1  0  0  0  0
 27 28  1  0  0  0  0
 30 29  1  0  0  0  0
 31 30  1  0  0  0  0
 32 30  2  0  0  0  0
M  END
>  <MODEL>
3

>  <REMARK>
 VINA RESULT:      -7.4      3.062      5.065
  Name = 
  4 active torsions:
  status: ('A' for Active; 'I' for Inactive)
    1  A    between atoms: C_1  and  N_16
    2  A    between atoms: C_10  and  C_17
    3  A    between atoms: C_20  and  C_29
    4  A    between atoms: C_29  and  C_30
                            x       y       z     vdW  Elec       q    Type
                         _______ _______ _______ _____ _____    ______ ____

>  <TORSDO>
F 4

$$$$
=
 OpenBabel11112416273D

 32 37  0  0  1  0  0  0  0  0999 V2000
  190.7530  175.3560  143.3720 C   0  0  2  0  0  3  0  0  0  0  0  0
  191.3830  175.6120  147.7440 C   0  0  0  0  0  3  0  0  0  0  0  0
  190.8130  176.9910  147.9950 C   0  0  0  0  0  2  0  0  0  0  0  0
  188.6020  176.2820  142.2230 C   0  0  0  0  0  0  0  0  0  0  0  0
  187.4270  177.1110  142.4600 C   0  0  0  0  0  0  0  0  0  0  0  0
  192.4380  174.9860  141.6690 O   0  0  0  0  0  0  0  0  0  0  0  0
  193.0870  174.9250  144.0110 C   0  0  0  0  0  2  0  0  0  0  0  0
  186.0990  178.4490  143.5230 C   0  0  0  0  0  0  0  0  0  0  0  0
  191.8010  175.2890  146.5080 C   0  0  0  0  0  3  0  0  0  0  0  0
  191.9620  175.8720  144.0460 N   0  0  2  0  0  0  0  0  0  0  0  0
  191.6930  176.3440  145.4210 C   0  0  1  0  0  3  0  0  0  0  0  0
  189.4690  177.2580  144.4200 C   0  0  0  0  0  0  0  0  0  0  0  0
  185.4520  177.9750  142.4330 N   0  0  0  0  0  0  0  0  0  0  0  0
  193.3090  174.3790  142.5910 C   0  0  2  0  0  3  0  0  0  0  0  0
  186.2660  177.1480  141.7810 N   0  0  0  0  0  0  0  0  0  0  0  0
  189.9750  177.4050  146.8130 C   0  0  0  0  0  3  0  0  0  0  0  0
  190.3890  177.1110  145.5680 C   0  0  0  0  0  0  0  0  0  0  0  0
  188.3470  177.9160  144.5730 N   0  0  0  0  0  0  0  0  0  0  0  0
  191.1430  174.6250  142.0720 C   0  0  0  0  0  2  0  0  0  0  0  0
  188.6200  175.4610  141.2690 O   0  0  0  0  0  0  0  0  0  0  0  0
  185.4880  179.3360  144.5490 C   0  0  0  0  0  1  0  0  0  0  0  0
  189.8240  176.5550  143.0970 C   0  0  1  0  0  3  0  0  0  0  0  0
  187.3620  177.9180  143.5410 C   0  0  1  0  0  3  0  0  0  0  0  0
  195.4310  173.4290  141.4820 C   0  0  2  0  0  3  0  0  0  0  0  0
  194.7560  174.6220  142.1690 C   0  0  1  0  0  3  0  0  0  0  0  0
  194.8650  174.5700  140.6590 C   0  0  1  0  0  3  0  0  0  0  0  0
  194.5580  172.2700  141.3670 N   0  0  0  0  0  2  0  0  0  0  0  0
  194.5800  171.7840  139.6710 S   0  0  0  0  0  1  0  0  0  0  0  0
  196.0000  175.4750  140.2080 C   0  0  0  0  0  2  0  0  0  0  0  0
  196.4880  175.1680  138.8190 C   0  0  0  0  0  0  0  0  0  0  0  0
  197.9370  175.2180  138.4500 C   0  0  0  0  0  1  0  0  0  0  0  0
  195.6730  174.8690  137.9630 O   0  0  0  0  0  0  0  0  0  0  0  0
  1 19  1  6  0  0  0
  1 10  1  0  0  0  0
  2  3  1  0  0  0  0
  4  5  1  0  0  0  0
  6 19  1  0  0  0  0
  6 14  1  0  0  0  0
  8 23  1  0  0  0  0
  8 21  1  0  0  0  0
  9  2  2  0  0  0  0
 10  7  1  1  0  0  0
 10 11  1  0  0  0  0
 11 17  1  0  0  0  0
 11  9  1  1  0  0  0
 12 18  2  0  0  0  0
 12 17  1  0  0  0  0
 13  8  2  0  0  0  0
 14  7  1  1  0  0  0
 15 13  1  0  0  0  0
 15  5  2  0  0  0  0
 16  3  1  0  0  0  0
 17 16  2  0  0  0  0
 20  4  2  0  0  0  0
 22  4  1  1  0  0  0
 22  1  1  0  0  0  0
 22 12  1  0  0  0  0
 23  5  1  1  0  0  0
 23 18  1  0  0  0  0
 24 27  1  6  0  0  0
 24 25  1  0  0  0  0
 25 14  1  6  0  0  0
 26 29  1  1  0  0  0
 26 24  1  0  0  0  0
 26 25  1  0  0  0  0
 28 27  1  0  0  0  0
 30 29  1  0  0  0  0
 31 30  1  0  0  0  0
 32 30  2  0  0  0  0
M  END
>  <MODEL>
4

>  <REMARK>
 VINA RESULT:      -7.2      4.008      8.144
  Name = 
  4 active torsions:
  status: ('A' for Active; 'I' for Inactive)
    1  A    between atoms: C_1  and  N_16
    2  A    between atoms: C_10  and  C_17
    3  A    between atoms: C_20  and  C_29
    4  A    between atoms: C_29  and  C_30
                            x       y       z     vdW  Elec       q    Type
                         _______ _______ _______ _____ _____    ______ ____

>  <TORSDO>
F 4

$$$$
=
 OpenBabel11112416273D

 32 37  0  0  1  0  0  0  0  0999 V2000
  192.3520  174.2160  143.2750 C   0  0  2  0  0  3  0  0  0  0  0  0
  195.6230  176.5730  141.4540 C   0  0  0  0  0  3  0  0  0  0  0  0
  196.7090  176.3180  142.4760 C   0  0  0  0  0  2  0  0  0  0  0  0
  192.7720  171.9090  144.4180 C   0  0  0  0  0  0  0  0  0  0  0  0
  193.8290  171.0340  144.9060 C   0  0  0  0  0  0  0  0  0  0  0  0
  190.1640  175.0200  143.9430 O   0  0  0  0  0  0  0  0  0  0  0  0
  191.6950  176.5420  142.8270 C   0  0  0  0  0  2  0  0  0  0  0  0
  195.8360  170.4110  145.4250 C   0  0  0  0  0  0  0  0  0  0  0  0
  194.3360  176.4190  141.8110 C   0  0  0  0  0  3  0  0  0  0  0  0
  192.6320  175.6460  143.5210 N   0  0  2  0  0  0  0  0  0  0  0  0
  194.0380  176.0080  143.2420 C   0  0  1  0  0  3  0  0  0  0  0  0
  194.5980  173.6940  144.2960 C   0  0  0  0  0  0  0  0  0  0  0  0
  195.0230  169.3310  145.4730 N   0  0  0  0  0  0  0  0  0  0  0  0
  190.2380  176.1110  143.0580 C   0  0  2  0  0  3  0  0  0  0  0  0
  193.7890  169.7110  145.1500 N   0  0  0  0  0  2  0  0  0  0  0  0
  196.3270  175.1300  143.3220 C   0  0  0  0  0  3  0  0  0  0  0  0
  195.0490  174.9720  143.7070 C   0  0  0  0  0  0  0  0  0  0  0  0
  195.4870  172.8120  144.6820 N   0  0  0  0  0  0  0  0  0  0  0  0
  190.8300  173.9630  143.3040 C   0  0  0  0  0  2  0  0  0  0  0  0
  191.6290  171.4460  144.1650 O   0  0  0  0  0  0  0  0  0  0  0  0
  197.3070  170.3720  145.6410 C   0  0  0  0  0  1  0  0  0  0  0  0
  193.0880  173.4030  144.3570 C   0  0  1  0  0  3  0  0  0  0  0  0
  195.0840  171.5030  145.0820 C   0  0  0  0  0  0  0  0  0  0  0  0
  188.2570  177.7270  142.7490 C   0  0  2  0  0  3  0  0  0  0  0  0
  189.4390  177.2840  143.6190 C   0  0  1  0  0  3  0  0  0  0  0  0
  188.0320  176.8330  143.9530 C   0  0  1  0  0  3  0  0  0  0  0  0
  188.1210  176.9410  141.5310 N   0  0  0  0  0  2  0  0  0  0  0  0
  186.7290  177.5880  140.6610 S   0  0  0  0  0  1  0  0  0  0  0  0
  187.4980  177.6680  145.1060 C   0  0  0  0  0  2  0  0  0  0  0  0
  186.9480  176.8410  146.2340 C   0  0  0  0  0  0  0  0  0  0  0  0
  185.5460  176.9970  146.7320 C   0  0  0  0  0  1  0  0  0  0  0  0
  187.6710  176.0130  146.7630 O   0  0  0  0  0  0  0  0  0  0  0  0
  1 19  1  1  0  0  0
  1 10  1  0  0  0  0
  1 22  1  0  0  0  0
  2  9  2  0  0  0  0
  2  3  1  0  0  0  0
  3 16  1  0  0  0  0
  4  5  1  0  0  0  0
  5 23  2  0  0  0  0
  5 15  1  0  0  0  0
  8 13  2  0  0  0  0
  8 21  1  0  0  0  0
 10  7  1  6  0  0  0
 11  9  1  6  0  0  0
 11 10  1  0  0  0  0
 11 17  1  0  0  0  0
 12 18  2  0  0  0  0
 14  7  1  1  0  0  0
 14  6  1  0  0  0  0
 15 13  1  0  0  0  0
 16 17  2  0  0  0  0
 17 12  1  0  0  0  0
 18 23  1  0  0  0  0
 19  6  1  0  0  0  0
 20  4  2  0  0  0  0
 22 12  1  6  0  0  0
 22  4  1  0  0  0  0
 23  8  1  0  0  0  0
 24 27  1  6  0  0  0
 24 25  1  0  0  0  0
 24 26  1  0  0  0  0
 25 14  1  6  0  0  0
 25 26  1  0  0  0  0
 26 29  1  1  0  0  0
 28 27  1  0  0  0  0
 29 30  1  0  0  0  0
 30 31  1  0  0  0  0
 30 32  2  0  0  0  0
M  END
>  <MODEL>
5

>  <REMARK>
 VINA RESULT:      -7.1      2.530      3.101
  Name = 
  4 active torsions:
  status: ('A' for Active; 'I' for Inactive)
    1  A    between atoms: C_1  and  N_16
    2  A    between atoms: C_10  and  C_17
    3  A    between atoms: C_20  and  C_29
    4  A    between atoms: C_29  and  C_30
                            x       y       z     vdW  Elec       q    Type
                         _______ _______ _______ _____ _____    ______ ____

>  <TORSDO>
F 4

$$$$
=
 OpenBabel11112416273D

 32 37  0  0  1  0  0  0  0  0999 V2000
  190.5510  175.1580  143.3780 C   0  0  2  0  0  3  0  0  0  0  0  0
  190.9070  175.6930  147.7560 C   0  0  0  0  0  3  0  0  0  0  0  0
  190.4370  177.1270  147.8680 C   0  0  0  0  0  2  0  0  0  0  0  0
  188.5650  176.1590  142.0140 C   0  0  0  0  0  0  0  0  0  0  0  0
  187.4500  177.0910  142.1070 C   0  0  0  0  0  0  0  0  0  0  0  0
  192.3100  174.5310  141.8320 O   0  0  0  0  0  0  0  0  0  0  0  0
  192.7930  174.5960  144.2130 C   0  0  0  0  0  2  0  0  0  0  0  0
  186.1690  178.6040  142.9740 C   0  0  0  0  0  0  0  0  0  0  0  0
  191.3780  175.2470  146.5790 C   0  0  0  0  0  3  0  0  0  0  0  0
  191.7510  175.6280  144.1000 N   0  0  2  0  0  0  0  0  0  0  0  0
  191.4310  176.2210  145.4160 C   0  0  1  0  0  3  0  0  0  0  0  0
  189.3620  177.2280  144.1950 C   0  0  0  0  0  0  0  0  0  0  0  0
  185.5590  178.1010  141.8760 N   0  0  0  0  0  0  0  0  0  0  0  0
  193.0650  173.9290  142.8550 C   0  0  2  0  0  3  0  0  0  0  0  0
  186.3440  177.1680  141.3440 N   0  0  0  0  0  0  0  0  0  0  0  0
  189.7170  177.5150  146.6020 C   0  0  0  0  0  3  0  0  0  0  0  0
  190.1870  177.0960  145.4140 C   0  0  0  0  0  0  0  0  0  0  0  0
  188.2900  177.9800  144.2200 N   0  0  0  0  0  0  0  0  0  0  0  0
  190.9660  174.3030  142.1640 C   0  0  0  0  0  2  0  0  0  0  0  0
  188.5790  175.2700  141.1230 O   0  0  0  0  0  0  0  0  0  0  0  0
  185.5660  179.6110  143.8890 C   0  0  0  0  0  1  0  0  0  0  0  0
  189.7450  176.4010  142.9540 C   0  0  1  0  0  3  0  0  0  0  0  0
  187.3790  177.9800  143.1210 C   0  0  1  0  0  3  0  0  0  0  0  0
  195.1040  172.8510  141.7090 C   0  0  2  0  0  3  0  0  0  0  0  0
  194.5510  174.0270  142.5230 C   0  0  1  0  0  3  0  0  0  0  0  0
  194.7350  174.1540  141.0250 C   0  0  1  0  0  3  0  0  0  0  0  0
  194.0970  171.8450  141.4080 N   0  0  0  0  0  2  0  0  0  0  0  0
  194.7010  170.3140  142.0420 S   0  0  0  0  0  1  0  0  0  0  0  0
  196.0000  174.9470  140.7400 C   0  0  0  0  0  2  0  0  0  0  0  0
  196.0680  176.2470  141.4920 C   0  0  0  0  0  0  0  0  0  0  0  0
  197.1190  176.5250  142.5190 C   0  0  0  0  0  1  0  0  0  0  0  0
  195.2360  177.1070  141.2550 O   0  0  0  0  0  0  0  0  0  0  0  0
  1 19  1  6  0  0  0
  1 10  1  0  0  0  0
  2  3  1  0  0  0  0
  4  5  1  0  0  0  0
  6 19  1  0  0  0  0
  6 14  1  0  0  0  0
  8 23  1  0  0  0  0
  8 21  1  0  0  0  0
  9  2  2  0  0  0  0
 10  7  1  1  0  0  0
 10 11  1  0  0  0  0
 11  9  1  1  0  0  0
 12 18  2  0  0  0  0
 12 17  1  0  0  0  0
 13  8  2  0  0  0  0
 14  7  1  1  0  0  0
 15 13  1  0  0  0  0
 15  5  2  0  0  0  0
 16  3  1  0  0  0  0
 17 11  1  0  0  0  0
 17 16  2  0  0  0  0
 20  4  2  0  0  0  0
 22  4  1  1  0  0  0
 22  1  1  0  0  0  0
 22 12  1  0  0  0  0
 23  5  1  1  0  0  0
 23 18  1  0  0  0  0
 24 27  1  6  0  0  0
 24 25  1  0  0  0  0
 25 14  1  6  0  0  0
 26 29  1  1  0  0  0
 26 24  1  0  0  0  0
 26 25  1  0  0  0  0
 27 28  1  0  0  0  0
 29 30  1  0  0  0  0
 30 31  1  0  0  0  0
 32 30  2  0  0  0  0
M  END
>  <MODEL>
6

>  <REMARK>
 VINA RESULT:      -7.1      3.630      7.806
  Name = 
  4 active torsions:
  status: ('A' for Active; 'I' for Inactive)
    1  A    between atoms: C_1  and  N_16
    2  A    between atoms: C_10  and  C_17
    3  A    between atoms: C_20  and  C_29
    4  A    between atoms: C_29  and  C_30
                            x       y       z     vdW  Elec       q    Type
                         _______ _______ _______ _____ _____    ______ ____

>  <TORSDO>
F 4

$$$$
=
 OpenBabel11112416273D

 32 37  0  0  1  0  0  0  0  0999 V2000
  190.0600  175.1380  143.5210 C   0  0  2  0  0  3  0  0  0  0  0  0
  191.5650  175.3790  147.6740 C   0  0  0  0  0  3  0  0  0  0  0  0
  191.1300  176.7880  148.0130 C   0  0  0  0  0  2  0  0  0  0  0  0
  187.7750  176.1750  142.8100 C   0  0  0  0  0  0  0  0  0  0  0  0
  186.7160  177.0670  143.2640 C   0  0  0  0  0  0  0  0  0  0  0  0
  191.3490  174.6690  141.5210 O   0  0  0  0  0  0  0  0  0  0  0  0
  192.4490  174.5830  143.6870 C   0  0  0  0  0  2  0  0  0  0  0  0
  185.6990  178.4800  144.5500 C   0  0  0  0  0  0  0  0  0  0  0  0
  191.7100  175.0280  146.3850 C   0  0  0  0  0  3  0  0  0  0  0  0
  191.4060  175.5910  143.9320 N   0  0  2  0  0  0  0  0  0  0  0  0
  191.4420  176.0820  145.3250 C   0  0  1  0  0  3  0  0  0  0  0  0
  189.1140  177.1120  144.7740 C   0  0  0  0  0  0  0  0  0  0  0  0
  184.8240  178.0370  143.6180 N   0  0  0  0  0  0  0  0  0  0  0  0
  192.3550  174.0200  142.2600 C   0  0  2  0  0  3  0  0  0  0  0  0
  185.4460  177.1640  142.8290 N   0  0  0  0  0  0  0  0  0  0  0  0
  190.0950  177.2420  147.0160 C   0  0  0  0  0  3  0  0  0  0  0  0
  190.2360  176.9200  145.7180 C   0  0  0  0  0  0  0  0  0  0  0  0
  188.0810  177.8310  145.1380 N   0  0  0  0  0  0  0  0  0  0  0  0
  190.1440  174.3800  142.1800 C   0  0  0  0  0  2  0  0  0  0  0  0
  187.5580  175.3500  141.8840 O   0  0  0  0  0  0  0  0  0  0  0  0
  185.3540  179.4030  145.6630 C   0  0  0  0  0  1  0  0  0  0  0  0
  189.1600  176.3850  143.4190 C   0  0  1  0  0  3  0  0  0  0  0  0
  186.9110  177.8810  144.3240 C   0  0  1  0  0  3  0  0  0  0  0  0
  194.1220  172.9800  140.7020 C   0  0  2  0  0  3  0  0  0  0  0  0
  193.6980  174.1820  141.5540 C   0  0  1  0  0  3  0  0  0  0  0  0
  193.4910  174.1970  140.0540 C   0  0  1  0  0  3  0  0  0  0  0  0
  193.1560  171.8920  140.7320 N   0  0  0  0  0  2  0  0  0  0  0  0
  192.5480  171.7060  139.0870 S   0  0  0  0  0  1  0  0  0  0  0  0
  194.5760  175.0420  139.4060 C   0  0  0  0  0  2  0  0  0  0  0  0
  194.6140  174.9140  137.9090 C   0  0  0  0  0  0  0  0  0  0  0  0
  193.4550  175.2950  137.0430 C   0  0  0  0  0  1  0  0  0  0  0  0
  195.6270  174.4850  137.3810 O   0  0  0  0  0  0  0  0  0  0  0  0
  1 19  1  6  0  0  0
  1 10  1  0  0  0  0
  2  3  1  0  0  0  0
  4  5  1  0  0  0  0
  6 19  1  0  0  0  0
  6 14  1  0  0  0  0
  8 21  1  0  0  0  0
  9  2  2  0  0  0  0
 10  7  1  1  0  0  0
 10 11  1  0  0  0  0
 11 17  1  0  0  0  0
 11  9  1  1  0  0  0
 12 18  2  0  0  0  0
 12 17  1  0  0  0  0
 13  8  2  0  0  0  0
 14  7  1  1  0  0  0
 15  5  2  0  0  0  0
 15 13  1  0  0  0  0
 16  3  1  0  0  0  0
 17 16  2  0  0  0  0
 20  4  2  0  0  0  0
 22  4  1  1  0  0  0
 22  1  1  0  0  0  0
 22 12  1  0  0  0  0
 23  5  1  1  0  0  0
 23  8  1  0  0  0  0
 23 18  1  0  0  0  0
 24 27  1  1  0  0  0
 24 25  1  0  0  0  0
 25 14  1  1  0  0  0
 26 29  1  6  0  0  0
 26 24  1  0  0  0  0
 26 25  1  0  0  0  0
 28 27  1  0  0  0  0
 30 29  1  0  0  0  0
 31 30  1  0  0  0  0
 32 30  2  0  0  0  0
M  END
>  <MODEL>
7

>  <REMARK>
 VINA RESULT:      -7.0      3.713      7.873
  Name = 
  4 active torsions:
  status: ('A' for Active; 'I' for Inactive)
    1  A    between atoms: C_1  and  N_16
    2  A    between atoms: C_10  and  C_17
    3  A    between atoms: C_20  and  C_29
    4  A    between atoms: C_29  and  C_30
                            x       y       z     vdW  Elec       q    Type
                         _______ _______ _______ _____ _____    ______ ____

>  <TORSDO>
F 4

$$$$
=
 OpenBabel11112416273D

 32 37  0  0  1  0  0  0  0  0999 V2000
  187.5960  176.7650  143.7000 C   0  0  2  0  0  3  0  0  0  0  0  0
  185.8980  176.8810  147.7840 C   0  0  0  0  0  3  0  0  0  0  0  0
  184.9560  178.0550  147.6260 C   0  0  0  0  0  2  0  0  0  0  0  0
  186.1400  177.1990  141.5790 C   0  0  0  0  0  0  0  0  0  0  0  0
  184.8380  177.6910  141.1480 C   0  0  0  0  0  0  0  0  0  0  0  0
  189.9330  176.9400  143.0800 O   0  0  0  0  0  0  0  0  0  0  0  0
  189.3320  176.8890  145.4350 C   0  0  0  0  0  2  0  0  0  0  0  0
  182.8740  178.5820  141.3230 C   0  0  0  0  0  0  0  0  0  0  0  0
  186.9370  176.7550  146.9410 C   0  0  0  0  0  3  0  0  0  0  0  0
  188.1420  177.5210  144.8460 N   0  0  2  0  0  0  0  0  0  0  0  0
  187.1220  177.8190  145.8730 C   0  0  1  0  0  3  0  0  0  0  0  0
  185.5360  178.2140  143.8460 C   0  0  0  0  0  0  0  0  0  0  0  0
  182.9910  178.0340  140.0910 N   0  0  0  0  0  0  0  0  0  0  0  0
  190.3550  176.5110  144.3510 C   0  0  2  0  0  3  0  0  0  0  0  0
  184.1970  177.4820  139.9830 N   0  0  0  0  0  0  0  0  0  0  0  0
  184.7380  178.3240  146.1590 C   0  0  0  0  0  3  0  0  0  0  0  0
  185.7710  178.2250  145.3050 C   0  0  0  0  0  0  0  0  0  0  0  0
  184.3610  178.5590  143.3790 N   0  0  0  0  0  0  0  0  0  0  0  0
  188.7450  176.2420  142.8150 C   0  0  0  0  0  2  0  0  0  0  0  0
  186.8310  176.4730  140.8160 O   0  0  0  0  0  0  0  0  0  0  0  0
  181.6380  179.2190  141.8500 C   0  0  0  0  0  1  0  0  0  0  0  0
  186.6590  177.7100  142.9220 C   0  0  1  0  0  3  0  0  0  0  0  0
  184.0490  178.3830  141.9980 C   0  0  1  0  0  3  0  0  0  0  0  0
  192.5080  176.3930  145.7610 C   0  0  2  0  0  3  0  0  0  0  0  0
  191.7080  177.1340  144.6830 C   0  0  1  0  0  3  0  0  0  0  0  0
  192.8200  176.1830  144.2910 C   0  0  1  0  0  3  0  0  0  0  0  0
  191.8150  175.2230  146.2790 N   0  0  0  0  0  2  0  0  0  0  0  0
  191.5690  175.4990  148.0030 S   0  0  0  0  0  1  0  0  0  0  0  0
  194.0580  176.9850  143.9220 C   0  0  0  0  0  2  0  0  0  0  0  0
  195.2790  176.1320  143.7140 C   0  0  0  0  0  0  0  0  0  0  0  0
  195.2090  174.6400  143.6400 C   0  0  0  0  0  1  0  0  0  0  0  0
  196.3640  176.6770  143.6030 O   0  0  0  0  0  0  0  0  0  0  0  0
  1 19  1  6  0  0  0
  1 10  1  0  0  0  0
  3  2  1  0  0  0  0
  5  4  1  0  0  0  0
  6 14  1  0  0  0  0
  8 21  1  0  0  0  0
  8 23  1  0  0  0  0
  9  2  2  0  0  0  0
 10  7  1  1  0  0  0
 10 11  1  0  0  0  0
 11  9  1  6  0  0  0
 12 17  1  0  0  0  0
 13  8  2  0  0  0  0
 14  7  1  1  0  0  0
 15 13  1  0  0  0  0
 15  5  2  0  0  0  0
 16  3  1  0  0  0  0
 17 11  1  0  0  0  0
 17 16  2  0  0  0  0
 18 12  2  0  0  0  0
 19  6  1  0  0  0  0
 20  4  2  0  0  0  0
 22  4  1  6  0  0  0
 22  1  1  0  0  0  0
 22 12  1  0  0  0  0
 23  5  1  1  0  0  0
 23 18  1  0  0  0  0
 24 27  1  6  0  0  0
 25 14  1  6  0  0  0
 25 24  1  0  0  0  0
 26 29  1  1  0  0  0
 26 25  1  0  0  0  0
 26 24  1  0  0  0  0
 27 28  1  0  0  0  0
 30 29  1  0  0  0  0
 31 30  1  0  0  0  0
 32 30  2  0  0  0  0
M  END
>  <MODEL>
8

>  <REMARK>
 VINA RESULT:      -6.8      3.686      8.312
  Name = 
  4 active torsions:
  status: ('A' for Active; 'I' for Inactive)
    1  A    between atoms: C_1  and  N_16
    2  A    between atoms: C_10  and  C_17
    3  A    between atoms: C_20  and  C_29
    4  A    between atoms: C_29  and  C_30
                            x       y       z     vdW  Elec       q    Type
                         _______ _______ _______ _____ _____    ______ ____

>  <TORSDO>
F 4

$$$$
=
 OpenBabel11112416273D

 32 37  0  0  1  0  0  0  0  0999 V2000
  190.0660  175.0570  143.1120 C   0  0  2  0  0  3  0  0  0  0  0  0
  190.8380  175.4530  147.4500 C   0  0  0  0  0  3  0  0  0  0  0  0
  190.4820  176.9130  147.6310 C   0  0  0  0  0  2  0  0  0  0  0  0
  188.0450  176.2250  141.9480 C   0  0  0  0  0  0  0  0  0  0  0  0
  187.0100  177.2290  142.1580 C   0  0  0  0  0  0  0  0  0  0  0  0
  191.6360  174.3510  141.4040 O   0  0  0  0  0  0  0  0  0  0  0  0
  192.3280  174.3230  143.7340 C   0  0  0  0  0  2  0  0  0  0  0  0
  185.9180  178.8030  143.1650 C   0  0  0  0  0  0  0  0  0  0  0  0
  191.1730  175.0070  146.2270 C   0  0  0  0  0  3  0  0  0  0  0  0
  191.3550  175.4250  143.7340 N   0  0  2  0  0  0  0  0  0  0  0  0
  191.1920  176.0050  145.0840 C   0  0  1  0  0  3  0  0  0  0  0  0
  189.1010  177.1810  144.0710 C   0  0  0  0  0  0  0  0  0  0  0  0
  185.1820  178.3710  142.1150 N   0  0  0  0  0  0  0  0  0  0  0  0
  192.4330  173.6740  142.3440 C   0  0  2  0  0  3  0  0  0  0  0  0
  185.8500  177.4000  141.4970 N   0  0  0  0  0  0  0  0  0  0  0  0
  189.6830  177.3810  146.4420 C   0  0  0  0  0  3  0  0  0  0  0  0
  190.0180  176.9620  145.2090 C   0  0  0  0  0  0  0  0  0  0  0  0
  188.0900  178.0040  144.2050 N   0  0  0  0  0  0  0  0  0  0  0  0
  190.3130  174.2070  141.8490 C   0  0  0  0  0  2  0  0  0  0  0  0
  187.9190  175.3600  141.0420 O   0  0  0  0  0  0  0  0  0  0  0  0
  185.4700  179.8240  144.1480 C   0  0  0  0  0  1  0  0  0  0  0  0
  189.3160  176.3630  142.7850 C   0  0  1  0  0  3  0  0  0  0  0  0
  187.0900  178.0940  143.1920 C   0  0  1  0  0  3  0  0  0  0  0  0
  194.3800  172.3470  141.3040 C   0  0  2  0  0  3  0  0  0  0  0  0
  193.8880  173.6780  141.8840 C   0  0  1  0  0  3  0  0  0  0  0  0
  193.9530  173.4750  140.3840 C   0  0  1  0  0  3  0  0  0  0  0  0
  193.3570  171.3120  141.3080 N   0  0  0  0  0  2  0  0  0  0  0  0
  193.6830  170.2700  139.9230 S   0  0  0  0  0  1  0  0  0  0  0  0
  195.1880  174.1720  139.8370 C   0  0  0  0  0  2  0  0  0  0  0  0
  195.7150  173.5430  138.5770 C   0  0  0  0  0  0  0  0  0  0  0  0
  197.1790  173.4440  138.2830 C   0  0  0  0  0  1  0  0  0  0  0  0
  194.9210  173.0990  137.7650 O   0  0  0  0  0  0  0  0  0  0  0  0
  1 19  1  6  0  0  0
  1 10  1  0  0  0  0
  2  3  1  0  0  0  0
  4  5  1  0  0  0  0
  6 19  1  0  0  0  0
  6 14  1  0  0  0  0
  8 23  1  0  0  0  0
  8 21  1  0  0  0  0
  9  2  2  0  0  0  0
 10  7  1  1  0  0  0
 10 11  1  0  0  0  0
 11 17  1  0  0  0  0
 11  9  1  1  0  0  0
 12 18  2  0  0  0  0
 12 17  1  0  0  0  0
 13  8  2  0  0  0  0
 14  7  1  1  0  0  0
 15 13  1  0  0  0  0
 15  5  2  0  0  0  0
 16  3  1  0  0  0  0
 17 16  2  0  0  0  0
 20  4  2  0  0  0  0
 22  4  1  1  0  0  0
 22  1  1  0  0  0  0
 22 12  1  0  0  0  0
 23  5  1  1  0  0  0
 23 18  1  0  0  0  0
 24 27  1  1  0  0  0
 24 25  1  0  0  0  0
 25 14  1  1  0  0  0
 26 29  1  6  0  0  0
 26 24  1  0  0  0  0
 26 25  1  0  0  0  0
 28 27  1  0  0  0  0
 30 29  1  0  0  0  0
 31 30  1  0  0  0  0
 32 30  2  0  0  0  0
M  END
>  <MODEL>
9

>  <REMARK>
 VINA RESULT:      -6.8      3.781      8.205
  Name = 
  4 active torsions:
  status: ('A' for Active; 'I' for Inactive)
    1  A    between atoms: C_1  and  N_16
    2  A    between atoms: C_10  and  C_17
    3  A    between atoms: C_20  and  C_29
    4  A    between atoms: C_29  and  C_30
                            x       y       z     vdW  Elec       q    Type
                         _______ _______ _______ _____ _____    ______ ____

>  <TORSDO>
F 4

$$$$
