=
 OpenBabel11112417073D

 37 43  0  0  1  0  0  0  0  0999 V2000
  192.2240  174.3410  141.3480 C   0  0  0  0  0  2  0  0  0  0  0  0
  187.8840  176.6380  142.3510 C   0  0  0  0  0  0  0  0  0  0  0  0
  190.5630  175.4610  145.3020 C   0  0  0  0  0  0  0  0  0  0  0  0
  192.6210  173.5980  140.1460 N   0  0  0  0  0  0  0  0  0  0  0  0
  192.9260  172.5210  144.7850 O   0  0  0  0  0  0  0  0  0  0  0  0
  188.9430  177.0700  144.5520 C   0  0  0  0  0  0  0  0  0  0  0  0
  191.2500  174.4170  144.7100 C   0  0  0  0  0  0  0  0  0  0  0  0
  194.6380  172.6240  141.4510 C   0  0  2  0  0  3  0  0  0  0  0  0
  189.6850  175.9270  144.3780 C   0  0  0  0  0  0  0  0  0  0  0  0
  192.4320  173.7140  145.3720 C   0  0  2  0  0  3  0  0  0  0  0  0
  189.0870  177.7750  145.7620 C   0  0  0  0  0  3  0  0  0  0  0  0
  193.5160  172.4480  140.3970 C   0  0  0  0  0  2  0  0  0  0  0  0
  189.7600  175.2640  143.2270 N   0  0  0  0  0  0  0  0  0  0  0  0
  187.5640  177.5040  141.1520 C   0  0  0  0  0  1  0  0  0  0  0  0
  191.8040  175.6780  147.4890 C   0  0  0  0  0  2  0  0  0  0  0  0
  190.0050  177.3060  146.7380 C   0  0  0  0  0  3  0  0  0  0  0  0
  189.1050  175.7380  142.0070 C   0  0  0  0  0  2  0  0  0  0  0  0
  194.2850  172.0360  142.8210 C   0  0  0  0  0  2  0  0  0  0  0  0
  193.0790  172.7380  143.4120 C   0  0  1  0  0  3  0  0  0  0  0  0
  190.7740  176.1420  146.5040 C   0  0  0  0  0  0  0  0  0  0  0  0
  190.7420  174.3430  143.3920 C   0  0  0  0  0  0  0  0  0  0  0  0
  188.1250  177.4870  143.4940 O   0  0  0  0  0  0  0  0  0  0  0  0
  193.4860  174.6680  145.9070 C   0  0  0  0  0  0  0  0  0  0  0  0
  186.6870  175.7500  142.6350 C   0  0  0  0  0  1  0  0  0  0  0  0
  191.9130  172.3430  142.7400 O   0  0  0  0  0  0  0  0  0  0  0  0
  195.0910  173.9420  141.5540 O   0  0  0  0  0  1  0  0  0  0  0  0
  191.2970  173.5150  142.2610 C   0  0  2  0  0  3  0  0  0  0  0  0
  193.1660  175.5630  146.8580 C   0  0  0  0  0  3  0  0  0  0  0  0
  195.7870  173.7200  145.7420 C   0  0  0  0  0  3  0  0  0  0  0  0
  194.8530  174.6940  145.3580 C   0  0  0  0  0  0  0  0  0  0  0  0
  195.2260  175.6700  144.4230 C   0  0  0  0  0  3  0  0  0  0  0  0
  196.8830  176.6600  142.9760 O   0  0  0  0  0  1  0  0  0  0  0  0
  197.4480  174.7180  144.2900 C   0  0  0  0  0  3  0  0  0  0  0  0
  196.5200  175.6850  143.8940 C   0  0  0  0  0  0  0  0  0  0  0  0
  197.0800  173.7330  145.2120 C   0  0  0  0  0  3  0  0  0  0  0  0
  192.8760  174.2760  137.8240 C   0  0  0  0  0  1  0  0  0  0  0  0
  193.3070  174.5230  139.2570 C   0  0  0  0  0  2  0  0  0  0  0  0
  2 24  1  0  0  0  0
  2 22  1  0  0  0  0
  3 20  1  0  0  0  0
  4 12  1  0  0  0  0
  4  1  1  0  0  0  0
  5 10  1  0  0  0  0
  6 11  2  0  0  0  0
  7  3  1  0  0  0  0
  8 26  1  1  0  0  0
  8 18  1  0  0  0  0
  9  6  1  0  0  0  0
  9  3  2  0  0  0  0
 10  7  1  6  0  0  0
 10 23  1  0  0  0  0
 11 16  1  0  0  0  0
 12  8  1  0  0  0  0
 13 21  1  0  0  0  0
 13  9  1  0  0  0  0
 14  2  1  0  0  0  0
 17  2  1  0  0  0  0
 17 13  1  0  0  0  0
 19 18  1  6  0  0  0
 19  5  1  0  0  0  0
 20 16  2  0  0  0  0
 20 15  1  0  0  0  0
 21  7  2  0  0  0  0
 22  6  1  0  0  0  0
 23 28  2  0  0  0  0
 25 19  1  0  0  0  0
 27  1  1  1  0  0  0
 27 25  1  0  0  0  0
 27 21  1  0  0  0  0
 28 15  1  0  0  0  0
 30 29  1  0  0  0  0
 30 23  1  0  0  0  0
 31 30  2  0  0  0  0
 32 34  1  0  0  0  0
 33 35  1  0  0  0  0
 34 33  2  0  0  0  0
 34 31  1  0  0  0  0
 35 29  2  0  0  0  0
 36 37  1  0  0  0  0
 37  4  1  0  0  0  0
M  END
>  <MODEL>
1

>  <REMARK>
 VINA RESULT:      -8.1      0.000      0.000
  Name = 
  2 active torsions:
  status: ('A' for Active; 'I' for Inactive)
    1  A    between atoms: N_4  and  C_37
    2  A    between atoms: C_23  and  C_30
                            x       y       z     vdW  Elec       q    Type
                         _______ _______ _______ _____ _____    ______ ____

>  <TORSDO>
F 2

$$$$
=
 OpenBabel11112417073D

 37 43  0  0  1  0  0  0  0  0999 V2000
  189.8090  173.7100  140.7850 C   0  0  0  0  0  2  0  0  0  0  0  0
  186.9830  177.2540  142.9210 C   0  0  0  0  0  0  0  0  0  0  0  0
  189.9140  175.1450  144.9770 C   0  0  0  0  0  0  0  0  0  0  0  0
  189.5510  172.9300  139.5690 N   0  0  0  0  0  0  0  0  0  0  0  0
  190.9170  171.6190  143.9500 O   0  0  0  0  0  0  0  0  0  0  0  0
  188.7520  177.2260  144.6600 C   0  0  0  0  0  0  0  0  0  0  0  0
  190.0080  173.9600  144.2720 C   0  0  0  0  0  0  0  0  0  0  0  0
  191.4450  171.2960  140.2530 C   0  0  2  0  0  3  0  0  0  0  0  0
  188.9930  175.9110  144.3400 C   0  0  0  0  0  0  0  0  0  0  0  0
  191.0420  172.8830  144.5830 C   0  0  2  0  0  3  0  0  0  0  0  0
  189.4850  177.7930  145.7180 C   0  0  0  0  0  3  0  0  0  0  0  0
  190.0580  171.5410  139.6070 C   0  0  0  0  0  2  0  0  0  0  0  0
  188.4890  175.3080  143.2660 N   0  0  0  0  0  0  0  0  0  0  0  0
  186.6030  178.2270  141.8260 C   0  0  0  0  0  1  0  0  0  0  0  0
  191.7730  174.8530  146.6600 C   0  0  0  0  0  2  0  0  0  0  0  0
  190.4580  177.0100  146.3940 C   0  0  0  0  0  3  0  0  0  0  0  0
  187.6770  176.0210  142.2780 C   0  0  0  0  0  2  0  0  0  0  0  0
  191.3650  170.7990  141.7000 C   0  0  0  0  0  2  0  0  0  0  0  0
  190.6970  171.8320  142.5860 C   0  0  1  0  0  3  0  0  0  0  0  0
  190.6960  175.6690  146.0110 C   0  0  0  0  0  0  0  0  0  0  0  0
  189.1200  174.1110  143.1810 C   0  0  0  0  0  0  0  0  0  0  0  0
  187.8270  177.9300  143.8790 O   0  0  0  0  0  0  0  0  0  0  0  0
  192.4590  173.4170  144.7060 C   0  0  0  0  0  0  0  0  0  0  0  0
  185.7140  176.7950  143.6160 C   0  0  0  0  0  1  0  0  0  0  0  0
  189.3180  171.8670  142.3310 O   0  0  0  0  0  0  0  0  0  0  0  0
  192.3080  172.3880  140.1270 O   0  0  0  0  0  1  0  0  0  0  0  0
  188.9980  173.1950  141.9900 C   0  0  2  0  0  3  0  0  0  0  0  0
  192.7580  174.3260  145.6500 C   0  0  0  0  0  3  0  0  0  0  0  0
  194.1400  171.7650  143.8880 C   0  0  0  0  0  3  0  0  0  0  0  0
  193.5200  173.0180  143.7640 C   0  0  0  0  0  0  0  0  0  0  0  0
  193.8960  173.8690  142.7150 C   0  0  0  0  0  3  0  0  0  0  0  0
  195.2670  174.3350  140.7860 O   0  0  0  0  0  1  0  0  0  0  0  0
  195.5150  172.2380  141.9520 C   0  0  0  0  0  3  0  0  0  0  0  0
  194.8940  173.4830  141.8150 C   0  0  0  0  0  0  0  0  0  0  0  0
  195.1360  171.3780  142.9870 C   0  0  0  0  0  3  0  0  0  0  0  0
  189.1730  173.8620  137.3550 C   0  0  0  0  0  1  0  0  0  0  0  0
  190.1860  173.6160  138.4550 C   0  0  0  0  0  2  0  0  0  0  0  0
  2 24  1  0  0  0  0
  2 22  1  0  0  0  0
  3 20  1  0  0  0  0
  4 12  1  0  0  0  0
  4  1  1  0  0  0  0
  6 11  2  0  0  0  0
  7 10  1  0  0  0  0
  7  3  1  0  0  0  0
  8 26  1  1  0  0  0
  8 18  1  0  0  0  0
  9  6  1  0  0  0  0
  9  3  2  0  0  0  0
 10  5  1  6  0  0  0
 10 23  1  0  0  0  0
 11 16  1  0  0  0  0
 12  8  1  0  0  0  0
 13  9  1  0  0  0  0
 14  2  1  0  0  0  0
 17  2  1  0  0  0  0
 17 13  1  0  0  0  0
 19 18  1  6  0  0  0
 19  5  1  0  0  0  0
 20 16  2  0  0  0  0
 20 15  1  0  0  0  0
 21 13  1  0  0  0  0
 21  7  2  0  0  0  0
 22  6  1  0  0  0  0
 23 28  2  0  0  0  0
 25 19  1  0  0  0  0
 27  1  1  6  0  0  0
 27 25  1  0  0  0  0
 27 21  1  0  0  0  0
 28 15  1  0  0  0  0
 30 29  1  0  0  0  0
 30 23  1  0  0  0  0
 31 30  2  0  0  0  0
 32 34  1  0  0  0  0
 33 35  1  0  0  0  0
 34 33  2  0  0  0  0
 34 31  1  0  0  0  0
 35 29  2  0  0  0  0
 36 37  1  0  0  0  0
 37  4  1  0  0  0  0
M  END
>  <MODEL>
2

>  <REMARK>
 VINA RESULT:      -7.8      1.991      2.473
  Name = 
  2 active torsions:
  status: ('A' for Active; 'I' for Inactive)
    1  A    between atoms: N_4  and  C_37
    2  A    between atoms: C_23  and  C_30
                            x       y       z     vdW  Elec       q    Type
                         _______ _______ _______ _____ _____    ______ ____

>  <TORSDO>
F 2

$$$$
=
 OpenBabel11112417073D

 37 43  0  0  1  0  0  0  0  0999 V2000
  191.4070  172.9850  142.3010 C   0  0  0  0  0  2  0  0  0  0  0  0
  196.1200  171.2820  142.3340 C   0  0  0  0  0  0  0  0  0  0  0  0
  194.8900  174.5950  144.5200 C   0  0  0  0  0  0  0  0  0  0  0  0
  190.3500  172.7630  141.3080 N   0  0  0  0  0  0  0  0  0  0  0  0
  191.9560  176.7430  143.3930 O   0  0  0  0  0  0  0  0  0  0  0  0
  196.3080  172.6590  144.3900 C   0  0  0  0  0  0  0  0  0  0  0  0
  193.7940  175.0530  143.8140 C   0  0  0  0  0  0  0  0  0  0  0  0
  188.9880  174.6950  142.3690 C   0  0  2  0  0  3  0  0  0  0  0  0
  195.3320  173.4810  143.8820 C   0  0  0  0  0  0  0  0  0  0  0  0
  192.9180  176.2090  144.2890 C   0  0  2  0  0  3  0  0  0  0  0  0
  196.8930  173.0070  145.6210 C   0  0  0  0  0  3  0  0  0  0  0  0
  189.4340  173.9070  141.1130 C   0  0  0  0  0  2  0  0  0  0  0  0
  194.5930  173.1810  142.8170 N   0  0  0  0  0  0  0  0  0  0  0  0
  196.0460  169.7930  142.0710 C   0  0  0  0  0  1  0  0  0  0  0  0
  194.8660  176.1470  146.5110 C   0  0  0  0  0  2  0  0  0  0  0  0
  196.4410  174.1660  146.3070 C   0  0  0  0  0  3  0  0  0  0  0  0
  194.7090  171.8990  142.1210 C   0  0  0  0  0  2  0  0  0  0  0  0
  189.7830  175.9860  142.5940 C   0  0  0  0  0  2  0  0  0  0  0  0
  191.2490  175.6800  142.8250 C   0  0  1  0  0  3  0  0  0  0  0  0
  195.4090  174.9670  145.7640 C   0  0  0  0  0  0  0  0  0  0  0  0
  193.6150  174.1190  142.7670 C   0  0  0  0  0  0  0  0  0  0  0  0
  196.6250  171.4990  143.6700 O   0  0  0  0  0  0  0  0  0  0  0  0
  192.4690  176.0790  145.7340 C   0  0  0  0  0  0  0  0  0  0  0  0
  197.0810  171.8990  141.3350 C   0  0  0  0  0  1  0  0  0  0  0  0
  191.8580  175.3000  141.6190 O   0  0  0  0  0  0  0  0  0  0  0  0
  188.9420  173.9080  143.5220 O   0  0  0  0  0  1  0  0  0  0  0  0
  192.4350  174.0340  141.8320 C   0  0  2  0  0  3  0  0  0  0  0  0
  193.3790  176.0360  146.7230 C   0  0  0  0  0  3  0  0  0  0  0  0
  190.5640  174.6880  146.5430 C   0  0  0  0  0  3  0  0  0  0  0  0
  191.0470  175.9240  146.0900 C   0  0  0  0  0  0  0  0  0  0  0  0
  190.1720  177.0170  146.0140 C   0  0  0  0  0  3  0  0  0  0  0  0
  187.9660  177.9540  146.2770 O   0  0  0  0  0  1  0  0  0  0  0  0
  188.3500  175.6320  146.8050 C   0  0  0  0  0  3  0  0  0  0  0  0
  188.8270  176.8700  146.3660 C   0  0  0  0  0  0  0  0  0  0  0  0
  189.2190  174.5410  146.8960 C   0  0  0  0  0  3  0  0  0  0  0  0
  190.4760  170.4380  142.0110 C   0  0  0  0  0  1  0  0  0  0  0  0
  189.5640  171.6190  141.7410 C   0  0  0  0  0  2  0  0  0  0  0  0
  2 22  1  0  0  0  0
  3 20  1  0  0  0  0
  4 37  1  0  0  0  0
  4  1  1  0  0  0  0
  6 11  2  0  0  0  0
  7 10  1  0  0  0  0
  7  3  1  0  0  0  0
  8 18  1  0  0  0  0
  8 26  1  1  0  0  0
  9  6  1  0  0  0  0
  9  3  2  0  0  0  0
 10  5  1  6  0  0  0
 10 23  1  0  0  0  0
 11 16  1  0  0  0  0
 12  4  1  0  0  0  0
 12  8  1  0  0  0  0
 13  9  1  0  0  0  0
 14  2  1  0  0  0  0
 15 28  1  0  0  0  0
 17  2  1  0  0  0  0
 17 13  1  0  0  0  0
 19 18  1  6  0  0  0
 19  5  1  0  0  0  0
 20 16  2  0  0  0  0
 20 15  1  0  0  0  0
 21 13  1  0  0  0  0
 21  7  2  0  0  0  0
 22  6  1  0  0  0  0
 23 30  1  0  0  0  0
 23 28  2  0  0  0  0
 24  2  1  0  0  0  0
 25 27  1  0  0  0  0
 25 19  1  0  0  0  0
 27  1  1  1  0  0  0
 27 21  1  0  0  0  0
 29 35  1  0  0  0  0
 30 29  2  0  0  0  0
 31 30  1  0  0  0  0
 31 34  2  0  0  0  0
 32 34  1  0  0  0  0
 33 35  2  0  0  0  0
 34 33  1  0  0  0  0
 37 36  1  0  0  0  0
M  END
>  <MODEL>
3

>  <REMARK>
 VINA RESULT:      -7.8      2.221      6.387
  Name = 
  2 active torsions:
  status: ('A' for Active; 'I' for Inactive)
    1  A    between atoms: N_4  and  C_37
    2  A    between atoms: C_23  and  C_30
                            x       y       z     vdW  Elec       q    Type
                         _______ _______ _______ _____ _____    ______ ____

>  <TORSDO>
F 2

$$$$
=
 OpenBabel11112417073D

 37 43  0  0  1  0  0  0  0  0999 V2000
  192.9490  176.1910  144.7510 C   0  0  0  0  0  2  0  0  0  0  0  0
  188.2820  177.2250  143.2480 C   0  0  0  0  0  0  0  0  0  0  0  0
  190.4750  174.0110  141.7880 C   0  0  0  0  0  0  0  0  0  0  0  0
  193.9330  177.0740  145.3870 N   0  0  0  0  0  0  0  0  0  0  0  0
  194.2800  174.0850  141.6840 O   0  0  0  0  0  0  0  0  0  0  0  0
  188.3280  174.8870  142.4210 C   0  0  0  0  0  0  0  0  0  0  0  0
  191.7860  174.4120  141.9680 C   0  0  0  0  0  0  0  0  0  0  0  0
  195.7810  175.3270  144.8870 C   0  0  2  0  0  3  0  0  0  0  0  0
  189.6890  175.0030  142.2790 C   0  0  0  0  0  0  0  0  0  0  0  0
  192.9820  173.5120  141.6770 C   0  0  2  0  0  3  0  0  0  0  0  0
  187.7210  173.6850  142.0130 C   0  0  0  0  0  3  0  0  0  0  0  0
  195.3380  176.8060  145.0130 C   0  0  0  0  0  2  0  0  0  0  0  0
  190.3990  176.0150  142.7710 N   0  0  0  0  0  0  0  0  0  0  0  0
  187.5950  177.9160  144.4060 C   0  0  0  0  0  1  0  0  0  0  0  0
  190.8030  171.6560  140.9420 C   0  0  0  0  0  2  0  0  0  0  0  0
  188.5260  172.6330  141.5020 C   0  0  0  0  0  3  0  0  0  0  0  0
  189.7940  177.0760  143.5790 C   0  0  0  0  0  2  0  0  0  0  0  0
  195.8000  174.8160  143.4420 C   0  0  0  0  0  2  0  0  0  0  0  0
  194.4100  174.8620  142.8390 C   0  0  1  0  0  3  0  0  0  0  0  0
  189.9300  172.7830  141.4040 C   0  0  0  0  0  0  0  0  0  0  0  0
  191.7000  175.6650  142.6210 C   0  0  0  0  0  0  0  0  0  0  0  0
  187.6380  175.9550  143.0080 O   0  0  0  0  0  0  0  0  0  0  0  0
  192.8710  172.1320  142.3020 C   0  0  0  0  0  0  0  0  0  0  0  0
  188.1350  178.0970  142.0140 C   0  0  0  0  0  1  0  0  0  0  0  0
  194.0500  176.1880  142.5570 O   0  0  0  0  0  0  0  0  0  0  0  0
  195.0700  174.4680  145.7300 O   0  0  0  0  0  1  0  0  0  0  0  0
  192.8410  176.4370  143.2340 C   0  0  2  0  0  3  0  0  0  0  0  0
  191.8580  171.3160  141.9600 C   0  0  0  0  0  3  0  0  0  0  0  0
  193.4310  171.6830  144.6910 C   0  0  0  0  0  3  0  0  0  0  0  0
  193.8120  171.6750  143.3410 C   0  0  0  0  0  0  0  0  0  0  0  0
  195.0810  171.1960  142.9890 C   0  0  0  0  0  3  0  0  0  0  0  0
  197.2260  170.2890  143.6190 O   0  0  0  0  0  1  0  0  0  0  0  0
  195.5850  170.7740  145.3190 C   0  0  0  0  0  3  0  0  0  0  0  0
  195.9670  170.7520  143.9750 C   0  0  0  0  0  0  0  0  0  0  0  0
  194.3150  171.2370  145.6770 C   0  0  0  0  0  3  0  0  0  0  0  0
  192.4240  176.4030  147.1730 C   0  0  0  0  0  1  0  0  0  0  0  0
  193.8080  176.9180  146.8280 C   0  0  0  0  0  2  0  0  0  0  0  0
  1  4  1  0  0  0  0
  2 17  1  0  0  0  0
  2 14  1  0  0  0  0
  3  7  1  0  0  0  0
  3  9  1  0  0  0  0
  4 37  1  0  0  0  0
  5 19  1  0  0  0  0
  6 22  1  0  0  0  0
  7 21  2  0  0  0  0
  8 12  1  0  0  0  0
  8 26  1  1  0  0  0
  9  6  2  0  0  0  0
  9 13  1  0  0  0  0
 10  5  1  1  0  0  0
 10  7  1  0  0  0  0
 10 23  1  0  0  0  0
 11  6  1  0  0  0  0
 12  4  1  0  0  0  0
 13 17  1  0  0  0  0
 15 20  1  0  0  0  0
 15 28  1  0  0  0  0
 16 11  2  0  0  0  0
 18  8  1  0  0  0  0
 19 18  1  6  0  0  0
 20 16  1  0  0  0  0
 20  3  2  0  0  0  0
 21 13  1  0  0  0  0
 21 27  1  0  0  0  0
 22  2  1  0  0  0  0
 23 30  1  0  0  0  0
 24  2  1  0  0  0  0
 25 19  1  0  0  0  0
 25 27  1  0  0  0  0
 27  1  1  1  0  0  0
 28 23  2  0  0  0  0
 29 35  1  0  0  0  0
 30 29  2  0  0  0  0
 31 30  1  0  0  0  0
 31 34  2  0  0  0  0
 32 34  1  0  0  0  0
 33 35  2  0  0  0  0
 34 33  1  0  0  0  0
 37 36  1  0  0  0  0
M  END
>  <MODEL>
4

>  <REMARK>
 VINA RESULT:      -7.7      2.112      4.743
  Name = 
  2 active torsions:
  status: ('A' for Active; 'I' for Inactive)
    1  A    between atoms: N_4  and  C_37
    2  A    between atoms: C_23  and  C_30
                            x       y       z     vdW  Elec       q    Type
                         _______ _______ _______ _____ _____    ______ ____

>  <TORSDO>
F 2

$$$$
=
 OpenBabel11112417073D

 37 43  0  0  1  0  0  0  0  0999 V2000
  190.5430  173.5410  142.0940 C   0  0  0  0  0  2  0  0  0  0  0  0
  189.2240  175.5140  146.5080 C   0  0  0  0  0  0  0  0  0  0  0  0
  193.1530  174.5850  145.5210 C   0  0  0  0  0  0  0  0  0  0  0  0
  189.7180  172.8150  141.1220 N   0  0  0  0  0  0  0  0  0  0  0  0
  193.9780  171.8270  143.0300 O   0  0  0  0  0  0  0  0  0  0  0  0
  191.6400  176.0560  146.6720 C   0  0  0  0  0  0  0  0  0  0  0  0
  193.0160  173.5890  144.5730 C   0  0  0  0  0  0  0  0  0  0  0  0
  191.8770  172.0150  139.9320 C   0  0  2  0  0  3  0  0  0  0  0  0
  191.8990  174.9710  145.8710 C   0  0  0  0  0  0  0  0  0  0  0  0
  194.1970  172.9870  143.8170 C   0  0  2  0  0  3  0  0  0  0  0  0
  192.7340  176.7860  147.1720 C   0  0  0  0  0  3  0  0  0  0  0  0
  190.4240  171.7400  140.3920 C   0  0  0  0  0  2  0  0  0  0  0  0
  190.9600  174.3000  145.2100 N   0  0  0  0  0  0  0  0  0  0  0  0
  187.9780  176.3370  146.2610 C   0  0  0  0  0  1  0  0  0  0  0  0
  195.6540  174.9250  145.5060 C   0  0  0  0  0  2  0  0  0  0  0  0
  194.0530  176.4020  146.8130 C   0  0  0  0  0  3  0  0  0  0  0  0
  189.5530  174.7060  145.2210 C   0  0  0  0  0  2  0  0  0  0  0  0
  192.9360  171.4200  140.8660 C   0  0  0  0  0  2  0  0  0  0  0  0
  192.8400  172.0370  142.2470 C   0  0  1  0  0  3  0  0  0  0  0  0
  194.2740  175.2960  145.9580 C   0  0  0  0  0  0  0  0  0  0  0  0
  191.6210  173.4590  144.3760 C   0  0  0  0  0  0  0  0  0  0  0  0
  190.3000  176.3940  146.9000 O   0  0  0  0  0  0  0  0  0  0  0  0
  195.1250  174.0250  143.2120 C   0  0  0  0  0  0  0  0  0  0  0  0
  188.9420  174.5410  147.6380 C   0  0  0  0  0  1  0  0  0  0  0  0
  191.7100  171.5440  142.9180 O   0  0  0  0  0  0  0  0  0  0  0  0
  192.1210  173.3650  139.6650 O   0  0  0  0  0  1  0  0  0  0  0  0
  190.9380  172.6600  143.2950 C   0  0  2  0  0  3  0  0  0  0  0  0
  195.7620  174.9060  144.0040 C   0  0  0  0  0  3  0  0  0  0  0  0
  194.6360  175.1610  141.0460 C   0  0  0  0  0  3  0  0  0  0  0  0
  195.3010  174.1490  141.7540 C   0  0  0  0  0  0  0  0  0  0  0  0
  196.1600  173.2800  141.0650 C   0  0  0  0  0  3  0  0  0  0  0  0
  197.1780  172.5370  139.0090 O   0  0  0  0  0  1  0  0  0  0  0  0
  195.6600  174.4110  138.9840 C   0  0  0  0  0  3  0  0  0  0  0  0
  196.3350  173.4080  139.6840 C   0  0  0  0  0  0  0  0  0  0  0  0
  194.8120  175.2900  139.6650 C   0  0  0  0  0  3  0  0  0  0  0  0
  188.2950  173.0880  139.1680 C   0  0  0  0  0  1  0  0  0  0  0  0
  189.2240  173.7770  140.1500 C   0  0  0  0  0  2  0  0  0  0  0  0
  2 22  1  0  0  0  0
  2 24  1  0  0  0  0
  3  9  2  0  0  0  0
  3 20  1  0  0  0  0
  4  1  1  0  0  0  0
  6 22  1  0  0  0  0
  6 11  2  0  0  0  0
  7  3  1  0  0  0  0
  8 26  1  1  0  0  0
  8 12  1  0  0  0  0
  8 18  1  0  0  0  0
  9  6  1  0  0  0  0
 10  5  1  6  0  0  0
 10  7  1  0  0  0  0
 12  4  1  0  0  0  0
 13 17  1  0  0  0  0
 13  9  1  0  0  0  0
 14  2  1  0  0  0  0
 15 20  1  0  0  0  0
 16 11  1  0  0  0  0
 17  2  1  0  0  0  0
 19 18  1  6  0  0  0
 19 25  1  0  0  0  0
 19  5  1  0  0  0  0
 20 16  2  0  0  0  0
 21  7  2  0  0  0  0
 21 13  1  0  0  0  0
 23 10  1  0  0  0  0
 23 28  2  0  0  0  0
 25 27  1  0  0  0  0
 27  1  1  6  0  0  0
 27 21  1  0  0  0  0
 28 15  1  0  0  0  0
 29 30  1  0  0  0  0
 30 23  1  0  0  0  0
 31 30  2  0  0  0  0
 32 34  1  0  0  0  0
 33 35  1  0  0  0  0
 33 34  2  0  0  0  0
 34 31  1  0  0  0  0
 35 29  2  0  0  0  0
 36 37  1  0  0  0  0
 37  4  1  0  0  0  0
M  END
>  <MODEL>
5

>  <REMARK>
 VINA RESULT:      -7.5      2.275      3.800
  Name = 
  2 active torsions:
  status: ('A' for Active; 'I' for Inactive)
    1  A    between atoms: N_4  and  C_37
    2  A    between atoms: C_23  and  C_30
                            x       y       z     vdW  Elec       q    Type
                         _______ _______ _______ _____ _____    ______ ____

>  <TORSDO>
F 2

$$$$
=
 OpenBabel11112417073D

 37 43  0  0  1  0  0  0  0  0999 V2000
  192.6740  175.0480  143.6000 C   0  0  0  0  0  2  0  0  0  0  0  0
  195.0470  173.2940  139.5490 C   0  0  0  0  0  0  0  0  0  0  0  0
  190.9060  173.4040  139.8820 C   0  0  0  0  0  0  0  0  0  0  0  0
  193.1770  175.2090  144.9690 N   0  0  0  0  0  0  0  0  0  0  0  0
  189.1780  173.2340  143.2710 O   0  0  0  0  0  0  0  0  0  0  0  0
  192.8370  173.6020  138.4640 C   0  0  0  0  0  0  0  0  0  0  0  0
  190.6950  173.3700  141.2480 C   0  0  0  0  0  0  0  0  0  0  0  0
  190.7410  175.5240  145.7950 C   0  0  2  0  0  3  0  0  0  0  0  0
  192.2500  173.4070  139.6910 C   0  0  0  0  0  0  0  0  0  0  0  0
  189.3140  173.5000  141.8840 C   0  0  2  0  0  3  0  0  0  0  0  0
  191.9970  173.7830  137.3500 C   0  0  0  0  0  3  0  0  0  0  0  0
  192.1710  174.9780  146.0280 C   0  0  0  0  0  2  0  0  0  0  0  0
  192.9240  173.3850  140.8370 N   0  0  0  0  0  0  0  0  0  0  0  0
  196.3680  174.0270  139.4670 C   0  0  0  0  0  1  0  0  0  0  0  0
  188.5460  173.6990  139.0370 C   0  0  0  0  0  2  0  0  0  0  0  0
  190.5880  173.7880  137.5300 C   0  0  0  0  0  3  0  0  0  0  0  0
  194.3650  173.6390  140.9030 C   0  0  0  0  0  2  0  0  0  0  0  0
  189.7560  174.4610  145.2950 C   0  0  0  0  0  2  0  0  0  0  0  0
  190.1920  173.9170  143.9490 C   0  0  1  0  0  3  0  0  0  0  0  0
  190.0260  173.6170  138.8170 C   0  0  0  0  0  0  0  0  0  0  0  0
  191.9900  173.3930  141.8200 C   0  0  0  0  0  0  0  0  0  0  0  0
  194.2350  173.6560  138.4110 O   0  0  0  0  0  0  0  0  0  0  0  0
  188.5120  174.6780  141.3590 C   0  0  0  0  0  0  0  0  0  0  0  0
  195.3230  171.8020  139.5070 C   0  0  0  0  0  1  0  0  0  0  0  0
  191.3030  173.0750  144.1060 O   0  0  0  0  0  0  0  0  0  0  0  0
  190.7140  176.6700  144.9960 O   0  0  0  0  0  1  0  0  0  0  0  0
  192.3230  173.5820  143.2780 C   0  0  2  0  0  3  0  0  0  0  0  0
  188.1910  174.7500  140.0550 C   0  0  0  0  0  3  0  0  0  0  0  0
  188.8380  177.0080  142.1880 C   0  0  0  0  0  3  0  0  0  0  0  0
  188.1250  175.8000  142.2330 C   0  0  0  0  0  0  0  0  0  0  0  0
  187.0230  175.6860  143.0920 C   0  0  0  0  0  3  0  0  0  0  0  0
  185.5650  176.6310  144.7650 O   0  0  0  0  0  1  0  0  0  0  0  0
  187.3730  177.9530  143.8680 C   0  0  0  0  0  3  0  0  0  0  0  0
  186.6510  176.7560  143.9100 C   0  0  0  0  0  0  0  0  0  0  0  0
  188.4650  178.0790  143.0050 C   0  0  0  0  0  3  0  0  0  0  0  0
  194.1910  176.7910  146.5130 C   0  0  0  0  0  1  0  0  0  0  0  0
  193.6770  176.5670  145.1040 C   0  0  0  0  0  2  0  0  0  0  0  0
  1  4  1  0  0  0  0
  2 17  1  0  0  0  0
  3  7  1  0  0  0  0
  4 37  1  0  0  0  0
  4 12  1  0  0  0  0
  5 19  1  0  0  0  0
  6  9  2  0  0  0  0
  7 21  2  0  0  0  0
  8 26  1  6  0  0  0
  8 12  1  0  0  0  0
  9  3  1  0  0  0  0
  9 13  1  0  0  0  0
 10  7  1  1  0  0  0
 10  5  1  0  0  0  0
 11 16  2  0  0  0  0
 11  6  1  0  0  0  0
 13 17  1  0  0  0  0
 13 21  1  0  0  0  0
 14  2  1  0  0  0  0
 15 28  1  0  0  0  0
 16 20  1  0  0  0  0
 18  8  1  0  0  0  0
 19 25  1  0  0  0  0
 19 18  1  1  0  0  0
 20 15  1  0  0  0  0
 20  3  2  0  0  0  0
 21 27  1  0  0  0  0
 22  6  1  0  0  0  0
 22  2  1  0  0  0  0
 23 10  1  0  0  0  0
 23 30  1  0  0  0  0
 24  2  1  0  0  0  0
 27  1  1  6  0  0  0
 27 25  1  0  0  0  0
 28 23  2  0  0  0  0
 29 30  2  0  0  0  0
 29 35  1  0  0  0  0
 30 31  1  0  0  0  0
 31 34  2  0  0  0  0
 33 34  1  0  0  0  0
 34 32  1  0  0  0  0
 35 33  2  0  0  0  0
 37 36  1  0  0  0  0
M  END
>  <MODEL>
6

>  <REMARK>
 VINA RESULT:      -7.3      2.316      7.360
  Name = 
  2 active torsions:
  status: ('A' for Active; 'I' for Inactive)
    1  A    between atoms: N_4  and  C_37
    2  A    between atoms: C_23  and  C_30
                            x       y       z     vdW  Elec       q    Type
                         _______ _______ _______ _____ _____    ______ ____

>  <TORSDO>
F 2

$$$$
=
 OpenBabel11112417073D

 37 43  0  0  1  0  0  0  0  0999 V2000
  190.9410  172.4870  142.3080 C   0  0  0  0  0  2  0  0  0  0  0  0
  189.3780  175.5330  145.9680 C   0  0  0  0  0  0  0  0  0  0  0  0
  193.3120  174.2410  145.6170 C   0  0  0  0  0  0  0  0  0  0  0  0
  190.1570  171.5760  141.4660 N   0  0  0  0  0  0  0  0  0  0  0  0
  194.1750  170.9260  143.9560 O   0  0  0  0  0  0  0  0  0  0  0  0
  191.7990  176.0070  146.2280 C   0  0  0  0  0  0  0  0  0  0  0  0
  193.1950  173.0490  144.9280 C   0  0  0  0  0  0  0  0  0  0  0  0
  192.3560  170.4260  140.7170 C   0  0  2  0  0  3  0  0  0  0  0  0
  192.0590  174.7480  145.7410 C   0  0  0  0  0  0  0  0  0  0  0  0
  194.3970  172.2340  144.4580 C   0  0  2  0  0  3  0  0  0  0  0  0
  192.8900  176.7950  146.6390 C   0  0  0  0  0  3  0  0  0  0  0  0
  190.8550  170.3280  141.0880 C   0  0  0  0  0  2  0  0  0  0  0  0
  191.1400  173.9720  145.1740 N   0  0  0  0  0  0  0  0  0  0  0  0
  188.2090  176.3170  145.4110 C   0  0  0  0  0  1  0  0  0  0  0  0
  195.8210  174.4720  145.7600 C   0  0  0  0  0  2  0  0  0  0  0  0
  194.2090  176.2840  146.5120 C   0  0  0  0  0  3  0  0  0  0  0  0
  189.7640  174.4210  144.9520 C   0  0  0  0  0  2  0  0  0  0  0  0
  193.2950  170.0400  141.8650 C   0  0  0  0  0  2  0  0  0  0  0  0
  193.1210  170.9800  143.0400 C   0  0  1  0  0  3  0  0  0  0  0  0
  194.4330  174.9950  145.9750 C   0  0  0  0  0  0  0  0  0  0  0  0
  191.8160  172.9270  144.6360 C   0  0  0  0  0  0  0  0  0  0  0  0
  190.4680  176.4420  146.2380 O   0  0  0  0  0  0  0  0  0  0  0  0
  195.4340  173.0560  143.7120 C   0  0  0  0  0  0  0  0  0  0  0  0
  188.9430  174.8800  147.2670 C   0  0  0  0  0  1  0  0  0  0  0  0
  191.9110  170.7110  143.6980 O   0  0  0  0  0  0  0  0  0  0  0  0
  192.7030  171.6590  140.1570 O   0  0  0  0  0  1  0  0  0  0  0  0
  191.1790  171.9130  143.7190 C   0  0  2  0  0  3  0  0  0  0  0  0
  196.0530  174.0800  144.3250 C   0  0  0  0  0  3  0  0  0  0  0  0
  196.5300  171.7140  141.9180 C   0  0  0  0  0  3  0  0  0  0  0  0
  195.7380  172.8100  142.2910 C   0  0  0  0  0  0  0  0  0  0  0  0
  195.2120  173.6460  141.2960 C   0  0  0  0  0  3  0  0  0  0  0  0
  194.9750  174.2410  138.9700 O   0  0  0  0  0  1  0  0  0  0  0  0
  196.2910  172.3160  139.5850 C   0  0  0  0  0  3  0  0  0  0  0  0
  195.4920  173.4030  139.9480 C   0  0  0  0  0  0  0  0  0  0  0  0
  196.8090  171.4690  140.5700 C   0  0  0  0  0  3  0  0  0  0  0  0
  189.8460  173.7830  140.4920 C   0  0  0  0  0  1  0  0  0  0  0  0
  189.8050  172.2870  140.2470 C   0  0  0  0  0  2  0  0  0  0  0  0
  2 22  1  0  0  0  0
  2 24  1  0  0  0  0
  3  9  2  0  0  0  0
  3 20  1  0  0  0  0
  4  1  1  0  0  0  0
  5 10  1  0  0  0  0
  6 22  1  0  0  0  0
  6 11  2  0  0  0  0
  7  3  1  0  0  0  0
  8 26  1  1  0  0  0
  8 12  1  0  0  0  0
  8 18  1  0  0  0  0
  9  6  1  0  0  0  0
 10 23  1  6  0  0  0
 10  7  1  0  0  0  0
 12  4  1  0  0  0  0
 13  9  1  0  0  0  0
 14  2  1  0  0  0  0
 15 20  1  0  0  0  0
 16 11  1  0  0  0  0
 17 13  1  0  0  0  0
 17  2  1  0  0  0  0
 19 18  1  6  0  0  0
 19 25  1  0  0  0  0
 19  5  1  0  0  0  0
 20 16  2  0  0  0  0
 21  7  2  0  0  0  0
 21 13  1  0  0  0  0
 23 28  2  0  0  0  0
 25 27  1  0  0  0  0
 27  1  1  6  0  0  0
 27 21  1  0  0  0  0
 28 15  1  0  0  0  0
 29 30  1  0  0  0  0
 30 23  1  0  0  0  0
 31 30  2  0  0  0  0
 32 34  1  0  0  0  0
 33 34  2  0  0  0  0
 33 35  1  0  0  0  0
 34 31  1  0  0  0  0
 35 29  2  0  0  0  0
 37 36  1  0  0  0  0
 37  4  1  0  0  0  0
M  END
>  <MODEL>
7

>  <REMARK>
 VINA RESULT:      -7.3      2.287      3.686
  Name = 
  2 active torsions:
  status: ('A' for Active; 'I' for Inactive)
    1  A    between atoms: N_4  and  C_37
    2  A    between atoms: C_23  and  C_30
                            x       y       z     vdW  Elec       q    Type
                         _______ _______ _______ _____ _____    ______ ____

>  <TORSDO>
F 2

$$$$
=
 OpenBabel11112417073D

 37 43  0  0  1  0  0  0  0  0999 V2000
  193.8650  174.7320  142.0990 C   0  0  0  0  0  2  0  0  0  0  0  0
  192.9620  172.7640  137.5800 C   0  0  0  0  0  0  0  0  0  0  0  0
  190.1400  172.8340  140.6290 C   0  0  0  0  0  0  0  0  0  0  0  0
  195.1520  174.9860  142.7570 N   0  0  0  0  0  0  0  0  0  0  0  0
  191.1710  172.8510  144.2940 O   0  0  0  0  0  0  0  0  0  0  0  0
  190.5890  172.9710  138.2720 C   0  0  0  0  0  0  0  0  0  0  0  0
  190.9100  172.8820  141.7760 C   0  0  0  0  0  0  0  0  0  0  0  0
  193.9040  175.3160  145.0050 C   0  0  2  0  0  3  0  0  0  0  0  0
  190.9970  172.8450  139.5780 C   0  0  0  0  0  0  0  0  0  0  0  0
  190.3190  173.0310  143.1740 C   0  0  2  0  0  3  0  0  0  0  0  0
  189.2090  173.0690  138.0180 C   0  0  0  0  0  3  0  0  0  0  0  0
  195.1420  174.8080  144.2250 C   0  0  0  0  0  2  0  0  0  0  0  0
  192.2690  172.9040  139.9620 N   0  0  0  0  0  0  0  0  0  0  0  0
  193.8380  173.5100  136.5970 C   0  0  0  0  0  1  0  0  0  0  0  0
  187.8180  173.0400  141.5990 C   0  0  0  0  0  2  0  0  0  0  0  0
  188.2950  173.0650  139.1050 C   0  0  0  0  0  3  0  0  0  0  0  0
  193.3580  173.1830  139.0240 C   0  0  0  0  0  2  0  0  0  0  0  0
  192.9000  174.2100  145.3430 C   0  0  0  0  0  2  0  0  0  0  0  0
  192.3390  173.5890  144.0800 C   0  0  1  0  0  3  0  0  0  0  0  0
  188.7610  172.9660  140.4370 C   0  0  0  0  0  0  0  0  0  0  0  0
  192.2470  172.9600  141.3170 C   0  0  0  0  0  0  0  0  0  0  0  0
  191.5770  173.0420  137.2820 O   0  0  0  0  0  0  0  0  0  0  0  0
  189.3120  174.1620  143.2910 C   0  0  0  0  0  0  0  0  0  0  0  0
  193.2160  171.2760  137.4160 C   0  0  0  0  0  1  0  0  0  0  0  0
  193.3060  172.7750  143.4710 O   0  0  0  0  0  0  0  0  0  0  0  0
  193.2840  176.4100  144.3950 O   0  0  0  0  0  1  0  0  0  0  0  0
  193.4680  173.2450  142.1540 C   0  0  2  0  0  3  0  0  0  0  0  0
  188.1910  174.1480  142.5490 C   0  0  0  0  0  3  0  0  0  0  0  0
  189.3170  175.2540  145.5340 C   0  0  0  0  0  3  0  0  0  0  0  0
  189.5590  175.3310  144.1540 C   0  0  0  0  0  0  0  0  0  0  0  0
  190.0730  176.5180  143.6140 C   0  0  0  0  0  3  0  0  0  0  0  0
  190.8170  178.7950  143.8910 O   0  0  0  0  0  1  0  0  0  0  0  0
  190.0630  177.5410  145.8080 C   0  0  0  0  0  3  0  0  0  0  0  0
  190.3190  177.6210  144.4360 C   0  0  0  0  0  0  0  0  0  0  0  0
  189.5640  176.3560  146.3570 C   0  0  0  0  0  3  0  0  0  0  0  0
  196.8620  176.6740  143.1370 C   0  0  0  0  0  1  0  0  0  0  0  0
  195.5380  176.3580  142.4680 C   0  0  0  0  0  2  0  0  0  0  0  0
  1  4  1  0  0  0  0
  2 17  1  0  0  0  0
  3  7  1  0  0  0  0
  4 12  1  0  0  0  0
  6  9  1  0  0  0  0
  8 26  1  6  0  0  0
  8 18  1  0  0  0  0
  9 13  1  0  0  0  0
  9  3  2  0  0  0  0
 10  7  1  6  0  0  0
 10 23  1  0  0  0  0
 10  5  1  0  0  0  0
 11  6  2  0  0  0  0
 11 16  1  0  0  0  0
 12  8  1  0  0  0  0
 13 21  1  0  0  0  0
 14  2  1  0  0  0  0
 15 28  1  0  0  0  0
 16 20  2  0  0  0  0
 17 13  1  0  0  0  0
 19  5  1  0  0  0  0
 19 18  1  1  0  0  0
 20  3  1  0  0  0  0
 20 15  1  0  0  0  0
 21  7  2  0  0  0  0
 21 27  1  0  0  0  0
 22  2  1  0  0  0  0
 22  6  1  0  0  0  0
 23 30  1  0  0  0  0
 24  2  1  0  0  0  0
 25 19  1  0  0  0  0
 27  1  1  1  0  0  0
 27 25  1  0  0  0  0
 28 23  2  0  0  0  0
 29 35  1  0  0  0  0
 30 29  2  0  0  0  0
 31 30  1  0  0  0  0
 31 34  2  0  0  0  0
 32 34  1  0  0  0  0
 33 35  2  0  0  0  0
 34 33  1  0  0  0  0
 37  4  1  0  0  0  0
 37 36  1  0  0  0  0
M  END
>  <MODEL>
8

>  <REMARK>
 VINA RESULT:      -7.1      2.287      6.010
  Name = 
  2 active torsions:
  status: ('A' for Active; 'I' for Inactive)
    1  A    between atoms: N_4  and  C_37
    2  A    between atoms: C_23  and  C_30
                            x       y       z     vdW  Elec       q    Type
                         _______ _______ _______ _____ _____    ______ ____

>  <TORSDO>
F 2

$$$$
=
 OpenBabel11112417073D

 37 43  0  0  1  0  0  0  0  0999 V2000
  194.2360  174.6780  143.3980 C   0  0  0  0  0  2  0  0  0  0  0  0
  194.7170  171.7480  139.3610 C   0  0  0  0  0  0  0  0  0  0  0  0
  191.0960  172.3500  141.3090 C   0  0  0  0  0  0  0  0  0  0  0  0
  195.2650  175.1230  144.3460 N   0  0  0  0  0  0  0  0  0  0  0  0
  190.9500  173.1990  145.0180 O   0  0  0  0  0  0  0  0  0  0  0  0
  192.2520  171.9970  139.2320 C   0  0  0  0  0  0  0  0  0  0  0  0
  191.4770  172.6770  142.5970 C   0  0  0  0  0  0  0  0  0  0  0  0
  193.3950  175.8740  145.9760 C   0  0  2  0  0  3  0  0  0  0  0  0
  192.2360  172.1720  140.5940 C   0  0  0  0  0  0  0  0  0  0  0  0
  190.4880  173.0970  143.6800 C   0  0  2  0  0  3  0  0  0  0  0  0
  191.0200  171.9790  138.5520 C   0  0  0  0  0  3  0  0  0  0  0  0
  194.7990  175.2640  145.7430 C   0  0  0  0  0  2  0  0  0  0  0  0
  193.3290  172.3670  141.3270 N   0  0  0  0  0  0  0  0  0  0  0  0
  195.8720  172.3030  138.5560 C   0  0  0  0  0  1  0  0  0  0  0  0
  188.5950  172.6610  141.4540 C   0  0  0  0  0  2  0  0  0  0  0  0
  189.8170  172.1690  139.2820 C   0  0  0  0  0  3  0  0  0  0  0  0
  194.6600  172.4840  140.7290 C   0  0  0  0  0  2  0  0  0  0  0  0
  192.3060  174.8240  146.2230 C   0  0  0  0  0  2  0  0  0  0  0  0
  192.1450  173.9230  145.0150 C   0  0  1  0  0  3  0  0  0  0  0  0
  189.8480  172.3790  140.6800 C   0  0  0  0  0  0  0  0  0  0  0  0
  192.8920  172.7110  142.5630 C   0  0  0  0  0  0  0  0  0  0  0  0
  193.4980  171.8960  138.6010 O   0  0  0  0  0  0  0  0  0  0  0  0
  189.5240  174.1820  143.2350 C   0  0  0  0  0  0  0  0  0  0  0  0
  194.9700  170.2720  139.6100 C   0  0  0  0  0  1  0  0  0  0  0  0
  193.2310  173.0400  144.9250 O   0  0  0  0  0  0  0  0  0  0  0  0
  193.0200  176.7830  144.9830 O   0  0  0  0  0  1  0  0  0  0  0  0
  193.8030  173.2210  143.6510 C   0  0  2  0  0  3  0  0  0  0  0  0
  188.6860  173.9610  142.2070 C   0  0  0  0  0  3  0  0  0  0  0  0
  190.1370  176.6000  143.2050 C   0  0  0  0  0  3  0  0  0  0  0  0
  189.5240  175.5190  143.8560 C   0  0  0  0  0  0  0  0  0  0  0  0
  188.8830  175.7320  145.0840 C   0  0  0  0  0  3  0  0  0  0  0  0
  188.2460  177.2040  146.8860 O   0  0  0  0  0  1  0  0  0  0  0  0
  189.4970  178.0740  145.0160 C   0  0  0  0  0  3  0  0  0  0  0  0
  188.8740  177.0040  145.6650 C   0  0  0  0  0  0  0  0  0  0  0  0
  190.1260  177.8720  143.7840 C   0  0  0  0  0  3  0  0  0  0  0  0
  197.0490  176.2370  143.1260 C   0  0  0  0  0  1  0  0  0  0  0  0
  195.7570  176.4160  143.8970 C   0  0  0  0  0  2  0  0  0  0  0  0
  1  4  1  0  0  0  0
  2 24  1  0  0  0  0
  2 17  1  0  0  0  0
  3  7  1  0  0  0  0
  4 12  1  0  0  0  0
  6  9  1  0  0  0  0
  8 26  1  6  0  0  0
  8 18  1  0  0  0  0
  9  3  2  0  0  0  0
  9 13  1  0  0  0  0
 10  7  1  6  0  0  0
 10  5  1  0  0  0  0
 11  6  2  0  0  0  0
 11 16  1  0  0  0  0
 12  8  1  0  0  0  0
 13 21  1  0  0  0  0
 14  2  1  0  0  0  0
 15 28  1  0  0  0  0
 16 20  2  0  0  0  0
 17 13  1  0  0  0  0
 19  5  1  0  0  0  0
 19 18  1  1  0  0  0
 20  3  1  0  0  0  0
 20 15  1  0  0  0  0
 21  7  2  0  0  0  0
 21 27  1  0  0  0  0
 22  6  1  0  0  0  0
 22  2  1  0  0  0  0
 23 10  1  0  0  0  0
 23 30  1  0  0  0  0
 25 19  1  0  0  0  0
 27  1  1  6  0  0  0
 27 25  1  0  0  0  0
 28 23  2  0  0  0  0
 29 35  2  0  0  0  0
 29 30  1  0  0  0  0
 30 31  2  0  0  0  0
 31 34  1  0  0  0  0
 33 34  2  0  0  0  0
 34 32  1  0  0  0  0
 35 33  1  0  0  0  0
 36 37  1  0  0  0  0
 37  4  1  0  0  0  0
M  END
>  <MODEL>
9

>  <REMARK>
 VINA RESULT:      -7.1      2.160      6.590
  Name = 
  2 active torsions:
  status: ('A' for Active; 'I' for Inactive)
    1  A    between atoms: N_4  and  C_37
    2  A    between atoms: C_23  and  C_30
                            x       y       z     vdW  Elec       q    Type
                         _______ _______ _______ _____ _____    ______ ____

>  <TORSDO>
F 2

$$$$
