=
 OpenBabel11112417443D

 34 42  0  0  1  0  0  0  0  0999 V2000
  186.1370  178.2260  145.6410 C   0  0  0  0  0  0  0  0  0  0  0  0
  183.9770  178.8070  144.6700 C   0  0  0  0  0  3  0  0  0  0  0  0
  192.5140  176.2500  144.9580 C   0  0  2  0  0  0  0  0  0  0  0  0
  188.3890  177.5840  146.3730 C   0  0  0  0  0  0  0  0  0  0  0  0
  190.0590  176.9720  144.7000 C   0  0  0  0  0  0  0  0  0  0  0  0
  192.0180  176.2800  143.0890 C   0  0  2  0  0  3  0  0  0  0  0  0
  193.1960  175.9670  143.7340 O   0  0  0  0  0  0  0  0  0  0  0  0
  191.9350  176.5730  147.2840 C   0  0  0  0  0  3  0  0  0  0  0  0
  185.5710  178.2270  143.3230 C   0  0  0  0  0  0  0  0  0  0  0  0
  185.3620  178.2920  140.1800 C   0  0  0  0  0  2  0  0  0  0  0  0
  189.1130  177.1910  143.6940 C   0  0  0  0  0  3  0  0  0  0  0  0
  190.5930  176.9700  147.1650 C   0  0  0  0  0  2  0  0  0  0  0  0
  186.8680  177.8120  142.9430 C   0  0  0  0  0  0  0  0  0  0  0  0
  183.4350  178.8540  143.4350 N   0  0  0  0  0  0  0  0  0  0  0  0
  189.7130  177.1630  146.0690 C   0  0  0  0  0  0  0  0  0  0  0  0
  192.8440  176.2360  146.2890 C   0  0  0  0  0  3  0  0  0  0  0  0
  184.2050  178.3270  141.1130 C   0  0  0  0  0  0  0  0  0  0  0  0
  187.4480  177.7980  145.3340 C   0  0  2  0  0  3  0  0  0  0  0  0
  191.3150  176.5690  144.2970 C   0  0  2  0  0  3  0  0  0  0  0  0
  187.8100  177.5990  143.9820 C   0  0  0  0  0  0  0  0  0  0  0  0
  186.6800  178.2210  147.9990 C   0  0  0  0  0  3  0  0  0  0  0  0
  186.3070  177.1760  140.5580 C   0  0  0  0  0  2  0  0  0  0  0  0
  187.9770  177.8020  147.7030 C   0  0  0  0  0  3  0  0  0  0  0  0
  187.3350  177.7380  141.5120 C   0  0  0  0  0  2  0  0  0  0  0  0
  184.4180  178.4830  142.5810 C   0  0  0  0  0  0  0  0  0  0  0  0
  185.7610  178.4330  146.9730 C   0  0  0  0  0  3  0  0  0  0  0  0
  185.2650  178.4200  144.6180 N   0  0  0  0  0  0  0  0  0  0  0  0
  183.0210  178.2300  140.5760 N   0  0  0  0  0  0  0  0  0  0  0  0
  181.7470  178.1910  141.2860 C   0  0  0  0  0  2  0  0  0  0  0  0
  178.5300  178.7210  141.4900 O   0  0  0  0  0  0  0  0  0  0  0  0
  180.2560  180.0270  140.5510 C   0  0  0  0  0  2  0  0  0  0  0  0
  180.6070  178.5800  140.3570 C   0  0  2  0  0  3  0  0  0  0  0  0
  178.8080  179.9950  140.9750 C   0  0  0  0  0  2  0  0  0  0  0  0
  179.3510  177.8450  140.7630 C   0  0  0  0  0  2  0  0  0  0  0  0
  1 26  2  0  0  0  0
  3 16  1  1  0  0  0
  4 23  1  0  0  0  0
  5 15  1  0  0  0  0
  6  7  1  6  0  0  0
  6 19  1  0  0  0  0
  6  3  1  0  0  0  0
  7  3  1  0  0  0  0
  9 27  1  0  0  0  0
 10 22  1  0  0  0  0
 10 17  1  0  0  0  0
 11 20  1  0  0  0  0
 11  5  2  0  0  0  0
 12  8  1  0  0  0  0
 13  9  1  0  0  0  0
 13 20  2  0  0  0  0
 14  2  2  0  0  0  0
 15  4  2  0  0  0  0
 15 12  1  0  0  0  0
 16  8  2  0  0  0  0
 17 25  1  0  0  0  0
 18 20  1  6  0  0  0
 18  1  1  0  0  0  0
 18  4  1  0  0  0  0
 19  5  1  1  0  0  0
 19  3  1  0  0  0  0
 22 24  1  0  0  0  0
 23 21  2  0  0  0  0
 24 13  1  0  0  0  0
 25  9  2  0  0  0  0
 25 14  1  0  0  0  0
 26 21  1  0  0  0  0
 27  2  1  0  0  0  0
 27  1  1  0  0  0  0
 28 17  2  0  0  0  0
 28 29  1  0  0  0  0
 31 33  1  0  0  0  0
 32 31  1  0  0  0  0
 32 34  1  0  0  0  0
 32 29  1  1  0  0  0
 33 30  1  0  0  0  0
 34 30  1  0  0  0  0
M  END
>  <MODEL>
1

>  <REMARK>
 VINA RESULT:     -10.4      0.000      0.000
  Name = 
  2 active torsions:
  status: ('A' for Active; 'I' for Inactive)
    1  A    between atoms: N_28  and  C_29
    2  A    between atoms: C_29  and  C_32
                            x       y       z     vdW  Elec       q    Type
                         _______ _______ _______ _____ _____    ______ ____

>  <TORSDO>
F 2

$$$$
=
 OpenBabel11112417443D

 34 42  0  0  1  0  0  0  0  0999 V2000
  189.5040  175.4220  142.6550 C   0  0  0  0  0  0  0  0  0  0  0  0
  191.6630  174.3190  142.3950 C   0  0  0  0  0  3  0  0  0  0  0  0
  185.0720  178.7900  146.4030 C   0  0  2  0  0  0  0  0  0  0  0  0
  187.3980  176.5710  143.1690 C   0  0  0  0  0  0  0  0  0  0  0  0
  187.0630  177.5090  145.3980 C   0  0  0  0  0  0  0  0  0  0  0  0
  186.4770  178.5990  147.7180 C   0  0  2  0  0  3  0  0  0  0  0  0
  185.2340  179.1940  147.7650 O   0  0  0  0  0  0  0  0  0  0  0  0
  184.2230  178.3990  144.1720 C   0  0  0  0  0  3  0  0  0  0  0  0
  191.1980  175.1960  144.3200 C   0  0  0  0  0  0  0  0  0  0  0  0
  193.2040  175.3420  146.7440 C   0  0  0  0  0  2  0  0  0  0  0  0
  188.3290  177.0480  145.7680 C   0  0  0  0  0  3  0  0  0  0  0  0
  185.3000  177.6980  143.6030 C   0  0  0  0  0  2  0  0  0  0  0  0
  190.4310  175.8930  145.2820 C   0  0  0  0  0  0  0  0  0  0  0  0
  192.7320  174.0550  143.1750 N   0  0  0  0  0  0  0  0  0  0  0  0
  186.5670  177.2760  144.0820 C   0  0  0  0  0  0  0  0  0  0  0  0
  184.0880  178.9140  145.4550 C   0  0  0  0  0  3  0  0  0  0  0  0
  193.3520  174.4460  145.5670 C   0  0  0  0  0  0  0  0  0  0  0  0
  188.6790  176.1130  143.5690 C   0  0  0  0  0  0  0  0  0  0  0  0
  186.3400  178.1850  146.3590 C   0  0  2  0  0  3  0  0  0  0  0  0
  189.1500  176.3510  144.8810 C   0  0  0  0  0  0  0  0  0  0  0  0
  187.7980  175.6240  140.9510 C   0  0  0  0  0  3  0  0  0  0  0  0
  191.8060  175.2440  147.3060 C   0  0  0  0  0  2  0  0  0  0  0  0
  186.9790  176.3110  141.8480 C   0  0  0  0  0  2  0  0  0  0  0  0
  190.9570  176.2980  146.6350 C   0  0  0  0  0  2  0  0  0  0  0  0
  192.4520  174.5890  144.3870 C   0  0  0  0  0  0  0  0  0  0  0  0
  189.0570  175.1800  141.3510 C   0  0  0  0  0  3  0  0  0  0  0  0
  190.7240  175.0000  143.0770 N   0  0  0  0  0  0  0  0  0  0  0  0
  194.3060  173.5590  145.6270 N   0  0  0  0  0  0  0  0  0  0  0  0
  194.6120  172.5460  144.6230 C   0  0  0  0  0  2  0  0  0  0  0  0
  197.1810  174.3930  143.8050 O   0  0  0  0  0  0  0  0  0  0  0  0
  196.8200  172.9780  145.6570 C   0  0  0  0  0  2  0  0  0  0  0  0
  196.1170  172.3830  144.4720 C   0  0  2  0  0  3  0  0  0  0  0  0
  197.7040  174.0430  145.0570 C   0  0  0  0  0  2  0  0  0  0  0  0
  196.6020  173.2150  143.3070 C   0  0  0  0  0  2  0  0  0  0  0  0
  1 27  1  0  0  0  0
  1 18  2  0  0  0  0
  2 27  1  0  0  0  0
  2 14  2  0  0  0  0
  3 16  1  1  0  0  0
  3  6  1  0  0  0  0
  3  7  1  0  0  0  0
  4 18  1  0  0  0  0
  4 15  2  0  0  0  0
  5 11  2  0  0  0  0
  6  7  1  6  0  0  0
  8 16  2  0  0  0  0
  9 25  2  0  0  0  0
  9 13  1  0  0  0  0
 10 22  1  0  0  0  0
 12 15  1  0  0  0  0
 12  8  1  0  0  0  0
 13 24  1  0  0  0  0
 14 25  1  0  0  0  0
 15  5  1  0  0  0  0
 17 28  2  0  0  0  0
 17 10  1  0  0  0  0
 18 20  1  0  0  0  0
 19  5  1  1  0  0  0
 19  3  1  0  0  0  0
 19  6  1  0  0  0  0
 20 13  2  0  0  0  0
 20 11  1  0  0  0  0
 21 26  2  0  0  0  0
 21 23  1  0  0  0  0
 23  4  1  0  0  0  0
 24 22  1  0  0  0  0
 25 17  1  0  0  0  0
 26  1  1  0  0  0  0
 27  9  1  0  0  0  0
 29 28  1  0  0  0  0
 30 33  1  0  0  0  0
 32 29  1  1  0  0  0
 32 31  1  0  0  0  0
 33 31  1  0  0  0  0
 34 30  1  0  0  0  0
 34 32  1  0  0  0  0
M  END
>  <MODEL>
2

>  <REMARK>
 VINA RESULT:      -9.7      3.881     10.208
  Name = 
  2 active torsions:
  status: ('A' for Active; 'I' for Inactive)
    1  A    between atoms: N_28  and  C_29
    2  A    between atoms: C_29  and  C_32
                            x       y       z     vdW  Elec       q    Type
                         _______ _______ _______ _____ _____    ______ ____

>  <TORSDO>
F 2

$$$$
=
 OpenBabel11112417443D

 34 42  0  0  1  0  0  0  0  0999 V2000
  189.4930  175.4700  142.6640 C   0  0  0  0  0  0  0  0  0  0  0  0
  191.6450  174.3430  142.4540 C   0  0  0  0  0  3  0  0  0  0  0  0
  185.0260  178.9130  146.3000 C   0  0  2  0  0  0  0  0  0  0  0  0
  187.3890  176.6440  143.1290 C   0  0  0  0  0  0  0  0  0  0  0  0
  187.0220  177.6040  145.3430 C   0  0  0  0  0  0  0  0  0  0  0  0
  186.4040  178.7210  147.6420 C   0  0  2  0  0  3  0  0  0  0  0  0
  185.1670  179.3290  147.6610 O   0  0  0  0  0  0  0  0  0  0  0  0
  184.2140  178.5110  144.0570 C   0  0  0  0  0  3  0  0  0  0  0  0
  191.1540  175.2430  144.3620 C   0  0  0  0  0  0  0  0  0  0  0  0
  193.1160  175.3910  146.8220 C   0  0  0  0  0  2  0  0  0  0  0  0
  188.2770  177.1350  145.7410 C   0  0  0  0  0  3  0  0  0  0  0  0
  185.2940  177.7950  143.5150 C   0  0  0  0  0  2  0  0  0  0  0  0
  190.3760  175.9550  145.3040 C   0  0  0  0  0  0  0  0  0  0  0  0
  192.6970  174.0760  143.2550 N   0  0  0  0  0  0  0  0  0  0  0  0
  186.5480  177.3650  144.0200 C   0  0  0  0  0  0  0  0  0  0  0  0
  184.0610  179.0380  145.3330 C   0  0  0  0  0  3  0  0  0  0  0  0
  193.2770  174.4830  145.6550 C   0  0  0  0  0  0  0  0  0  0  0  0
  188.6570  176.1770  143.5570 C   0  0  0  0  0  0  0  0  0  0  0  0
  186.2880  178.2960  146.2850 C   0  0  2  0  0  3  0  0  0  0  0  0
  189.1070  176.4220  144.8750 C   0  0  0  0  0  0  0  0  0  0  0  0
  187.8200  175.6730  140.9270 C   0  0  0  0  0  3  0  0  0  0  0  0
  191.7070  175.3110  147.3590 C   0  0  0  0  0  2  0  0  0  0  0  0
  186.9910  176.3760  141.8030 C   0  0  0  0  0  2  0  0  0  0  0  0
  190.8810  176.3680  146.6620 C   0  0  0  0  0  2  0  0  0  0  0  0
  192.4000  174.6240  144.4580 C   0  0  0  0  0  0  0  0  0  0  0  0
  189.0670  175.2210  141.3540 C   0  0  0  0  0  3  0  0  0  0  0  0
  190.7010  175.0400  143.1120 N   0  0  0  0  0  0  0  0  0  0  0  0
  194.2210  173.5880  145.7410 N   0  0  0  0  0  0  0  0  0  0  0  0
  194.5360  172.5630  144.7510 C   0  0  0  0  0  2  0  0  0  0  0  0
  196.8380  170.3980  143.9230 O   0  0  0  0  0  0  0  0  0  0  0  0
  196.6680  171.8410  145.7810 C   0  0  0  0  0  2  0  0  0  0  0  0
  195.2830  171.4070  145.3990 C   0  0  2  0  0  3  0  0  0  0  0  0
  197.5670  170.9090  145.0060 C   0  0  0  0  0  2  0  0  0  0  0  0
  195.5130  170.3170  144.3780 C   0  0  0  0  0  2  0  0  0  0  0  0
  1 27  1  0  0  0  0
  1 18  2  0  0  0  0
  2 27  1  0  0  0  0
  2 14  2  0  0  0  0
  3 16  1  1  0  0  0
  3  6  1  0  0  0  0
  3  7  1  0  0  0  0
  4 18  1  0  0  0  0
  4 15  2  0  0  0  0
  5 11  2  0  0  0  0
  6  7  1  6  0  0  0
  8 16  2  0  0  0  0
  9 25  2  0  0  0  0
  9 13  1  0  0  0  0
 10 22  1  0  0  0  0
 12 15  1  0  0  0  0
 12  8  1  0  0  0  0
 13 24  1  0  0  0  0
 14 25  1  0  0  0  0
 15  5  1  0  0  0  0
 17 28  2  0  0  0  0
 17 10  1  0  0  0  0
 18 20  1  0  0  0  0
 19  5  1  1  0  0  0
 19  3  1  0  0  0  0
 19  6  1  0  0  0  0
 20 13  2  0  0  0  0
 20 11  1  0  0  0  0
 21 26  2  0  0  0  0
 21 23  1  0  0  0  0
 23  4  1  0  0  0  0
 24 22  1  0  0  0  0
 25 17  1  0  0  0  0
 26  1  1  0  0  0  0
 27  9  1  0  0  0  0
 29 28  1  0  0  0  0
 30 34  1  0  0  0  0
 30 33  1  0  0  0  0
 32 29  1  6  0  0  0
 32 31  1  0  0  0  0
 33 31  1  0  0  0  0
 34 32  1  0  0  0  0
M  END
>  <MODEL>
3

>  <REMARK>
 VINA RESULT:      -9.4      4.121     10.342
  Name = 
  2 active torsions:
  status: ('A' for Active; 'I' for Inactive)
    1  A    between atoms: N_28  and  C_29
    2  A    between atoms: C_29  and  C_32
                            x       y       z     vdW  Elec       q    Type
                         _______ _______ _______ _____ _____    ______ ____

>  <TORSDO>
F 2

$$$$
=
 OpenBabel11112417443D

 34 42  0  0  1  0  0  0  0  0999 V2000
  189.0170  175.9100  145.9140 C   0  0  0  0  0  0  0  0  0  0  0  0
  191.0840  174.9700  146.8020 C   0  0  0  0  0  3  0  0  0  0  0  0
  185.2190  177.8190  140.7210 C   0  0  2  0  0  0  0  0  0  0  0  0
  187.0470  176.8370  144.7810 C   0  0  0  0  0  0  0  0  0  0  0  0
  187.0200  176.9570  142.3430 C   0  0  0  0  0  0  0  0  0  0  0  0
  186.7580  177.1840  139.7360 C   0  0  2  0  0  3  0  0  0  0  0  0
  185.5570  177.7290  139.3340 O   0  0  0  0  0  0  0  0  0  0  0  0
  184.0990  178.2210  142.8260 C   0  0  0  0  0  3  0  0  0  0  0  0
  190.8980  175.1590  144.6530 C   0  0  0  0  0  0  0  0  0  0  0  0
  193.0200  174.1010  142.5790 C   0  0  0  0  0  2  0  0  0  0  0  0
  188.3000  176.3960  142.3130 C   0  0  0  0  0  3  0  0  0  0  0  0
  185.0690  177.7550  143.7300 C   0  0  0  0  0  2  0  0  0  0  0  0
  190.2800  175.4830  143.4230 C   0  0  0  0  0  0  0  0  0  0  0  0
  192.2520  174.5160  146.3020 N   0  0  0  0  0  0  0  0  0  0  0  0
  186.3640  177.1920  143.5860 C   0  0  0  0  0  0  0  0  0  0  0  0
  184.1380  178.2640  141.4380 C   0  0  0  0  0  3  0  0  0  0  0  0
  193.2760  174.3160  144.0280 C   0  0  0  0  0  0  0  0  0  0  0  0
  188.3460  176.2710  144.7240 C   0  0  2  0  0  3  0  0  0  0  0  0
  186.4440  177.2620  141.1260 C   0  0  2  0  0  3  0  0  0  0  0  0
  188.9810  176.0490  143.4800 C   0  0  0  0  0  0  0  0  0  0  0  0
  187.1290  176.6770  147.2180 C   0  0  0  0  0  3  0  0  0  0  0  0
  192.3530  175.3150  141.9790 C   0  0  0  0  0  2  0  0  0  0  0  0
  186.4590  177.0320  146.0470 C   0  0  0  0  0  3  0  0  0  0  0  0
  190.8570  175.1230  142.0780 C   0  0  0  0  0  2  0  0  0  0  0  0
  192.1560  174.6380  144.9570 C   0  0  0  0  0  0  0  0  0  0  0  0
  188.4040  176.1180  147.1540 C   0  0  0  0  0  3  0  0  0  0  0  0
  190.2590  175.3700  145.8170 N   0  0  0  0  0  0  0  0  0  0  0  0
  194.5120  174.1930  144.4250 N   0  0  0  0  0  0  0  0  0  0  0  0
  195.0120  174.4030  145.7790 C   0  0  0  0  0  2  0  0  0  0  0  0
  197.2520  172.1790  144.9340 O   0  0  0  0  0  0  0  0  0  0  0  0
  197.1000  174.4830  144.4500 C   0  0  0  0  0  2  0  0  0  0  0  0
  196.5260  174.2550  145.8180 C   0  0  2  0  0  3  0  0  0  0  0  0
  197.8050  173.1870  144.1320 C   0  0  0  0  0  2  0  0  0  0  0  0
  196.8870  172.8200  146.1280 C   0  0  0  0  0  2  0  0  0  0  0  0
  1 26  2  0  0  0  0
  3 19  1  0  0  0  0
  3 16  1  1  0  0  0
  4 23  1  0  0  0  0
  5 15  1  0  0  0  0
  6  7  1  6  0  0  0
  6  3  1  0  0  0  0
  6 19  1  0  0  0  0
  7  3  1  0  0  0  0
  8 12  1  0  0  0  0
  9 25  2  0  0  0  0
  9 27  1  0  0  0  0
 10 17  1  0  0  0  0
 11  5  2  0  0  0  0
 11 20  1  0  0  0  0
 13 20  2  0  0  0  0
 13  9  1  0  0  0  0
 14  2  2  0  0  0  0
 15 12  1  0  0  0  0
 15  4  2  0  0  0  0
 16  8  2  0  0  0  0
 17 28  2  0  0  0  0
 17 25  1  0  0  0  0
 18 20  1  6  0  0  0
 18  4  1  0  0  0  0
 18  1  1  0  0  0  0
 19  5  1  1  0  0  0
 22 24  1  0  0  0  0
 22 10  1  0  0  0  0
 23 21  2  0  0  0  0
 24 13  1  0  0  0  0
 25 14  1  0  0  0  0
 26 21  1  0  0  0  0
 27  1  1  0  0  0  0
 27  2  1  0  0  0  0
 28 29  1  0  0  0  0
 30 34  1  0  0  0  0
 31 32  1  0  0  0  0
 32 29  1  6  0  0  0
 32 34  1  0  0  0  0
 33 31  1  0  0  0  0
 33 30  1  0  0  0  0
M  END
>  <MODEL>
4

>  <REMARK>
 VINA RESULT:      -9.0      3.681      9.894
  Name = 
  2 active torsions:
  status: ('A' for Active; 'I' for Inactive)
    1  A    between atoms: N_28  and  C_29
    2  A    between atoms: C_29  and  C_32
                            x       y       z     vdW  Elec       q    Type
                         _______ _______ _______ _____ _____    ______ ____

>  <TORSDO>
F 2

$$$$
=
 OpenBabel11112417443D

 34 42  0  0  1  0  0  0  0  0999 V2000
  192.5600  176.0500  144.5220 C   0  0  0  0  0  0  0  0  0  0  0  0
  191.0460  177.8210  143.8040 C   0  0  0  0  0  3  0  0  0  0  0  0
  194.2990  169.5720  144.7310 C   0  0  2  0  0  0  0  0  0  0  0  0
  193.9170  174.0980  145.1310 C   0  0  0  0  0  0  0  0  0  0  0  0
  193.2290  171.8830  144.3710 C   0  0  0  0  0  0  0  0  0  0  0  0
  192.6930  169.4060  143.6680 C   0  0  2  0  0  3  0  0  0  0  0  0
  193.6060  168.4790  144.1240 O   0  0  0  0  0  0  0  0  0  0  0  0
  195.8740  170.9470  145.9480 C   0  0  0  0  0  3  0  0  0  0  0  0
  190.5760  175.7890  143.2230 C   0  0  0  0  0  0  0  0  0  0  0  0
  188.1910  174.9810  141.3300 C   0  0  0  0  0  2  0  0  0  0  0  0
  192.1220  172.4570  143.7390 C   0  0  0  0  0  3  0  0  0  0  0  0
  195.3060  172.2190  145.7630 C   0  0  0  0  0  2  0  0  0  0  0  0
  190.7470  174.3880  143.1330 C   0  0  0  0  0  0  0  0  0  0  0  0
  189.8920  177.9070  143.1110 N   0  0  0  0  0  0  0  0  0  0  0  0
  194.1540  172.6970  145.0870 C   0  0  0  0  0  0  0  0  0  0  0  0
  195.4350  169.7120  145.4870 C   0  0  0  0  0  3  0  0  0  0  0  0
  188.3210  176.2870  142.0290 C   0  0  0  0  0  0  0  0  0  0  0  0
  192.7860  174.6560  144.4830 C   0  0  2  0  0  3  0  0  0  0  0  0
  193.3670  170.5150  144.2630 C   0  0  2  0  0  3  0  0  0  0  0  0
  191.8780  173.8310  143.7810 C   0  0  0  0  0  0  0  0  0  0  0  0
  194.5610  176.3430  145.8510 C   0  0  0  0  0  3  0  0  0  0  0  0
  188.4200  173.8430  142.2960 C   0  0  0  0  0  2  0  0  0  0  0  0
  194.7920  174.9680  145.8130 C   0  0  0  0  0  3  0  0  0  0  0  0
  189.8910  173.4970  142.2700 C   0  0  0  0  0  2  0  0  0  0  0  0
  189.5780  176.6400  142.7500 C   0  0  0  0  0  0  0  0  0  0  0  0
  193.4500  176.8850  145.2080 C   0  0  0  0  0  3  0  0  0  0  0  0
  191.4660  176.5460  143.8880 N   0  0  0  0  0  0  0  0  0  0  0  0
  187.2950  177.0880  141.9610 N   0  0  0  0  0  0  0  0  0  0  0  0
  187.1690  178.3920  142.6030 C   0  0  0  0  0  2  0  0  0  0  0  0
  184.8160  177.7380  144.7740 O   0  0  0  0  0  0  0  0  0  0  0  0
  185.5780  179.7880  143.8880 C   0  0  0  0  0  2  0  0  0  0  0  0
  185.7040  178.7420  142.8190 C   0  0  2  0  0  3  0  0  0  0  0  0
  184.7250  179.1260  144.9430 C   0  0  0  0  0  2  0  0  0  0  0  0
  184.9780  177.5470  143.3930 C   0  0  0  0  0  2  0  0  0  0  0  0
  1 26  2  0  0  0  0
  2 27  1  0  0  0  0
  3 16  1  1  0  0  0
  4 23  1  0  0  0  0
  5 15  1  0  0  0  0
  6  7  1  6  0  0  0
  6 19  1  0  0  0  0
  6  3  1  0  0  0  0
  7  3  1  0  0  0  0
  9 27  1  0  0  0  0
 10 17  1  0  0  0  0
 10 22  1  0  0  0  0
 11 20  1  0  0  0  0
 11  5  2  0  0  0  0
 12  8  1  0  0  0  0
 13  9  1  0  0  0  0
 13 20  2  0  0  0  0
 14  2  2  0  0  0  0
 15  4  2  0  0  0  0
 15 12  1  0  0  0  0
 16  8  2  0  0  0  0
 17 25  1  0  0  0  0
 18 20  1  6  0  0  0
 18  1  1  0  0  0  0
 18  4  1  0  0  0  0
 19  5  1  1  0  0  0
 19  3  1  0  0  0  0
 23 21  2  0  0  0  0
 24 22  1  0  0  0  0
 24 13  1  0  0  0  0
 25 14  1  0  0  0  0
 25  9  2  0  0  0  0
 26 21  1  0  0  0  0
 27  1  1  0  0  0  0
 28 17  2  0  0  0  0
 28 29  1  0  0  0  0
 30 33  1  0  0  0  0
 31 33  1  0  0  0  0
 32 29  1  1  0  0  0
 32 34  1  0  0  0  0
 32 31  1  0  0  0  0
 34 30  1  0  0  0  0
M  END
>  <MODEL>
5

>  <REMARK>
 VINA RESULT:      -8.8      4.050      6.365
  Name = 
  2 active torsions:
  status: ('A' for Active; 'I' for Inactive)
    1  A    between atoms: N_28  and  C_29
    2  A    between atoms: C_29  and  C_32
                            x       y       z     vdW  Elec       q    Type
                         _______ _______ _______ _____ _____    ______ ____

>  <TORSDO>
F 2

$$$$
=
 OpenBabel11112417443D

 34 42  0  0  1  0  0  0  0  0999 V2000
  191.2180  175.9620  145.7480 C   0  0  0  0  0  0  0  0  0  0  0  0
  193.3060  174.7230  145.9700 C   0  0  0  0  0  3  0  0  0  0  0  0
  186.1140  178.1960  142.0080 C   0  0  2  0  0  0  0  0  0  0  0  0
  189.1290  177.1550  145.2660 C   0  0  0  0  0  0  0  0  0  0  0  0
  188.2350  177.1270  142.9950 C   0  0  0  0  0  0  0  0  0  0  0  0
  187.0800  177.2360  140.6350 C   0  0  2  0  0  3  0  0  0  0  0  0
  185.9070  177.9610  140.6120 O   0  0  0  0  0  0  0  0  0  0  0  0
  185.9070  178.9220  144.3060 C   0  0  0  0  0  3  0  0  0  0  0  0
  192.3820  174.8090  144.0140 C   0  0  0  0  0  0  0  0  0  0  0  0
  193.4280  173.2610  141.4770 C   0  0  0  0  0  2  0  0  0  0  0  0
  189.3200  176.3450  142.5910 C   0  0  0  0  0  3  0  0  0  0  0  0
  187.0600  178.3460  144.8650 C   0  0  0  0  0  2  0  0  0  0  0  0
  191.4140  175.1620  143.0450 C   0  0  0  0  0  0  0  0  0  0  0  0
  194.1330  174.0370  145.1550 N   0  0  0  0  0  0  0  0  0  0  0  0
  188.1170  177.5530  144.3500 C   0  0  0  0  0  0  0  0  0  0  0  0
  185.4440  178.8710  142.9960 C   0  0  0  0  0  3  0  0  0  0  0  0
  194.2210  173.5160  142.7090 C   0  0  0  0  0  0  0  0  0  0  0  0
  190.2210  176.3630  144.8310 C   0  0  2  0  0  3  0  0  0  0  0  0
  187.3080  177.4540  142.0270 C   0  0  2  0  0  3  0  0  0  0  0  0
  190.3210  175.9550  143.4820 C   0  0  0  0  0  0  0  0  0  0  0  0
  190.0660  177.1350  147.5240 C   0  0  0  0  0  3  0  0  0  0  0  0
  192.7720  174.5350  141.0030 C   0  0  0  0  0  2  0  0  0  0  0  0
  189.0750  177.5310  146.6240 C   0  0  0  0  0  3  0  0  0  0  0  0
  191.4040  174.6210  141.6390 C   0  0  0  0  0  2  0  0  0  0  0  0
  193.5740  174.0900  143.9230 C   0  0  0  0  0  0  0  0  0  0  0  0
  191.1350  176.3530  147.0890 C   0  0  0  0  0  3  0  0  0  0  0  0
  192.2480  175.2030  145.2920 N   0  0  0  0  0  0  0  0  0  0  0  0
  195.4850  173.1980  142.6630 N   0  0  0  0  0  0  0  0  0  0  0  0
  196.4680  173.3980  143.7230 C   0  0  0  0  0  2  0  0  0  0  0  0
  196.8200  175.6000  141.3350 O   0  0  0  0  0  0  0  0  0  0  0  0
  196.8070  175.8500  143.6810 C   0  0  0  0  0  2  0  0  0  0  0  0
  197.4260  174.5220  143.3560 C   0  0  2  0  0  3  0  0  0  0  0  0
  196.7630  176.5630  142.3510 C   0  0  0  0  0  2  0  0  0  0  0  0
  197.6080  174.5630  141.8570 C   0  0  0  0  0  2  0  0  0  0  0  0
  1 26  2  0  0  0  0
  3 19  1  0  0  0  0
  3 16  1  6  0  0  0
  4 23  1  0  0  0  0
  5 15  1  0  0  0  0
  6  7  1  1  0  0  0
  6  3  1  0  0  0  0
  6 19  1  0  0  0  0
  7  3  1  0  0  0  0
  8 12  1  0  0  0  0
  9 27  1  0  0  0  0
 10 17  1  0  0  0  0
 11  5  2  0  0  0  0
 11 20  1  0  0  0  0
 13 20  2  0  0  0  0
 13  9  1  0  0  0  0
 14  2  2  0  0  0  0
 15 12  1  0  0  0  0
 15  4  2  0  0  0  0
 16  8  2  0  0  0  0
 17 25  1  0  0  0  0
 18 20  1  1  0  0  0
 18  4  1  0  0  0  0
 18  1  1  0  0  0  0
 19  5  1  6  0  0  0
 22 10  1  0  0  0  0
 22 24  1  0  0  0  0
 23 21  2  0  0  0  0
 24 13  1  0  0  0  0
 25  9  2  0  0  0  0
 25 14  1  0  0  0  0
 26 21  1  0  0  0  0
 27  1  1  0  0  0  0
 27  2  1  0  0  0  0
 28 17  2  0  0  0  0
 28 29  1  0  0  0  0
 30 34  1  0  0  0  0
 30 33  1  0  0  0  0
 32 31  1  0  0  0  0
 32 29  1  6  0  0  0
 33 31  1  0  0  0  0
 34 32  1  0  0  0  0
M  END
>  <MODEL>
6

>  <REMARK>
 VINA RESULT:      -8.7      4.101      9.832
  Name = 
  2 active torsions:
  status: ('A' for Active; 'I' for Inactive)
    1  A    between atoms: N_28  and  C_29
    2  A    between atoms: C_29  and  C_32
                            x       y       z     vdW  Elec       q    Type
                         _______ _______ _______ _____ _____    ______ ____

>  <TORSDO>
F 2

$$$$
=
 OpenBabel11112417443D

 34 42  0  0  1  0  0  0  0  0999 V2000
  190.0320  174.6580  144.9860 C   0  0  0  0  0  0  0  0  0  0  0  0
  191.6570  173.0570  144.1280 C   0  0  0  0  0  3  0  0  0  0  0  0
  184.5810  178.4800  144.1420 C   0  0  2  0  0  0  0  0  0  0  0  0
  188.2890  176.2700  145.6090 C   0  0  0  0  0  0  0  0  0  0  0  0
  186.5840  176.8760  143.9700 C   0  0  0  0  0  0  0  0  0  0  0  0
  184.6460  177.6770  142.3830 C   0  0  2  0  0  3  0  0  0  0  0  0
  183.7820  178.5830  142.9600 O   0  0  0  0  0  0  0  0  0  0  0  0
  185.4970  178.7310  146.3650 C   0  0  0  0  0  3  0  0  0  0  0  0
  190.0790  173.7110  142.7970 C   0  0  0  0  0  0  0  0  0  0  0  0
  189.6050  172.5730  139.8980 C   0  0  0  0  0  2  0  0  0  0  0  0
  187.1870  176.0200  143.0450 C   0  0  0  0  0  3  0  0  0  0  0  0
  186.5970  177.8600  146.2930 C   0  0  0  0  0  2  0  0  0  0  0  0
  188.9240  174.4230  142.3980 C   0  0  0  0  0  0  0  0  0  0  0  0
  191.8910  172.4240  142.9600 N   0  0  0  0  0  0  0  0  0  0  0  0
  187.1280  177.0210  145.2800 C   0  0  0  0  0  0  0  0  0  0  0  0
  184.5520  179.0380  145.3940 C   0  0  0  0  0  3  0  0  0  0  0  0
  190.8610  172.4210  140.6800 C   0  0  0  0  0  0  0  0  0  0  0  0
  188.8830  175.4100  144.6510 C   0  0  2  0  0  3  0  0  0  0  0  0
  185.4590  177.5550  143.5510 C   0  0  2  0  0  3  0  0  0  0  0  0
  188.3310  175.2830  143.3560 C   0  0  0  0  0  0  0  0  0  0  0  0
  190.0150  175.6140  147.2100 C   0  0  0  0  0  3  0  0  0  0  0  0
  189.1500  174.0130  139.9100 C   0  0  0  0  0  2  0  0  0  0  0  0
  188.8790  176.3560  146.8860 C   0  0  0  0  0  3  0  0  0  0  0  0
  188.2190  174.2000  141.0850 C   0  0  0  0  0  2  0  0  0  0  0  0
  190.9180  172.8320  142.1120 C   0  0  0  0  0  0  0  0  0  0  0  0
  190.5920  174.7670  146.2640 C   0  0  0  0  0  3  0  0  0  0  0  0
  190.5700  173.8450  144.0410 N   0  0  0  0  0  0  0  0  0  0  0  0
  191.8790  171.9060  140.0490 N   0  0  0  0  0  0  0  0  0  0  0  0
  193.2200  171.7050  140.5880 C   0  0  0  0  0  2  0  0  0  0  0  0
  193.4130  174.9650  140.4750 O   0  0  0  0  0  0  0  0  0  0  0  0
  194.9800  173.3450  141.1740 C   0  0  0  0  0  2  0  0  0  0  0  0
  194.1740  172.7610  140.0500 C   0  0  2  0  0  3  0  0  0  0  0  0
  194.6390  174.8150  141.1380 C   0  0  0  0  0  2  0  0  0  0  0  0
  193.3840  173.9360  139.5210 C   0  0  0  0  0  2  0  0  0  0  0  0
  1 26  2  0  0  0  0
  3 16  1  6  0  0  0
  4 23  1  0  0  0  0
  5 15  1  0  0  0  0
  6  7  1  1  0  0  0
  6 19  1  0  0  0  0
  6  3  1  0  0  0  0
  7  3  1  0  0  0  0
  9 27  1  0  0  0  0
 10 22  1  0  0  0  0
 10 17  1  0  0  0  0
 11 20  1  0  0  0  0
 11  5  2  0  0  0  0
 12  8  1  0  0  0  0
 13  9  1  0  0  0  0
 13 20  2  0  0  0  0
 14  2  2  0  0  0  0
 15  4  2  0  0  0  0
 15 12  1  0  0  0  0
 16  8  2  0  0  0  0
 17 25  1  0  0  0  0
 18 20  1  1  0  0  0
 18  1  1  0  0  0  0
 18  4  1  0  0  0  0
 19  5  1  6  0  0  0
 19  3  1  0  0  0  0
 22 24  1  0  0  0  0
 23 21  2  0  0  0  0
 24 13  1  0  0  0  0
 25  9  2  0  0  0  0
 25 14  1  0  0  0  0
 26 21  1  0  0  0  0
 27  2  1  0  0  0  0
 27  1  1  0  0  0  0
 28 29  1  0  0  0  0
 28 17  2  0  0  0  0
 30 33  1  0  0  0  0
 32 29  1  1  0  0  0
 32 31  1  0  0  0  0
 33 31  1  0  0  0  0
 34 32  1  0  0  0  0
 34 30  1  0  0  0  0
M  END
>  <MODEL>
7

>  <REMARK>
 VINA RESULT:      -8.7      4.036      8.707
  Name = 
  2 active torsions:
  status: ('A' for Active; 'I' for Inactive)
    1  A    between atoms: N_28  and  C_29
    2  A    between atoms: C_29  and  C_32
                            x       y       z     vdW  Elec       q    Type
                         _______ _______ _______ _____ _____    ______ ____

>  <TORSDO>
F 2

$$$$
=
 OpenBabel11112417443D

 34 42  0  0  1  0  0  0  0  0999 V2000
  192.4620  176.0140  145.0870 C   0  0  0  0  0  0  0  0  0  0  0  0
  190.5790  177.4980  144.6440 C   0  0  0  0  0  3  0  0  0  0  0  0
  195.4640  170.0410  144.5000 C   0  0  1  0  0  0  0  0  0  0  0  0
  194.2190  174.3320  145.4100 C   0  0  0  0  0  0  0  0  0  0  0  0
  193.9320  172.1060  144.4480 C   0  0  0  0  0  0  0  0  0  0  0  0
  193.8510  169.6530  143.5060 C   0  0  2  0  0  3  0  0  0  0  0  0
  194.9600  168.8930  143.8130 O   0  0  0  0  0  0  0  0  0  0  0  0
  196.8160  171.5850  145.7780 C   0  0  0  0  0  3  0  0  0  0  0  0
  190.4810  175.4780  143.8690 C   0  0  0  0  0  0  0  0  0  0  0  0
  188.1760  174.3850  142.0220 C   0  0  0  0  0  2  0  0  0  0  0  0
  192.6920  172.5000  143.9390 C   0  0  0  0  0  3  0  0  0  0  0  0
  195.9950  172.7250  145.7620 C   0  0  0  0  0  2  0  0  0  0  0  0
  190.9200  174.1570  143.6180 C   0  0  0  0  0  0  0  0  0  0  0  0
  189.3840  177.4110  144.0240 N   0  0  0  0  0  0  0  0  0  0  0  0
  194.7260  173.0200  145.2010 C   0  0  0  0  0  0  0  0  0  0  0  0
  196.6010  170.3370  145.2080 C   0  0  0  0  0  3  0  0  0  0  0  0
  188.0930  175.6160  142.8520 C   0  0  0  0  0  0  0  0  0  0  0  0
  192.9560  174.7060  144.8850 C   0  0  2  0  0  3  0  0  0  0  0  0
  194.3320  170.8130  144.1850 C   0  0  2  0  0  3  0  0  0  0  0  0
  192.1830  173.7840  144.1440 C   0  0  0  0  0  0  0  0  0  0  0  0
  194.4540  176.5810  146.3380 C   0  0  0  0  0  3  0  0  0  0  0  0
  188.6950  173.2310  142.8450 C   0  0  0  0  0  2  0  0  0  0  0  0
  194.9510  175.2920  146.1380 C   0  0  0  0  0  3  0  0  0  0  0  0
  190.1990  173.1970  142.7070 C   0  0  0  0  0  2  0  0  0  0  0  0
  189.3020  176.1480  143.5420 C   0  0  0  0  0  0  0  0  0  0  0  0
  193.2140  176.9430  145.8140 C   0  0  0  0  0  3  0  0  0  0  0  0
  191.2490  176.3330  144.5670 N   0  0  0  0  0  0  0  0  0  0  0  0
  186.9260  176.1930  142.9230 N   0  0  0  0  0  0  0  0  0  0  0  0
  186.5890  177.3750  143.7090 C   0  0  0  0  0  2  0  0  0  0  0  0
  186.4660  177.9330  146.9260 O   0  0  0  0  0  0  0  0  0  0  0  0
  184.8180  178.1540  145.2530 C   0  0  0  0  0  2  0  0  0  0  0  0
  185.7020  176.9980  144.8870 C   0  0  2  0  0  3  0  0  0  0  0  0
  185.1870  178.4530  146.6860 C   0  0  0  0  0  2  0  0  0  0  0  0
  186.5560  176.7900  146.1170 C   0  0  0  0  0  2  0  0  0  0  0  0
  1 26  2  0  0  0  0
  3 16  1  6  0  0  0
  4 23  1  0  0  0  0
  5 15  1  0  0  0  0
  6  7  1  6  0  0  0
  6 19  1  0  0  0  0
  6  3  1  0  0  0  0
  7  3  1  0  0  0  0
  9 27  1  0  0  0  0
 10 22  1  0  0  0  0
 10 17  1  0  0  0  0
 11 20  1  0  0  0  0
 11  5  2  0  0  0  0
 12  8  1  0  0  0  0
 13  9  1  0  0  0  0
 13 20  2  0  0  0  0
 14  2  2  0  0  0  0
 15  4  2  0  0  0  0
 15 12  1  0  0  0  0
 16  8  2  0  0  0  0
 17 28  2  0  0  0  0
 17 25  1  0  0  0  0
 18 20  1  6  0  0  0
 18  1  1  0  0  0  0
 18  4  1  0  0  0  0
 19  5  1  1  0  0  0
 19  3  1  0  0  0  0
 23 21  2  0  0  0  0
 24 22  1  0  0  0  0
 24 13  1  0  0  0  0
 25  9  2  0  0  0  0
 25 14  1  0  0  0  0
 26 21  1  0  0  0  0
 27  2  1  0  0  0  0
 27  1  1  0  0  0  0
 28 29  1  0  0  0  0
 31 33  1  0  0  0  0
 32 29  1  6  0  0  0
 32 31  1  0  0  0  0
 32 34  1  0  0  0  0
 33 30  1  0  0  0  0
 34 30  1  0  0  0  0
M  END
>  <MODEL>
8

>  <REMARK>
 VINA RESULT:      -8.6      4.048      6.707
  Name = 
  2 active torsions:
  status: ('A' for Active; 'I' for Inactive)
    1  A    between atoms: N_28  and  C_29
    2  A    between atoms: C_29  and  C_32
                            x       y       z     vdW  Elec       q    Type
                         _______ _______ _______ _____ _____    ______ ____

>  <TORSDO>
F 2

$$$$
=
 OpenBabel11112417443D

 34 42  0  0  1  0  0  0  0  0999 V2000
  189.7800  174.5360  144.9390 C   0  0  0  0  0  0  0  0  0  0  0  0
  191.3670  172.9330  144.0130 C   0  0  0  0  0  3  0  0  0  0  0  0
  184.4480  178.5510  144.2470 C   0  0  2  0  0  0  0  0  0  0  0  0
  188.0780  176.1630  145.6290 C   0  0  0  0  0  0  0  0  0  0  0  0
  186.4060  176.9010  144.0100 C   0  0  0  0  0  0  0  0  0  0  0  0
  184.5070  177.8370  142.4510 C   0  0  2  0  0  3  0  0  0  0  0  0
  183.6630  178.7380  143.0660 O   0  0  0  0  0  0  0  0  0  0  0  0
  185.3500  178.6630  146.4880 C   0  0  0  0  0  3  0  0  0  0  0  0
  189.8210  173.7000  142.7050 C   0  0  0  0  0  0  0  0  0  0  0  0
  189.3410  172.7250  139.7480 C   0  0  0  0  0  2  0  0  0  0  0  0
  186.9930  176.0760  143.0470 C   0  0  0  0  0  3  0  0  0  0  0  0
  186.4250  177.7650  146.3810 C   0  0  0  0  0  2  0  0  0  0  0  0
  188.6900  174.4640  142.3330 C   0  0  0  0  0  0  0  0  0  0  0  0
  191.5940  172.3540  142.8160 N   0  0  0  0  0  0  0  0  0  0  0  0
  186.9420  176.9630  145.3300 C   0  0  0  0  0  0  0  0  0  0  0  0
  184.4240  179.0460  145.5260 C   0  0  0  0  0  3  0  0  0  0  0  0
  190.5850  172.4970  140.5310 C   0  0  0  0  0  0  0  0  0  0  0  0
  188.6560  175.3360  144.6340 C   0  0  2  0  0  3  0  0  0  0  0  0
  185.3050  177.6330  143.6170 C   0  0  2  0  0  3  0  0  0  0  0  0
  188.1120  175.2910  143.3300 C   0  0  0  0  0  0  0  0  0  0  0  0
  189.7690  175.3770  147.2080 C   0  0  0  0  0  3  0  0  0  0  0  0
  188.9280  174.1750  139.8290 C   0  0  0  0  0  2  0  0  0  0  0  0
  188.6580  176.1670  146.9140 C   0  0  0  0  0  3  0  0  0  0  0  0
  187.9910  174.3280  141.0050 C   0  0  0  0  0  2  0  0  0  0  0  0
  190.6400  172.8330  141.9820 C   0  0  0  0  0  0  0  0  0  0  0  0
  190.3300  174.5630  146.2250 C   0  0  0  0  0  3  0  0  0  0  0  0
  190.3040  173.7560  143.9580 N   0  0  0  0  0  0  0  0  0  0  0  0
  191.5940  171.9850  139.8830 N   0  0  0  0  0  0  0  0  0  0  0  0
  192.9240  171.7190  140.4210 C   0  0  0  0  0  2  0  0  0  0  0  0
  192.8310  169.0620  142.3210 O   0  0  0  0  0  0  0  0  0  0  0  0
  191.9990  169.4390  140.1460 C   0  0  0  0  0  2  0  0  0  0  0  0
  193.2580  170.2390  140.3080 C   0  0  2  0  0  3  0  0  0  0  0  0
  192.0050  168.5070  141.3330 C   0  0  0  0  0  2  0  0  0  0  0  0
  193.8320  169.7490  141.6180 C   0  0  0  0  0  2  0  0  0  0  0  0
  1 26  2  0  0  0  0
  3 16  1  6  0  0  0
  4 23  1  0  0  0  0
  5 15  1  0  0  0  0
  6  7  1  1  0  0  0
  6 19  1  0  0  0  0
  6  3  1  0  0  0  0
  7  3  1  0  0  0  0
  9 27  1  0  0  0  0
 10 22  1  0  0  0  0
 10 17  1  0  0  0  0
 11 20  1  0  0  0  0
 11  5  2  0  0  0  0
 12  8  1  0  0  0  0
 13  9  1  0  0  0  0
 13 20  2  0  0  0  0
 14  2  2  0  0  0  0
 15  4  2  0  0  0  0
 15 12  1  0  0  0  0
 16  8  2  0  0  0  0
 17 25  1  0  0  0  0
 18 20  1  1  0  0  0
 18  1  1  0  0  0  0
 18  4  1  0  0  0  0
 19  5  1  6  0  0  0
 19  3  1  0  0  0  0
 22 24  1  0  0  0  0
 23 21  2  0  0  0  0
 24 13  1  0  0  0  0
 25  9  2  0  0  0  0
 25 14  1  0  0  0  0
 26 21  1  0  0  0  0
 27  2  1  0  0  0  0
 27  1  1  0  0  0  0
 28 29  1  0  0  0  0
 28 17  2  0  0  0  0
 31 32  1  0  0  0  0
 31 33  1  0  0  0  0
 32 29  1  1  0  0  0
 32 34  1  0  0  0  0
 33 30  1  0  0  0  0
 34 30  1  0  0  0  0
M  END
>  <MODEL>
9

>  <REMARK>
 VINA RESULT:      -8.6      4.604      8.922
  Name = 
  2 active torsions:
  status: ('A' for Active; 'I' for Inactive)
    1  A    between atoms: N_28  and  C_29
    2  A    between atoms: C_29  and  C_32
                            x       y       z     vdW  Elec       q    Type
                         _______ _______ _______ _____ _____    ______ ____

>  <TORSDO>
F 2

$$$$
