=
 OpenBabel11112416313D

 32 37  0  0  1  0  0  0  0  0999 V2000
  186.5380  176.9170  146.9350 C   0  0  0  0  0  2  0  0  0  0  0  0
  190.7140  176.1080  143.5960 C   0  0  0  0  0  0  0  0  0  0  0  0
  189.3700  172.5970  140.5020 C   0  0  0  0  0  3  0  0  0  0  0  0
  190.5420  171.8940  140.7890 C   0  0  0  0  0  3  0  0  0  0  0  0
  192.9150  175.9090  144.8760 C   0  0  0  0  0  0  0  0  0  0  0  0
  194.1080  175.0980  145.1000 C   0  0  0  0  0  0  0  0  0  0  0  0
  188.9530  177.3240  144.9410 C   0  0  1  0  0  3  0  0  0  0  0  0
  188.2790  176.5180  142.3420 S   0  0  0  0  0  0  0  0  0  0  0  0
  195.4920  173.2410  144.7990 C   0  0  2  0  0  3  0  0  0  0  0  0
  186.4640  177.0370  144.3610 C   0  0  0  0  0  2  0  0  0  0  0  0
  189.1220  173.8230  141.1210 C   0  0  0  0  0  3  0  0  0  0  0  0
  189.8010  175.5970  142.6560 C   0  0  0  0  0  0  0  0  0  0  0  0
  190.0410  174.3600  142.0360 C   0  0  0  0  0  0  0  0  0  0  0  0
  192.1580  174.1640  143.2390 C   0  0  0  0  0  0  0  0  0  0  0  0
  196.0850  174.1990  145.8460 C   0  0  0  0  0  2  0  0  0  0  0  0
  187.8210  176.0800  146.8920 C   0  0  0  0  0  2  0  0  0  0  0  0
  187.8960  176.5390  144.1230 C   0  0  2  0  0  3  0  0  0  0  0  0
  195.0900  175.3240  145.9480 C   0  0  0  0  0  3  0  0  0  0  0  0
  189.0570  176.8430  146.3970 C   0  0  0  0  0  2  0  0  0  0  0  0
  186.2770  177.7800  145.6900 C   0  0  1  0  0  3  0  0  0  0  0  0
  191.4650  172.4170  141.6960 C   0  0  0  0  0  3  0  0  0  0  0  0
  191.2270  173.6470  142.3270 C   0  0  0  0  0  0  0  0  0  0  0  0
  193.3310  173.4320  143.5030 O   0  0  0  0  0  0  0  0  0  0  0  0
  190.3460  177.3900  144.2950 C   0  0  0  0  0  2  0  0  0  0  0  0
  192.7620  176.9920  145.5040 O   0  0  0  0  0  0  0  0  0  0  0  0
  196.4420  173.1210  143.6230 C   0  0  0  0  0  1  0  0  0  0  0  0
  191.9080  175.4060  143.8910 C   0  0  0  0  0  0  0  0  0  0  0  0
  194.2790  173.9080  144.3830 N   0  0  0  0  0  0  0  0  0  0  0  0
  184.8780  178.3740  145.7430 C   0  0  0  0  0  2  0  0  0  0  0  0
  184.6140  179.2120  144.5370 C   0  0  0  0  0  0  0  0  0  0  0  0
  183.5950  178.9940  143.8310 O   0  0  0  0  0  0  0  0  0  0  0  0
  185.4770  180.2490  144.2090 O   0  0  0  0  0  1  0  0  0  0  0  0
  2 27  1  0  0  0  0
  2 24  1  0  0  0  0
  3  4  2  0  0  0  0
  3 11  1  0  0  0  0
  4 21  1  0  0  0  0
  5  6  1  0  0  0  0
  5 25  2  0  0  0  0
  6 18  2  0  0  0  0
  7 24  1  6  0  0  0
  7 19  1  0  0  0  0
  8 12  1  0  0  0  0
  8 17  1  0  0  0  0
  9 26  1  6  0  0  0
  9 15  1  0  0  0  0
 10 20  1  0  0  0  0
 11 13  2  0  0  0  0
 12  2  2  0  0  0  0
 13 22  1  0  0  0  0
 13 12  1  0  0  0  0
 14 23  1  0  0  0  0
 14 27  2  0  0  0  0
 15 18  1  0  0  0  0
 16  1  1  0  0  0  0
 17 10  1  6  0  0  0
 17  7  1  0  0  0  0
 19 16  1  0  0  0  0
 20 29  1  1  0  0  0
 20  1  1  0  0  0  0
 21 22  2  0  0  0  0
 22 14  1  0  0  0  0
 23 28  1  0  0  0  0
 27  5  1  0  0  0  0
 28  9  1  0  0  0  0
 28  6  1  0  0  0  0
 30 29  1  0  0  0  0
 31 30  2  0  0  0  0
 32 30  1  0  0  0  0
M  END
>  <MODEL>
1

>  <REMARK>
 VINA RESULT:      -9.0      0.000      0.000
  Name = 
  2 active torsions:
  status: ('A' for Active; 'I' for Inactive)
    1  A    between atoms: C_20  and  C_29
    2  A    between atoms: C_29  and  C_30
                            x       y       z     vdW  Elec       q    Type
                         _______ _______ _______ _____ _____    ______ ____

>  <TORSDO>
F 2

$$$$
=
 OpenBabel11112416313D

 32 37  0  0  1  0  0  0  0  0999 V2000
  190.2790  173.4730  142.4530 C   0  0  0  0  0  2  0  0  0  0  0  0
  187.1830  177.8630  143.0770 C   0  0  0  0  0  0  0  0  0  0  0  0
  186.1760  178.1990  147.8290 C   0  0  0  0  0  3  0  0  0  0  0  0
  184.8160  178.3080  147.5340 C   0  0  0  0  0  3  0  0  0  0  0  0
  185.2920  177.9300  141.3630 C   0  0  0  0  0  0  0  0  0  0  0  0
  183.8510  178.0550  141.1650 C   0  0  0  0  0  0  0  0  0  0  0  0
  189.0940  176.3980  142.3090 C   0  0  1  0  0  3  0  0  0  0  0  0
  189.3840  177.7380  144.7540 S   0  0  0  0  0  0  0  0  0  0  0  0
  181.6310  178.2800  141.8550 C   0  0  2  0  0  3  0  0  0  0  0  0
  190.7660  175.4590  144.0240 C   0  0  0  0  0  2  0  0  0  0  0  0
  187.1060  178.0690  146.7960 C   0  0  0  0  0  3  0  0  0  0  0  0
  187.6190  177.9210  144.4130 C   0  0  0  0  0  0  0  0  0  0  0  0
  186.6870  178.0430  145.4570 C   0  0  0  0  0  0  0  0  0  0  0  0
  184.8690  178.1270  143.8290 C   0  0  0  0  0  0  0  0  0  0  0  0
  181.7150  178.1480  140.3260 C   0  0  0  0  0  2  0  0  0  0  0  0
  188.7920  173.8400  142.3960 C   0  0  0  0  0  2  0  0  0  0  0  0
  189.4290  176.1820  143.8070 C   0  0  2  0  0  3  0  0  0  0  0  0
  183.1830  177.9940  140.0310 C   0  0  0  0  0  3  0  0  0  0  0  0
  188.4920  175.1470  141.6490 C   0  0  0  0  0  2  0  0  0  0  0  0
  191.2260  174.6280  142.8190 C   0  0  1  0  0  3  0  0  0  0  0  0
  184.3850  178.2850  146.2060 C   0  0  0  0  0  3  0  0  0  0  0  0
  185.3100  178.1530  145.1590 C   0  0  0  0  0  0  0  0  0  0  0  0
  183.4900  178.2430  143.5660 O   0  0  0  0  0  0  0  0  0  0  0  0
  188.2260  177.6310  142.0160 C   0  0  0  0  0  2  0  0  0  0  0  0
  186.0540  177.7860  140.3690 O   0  0  0  0  0  0  0  0  0  0  0  0
  181.0270  179.6220  142.2180 C   0  0  0  0  0  1  0  0  0  0  0  0
  185.8060  177.9770  142.7660 C   0  0  0  0  0  0  0  0  0  0  0  0
  183.0140  178.2350  142.2720 N   0  0  0  0  0  0  0  0  0  0  0  0
  192.6280  174.1010  143.0750 C   0  0  0  0  0  2  0  0  0  0  0  0
  193.6050  175.2240  143.1710 C   0  0  0  0  0  0  0  0  0  0  0  0
  194.3560  175.3200  144.1760 O   0  0  0  0  0  1  0  0  0  0  0  0
  193.7060  176.1470  142.1390 O   0  0  0  0  0  0  0  0  0  0  0  0
  1 20  1  0  0  0  0
  2 12  1  0  0  0  0
  4  3  1  0  0  0  0
  5 27  1  0  0  0  0
  6  5  1  0  0  0  0
  6 28  1  0  0  0  0
  7 19  1  1  0  0  0
  7 17  1  0  0  0  0
  9 26  1  6  0  0  0
  9 28  1  0  0  0  0
 11  3  2  0  0  0  0
 12  8  1  0  0  0  0
 12 13  2  0  0  0  0
 13 11  1  0  0  0  0
 14 22  2  0  0  0  0
 15  9  1  0  0  0  0
 16  1  1  0  0  0  0
 17 10  1  6  0  0  0
 17  8  1  0  0  0  0
 18 15  1  0  0  0  0
 18  6  2  0  0  0  0
 19 16  1  0  0  0  0
 20 29  1  1  0  0  0
 20 10  1  0  0  0  0
 21  4  2  0  0  0  0
 22 13  1  0  0  0  0
 22 21  1  0  0  0  0
 23 14  1  0  0  0  0
 24  7  1  0  0  0  0
 24  2  1  0  0  0  0
 25  5  2  0  0  0  0
 27  2  2  0  0  0  0
 27 14  1  0  0  0  0
 28 23  1  0  0  0  0
 29 30  1  0  0  0  0
 30 31  1  0  0  0  0
 32 30  2  0  0  0  0
M  END
>  <MODEL>
2

>  <REMARK>
 VINA RESULT:      -8.8      3.272      9.186
  Name = 
  2 active torsions:
  status: ('A' for Active; 'I' for Inactive)
    1  A    between atoms: C_20  and  C_29
    2  A    between atoms: C_29  and  C_30
                            x       y       z     vdW  Elec       q    Type
                         _______ _______ _______ _____ _____    ______ ____

>  <TORSDO>
F 2

$$$$
=
 OpenBabel11112416313D

 32 37  0  0  1  0  0  0  0  0999 V2000
  194.7050  175.4740  145.6810 C   0  0  0  0  0  2  0  0  0  0  0  0
  189.3540  174.9740  145.0760 C   0  0  0  0  0  0  0  0  0  0  0  0
  188.4890  174.9160  140.2850 C   0  0  0  0  0  3  0  0  0  0  0  0
  187.5350  175.9230  140.4440 C   0  0  0  0  0  3  0  0  0  0  0  0
  188.0830  176.5960  146.5840 C   0  0  0  0  0  0  0  0  0  0  0  0
  187.0650  177.6410  146.6400 C   0  0  0  0  0  0  0  0  0  0  0  0
  191.6970  174.5440  145.9240 C   0  0  1  0  0  3  0  0  0  0  0  0
  190.8680  173.1580  143.6320 S   0  0  0  0  0  0  0  0  0  0  0  0
  185.4810  179.1030  145.7410 C   0  0  2  0  0  3  0  0  0  0  0  0
  193.4990  173.6430  144.3260 C   0  0  0  0  0  2  0  0  0  0  0  0
  189.1750  174.4230  141.3950 C   0  0  0  0  0  3  0  0  0  0  0  0
  189.5980  174.4330  143.8010 C   0  0  0  0  0  0  0  0  0  0  0  0
  188.9170  174.9310  142.6780 C   0  0  0  0  0  0  0  0  0  0  0  0
  187.6800  176.4750  144.1100 C   0  0  0  0  0  0  0  0  0  0  0  0
  185.6250  179.3200  147.2570 C   0  0  0  0  0  2  0  0  0  0  0  0
  193.4730  176.3840  145.6110 C   0  0  0  0  0  2  0  0  0  0  0  0
  192.0870  174.2310  144.4570 C   0  0  2  0  0  3  0  0  0  0  0  0
  186.6780  178.3350  147.6890 C   0  0  0  0  0  3  0  0  0  0  0  0
  192.2700  175.8810  146.4200 C   0  0  0  0  0  2  0  0  0  0  0  0
  194.4230  173.9730  145.5050 C   0  0  1  0  0  3  0  0  0  0  0  0
  187.2680  176.4370  141.7140 C   0  0  0  0  0  3  0  0  0  0  0  0
  187.9520  175.9510  142.8380 C   0  0  0  0  0  0  0  0  0  0  0  0
  186.7090  177.4870  144.2360 O   0  0  0  0  0  0  0  0  0  0  0  0
  190.1910  174.4620  146.2190 C   0  0  0  0  0  2  0  0  0  0  0  0
  188.6720  176.2330  147.6380 O   0  0  0  0  0  0  0  0  0  0  0  0
  184.0650  178.6660  145.4210 C   0  0  0  0  0  1  0  0  0  0  0  0
  188.3860  175.9930  145.2490 C   0  0  0  0  0  0  0  0  0  0  0  0
  186.4010  178.0220  145.4680 N   0  0  0  0  0  0  0  0  0  0  0  0
  195.7250  173.2050  145.3560 C   0  0  0  0  0  2  0  0  0  0  0  0
  195.4620  171.7460  145.1950 C   0  0  0  0  0  0  0  0  0  0  0  0
  195.9520  171.1220  144.2180 O   0  0  0  0  0  0  0  0  0  0  0  0
  194.7010  171.0680  146.1380 O   0  0  0  0  0  1  0  0  0  0  0  0
  2 27  1  0  0  0  0
  2 24  1  0  0  0  0
  3  4  2  0  0  0  0
  3 11  1  0  0  0  0
  4 21  1  0  0  0  0
  5  6  1  0  0  0  0
  5 25  2  0  0  0  0
  6 18  2  0  0  0  0
  7 24  1  6  0  0  0
  7 19  1  0  0  0  0
  8 12  1  0  0  0  0
  8 17  1  0  0  0  0
  9 26  1  1  0  0  0
  9 15  1  0  0  0  0
 10 20  1  0  0  0  0
 11 13  2  0  0  0  0
 12  2  2  0  0  0  0
 13 22  1  0  0  0  0
 13 12  1  0  0  0  0
 14 23  1  0  0  0  0
 14 27  2  0  0  0  0
 15 18  1  0  0  0  0
 16  1  1  0  0  0  0
 16 19  1  0  0  0  0
 17 10  1  1  0  0  0
 17  7  1  0  0  0  0
 20 29  1  6  0  0  0
 20  1  1  0  0  0  0
 21 22  2  0  0  0  0
 22 14  1  0  0  0  0
 23 28  1  0  0  0  0
 27  5  1  0  0  0  0
 28  9  1  0  0  0  0
 28  6  1  0  0  0  0
 30 29  1  0  0  0  0
 30 32  1  0  0  0  0
 31 30  2  0  0  0  0
M  END
>  <MODEL>
3

>  <REMARK>
 VINA RESULT:      -8.5      2.629      7.824
  Name = 
  2 active torsions:
  status: ('A' for Active; 'I' for Inactive)
    1  A    between atoms: C_20  and  C_29
    2  A    between atoms: C_29  and  C_30
                            x       y       z     vdW  Elec       q    Type
                         _______ _______ _______ _____ _____    ______ ____

>  <TORSDO>
F 2

$$$$
=
 OpenBabel11112416313D

 32 37  0  0  1  0  0  0  0  0999 V2000
  189.3480  171.9160  140.9110 C   0  0  0  0  0  2  0  0  0  0  0  0
  189.3630  176.6310  143.5610 C   0  0  0  0  0  0  0  0  0  0  0  0
  192.8410  176.3170  146.9540 C   0  0  0  0  0  3  0  0  0  0  0  0
  191.9300  176.7270  147.9280 C   0  0  0  0  0  3  0  0  0  0  0  0
  187.0010  177.3470  144.2160 C   0  0  0  0  0  0  0  0  0  0  0  0
  186.1320  177.7720  145.3100 C   0  0  0  0  0  0  0  0  0  0  0  0
  189.3470  174.9900  141.6380 C   0  0  1  0  0  3  0  0  0  0  0  0
  191.8380  175.8060  142.6310 S   0  0  0  0  0  0  0  0  0  0  0  0
  185.6200  178.2840  147.5300 C   0  0  2  0  0  3  0  0  0  0  0  0
  191.3800  173.4720  141.2250 C   0  0  0  0  0  2  0  0  0  0  0  0
  192.4350  176.1960  145.6240 C   0  0  0  0  0  3  0  0  0  0  0  0
  190.6990  176.3730  143.9150 C   0  0  0  0  0  0  0  0  0  0  0  0
  191.1120  176.4830  145.2530 C   0  0  0  0  0  0  0  0  0  0  0  0
  188.8630  177.1880  145.8920 C   0  0  0  0  0  0  0  0  0  0  0  0
  184.3710  178.4070  146.6410 C   0  0  0  0  0  2  0  0  0  0  0  0
  188.6310  172.5590  142.1040 C   0  0  0  0  0  2  0  0  0  0  0  0
  190.6980  174.4590  142.1810 C   0  0  2  0  0  3  0  0  0  0  0  0
  184.8420  178.0350  145.2600 C   0  0  0  0  0  3  0  0  0  0  0  0
  188.1860  174.0080  141.8670 C   0  0  0  0  0  2  0  0  0  0  0  0
  190.4190  172.7930  140.2410 C   0  0  1  0  0  3  0  0  0  0  0  0
  190.6110  177.0170  147.5730 C   0  0  0  0  0  3  0  0  0  0  0  0
  190.1890  176.8980  146.2400 C   0  0  0  0  0  0  0  0  0  0  0  0
  187.9690  177.6030  146.8980 O   0  0  0  0  0  0  0  0  0  0  0  0
  188.9660  176.3960  142.1280 C   0  0  0  0  0  2  0  0  0  0  0  0
  186.5380  177.2390  143.0480 O   0  0  0  0  0  0  0  0  0  0  0  0
  185.9410  179.6320  148.1460 C   0  0  0  0  0  1  0  0  0  0  0  0
  188.4300  177.0520  144.5410 C   0  0  0  0  0  0  0  0  0  0  0  0
  186.6600  177.9100  146.5980 N   0  0  0  0  0  0  0  0  0  0  0  0
  191.2170  171.9760  139.2370 C   0  0  0  0  0  2  0  0  0  0  0  0
  190.9910  172.4760  137.8510 C   0  0  0  0  0  0  0  0  0  0  0  0
  191.1780  171.7110  136.8680 O   0  0  0  0  0  0  0  0  0  0  0  0
  190.5480  173.7750  137.6430 O   0  0  0  0  0  1  0  0  0  0  0  0
  1 16  1  0  0  0  0
  2 12  2  0  0  0  0
  2 27  1  0  0  0  0
  3  4  1  0  0  0  0
  5 27  1  0  0  0  0
  5  6  1  0  0  0  0
  6 28  1  0  0  0  0
  7 19  1  1  0  0  0
  7 24  1  0  0  0  0
  7 17  1  0  0  0  0
  8 12  1  0  0  0  0
  9 26  1  6  0  0  0
 11  3  2  0  0  0  0
 12 13  1  0  0  0  0
 13 11  1  0  0  0  0
 13 22  2  0  0  0  0
 14 22  1  0  0  0  0
 14 23  1  0  0  0  0
 15  9  1  0  0  0  0
 17 10  1  6  0  0  0
 17  8  1  0  0  0  0
 18  6  2  0  0  0  0
 18 15  1  0  0  0  0
 19 16  1  0  0  0  0
 20 29  1  6  0  0  0
 20  1  1  0  0  0  0
 20 10  1  0  0  0  0
 21  4  2  0  0  0  0
 22 21  1  0  0  0  0
 24  2  1  0  0  0  0
 25  5  2  0  0  0  0
 27 14  2  0  0  0  0
 28 23  1  0  0  0  0
 28  9  1  0  0  0  0
 30 29  1  0  0  0  0
 31 30  2  0  0  0  0
 32 30  1  0  0  0  0
M  END
>  <MODEL>
4

>  <REMARK>
 VINA RESULT:      -8.4      2.990      7.943
  Name = 
  2 active torsions:
  status: ('A' for Active; 'I' for Inactive)
    1  A    between atoms: C_20  and  C_29
    2  A    between atoms: C_29  and  C_30
                            x       y       z     vdW  Elec       q    Type
                         _______ _______ _______ _____ _____    ______ ____

>  <TORSDO>
F 2

$$$$
=
 OpenBabel11112416313D

 32 37  0  0  1  0  0  0  0  0999 V2000
  194.8670  176.1410  145.3550 C   0  0  0  0  0  2  0  0  0  0  0  0
  189.7160  174.9290  144.2380 C   0  0  0  0  0  0  0  0  0  0  0  0
  189.6470  173.1670  139.7000 C   0  0  0  0  0  3  0  0  0  0  0  0
  188.6330  174.0670  139.3650 C   0  0  0  0  0  3  0  0  0  0  0  0
  188.1410  176.8290  144.8950 C   0  0  0  0  0  0  0  0  0  0  0  0
  187.0800  177.7230  144.4420 C   0  0  0  0  0  0  0  0  0  0  0  0
  191.9070  175.0490  145.4940 C   0  0  1  0  0  3  0  0  0  0  0  0
  191.5290  172.8940  143.7420 S   0  0  0  0  0  0  0  0  0  0  0  0
  185.5960  178.6270  142.8820 C   0  0  2  0  0  3  0  0  0  0  0  0
  193.9850  173.8470  144.5750 C   0  0  0  0  0  2  0  0  0  0  0  0
  190.1650  173.1500  140.9960 C   0  0  0  0  0  3  0  0  0  0  0  0
  190.1890  174.0160  143.2790 C   0  0  0  0  0  0  0  0  0  0  0  0
  189.6780  174.0340  141.9720 C   0  0  0  0  0  0  0  0  0  0  0  0
  188.1530  175.8380  142.5890 C   0  0  0  0  0  0  0  0  0  0  0  0
  185.4800  179.3570  144.2300 C   0  0  0  0  0  2  0  0  0  0  0  0
  193.6210  176.8440  144.8030 C   0  0  0  0  0  2  0  0  0  0  0  0
  192.5450  174.3000  144.2980 C   0  0  2  0  0  3  0  0  0  0  0  0
  186.4940  178.6890  145.1200 C   0  0  0  0  0  3  0  0  0  0  0  0
  192.3280  176.5260  145.5650 C   0  0  0  0  0  2  0  0  0  0  0  0
  194.6880  174.6480  145.6780 C   0  0  1  0  0  3  0  0  0  0  0  0
  188.1390  174.9510  140.3260 C   0  0  0  0  0  3  0  0  0  0  0  0
  188.6520  174.9450  141.6310 C   0  0  0  0  0  0  0  0  0  0  0  0
  187.1270  176.7300  142.2200 O   0  0  0  0  0  0  0  0  0  0  0  0
  190.3780  174.9210  145.5910 C   0  0  0  0  0  2  0  0  0  0  0  0
  188.5670  176.9050  146.0790 O   0  0  0  0  0  0  0  0  0  0  0  0
  184.2730  177.9680  142.5450 C   0  0  0  0  0  1  0  0  0  0  0  0
  188.6850  175.8440  143.9100 C   0  0  0  0  0  0  0  0  0  0  0  0
  186.5980  177.6160  143.1330 N   0  0  0  0  0  0  0  0  0  0  0  0
  196.0320  174.0100  145.9870 C   0  0  0  0  0  2  0  0  0  0  0  0
  196.7290  173.6110  144.7310 C   0  0  0  0  0  0  0  0  0  0  0  0
  197.3100  174.4810  144.0300 O   0  0  0  0  0  0  0  0  0  0  0  0
  196.7610  172.2770  144.3460 O   0  0  0  0  0  1  0  0  0  0  0  0
  1 20  1  0  0  0  0
  2 24  1  0  0  0  0
  3 11  1  0  0  0  0
  4  3  2  0  0  0  0
  4 21  1  0  0  0  0
  5 25  2  0  0  0  0
  6  5  1  0  0  0  0
  6 18  2  0  0  0  0
  7 19  1  6  0  0  0
  7 24  1  0  0  0  0
  8 17  1  0  0  0  0
  9 26  1  1  0  0  0
  9 28  1  0  0  0  0
  9 15  1  0  0  0  0
 10 20  1  0  0  0  0
 11 13  2  0  0  0  0
 12  8  1  0  0  0  0
 12  2  2  0  0  0  0
 13 12  1  0  0  0  0
 14 27  2  0  0  0  0
 15 18  1  0  0  0  0
 16  1  1  0  0  0  0
 16 19  1  0  0  0  0
 17 10  1  1  0  0  0
 17  7  1  0  0  0  0
 20 29  1  6  0  0  0
 21 22  2  0  0  0  0
 22 13  1  0  0  0  0
 22 14  1  0  0  0  0
 23 14  1  0  0  0  0
 23 28  1  0  0  0  0
 27  2  1  0  0  0  0
 27  5  1  0  0  0  0
 28  6  1  0  0  0  0
 30 29  1  0  0  0  0
 31 30  2  0  0  0  0
 32 30  1  0  0  0  0
M  END
>  <MODEL>
5

>  <REMARK>
 VINA RESULT:      -8.3      2.633      7.699
  Name = 
  2 active torsions:
  status: ('A' for Active; 'I' for Inactive)
    1  A    between atoms: C_20  and  C_29
    2  A    between atoms: C_29  and  C_30
                            x       y       z     vdW  Elec       q    Type
                         _______ _______ _______ _____ _____    ______ ____

>  <TORSDO>
F 2

$$$$
=
 OpenBabel11112416313D

 32 37  0  0  1  0  0  0  0  0999 V2000
  186.2520  177.6570  144.3290 C   0  0  0  0  0  2  0  0  0  0  0  0
  190.7780  174.7230  143.9320 C   0  0  0  0  0  0  0  0  0  0  0  0
  194.1040  176.8980  146.7440 C   0  0  0  0  0  3  0  0  0  0  0  0
  195.0060  176.8990  145.6790 C   0  0  0  0  0  3  0  0  0  0  0  0
  191.3260  174.1680  141.5000 C   0  0  0  0  0  0  0  0  0  0  0  0
  192.3450  174.2150  140.4550 C   0  0  0  0  0  0  0  0  0  0  0  0
  188.3310  175.2810  144.2380 C   0  0  1  0  0  3  0  0  0  0  0  0
  189.9550  175.2570  146.5220 S   0  0  0  0  0  0  0  0  0  0  0  0
  194.4380  174.7390  139.5620 C   0  0  2  0  0  3  0  0  0  0  0  0
  187.5640  176.6230  146.2930 C   0  0  0  0  0  2  0  0  0  0  0  0
  192.8310  176.3510  146.5800 C   0  0  0  0  0  3  0  0  0  0  0  0
  191.1660  175.2420  145.1800 C   0  0  0  0  0  0  0  0  0  0  0  0
  192.4430  175.8010  145.3490 C   0  0  0  0  0  0  0  0  0  0  0  0
  192.9890  175.2600  143.0310 C   0  0  0  0  0  0  0  0  0  0  0  0
  193.5350  174.1010  138.4940 C   0  0  0  0  0  2  0  0  0  0  0  0
  187.4820  177.5720  143.4190 C   0  0  0  0  0  2  0  0  0  0  0  0
  188.7570  176.1300  145.4630 C   0  0  2  0  0  3  0  0  0  0  0  0
  192.2310  173.8370  139.1990 C   0  0  0  0  0  3  0  0  0  0  0  0
  187.8920  176.1420  143.0420 C   0  0  0  0  0  2  0  0  0  0  0  0
  186.2440  176.6770  145.5130 C   0  0  1  0  0  3  0  0  0  0  0  0
  194.6340  176.3530  144.4490 C   0  0  0  0  0  3  0  0  0  0  0  0
  193.3560  175.8020  144.2700 C   0  0  0  0  0  0  0  0  0  0  0  0
  193.9240  175.2720  141.9780 O   0  0  0  0  0  0  0  0  0  0  0  0
  189.3610  174.2310  143.7940 C   0  0  0  0  0  2  0  0  0  0  0  0
  190.1910  173.6800  141.2510 O   0  0  0  0  0  0  0  0  0  0  0  0
  195.6570  173.8660  139.7860 C   0  0  0  0  0  1  0  0  0  0  0  0
  191.6860  174.7150  142.8450 C   0  0  0  0  0  0  0  0  0  0  0  0
  193.6100  174.7390  140.7470 N   0  0  0  0  0  0  0  0  0  0  0  0
  185.1080  177.0100  146.4670 C   0  0  0  0  0  2  0  0  0  0  0  0
  184.8560  178.4790  146.4950 C   0  0  0  0  0  0  0  0  0  0  0  0
  183.8660  178.9600  145.8830 O   0  0  0  0  0  0  0  0  0  0  0  0
  185.6960  179.3160  147.2180 O   0  0  0  0  0  1  0  0  0  0  0  0
  1 20  1  0  0  0  0
  2 12  1  0  0  0  0
  4  3  1  0  0  0  0
  5 27  1  0  0  0  0
  6 28  1  0  0  0  0
  6  5  1  0  0  0  0
  7 19  1  6  0  0  0
  7 17  1  0  0  0  0
  9 26  1  1  0  0  0
  9 28  1  0  0  0  0
 11  3  2  0  0  0  0
 12 13  2  0  0  0  0
 12  8  1  0  0  0  0
 13 11  1  0  0  0  0
 14 22  2  0  0  0  0
 15 18  1  0  0  0  0
 15  9  1  0  0  0  0
 16  1  1  0  0  0  0
 17 10  1  1  0  0  0
 17  8  1  0  0  0  0
 18  6  2  0  0  0  0
 19 16  1  0  0  0  0
 20 10  1  0  0  0  0
 20 29  1  1  0  0  0
 21  4  2  0  0  0  0
 22 21  1  0  0  0  0
 22 13  1  0  0  0  0
 23 14  1  0  0  0  0
 24  2  1  0  0  0  0
 24  7  1  0  0  0  0
 25  5  2  0  0  0  0
 27 14  1  0  0  0  0
 27  2  2  0  0  0  0
 28 23  1  0  0  0  0
 29 30  1  0  0  0  0
 30 32  1  0  0  0  0
 31 30  2  0  0  0  0
M  END
>  <MODEL>
6

>  <REMARK>
 VINA RESULT:      -8.2      2.325      4.481
  Name = 
  2 active torsions:
  status: ('A' for Active; 'I' for Inactive)
    1  A    between atoms: C_20  and  C_29
    2  A    between atoms: C_29  and  C_30
                            x       y       z     vdW  Elec       q    Type
                         _______ _______ _______ _____ _____    ______ ____

>  <TORSDO>
F 2

$$$$
=
 OpenBabel11112416313D

 32 37  0  0  1  0  0  0  0  0999 V2000
  187.0820  176.7890  146.8550 C   0  0  0  0  0  2  0  0  0  0  0  0
  191.3540  175.9350  143.6500 C   0  0  0  0  0  0  0  0  0  0  0  0
  190.0080  172.5760  140.3920 C   0  0  0  0  0  3  0  0  0  0  0  0
  191.1410  171.8220  140.6990 C   0  0  0  0  0  3  0  0  0  0  0  0
  193.4950  175.6150  145.0050 C   0  0  0  0  0  0  0  0  0  0  0  0
  194.6480  174.7530  145.2470 C   0  0  0  0  0  0  0  0  0  0  0  0
  189.5860  177.1710  144.9680 C   0  0  1  0  0  3  0  0  0  0  0  0
  188.9850  176.4740  142.3200 S   0  0  0  0  0  0  0  0  0  0  0  0
  195.9770  172.8580  144.9360 C   0  0  2  0  0  3  0  0  0  0  0  0
  187.1130  176.9940  144.2850 C   0  0  0  0  0  2  0  0  0  0  0  0
  189.7790  173.7900  141.0430 C   0  0  0  0  0  3  0  0  0  0  0  0
  190.4610  175.4880  142.6600 C   0  0  0  0  0  0  0  0  0  0  0  0
  190.6810  174.2640  142.0090 C   0  0  0  0  0  0  0  0  0  0  0  0
  192.7400  173.9520  143.2830 C   0  0  0  0  0  0  0  0  0  0  0  0
  196.5620  173.7590  146.0360 C   0  0  0  0  0  2  0  0  0  0  0  0
  188.3360  175.9070  146.8330 C   0  0  0  0  0  2  0  0  0  0  0  0
  188.5340  176.4510  144.0850 C   0  0  2  0  0  3  0  0  0  0  0  0
  195.6040  174.9160  146.1380 C   0  0  0  0  0  3  0  0  0  0  0  0
  189.6160  176.6390  146.4100 C   0  0  0  0  0  2  0  0  0  0  0  0
  186.9000  177.7000  145.6310 C   0  0  1  0  0  3  0  0  0  0  0  0
  192.0470  172.2820  141.6580 C   0  0  0  0  0  3  0  0  0  0  0  0
  191.8280  173.4990  142.3200 C   0  0  0  0  0  0  0  0  0  0  0  0
  193.8760  173.1690  143.5670 O   0  0  0  0  0  0  0  0  0  0  0  0
  191.0040  177.2060  144.3780 C   0  0  0  0  0  2  0  0  0  0  0  0
  193.3560  176.6820  145.6620 O   0  0  0  0  0  0  0  0  0  0  0  0
  196.9670  172.7400  143.7930 C   0  0  0  0  0  1  0  0  0  0  0  0
  192.5100  175.1800  143.9670 C   0  0  0  0  0  0  0  0  0  0  0  0
  194.8050  173.5820  144.4970 N   0  0  0  0  0  0  0  0  0  0  0  0
  185.5230  178.3430  145.6510 C   0  0  0  0  0  2  0  0  0  0  0  0
  185.1770  178.8080  147.0240 C   0  0  0  0  0  0  0  0  0  0  0  0
  184.2060  178.2920  147.6380 O   0  0  0  0  0  0  0  0  0  0  0  0
  185.9410  179.7910  147.6390 O   0  0  0  0  0  1  0  0  0  0  0  0
  2 27  1  0  0  0  0
  2 24  1  0  0  0  0
  3  4  2  0  0  0  0
  3 11  1  0  0  0  0
  4 21  1  0  0  0  0
  5  6  1  0  0  0  0
  5 25  2  0  0  0  0
  6 18  2  0  0  0  0
  7 24  1  6  0  0  0
  7 19  1  0  0  0  0
  8 12  1  0  0  0  0
  8 17  1  0  0  0  0
  9 26  1  6  0  0  0
  9 15  1  0  0  0  0
 10 20  1  0  0  0  0
 11 13  2  0  0  0  0
 12  2  2  0  0  0  0
 13 22  1  0  0  0  0
 13 12  1  0  0  0  0
 14 23  1  0  0  0  0
 14 27  2  0  0  0  0
 15 18  1  0  0  0  0
 16  1  1  0  0  0  0
 17 10  1  6  0  0  0
 17  7  1  0  0  0  0
 19 16  1  0  0  0  0
 20 29  1  6  0  0  0
 20  1  1  0  0  0  0
 21 22  2  0  0  0  0
 22 14  1  0  0  0  0
 23 28  1  0  0  0  0
 27  5  1  0  0  0  0
 28  9  1  0  0  0  0
 28  6  1  0  0  0  0
 29 30  1  0  0  0  0
 30 31  2  0  0  0  0
 30 32  1  0  0  0  0
M  END
>  <MODEL>
7

>  <REMARK>
 VINA RESULT:      -8.2      1.151      1.202
  Name = 
  2 active torsions:
  status: ('A' for Active; 'I' for Inactive)
    1  A    between atoms: C_20  and  C_29
    2  A    between atoms: C_29  and  C_30
                            x       y       z     vdW  Elec       q    Type
                         _______ _______ _______ _____ _____    ______ ____

>  <TORSDO>
F 2

$$$$
=
 OpenBabel11112416313D

 32 37  0  0  1  0  0  0  0  0999 V2000
  186.3380  178.7720  143.0220 C   0  0  0  0  0  2  0  0  0  0  0  0
  190.1370  174.9230  143.0650 C   0  0  0  0  0  0  0  0  0  0  0  0
  194.0270  176.8230  145.2930 C   0  0  0  0  0  3  0  0  0  0  0  0
  194.8320  176.4360  144.2200 C   0  0  0  0  0  3  0  0  0  0  0  0
  190.3870  173.8250  140.7720 C   0  0  0  0  0  0  0  0  0  0  0  0
  191.3170  173.4620  139.7070 C   0  0  0  0  0  0  0  0  0  0  0  0
  187.8820  176.0340  143.3320 C   0  0  1  0  0  3  0  0  0  0  0  0
  189.6270  176.0880  145.5250 S   0  0  0  0  0  0  0  0  0  0  0  0
  193.4040  173.3550  138.6640 C   0  0  2  0  0  3  0  0  0  0  0  0
  187.5510  177.8640  145.1080 C   0  0  0  0  0  2  0  0  0  0  0  0
  192.6610  176.5390  145.2780 C   0  0  0  0  0  3  0  0  0  0  0  0
  190.7100  175.5690  144.1750 C   0  0  0  0  0  0  0  0  0  0  0  0
  192.0820  175.8650  144.1910 C   0  0  0  0  0  0  0  0  0  0  0  0
  192.3410  174.8020  142.0080 C   0  0  0  0  0  0  0  0  0  0  0  0
  192.3150  172.7380  137.7700 C   0  0  0  0  0  2  0  0  0  0  0  0
  187.4580  178.2620  142.1080 C   0  0  0  0  0  2  0  0  0  0  0  0
  188.5570  176.9840  144.3540 C   0  0  2  0  0  3  0  0  0  0  0  0
  191.0390  172.8920  138.5530 C   0  0  0  0  0  3  0  0  0  0  0  0
  187.5410  176.7330  142.0060 C   0  0  0  0  0  2  0  0  0  0  0  0
  186.2170  178.0520  144.3750 C   0  0  1  0  0  3  0  0  0  0  0  0
  194.2700  175.7640  143.1320 C   0  0  0  0  0  3  0  0  0  0  0  0
  192.8980  175.4740  143.1050 C   0  0  0  0  0  0  0  0  0  0  0  0
  193.1820  174.4220  140.9440 O   0  0  0  0  0  0  0  0  0  0  0  0
  188.6440  174.7260  143.0700 C   0  0  0  0  0  2  0  0  0  0  0  0
  189.1610  173.5520  140.6590 O   0  0  0  0  0  0  0  0  0  0  0  0
  194.4330  172.3000  139.0160 C   0  0  0  0  0  1  0  0  0  0  0  0
  190.9450  174.5220  141.9720 C   0  0  0  0  0  0  0  0  0  0  0  0
  192.6790  173.7490  139.8510 N   0  0  0  0  0  0  0  0  0  0  0  0
  185.2430  178.7890  145.2800 C   0  0  0  0  0  2  0  0  0  0  0  0
  184.9730  178.0010  146.5180 C   0  0  0  0  0  0  0  0  0  0  0  0
  184.8790  178.5870  147.6280 O   0  0  0  0  0  1  0  0  0  0  0  0
  184.7990  176.6260  146.4430 O   0  0  0  0  0  0  0  0  0  0  0  0
  1 20  1  0  0  0  0
  2 24  1  0  0  0  0
  2 12  1  0  0  0  0
  4  3  1  0  0  0  0
  5 27  1  0  0  0  0
  6 28  1  0  0  0  0
  6  5  1  0  0  0  0
  7 19  1  6  0  0  0
  7 17  1  0  0  0  0
  9 26  1  1  0  0  0
  9 28  1  0  0  0  0
 11  3  2  0  0  0  0
 12 13  2  0  0  0  0
 12  8  1  0  0  0  0
 13 11  1  0  0  0  0
 14 22  2  0  0  0  0
 15 18  1  0  0  0  0
 15  9  1  0  0  0  0
 16  1  1  0  0  0  0
 17 10  1  1  0  0  0
 17  8  1  0  0  0  0
 18  6  2  0  0  0  0
 19 16  1  0  0  0  0
 20 10  1  0  0  0  0
 20 29  1  1  0  0  0
 21  4  2  0  0  0  0
 22 21  1  0  0  0  0
 22 13  1  0  0  0  0
 23 14  1  0  0  0  0
 24  7  1  0  0  0  0
 25  5  2  0  0  0  0
 27 14  1  0  0  0  0
 27  2  2  0  0  0  0
 28 23  1  0  0  0  0
 29 30  1  0  0  0  0
 30 31  1  0  0  0  0
 32 30  2  0  0  0  0
M  END
>  <MODEL>
8

>  <REMARK>
 VINA RESULT:      -8.0      2.457      4.735
  Name = 
  2 active torsions:
  status: ('A' for Active; 'I' for Inactive)
    1  A    between atoms: C_20  and  C_29
    2  A    between atoms: C_29  and  C_30
                            x       y       z     vdW  Elec       q    Type
                         _______ _______ _______ _____ _____    ______ ____

>  <TORSDO>
F 2

$$$$
=
 OpenBabel11112416313D

 32 37  0  0  1  0  0  0  0  0999 V2000
  194.0780  175.6760  143.4230 C   0  0  0  0  0  2  0  0  0  0  0  0
  188.6900  175.3130  143.7170 C   0  0  0  0  0  0  0  0  0  0  0  0
  186.9600  176.6330  139.3610 C   0  0  0  0  0  3  0  0  0  0  0  0
  186.0970  177.5410  139.9770 C   0  0  0  0  0  3  0  0  0  0  0  0
  187.7890  176.4150  145.8370 C   0  0  0  0  0  0  0  0  0  0  0  0
  186.8450  177.3890  146.3790 C   0  0  0  0  0  0  0  0  0  0  0  0
  191.1270  174.6820  143.9500 C   0  0  1  0  0  3  0  0  0  0  0  0
  189.8330  174.0090  141.5560 S   0  0  0  0  0  0  0  0  0  0  0  0
  185.1890  179.0300  146.2510 C   0  0  2  0  0  3  0  0  0  0  0  0
  192.5640  174.3010  141.8530 C   0  0  0  0  0  2  0  0  0  0  0  0
  187.8160  175.8480  140.1350 C   0  0  0  0  0  3  0  0  0  0  0  0
  188.6720  175.1660  142.3180 C   0  0  0  0  0  0  0  0  0  0  0  0
  187.8200  175.9610  141.5340 C   0  0  0  0  0  0  0  0  0  0  0  0
  186.9340  177.0110  143.5530 C   0  0  0  0  0  0  0  0  0  0  0  0
  185.6170  178.8010  147.7100 C   0  0  0  0  0  2  0  0  0  0  0  0
  192.8950  176.5540  143.8490 C   0  0  0  0  0  2  0  0  0  0  0  0
  191.2280  174.8110  142.4090 C   0  0  2  0  0  3  0  0  0  0  0  0
  186.6880  177.7450  147.6370 C   0  0  0  0  0  3  0  0  0  0  0  0
  191.8400  175.8250  144.6910 C   0  0  0  0  0  2  0  0  0  0  0  0
  193.7020  174.2870  142.8820 C   0  0  1  0  0  3  0  0  0  0  0  0
  186.0900  177.6630  141.3680 C   0  0  0  0  0  3  0  0  0  0  0  0
  186.9460  176.8800  142.1570 C   0  0  0  0  0  0  0  0  0  0  0  0
  186.0480  177.9320  144.1440 O   0  0  0  0  0  0  0  0  0  0  0  0
  189.6980  174.5020  144.4870 C   0  0  0  0  0  2  0  0  0  0  0  0
  188.5440  175.7700  146.6120 O   0  0  0  0  0  0  0  0  0  0  0  0
  183.7200  178.6880  146.0910 C   0  0  0  0  0  1  0  0  0  0  0  0
  187.8150  176.2270  144.3530 C   0  0  0  0  0  0  0  0  0  0  0  0
  185.9950  178.0840  145.5120 N   0  0  0  0  0  0  0  0  0  0  0  0
  194.9210  173.6090  142.2770 C   0  0  0  0  0  2  0  0  0  0  0  0
  195.9670  173.3790  143.3150 C   0  0  0  0  0  0  0  0  0  0  0  0
  197.1140  173.8780  143.1730 O   0  0  0  0  0  0  0  0  0  0  0  0
  195.6680  172.6390  144.4510 O   0  0  0  0  0  1  0  0  0  0  0  0
  1 16  1  0  0  0  0
  2 27  1  0  0  0  0
  2 24  1  0  0  0  0
  3  4  2  0  0  0  0
  3 11  1  0  0  0  0
  4 21  1  0  0  0  0
  5  6  1  0  0  0  0
  5 25  2  0  0  0  0
  6 18  2  0  0  0  0
  7 24  1  6  0  0  0
  7 19  1  0  0  0  0
  8 12  1  0  0  0  0
  8 17  1  0  0  0  0
  9 26  1  1  0  0  0
  9 15  1  0  0  0  0
 10 20  1  0  0  0  0
 11 13  2  0  0  0  0
 12  2  2  0  0  0  0
 13 22  1  0  0  0  0
 13 12  1  0  0  0  0
 14 23  1  0  0  0  0
 14 27  2  0  0  0  0
 16 19  1  0  0  0  0
 17 10  1  6  0  0  0
 17  7  1  0  0  0  0
 18 15  1  0  0  0  0
 20 29  1  6  0  0  0
 20  1  1  0  0  0  0
 21 22  2  0  0  0  0
 22 14  1  0  0  0  0
 23 28  1  0  0  0  0
 27  5  1  0  0  0  0
 28  9  1  0  0  0  0
 28  6  1  0  0  0  0
 29 30  1  0  0  0  0
 30 32  1  0  0  0  0
 31 30  2  0  0  0  0
M  END
>  <MODEL>
9

>  <REMARK>
 VINA RESULT:      -7.8      2.755      7.947
  Name = 
  2 active torsions:
  status: ('A' for Active; 'I' for Inactive)
    1  A    between atoms: C_20  and  C_29
    2  A    between atoms: C_29  and  C_30
                            x       y       z     vdW  Elec       q    Type
                         _______ _______ _______ _____ _____    ______ ____

>  <TORSDO>
F 2

$$$$
