=
 OpenBabel11112417353D

 28 32  0  0  1  0  0  0  0  0999 V2000
  186.1620  178.2740  144.3570 C   0  0  0  0  0  0  0  0  0  0  0  0
  189.8490  178.1670  147.3270 O   0  0  0  0  0  0  0  0  0  0  0  0
  187.1630  173.0820  141.5540 O   0  0  0  0  0  0  0  0  0  0  0  0
  185.0990  176.8860  146.5450 C   0  0  0  0  0  3  0  0  0  0  0  0
  189.4170  173.7160  142.7280 C   0  0  2  0  0  3  0  0  0  0  0  0
  186.6080  178.9000  143.0720 C   0  0  0  0  0  2  0  0  0  0  0  0
  188.4580  176.1710  147.7220 O   0  0  0  0  0  0  0  0  0  0  0  0
  189.6210  176.7290  146.9550 S   0  0  0  0  0  0  0  0  0  0  0  0
  191.8820  175.7590  146.1140 C   0  0  1  0  0  3  0  0  0  0  0  0
  189.4660  176.5520  145.2000 C   0  0  1  0  0  3  0  0  0  0  0  0
  186.3810  177.1960  139.7480 O   0  0  0  0  0  1  0  0  0  0  0  0
  188.1060  175.5640  143.4990 C   0  0  2  0  0  3  0  0  0  0  0  0
  191.3530  174.9760  145.0410 O   0  0  0  0  0  0  0  0  0  0  0  0
  191.0290  175.7770  147.3140 N   0  0  0  0  0  2  0  0  0  0  0  0
  187.0280  177.7750  140.8390 C   0  0  2  0  0  3  0  0  0  0  0  0
  186.9050  177.2350  144.9560 C   0  0  0  0  0  0  0  0  0  0  0  0
  188.2830  174.0960  141.3640 S   0  0  2  0  0  0  0  0  0  0  0  0
  193.2570  175.2430  146.4810 C   0  0  0  0  0  1  0  0  0  0  0  0
  188.1340  176.8410  141.3350 C   0  0  0  0  0  2  0  0  0  0  0  0
  186.3400  176.5200  146.0190 C   0  0  0  0  0  3  0  0  0  0  0  0
  184.9160  178.6350  144.8850 C   0  0  0  0  0  3  0  0  0  0  0  0
  184.3930  177.9530  145.9860 C   0  0  0  0  0  3  0  0  0  0  0  0
  185.9980  178.1260  141.9110 C   0  0  0  0  0  2  0  0  0  0  0  0
  189.5110  175.0420  143.4370 C   0  0  1  0  0  3  0  0  0  0  0  0
  187.5900  175.6160  142.0720 C   0  0  2  0  0  3  0  0  0  0  0  0
  189.9530  175.1460  144.8710 C   0  0  2  0  0  3  0  0  0  0  0  0
  190.7730  173.3310  142.1710 C   0  0  0  0  0  1  0  0  0  0  0  0
  188.2140  176.8200  144.3400 C   0  0  1  0  0  3  0  0  0  0  0  0
  1 21  2  0  0  0  0
  1 16  1  0  0  0  0
  5 27  1  6  0  0  0
  5 24  1  0  0  0  0
  6  1  1  0  0  0  0
  8 14  1  0  0  0  0
  8  2  2  0  0  0  0
  8  7  2  0  0  0  0
  9 18  1  1  0  0  0
  9 14  1  0  0  0  0
 10  8  1  1  0  0  0
 11 15  1  0  0  0  0
 12 28  1  0  0  0  0
 13  9  1  0  0  0  0
 15 19  1  0  0  0  0
 15 23  1  0  0  0  0
 16 20  2  0  0  0  0
 17  3  2  0  0  0  0
 17 25  1  0  0  0  0
 17  5  1  0  0  0  0
 19 25  1  0  0  0  0
 20  4  1  0  0  0  0
 21 22  1  0  0  0  0
 22  4  2  0  0  0  0
 23  6  1  0  0  0  0
 24 12  1  0  0  0  0
 24 26  1  0  0  0  0
 25 12  1  0  0  0  0
 26 13  1  0  0  0  0
 26 10  1  0  0  0  0
 28 16  1  0  0  0  0
 28 10  1  0  0  0  0
M  END
>  <MODEL>
1

>  <REMARK>
 VINA RESULT:      -8.7      0.000      0.000
  Name = 
  0 active torsions:
  status: ('A' for Active; 'I' for Inactive)
                            x       y       z     vdW  Elec       q    Type
                         _______ _______ _______ _____ _____    ______ ____

>  <TORSDO>
F 0

$$$$
=
 OpenBabel11112417353D

 28 32  0  0  1  0  0  0  0  0999 V2000
  188.0870  176.5920  144.6950 C   0  0  0  0  0  0  0  0  0  0  0  0
  187.4010  172.7610  141.9970 O   0  0  0  0  0  0  0  0  0  0  0  0
  194.0700  176.6810  144.5580 O   0  0  0  0  0  0  0  0  0  0  0  0
  188.0130  177.7030  142.1250 C   0  0  0  0  0  3  0  0  0  0  0  0
  193.3650  174.2710  143.8130 C   0  0  2  0  0  3  0  0  0  0  0  0
  188.2590  176.1460  146.1130 C   0  0  0  0  0  2  0  0  0  0  0  0
  188.6600  174.4300  140.6930 O   0  0  0  0  0  0  0  0  0  0  0  0
  188.7680  173.2510  141.6160 S   0  0  0  0  0  0  0  0  0  0  0  0
  190.4170  171.2530  141.8320 C   0  0  1  0  0  3  0  0  0  0  0  0
  189.7470  173.5660  143.0580 C   0  0  1  0  0  3  0  0  0  0  0  0
  191.2930  176.9030  148.1700 O   0  0  0  0  0  1  0  0  0  0  0  0
  191.1720  175.1950  144.0740 C   0  0  2  0  0  3  0  0  0  0  0  0
  191.5130  171.9840  142.3890 O   0  0  0  0  0  0  0  0  0  0  0  0
  189.6630  171.9980  140.8110 N   0  0  0  0  0  2  0  0  0  0  0  0
  190.3840  176.0880  147.4950 C   0  0  2  0  0  3  0  0  0  0  0  0
  188.8170  175.9890  143.6490 C   0  0  0  0  0  0  0  0  0  0  0  0
  193.4990  175.4260  145.2050 S   0  0  2  0  0  0  0  0  0  0  0  0
  190.9290  169.9590  141.2360 C   0  0  0  0  0  1  0  0  0  0  0  0
  191.1410  175.1180  146.5850 C   0  0  0  0  0  2  0  0  0  0  0  0
  188.8080  176.5830  142.3810 C   0  0  0  0  0  3  0  0  0  0  0  0
  187.2960  177.7180  144.4340 C   0  0  0  0  0  3  0  0  0  0  0  0
  187.2460  178.2620  143.1490 C   0  0  0  0  0  3  0  0  0  0  0  0
  189.3750  176.9620  146.7520 C   0  0  0  0  0  2  0  0  0  0  0  0
  191.9040  173.9060  143.8470 C   0  0  1  0  0  3  0  0  0  0  0  0
  191.7300  175.8010  145.3490 C   0  0  2  0  0  3  0  0  0  0  0  0
  191.1960  173.3460  142.6430 C   0  0  2  0  0  3  0  0  0  0  0  0
  194.2110  173.0440  144.0850 C   0  0  0  0  0  1  0  0  0  0  0  0
  189.7090  174.8170  143.9590 C   0  0  1  0  0  3  0  0  0  0  0  0
  1  6  1  0  0  0  0
  3 17  2  0  0  0  0
  4 20  2  0  0  0  0
  4 22  1  0  0  0  0
  5 24  1  0  0  0  0
  5 27  1  1  0  0  0
  5 17  1  0  0  0  0
  6 23  1  0  0  0  0
  7  8  2  0  0  0  0
  8  2  2  0  0  0  0
  9 18  1  6  0  0  0
  9 13  1  0  0  0  0
 10  8  1  6  0  0  0
 10 28  1  0  0  0  0
 12 25  1  0  0  0  0
 13 26  1  0  0  0  0
 14  8  1  0  0  0  0
 14  9  1  0  0  0  0
 15 11  1  0  0  0  0
 16 28  1  0  0  0  0
 16  1  2  0  0  0  0
 17 25  1  0  0  0  0
 19 15  1  0  0  0  0
 20 16  1  0  0  0  0
 21  1  1  0  0  0  0
 22 21  2  0  0  0  0
 23 15  1  0  0  0  0
 24 12  1  0  0  0  0
 25 19  1  0  0  0  0
 26 10  1  0  0  0  0
 26 24  1  0  0  0  0
 28 12  1  0  0  0  0
M  END
>  <MODEL>
2

>  <REMARK>
 VINA RESULT:      -7.9      2.505      5.631
  Name = 
  0 active torsions:
  status: ('A' for Active; 'I' for Inactive)
                            x       y       z     vdW  Elec       q    Type
                         _______ _______ _______ _____ _____    ______ ____

>  <TORSDO>
F 0

$$$$
=
 OpenBabel11112417353D

 28 32  0  0  1  0  0  0  0  0999 V2000
  191.3140  174.3640  142.0320 C   0  0  0  0  0  0  0  0  0  0  0  0
  187.3600  176.7490  140.9840 O   0  0  0  0  0  0  0  0  0  0  0  0
  191.1980  175.0730  147.9740 O   0  0  0  0  0  0  0  0  0  0  0  0
  189.3640  172.3640  142.2340 C   0  0  0  0  0  3  0  0  0  0  0  0
  189.5910  176.8960  146.9960 C   0  0  2  0  0  3  0  0  0  0  0  0
  192.4540  175.3330  142.0730 C   0  0  0  0  0  2  0  0  0  0  0  0
  186.7880  174.9060  142.5160 O   0  0  0  0  0  0  0  0  0  0  0  0
  187.1900  176.3490  142.4210 S   0  0  0  0  0  0  0  0  0  0  0  0
  186.6190  178.4900  143.7800 C   0  0  1  0  0  3  0  0  0  0  0  0
  188.6380  176.7450  143.3590 C   0  0  1  0  0  3  0  0  0  0  0  0
  194.6320  175.8470  145.0730 O   0  0  0  0  0  1  0  0  0  0  0  0
  190.1940  175.8410  144.9340 C   0  0  2  0  0  3  0  0  0  0  0  0
  187.4090  178.1870  144.9330 O   0  0  0  0  0  0  0  0  0  0  0  0
  185.9640  177.3160  143.1820 N   0  0  0  0  0  2  0  0  0  0  0  0
  193.7000  176.2090  144.0990 C   0  0  2  0  0  3  0  0  0  0  0  0
  190.1150  174.6220  142.7280 C   0  0  0  0  0  0  0  0  0  0  0  0
  191.3180  176.3860  147.2110 S   0  0  2  0  0  0  0  0  0  0  0  0
  185.5720  179.5200  144.1460 C   0  0  0  0  0  1  0  0  0  0  0  0
  192.4850  176.8580  144.7670 C   0  0  0  0  0  2  0  0  0  0  0  0
  189.1700  173.5970  142.8600 C   0  0  0  0  0  3  0  0  0  0  0  0
  191.5060  173.1240  141.4100 C   0  0  0  0  0  3  0  0  0  0  0  0
  190.5270  172.1320  141.4970 C   0  0  0  0  0  3  0  0  0  0  0  0
  193.3520  174.9860  143.2530 C   0  0  0  0  0  2  0  0  0  0  0  0
  189.4890  177.0370  145.5000 C   0  0  1  0  0  3  0  0  0  0  0  0
  191.6020  175.8480  145.5020 C   0  0  2  0  0  3  0  0  0  0  0  0
  188.1650  176.9940  144.7860 C   0  0  2  0  0  3  0  0  0  0  0  0
  189.3700  178.2410  147.6590 C   0  0  0  0  0  1  0  0  0  0  0  0
  189.9500  175.9370  143.4410 C   0  0  1  0  0  3  0  0  0  0  0  0
  1  6  1  0  0  0  0
  1 16  1  0  0  0  0
  2  8  2  0  0  0  0
  4 20  1  0  0  0  0
  5 17  1  0  0  0  0
  5 27  1  1  0  0  0
  6 23  1  0  0  0  0
  8  7  2  0  0  0  0
  8 14  1  0  0  0  0
  9 18  1  1  0  0  0
  9 13  1  0  0  0  0
 10  8  1  6  0  0  0
 10 28  1  0  0  0  0
 10 26  1  0  0  0  0
 12 24  1  0  0  0  0
 12 25  1  0  0  0  0
 14  9  1  0  0  0  0
 15 19  1  0  0  0  0
 15 11  1  0  0  0  0
 16 20  2  0  0  0  0
 16 28  1  0  0  0  0
 17  3  2  0  0  0  0
 19 25  1  0  0  0  0
 21 22  1  0  0  0  0
 21  1  2  0  0  0  0
 22  4  2  0  0  0  0
 23 15  1  0  0  0  0
 24  5  1  0  0  0  0
 25 17  1  0  0  0  0
 26 13  1  0  0  0  0
 26 24  1  0  0  0  0
 28 12  1  0  0  0  0
M  END
>  <MODEL>
3

>  <REMARK>
 VINA RESULT:      -7.8      2.334      6.504
  Name = 
  0 active torsions:
  status: ('A' for Active; 'I' for Inactive)
                            x       y       z     vdW  Elec       q    Type
                         _______ _______ _______ _____ _____    ______ ____

>  <TORSDO>
F 0

$$$$
=
 OpenBabel11112417353D

 28 32  0  0  1  0  0  0  0  0999 V2000
  188.4830  176.8320  145.5170 C   0  0  0  0  0  0  0  0  0  0  0  0
  193.2120  176.7790  145.7690 O   0  0  0  0  0  0  0  0  0  0  0  0
  187.8160  172.9110  141.0450 O   0  0  0  0  0  0  0  0  0  0  0  0
  188.9410  174.7200  147.2980 C   0  0  0  0  0  3  0  0  0  0  0  0
  190.3100  173.7040  140.9450 C   0  0  2  0  0  3  0  0  0  0  0  0
  188.0760  177.8550  144.5020 C   0  0  0  0  0  2  0  0  0  0  0  0
  192.3750  174.4910  146.1410 O   0  0  0  0  0  0  0  0  0  0  0  0
  192.8540  175.4750  145.1150 S   0  0  0  0  0  0  0  0  0  0  0  0
  194.2250  175.2880  142.9140 C   0  0  1  0  0  3  0  0  0  0  0  0
  191.7080  175.7320  143.7890 C   0  0  1  0  0  3  0  0  0  0  0  0
  186.0010  177.0720  141.4880 O   0  0  0  0  0  1  0  0  0  0  0  0
  189.6410  174.9450  142.8790 C   0  0  2  0  0  3  0  0  0  0  0  0
  193.1930  174.7150  142.1070 O   0  0  0  0  0  0  0  0  0  0  0  0
  194.2340  174.8020  144.3030 N   0  0  0  0  0  2  0  0  0  0  0  0
  187.1460  177.4750  142.1750 C   0  0  2  0  0  3  0  0  0  0  0  0
  189.4670  175.8660  145.2200 C   0  0  0  0  0  0  0  0  0  0  0  0
  188.5820  174.1630  140.6410 S   0  0  2  0  0  0  0  0  0  0  0  0
  195.5710  175.0150  142.2760 C   0  0  0  0  0  1  0  0  0  0  0  0
  188.3610  176.7150  141.6380 C   0  0  0  0  0  2  0  0  0  0  0  0
  189.6520  174.7900  146.0980 C   0  0  0  0  0  3  0  0  0  0  0  0
  187.7700  176.7540  146.7190 C   0  0  0  0  0  3  0  0  0  0  0  0
  188.0100  175.7100  147.6150 C   0  0  0  0  0  3  0  0  0  0  0  0
  186.9260  177.2950  143.6750 C   0  0  0  0  0  2  0  0  0  0  0  0
  190.7600  174.7850  141.8930 C   0  0  1  0  0  3  0  0  0  0  0  0
  188.3870  175.2510  142.0790 C   0  0  2  0  0  3  0  0  0  0  0  0
  191.9530  174.6070  142.7920 C   0  0  2  0  0  3  0  0  0  0  0  0
  191.0960  173.7910  139.6520 C   0  0  0  0  0  1  0  0  0  0  0  0
  190.1820  175.9290  143.8970 C   0  0  1  0  0  3  0  0  0  0  0  0
  1 21  1  0  0  0  0
  4 22  1  0  0  0  0
  5 27  1  6  0  0  0
  5 24  1  0  0  0  0
  6  1  1  0  0  0  0
  8  2  2  0  0  0  0
  8  7  2  0  0  0  0
  9 18  1  6  0  0  0
  9 14  1  0  0  0  0
 10 28  1  0  0  0  0
 10  8  1  1  0  0  0
 11 15  1  0  0  0  0
 12 28  1  0  0  0  0
 13 26  1  0  0  0  0
 13  9  1  0  0  0  0
 14  8  1  0  0  0  0
 15 23  1  0  0  0  0
 16  1  2  0  0  0  0
 16 20  1  0  0  0  0
 17  5  1  0  0  0  0
 17  3  2  0  0  0  0
 17 25  1  0  0  0  0
 19 25  1  0  0  0  0
 19 15  1  0  0  0  0
 20  4  2  0  0  0  0
 21 22  2  0  0  0  0
 23  6  1  0  0  0  0
 24 26  1  0  0  0  0
 24 12  1  0  0  0  0
 25 12  1  0  0  0  0
 26 10  1  0  0  0  0
 28 16  1  0  0  0  0
M  END
>  <MODEL>
4

>  <REMARK>
 VINA RESULT:      -7.7      2.266      3.085
  Name = 
  0 active torsions:
  status: ('A' for Active; 'I' for Inactive)
                            x       y       z     vdW  Elec       q    Type
                         _______ _______ _______ _____ _____    ______ ____

>  <TORSDO>
F 0

$$$$
=
 OpenBabel11112417353D

 28 32  0  0  1  0  0  0  0  0999 V2000
  190.7100  176.9220  145.8050 C   0  0  0  0  0  0  0  0  0  0  0  0
  195.1440  176.7130  144.1520 O   0  0  0  0  0  0  0  0  0  0  0  0
  188.3000  172.6790  142.3400 O   0  0  0  0  0  0  0  0  0  0  0  0
  191.8410  174.9450  147.4350 C   0  0  0  0  0  3  0  0  0  0  0  0
  190.5460  173.3680  141.1820 C   0  0  2  0  0  3  0  0  0  0  0  0
  189.9330  177.8740  144.9510 C   0  0  0  0  0  2  0  0  0  0  0  0
  194.5230  174.4960  145.0300 O   0  0  0  0  0  0  0  0  0  0  0  0
  194.5510  175.3750  143.8140 S   0  0  0  0  0  0  0  0  0  0  0  0
  194.9250  174.9600  141.2750 C   0  0  1  0  0  3  0  0  0  0  0  0
  192.9710  175.5660  143.0390 C   0  0  1  0  0  3  0  0  0  0  0  0
  186.8220  176.9270  143.0980 O   0  0  0  0  0  1  0  0  0  0  0  0
  190.7110  174.7860  143.1040 C   0  0  2  0  0  3  0  0  0  0  0  0
  193.6550  174.3620  141.0010 O   0  0  0  0  0  0  0  0  0  0  0  0
  195.4890  174.5870  142.5820 N   0  0  0  0  0  2  0  0  0  0  0  0
  188.1470  177.3420  143.2320 C   0  0  2  0  0  3  0  0  0  0  0  0
  191.4920  175.8990  145.2270 C   0  0  0  0  0  0  0  0  0  0  0  0
  188.8420  173.8650  141.5540 S   0  0  2  0  0  0  0  0  0  0  0  0
  195.9010  174.5860  140.1800 C   0  0  0  0  0  1  0  0  0  0  0  0
  189.0440  176.4960  142.3240 C   0  0  0  0  0  2  0  0  0  0  0  0
  192.0110  174.8920  146.0500 C   0  0  0  0  0  3  0  0  0  0  0  0
  190.5390  176.9680  147.1940 C   0  0  0  0  0  3  0  0  0  0  0  0
  191.1160  175.9920  148.0090 C   0  0  0  0  0  3  0  0  0  0  0  0
  188.5460  177.2920  144.7050 C   0  0  0  0  0  2  0  0  0  0  0  0
  191.3400  174.5040  141.7720 C   0  0  1  0  0  3  0  0  0  0  0  0
  189.2420  175.0720  142.8470 C   0  0  2  0  0  3  0  0  0  0  0  0
  192.7940  174.3550  142.1320 C   0  0  2  0  0  3  0  0  0  0  0  0
  190.7480  173.3200  139.6810 C   0  0  0  0  0  1  0  0  0  0  0  0
  191.6160  175.8280  143.7290 C   0  0  1  0  0  3  0  0  0  0  0  0
  1 21  1  0  0  0  0
  4 22  1  0  0  0  0
  5 27  1  6  0  0  0
  5 17  1  0  0  0  0
  5 24  1  0  0  0  0
  6  1  1  0  0  0  0
  8  2  2  0  0  0  0
  8  7  2  0  0  0  0
  9 18  1  6  0  0  0
  9 14  1  0  0  0  0
 10 28  1  0  0  0  0
 10  8  1  1  0  0  0
 11 15  1  0  0  0  0
 12 28  1  0  0  0  0
 13  9  1  0  0  0  0
 13 26  1  0  0  0  0
 14  8  1  0  0  0  0
 15 23  1  0  0  0  0
 16  1  2  0  0  0  0
 16 20  1  0  0  0  0
 17  3  2  0  0  0  0
 17 25  1  0  0  0  0
 19 25  1  0  0  0  0
 19 15  1  0  0  0  0
 20  4  2  0  0  0  0
 21 22  2  0  0  0  0
 23  6  1  0  0  0  0
 24 26  1  0  0  0  0
 24 12  1  0  0  0  0
 25 12  1  0  0  0  0
 26 10  1  0  0  0  0
 28 16  1  0  0  0  0
M  END
>  <MODEL>
5

>  <REMARK>
 VINA RESULT:      -7.3      3.046      4.716
  Name = 
  0 active torsions:
  status: ('A' for Active; 'I' for Inactive)
                            x       y       z     vdW  Elec       q    Type
                         _______ _______ _______ _____ _____    ______ ____

>  <TORSDO>
F 0

$$$$
=
 OpenBabel11112417353D

 28 32  0  0  1  0  0  0  0  0999 V2000
  190.3520  177.1400  145.5780 C   0  0  0  0  0  0  0  0  0  0  0  0
  195.0480  177.5640  145.1330 O   0  0  0  0  0  0  0  0  0  0  0  0
  189.7630  171.6420  143.2880 O   0  0  0  0  0  0  0  0  0  0  0  0
  191.2600  176.0380  147.9860 C   0  0  0  0  0  3  0  0  0  0  0  0
  192.1080  172.5040  142.5040 C   0  0  2  0  0  3  0  0  0  0  0  0
  189.7140  177.5950  144.3020 C   0  0  0  0  0  2  0  0  0  0  0  0
  194.5610  175.6000  146.5400 O   0  0  0  0  0  0  0  0  0  0  0  0
  194.8010  176.0820  145.1390 S   0  0  0  0  0  0  0  0  0  0  0  0
  195.9580  175.0760  143.0400 C   0  0  1  0  0  3  0  0  0  0  0  0
  193.5040  175.6570  144.0110 C   0  0  1  0  0  3  0  0  0  0  0  0
  187.4690  175.4380  142.2250 O   0  0  0  0  0  1  0  0  0  0  0  0
  191.4780  174.4000  143.8230 C   0  0  2  0  0  3  0  0  0  0  0  0
  194.9350  174.1340  142.7040 O   0  0  0  0  0  0  0  0  0  0  0  0
  196.1700  175.2340  144.4880 N   0  0  0  0  0  2  0  0  0  0  0  0
  188.6140  176.1840  142.5060 C   0  0  2  0  0  3  0  0  0  0  0  0
  191.4200  176.2190  145.5680 C   0  0  0  0  0  0  0  0  0  0  0  0
  190.3130  172.6550  142.2930 S   0  0  2  0  0  0  0  0  0  0  0  0
  197.2570  174.6590  142.3830 C   0  0  0  0  0  1  0  0  0  0  0  0
  189.8590  175.3630  142.1610 C   0  0  0  0  0  2  0  0  0  0  0  0
  191.8320  175.6410  146.7760 C   0  0  0  0  0  3  0  0  0  0  0  0
  189.7790  177.5310  146.7940 C   0  0  0  0  0  3  0  0  0  0  0  0
  190.2430  176.9940  147.9970 C   0  0  0  0  0  3  0  0  0  0  0  0
  188.5710  176.6480  143.9610 C   0  0  0  0  0  2  0  0  0  0  0  0
  192.5040  173.9180  142.8410 C   0  0  1  0  0  3  0  0  0  0  0  0
  190.1220  174.2360  143.1620 C   0  0  2  0  0  3  0  0  0  0  0  0
  193.7950  174.2350  143.5470 C   0  0  2  0  0  3  0  0  0  0  0  0
  192.7420  172.0880  141.1920 C   0  0  0  0  0  1  0  0  0  0  0  0
  191.9840  175.7640  144.2490 C   0  0  1  0  0  3  0  0  0  0  0  0
  1 21  1  0  0  0  0
  2  8  2  0  0  0  0
  4 22  1  0  0  0  0
  5 27  1  6  0  0  0
  5 24  1  0  0  0  0
  6  1  1  0  0  0  0
  8  7  2  0  0  0  0
  9 18  1  6  0  0  0
  9 14  1  0  0  0  0
 10 28  1  0  0  0  0
 10  8  1  1  0  0  0
 11 15  1  0  0  0  0
 12 28  1  0  0  0  0
 13  9  1  0  0  0  0
 13 26  1  0  0  0  0
 14  8  1  0  0  0  0
 15 23  1  0  0  0  0
 16  1  2  0  0  0  0
 16 20  1  0  0  0  0
 17  5  1  0  0  0  0
 17 25  1  0  0  0  0
 17  3  2  0  0  0  0
 19 15  1  0  0  0  0
 19 25  1  0  0  0  0
 20  4  2  0  0  0  0
 21 22  2  0  0  0  0
 23  6  1  0  0  0  0
 24 26  1  0  0  0  0
 24 12  1  0  0  0  0
 25 12  1  0  0  0  0
 26 10  1  0  0  0  0
 28 16  1  0  0  0  0
M  END
>  <MODEL>
6

>  <REMARK>
 VINA RESULT:      -7.2      3.224      4.493
  Name = 
  0 active torsions:
  status: ('A' for Active; 'I' for Inactive)
                            x       y       z     vdW  Elec       q    Type
                         _______ _______ _______ _____ _____    ______ ____

>  <TORSDO>
F 0

$$$$
=
 OpenBabel11112417353D

 28 32  0  0  1  0  0  0  0  0999 V2000
  191.2220  174.2290  143.1730 C   0  0  0  0  0  0  0  0  0  0  0  0
  189.8290  175.5000  147.5180 O   0  0  0  0  0  0  0  0  0  0  0  0
  187.5380  177.7410  140.0260 O   0  0  0  0  0  0  0  0  0  0  0  0
  192.8770  176.4280  143.6880 C   0  0  0  0  0  3  0  0  0  0  0  0
  186.5290  177.6130  142.4390 C   0  0  2  0  0  3  0  0  0  0  0  0
  190.3430  173.1120  142.7040 C   0  0  0  0  0  2  0  0  0  0  0  0
  190.6250  177.5040  146.3250 O   0  0  0  0  0  0  0  0  0  0  0  0
  189.4300  176.6530  146.6410 S   0  0  0  0  0  0  0  0  0  0  0  0
  186.9100  177.1340  147.0590 C   0  0  1  0  0  3  0  0  0  0  0  0
  188.5680  176.0790  145.2050 C   0  0  1  0  0  3  0  0  0  0  0  0
  188.2910  173.2650  139.5770 O   0  0  0  0  0  1  0  0  0  0  0  0
  188.4840  176.2870  142.8240 C   0  0  2  0  0  3  0  0  0  0  0  0
  186.5510  177.4040  145.7020 O   0  0  0  0  0  0  0  0  0  0  0  0
  188.2410  177.6390  147.4340 N   0  0  0  0  0  2  0  0  0  0  0  0
  188.5110  173.1860  140.9520 C   0  0  2  0  0  3  0  0  0  0  0  0
  190.6710  175.4080  143.7180 C   0  0  0  0  0  0  0  0  0  0  0  0
  186.8090  176.7180  140.8870 S   0  0  2  0  0  0  0  0  0  0  0  0
  185.8670  177.7280  147.9820 C   0  0  0  0  0  1  0  0  0  0  0  0
  187.6420  174.2190  141.6720 C   0  0  0  0  0  2  0  0  0  0  0  0
  191.5030  176.5150  143.9260 C   0  0  0  0  0  3  0  0  0  0  0  0
  192.5990  174.1490  142.9330 C   0  0  0  0  0  3  0  0  0  0  0  0
  193.4270  175.2400  143.2050 C   0  0  0  0  0  3  0  0  0  0  0  0
  190.0040  173.3380  141.2360 C   0  0  0  0  0  2  0  0  0  0  0  0
  187.1860  176.7070  143.4470 C   0  0  1  0  0  3  0  0  0  0  0  0
  188.1470  175.6510  141.4870 C   0  0  2  0  0  3  0  0  0  0  0  0
  187.6280  177.2060  144.7960 C   0  0  2  0  0  3  0  0  0  0  0  0
  185.0410  177.7010  142.7160 C   0  0  0  0  0  1  0  0  0  0  0  0
  189.1820  175.4990  143.9140 C   0  0  1  0  0  3  0  0  0  0  0  0
  1 16  1  0  0  0  0
  3 17  2  0  0  0  0
  4 20  1  0  0  0  0
  5 27  1  1  0  0  0
  5 24  1  0  0  0  0
  6  1  1  0  0  0  0
  7  8  2  0  0  0  0
  8 14  1  0  0  0  0
  8  2  2  0  0  0  0
  9 14  1  0  0  0  0
  9 18  1  1  0  0  0
 10  8  1  1  0  0  0
 11 15  1  0  0  0  0
 12 24  1  0  0  0  0
 12 28  1  0  0  0  0
 13  9  1  0  0  0  0
 15 23  1  0  0  0  0
 15 19  1  0  0  0  0
 16 28  1  0  0  0  0
 16 20  2  0  0  0  0
 17 25  1  0  0  0  0
 17  5  1  0  0  0  0
 21  1  2  0  0  0  0
 21 22  1  0  0  0  0
 22  4  2  0  0  0  0
 23  6  1  0  0  0  0
 24 26  1  0  0  0  0
 25 19  1  0  0  0  0
 25 12  1  0  0  0  0
 26 10  1  0  0  0  0
 26 13  1  0  0  0  0
 28 10  1  0  0  0  0
M  END
>  <MODEL>
7

>  <REMARK>
 VINA RESULT:      -7.2      1.837      5.204
  Name = 
  0 active torsions:
  status: ('A' for Active; 'I' for Inactive)
                            x       y       z     vdW  Elec       q    Type
                         _______ _______ _______ _____ _____    ______ ____

>  <TORSDO>
F 0

$$$$
=
 OpenBabel11112417353D

 28 32  0  0  1  0  0  0  0  0999 V2000
  195.2340  173.2250  144.7960 C   0  0  0  0  0  0  0  0  0  0  0  0
  192.7580  171.5560  141.1200 O   0  0  0  0  0  0  0  0  0  0  0  0
  190.6530  175.2600  148.0660 O   0  0  0  0  0  0  0  0  0  0  0  0
  194.6630  170.6120  145.6260 C   0  0  0  0  0  3  0  0  0  0  0  0
  189.7290  174.9620  145.6340 C   0  0  2  0  0  3  0  0  0  0  0  0
  195.5270  174.6720  144.5500 C   0  0  0  0  0  2  0  0  0  0  0  0
  191.9970  170.4160  143.1690 O   0  0  0  0  0  0  0  0  0  0  0  0
  191.7750  171.5860  142.2550 S   0  0  0  0  0  0  0  0  0  0  0  0
  189.6790  172.8990  141.4550 C   0  0  1  0  0  3  0  0  0  0  0  0
  191.8200  173.1510  143.0830 C   0  0  1  0  0  3  0  0  0  0  0  0
  194.4870  177.4210  146.8670 O   0  0  0  0  0  1  0  0  0  0  0  0
  191.9500  174.1570  145.2490 C   0  0  2  0  0  3  0  0  0  0  0  0
  189.4340  173.6070  142.6730 O   0  0  0  0  0  0  0  0  0  0  0  0
  190.1470  171.5170  141.6540 N   0  0  0  0  0  2  0  0  0  0  0  0
  194.4970  176.6970  145.6750 C   0  0  2  0  0  3  0  0  0  0  0  0
  193.9280  172.7130  144.6490 C   0  0  0  0  0  0  0  0  0  0  0  0
  190.7890  175.9560  146.7180 S   0  0  2  0  0  0  0  0  0  0  0  0
  188.4160  172.8880  140.6190 C   0  0  0  0  0  1  0  0  0  0  0  0
  193.0590  176.4110  145.2350 C   0  0  0  0  0  2  0  0  0  0  0  0
  193.6470  171.4210  145.1110 C   0  0  0  0  0  3  0  0  0  0  0  0
  196.2480  172.4110  145.3170 C   0  0  0  0  0  3  0  0  0  0  0  0
  195.9670  171.1030  145.7160 C   0  0  0  0  0  3  0  0  0  0  0  0
  195.3440  175.4390  145.8530 C   0  0  0  0  0  2  0  0  0  0  0  0
  190.6870  174.5550  144.5450 C   0  0  1  0  0  3  0  0  0  0  0  0
  192.3780  175.3430  146.0940 C   0  0  2  0  0  3  0  0  0  0  0  0
  190.4270  173.3650  143.6610 C   0  0  2  0  0  3  0  0  0  0  0  0
  188.6310  175.8320  145.0570 C   0  0  0  0  0  1  0  0  0  0  0  0
  192.8370  173.6190  144.1450 C   0  0  1  0  0  3  0  0  0  0  0  0
  1 21  1  0  0  0  0
  2  8  2  0  0  0  0
  4 22  1  0  0  0  0
  5 27  1  6  0  0  0
  5 17  1  0  0  0  0
  6  1  1  0  0  0  0
  6 23  1  0  0  0  0
  8  7  2  0  0  0  0
  9 18  1  6  0  0  0
  9 14  1  0  0  0  0
  9 13  1  0  0  0  0
 10  8  1  1  0  0  0
 10 26  1  0  0  0  0
 10 28  1  0  0  0  0
 12 25  1  0  0  0  0
 13 26  1  0  0  0  0
 14  8  1  0  0  0  0
 15 23  1  0  0  0  0
 15 11  1  0  0  0  0
 16  1  2  0  0  0  0
 16 20  1  0  0  0  0
 17  3  2  0  0  0  0
 19 15  1  0  0  0  0
 19 25  1  0  0  0  0
 20  4  2  0  0  0  0
 21 22  2  0  0  0  0
 24 12  1  0  0  0  0
 24  5  1  0  0  0  0
 25 17  1  0  0  0  0
 26 24  1  0  0  0  0
 28 16  1  0  0  0  0
 28 12  1  0  0  0  0
M  END
>  <MODEL>
8

>  <REMARK>
 VINA RESULT:      -7.1      3.397      8.021
  Name = 
  0 active torsions:
  status: ('A' for Active; 'I' for Inactive)
                            x       y       z     vdW  Elec       q    Type
                         _______ _______ _______ _____ _____    ______ ____

>  <TORSDO>
F 0

$$$$
=
 OpenBabel11112417353D

 28 32  0  0  1  0  0  0  0  0999 V2000
  194.3840  172.7530  145.5120 C   0  0  0  0  0  0  0  0  0  0  0  0
  191.5350  175.2910  148.3180 O   0  0  0  0  0  0  0  0  0  0  0  0
  191.6140  173.7910  140.3090 O   0  0  0  0  0  0  0  0  0  0  0  0
  195.5640  175.2900  145.3880 C   0  0  0  0  0  3  0  0  0  0  0  0
  189.8890  174.4050  142.1810 C   0  0  2  0  0  3  0  0  0  0  0  0
  193.8160  171.3740  145.3860 C   0  0  0  0  0  2  0  0  0  0  0  0
  192.4830  176.7810  146.5990 O   0  0  0  0  0  0  0  0  0  0  0  0
  191.3370  175.8770  146.9490 S   0  0  0  0  0  0  0  0  0  0  0  0
  188.7850  175.8980  146.4550 C   0  0  1  0  0  3  0  0  0  0  0  0
  191.0490  174.6010  145.7550 C   0  0  1  0  0  3  0  0  0  0  0  0
  192.8940  169.8040  142.1160 O   0  0  0  0  0  1  0  0  0  0  0  0
  191.7280  173.8230  143.5980 C   0  0  2  0  0  3  0  0  0  0  0  0
  188.8640  175.5180  145.0790 O   0  0  0  0  0  0  0  0  0  0  0  0
  189.8660  176.7980  146.8880 N   0  0  0  0  0  2  0  0  0  0  0  0
  192.6590  170.3290  143.3870 C   0  0  2  0  0  3  0  0  0  0  0  0
  193.5770  173.8930  145.3120 C   0  0  0  0  0  0  0  0  0  0  0  0
  190.7440  173.0570  141.3200 S   0  0  2  0  0  0  0  0  0  0  0  0
  187.4460  176.5550  146.7170 C   0  0  0  0  0  1  0  0  0  0  0  0
  191.5080  171.3360  143.3220 C   0  0  0  0  0  2  0  0  0  0  0  0
  194.1860  175.1490  145.2050 C   0  0  0  0  0  3  0  0  0  0  0  0
  195.7650  172.9000  145.6890 C   0  0  0  0  0  3  0  0  0  0  0  0
  196.3520  174.1670  145.6440 C   0  0  0  0  0  3  0  0  0  0  0  0
  193.9560  170.9160  143.9390 C   0  0  0  0  0  2  0  0  0  0  0  0
  190.2640  174.1480  143.6170 C   0  0  1  0  0  3  0  0  0  0  0  0
  191.9080  172.6510  142.6510 C   0  0  2  0  0  3  0  0  0  0  0  0
  190.1920  175.2280  144.6630 C   0  0  2  0  0  3  0  0  0  0  0  0
  188.3920  174.2550  142.0030 C   0  0  0  0  0  1  0  0  0  0  0  0
  192.1030  173.7130  145.0620 C   0  0  1  0  0  3  0  0  0  0  0  0
  1 21  1  0  0  0  0
  3 17  2  0  0  0  0
  4 22  1  0  0  0  0
  5 27  1  1  0  0  0
  5 24  1  0  0  0  0
  6  1  1  0  0  0  0
  7  8  2  0  0  0  0
  8  2  2  0  0  0  0
  9 18  1  6  0  0  0
  9 14  1  0  0  0  0
 10  8  1  6  0  0  0
 11 15  1  0  0  0  0
 12 24  1  0  0  0  0
 12 28  1  0  0  0  0
 13  9  1  0  0  0  0
 14  8  1  0  0  0  0
 15 23  1  0  0  0  0
 16  1  2  0  0  0  0
 17  5  1  0  0  0  0
 17 25  1  0  0  0  0
 19 15  1  0  0  0  0
 20 16  1  0  0  0  0
 20  4  2  0  0  0  0
 22 21  2  0  0  0  0
 23  6  1  0  0  0  0
 24 26  1  0  0  0  0
 25 19  1  0  0  0  0
 25 12  1  0  0  0  0
 26 13  1  0  0  0  0
 26 10  1  0  0  0  0
 28 16  1  0  0  0  0
 28 10  1  0  0  0  0
M  END
>  <MODEL>
9

>  <REMARK>
 VINA RESULT:      -7.1      2.863      6.862
  Name = 
  0 active torsions:
  status: ('A' for Active; 'I' for Inactive)
                            x       y       z     vdW  Elec       q    Type
                         _______ _______ _______ _____ _____    ______ ____

>  <TORSDO>
F 0

$$$$
