=
 OpenBabel11112417343D

 28 32  0  0  1  0  0  0  0  0999 V2000
  185.9990  178.2720  144.2160 C   0  0  0  0  0  0  0  0  0  0  0  0
  190.8340  177.5900  142.8080 O   0  0  0  0  0  0  0  0  0  0  0  0
  188.0240  174.8750  139.4160 O   0  0  0  0  0  1  0  0  0  0  0  0
  185.6460  176.9520  146.6560 C   0  0  0  0  0  3  0  0  0  0  0  0
  188.5090  174.2560  141.7590 C   0  0  0  0  0  0  0  0  0  0  0  0
  186.1370  178.8840  142.9410 N   0  0  0  0  0  2  0  0  0  0  0  0
  190.8330  178.4740  145.0950 O   0  0  0  0  0  0  0  0  0  0  0  0
  190.7540  177.2240  144.2650 S   0  0  0  0  0  0  0  0  0  0  0  0
  191.6040  174.8730  145.0260 C   0  0  2  0  0  3  0  0  0  0  0  0
  189.2490  176.4040  144.6020 N   0  0  2  0  0  0  0  0  0  0  0  0
  185.1810  177.5980  139.7410 O   0  0  0  0  0  0  0  0  0  0  0  0
  187.8480  176.1360  142.7480 N   0  0  0  0  0  0  0  0  0  0  0  0
  190.6450  174.3520  143.9680 C   0  0  0  0  0  2  0  0  0  0  0  0
  192.0970  176.1950  144.6550 N   0  0  0  0  0  2  0  0  0  0  0  0
  185.9000  177.8940  140.7300 C   0  0  0  0  0  0  0  0  0  0  0  0
  186.9830  177.3730  144.6650 C   0  0  0  0  0  0  0  0  0  0  0  0
  188.0130  175.1050  140.7870 C   0  0  0  0  0  0  0  0  0  0  0  0
  192.7750  173.9220  145.1500 C   0  0  0  0  0  1  0  0  0  0  0  0
  187.3600  177.5710  140.7130 C   0  0  0  0  0  2  0  0  0  0  0  0
  186.7890  176.7110  145.8900 C   0  0  0  0  0  3  0  0  0  0  0  0
  184.8470  178.4970  144.9760 C   0  0  0  0  0  3  0  0  0  0  0  0
  184.6750  177.8440  146.1990 C   0  0  0  0  0  3  0  0  0  0  0  0
  185.3120  178.4760  141.8880 N   0  0  0  0  0  2  0  0  0  0  0  0
  188.4250  174.9640  142.9440 C   0  0  0  0  0  0  0  0  0  0  0  0
  187.6330  176.2790  141.4180 C   0  0  0  0  0  0  0  0  0  0  0  0
  189.2570  174.9750  144.1670 C   0  0  2  0  0  3  0  0  0  0  0  0
  189.2880  173.0890  141.5230 N   0  0  0  0  0  1  0  0  0  0  0  0
  188.1940  177.0710  143.8020 C   0  0  1  0  0  3  0  0  0  0  0  0
  1 16  2  0  0  0  0
  1 21  1  0  0  0  0
  2  8  2  0  0  0  0
  3 17  1  0  0  0  0
  5 24  2  0  0  0  0
  6  1  1  0  0  0  0
  8 14  1  0  0  0  0
  8  7  2  0  0  0  0
  9 18  1  6  0  0  0
 10  8  1  6  0  0  0
 11 15  2  0  0  0  0
 12 24  1  0  0  0  0
 12 28  1  0  0  0  0
 13  9  1  0  0  0  0
 14  9  1  0  0  0  0
 15 23  1  0  0  0  0
 16 20  1  0  0  0  0
 17 25  2  0  0  0  0
 17  5  1  0  0  0  0
 19 15  1  0  0  0  0
 19 25  1  0  0  0  0
 20  4  2  0  0  0  0
 21 22  2  0  0  0  0
 22  4  1  0  0  0  0
 23  6  1  0  0  0  0
 24 26  1  0  0  0  0
 25 12  1  0  0  0  0
 26 13  1  6  0  0  0
 26 10  1  0  0  0  0
 27  5  1  0  0  0  0
 28 10  1  0  0  0  0
 28 16  1  1  0  0  0
M  END
>  <MODEL>
1

>  <REMARK>
 VINA RESULT:      -8.8      0.000      0.000
  Name = 
  0 active torsions:
  status: ('A' for Active; 'I' for Inactive)
                            x       y       z     vdW  Elec       q    Type
                         _______ _______ _______ _____ _____    ______ ____

>  <TORSDO>
F 0

$$$$
=
 OpenBabel11112417343D

 28 32  0  0  1  0  0  0  0  0999 V2000
  185.8730  176.8920  143.2730 C   0  0  0  0  0  0  0  0  0  0  0  0
  189.3220  173.2650  144.1500 O   0  0  0  0  0  0  0  0  0  0  0  0
  190.6470  177.1940  147.2460 O   0  0  0  0  0  1  0  0  0  0  0  0
  186.3050  177.8470  140.6810 C   0  0  0  0  0  3  0  0  0  0  0  0
  190.9810  177.0660  144.8010 C   0  0  0  0  0  0  0  0  0  0  0  0
  185.6840  176.4760  144.6180 N   0  0  0  0  0  2  0  0  0  0  0  0
  188.1720  172.7190  142.0550 O   0  0  0  0  0  0  0  0  0  0  0  0
  189.3060  173.4940  142.6630 S   0  0  0  0  0  0  0  0  0  0  0  0
  191.5500  174.0540  141.4480 C   0  0  2  0  0  3  0  0  0  0  0  0
  189.0960  175.1920  142.3140 N   0  0  2  0  0  0  0  0  0  0  0  0
  186.8120  178.0650  147.6190 O   0  0  0  0  0  0  0  0  0  0  0  0
  188.8990  176.5600  144.2030 N   0  0  0  0  0  0  0  0  0  0  0  0
  191.6520  175.1700  142.4750 C   0  0  0  0  0  2  0  0  0  0  0  0
  190.8060  172.9270  141.9970 N   0  0  0  0  0  2  0  0  0  0  0  0
  186.7770  177.2760  146.6400 C   0  0  0  0  0  0  0  0  0  0  0  0
  187.0600  176.5520  142.6000 C   0  0  0  0  0  0  0  0  0  0  0  0
  190.1970  177.0400  145.9400 C   0  0  0  0  0  0  0  0  0  0  0  0
  192.9420  173.5950  141.0700 C   0  0  0  0  0  1  0  0  0  0  0  0
  187.8380  176.2340  146.4850 C   0  0  0  0  0  2  0  0  0  0  0  0
  187.2670  177.0440  141.3000 C   0  0  0  0  0  3  0  0  0  0  0  0
  184.9190  177.7110  142.6570 C   0  0  0  0  0  3  0  0  0  0  0  0
  185.1320  178.1800  141.3590 C   0  0  0  0  0  3  0  0  0  0  0  0
  185.7650  177.4160  145.6490 N   0  0  0  0  0  2  0  0  0  0  0  0
  190.1350  176.7160  143.7640 C   0  0  0  0  0  0  0  0  0  0  0  0
  188.9130  176.6960  145.5510 C   0  0  0  0  0  0  0  0  0  0  0  0
  190.3510  175.9820  142.4980 C   0  0  2  0  0  3  0  0  0  0  0  0
  192.4030  177.0620  144.7710 N   0  0  0  0  0  1  0  0  0  0  0  0
  188.1250  175.7290  143.2980 C   0  0  1  0  0  3  0  0  0  0  0  0
  1  6  1  0  0  0  0
  4 20  2  0  0  0  0
  4 22  1  0  0  0  0
  5 17  1  0  0  0  0
  6 23  1  0  0  0  0
  7  8  2  0  0  0  0
  8  2  2  0  0  0  0
  9 18  1  1  0  0  0
  9 14  1  0  0  0  0
  9 13  1  0  0  0  0
 10 26  1  0  0  0  0
 10  8  1  1  0  0  0
 10 28  1  0  0  0  0
 12 25  1  0  0  0  0
 14  8  1  0  0  0  0
 15 11  2  0  0  0  0
 16  1  2  0  0  0  0
 17  3  1  0  0  0  0
 19 15  1  0  0  0  0
 20 16  1  0  0  0  0
 21  1  1  0  0  0  0
 22 21  2  0  0  0  0
 23 15  1  0  0  0  0
 24 12  1  0  0  0  0
 24  5  2  0  0  0  0
 25 17  2  0  0  0  0
 25 19  1  0  0  0  0
 26 13  1  1  0  0  0
 26 24  1  0  0  0  0
 27  5  1  0  0  0  0
 28 16  1  6  0  0  0
 28 12  1  0  0  0  0
M  END
>  <MODEL>
2

>  <REMARK>
 VINA RESULT:      -8.2      2.508      4.673
  Name = 
  0 active torsions:
  status: ('A' for Active; 'I' for Inactive)
                            x       y       z     vdW  Elec       q    Type
                         _______ _______ _______ _____ _____    ______ ____

>  <TORSDO>
F 0

$$$$
=
 OpenBabel11112417343D

 28 32  0  0  1  0  0  0  0  0999 V2000
  191.3120  173.8270  141.9230 C   0  0  0  0  0  0  0  0  0  0  0  0
  189.6190  178.0790  144.1310 O   0  0  0  0  0  0  0  0  0  0  0  0
  193.8020  176.6970  146.8450 O   0  0  0  0  0  1  0  0  0  0  0  0
  189.4340  171.8180  142.4300 C   0  0  0  0  0  3  0  0  0  0  0  0
  191.5710  175.6380  146.9340 C   0  0  0  0  0  0  0  0  0  0  0  0
  192.3150  174.8120  141.7180 N   0  0  0  0  0  2  0  0  0  0  0  0
  187.8230  177.2020  142.7100 O   0  0  0  0  0  0  0  0  0  0  0  0
  188.4530  177.1300  144.0730 S   0  0  0  0  0  0  0  0  0  0  0  0
  187.1720  176.5660  146.2790 C   0  0  2  0  0  3  0  0  0  0  0  0
  188.9870  175.4950  144.3740 N   0  0  2  0  0  0  0  0  0  0  0  0
  195.3750  175.2780  143.5120 O   0  0  0  0  0  0  0  0  0  0  0  0
  191.2850  175.2730  144.7580 N   0  0  0  0  0  0  0  0  0  0  0  0
  188.5480  176.1850  146.8010 C   0  0  0  0  0  2  0  0  0  0  0  0
  187.2860  177.6090  145.2660 N   0  0  0  0  0  2  0  0  0  0  0  0
  194.1780  175.4280  143.1580 C   0  0  0  0  0  0  0  0  0  0  0  0
  190.3130  174.0410  142.8900 C   0  0  0  0  0  0  0  0  0  0  0  0
  192.7100  176.0570  146.2710 C   0  0  0  0  0  0  0  0  0  0  0  0
  186.3260  177.0770  147.4260 C   0  0  0  0  0  1  0  0  0  0  0  0
  193.3270  176.4580  143.8270 C   0  0  0  0  0  2  0  0  0  0  0  0
  189.3800  173.0200  143.1390 C   0  0  0  0  0  3  0  0  0  0  0  0
  191.3740  172.6140  141.2270 C   0  0  0  0  0  3  0  0  0  0  0  0
  190.4310  171.6150  141.4740 C   0  0  0  0  0  3  0  0  0  0  0  0
  193.6170  174.5730  142.1670 N   0  0  0  0  0  2  0  0  0  0  0  0
  190.7060  175.2070  145.9440 C   0  0  0  0  0  0  0  0  0  0  0  0
  192.5010  175.8480  144.9180 C   0  0  0  0  0  0  0  0  0  0  0  0
  189.2330  175.2220  145.8230 C   0  0  2  0  0  3  0  0  0  0  0  0
  191.2280  175.9550  148.2780 N   0  0  0  0  0  1  0  0  0  0  0  0
  190.2950  175.3250  143.6970 C   0  0  1  0  0  3  0  0  0  0  0  0
  1 16  1  0  0  0  0
  4 20  1  0  0  0  0
  5 27  1  0  0  0  0
  6  1  1  0  0  0  0
  6 23  1  0  0  0  0
  7  8  2  0  0  0  0
  8  2  2  0  0  0  0
  8 14  1  0  0  0  0
  9 13  1  0  0  0  0
  9 18  1  1  0  0  0
 10  8  1  1  0  0  0
 10 26  1  0  0  0  0
 12 25  1  0  0  0  0
 12 24  1  0  0  0  0
 14  9  1  0  0  0  0
 15 11  2  0  0  0  0
 15 19  1  0  0  0  0
 16 20  2  0  0  0  0
 17  3  1  0  0  0  0
 17  5  1  0  0  0  0
 19 25  1  0  0  0  0
 21 22  1  0  0  0  0
 21  1  2  0  0  0  0
 22  4  2  0  0  0  0
 23 15  1  0  0  0  0
 24  5  2  0  0  0  0
 25 17  2  0  0  0  0
 26 24  1  0  0  0  0
 26 13  1  1  0  0  0
 28 16  1  1  0  0  0
 28 10  1  0  0  0  0
 28 12  1  0  0  0  0
M  END
>  <MODEL>
3

>  <REMARK>
 VINA RESULT:      -7.8      2.803      6.568
  Name = 
  0 active torsions:
  status: ('A' for Active; 'I' for Inactive)
                            x       y       z     vdW  Elec       q    Type
                         _______ _______ _______ _____ _____    ______ ____

>  <TORSDO>
F 0

$$$$
=
 OpenBabel11112417343D

 28 32  0  0  1  0  0  0  0  0999 V2000
  188.2900  176.7530  145.4830 C   0  0  0  0  0  0  0  0  0  0  0  0
  191.1010  172.6920  144.2870 O   0  0  0  0  0  0  0  0  0  0  0  0
  194.4320  176.1380  146.2360 O   0  0  0  0  0  1  0  0  0  0  0  0
  187.4040  177.8910  143.0870 C   0  0  0  0  0  3  0  0  0  0  0  0
  193.3850  176.2030  143.9990 C   0  0  0  0  0  0  0  0  0  0  0  0
  188.7910  176.2370  146.7080 N   0  0  0  0  0  2  0  0  0  0  0  0
  188.9440  172.4790  143.1400 O   0  0  0  0  0  0  0  0  0  0  0  0
  190.3270  173.0600  143.0500 S   0  0  0  0  0  0  0  0  0  0  0  0
  191.6270  173.4730  140.8220 C   0  0  2  0  0  3  0  0  0  0  0  0
  190.2130  174.7960  142.9000 N   0  0  2  0  0  0  0  0  0  0  0  0
  191.5660  177.4000  148.6440 O   0  0  0  0  0  0  0  0  0  0  0  0
  191.2580  175.9950  144.6170 N   0  0  0  0  0  0  0  0  0  0  0  0
  192.4230  174.4700  141.6490 C   0  0  0  0  0  2  0  0  0  0  0  0
  191.1360  172.3910  141.6670 N   0  0  0  0  0  2  0  0  0  0  0  0
  190.8990  176.7150  147.8270 C   0  0  0  0  0  0  0  0  0  0  0  0
  188.8690  176.3450  144.2680 C   0  0  0  0  0  0  0  0  0  0  0  0
  193.3370  176.1600  145.3800 C   0  0  0  0  0  0  0  0  0  0  0  0
  192.5160  172.8970  139.7410 C   0  0  0  0  0  1  0  0  0  0  0  0
  191.5470  175.5790  147.1040 C   0  0  0  0  0  2  0  0  0  0  0  0
  188.4190  176.9310  143.0720 C   0  0  0  0  0  3  0  0  0  0  0  0
  187.2870  177.7290  145.4970 C   0  0  0  0  0  3  0  0  0  0  0  0
  186.8390  178.2910  144.2990 C   0  0  0  0  0  3  0  0  0  0  0  0
  189.5470  177.0620  147.5460 N   0  0  0  0  0  2  0  0  0  0  0  0
  192.0750  176.0500  143.5800 C   0  0  0  0  0  0  0  0  0  0  0  0
  192.0100  176.0020  145.7440 C   0  0  0  0  0  0  0  0  0  0  0  0
  191.4710  175.4180  142.3880 C   0  0  2  0  0  3  0  0  0  0  0  0
  194.5520  176.0410  143.2020 N   0  0  0  0  0  1  0  0  0  0  0  0
  190.0090  175.3450  144.2620 C   0  0  1  0  0  3  0  0  0  0  0  0
  1 21  1  0  0  0  0
  1  6  1  0  0  0  0
  4 22  1  0  0  0  0
  5 17  1  0  0  0  0
  6 23  1  0  0  0  0
  8  7  2  0  0  0  0
  8  2  2  0  0  0  0
  9 18  1  6  0  0  0
  9 13  1  0  0  0  0
  9 14  1  0  0  0  0
 10  8  1  1  0  0  0
 10 28  1  0  0  0  0
 12 25  1  0  0  0  0
 14  8  1  0  0  0  0
 15 11  2  0  0  0  0
 16  1  2  0  0  0  0
 17 25  2  0  0  0  0
 17  3  1  0  0  0  0
 19 15  1  0  0  0  0
 20  4  2  0  0  0  0
 20 16  1  0  0  0  0
 22 21  2  0  0  0  0
 23 15  1  0  0  0  0
 24  5  2  0  0  0  0
 24 12  1  0  0  0  0
 25 19  1  0  0  0  0
 26 13  1  1  0  0  0
 26 10  1  0  0  0  0
 26 24  1  0  0  0  0
 27  5  1  0  0  0  0
 28 16  1  6  0  0  0
 28 12  1  0  0  0  0
M  END
>  <MODEL>
4

>  <REMARK>
 VINA RESULT:      -7.5      3.181      5.568
  Name = 
  0 active torsions:
  status: ('A' for Active; 'I' for Inactive)
                            x       y       z     vdW  Elec       q    Type
                         _______ _______ _______ _____ _____    ______ ____

>  <TORSDO>
F 0

$$$$
=
 OpenBabel11112417343D

 28 32  0  0  1  0  0  0  0  0999 V2000
  190.2420  174.8080  143.7840 C   0  0  0  0  0  0  0  0  0  0  0  0
  187.7500  179.1530  142.9260 O   0  0  0  0  0  0  0  0  0  0  0  0
  187.2940  178.2920  148.0080 O   0  0  0  0  0  1  0  0  0  0  0  0
  188.7790  172.7540  142.5760 C   0  0  0  0  0  3  0  0  0  0  0  0
  186.0850  177.1190  146.1990 C   0  0  0  0  0  0  0  0  0  0  0  0
  190.9600  175.8250  144.4690 N   0  0  0  0  0  2  0  0  0  0  0  0
  188.0820  178.0360  140.7680 O   0  0  0  0  0  0  0  0  0  0  0  0
  187.1860  178.1360  141.9710 S   0  0  0  0  0  0  0  0  0  0  0  0
  184.6060  177.7200  141.9470 C   0  0  2  0  0  3  0  0  0  0  0  0
  187.0810  176.5730  142.7410 N   0  0  2  0  0  0  0  0  0  0  0  0
  190.8830  176.6430  147.9510 O   0  0  0  0  0  0  0  0  0  0  0  0
  187.8310  176.5250  144.9570 N   0  0  0  0  0  0  0  0  0  0  0  0
  184.7860  177.4740  143.4360 C   0  0  0  0  0  2  0  0  0  0  0  0
  185.6100  178.6630  141.4650 N   0  0  0  0  0  2  0  0  0  0  0  0
  190.6280  176.6870  146.7200 C   0  0  0  0  0  0  0  0  0  0  0  0
  188.9300  175.0590  143.3450 C   0  0  0  0  0  0  0  0  0  0  0  0
  187.2350  177.5350  146.8430 C   0  0  0  0  0  0  0  0  0  0  0  0
  183.2270  178.2920  141.6970 C   0  0  0  0  0  1  0  0  0  0  0  0
  189.6950  177.7280  146.1900 C   0  0  0  0  0  2  0  0  0  0  0  0
  188.2040  174.0150  142.7460 C   0  0  0  0  0  3  0  0  0  0  0  0
  190.8100  173.5380  143.6290 C   0  0  0  0  0  3  0  0  0  0  0  0
  190.0820  172.5150  143.0180 C   0  0  0  0  0  3  0  0  0  0  0  0
  191.1770  175.7080  145.8450 N   0  0  0  0  0  2  0  0  0  0  0  0
  186.5120  176.5420  145.0170 C   0  0  0  0  0  0  0  0  0  0  0  0
  188.3090  177.1820  146.0410 C   0  0  0  0  0  0  0  0  0  0  0  0
  185.9130  176.4600  143.6680 C   0  0  2  0  0  3  0  0  0  0  0  0
  184.7620  177.5470  146.5030 N   0  0  0  0  0  1  0  0  0  0  0  0
  188.2900  176.4130  143.5840 C   0  0  1  0  0  3  0  0  0  0  0  0
  1  6  1  0  0  0  0
  4 20  2  0  0  0  0
  4 22  1  0  0  0  0
  5 27  1  0  0  0  0
  5 17  1  0  0  0  0
  6 23  1  0  0  0  0
  7  8  2  0  0  0  0
  8  2  2  0  0  0  0
  9 18  1  1  0  0  0
  9 13  1  0  0  0  0
 10  8  1  1  0  0  0
 10 28  1  0  0  0  0
 10 26  1  0  0  0  0
 12 24  1  0  0  0  0
 12 25  1  0  0  0  0
 14  9  1  0  0  0  0
 14  8  1  0  0  0  0
 15 11  2  0  0  0  0
 16  1  2  0  0  0  0
 17  3  1  0  0  0  0
 19 15  1  0  0  0  0
 20 16  1  0  0  0  0
 21  1  1  0  0  0  0
 22 21  2  0  0  0  0
 23 15  1  0  0  0  0
 24  5  2  0  0  0  0
 25 19  1  0  0  0  0
 25 17  2  0  0  0  0
 26 13  1  6  0  0  0
 26 24  1  0  0  0  0
 28 16  1  1  0  0  0
 28 12  1  0  0  0  0
M  END
>  <MODEL>
5

>  <REMARK>
 VINA RESULT:      -7.3      2.280      6.437
  Name = 
  0 active torsions:
  status: ('A' for Active; 'I' for Inactive)
                            x       y       z     vdW  Elec       q    Type
                         _______ _______ _______ _____ _____    ______ ____

>  <TORSDO>
F 0

$$$$
=
 OpenBabel11112417343D

 28 32  0  0  1  0  0  0  0  0999 V2000
  189.8530  176.1640  146.3760 C   0  0  0  0  0  0  0  0  0  0  0  0
  191.7110  171.9910  144.1510 O   0  0  0  0  0  0  0  0  0  0  0  0
  195.2820  175.6560  143.3870 O   0  0  0  0  0  1  0  0  0  0  0  0
  187.6430  176.9960  144.8790 C   0  0  0  0  0  3  0  0  0  0  0  0
  193.1160  175.4420  142.2180 C   0  0  0  0  0  0  0  0  0  0  0  0
  191.0170  175.8040  147.1070 N   0  0  0  0  0  2  0  0  0  0  0  0
  189.3160  171.6340  144.5390 O   0  0  0  0  0  0  0  0  0  0  0  0
  190.3320  172.2020  143.5880 S   0  0  0  0  0  0  0  0  0  0  0  0
  190.0320  172.3380  140.9950 C   0  0  2  0  0  3  0  0  0  0  0  0
  190.0220  173.9060  143.3650 N   0  0  2  0  0  0  0  0  0  0  0  0
  194.3040  177.2010  146.8880 O   0  0  0  0  0  0  0  0  0  0  0  0
  191.7860  175.3090  143.9950 N   0  0  0  0  0  0  0  0  0  0  0  0
  191.0860  173.4300  141.0840 C   0  0  0  0  0  2  0  0  0  0  0  0
  190.2170  171.3680  142.0690 N   0  0  0  0  0  2  0  0  0  0  0  0
  193.3360  176.4190  146.7000 C   0  0  0  0  0  0  0  0  0  0  0  0
  189.6320  175.6100  145.1030 C   0  0  0  0  0  0  0  0  0  0  0  0
  193.8950  175.5700  143.3530 C   0  0  0  0  0  0  0  0  0  0  0  0
  190.1540  171.6340  139.6610 C   0  0  0  0  0  1  0  0  0  0  0  0
  193.5150  175.2040  145.8500 C   0  0  0  0  0  2  0  0  0  0  0  0
  188.5220  176.0420  144.3580 C   0  0  0  0  0  3  0  0  0  0  0  0
  188.9820  177.1320  146.8880 C   0  0  0  0  0  3  0  0  0  0  0  0
  187.8740  177.5410  146.1430 C   0  0  0  0  0  3  0  0  0  0  0  0
  192.0570  176.7270  147.2460 N   0  0  0  0  0  2  0  0  0  0  0  0
  191.8270  175.2360  142.6770 C   0  0  0  0  0  0  0  0  0  0  0  0
  193.0540  175.4560  144.4470 C   0  0  0  0  0  0  0  0  0  0  0  0
  190.6850  174.4610  142.1470 C   0  0  2  0  0  3  0  0  0  0  0  0
  193.5970  175.1850  140.9040 N   0  0  0  0  0  1  0  0  0  0  0  0
  190.6210  174.6180  144.5190 C   0  0  1  0  0  3  0  0  0  0  0  0
  1 21  1  0  0  0  0
  1  6  1  0  0  0  0
  4 22  1  0  0  0  0
  5 24  2  0  0  0  0
  5 17  1  0  0  0  0
  6 23  1  0  0  0  0
  8  2  2  0  0  0  0
  8  7  2  0  0  0  0
  9 18  1  6  0  0  0
  9 13  1  0  0  0  0
  9 14  1  0  0  0  0
 10  8  1  1  0  0  0
 10 28  1  0  0  0  0
 12 25  1  0  0  0  0
 12 28  1  0  0  0  0
 14  8  1  0  0  0  0
 15 11  2  0  0  0  0
 15 23  1  0  0  0  0
 16  1  2  0  0  0  0
 17  3  1  0  0  0  0
 17 25  2  0  0  0  0
 19 15  1  0  0  0  0
 20  4  2  0  0  0  0
 20 16  1  0  0  0  0
 22 21  2  0  0  0  0
 24 12  1  0  0  0  0
 25 19  1  0  0  0  0
 26 13  1  6  0  0  0
 26 24  1  0  0  0  0
 26 10  1  0  0  0  0
 27  5  1  0  0  0  0
 28 16  1  6  0  0  0
M  END
>  <MODEL>
6

>  <REMARK>
 VINA RESULT:      -7.3      3.756      5.909
  Name = 
  0 active torsions:
  status: ('A' for Active; 'I' for Inactive)
                            x       y       z     vdW  Elec       q    Type
                         _______ _______ _______ _____ _____    ______ ____

>  <TORSDO>
F 0

$$$$
=
 OpenBabel11112417343D

 28 32  0  0  1  0  0  0  0  0999 V2000
  190.3790  176.8360  144.9470 C   0  0  0  0  0  0  0  0  0  0  0  0
  194.4480  174.8070  142.6770 O   0  0  0  0  0  0  0  0  0  0  0  0
  190.6020  171.4440  141.8570 O   0  0  0  0  0  1  0  0  0  0  0  0
  190.8310  176.7480  147.7050 C   0  0  0  0  0  3  0  0  0  0  0  0
  191.8270  171.7950  143.9740 C   0  0  0  0  0  0  0  0  0  0  0  0
  190.0970  176.8210  143.5550 N   0  0  0  0  0  2  0  0  0  0  0  0
  195.2320  176.5570  144.2050 O   0  0  0  0  0  0  0  0  0  0  0  0
  194.8510  175.1070  144.0960 S   0  0  0  0  0  0  0  0  0  0  0  0
  195.8500  173.1870  145.5590 C   0  0  2  0  0  3  0  0  0  0  0  0
  193.5260  174.7770  145.1850 N   0  0  2  0  0  0  0  0  0  0  0  0
  188.0970  174.4940  141.7140 O   0  0  0  0  0  0  0  0  0  0  0  0
  191.5800  173.9980  144.1460 N   0  0  0  0  0  0  0  0  0  0  0  0
  194.5800  172.4430  145.1800 C   0  0  0  0  0  2  0  0  0  0  0  0
  196.2220  174.1250  144.5050 N   0  0  0  0  0  2  0  0  0  0  0  0
  189.1120  175.0500  142.2070 C   0  0  0  0  0  0  0  0  0  0  0  0
  191.4350  176.0550  145.4500 C   0  0  0  0  0  0  0  0  0  0  0  0
  191.0550  172.2270  142.9120 C   0  0  0  0  0  0  0  0  0  0  0  0
  196.9730  172.1920  145.7580 C   0  0  0  0  0  1  0  0  0  0  0  0
  190.4730  174.5050  141.9190 C   0  0  0  0  0  2  0  0  0  0  0  0
  191.6460  176.0140  146.8390 C   0  0  0  0  0  3  0  0  0  0  0  0
  189.5530  177.5550  145.8170 C   0  0  0  0  0  3  0  0  0  0  0  0
  189.7840  177.5170  147.1940 C   0  0  0  0  0  3  0  0  0  0  0  0
  188.9580  176.1570  143.0890 N   0  0  0  0  0  2  0  0  0  0  0  0
  192.1620  172.9380  144.6770 C   0  0  0  0  0  0  0  0  0  0  0  0
  190.9360  173.6030  143.0210 C   0  0  0  0  0  0  0  0  0  0  0  0
  193.3540  173.3200  145.4640 C   0  0  2  0  0  3  0  0  0  0  0  0
  192.4550  170.5220  144.0810 N   0  0  0  0  0  1  0  0  0  0  0  0
  192.2800  175.2160  144.5110 C   0  0  1  0  0  3  0  0  0  0  0  0
  1 16  2  0  0  0  0
  1 21  1  0  0  0  0
  2  8  2  0  0  0  0
  3 17  1  0  0  0  0
  5 27  1  0  0  0  0
  5 24  2  0  0  0  0
  6  1  1  0  0  0  0
  8  7  2  0  0  0  0
  8 14  1  0  0  0  0
  9 18  1  6  0  0  0
 10  8  1  6  0  0  0
 10 26  1  0  0  0  0
 11 15  2  0  0  0  0
 12 28  1  0  0  0  0
 12 24  1  0  0  0  0
 13  9  1  0  0  0  0
 14  9  1  0  0  0  0
 15 23  1  0  0  0  0
 16 20  1  0  0  0  0
 17 25  2  0  0  0  0
 17  5  1  0  0  0  0
 19 15  1  0  0  0  0
 19 25  1  0  0  0  0
 20  4  2  0  0  0  0
 21 22  2  0  0  0  0
 22  4  1  0  0  0  0
 23  6  1  0  0  0  0
 24 26  1  0  0  0  0
 25 12  1  0  0  0  0
 26 13  1  6  0  0  0
 28 10  1  0  0  0  0
 28 16  1  1  0  0  0
M  END
>  <MODEL>
7

>  <REMARK>
 VINA RESULT:      -7.3      3.259      4.699
  Name = 
  0 active torsions:
  status: ('A' for Active; 'I' for Inactive)
                            x       y       z     vdW  Elec       q    Type
                         _______ _______ _______ _____ _____    ______ ____

>  <TORSDO>
F 0

$$$$
=
 OpenBabel11112417343D

 28 32  0  0  1  0  0  0  0  0999 V2000
  188.1440  176.9550  145.4820 C   0  0  0  0  0  0  0  0  0  0  0  0
  192.1660  176.6880  142.3880 O   0  0  0  0  0  0  0  0  0  0  0  0
  188.1900  174.8610  139.6260 O   0  0  0  0  0  1  0  0  0  0  0  0
  188.5280  175.0740  147.5140 C   0  0  0  0  0  3  0  0  0  0  0  0
  189.3810  173.6910  141.4480 C   0  0  0  0  0  0  0  0  0  0  0  0
  187.8930  177.8630  144.4180 N   0  0  0  0  0  2  0  0  0  0  0  0
  192.9950  176.9830  144.6760 O   0  0  0  0  0  0  0  0  0  0  0  0
  192.5500  175.9740  143.6560 S   0  0  0  0  0  0  0  0  0  0  0  0
  193.4260  173.5170  143.5070 C   0  0  2  0  0  3  0  0  0  0  0  0
  191.1870  175.0820  144.2850 N   0  0  2  0  0  0  0  0  0  0  0  0
  185.8310  177.3930  141.5320 O   0  0  0  0  0  0  0  0  0  0  0  0
  189.2310  175.2630  143.0140 N   0  0  0  0  0  0  0  0  0  0  0  0
  192.1320  173.2620  142.7510 C   0  0  0  0  0  2  0  0  0  0  0  0
  193.8650  174.8940  143.3100 N   0  0  0  0  0  2  0  0  0  0  0  0
  186.8590  177.4440  142.2550 C   0  0  0  0  0  0  0  0  0  0  0  0
  189.1510  175.9830  145.3430 C   0  0  0  0  0  0  0  0  0  0  0  0
  188.6540  174.7470  140.9320 C   0  0  0  0  0  0  0  0  0  0  0  0
  194.4970  172.5760  142.9970 C   0  0  0  0  0  1  0  0  0  0  0  0
  188.2000  177.1500  141.6640 C   0  0  0  0  0  2  0  0  0  0  0  0
  189.3280  175.0390  146.3700 C   0  0  0  0  0  3  0  0  0  0  0  0
  187.3320  176.9760  146.6210 C   0  0  0  0  0  3  0  0  0  0  0  0
  187.5290  176.0410  147.6390 C   0  0  0  0  0  3  0  0  0  0  0  0
  186.7360  177.7180  143.6470 N   0  0  0  0  0  2  0  0  0  0  0  0
  189.7510  174.0850  142.7210 C   0  0  0  0  0  0  0  0  0  0  0  0
  188.5960  175.7260  141.9100 C   0  0  0  0  0  0  0  0  0  0  0  0
  190.9410  173.8040  143.5520 C   0  0  2  0  0  3  0  0  0  0  0  0
  189.9470  172.6250  140.6940 N   0  0  0  0  0  1  0  0  0  0  0  0
  189.9780  175.9150  144.0740 C   0  0  1  0  0  3  0  0  0  0  0  0
  1 21  1  0  0  0  0
  2  8  2  0  0  0  0
  3 17  1  0  0  0  0
  4 22  1  0  0  0  0
  5 24  2  0  0  0  0
  6  1  1  0  0  0  0
  8  7  2  0  0  0  0
  9 18  1  6  0  0  0
 10  8  1  6  0  0  0
 11 15  2  0  0  0  0
 12 28  1  0  0  0  0
 13  9  1  0  0  0  0
 14  9  1  0  0  0  0
 14  8  1  0  0  0  0
 15 23  1  0  0  0  0
 16  1  2  0  0  0  0
 16 20  1  0  0  0  0
 17  5  1  0  0  0  0
 17 25  2  0  0  0  0
 19 25  1  0  0  0  0
 19 15  1  0  0  0  0
 20  4  2  0  0  0  0
 21 22  2  0  0  0  0
 23  6  1  0  0  0  0
 24 12  1  0  0  0  0
 24 26  1  0  0  0  0
 25 12  1  0  0  0  0
 26 13  1  6  0  0  0
 26 10  1  0  0  0  0
 27  5  1  0  0  0  0
 28 10  1  0  0  0  0
 28 16  1  1  0  0  0
M  END
>  <MODEL>
8

>  <REMARK>
 VINA RESULT:      -7.2      1.788      2.320
  Name = 
  0 active torsions:
  status: ('A' for Active; 'I' for Inactive)
                            x       y       z     vdW  Elec       q    Type
                         _______ _______ _______ _____ _____    ______ ____

>  <TORSDO>
F 0

$$$$
=
 OpenBabel11112417343D

 28 32  0  0  1  0  0  0  0  0999 V2000
  187.4420  176.2680  142.6190 C   0  0  0  0  0  0  0  0  0  0  0  0
  192.5160  176.5280  142.5000 O   0  0  0  0  0  0  0  0  0  0  0  0
  191.3820  171.5370  141.7380 O   0  0  0  0  0  1  0  0  0  0  0  0
  186.6410  176.7910  145.2470 C   0  0  0  0  0  3  0  0  0  0  0  0
  191.2640  172.7660  143.8790 C   0  0  0  0  0  0  0  0  0  0  0  0
  187.8310  175.9250  141.2960 N   0  0  0  0  0  2  0  0  0  0  0  0
  191.6790  178.5980  143.5130 O   0  0  0  0  0  0  0  0  0  0  0  0
  192.0810  177.1770  143.7860 S   0  0  0  0  0  0  0  0  0  0  0  0
  193.0930  176.3200  146.0380 C   0  0  2  0  0  3  0  0  0  0  0  0
  190.7240  176.3170  144.4700 N   0  0  2  0  0  0  0  0  0  0  0  0
  188.1130  172.6720  139.8330 O   0  0  0  0  0  0  0  0  0  0  0  0
  190.0040  174.4750  143.2180 N   0  0  0  0  0  0  0  0  0  0  0  0
  192.6010  174.9620  145.5660 C   0  0  0  0  0  2  0  0  0  0  0  0
  193.4180  177.1660  144.8940 N   0  0  0  0  0  2  0  0  0  0  0  0
  188.4420  173.7500  140.3910 C   0  0  0  0  0  0  0  0  0  0  0  0
  188.4010  176.2630  143.6490 C   0  0  0  0  0  0  0  0  0  0  0  0
  190.9260  172.5670  142.5540 C   0  0  0  0  0  0  0  0  0  0  0  0
  194.3320  176.1360  146.8880 C   0  0  0  0  0  1  0  0  0  0  0  0
  189.8760  174.0070  140.7270 C   0  0  0  0  0  2  0  0  0  0  0  0
  187.9820  176.5210  144.9650 C   0  0  0  0  0  3  0  0  0  0  0  0
  186.0960  176.5200  142.9060 C   0  0  0  0  0  3  0  0  0  0  0  0
  185.6980  176.7900  144.2170 C   0  0  0  0  0  3  0  0  0  0  0  0
  187.4420  174.6930  140.7610 N   0  0  0  0  0  2  0  0  0  0  0  0
  190.7060  173.9840  144.2240 C   0  0  0  0  0  0  0  0  0  0  0  0
  190.1660  173.6540  142.1530 C   0  0  0  0  0  0  0  0  0  0  0  0
  191.1250  175.0520  145.1560 C   0  0  2  0  0  3  0  0  0  0  0  0
  192.2820  172.0700  144.5910 N   0  0  0  0  0  1  0  0  0  0  0  0
  189.8450  175.9120  143.3470 C   0  0  1  0  0  3  0  0  0  0  0  0
  1 21  2  0  0  0  0
  1 16  1  0  0  0  0
  2  8  2  0  0  0  0
  3 17  1  0  0  0  0
  5 24  2  0  0  0  0
  5 27  1  0  0  0  0
  6  1  1  0  0  0  0
  7  8  2  0  0  0  0
  8 14  1  0  0  0  0
  9 18  1  1  0  0  0
 10  8  1  6  0  0  0
 10 26  1  0  0  0  0
 11 15  2  0  0  0  0
 12 28  1  0  0  0  0
 12 24  1  0  0  0  0
 13  9  1  0  0  0  0
 14  9  1  0  0  0  0
 15 19  1  0  0  0  0
 15 23  1  0  0  0  0
 16 20  2  0  0  0  0
 17  5  1  0  0  0  0
 19 25  1  0  0  0  0
 20  4  1  0  0  0  0
 21 22  1  0  0  0  0
 22  4  2  0  0  0  0
 23  6  1  0  0  0  0
 24 26  1  0  0  0  0
 25 17  2  0  0  0  0
 25 12  1  0  0  0  0
 26 13  1  6  0  0  0
 28 16  1  1  0  0  0
 28 10  1  0  0  0  0
M  END
>  <MODEL>
9

>  <REMARK>
 VINA RESULT:      -6.9      2.117      3.265
  Name = 
  0 active torsions:
  status: ('A' for Active; 'I' for Inactive)
                            x       y       z     vdW  Elec       q    Type
                         _______ _______ _______ _____ _____    ______ ____

>  <TORSDO>
F 0

$$$$
