=
 OpenBabel11112417163D

 37 43  0  0  1  0  0  0  0  0999 V2000
  194.5710  174.9640  145.0770 C   0  0  0  0  0  0  0  0  0  0  0  0
  190.5310  175.9500  145.4120 C   0  0  0  0  0  0  0  0  0  0  0  0
  189.2190  178.0510  143.5140 C   0  0  0  0  0  1  0  0  0  0  0  0
  192.6690  175.9140  146.5080 C   0  0  0  0  0  0  0  0  0  0  0  0
  190.0190  175.8050  144.0930 N   0  0  0  0  0  0  0  0  0  0  0  0
  191.8400  175.6180  145.4390 C   0  0  0  0  0  0  0  0  0  0  0  0
  188.8770  176.5670  143.5920 C   0  0  1  0  0  3  0  0  0  0  0  0
  192.0880  176.5200  147.6380 C   0  0  0  0  0  3  0  0  0  0  0  0
  192.2870  175.2060  144.1730 N   0  0  0  0  0  0  0  0  0  0  0  0
  194.4810  173.4800  145.3840 C   0  0  0  0  0  1  0  0  0  0  0  0
  188.4850  176.9820  146.4240 C   0  0  0  0  0  2  0  0  0  0  0  0
  190.7050  176.8270  147.6420 C   0  0  0  0  0  3  0  0  0  0  0  0
  193.7050  175.2910  143.8390 C   0  0  0  0  0  2  0  0  0  0  0  0
  189.9130  176.5530  146.5080 C   0  0  0  0  0  0  0  0  0  0  0  0
  191.1560  175.3780  143.2490 C   0  0  1  0  0  3  0  0  0  0  0  0
  194.1590  175.7740  146.3340 C   0  0  0  0  0  2  0  0  0  0  0  0
  187.5910  176.2790  144.4090 C   0  0  1  0  0  3  0  0  0  0  0  0
  196.0120  175.2910  144.7510 C   0  0  0  0  0  1  0  0  0  0  0  0
  187.7280  175.9800  145.7900 O   0  0  0  0  0  0  0  0  0  0  0  0
  192.1250  173.4110  141.9110 C   0  0  0  0  0  2  0  0  0  0  0  0
  191.8310  172.5780  140.6810 C   0  0  0  0  0  0  0  0  0  0  0  0
  190.6510  170.8590  141.9310 C   0  0  0  0  0  0  0  0  0  0  0  0
  191.2360  171.4180  140.7490 N   0  0  0  0  0  0  0  0  0  0  0  0
  190.2710  171.7220  142.9900 N   0  0  0  0  0  0  0  0  0  0  0  0
  190.6210  172.3530  144.2980 C   0  0  0  0  0  2  0  0  0  0  0  0
  189.9640  173.1300  143.3660 C   0  0  1  0  0  3  0  0  0  0  0  0
  190.4410  169.6230  142.0130 O   0  0  0  0  0  0  0  0  0  0  0  0
  190.8650  174.0580  142.5250 C   0  0  1  0  0  3  0  0  0  0  0  0
  193.0660  174.2460  139.2330 C   0  0  0  0  0  1  0  0  0  0  0  0
  192.3170  173.0130  139.4100 N   0  0  0  0  0  2  0  0  0  0  0  0
  185.9750  177.2980  142.7530 C   0  0  0  0  0  3  0  0  0  0  0  0
  186.3920  177.1170  144.0800 C   0  0  0  0  0  0  0  0  0  0  0  0
  185.6610  177.7030  145.1210 C   0  0  0  0  0  3  0  0  0  0  0  0
  183.8270  179.0410  145.8470 F   0  0  0  0  0  0  0  0  0  0  0  0
  184.1200  178.6550  143.5130 C   0  0  0  0  0  3  0  0  0  0  0  0
  184.5300  178.4720  144.8370 C   0  0  0  0  0  0  0  0  0  0  0  0
  184.8430  178.0680  142.4710 C   0  0  0  0  0  3  0  0  0  0  0  0
  1 10  1  0  0  0  0
  1 16  1  0  0  0  0
  2  6  2  0  0  0  0
  2 14  1  0  0  0  0
  4  8  2  0  0  0  0
  5  2  1  0  0  0  0
  6  4  1  0  0  0  0
  7  3  1  1  0  0  0
  7  5  1  0  0  0  0
  7 17  1  0  0  0  0
  8 12  1  0  0  0  0
  9  6  1  0  0  0  0
 11 14  1  0  0  0  0
 13  9  1  0  0  0  0
 13  1  1  0  0  0  0
 14 12  2  0  0  0  0
 15  5  1  1  0  0  0
 15  9  1  0  0  0  0
 16  4  1  0  0  0  0
 17 32  1  1  0  0  0
 17 19  1  0  0  0  0
 18  1  1  0  0  0  0
 19 11  1  0  0  0  0
 21 23  2  0  0  0  0
 21 20  1  0  0  0  0
 22 27  2  0  0  0  0
 22 24  1  0  0  0  0
 23 22  1  0  0  0  0
 24 26  1  0  0  0  0
 24 25  1  0  0  0  0
 26 25  1  1  0  0  0
 28 20  1  1  0  0  0
 28 15  1  0  0  0  0
 28 26  1  0  0  0  0
 29 30  1  0  0  0  0
 30 21  1  0  0  0  0
 31 32  1  0  0  0  0
 32 33  2  0  0  0  0
 35 36  2  0  0  0  0
 36 33  1  0  0  0  0
 36 34  1  0  0  0  0
 37 31  2  0  0  0  0
 37 35  1  0  0  0  0
M  END
>  <MODEL>
1

>  <REMARK>
 VINA RESULT:      -9.6      0.000      0.000
  Name = 
  2 active torsions:
  status: ('A' for Active; 'I' for Inactive)
    1  A    between atoms: C_21  and  C_27
    2  A    between atoms: C_23  and  C_30
                            x       y       z     vdW  Elec       q    Type
                         _______ _______ _______ _____ _____    ______ ____

>  <TORSDO>
F 2

$$$$
=
 OpenBabel11112417163D

 37 43  0  0  1  0  0  0  0  0999 V2000
  195.4380  175.5570  142.9920 C   0  0  0  0  0  0  0  0  0  0  0  0
  191.8570  175.9050  145.1020 C   0  0  0  0  0  0  0  0  0  0  0  0
  189.6040  177.8440  144.1500 C   0  0  0  0  0  1  0  0  0  0  0  0
  194.2440  176.1590  145.1780 C   0  0  0  0  0  0  0  0  0  0  0  0
  190.8450  175.7280  144.1170 N   0  0  0  0  0  0  0  0  0  0  0  0
  193.0770  175.7760  144.5390 C   0  0  0  0  0  0  0  0  0  0  0  0
  189.5150  176.3240  144.2230 C   0  0  1  0  0  3  0  0  0  0  0  0
  194.1410  176.6320  146.4990 C   0  0  0  0  0  3  0  0  0  0  0  0
  192.9780  175.4790  143.1700 N   0  0  0  0  0  0  0  0  0  0  0  0
  195.6740  174.0680  143.1650 C   0  0  0  0  0  1  0  0  0  0  0  0
  190.3420  176.5800  146.9790 C   0  0  0  0  0  2  0  0  0  0  0  0
  192.8710  176.7260  147.1200 C   0  0  0  0  0  3  0  0  0  0  0  0
  194.0880  175.7890  142.2750 C   0  0  0  0  0  2  0  0  0  0  0  0
  191.7060  176.3710  146.4080 C   0  0  0  0  0  0  0  0  0  0  0  0
  191.5470  175.5070  142.8340 C   0  0  1  0  0  3  0  0  0  0  0  0
  195.5160  176.2540  144.3750 C   0  0  0  0  0  2  0  0  0  0  0  0
  188.7570  175.8170  145.4770 C   0  0  1  0  0  3  0  0  0  0  0  0
  196.5440  176.1100  142.1180 C   0  0  0  0  0  1  0  0  0  0  0  0
  189.5140  175.4970  146.6340 O   0  0  0  0  0  0  0  0  0  0  0  0
  192.2950  173.4870  141.4350 C   0  0  0  0  0  2  0  0  0  0  0  0
  191.8330  172.6400  140.2680 C   0  0  0  0  0  0  0  0  0  0  0  0
  190.7650  170.9810  141.6880 C   0  0  0  0  0  0  0  0  0  0  0  0
  191.2190  171.5000  140.4330 N   0  0  0  0  0  0  0  0  0  0  0  0
  190.5370  171.8740  142.7650 N   0  0  0  0  0  0  0  0  0  0  0  0
  191.0580  172.5200  144.0070 C   0  0  0  0  0  2  0  0  0  0  0  0
  190.3160  173.2980  143.1430 C   0  0  1  0  0  3  0  0  0  0  0  0
  190.5320  169.7530  141.8220 O   0  0  0  0  0  0  0  0  0  0  0  0
  191.1360  174.1830  142.1800 C   0  0  1  0  0  3  0  0  0  0  0  0
  192.9330  174.2410  138.6470 C   0  0  0  0  0  1  0  0  0  0  0  0
  192.1760  173.0350  138.9390 N   0  0  0  0  0  2  0  0  0  0  0  0
  187.0590  176.7810  147.0830 C   0  0  0  0  0  3  0  0  0  0  0  0
  187.4400  176.4730  145.7700 C   0  0  0  0  0  0  0  0  0  0  0  0
  186.5940  176.8100  144.7060 C   0  0  0  0  0  3  0  0  0  0  0  0
  184.5540  177.7610  143.9220 F   0  0  0  0  0  0  0  0  0  0  0  0
  184.9920  177.7400  146.2660 C   0  0  0  0  0  3  0  0  0  0  0  0
  185.3720  177.4400  144.9540 C   0  0  0  0  0  0  0  0  0  0  0  0
  185.8350  177.4100  147.3300 C   0  0  0  0  0  3  0  0  0  0  0  0
  1 10  1  0  0  0  0
  1 16  1  0  0  0  0
  2 14  1  0  0  0  0
  4  8  2  0  0  0  0
  5  7  1  0  0  0  0
  5  2  1  0  0  0  0
  6  2  2  0  0  0  0
  6  4  1  0  0  0  0
  7  3  1  1  0  0  0
  7 17  1  0  0  0  0
  8 12  1  0  0  0  0
  9  6  1  0  0  0  0
 13  1  1  0  0  0  0
 13  9  1  0  0  0  0
 14 11  1  0  0  0  0
 14 12  2  0  0  0  0
 15  9  1  1  0  0  0
 15  5  1  0  0  0  0
 16  4  1  0  0  0  0
 17 32  1  1  0  0  0
 17 19  1  0  0  0  0
 18  1  1  0  0  0  0
 19 11  1  0  0  0  0
 21 23  2  0  0  0  0
 21 20  1  0  0  0  0
 22 27  2  0  0  0  0
 22 24  1  0  0  0  0
 23 22  1  0  0  0  0
 24 26  1  0  0  0  0
 24 25  1  0  0  0  0
 26 25  1  1  0  0  0
 28 20  1  1  0  0  0
 28 15  1  0  0  0  0
 28 26  1  0  0  0  0
 29 30  1  0  0  0  0
 30 21  1  0  0  0  0
 31 37  1  0  0  0  0
 32 31  2  0  0  0  0
 33 36  2  0  0  0  0
 33 32  1  0  0  0  0
 34 36  1  0  0  0  0
 35 37  2  0  0  0  0
 36 35  1  0  0  0  0
M  END
>  <MODEL>
2

>  <REMARK>
 VINA RESULT:      -9.4      1.230      1.919
  Name = 
  2 active torsions:
  status: ('A' for Active; 'I' for Inactive)
    1  A    between atoms: C_21  and  C_27
    2  A    between atoms: C_23  and  C_30
                            x       y       z     vdW  Elec       q    Type
                         _______ _______ _______ _____ _____    ______ ____

>  <TORSDO>
F 2

$$$$
=
 OpenBabel11112417163D

 37 43  0  0  1  0  0  0  0  0999 V2000
  194.9350  175.5900  143.2050 C   0  0  0  0  0  0  0  0  0  0  0  0
  191.3430  175.9800  145.2910 C   0  0  0  0  0  0  0  0  0  0  0  0
  189.3240  178.2620  144.6160 C   0  0  0  0  0  1  0  0  0  0  0  0
  193.7410  175.9730  145.4400 C   0  0  0  0  0  0  0  0  0  0  0  0
  190.3490  176.0590  144.2760 N   0  0  0  0  0  0  0  0  0  0  0  0
  192.5610  175.8120  144.7320 C   0  0  0  0  0  0  0  0  0  0  0  0
  189.0820  176.7660  144.4530 C   0  0  1  0  0  3  0  0  0  0  0  0
  193.6450  176.2470  146.8160 C   0  0  0  0  0  3  0  0  0  0  0  0
  192.4750  175.7390  143.3320 N   0  0  0  0  0  0  0  0  0  0  0  0
  195.0160  174.0750  143.1490 C   0  0  0  0  0  1  0  0  0  0  0  0
  189.8470  176.5140  147.2270 C   0  0  0  0  0  2  0  0  0  0  0  0
  192.3730  176.3760  147.4250 C   0  0  0  0  0  3  0  0  0  0  0  0
  193.6370  176.0650  142.5130 C   0  0  0  0  0  2  0  0  0  0  0  0
  191.2000  176.2550  146.6510 C   0  0  0  0  0  0  0  0  0  0  0  0
  191.0640  175.9640  142.9840 C   0  0  1  0  0  3  0  0  0  0  0  0
  195.0390  176.0560  144.6800 C   0  0  0  0  0  2  0  0  0  0  0  0
  188.2400  176.1540  145.6030 C   0  0  1  0  0  3  0  0  0  0  0  0
  196.1150  176.1520  142.4420 C   0  0  0  0  0  1  0  0  0  0  0  0
  188.9270  175.5870  146.7070 O   0  0  0  0  0  0  0  0  0  0  0  0
  190.0690  173.5960  142.9650 C   0  0  0  0  0  2  0  0  0  0  0  0
  190.2180  172.2730  142.2430 C   0  0  0  0  0  0  0  0  0  0  0  0
  188.4790  172.7790  140.6220 C   0  0  0  0  0  0  0  0  0  0  0  0
  189.4420  171.9270  141.2530 N   0  0  0  0  0  0  0  0  0  0  0  0
  188.6290  174.1850  140.7200 N   0  0  0  0  0  0  0  0  0  0  0  0
  188.2650  175.4520  141.4220 C   0  0  0  0  0  2  0  0  0  0  0  0
  189.5770  175.2920  141.0280 C   0  0  1  0  0  3  0  0  0  0  0  0
  187.5340  172.2860  139.9560 O   0  0  0  0  0  0  0  0  0  0  0  0
  190.5430  174.8040  142.1280 C   0  0  1  0  0  3  0  0  0  0  0  0
  192.0170  171.5650  143.8750 C   0  0  0  0  0  1  0  0  0  0  0  0
  191.1630  171.3170  142.7260 N   0  0  0  0  0  2  0  0  0  0  0  0
  186.7330  177.2690  147.2990 C   0  0  0  0  0  3  0  0  0  0  0  0
  186.9870  176.8910  145.9730 C   0  0  0  0  0  0  0  0  0  0  0  0
  186.0730  177.2320  144.9690 C   0  0  0  0  0  3  0  0  0  0  0  0
  184.0240  178.2590  144.3150 F   0  0  0  0  0  0  0  0  0  0  0  0
  184.6550  178.3050  146.6140 C   0  0  0  0  0  3  0  0  0  0  0  0
  184.9080  177.9350  145.2890 C   0  0  0  0  0  0  0  0  0  0  0  0
  185.5670  177.9720  147.6190 C   0  0  0  0  0  3  0  0  0  0  0  0
  1 16  1  0  0  0  0
  2 14  1  0  0  0  0
  4  8  2  0  0  0  0
  5  7  1  0  0  0  0
  5  2  1  0  0  0  0
  6  2  2  0  0  0  0
  6  4  1  0  0  0  0
  7  3  1  1  0  0  0
  7 17  1  0  0  0  0
  8 12  1  0  0  0  0
  9  6  1  0  0  0  0
 10  1  1  0  0  0  0
 13  1  1  0  0  0  0
 13  9  1  0  0  0  0
 14 11  1  0  0  0  0
 14 12  2  0  0  0  0
 15  9  1  1  0  0  0
 15  5  1  0  0  0  0
 16  4  1  0  0  0  0
 17 32  1  1  0  0  0
 17 19  1  0  0  0  0
 18  1  1  0  0  0  0
 19 11  1  0  0  0  0
 21 30  1  0  0  0  0
 21 20  1  0  0  0  0
 22 24  1  0  0  0  0
 22 23  1  0  0  0  0
 23 21  2  0  0  0  0
 24 26  1  0  0  0  0
 24 25  1  0  0  0  0
 26 25  1  1  0  0  0
 26 28  1  0  0  0  0
 27 22  2  0  0  0  0
 28 20  1  1  0  0  0
 28 15  1  0  0  0  0
 30 29  1  0  0  0  0
 31 37  1  0  0  0  0
 32 31  2  0  0  0  0
 33 36  2  0  0  0  0
 33 32  1  0  0  0  0
 34 36  1  0  0  0  0
 35 37  2  0  0  0  0
 36 35  1  0  0  0  0
M  END
>  <MODEL>
3

>  <REMARK>
 VINA RESULT:      -9.3      1.761      2.591
  Name = 
  2 active torsions:
  status: ('A' for Active; 'I' for Inactive)
    1  A    between atoms: C_21  and  C_27
    2  A    between atoms: C_23  and  C_30
                            x       y       z     vdW  Elec       q    Type
                         _______ _______ _______ _____ _____    ______ ____

>  <TORSDO>
F 2

$$$$
=
 OpenBabel11112417163D

 37 43  0  0  1  0  0  0  0  0999 V2000
  195.6370  175.7040  142.9580 C   0  0  0  0  0  0  0  0  0  0  0  0
  192.0200  175.9030  145.0260 C   0  0  0  0  0  0  0  0  0  0  0  0
  189.7450  177.8370  144.1170 C   0  0  0  0  0  1  0  0  0  0  0  0
  194.4010  176.1970  145.1470 C   0  0  0  0  0  0  0  0  0  0  0  0
  191.0260  175.7460  144.0200 N   0  0  0  0  0  0  0  0  0  0  0  0
  193.2510  175.8180  144.4760 C   0  0  0  0  0  0  0  0  0  0  0  0
  189.6830  176.3140  144.1290 C   0  0  1  0  0  3  0  0  0  0  0  0
  194.2700  176.6150  146.4850 C   0  0  0  0  0  3  0  0  0  0  0  0
  193.1770  175.5740  143.0950 N   0  0  0  0  0  0  0  0  0  0  0  0
  195.8990  174.2130  143.0750 C   0  0  0  0  0  1  0  0  0  0  0  0
  190.4660  176.4760  146.9050 C   0  0  0  0  0  2  0  0  0  0  0  0
  192.9900  176.6610  147.0890 C   0  0  0  0  0  3  0  0  0  0  0  0
  194.2940  175.9400  142.2310 C   0  0  0  0  0  2  0  0  0  0  0  0
  191.8420  176.3140  146.3470 C   0  0  0  0  0  0  0  0  0  0  0  0
  191.7500  175.5890  142.7390 C   0  0  1  0  0  3  0  0  0  0  0  0
  195.6820  176.3460  144.3680 C   0  0  0  0  0  2  0  0  0  0  0  0
  188.9180  175.7440  145.3510 C   0  0  1  0  0  3  0  0  0  0  0  0
  196.7450  176.3110  142.1230 C   0  0  0  0  0  1  0  0  0  0  0  0
  189.6640  175.3920  146.5050 O   0  0  0  0  0  0  0  0  0  0  0  0
  190.1380  174.4260  141.1130 C   0  0  0  0  0  2  0  0  0  0  0  0
  189.3490  173.1420  140.9700 C   0  0  0  0  0  0  0  0  0  0  0  0
  191.0910  172.0260  139.6940 C   0  0  0  0  0  0  0  0  0  0  0  0
  189.7850  172.1290  140.2710 N   0  0  0  0  0  0  0  0  0  0  0  0
  192.1490  172.8020  140.2310 N   0  0  0  0  0  0  0  0  0  0  0  0
  192.9700  174.0480  140.1570 C   0  0  0  0  0  2  0  0  0  0  0  0
  192.6050  173.5940  141.4070 C   0  0  1  0  0  3  0  0  0  0  0  0
  191.3070  171.2260  138.7480 O   0  0  0  0  0  0  0  0  0  0  0  0
  191.3730  174.2850  142.0280 C   0  0  1  0  0  3  0  0  0  0  0  0
  187.4160  174.1650  142.2420 C   0  0  0  0  0  1  0  0  0  0  0  0
  188.0330  173.0650  141.5200 N   0  0  0  0  0  2  0  0  0  0  0  0
  187.1800  176.6160  146.9670 C   0  0  0  0  0  3  0  0  0  0  0  0
  187.5850  176.3640  145.6480 C   0  0  0  0  0  0  0  0  0  0  0  0
  186.7460  176.7250  144.5860 C   0  0  0  0  0  3  0  0  0  0  0  0
  184.6990  177.6660  143.8100 F   0  0  0  0  0  0  0  0  0  0  0  0
  185.1060  177.5660  146.1570 C   0  0  0  0  0  3  0  0  0  0  0  0
  185.5090  177.3220  144.8410 C   0  0  0  0  0  0  0  0  0  0  0  0
  185.9410  177.2130  147.2200 C   0  0  0  0  0  3  0  0  0  0  0  0
  1 10  1  0  0  0  0
  1 16  1  0  0  0  0
  2 14  1  0  0  0  0
  4  8  2  0  0  0  0
  5  7  1  0  0  0  0
  5  2  1  0  0  0  0
  6  2  2  0  0  0  0
  6  4  1  0  0  0  0
  7  3  1  1  0  0  0
  7 17  1  0  0  0  0
  8 12  1  0  0  0  0
  9  6  1  0  0  0  0
 13  1  1  0  0  0  0
 13  9  1  0  0  0  0
 14 11  1  0  0  0  0
 14 12  2  0  0  0  0
 15  9  1  1  0  0  0
 15  5  1  0  0  0  0
 16  4  1  0  0  0  0
 17 32  1  1  0  0  0
 17 19  1  0  0  0  0
 18  1  1  0  0  0  0
 19 11  1  0  0  0  0
 21 20  1  0  0  0  0
 21 30  1  0  0  0  0
 22 24  1  0  0  0  0
 22 23  1  0  0  0  0
 23 21  2  0  0  0  0
 24 26  1  0  0  0  0
 25 24  1  0  0  0  0
 26 25  1  6  0  0  0
 26 28  1  0  0  0  0
 27 22  2  0  0  0  0
 28 20  1  6  0  0  0
 28 15  1  0  0  0  0
 30 29  1  0  0  0  0
 31 37  1  0  0  0  0
 32 31  2  0  0  0  0
 33 36  2  0  0  0  0
 33 32  1  0  0  0  0
 34 36  1  0  0  0  0
 35 37  2  0  0  0  0
 36 35  1  0  0  0  0
M  END
>  <MODEL>
4

>  <REMARK>
 VINA RESULT:      -9.0      1.701      2.817
  Name = 
  2 active torsions:
  status: ('A' for Active; 'I' for Inactive)
    1  A    between atoms: C_21  and  C_27
    2  A    between atoms: C_23  and  C_30
                            x       y       z     vdW  Elec       q    Type
                         _______ _______ _______ _____ _____    ______ ____

>  <TORSDO>
F 2

$$$$
=
 OpenBabel11112417163D

 37 43  0  0  1  0  0  0  0  0999 V2000
  193.9130  175.2030  145.4420 C   0  0  0  0  0  0  0  0  0  0  0  0
  189.8560  176.1210  145.1260 C   0  0  0  0  0  0  0  0  0  0  0  0
  188.8160  178.1170  142.9640 C   0  0  0  0  0  1  0  0  0  0  0  0
  191.8050  176.1730  146.5290 C   0  0  0  0  0  0  0  0  0  0  0  0
  189.5500  175.9130  143.7520 N   0  0  0  0  0  0  0  0  0  0  0  0
  191.1500  175.8170  145.3630 C   0  0  0  0  0  0  0  0  0  0  0  0
  188.4860  176.6310  143.0530 C   0  0  1  0  0  3  0  0  0  0  0  0
  191.0530  176.8120  147.5320 C   0  0  0  0  0  3  0  0  0  0  0  0
  191.7890  175.3630  144.1960 N   0  0  0  0  0  0  0  0  0  0  0  0
  193.7990  173.7310  145.7960 C   0  0  0  0  0  1  0  0  0  0  0  0
  187.6670  177.1530  145.7740 C   0  0  0  0  0  2  0  0  0  0  0  0
  189.6810  177.0920  147.3170 C   0  0  0  0  0  3  0  0  0  0  0  0
  193.2390  175.4620  144.0750 C   0  0  0  0  0  2  0  0  0  0  0  0
  189.0720  176.7560  146.0900 C   0  0  0  0  0  0  0  0  0  0  0  0
  190.8070  175.4740  143.1070 C   0  0  1  0  0  3  0  0  0  0  0  0
  193.3060  176.0560  146.5860 C   0  0  0  0  0  2  0  0  0  0  0  0
  187.0970  176.3510  143.6810 C   0  0  1  0  0  3  0  0  0  0  0  0
  195.3830  175.5450  145.3210 C   0  0  0  0  0  1  0  0  0  0  0  0
  187.0280  176.1120  145.0780 O   0  0  0  0  0  0  0  0  0  0  0  0
  191.9890  173.5050  141.9590 C   0  0  0  0  0  2  0  0  0  0  0  0
  191.8640  172.6200  140.7360 C   0  0  0  0  0  0  0  0  0  0  0  0
  190.6140  170.8980  141.9120 C   0  0  0  0  0  0  0  0  0  0  0  0
  191.3060  171.4400  140.7820 N   0  0  0  0  0  0  0  0  0  0  0  0
  190.0870  171.7800  142.8900 N   0  0  0  0  0  0  0  0  0  0  0  0
  190.2670  172.4680  144.2030 C   0  0  0  0  0  2  0  0  0  0  0  0
  189.6900  173.1860  143.1770 C   0  0  1  0  0  3  0  0  0  0  0  0
  190.4410  169.6570  142.0160 O   0  0  0  0  0  0  0  0  0  0  0  0
  190.6460  174.1210  142.4060 C   0  0  1  0  0  3  0  0  0  0  0  0
  193.1930  174.2860  139.3720 C   0  0  0  0  0  1  0  0  0  0  0  0
  192.4730  173.0310  139.5110 N   0  0  0  0  0  2  0  0  0  0  0  0
  185.1060  177.8780  143.9920 C   0  0  0  0  0  3  0  0  0  0  0  0
  185.9490  177.1520  143.1400 C   0  0  0  0  0  0  0  0  0  0  0  0
  185.7390  177.1950  141.7560 C   0  0  0  0  0  3  0  0  0  0  0  0
  184.4860  177.9860  139.8900 F   0  0  0  0  0  0  0  0  0  0  0  0
  183.8450  178.6680  142.0820 C   0  0  0  0  0  3  0  0  0  0  0  0
  184.6880  177.9500  141.2290 C   0  0  0  0  0  0  0  0  0  0  0  0
  184.0540  178.6330  143.4640 C   0  0  0  0  0  3  0  0  0  0  0  0
  1 10  1  0  0  0  0
  1 16  1  0  0  0  0
  2  6  2  0  0  0  0
  2 14  1  0  0  0  0
  4 16  1  0  0  0  0
  4  8  2  0  0  0  0
  5  2  1  0  0  0  0
  6  4  1  0  0  0  0
  7  3  1  1  0  0  0
  7 17  1  0  0  0  0
  7  5  1  0  0  0  0
  9  6  1  0  0  0  0
 11 14  1  0  0  0  0
 12  8  1  0  0  0  0
 13  9  1  0  0  0  0
 13  1  1  0  0  0  0
 14 12  2  0  0  0  0
 15  5  1  1  0  0  0
 15  9  1  0  0  0  0
 17 32  1  1  0  0  0
 17 19  1  0  0  0  0
 18  1  1  0  0  0  0
 19 11  1  0  0  0  0
 21 23  2  0  0  0  0
 21 20  1  0  0  0  0
 22 27  2  0  0  0  0
 22 24  1  0  0  0  0
 23 22  1  0  0  0  0
 24 26  1  0  0  0  0
 24 25  1  0  0  0  0
 26 25  1  1  0  0  0
 28 20  1  1  0  0  0
 28 15  1  0  0  0  0
 28 26  1  0  0  0  0
 29 30  1  0  0  0  0
 30 21  1  0  0  0  0
 32 31  2  0  0  0  0
 33 32  1  0  0  0  0
 34 36  1  0  0  0  0
 35 37  2  0  0  0  0
 36 33  2  0  0  0  0
 36 35  1  0  0  0  0
 37 31  1  0  0  0  0
M  END
>  <MODEL>
5

>  <REMARK>
 VINA RESULT:      -8.9      1.210      1.500
  Name = 
  2 active torsions:
  status: ('A' for Active; 'I' for Inactive)
    1  A    between atoms: C_21  and  C_27
    2  A    between atoms: C_23  and  C_30
                            x       y       z     vdW  Elec       q    Type
                         _______ _______ _______ _____ _____    ______ ____

>  <TORSDO>
F 2

$$$$
=
 OpenBabel11112417163D

 37 43  0  0  1  0  0  0  0  0999 V2000
  196.1480  174.7460  143.7000 C   0  0  0  0  0  0  0  0  0  0  0  0
  192.1480  175.4510  144.6520 C   0  0  0  0  0  0  0  0  0  0  0  0
  190.4350  177.4870  143.0210 C   0  0  0  0  0  1  0  0  0  0  0  0
  194.4230  175.5430  145.4190 C   0  0  0  0  0  0  0  0  0  0  0  0
  191.4550  175.2910  143.4200 N   0  0  0  0  0  0  0  0  0  0  0  0
  193.4650  175.2080  144.4770 C   0  0  0  0  0  0  0  0  0  0  0  0
  190.2050  175.9820  143.1110 C   0  0  1  0  0  3  0  0  0  0  0  0
  193.9790  176.0910  146.6360 C   0  0  0  0  0  3  0  0  0  0  0  0
  193.7440  174.8460  143.1490 N   0  0  0  0  0  0  0  0  0  0  0  0
  196.2010  173.2540  143.9790 C   0  0  0  0  0  1  0  0  0  0  0  0
  190.2130  176.3270  145.9800 C   0  0  0  0  0  2  0  0  0  0  0  0
  192.5960  176.3050  146.8530 C   0  0  0  0  0  3  0  0  0  0  0  0
  195.0880  175.0320  142.6110 C   0  0  0  0  0  2  0  0  0  0  0  0
  191.6630  175.9940  145.8420 C   0  0  0  0  0  0  0  0  0  0  0  0
  192.4790  174.9550  142.4060 C   0  0  1  0  0  3  0  0  0  0  0  0
  195.8760  175.5070  145.0230 C   0  0  0  0  0  2  0  0  0  0  0  0
  189.0770  175.5960  144.1030 C   0  0  1  0  0  3  0  0  0  0  0  0
  197.5010  175.1740  143.1730 C   0  0  0  0  0  1  0  0  0  0  0  0
  189.4360  175.2860  145.4400 O   0  0  0  0  0  0  0  0  0  0  0  0
  191.4640  172.6050  142.6150 C   0  0  0  0  0  2  0  0  0  0  0  0
  191.7620  171.1680  142.2440 C   0  0  0  0  0  0  0  0  0  0  0  0
  190.5180  171.2800  140.1590 C   0  0  0  0  0  0  0  0  0  0  0  0
  191.2610  170.6030  141.1790 N   0  0  0  0  0  0  0  0  0  0  0  0
  190.6740  172.6800  140.0020 N   0  0  0  0  0  0  0  0  0  0  0  0
  190.1720  174.0530  140.3100 C   0  0  0  0  0  2  0  0  0  0  0  0
  191.5370  173.8540  140.3120 C   0  0  1  0  0  3  0  0  0  0  0  0
  189.7660  170.6340  139.3850 O   0  0  0  0  0  0  0  0  0  0  0  0
  192.1700  173.6300  141.7010 C   0  0  1  0  0  3  0  0  0  0  0  0
  193.0550  170.8610  144.3970 C   0  0  0  0  0  1  0  0  0  0  0  0
  192.5230  170.3580  143.1420 N   0  0  0  0  0  2  0  0  0  0  0  0
  186.9160  176.1280  142.9030 C   0  0  0  0  0  3  0  0  0  0  0  0
  187.7900  176.3560  143.9750 C   0  0  0  0  0  0  0  0  0  0  0  0
  187.4460  177.2880  144.9620 C   0  0  0  0  0  3  0  0  0  0  0  0
  185.9160  178.8970  145.8280 F   0  0  0  0  0  0  0  0  0  0  0  0
  185.3770  177.7670  143.7990 C   0  0  0  0  0  3  0  0  0  0  0  0
  186.2430  177.9930  144.8720 C   0  0  0  0  0  0  0  0  0  0  0  0
  185.7130  176.8350  142.8140 C   0  0  0  0  0  3  0  0  0  0  0  0
  1 10  1  0  0  0  0
  1 16  1  0  0  0  0
  2 14  1  0  0  0  0
  4  8  2  0  0  0  0
  5  2  1  0  0  0  0
  6  2  2  0  0  0  0
  6  4  1  0  0  0  0
  7  3  1  1  0  0  0
  7  5  1  0  0  0  0
  7 17  1  0  0  0  0
  8 12  1  0  0  0  0
  9  6  1  0  0  0  0
 13  9  1  0  0  0  0
 13  1  1  0  0  0  0
 14 11  1  0  0  0  0
 14 12  2  0  0  0  0
 15  9  1  1  0  0  0
 15  5  1  0  0  0  0
 16  4  1  0  0  0  0
 17 32  1  1  0  0  0
 17 19  1  0  0  0  0
 18  1  1  0  0  0  0
 19 11  1  0  0  0  0
 21 20  1  0  0  0  0
 21 30  1  0  0  0  0
 22 23  1  0  0  0  0
 23 21  2  0  0  0  0
 24 22  1  0  0  0  0
 24 25  1  0  0  0  0
 24 26  1  0  0  0  0
 26 25  1  1  0  0  0
 26 28  1  0  0  0  0
 27 22  2  0  0  0  0
 28 15  1  0  0  0  0
 28 20  1  1  0  0  0
 30 29  1  0  0  0  0
 31 32  1  0  0  0  0
 32 33  2  0  0  0  0
 35 36  2  0  0  0  0
 36 33  1  0  0  0  0
 36 34  1  0  0  0  0
 37 31  2  0  0  0  0
 37 35  1  0  0  0  0
M  END
>  <MODEL>
6

>  <REMARK>
 VINA RESULT:      -8.8      1.502      2.395
  Name = 
  2 active torsions:
  status: ('A' for Active; 'I' for Inactive)
    1  A    between atoms: C_21  and  C_27
    2  A    between atoms: C_23  and  C_30
                            x       y       z     vdW  Elec       q    Type
                         _______ _______ _______ _____ _____    ______ ____

>  <TORSDO>
F 2

$$$$
=
 OpenBabel11112417163D

 37 43  0  0  1  0  0  0  0  0999 V2000
  193.8840  170.3520  143.7800 C   0  0  0  0  0  0  0  0  0  0  0  0
  190.9260  173.2880  143.5900 C   0  0  0  0  0  0  0  0  0  0  0  0
  189.3540  174.1630  146.1400 C   0  0  0  0  0  1  0  0  0  0  0  0
  191.6340  171.1230  142.8250 C   0  0  0  0  0  0  0  0  0  0  0  0
  191.2750  174.2120  144.6140 N   0  0  0  0  0  0  0  0  0  0  0  0
  191.8420  172.2980  143.5280 C   0  0  0  0  0  0  0  0  0  0  0  0
  190.2920  175.0360  145.3140 C   0  0  1  0  0  3  0  0  0  0  0  0
  190.4410  171.0060  142.0870 C   0  0  0  0  0  3  0  0  0  0  0  0
  192.8690  172.4950  144.4660 N   0  0  0  0  0  0  0  0  0  0  0  0
  194.8640  170.9360  142.7780 C   0  0  0  0  0  1  0  0  0  0  0  0
  188.6980  174.2840  143.0250 C   0  0  0  0  0  2  0  0  0  0  0  0
  189.4930  172.0580  142.1030 C   0  0  0  0  0  3  0  0  0  0  0  0
  193.6570  171.3590  144.9310 C   0  0  0  0  0  2  0  0  0  0  0  0
  189.7290  173.2130  142.8770 C   0  0  0  0  0  0  0  0  0  0  0  0
  192.5070  173.6890  145.2440 C   0  0  1  0  0  3  0  0  0  0  0  0
  192.5720  169.9660  143.0480 C   0  0  0  0  0  2  0  0  0  0  0  0
  189.5450  175.9860  144.3430 C   0  0  1  0  0  3  0  0  0  0  0  0
  194.4950  169.0950  144.3580 C   0  0  0  0  0  1  0  0  0  0  0  0
  189.3210  175.5450  143.0130 O   0  0  0  0  0  0  0  0  0  0  0  0
  193.6530  175.5580  143.9070 C   0  0  0  0  0  2  0  0  0  0  0  0
  195.0360  176.0250  143.5030 C   0  0  0  0  0  0  0  0  0  0  0  0
  195.2470  177.5460  145.3880 C   0  0  0  0  0  0  0  0  0  0  0  0
  195.6740  176.9610  144.1520 N   0  0  0  0  0  0  0  0  0  0  0  0
  194.3520  176.8290  146.2210 N   0  0  0  0  0  0  0  0  0  0  0  0
  192.9430  176.5810  146.6510 C   0  0  0  0  0  2  0  0  0  0  0  0
  193.7760  175.4890  146.5240 C   0  0  1  0  0  3  0  0  0  0  0  0
  195.6910  178.6660  145.7480 O   0  0  0  0  0  0  0  0  0  0  0  0
  193.6480  174.7110  145.1970 C   0  0  1  0  0  3  0  0  0  0  0  0
  194.9650  174.5320  141.4620 C   0  0  0  0  0  1  0  0  0  0  0  0
  195.6250  175.5130  142.3070 N   0  0  0  0  0  2  0  0  0  0  0  0
  188.0860  176.6820  146.2870 C   0  0  0  0  0  3  0  0  0  0  0  0
  188.4080  176.7740  144.9260 C   0  0  0  0  0  0  0  0  0  0  0  0
  187.6790  177.6360  144.0980 C   0  0  0  0  0  3  0  0  0  0  0  0
  185.9240  179.2240  143.8190 F   0  0  0  0  0  0  0  0  0  0  0  0
  186.3070  178.2950  145.9820 C   0  0  0  0  0  3  0  0  0  0  0  0
  186.6290  178.3930  144.6250 C   0  0  0  0  0  0  0  0  0  0  0  0
  187.0350  177.4400  146.8130 C   0  0  0  0  0  3  0  0  0  0  0  0
  1 18  1  0  0  0  0
  1 13  1  0  0  0  0
  2  5  1  0  0  0  0
  4 16  1  0  0  0  0
  4  6  2  0  0  0  0
  5 15  1  0  0  0  0
  5  7  1  0  0  0  0
  6  2  1  0  0  0  0
  6  9  1  0  0  0  0
  7  3  1  6  0  0  0
  8 12  2  0  0  0  0
  8  4  1  0  0  0  0
  9 13  1  0  0  0  0
 10  1  1  0  0  0  0
 12 14  1  0  0  0  0
 14 11  1  0  0  0  0
 14  2  2  0  0  0  0
 15  9  1  6  0  0  0
 16  1  1  0  0  0  0
 17 32  1  1  0  0  0
 17  7  1  0  0  0  0
 19 11  1  0  0  0  0
 19 17  1  0  0  0  0
 21 20  1  0  0  0  0
 21 23  2  0  0  0  0
 22 27  2  0  0  0  0
 22 24  1  0  0  0  0
 23 22  1  0  0  0  0
 24 26  1  0  0  0  0
 24 25  1  0  0  0  0
 26 25  1  6  0  0  0
 28 20  1  6  0  0  0
 28 15  1  0  0  0  0
 28 26  1  0  0  0  0
 29 30  1  0  0  0  0
 30 21  1  0  0  0  0
 31 37  1  0  0  0  0
 32 31  2  0  0  0  0
 33 36  2  0  0  0  0
 33 32  1  0  0  0  0
 34 36  1  0  0  0  0
 35 37  2  0  0  0  0
 36 35  1  0  0  0  0
M  END
>  <MODEL>
7

>  <REMARK>
 VINA RESULT:      -8.4      2.580      5.125
  Name = 
  2 active torsions:
  status: ('A' for Active; 'I' for Inactive)
    1  A    between atoms: C_21  and  C_27
    2  A    between atoms: C_23  and  C_30
                            x       y       z     vdW  Elec       q    Type
                         _______ _______ _______ _____ _____    ______ ____

>  <TORSDO>
F 2

$$$$
=
 OpenBabel11112417163D

 37 43  0  0  1  0  0  0  0  0999 V2000
  191.8380  170.9790  141.3380 C   0  0  0  0  0  0  0  0  0  0  0  0
  189.5980  174.4800  141.6850 C   0  0  0  0  0  0  0  0  0  0  0  0
  187.6270  174.9070  144.0670 C   0  0  0  0  0  1  0  0  0  0  0  0
  190.0720  172.5460  140.3420 C   0  0  0  0  0  0  0  0  0  0  0  0
  189.8420  174.9290  143.0130 N   0  0  0  0  0  0  0  0  0  0  0  0
  190.3080  173.3590  141.4380 C   0  0  0  0  0  0  0  0  0  0  0  0
  188.8820  175.7230  143.7770 C   0  0  1  0  0  3  0  0  0  0  0  0
  189.0990  172.9630  139.4160 C   0  0  0  0  0  3  0  0  0  0  0  0
  191.0880  172.9940  142.5480 N   0  0  0  0  0  0  0  0  0  0  0  0
  193.1250  171.5710  140.7920 C   0  0  0  0  0  1  0  0  0  0  0  0
  187.7960  176.1300  141.1310 C   0  0  0  0  0  2  0  0  0  0  0  0
  188.3820  174.1650  139.6370 C   0  0  0  0  0  3  0  0  0  0  0  0
  191.5190  171.6110  142.7120 C   0  0  0  0  0  2  0  0  0  0  0  0
  188.6220  174.9310  140.7960 C   0  0  0  0  0  0  0  0  0  0  0  0
  190.7650  173.9470  143.6220 C   0  0  1  0  0  3  0  0  0  0  0  0
  190.7020  171.1780  140.3020 C   0  0  0  0  0  2  0  0  0  0  0  0
  188.5820  177.0790  143.0880 C   0  0  1  0  0  3  0  0  0  0  0  0
  192.0510  169.4930  141.5340 C   0  0  0  0  0  1  0  0  0  0  0  0
  188.6190  177.1350  141.6710 O   0  0  0  0  0  0  0  0  0  0  0  0
  192.5100  175.7960  143.2620 C   0  0  0  0  0  2  0  0  0  0  0  0
  194.0100  176.0070  143.2860 C   0  0  0  0  0  0  0  0  0  0  0  0
  194.0300  176.7430  145.6030 C   0  0  0  0  0  0  0  0  0  0  0  0
  194.6290  176.4970  144.3260 N   0  0  0  0  0  0  0  0  0  0  0  0
  192.8500  176.0440  145.9610 N   0  0  0  0  0  0  0  0  0  0  0  0
  191.3580  176.0330  146.0360 C   0  0  0  0  0  2  0  0  0  0  0  0
  191.9900  174.8670  145.6570 C   0  0  1  0  0  3  0  0  0  0  0  0
  194.5660  177.5410  146.4140 O   0  0  0  0  0  0  0  0  0  0  0  0
  192.0470  174.6110  144.1360 C   0  0  1  0  0  3  0  0  0  0  0  0
  194.1650  175.3120  140.8580 C   0  0  0  0  0  1  0  0  0  0  0  0
  194.7670  175.7740  142.0980 N   0  0  0  0  0  2  0  0  0  0  0  0
  186.6180  178.6610  142.9110 C   0  0  0  0  0  3  0  0  0  0  0  0
  187.4970  177.9130  143.7050 C   0  0  0  0  0  0  0  0  0  0  0  0
  187.3460  177.9150  145.0970 C   0  0  0  0  0  3  0  0  0  0  0  0
  186.1900  178.6720  147.0400 F   0  0  0  0  0  0  0  0  0  0  0  0
  185.4590  179.4200  144.8970 C   0  0  0  0  0  3  0  0  0  0  0  0
  186.3310  178.6690  145.6920 C   0  0  0  0  0  0  0  0  0  0  0  0
  185.6020  179.4160  143.5070 C   0  0  0  0  0  3  0  0  0  0  0  0
  1 18  1  0  0  0  0
  1 13  1  0  0  0  0
  2  5  1  0  0  0  0
  4  6  2  0  0  0  0
  5 15  1  0  0  0  0
  5  7  1  0  0  0  0
  6  2  1  0  0  0  0
  6  9  1  0  0  0  0
  7  3  1  6  0  0  0
  8 12  2  0  0  0  0
  8  4  1  0  0  0  0
  9 13  1  0  0  0  0
 10  1  1  0  0  0  0
 11 19  1  0  0  0  0
 12 14  1  0  0  0  0
 14 11  1  0  0  0  0
 14  2  2  0  0  0  0
 15  9  1  6  0  0  0
 15 28  1  0  0  0  0
 16  4  1  0  0  0  0
 16  1  1  0  0  0  0
 17 32  1  6  0  0  0
 17  7  1  0  0  0  0
 19 17  1  0  0  0  0
 20 21  1  0  0  0  0
 21 23  2  0  0  0  0
 22 24  1  0  0  0  0
 22 27  2  0  0  0  0
 23 22  1  0  0  0  0
 24 25  1  0  0  0  0
 26 24  1  0  0  0  0
 26 25  1  6  0  0  0
 28 20  1  6  0  0  0
 28 26  1  0  0  0  0
 29 30  1  0  0  0  0
 30 21  1  0  0  0  0
 31 37  2  0  0  0  0
 31 32  1  0  0  0  0
 32 33  2  0  0  0  0
 33 36  1  0  0  0  0
 35 36  2  0  0  0  0
 36 34  1  0  0  0  0
 37 35  1  0  0  0  0
M  END
>  <MODEL>
8

>  <REMARK>
 VINA RESULT:      -8.3      2.288      5.066
  Name = 
  2 active torsions:
  status: ('A' for Active; 'I' for Inactive)
    1  A    between atoms: C_21  and  C_27
    2  A    between atoms: C_23  and  C_30
                            x       y       z     vdW  Elec       q    Type
                         _______ _______ _______ _____ _____    ______ ____

>  <TORSDO>
F 2

$$$$
=
 OpenBabel11112417163D

 37 43  0  0  1  0  0  0  0  0999 V2000
  189.7550  175.3680  146.9420 C   0  0  0  0  0  0  0  0  0  0  0  0
  193.0150  175.8860  144.3920 C   0  0  0  0  0  0  0  0  0  0  0  0
  194.0960  173.5290  142.6550 C   0  0  0  0  0  1  0  0  0  0  0  0
  192.2330  175.9580  146.6620 C   0  0  0  0  0  0  0  0  0  0  0  0
  192.5680  175.3870  143.1370 N   0  0  0  0  0  0  0  0  0  0  0  0
  192.0210  175.8050  145.3020 C   0  0  0  0  0  0  0  0  0  0  0  0
  193.4690  174.8190  142.1360 C   0  0  1  0  0  3  0  0  0  0  0  0
  193.5330  176.2870  147.0880 C   0  0  0  0  0  3  0  0  0  0  0  0
  190.8480  175.2840  144.7310 N   0  0  0  0  0  0  0  0  0  0  0  0
  189.0890  176.7200  146.7570 C   0  0  0  0  0  1  0  0  0  0  0  0
  195.4150  176.2130  143.7540 C   0  0  0  0  0  2  0  0  0  0  0  0
  194.5750  176.4250  146.1380 C   0  0  0  0  0  3  0  0  0  0  0  0
  189.8480  174.6450  145.5790 C   0  0  0  0  0  2  0  0  0  0  0  0
  194.3190  176.2080  144.7680 C   0  0  0  0  0  0  0  0  0  0  0  0
  191.1750  174.9320  143.3420 C   0  0  1  0  0  3  0  0  0  0  0  0
  191.1370  175.5650  147.6180 C   0  0  0  0  0  2  0  0  0  0  0  0
  194.5160  175.8550  141.6530 C   0  0  1  0  0  3  0  0  0  0  0  0
  188.8870  174.5390  147.8640 C   0  0  0  0  0  1  0  0  0  0  0  0
  194.9650  176.8350  142.5760 O   0  0  0  0  0  0  0  0  0  0  0  0
  188.8780  174.8520  142.1970 C   0  0  0  0  0  2  0  0  0  0  0  0
  188.2410  175.0730  140.8400 C   0  0  0  0  0  0  0  0  0  0  0  0
  187.6850  177.3940  141.3010 C   0  0  0  0  0  0  0  0  0  0  0  0
  187.6620  176.1970  140.5160 N   0  0  0  0  0  0  0  0  0  0  0  0
  188.7200  177.5780  142.2530 N   0  0  0  0  0  0  0  0  0  0  0  0
  189.1710  177.4630  143.6720 C   0  0  0  0  0  2  0  0  0  0  0  0
  190.0740  177.1320  142.6840 C   0  0  1  0  0  3  0  0  0  0  0  0
  186.8210  178.2890  141.1210 O   0  0  0  0  0  0  0  0  0  0  0  0
  190.2010  175.6240  142.3820 C   0  0  1  0  0  3  0  0  0  0  0  0
  188.7000  172.6650  140.2130 C   0  0  0  0  0  1  0  0  0  0  0  0
  188.1650  173.9840  139.9190 N   0  0  0  0  0  2  0  0  0  0  0  0
  196.9160  175.2270  141.1660 C   0  0  0  0  0  3  0  0  0  0  0  0
  195.5870  175.3410  140.7360 C   0  0  0  0  0  0  0  0  0  0  0  0
  195.2420  174.9410  139.4400 C   0  0  0  0  0  3  0  0  0  0  0  0
  195.8820  174.0580  137.3200 F   0  0  0  0  0  0  0  0  0  0  0  0
  197.5460  174.3340  139.0060 C   0  0  0  0  0  3  0  0  0  0  0  0
  196.2200  174.4410  138.5760 C   0  0  0  0  0  0  0  0  0  0  0  0
  197.8940  174.7270  140.3010 C   0  0  0  0  0  3  0  0  0  0  0  0
  1 16  1  0  0  0  0
  1 18  1  0  0  0  0
  2 14  2  0  0  0  0
  2  6  1  0  0  0  0
  4  8  1  0  0  0  0
  4 16  1  0  0  0  0
  5  2  1  0  0  0  0
  6  4  2  0  0  0  0
  7  3  1  1  0  0  0
  7  5  1  0  0  0  0
  9  6  1  0  0  0  0
  9 13  1  0  0  0  0
 10  1  1  0  0  0  0
 11 14  1  0  0  0  0
 12  8  2  0  0  0  0
 13  1  1  0  0  0  0
 14 12  1  0  0  0  0
 15  5  1  6  0  0  0
 15  9  1  0  0  0  0
 17 32  1  1  0  0  0
 17  7  1  0  0  0  0
 17 19  1  0  0  0  0
 19 11  1  0  0  0  0
 21 20  1  0  0  0  0
 22 24  1  0  0  0  0
 23 21  2  0  0  0  0
 23 22  1  0  0  0  0
 24 26  1  0  0  0  0
 24 25  1  0  0  0  0
 26 25  1  1  0  0  0
 27 22  2  0  0  0  0
 28 20  1  1  0  0  0
 28 26  1  0  0  0  0
 28 15  1  0  0  0  0
 30 29  1  0  0  0  0
 30 21  1  0  0  0  0
 32 31  1  0  0  0  0
 33 32  2  0  0  0  0
 34 36  1  0  0  0  0
 35 37  1  0  0  0  0
 36 35  2  0  0  0  0
 36 33  1  0  0  0  0
 37 31  2  0  0  0  0
M  END
>  <MODEL>
9

>  <REMARK>
 VINA RESULT:      -8.3      3.843      7.346
  Name = 
  2 active torsions:
  status: ('A' for Active; 'I' for Inactive)
    1  A    between atoms: C_21  and  C_27
    2  A    between atoms: C_23  and  C_30
                            x       y       z     vdW  Elec       q    Type
                         _______ _______ _______ _____ _____    ______ ____

>  <TORSDO>
F 2

$$$$
