=
 OpenBabel11112416143D

 30 35  0  0  1  0  0  0  0  0999 V2000
  188.4480  176.2880  142.6780 C   0  0  1  0  0  3  0  0  0  0  0  0
  186.4500  177.8810  142.4790 C   0  0  0  0  0  0  0  0  0  0  0  0
  188.9790  177.5230  146.8140 C   0  0  0  0  0  2  0  0  0  0  0  0
  189.3670  175.5780  143.7030 C   0  0  1  0  0  3  0  0  0  0  0  0
  187.8490  175.2180  141.7820 C   0  0  0  0  0  2  0  0  0  0  0  0
  191.1090  173.7070  141.0760 O   0  0  0  0  0  0  0  0  0  0  0  0
  192.5690  175.4430  144.1650 C   0  0  1  0  0  3  0  0  0  0  0  0
  190.2020  174.3370  141.6890 C   0  0  0  0  0  0  0  0  0  0  0  0
  192.2090  176.1600  145.4630 C   0  0  2  0  0  3  0  0  0  0  0  0
  190.2970  176.8570  146.9460 C   0  0  0  0  0  0  0  0  0  0  0  0
  188.9220  174.5460  141.0590 N   0  0  0  0  0  0  0  0  0  0  0  0
  190.4550  174.8690  143.0070 N   0  0  0  0  0  0  0  0  0  0  0  0
  185.5680  178.8090  143.0400 C   0  0  0  0  0  3  0  0  0  0  0  0
  192.9670  175.4190  146.5450 C   0  0  0  0  0  2  0  0  0  0  0  0
  193.9500  174.8510  144.3950 C   0  0  0  0  0  2  0  0  0  0  0  0
  186.3660  177.6130  141.1180 O   0  0  0  0  0  1  0  0  0  0  0  0
  188.5340  176.9240  145.5010 C   0  0  2  0  0  3  0  0  0  0  0  0
  185.6460  179.1330  144.3960 C   0  0  0  0  0  3  0  0  0  0  0  0
  187.4150  177.2420  143.2880 C   0  0  0  0  0  0  0  0  0  0  0  0
  189.8020  176.6340  144.7210 C   0  0  1  0  0  3  0  0  0  0  0  0
  190.9640  176.8810  148.0150 O   0  0  0  0  0  0  0  0  0  0  0  0
  190.7700  176.2420  145.7420 N   0  0  0  0  0  0  0  0  0  0  0  0
  194.2480  174.9630  145.8810 C   0  0  0  0  0  2  0  0  0  0  0  0
  191.1930  173.3490  144.8190 C   0  0  0  0  0  1  0  0  0  0  0  0
  186.6210  178.5410  145.1990 C   0  0  0  0  0  3  0  0  0  0  0  0
  187.5250  177.6270  144.6480 C   0  0  0  0  0  0  0  0  0  0  0  0
  191.6060  174.3350  143.7290 C   0  0  2  0  0  3  0  0  0  0  0  0
  188.7080  174.2230  139.6560 C   0  0  0  0  0  2  0  0  0  0  0  0
  189.1330  171.9920  138.9490 O   0  0  0  0  0  1  0  0  0  0  0  0
  188.1620  172.8140  139.5210 C   0  0  0  0  0  2  0  0  0  0  0  0
  1  5  1  1  0  0  0
  1 19  1  0  0  0  0
  1  4  1  0  0  0  0
  2 13  2  0  0  0  0
  2 19  1  0  0  0  0
  3 10  1  0  0  0  0
  4 12  1  6  0  0  0
  4 20  1  0  0  0  0
  6  8  2  0  0  0  0
  7 15  1  1  0  0  0
  7  9  1  0  0  0  0
  8 12  1  0  0  0  0
  9 22  1  0  0  0  0
  9 14  1  1  0  0  0
 10 21  2  0  0  0  0
 11  8  1  0  0  0  0
 11  5  1  0  0  0  0
 12 27  1  0  0  0  0
 13 18  1  0  0  0  0
 15 23  1  0  0  0  0
 16  2  1  0  0  0  0
 17  3  1  1  0  0  0
 18 25  2  0  0  0  0
 19 26  2  0  0  0  0
 20 17  1  0  0  0  0
 20 22  1  1  0  0  0
 22 10  1  0  0  0  0
 23 14  1  0  0  0  0
 26 25  1  0  0  0  0
 26 17  1  0  0  0  0
 27  7  1  0  0  0  0
 27 24  1  1  0  0  0
 28 11  1  0  0  0  0
 29 30  1  0  0  0  0
 30 28  1  0  0  0  0
M  END
>  <MODEL>
1

>  <REMARK>
 VINA RESULT:      -8.5      0.000      0.000
  Name = 
  2 active torsions:
  status: ('A' for Active; 'I' for Inactive)
    1  A    between atoms: N_11  and  C_28
    2  A    between atoms: C_28  and  C_30
                            x       y       z     vdW  Elec       q    Type
                         _______ _______ _______ _____ _____    ______ ____

>  <TORSDO>
F 2

$$$$
=
 OpenBabel11112416143D

 30 35  0  0  1  0  0  0  0  0999 V2000
  187.8430  176.5090  145.0050 C   0  0  1  0  0  3  0  0  0  0  0  0
  186.2490  178.1870  146.1060 C   0  0  0  0  0  0  0  0  0  0  0  0
  186.4800  177.8300  141.0930 C   0  0  0  0  0  2  0  0  0  0  0  0
  188.5240  176.1470  143.6620 C   0  0  1  0  0  3  0  0  0  0  0  0
  188.9380  176.6720  146.0460 C   0  0  0  0  0  2  0  0  0  0  0  0
  190.4850  173.4620  145.2030 O   0  0  0  0  0  0  0  0  0  0  0  0
  188.6590  173.4780  141.8350 C   0  0  1  0  0  3  0  0  0  0  0  0
  189.8330  174.5350  145.0690 C   0  0  0  0  0  0  0  0  0  0  0  0
  187.9000  174.3600  140.8470 C   0  0  2  0  0  3  0  0  0  0  0  0
  187.1480  176.7160  140.3760 C   0  0  0  0  0  0  0  0  0  0  0  0
  189.6380  175.4020  146.2040 N   0  0  0  0  0  0  0  0  0  0  0  0
  189.2600  174.8770  143.7900 N   0  0  0  0  0  0  0  0  0  0  0  0
  185.2990  179.2090  146.0160 C   0  0  0  0  0  3  0  0  0  0  0  0
  188.6100  174.1680  139.5220 C   0  0  0  0  0  2  0  0  0  0  0  0
  189.2490  172.3500  141.0050 C   0  0  0  0  0  2  0  0  0  0  0  0
  186.5600  177.6690  147.3570 O   0  0  0  0  0  1  0  0  0  0  0  0
  187.1190  177.6620  142.4520 C   0  0  2  0  0  3  0  0  0  0  0  0
  184.9340  179.7290  144.7730 C   0  0  0  0  0  3  0  0  0  0  0  0
  186.8670  177.6880  144.9390 C   0  0  0  0  0  0  0  0  0  0  0  0
  187.4390  176.1860  142.5850 C   0  0  1  0  0  3  0  0  0  0  0  0
  187.0930  176.5870  139.1240 O   0  0  0  0  0  0  0  0  0  0  0  0
  187.8030  175.7730  141.2330 N   0  0  0  0  0  0  0  0  0  0  0  0
  189.0920  172.7340  139.5420 C   0  0  0  0  0  2  0  0  0  0  0  0
  190.7250  175.0390  141.7980 C   0  0  0  0  0  1  0  0  0  0  0  0
  185.5040  179.2190  143.6070 C   0  0  0  0  0  3  0  0  0  0  0  0
  186.4390  178.1800  143.6800 C   0  0  0  0  0  0  0  0  0  0  0  0
  189.7760  174.1710  142.6200 C   0  0  2  0  0  3  0  0  0  0  0  0
  190.0040  174.9830  147.5490 C   0  0  0  0  0  2  0  0  0  0  0  0
  192.3340  175.3650  147.2600 O   0  0  0  0  0  1  0  0  0  0  0  0
  191.2280  175.7460  148.0200 C   0  0  0  0  0  2  0  0  0  0  0  0
  1  5  1  1  0  0  0
  2 16  1  0  0  0  0
  4 12  1  1  0  0  0
  4  1  1  0  0  0  0
  5 11  1  0  0  0  0
  7 15  1  6  0  0  0
  7 27  1  0  0  0  0
  8  6  2  0  0  0  0
  8 11  1  0  0  0  0
  9 14  1  6  0  0  0
  9 22  1  0  0  0  0
  9  7  1  0  0  0  0
 10  3  1  0  0  0  0
 10 22  1  0  0  0  0
 11 28  1  0  0  0  0
 12  8  1  0  0  0  0
 13  2  1  0  0  0  0
 14 23  1  0  0  0  0
 17  3  1  6  0  0  0
 17 20  1  0  0  0  0
 17 26  1  0  0  0  0
 18 13  2  0  0  0  0
 19  1  1  0  0  0  0
 19  2  2  0  0  0  0
 20 22  1  6  0  0  0
 20  4  1  0  0  0  0
 21 10  2  0  0  0  0
 23 15  1  0  0  0  0
 25 26  2  0  0  0  0
 25 18  1  0  0  0  0
 26 19  1  0  0  0  0
 27 24  1  6  0  0  0
 27 12  1  0  0  0  0
 28 30  1  0  0  0  0
 29 30  1  0  0  0  0
M  END
>  <MODEL>
2

>  <REMARK>
 VINA RESULT:      -8.3      2.144      5.504
  Name = 
  2 active torsions:
  status: ('A' for Active; 'I' for Inactive)
    1  A    between atoms: N_11  and  C_28
    2  A    between atoms: C_28  and  C_30
                            x       y       z     vdW  Elec       q    Type
                         _______ _______ _______ _____ _____    ______ ____

>  <TORSDO>
F 2

$$$$
=
 OpenBabel11112416143D

 30 35  0  0  1  0  0  0  0  0999 V2000
  188.1200  176.1130  141.8690 C   0  0  1  0  0  3  0  0  0  0  0  0
  186.2830  177.2100  140.4580 C   0  0  0  0  0  0  0  0  0  0  0  0
  186.4280  177.9430  145.4330 C   0  0  0  0  0  2  0  0  0  0  0  0
  188.5120  175.7480  143.3220 C   0  0  1  0  0  3  0  0  0  0  0  0
  188.1680  174.8370  141.0470 C   0  0  0  0  0  2  0  0  0  0  0  0
  191.5250  173.9730  142.2270 O   0  0  0  0  0  0  0  0  0  0  0  0
  191.0810  176.3520  145.1980 C   0  0  1  0  0  3  0  0  0  0  0  0
  190.3630  174.4680  142.2160 C   0  0  0  0  0  0  0  0  0  0  0  0
  190.0510  177.1340  146.0100 C   0  0  2  0  0  3  0  0  0  0  0  0
  187.5910  177.5920  146.2840 C   0  0  0  0  0  0  0  0  0  0  0  0
  189.5320  174.3220  141.0470 N   0  0  0  0  0  0  0  0  0  0  0  0
  189.8800  175.2030  143.3600 N   0  0  0  0  0  0  0  0  0  0  0  0
  185.1310  177.9940  140.3490 C   0  0  0  0  0  3  0  0  0  0  0  0
  190.2800  176.7120  147.4460 C   0  0  0  0  0  2  0  0  0  0  0  0
  192.2420  176.0990  146.1460 C   0  0  0  0  0  2  0  0  0  0  0  0
  186.9010  176.7610  139.2970 O   0  0  0  0  0  1  0  0  0  0  0  0
  186.7520  177.1030  144.2200 C   0  0  2  0  0  3  0  0  0  0  0  0
  184.5040  178.4940  141.4910 C   0  0  0  0  0  3  0  0  0  0  0  0
  186.8100  176.8960  141.7290 C   0  0  0  0  0  0  0  0  0  0  0  0
  188.2640  176.9910  144.1790 C   0  0  1  0  0  3  0  0  0  0  0  0
  187.6500  177.8900  147.5060 O   0  0  0  0  0  0  0  0  0  0  0  0
  188.6600  176.9440  145.5830 N   0  0  0  0  0  0  0  0  0  0  0  0
  191.7680  176.4570  147.5460 C   0  0  0  0  0  2  0  0  0  0  0  0
  189.8370  174.1140  145.5850 C   0  0  0  0  0  1  0  0  0  0  0  0
  185.0350  178.2280  142.7530 C   0  0  0  0  0  3  0  0  0  0  0  0
  186.2000  177.4640  142.8770 C   0  0  0  0  0  0  0  0  0  0  0  0
  190.5960  175.0200  144.6190 C   0  0  2  0  0  3  0  0  0  0  0  0
  190.0650  173.7870  139.8020 C   0  0  0  0  0  2  0  0  0  0  0  0
  188.5620  172.3660  138.6280 O   0  0  0  0  0  1  0  0  0  0  0  0
  188.9670  173.6940  138.7600 C   0  0  0  0  0  2  0  0  0  0  0  0
  1  5  1  6  0  0  0
  1  4  1  0  0  0  0
  2 19  1  0  0  0  0
  3 10  1  0  0  0  0
  4 12  1  6  0  0  0
  4 20  1  0  0  0  0
  5 11  1  0  0  0  0
  7  9  1  0  0  0  0
  7 15  1  1  0  0  0
  8  6  2  0  0  0  0
  8 12  1  0  0  0  0
  9 14  1  1  0  0  0
 10 21  2  0  0  0  0
 11  8  1  0  0  0  0
 12 27  1  0  0  0  0
 13  2  2  0  0  0  0
 13 18  1  0  0  0  0
 14 23  1  0  0  0  0
 15 23  1  0  0  0  0
 16  2  1  0  0  0  0
 17  3  1  1  0  0  0
 18 25  2  0  0  0  0
 19  1  1  0  0  0  0
 19 26  2  0  0  0  0
 20 17  1  0  0  0  0
 20 22  1  1  0  0  0
 22  9  1  0  0  0  0
 22 10  1  0  0  0  0
 25 26  1  0  0  0  0
 26 17  1  0  0  0  0
 27  7  1  0  0  0  0
 27 24  1  1  0  0  0
 28 11  1  0  0  0  0
 29 30  1  0  0  0  0
 30 28  1  0  0  0  0
M  END
>  <MODEL>
3

>  <REMARK>
 VINA RESULT:      -8.3      1.500      2.153
  Name = 
  2 active torsions:
  status: ('A' for Active; 'I' for Inactive)
    1  A    between atoms: N_11  and  C_28
    2  A    between atoms: C_28  and  C_30
                            x       y       z     vdW  Elec       q    Type
                         _______ _______ _______ _____ _____    ______ ____

>  <TORSDO>
F 2

$$$$
=
 OpenBabel11112416143D

 30 35  0  0  1  0  0  0  0  0999 V2000
  186.8030  177.4570  143.7760 C   0  0  1  0  0  3  0  0  0  0  0  0
  185.7380  179.0210  145.5040 C   0  0  0  0  0  0  0  0  0  0  0  0
  189.0740  175.5450  146.9530 C   0  0  0  0  0  2  0  0  0  0  0  0
  187.5940  176.1340  143.6260 C   0  0  1  0  0  3  0  0  0  0  0  0
  185.5540  177.3450  142.9180 C   0  0  0  0  0  2  0  0  0  0  0  0
  187.4420  176.2790  139.9660 O   0  0  0  0  0  0  0  0  0  0  0  0
  190.3890  175.3110  142.2150 C   0  0  1  0  0  3  0  0  0  0  0  0
  187.1360  176.4530  141.1800 C   0  0  0  0  0  0  0  0  0  0  0  0
  190.7980  175.0210  143.6570 C   0  0  2  0  0  3  0  0  0  0  0  0
  189.9430  174.7960  146.0140 C   0  0  0  0  0  0  0  0  0  0  0  0
  185.9480  177.1920  141.5220 N   0  0  0  0  0  0  0  0  0  0  0  0
  187.9910  175.9350  142.2210 N   0  0  0  0  0  0  0  0  0  0  0  0
  185.5660  179.4460  146.8250 C   0  0  0  0  0  3  0  0  0  0  0  0
  191.4580  173.6580  143.6120 C   0  0  0  0  0  2  0  0  0  0  0  0
  191.3740  174.5430  141.3490 C   0  0  0  0  0  2  0  0  0  0  0  0
  185.1260  179.7400  144.4840 O   0  0  0  0  0  1  0  0  0  0  0  0
  188.0300  176.0370  145.9790 C   0  0  2  0  0  3  0  0  0  0  0  0
  186.1950  178.7710  147.8740 C   0  0  0  0  0  3  0  0  0  0  0  0
  186.5300  177.8880  145.2200 C   0  0  0  0  0  0  0  0  0  0  0  0
  188.7350  176.1760  144.6430 C   0  0  1  0  0  3  0  0  0  0  0  0
  190.8510  174.0160  146.4070 O   0  0  0  0  0  0  0  0  0  0  0  0
  189.7030  175.0840  144.6310 N   0  0  0  0  0  0  0  0  0  0  0  0
  192.1380  173.5980  142.2620 C   0  0  0  0  0  2  0  0  0  0  0  0
  188.5250  173.5150  142.2750 C   0  0  0  0  0  1  0  0  0  0  0  0
  187.0150  177.6750  147.6070 C   0  0  0  0  0  3  0  0  0  0  0  0
  187.2130  177.2520  146.2880 C   0  0  0  0  0  0  0  0  0  0  0  0
  188.9600  174.9120  141.8380 C   0  0  2  0  0  3  0  0  0  0  0  0
  185.1900  177.9160  140.5110 C   0  0  0  0  0  2  0  0  0  0  0  0
  182.8410  177.9160  140.1380 O   0  0  0  0  0  1  0  0  0  0  0  0
  183.8240  178.2940  141.0520 C   0  0  0  0  0  2  0  0  0  0  0  0
  1  5  1  6  0  0  0
  1 19  1  0  0  0  0
  2 13  1  0  0  0  0
  4 12  1  6  0  0  0
  4  1  1  0  0  0  0
  4 20  1  0  0  0  0
  6  8  2  0  0  0  0
  7 15  1  6  0  0  0
  7  9  1  0  0  0  0
  8 11  1  0  0  0  0
  8 12  1  0  0  0  0
  9 14  1  6  0  0  0
  9 22  1  0  0  0  0
 10 21  2  0  0  0  0
 10  3  1  0  0  0  0
 11  5  1  0  0  0  0
 13 18  2  0  0  0  0
 15 23  1  0  0  0  0
 16  2  1  0  0  0  0
 17 26  1  0  0  0  0
 17  3  1  1  0  0  0
 19  2  2  0  0  0  0
 19 26  1  0  0  0  0
 20 22  1  6  0  0  0
 20 17  1  0  0  0  0
 22 10  1  0  0  0  0
 23 14  1  0  0  0  0
 25 18  1  0  0  0  0
 26 25  2  0  0  0  0
 27  7  1  0  0  0  0
 27 12  1  0  0  0  0
 27 24  1  1  0  0  0
 28 30  1  0  0  0  0
 28 11  1  0  0  0  0
 29 30  1  0  0  0  0
M  END
>  <MODEL>
4

>  <REMARK>
 VINA RESULT:      -8.2      2.240      3.736
  Name = 
  2 active torsions:
  status: ('A' for Active; 'I' for Inactive)
    1  A    between atoms: N_11  and  C_28
    2  A    between atoms: C_28  and  C_30
                            x       y       z     vdW  Elec       q    Type
                         _______ _______ _______ _____ _____    ______ ____

>  <TORSDO>
F 2

$$$$
=
 OpenBabel11112416143D

 30 35  0  0  1  0  0  0  0  0999 V2000
  188.3020  176.8540  145.5330 C   0  0  1  0  0  3  0  0  0  0  0  0
  186.4090  178.2690  146.5220 C   0  0  0  0  0  0  0  0  0  0  0  0
  186.5670  177.3560  141.5770 C   0  0  0  0  0  2  0  0  0  0  0  0
  189.0070  176.4850  144.2040 C   0  0  1  0  0  3  0  0  0  0  0  0
  189.3640  177.3770  146.4860 C   0  0  0  0  0  2  0  0  0  0  0  0
  191.5580  174.4980  145.9300 O   0  0  0  0  0  0  0  0  0  0  0  0
  189.6760  173.7040  142.6880 C   0  0  1  0  0  3  0  0  0  0  0  0
  190.6800  175.3790  145.7110 C   0  0  0  0  0  0  0  0  0  0  0  0
  188.7120  174.2720  141.6500 C   0  0  2  0  0  3  0  0  0  0  0  0
  187.4440  176.3330  140.9560 C   0  0  0  0  0  0  0  0  0  0  0  0
  190.3310  176.3180  146.7480 N   0  0  0  0  0  0  0  0  0  0  0  0
  190.0090  175.4300  144.4340 N   0  0  0  0  0  0  0  0  0  0  0  0
  185.2540  179.0430  146.3690 C   0  0  0  0  0  3  0  0  0  0  0  0
  189.4080  174.0760  140.3190 C   0  0  0  0  0  2  0  0  0  0  0  0
  190.4770  172.6360  141.9600 C   0  0  0  0  0  2  0  0  0  0  0  0
  186.8630  177.9890  147.8050 O   0  0  0  0  0  1  0  0  0  0  0  0
  187.2660  177.4990  142.9090 C   0  0  2  0  0  3  0  0  0  0  0  0
  184.7460  179.3150  145.0970 C   0  0  0  0  0  3  0  0  0  0  0  0
  187.0870  177.7760  145.3870 C   0  0  0  0  0  0  0  0  0  0  0  0
  187.9090  176.1550  143.1910 C   0  0  1  0  0  3  0  0  0  0  0  0
  187.3830  176.0420  139.7320 O   0  0  0  0  0  0  0  0  0  0  0  0
  188.3160  175.6670  141.8770 N   0  0  0  0  0  0  0  0  0  0  0  0
  190.1960  172.7940  140.4740 C   0  0  0  0  0  2  0  0  0  0  0  0
  191.3430  175.6570  142.3590 C   0  0  0  0  0  1  0  0  0  0  0  0
  185.3810  178.7990  143.9670 C   0  0  0  0  0  3  0  0  0  0  0  0
  186.5240  178.0050  144.1060 C   0  0  0  0  0  0  0  0  0  0  0  0
  190.6340  174.7130  143.3260 C   0  0  2  0  0  3  0  0  0  0  0  0
  190.8210  176.1560  148.1100 C   0  0  0  0  0  2  0  0  0  0  0  0
  191.5660  177.9310  149.5060 O   0  0  0  0  0  1  0  0  0  0  0  0
  191.9170  177.1650  148.3950 C   0  0  0  0  0  2  0  0  0  0  0  0
  1  5  1  1  0  0  0
  2 16  1  0  0  0  0
  4 12  1  1  0  0  0
  4  1  1  0  0  0  0
  5 11  1  0  0  0  0
  7 15  1  6  0  0  0
  7 27  1  0  0  0  0
  8  6  2  0  0  0  0
  8 11  1  0  0  0  0
  9 14  1  6  0  0  0
  9 22  1  0  0  0  0
  9  7  1  0  0  0  0
 10  3  1  0  0  0  0
 10 22  1  0  0  0  0
 11 28  1  0  0  0  0
 12  8  1  0  0  0  0
 13  2  1  0  0  0  0
 14 23  1  0  0  0  0
 17  3  1  6  0  0  0
 17 20  1  0  0  0  0
 17 26  1  0  0  0  0
 18 13  2  0  0  0  0
 19  1  1  0  0  0  0
 19  2  2  0  0  0  0
 20 22  1  6  0  0  0
 20  4  1  0  0  0  0
 21 10  2  0  0  0  0
 23 15  1  0  0  0  0
 25 26  2  0  0  0  0
 25 18  1  0  0  0  0
 26 19  1  0  0  0  0
 27 24  1  6  0  0  0
 27 12  1  0  0  0  0
 28 30  1  0  0  0  0
 30 29  1  0  0  0  0
M  END
>  <MODEL>
5

>  <REMARK>
 VINA RESULT:      -8.0      1.973      5.559
  Name = 
  2 active torsions:
  status: ('A' for Active; 'I' for Inactive)
    1  A    between atoms: N_11  and  C_28
    2  A    between atoms: C_28  and  C_30
                            x       y       z     vdW  Elec       q    Type
                         _______ _______ _______ _____ _____    ______ ____

>  <TORSDO>
F 2

$$$$
=
 OpenBabel11112416143D

 30 35  0  0  1  0  0  0  0  0999 V2000
  187.9470  176.6950  142.8350 C   0  0  1  0  0  3  0  0  0  0  0  0
  185.9970  178.3580  142.8470 C   0  0  0  0  0  0  0  0  0  0  0  0
  188.7770  177.6890  146.9870 C   0  0  0  0  0  2  0  0  0  0  0  0
  188.9030  175.9030  143.7610 C   0  0  1  0  0  3  0  0  0  0  0  0
  187.2560  175.6940  141.9250 C   0  0  0  0  0  2  0  0  0  0  0  0
  190.4120  174.1220  140.9340 O   0  0  0  0  0  0  0  0  0  0  0  0
  192.1210  175.6430  144.0080 C   0  0  1  0  0  3  0  0  0  0  0  0
  189.5670  174.7460  141.6360 C   0  0  0  0  0  0  0  0  0  0  0  0
  191.8670  176.3000  145.3630 C   0  0  2  0  0  3  0  0  0  0  0  0
  190.0770  176.9750  146.9990 C   0  0  0  0  0  0  0  0  0  0  0  0
  188.2590  175.0290  141.1010 N   0  0  0  0  0  0  0  0  0  0  0  0
  189.9200  175.1980  142.9600 N   0  0  0  0  0  0  0  0  0  0  0  0
  185.1840  179.2820  143.5100 C   0  0  0  0  0  3  0  0  0  0  0  0
  192.6660  175.4780  146.3540 C   0  0  0  0  0  2  0  0  0  0  0  0
  193.4920  174.9970  144.1180 C   0  0  0  0  0  2  0  0  0  0  0  0
  185.8190  178.1660  141.4820 O   0  0  0  0  0  1  0  0  0  0  0  0
  188.2310  177.1750  145.6750 C   0  0  2  0  0  3  0  0  0  0  0  0
  185.3580  179.5290  144.8730 C   0  0  0  0  0  3  0  0  0  0  0  0
  186.9880  177.6460  143.5570 C   0  0  0  0  0  0  0  0  0  0  0  0
  189.4370  176.8880  144.8020 C   0  0  1  0  0  3  0  0  0  0  0  0
  190.8100  176.9210  148.0220 O   0  0  0  0  0  0  0  0  0  0  0  0
  190.4530  176.4120  145.7360 N   0  0  0  0  0  0  0  0  0  0  0  0
  193.8870  175.0190  145.5870 C   0  0  0  0  0  2  0  0  0  0  0  0
  190.7170  173.5610  144.6400 C   0  0  0  0  0  1  0  0  0  0  0  0
  186.3600  178.8650  145.5810 C   0  0  0  0  0  3  0  0  0  0  0  0
  187.1960  177.9540  144.9260 C   0  0  0  0  0  0  0  0  0  0  0  0
  191.0950  174.5910  143.5790 C   0  0  2  0  0  3  0  0  0  0  0  0
  187.9470  174.7880  139.6990 C   0  0  0  0  0  2  0  0  0  0  0  0
  187.1460  175.9020  137.7570 O   0  0  0  0  0  1  0  0  0  0  0  0
  187.0970  175.9180  139.1500 C   0  0  0  0  0  2  0  0  0  0  0  0
  1  5  1  1  0  0  0
  1 19  1  0  0  0  0
  1  4  1  0  0  0  0
  2 13  2  0  0  0  0
  2 19  1  0  0  0  0
  3 10  1  0  0  0  0
  4 12  1  6  0  0  0
  4 20  1  0  0  0  0
  6  8  2  0  0  0  0
  7 15  1  1  0  0  0
  7  9  1  0  0  0  0
  8 12  1  0  0  0  0
  9 22  1  0  0  0  0
  9 14  1  1  0  0  0
 10 21  2  0  0  0  0
 11  8  1  0  0  0  0
 11  5  1  0  0  0  0
 12 27  1  0  0  0  0
 13 18  1  0  0  0  0
 15 23  1  0  0  0  0
 16  2  1  0  0  0  0
 17  3  1  1  0  0  0
 18 25  2  0  0  0  0
 19 26  2  0  0  0  0
 20 17  1  0  0  0  0
 20 22  1  1  0  0  0
 22 10  1  0  0  0  0
 23 14  1  0  0  0  0
 26 25  1  0  0  0  0
 26 17  1  0  0  0  0
 27  7  1  0  0  0  0
 27 24  1  1  0  0  0
 28 11  1  0  0  0  0
 29 30  1  0  0  0  0
 30 28  1  0  0  0  0
M  END
>  <MODEL>
6

>  <REMARK>
 VINA RESULT:      -7.8      1.014      1.183
  Name = 
  2 active torsions:
  status: ('A' for Active; 'I' for Inactive)
    1  A    between atoms: N_11  and  C_28
    2  A    between atoms: C_28  and  C_30
                            x       y       z     vdW  Elec       q    Type
                         _______ _______ _______ _____ _____    ______ ____

>  <TORSDO>
F 2

$$$$
=
 OpenBabel11112416143D

 30 35  0  0  1  0  0  0  0  0999 V2000
  186.6500  176.9890  144.0470 C   0  0  1  0  0  3  0  0  0  0  0  0
  184.6570  178.2240  143.0140 C   0  0  0  0  0  0  0  0  0  0  0  0
  187.8120  175.6200  140.0860 C   0  0  0  0  0  2  0  0  0  0  0  0
  188.0040  176.3200  143.7030 C   0  0  1  0  0  3  0  0  0  0  0  0
  186.9140  178.0400  145.1110 C   0  0  0  0  0  2  0  0  0  0  0  0
  188.7700  175.7040  147.2340 O   0  0  0  0  0  0  0  0  0  0  0  0
  189.2830  173.3920  144.2220 C   0  0  1  0  0  3  0  0  0  0  0  0
  188.2860  176.2320  146.1950 C   0  0  0  0  0  0  0  0  0  0  0  0
  189.2230  173.3180  142.6980 C   0  0  2  0  0  3  0  0  0  0  0  0
  188.8130  174.6560  140.6060 C   0  0  0  0  0  0  0  0  0  0  0  0
  187.4290  177.3860  146.3090 N   0  0  0  0  0  0  0  0  0  0  0  0
  188.5670  175.6650  144.8970 N   0  0  0  0  0  0  0  0  0  0  0  0
  183.9080  178.6190  141.9010 C   0  0  0  0  0  3  0  0  0  0  0  0
  190.5840  172.8030  142.2760 C   0  0  0  0  0  2  0  0  0  0  0  0
  190.2880  172.3310  144.6430 C   0  0  0  0  0  2  0  0  0  0  0  0
  184.1870  178.5380  144.2840 O   0  0  0  0  0  1  0  0  0  0  0  0
  187.5320  176.3880  141.3560 C   0  0  2  0  0  3  0  0  0  0  0  0
  184.3280  178.2900  140.6110 C   0  0  0  0  0  3  0  0  0  0  0  0
  185.8610  177.5080  142.8410 C   0  0  0  0  0  0  0  0  0  0  0  0
  187.7630  175.4140  142.4950 C   0  0  1  0  0  3  0  0  0  0  0  0
  189.5110  173.9310  139.8490 O   0  0  0  0  0  0  0  0  0  0  0  0
  188.8680  174.5780  142.0360 N   0  0  0  0  0  0  0  0  0  0  0  0
  191.0110  171.8690  143.3870 C   0  0  0  0  0  2  0  0  0  0  0  0
  190.9180  175.3990  144.1620 C   0  0  0  0  0  1  0  0  0  0  0  0
  185.4930  177.5460  140.4250 C   0  0  0  0  0  3  0  0  0  0  0  0
  186.2410  177.1250  141.5290 C   0  0  0  0  0  0  0  0  0  0  0  0
  189.6970  174.7460  144.8050 C   0  0  2  0  0  3  0  0  0  0  0  0
  186.9470  177.8440  147.6030 C   0  0  0  0  0  2  0  0  0  0  0  0
  184.6630  178.5070  147.6380 O   0  0  0  0  0  1  0  0  0  0  0  0
  185.9570  178.9800  147.4210 C   0  0  0  0  0  2  0  0  0  0  0  0
  1  5  1  1  0  0  0
  2 16  1  0  0  0  0
  3 10  1  0  0  0  0
  4  1  1  0  0  0  0
  4 12  1  1  0  0  0
  5 11  1  0  0  0  0
  7 15  1  6  0  0  0
  7 27  1  0  0  0  0
  8 11  1  0  0  0  0
  8  6  2  0  0  0  0
  9 14  1  6  0  0  0
  9  7  1  0  0  0  0
 10 22  1  0  0  0  0
 11 28  1  0  0  0  0
 12  8  1  0  0  0  0
 13  2  2  0  0  0  0
 14 23  1  0  0  0  0
 17  3  1  6  0  0  0
 17 26  1  0  0  0  0
 17 20  1  0  0  0  0
 18 13  1  0  0  0  0
 19  2  1  0  0  0  0
 19  1  1  0  0  0  0
 20 22  1  6  0  0  0
 20  4  1  0  0  0  0
 21 10  2  0  0  0  0
 22  9  1  0  0  0  0
 23 15  1  0  0  0  0
 25 18  2  0  0  0  0
 25 26  1  0  0  0  0
 26 19  2  0  0  0  0
 27 24  1  6  0  0  0
 27 12  1  0  0  0  0
 30 28  1  0  0  0  0
 30 29  1  0  0  0  0
M  END
>  <MODEL>
7

>  <REMARK>
 VINA RESULT:      -7.8      2.231      5.480
  Name = 
  2 active torsions:
  status: ('A' for Active; 'I' for Inactive)
    1  A    between atoms: N_11  and  C_28
    2  A    between atoms: C_28  and  C_30
                            x       y       z     vdW  Elec       q    Type
                         _______ _______ _______ _____ _____    ______ ____

>  <TORSDO>
F 2

$$$$
=
 OpenBabel11112416143D

 30 35  0  0  1  0  0  0  0  0999 V2000
  188.6810  175.5340  142.6750 C   0  0  1  0  0  3  0  0  0  0  0  0
  186.7100  177.1670  142.5390 C   0  0  0  0  0  0  0  0  0  0  0  0
  189.7340  177.1800  146.5600 C   0  0  0  0  0  2  0  0  0  0  0  0
  189.7010  174.9050  143.6560 C   0  0  1  0  0  3  0  0  0  0  0  0
  187.9550  174.3980  141.9770 C   0  0  0  0  0  2  0  0  0  0  0  0
  191.0710  172.7070  141.0630 O   0  0  0  0  0  0  0  0  0  0  0  0
  192.9310  174.7060  143.7500 C   0  0  1  0  0  3  0  0  0  0  0  0
  190.2590  173.4290  141.7050 C   0  0  0  0  0  0  0  0  0  0  0  0
  192.7460  175.5690  144.9960 C   0  0  2  0  0  3  0  0  0  0  0  0
  191.0430  176.4850  146.6080 C   0  0  0  0  0  0  0  0  0  0  0  0
  188.9180  173.6160  141.2110 N   0  0  0  0  0  0  0  0  0  0  0  0
  190.6810  174.0880  142.9180 N   0  0  0  0  0  0  0  0  0  0  0  0
  185.9230  178.1790  143.0940 C   0  0  0  0  0  3  0  0  0  0  0  0
  193.6130  174.9200  146.0560 C   0  0  0  0  0  2  0  0  0  0  0  0
  194.3160  174.0940  143.8800 C   0  0  0  0  0  2  0  0  0  0  0  0
  186.4570  176.7590  141.2340 O   0  0  0  0  0  1  0  0  0  0  0  0
  189.1210  176.4620  145.3810 C   0  0  2  0  0  3  0  0  0  0  0  0
  186.1710  178.6410  144.3880 C   0  0  0  0  0  3  0  0  0  0  0  0
  187.7510  176.5830  143.2930 C   0  0  0  0  0  0  0  0  0  0  0  0
  190.2790  176.0460  144.4940 C   0  0  1  0  0  3  0  0  0  0  0  0
  191.8340  176.5990  147.5820 O   0  0  0  0  0  0  0  0  0  0  0  0
  191.3540  175.7310  145.4310 N   0  0  0  0  0  0  0  0  0  0  0  0
  194.7940  174.3520  145.3000 C   0  0  0  0  0  2  0  0  0  0  0  0
  191.5980  172.7430  144.7860 C   0  0  0  0  0  1  0  0  0  0  0  0
  187.2220  178.1040  145.1310 C   0  0  0  0  0  3  0  0  0  0  0  0
  188.0320  177.1050  144.5810 C   0  0  0  0  0  0  0  0  0  0  0  0
  191.8980  173.5940  143.5550 C   0  0  2  0  0  3  0  0  0  0  0  0
  188.5300  173.1530  139.8860 C   0  0  0  0  0  2  0  0  0  0  0  0
  187.8130  174.6860  138.2150 O   0  0  0  0  0  1  0  0  0  0  0  0
  188.9480  174.1640  138.8350 C   0  0  0  0  0  2  0  0  0  0  0  0
  1  5  1  1  0  0  0
  1 19  1  0  0  0  0
  1  4  1  0  0  0  0
  2 13  2  0  0  0  0
  2 19  1  0  0  0  0
  3 10  1  0  0  0  0
  4 12  1  6  0  0  0
  4 20  1  0  0  0  0
  6  8  2  0  0  0  0
  7 15  1  1  0  0  0
  7  9  1  0  0  0  0
  8 12  1  0  0  0  0
  9 22  1  0  0  0  0
  9 14  1  1  0  0  0
 10 21  2  0  0  0  0
 11  8  1  0  0  0  0
 11  5  1  0  0  0  0
 12 27  1  0  0  0  0
 13 18  1  0  0  0  0
 15 23  1  0  0  0  0
 16  2  1  0  0  0  0
 17  3  1  1  0  0  0
 18 25  2  0  0  0  0
 19 26  2  0  0  0  0
 20 17  1  0  0  0  0
 20 22  1  1  0  0  0
 22 10  1  0  0  0  0
 23 14  1  0  0  0  0
 26 25  1  0  0  0  0
 26 17  1  0  0  0  0
 27  7  1  0  0  0  0
 27 24  1  1  0  0  0
 28 11  1  0  0  0  0
 29 30  1  0  0  0  0
 30 28  1  0  0  0  0
M  END
>  <MODEL>
8

>  <REMARK>
 VINA RESULT:      -7.6      0.991      1.053
  Name = 
  2 active torsions:
  status: ('A' for Active; 'I' for Inactive)
    1  A    between atoms: N_11  and  C_28
    2  A    between atoms: C_28  and  C_30
                            x       y       z     vdW  Elec       q    Type
                         _______ _______ _______ _____ _____    ______ ____

>  <TORSDO>
F 2

$$$$
=
 OpenBabel11112416143D

 30 35  0  0  1  0  0  0  0  0999 V2000
  187.6520  176.1680  141.7740 C   0  0  1  0  0  3  0  0  0  0  0  0
  189.4150  174.4730  141.0080 C   0  0  0  0  0  0  0  0  0  0  0  0
  189.6740  176.4860  145.6110 C   0  0  0  0  0  2  0  0  0  0  0  0
  187.3580  177.2500  142.8430 C   0  0  1  0  0  3  0  0  0  0  0  0
  187.4960  176.8150  140.4090 C   0  0  0  0  0  2  0  0  0  0  0  0
  184.2090  178.2060  141.2300 O   0  0  0  0  0  0  0  0  0  0  0  0
  184.9620  177.7550  144.9600 C   0  0  1  0  0  3  0  0  0  0  0  0
  185.3830  177.7680  141.3850 C   0  0  0  0  0  0  0  0  0  0  0  0
  186.0780  177.5120  145.9730 C   0  0  2  0  0  3  0  0  0  0  0  0
  188.5660  177.2450  146.2420 C   0  0  0  0  0  0  0  0  0  0  0  0
  186.1180  177.2660  140.2510 N   0  0  0  0  0  0  0  0  0  0  0  0
  185.9780  177.7450  142.7000 N   0  0  0  0  0  0  0  0  0  0  0  0
  190.5830  173.7390  141.2340 C   0  0  0  0  0  3  0  0  0  0  0  0
  185.9430  178.6320  146.9830 C   0  0  0  0  0  2  0  0  0  0  0  0
  183.8680  178.4830  145.7240 C   0  0  0  0  0  2  0  0  0  0  0  0
  188.6950  174.2450  139.8410 O   0  0  0  0  0  1  0  0  0  0  0  0
  189.2290  176.5590  144.1700 C   0  0  2  0  0  3  0  0  0  0  0  0
  191.3120  173.9130  142.4120 C   0  0  0  0  0  3  0  0  0  0  0  0
  188.9740  175.4170  141.9600 C   0  0  0  0  0  0  0  0  0  0  0  0
  187.7150  176.6470  144.2020 C   0  0  1  0  0  3  0  0  0  0  0  0
  188.6100  177.6390  147.4380 O   0  0  0  0  0  0  0  0  0  0  0  0
  187.4250  177.4330  145.3970 N   0  0  0  0  0  0  0  0  0  0  0  0
  184.4580  178.9150  147.0570 C   0  0  0  0  0  2  0  0  0  0  0  0
  186.1500  179.8470  144.0010 C   0  0  0  0  0  1  0  0  0  0  0  0
  190.8690  174.8120  143.3820 C   0  0  0  0  0  3  0  0  0  0  0  0
  189.6900  175.5370  143.1790 C   0  0  0  0  0  0  0  0  0  0  0  0
  185.3530  178.5740  143.7270 C   0  0  2  0  0  3  0  0  0  0  0  0
  185.4730  177.0660  138.9610 C   0  0  0  0  0  2  0  0  0  0  0  0
  185.7420  175.9770  136.8650 O   0  0  0  0  0  1  0  0  0  0  0  0
  186.4400  176.4200  137.9870 C   0  0  0  0  0  2  0  0  0  0  0  0
  1  5  1  6  0  0  0
  1 19  1  0  0  0  0
  1  4  1  0  0  0  0
  2 13  2  0  0  0  0
  2 19  1  0  0  0  0
  3 10  1  0  0  0  0
  4 12  1  1  0  0  0
  4 20  1  0  0  0  0
  6  8  2  0  0  0  0
  7 15  1  1  0  0  0
  7  9  1  0  0  0  0
  8 12  1  0  0  0  0
  9 14  1  1  0  0  0
 10 21  2  0  0  0  0
 11  5  1  0  0  0  0
 11  8  1  0  0  0  0
 12 27  1  0  0  0  0
 13 18  1  0  0  0  0
 14 23  1  0  0  0  0
 15 23  1  0  0  0  0
 16  2  1  0  0  0  0
 17 20  1  0  0  0  0
 17  3  1  1  0  0  0
 18 25  2  0  0  0  0
 19 26  2  0  0  0  0
 20 22  1  1  0  0  0
 22  9  1  0  0  0  0
 22 10  1  0  0  0  0
 26 25  1  0  0  0  0
 26 17  1  0  0  0  0
 27 24  1  1  0  0  0
 27  7  1  0  0  0  0
 28 11  1  0  0  0  0
 29 30  1  0  0  0  0
 30 28  1  0  0  0  0
M  END
>  <MODEL>
9

>  <REMARK>
 VINA RESULT:      -7.5      2.286      5.754
  Name = 
  2 active torsions:
  status: ('A' for Active; 'I' for Inactive)
    1  A    between atoms: N_11  and  C_28
    2  A    between atoms: C_28  and  C_30
                            x       y       z     vdW  Elec       q    Type
                         _______ _______ _______ _____ _____    ______ ____

>  <TORSDO>
F 2

$$$$
