=
 OpenBabel11112416123D

 30 35  0  0  1  0  0  0  0  0999 V2000
  186.8860  177.2320  143.8860 C   0  0  1  0  0  3  0  0  0  0  0  0
  184.9590  178.1790  145.2900 C   0  0  0  0  0  0  0  0  0  0  0  0
  189.2710  177.1180  147.2630 N   0  0  0  0  0  2  0  0  0  0  0  0
  188.1090  176.3150  144.0880 C   0  0  1  0  0  3  0  0  0  0  0  0
  185.9410  176.5630  143.0810 O   0  0  0  0  0  0  0  0  0  0  0  0
  188.1910  175.4830  140.5300 O   0  0  0  0  0  0  0  0  0  0  0  0
  191.1680  176.1330  143.0640 C   0  0  1  0  0  3  0  0  0  0  0  0
  187.8010  175.9430  141.6370 C   0  0  0  0  0  0  0  0  0  0  0  0
  191.4320  176.3250  144.5000 N   0  0  2  0  0  0  0  0  0  0  0  0
  190.5230  176.5310  146.8160 C   0  0  1  0  0  3  0  0  0  0  0  0
  186.4210  176.5390  141.7470 C   0  0  2  0  0  3  0  0  0  0  0  0
  188.6720  175.9320  142.7840 N   0  0  0  0  0  0  0  0  0  0  0  0
  184.4580  178.6540  146.5060 C   0  0  0  0  0  3  0  0  0  0  0  0
  192.4470  175.3270  144.8080 C   0  0  0  0  0  2  0  0  0  0  0  0
  192.4360  175.5450  142.4910 C   0  0  0  0  0  2  0  0  0  0  0  0
  184.1230  178.1790  144.1800 O   0  0  0  0  0  1  0  0  0  0  0  0
  188.5250  177.3880  146.2480 C   0  0  1  0  0  3  0  0  0  0  0  0
  185.2720  178.7030  147.6380 C   0  0  0  0  0  3  0  0  0  0  0  0
  186.2900  177.7170  145.2040 C   0  0  0  0  0  0  0  0  0  0  0  0
  189.1300  177.0390  144.9470 C   0  0  1  0  0  3  0  0  0  0  0  0
  190.8420  175.3120  147.6590 C   0  0  0  0  0  1  0  0  0  0  0  0
  190.2620  176.1180  145.3620 C   0  0  1  0  0  3  0  0  0  0  0  0
  193.2450  175.0870  143.6110 N   0  0  0  0  0  2  0  0  0  0  0  0
  189.9280  173.8650  143.3430 C   0  0  0  0  0  1  0  0  0  0  0  0
  186.6020  178.2910  147.5590 C   0  0  0  0  0  3  0  0  0  0  0  0
  187.1220  177.8200  146.3480 C   0  0  0  0  0  0  0  0  0  0  0  0
  189.9610  175.2370  142.6780 C   0  0  2  0  0  3  0  0  0  0  0  0
  186.3550  177.9160  141.0820 C   0  0  0  0  0  2  0  0  0  0  0  0
  183.9270  178.2910  140.6510 C   0  0  0  0  0  1  0  0  0  0  0  0
  185.2670  177.9600  140.0210 C   0  0  0  0  0  2  0  0  0  0  0  0
  1  5  1  1  0  0  0
  1  4  1  0  0  0  0
  1 19  1  0  0  0  0
  2 13  1  0  0  0  0
  4 12  1  6  0  0  0
  4 20  1  0  0  0  0
  6  8  2  0  0  0  0
  7 15  1  6  0  0  0
  7  9  1  0  0  0  0
  8 11  1  0  0  0  0
  8 12  1  0  0  0  0
  9 14  1  1  0  0  0
  9 22  1  0  0  0  0
 10  3  1  0  0  0  0
 10 21  1  1  0  0  0
 11 28  1  1  0  0  0
 11  5  1  0  0  0  0
 13 18  2  0  0  0  0
 15 23  1  0  0  0  0
 16  2  1  0  0  0  0
 17 26  1  1  0  0  0
 17  3  1  0  0  0  0
 19  2  2  0  0  0  0
 19 26  1  0  0  0  0
 20 22  1  0  0  0  0
 20 17  1  0  0  0  0
 22 10  1  0  0  0  0
 23 14  1  0  0  0  0
 25 18  1  0  0  0  0
 26 25  2  0  0  0  0
 27 12  1  0  0  0  0
 27  7  1  0  0  0  0
 27 24  1  0  0  0  0
 30 29  1  0  0  0  0
 30 28  1  0  0  0  0
M  END
>  <MODEL>
1

>  <REMARK>
 VINA RESULT:      -9.0      0.000      0.000
  Name = 
  2 active torsions:
  status: ('A' for Active; 'I' for Inactive)
    1  A    between atoms: C_11  and  C_28
    2  A    between atoms: C_28  and  C_30
                            x       y       z     vdW  Elec       q    Type
                         _______ _______ _______ _____ _____    ______ ____

>  <TORSDO>
F 2

$$$$
=
 OpenBabel11112416123D

 30 35  0  0  1  0  0  0  0  0999 V2000
  188.1870  176.3180  143.8360 C   0  0  1  0  0  3  0  0  0  0  0  0
  186.6000  178.0390  142.7870 C   0  0  0  0  0  0  0  0  0  0  0  0
  188.7260  174.5740  140.1250 N   0  0  0  0  0  2  0  0  0  0  0  0
  189.4070  175.4750  143.4120 C   0  0  1  0  0  3  0  0  0  0  0  0
  188.6100  177.3010  144.7540 O   0  0  0  0  0  0  0  0  0  0  0  0
  190.5150  175.1590  146.8800 O   0  0  0  0  0  0  0  0  0  0  0  0
  190.5710  172.5070  143.9370 C   0  0  1  0  0  3  0  0  0  0  0  0
  189.8700  175.5390  145.8650 C   0  0  0  0  0  0  0  0  0  0  0  0
  190.3490  172.3980  142.4840 N   0  0  2  0  0  0  0  0  0  0  0  0
  189.6930  173.5120  140.3490 C   0  0  1  0  0  3  0  0  0  0  0  0
  188.8850  176.6720  145.9950 C   0  0  2  0  0  3  0  0  0  0  0  0
  190.0450  174.8810  144.5970 N   0  0  0  0  0  0  0  0  0  0  0  0
  185.8990  178.5340  141.6820 C   0  0  0  0  0  3  0  0  0  0  0  0
  191.5740  171.7890  141.9860 C   0  0  0  0  0  2  0  0  0  0  0  0
  191.5530  171.4120  144.2810 C   0  0  0  0  0  2  0  0  0  0  0  0
  186.4430  178.6720  144.0140 O   0  0  0  0  0  1  0  0  0  0  0  0
  188.3310  175.0540  141.2530 C   0  0  1  0  0  3  0  0  0  0  0  0
  186.0020  177.9080  140.4390 C   0  0  0  0  0  3  0  0  0  0  0  0
  187.4410  176.9140  142.6460 C   0  0  0  0  0  0  0  0  0  0  0  0
  188.9500  174.4100  142.4300 C   0  0  1  0  0  3  0  0  0  0  0  0
  190.8790  173.7010  139.4220 C   0  0  0  0  0  1  0  0  0  0  0  0
  190.1280  173.6830  141.8100 C   0  0  1  0  0  3  0  0  0  0  0  0
  192.1370  170.9460  143.0320 N   0  0  0  0  0  2  0  0  0  0  0  0
  192.3380  174.4060  143.7730 C   0  0  0  0  0  1  0  0  0  0  0  0
  186.7950  176.7710  140.2940 C   0  0  0  0  0  3  0  0  0  0  0  0
  187.4970  176.2580  141.3910 C   0  0  0  0  0  0  0  0  0  0  0  0
  191.0970  173.8640  144.4740 C   0  0  2  0  0  3  0  0  0  0  0  0
  187.6100  176.2220  146.7120 C   0  0  0  0  0  2  0  0  0  0  0  0
  185.3260  177.2090  146.8810 C   0  0  0  0  0  1  0  0  0  0  0  0
  186.7970  177.4160  147.1860 C   0  0  0  0  0  2  0  0  0  0  0  0
  1 19  1  6  0  0  0
  1  5  1  0  0  0  0
  2 16  1  0  0  0  0
  3 10  1  0  0  0  0
  4  1  1  0  0  0  0
  4 12  1  1  0  0  0
  5 11  1  0  0  0  0
  7 15  1  6  0  0  0
  7 27  1  0  0  0  0
  8 11  1  0  0  0  0
  8  6  2  0  0  0  0
  9 14  1  6  0  0  0
  9  7  1  0  0  0  0
 10 21  1  6  0  0  0
 10 22  1  0  0  0  0
 11 28  1  6  0  0  0
 12  8  1  0  0  0  0
 13  2  2  0  0  0  0
 14 23  1  0  0  0  0
 17  3  1  6  0  0  0
 17 26  1  0  0  0  0
 17 20  1  0  0  0  0
 18 13  1  0  0  0  0
 19  2  1  0  0  0  0
 20  4  1  0  0  0  0
 22 20  1  0  0  0  0
 22  9  1  0  0  0  0
 23 15  1  0  0  0  0
 24 27  1  0  0  0  0
 25 18  2  0  0  0  0
 25 26  1  0  0  0  0
 26 19  2  0  0  0  0
 27 12  1  0  0  0  0
 28 30  1  0  0  0  0
 29 30  1  0  0  0  0
M  END
>  <MODEL>
2

>  <REMARK>
 VINA RESULT:      -7.5      2.380      5.102
  Name = 
  2 active torsions:
  status: ('A' for Active; 'I' for Inactive)
    1  A    between atoms: C_11  and  C_28
    2  A    between atoms: C_28  and  C_30
                            x       y       z     vdW  Elec       q    Type
                         _______ _______ _______ _____ _____    ______ ____

>  <TORSDO>
F 2

$$$$
=
 OpenBabel11112416123D

 30 35  0  0  1  0  0  0  0  0999 V2000
  189.0710  175.8330  143.9160 C   0  0  1  0  0  3  0  0  0  0  0  0
  191.0930  174.9900  145.2510 C   0  0  0  0  0  0  0  0  0  0  0  0
  187.4910  177.4700  147.3690 N   0  0  0  0  0  2  0  0  0  0  0  0
  188.0630  177.0000  143.9740 C   0  0  1  0  0  3  0  0  0  0  0  0
  189.9120  176.0120  142.7980 O   0  0  0  0  0  0  0  0  0  0  0  0
  187.3560  176.6930  140.4020 O   0  0  0  0  0  0  0  0  0  0  0  0
  184.9170  177.4820  143.4230 C   0  0  1  0  0  3  0  0  0  0  0  0
  187.9000  176.5270  141.5270 C   0  0  0  0  0  0  0  0  0  0  0  0
  184.9360  177.8010  144.8610 N   0  0  2  0  0  0  0  0  0  0  0  0
  186.2720  178.1360  146.9430 C   0  0  1  0  0  3  0  0  0  0  0  0
  189.1710  175.7230  141.6240 C   0  0  2  0  0  3  0  0  0  0  0  0
  187.3010  177.0690  142.7180 N   0  0  0  0  0  0  0  0  0  0  0  0
  191.7650  174.8200  146.4660 C   0  0  0  0  0  3  0  0  0  0  0  0
  184.1620  179.0310  144.9590 C   0  0  0  0  0  2  0  0  0  0  0  0
  183.6550  178.1120  142.8830 C   0  0  0  0  0  2  0  0  0  0  0  0
  191.6670  174.4760  144.0950 O   0  0  0  0  0  1  0  0  0  0  0  0
  187.9600  176.7530  146.4070 C   0  0  1  0  0  3  0  0  0  0  0  0
  191.2070  175.2910  147.6550 C   0  0  0  0  0  3  0  0  0  0  0  0
  189.8540  175.6660  145.2140 C   0  0  0  0  0  0  0  0  0  0  0  0
  187.1520  176.8010  145.1730 C   0  0  1  0  0  3  0  0  0  0  0  0
  186.3160  179.5940  147.3570 C   0  0  0  0  0  1  0  0  0  0  0  0
  186.2780  178.0170  145.4130 C   0  0  1  0  0  3  0  0  0  0  0  0
  183.1750  179.0500  143.8870 N   0  0  0  0  0  2  0  0  0  0  0  0
  186.5010  179.4200  142.7220 C   0  0  0  0  0  1  0  0  0  0  0  0
  189.9650  175.9240  147.6410 C   0  0  0  0  0  3  0  0  0  0  0  0
  189.2760  176.0950  146.4350 C   0  0  0  0  0  0  0  0  0  0  0  0
  186.1320  177.9470  142.5770 C   0  0  2  0  0  3  0  0  0  0  0  0
  188.8970  174.2250  141.4670 C   0  0  0  0  0  2  0  0  0  0  0  0
  188.1990  172.8350  139.5180 C   0  0  0  0  0  1  0  0  0  0  0  0
  189.2790  173.7410  140.0780 C   0  0  0  0  0  2  0  0  0  0  0  0
  1  5  1  6  0  0  0
  1  4  1  0  0  0  0
  1 19  1  0  0  0  0
  2 13  1  0  0  0  0
  4 12  1  6  0  0  0
  4 20  1  0  0  0  0
  6  8  2  0  0  0  0
  7 15  1  6  0  0  0
  7  9  1  0  0  0  0
  8 11  1  0  0  0  0
  8 12  1  0  0  0  0
  9 14  1  6  0  0  0
  9 22  1  0  0  0  0
 10 21  1  6  0  0  0
 10  3  1  0  0  0  0
 11 28  1  1  0  0  0
 11  5  1  0  0  0  0
 13 18  2  0  0  0  0
 15 23  1  0  0  0  0
 16  2  1  0  0  0  0
 17 26  1  6  0  0  0
 17  3  1  0  0  0  0
 19  2  2  0  0  0  0
 19 26  1  0  0  0  0
 20 22  1  0  0  0  0
 20 17  1  0  0  0  0
 22 10  1  0  0  0  0
 23 14  1  0  0  0  0
 25 18  1  0  0  0  0
 26 25  2  0  0  0  0
 27 12  1  0  0  0  0
 27 24  1  0  0  0  0
 27  7  1  0  0  0  0
 29 30  1  0  0  0  0
 30 28  1  0  0  0  0
M  END
>  <MODEL>
3

>  <REMARK>
 VINA RESULT:      -7.4      2.365      5.588
  Name = 
  2 active torsions:
  status: ('A' for Active; 'I' for Inactive)
    1  A    between atoms: C_11  and  C_28
    2  A    between atoms: C_28  and  C_30
                            x       y       z     vdW  Elec       q    Type
                         _______ _______ _______ _____ _____    ______ ____

>  <TORSDO>
F 2

$$$$
=
 OpenBabel11112416123D

 30 35  0  0  1  0  0  0  0  0999 V2000
  189.2830  175.1700  143.3040 C   0  0  1  0  0  3  0  0  0  0  0  0
  187.9220  177.3420  143.4110 C   0  0  0  0  0  0  0  0  0  0  0  0
  188.1890  174.6960  139.3440 N   0  0  0  0  0  2  0  0  0  0  0  0
  190.0620  174.3540  142.2510 C   0  0  1  0  0  3  0  0  0  0  0  0
  190.1990  175.7250  144.2200 O   0  0  0  0  0  0  0  0  0  0  0  0
  192.0840  172.7590  144.8440 O   0  0  0  0  0  0  0  0  0  0  0  0
  190.5630  171.2500  141.5110 C   0  0  1  0  0  3  0  0  0  0  0  0
  191.2690  173.5390  144.2800 C   0  0  0  0  0  0  0  0  0  0  0  0
  189.8790  171.6600  140.2720 N   0  0  2  0  0  0  0  0  0  0  0  0
  188.8840  173.4980  138.9050 C   0  0  1  0  0  3  0  0  0  0  0  0
  190.6850  174.6890  145.0590 C   0  0  2  0  0  3  0  0  0  0  0  0
  190.8710  173.3200  142.9140 N   0  0  0  0  0  0  0  0  0  0  0  0
  187.0560  178.2670  142.8180 C   0  0  0  0  0  3  0  0  0  0  0  0
  190.6970  171.0880  139.2120 C   0  0  0  0  0  2  0  0  0  0  0  0
  191.3020  169.9790  141.1650 C   0  0  0  0  0  2  0  0  0  0  0  0
  188.3170  177.5490  144.7270 O   0  0  0  0  0  1  0  0  0  0  0  0
  188.2970  174.8250  140.6210 C   0  0  1  0  0  3  0  0  0  0  0  0
  186.6080  178.0800  141.5100 C   0  0  0  0  0  3  0  0  0  0  0  0
  188.3730  176.2230  142.6780 C   0  0  0  0  0  0  0  0  0  0  0  0
  189.0730  173.7490  141.2700 C   0  0  1  0  0  3  0  0  0  0  0  0
  189.7290  173.8170  137.6870 C   0  0  0  0  0  1  0  0  0  0  0  0
  189.7810  173.1130  140.0890 C   0  0  1  0  0  3  0  0  0  0  0  0
  191.3330  169.8760  139.7140 N   0  0  0  0  0  2  0  0  0  0  0  0
  192.6010  172.8340  141.2000 C   0  0  0  0  0  1  0  0  0  0  0  0
  187.0100  176.9570  140.7880 C   0  0  0  0  0  3  0  0  0  0  0  0
  187.8700  176.0180  141.3690 C   0  0  0  0  0  0  0  0  0  0  0  0
  191.5470  172.2670  142.1460 C   0  0  2  0  0  3  0  0  0  0  0  0
  189.6270  174.2070  146.0550 C   0  0  0  0  0  2  0  0  0  0  0  0
  190.9980  175.3950  147.7660 C   0  0  0  0  0  1  0  0  0  0  0  0
  189.5910  175.0970  147.2870 C   0  0  0  0  0  2  0  0  0  0  0  0
  1 19  1  6  0  0  0
  1  5  1  0  0  0  0
  2 16  1  0  0  0  0
  4 12  1  1  0  0  0
  4  1  1  0  0  0  0
  5 11  1  0  0  0  0
  7 15  1  6  0  0  0
  7 27  1  0  0  0  0
  8  6  2  0  0  0  0
  8 11  1  0  0  0  0
  9 14  1  6  0  0  0
  9  7  1  0  0  0  0
 10 21  1  6  0  0  0
 10  3  1  0  0  0  0
 10 22  1  0  0  0  0
 11 28  1  6  0  0  0
 12  8  1  0  0  0  0
 13  2  1  0  0  0  0
 14 23  1  0  0  0  0
 17  3  1  6  0  0  0
 17 20  1  0  0  0  0
 17 26  1  0  0  0  0
 18 13  2  0  0  0  0
 19  2  2  0  0  0  0
 20  4  1  0  0  0  0
 22  9  1  0  0  0  0
 22 20  1  0  0  0  0
 23 15  1  0  0  0  0
 24 27  1  0  0  0  0
 25 26  2  0  0  0  0
 25 18  1  0  0  0  0
 26 19  1  0  0  0  0
 27 12  1  0  0  0  0
 28 30  1  0  0  0  0
 30 29  1  0  0  0  0
M  END
>  <MODEL>
4

>  <REMARK>
 VINA RESULT:      -7.3      3.233      6.172
  Name = 
  2 active torsions:
  status: ('A' for Active; 'I' for Inactive)
    1  A    between atoms: C_11  and  C_28
    2  A    between atoms: C_28  and  C_30
                            x       y       z     vdW  Elec       q    Type
                         _______ _______ _______ _____ _____    ______ ____

>  <TORSDO>
F 2

$$$$
=
 OpenBabel11112416123D

 30 35  0  0  1  0  0  0  0  0999 V2000
  189.3390  176.1600  144.6990 C   0  0  1  0  0  3  0  0  0  0  0  0
  190.5960  176.7450  146.8580 C   0  0  0  0  0  0  0  0  0  0  0  0
  192.4900  173.7500  143.5330 N   0  0  0  0  0  2  0  0  0  0  0  0
  189.2450  174.9800  143.7100 C   0  0  1  0  0  3  0  0  0  0  0  0
  188.1230  176.2590  145.4070 O   0  0  0  0  0  0  0  0  0  0  0  0
  185.9340  176.0520  142.5960 O   0  0  0  0  0  0  0  0  0  0  0  0
  188.9520  174.5390  140.5230 C   0  0  1  0  0  3  0  0  0  0  0  0
  187.0000  175.9800  143.2640 C   0  0  0  0  0  0  0  0  0  0  0  0
  190.2710  173.9090  140.7080 N   0  0  2  0  0  0  0  0  0  0  0  0
  192.0630  173.1590  142.2760 C   0  0  1  0  0  3  0  0  0  0  0  0
  187.1330  176.7800  144.5350 C   0  0  2  0  0  3  0  0  0  0  0  0
  188.0980  175.1690  142.8080 N   0  0  0  0  0  0  0  0  0  0  0  0
  191.7360  176.6610  147.6630 C   0  0  0  0  0  3  0  0  0  0  0  0
  190.1760  172.6650  139.9570 C   0  0  0  0  0  2  0  0  0  0  0  0
  188.4280  174.0070  139.2100 C   0  0  0  0  0  2  0  0  0  0  0  0
  189.5280  177.5210  147.2930 O   0  0  0  0  0  1  0  0  0  0  0  0
  191.6680  174.6760  143.8860 C   0  0  1  0  0  3  0  0  0  0  0  0
  192.8430  175.9210  147.2480 C   0  0  0  0  0  3  0  0  0  0  0  0
  190.5460  176.0570  145.6260 C   0  0  0  0  0  0  0  0  0  0  0  0
  190.5510  174.8800  142.9410 C   0  0  1  0  0  3  0  0  0  0  0  0
  192.1330  171.6480  142.3740 C   0  0  0  0  0  1  0  0  0  0  0  0
  190.6080  173.6150  142.1060 C   0  0  1  0  0  3  0  0  0  0  0  0
  189.2430  172.8550  138.8520 N   0  0  0  0  0  2  0  0  0  0  0  0
  187.6630  172.8530  142.0250 C   0  0  0  0  0  1  0  0  0  0  0  0
  192.8260  175.2710  146.0160 C   0  0  0  0  0  3  0  0  0  0  0  0
  191.6960  175.3510  145.1930 C   0  0  0  0  0  0  0  0  0  0  0  0
  187.8950  174.3100  141.6350 C   0  0  2  0  0  3  0  0  0  0  0  0
  187.3480  178.2660  144.2380 C   0  0  0  0  0  2  0  0  0  0  0  0
  185.6350  179.0240  145.8850 C   0  0  0  0  0  1  0  0  0  0  0  0
  186.0620  179.0540  144.4300 C   0  0  0  0  0  2  0  0  0  0  0  0
  1  5  1  1  0  0  0
  1 19  1  0  0  0  0
  2 16  1  0  0  0  0
  2 13  1  0  0  0  0
  4 12  1  6  0  0  0
  4  1  1  0  0  0  0
  6  8  2  0  0  0  0
  7 15  1  6  0  0  0
  7  9  1  0  0  0  0
  7 27  1  0  0  0  0
  8 11  1  0  0  0  0
  9 14  1  6  0  0  0
  9 22  1  0  0  0  0
 10 21  1  1  0  0  0
 10  3  1  0  0  0  0
 11 28  1  6  0  0  0
 11  5  1  0  0  0  0
 12  8  1  0  0  0  0
 17  3  1  1  0  0  0
 17 26  1  0  0  0  0
 18 13  2  0  0  0  0
 19  2  2  0  0  0  0
 20  4  1  0  0  0  0
 20 17  1  0  0  0  0
 22 10  1  0  0  0  0
 22 20  1  0  0  0  0
 23 15  1  0  0  0  0
 23 14  1  0  0  0  0
 25 18  1  0  0  0  0
 26 19  1  0  0  0  0
 26 25  2  0  0  0  0
 27 24  1  0  0  0  0
 27 12  1  0  0  0  0
 28 30  1  0  0  0  0
 30 29  1  0  0  0  0
M  END
>  <MODEL>
5

>  <REMARK>
 VINA RESULT:      -7.2      2.315      4.923
  Name = 
  2 active torsions:
  status: ('A' for Active; 'I' for Inactive)
    1  A    between atoms: C_11  and  C_28
    2  A    between atoms: C_28  and  C_30
                            x       y       z     vdW  Elec       q    Type
                         _______ _______ _______ _____ _____    ______ ____

>  <TORSDO>
F 2

$$$$
=
 OpenBabel11112416123D

 30 35  0  0  1  0  0  0  0  0999 V2000
  189.7670  175.9640  143.9980 C   0  0  1  0  0  3  0  0  0  0  0  0
  189.5250  177.1110  146.2800 C   0  0  0  0  0  0  0  0  0  0  0  0
  193.1610  174.0250  145.3470 N   0  0  0  0  0  2  0  0  0  0  0  0
  190.3290  174.6450  143.4300 C   0  0  1  0  0  3  0  0  0  0  0  0
  188.3620  175.9480  143.8820 O   0  0  0  0  0  0  0  0  0  0  0  0
  188.1900  174.8920  140.4780 O   0  0  0  0  0  0  0  0  0  0  0  0
  191.9390  173.6520  140.8110 C   0  0  1  0  0  3  0  0  0  0  0  0
  188.6850  175.1270  141.6130 C   0  0  0  0  0  0  0  0  0  0  0  0
  192.9510  173.3150  141.8280 N   0  0  2  0  0  0  0  0  0  0  0  0
  193.5680  173.1720  144.2420 C   0  0  1  0  0  3  0  0  0  0  0  0
  188.0180  176.1310  142.5180 C   0  0  2  0  0  3  0  0  0  0  0  0
  189.8950  174.4710  142.0360 N   0  0  0  0  0  0  0  0  0  0  0  0
  190.0030  177.3690  147.5690 C   0  0  0  0  0  3  0  0  0  0  0  0
  193.3800  171.9720  141.4660 C   0  0  0  0  0  2  0  0  0  0  0  0
  192.2930  172.8280  139.5950 C   0  0  0  0  0  2  0  0  0  0  0  0
  188.3550  177.7340  145.8660 O   0  0  0  0  0  1  0  0  0  0  0  0
  192.2290  174.8270  144.9630 C   0  0  1  0  0  3  0  0  0  0  0  0
  191.1920  176.7910  148.0140 C   0  0  0  0  0  3  0  0  0  0  0  0
  190.2320  176.2370  145.4250 C   0  0  0  0  0  0  0  0  0  0  0  0
  191.8430  174.6660  143.5470 C   0  0  1  0  0  3  0  0  0  0  0  0
  193.6620  171.7350  144.7170 C   0  0  0  0  0  1  0  0  0  0  0  0
  192.4460  173.3170  143.2060 C   0  0  1  0  0  3  0  0  0  0  0  0
  193.2360  171.8060  140.0250 N   0  0  0  0  0  2  0  0  0  0  0  0
  190.1300  172.0200  141.7180 C   0  0  0  0  0  1  0  0  0  0  0  0
  191.9230  175.9600  147.1660 C   0  0  0  0  0  3  0  0  0  0  0  0
  191.4640  175.6960  145.8700 C   0  0  0  0  0  0  0  0  0  0  0  0
  190.4520  173.4120  141.1850 C   0  0  2  0  0  3  0  0  0  0  0  0
  188.2710  177.5630  142.0440 C   0  0  0  0  0  2  0  0  0  0  0  0
  186.3140  178.7150  143.0740 C   0  0  0  0  0  1  0  0  0  0  0  0
  186.9640  178.2890  141.7710 C   0  0  0  0  0  2  0  0  0  0  0  0
  1  5  1  1  0  0  0
  1 19  1  0  0  0  0
  2 13  1  0  0  0  0
  4 12  1  6  0  0  0
  4 20  1  0  0  0  0
  4  1  1  0  0  0  0
  6  8  2  0  0  0  0
  7 15  1  6  0  0  0
  7 27  1  0  0  0  0
  7  9  1  0  0  0  0
  8 12  1  0  0  0  0
  8 11  1  0  0  0  0
  9 14  1  6  0  0  0
  9 22  1  0  0  0  0
 10 21  1  1  0  0  0
 10  3  1  0  0  0  0
 11 28  1  6  0  0  0
 11  5  1  0  0  0  0
 13 18  2  0  0  0  0
 15 23  1  0  0  0  0
 16  2  1  0  0  0  0
 17  3  1  1  0  0  0
 17 26  1  0  0  0  0
 19 26  1  0  0  0  0
 19  2  2  0  0  0  0
 20 17  1  0  0  0  0
 22 20  1  0  0  0  0
 22 10  1  0  0  0  0
 23 14  1  0  0  0  0
 25 18  1  0  0  0  0
 26 25  2  0  0  0  0
 27 24  1  0  0  0  0
 27 12  1  0  0  0  0
 30 28  1  0  0  0  0
 30 29  1  0  0  0  0
M  END
>  <MODEL>
6

>  <REMARK>
 VINA RESULT:      -6.7      2.466      4.051
  Name = 
  2 active torsions:
  status: ('A' for Active; 'I' for Inactive)
    1  A    between atoms: C_11  and  C_28
    2  A    between atoms: C_28  and  C_30
                            x       y       z     vdW  Elec       q    Type
                         _______ _______ _______ _____ _____    ______ ____

>  <TORSDO>
F 2

$$$$
=
 OpenBabel11112416123D

 30 35  0  0  1  0  0  0  0  0999 V2000
  190.5830  175.5390  143.7270 C   0  0  1  0  0  3  0  0  0  0  0  0
  188.7050  177.0410  144.6210 C   0  0  0  0  0  0  0  0  0  0  0  0
  188.1190  174.3190  140.6380 N   0  0  0  0  0  2  0  0  0  0  0  0
  191.0590  174.9810  142.3700 C   0  0  1  0  0  3  0  0  0  0  0  0
  191.5260  176.4810  144.1880 O   0  0  0  0  0  0  0  0  0  0  0  0
  194.4520  174.5120  143.6430 O   0  0  0  0  0  0  0  0  0  0  0  0
  192.3070  172.2370  141.2090 C   0  0  1  0  0  3  0  0  0  0  0  0
  193.2460  174.8720  143.5710 C   0  0  0  0  0  0  0  0  0  0  0  0
  191.0480  172.2420  140.4440 N   0  0  2  0  0  0  0  0  0  0  0  0
  188.9420  173.4340  139.8310 C   0  0  1  0  0  3  0  0  0  0  0  0
  192.6820  175.7870  144.6280 C   0  0  2  0  0  3  0  0  0  0  0  0
  192.4000  174.3930  142.5100 N   0  0  0  0  0  0  0  0  0  0  0  0
  187.3900  177.5130  144.5590 C   0  0  0  0  0  3  0  0  0  0  0  0
  191.4610  171.9220  139.0850 C   0  0  0  0  0  2  0  0  0  0  0  0
  193.2350  171.3100  140.4590 C   0  0  0  0  0  2  0  0  0  0  0  0
  189.5320  177.5030  145.6380 O   0  0  0  0  0  1  0  0  0  0  0  0
  188.7240  174.5980  141.7410 C   0  0  1  0  0  3  0  0  0  0  0  0
  186.5170  177.0490  143.5740 C   0  0  0  0  0  3  0  0  0  0  0  0
  189.1700  176.1100  143.6670 C   0  0  0  0  0  0  0  0  0  0  0  0
  190.0480  173.9590  141.8790 C   0  0  1  0  0  3  0  0  0  0  0  0
  188.9710  173.9310  138.3990 C   0  0  0  0  0  1  0  0  0  0  0  0
  190.3410  173.5280  140.4550 C   0  0  1  0  0  3  0  0  0  0  0  0
  192.6570  171.0910  139.1420 N   0  0  0  0  0  2  0  0  0  0  0  0
  193.2330  174.4330  140.1710 C   0  0  0  0  0  1  0  0  0  0  0  0
  186.9480  176.0970  142.6510 C   0  0  0  0  0  3  0  0  0  0  0  0
  188.2580  175.6090  142.7040 C   0  0  0  0  0  0  0  0  0  0  0  0
  193.0070  173.6040  141.4310 C   0  0  2  0  0  3  0  0  0  0  0  0
  192.4440  175.0390  145.9420 C   0  0  0  0  0  2  0  0  0  0  0  0
  191.1660  175.5270  148.0270 C   0  0  0  0  0  1  0  0  0  0  0  0
  192.2640  176.0090  147.0990 C   0  0  0  0  0  2  0  0  0  0  0  0
  1 19  1  6  0  0  0
  1  5  1  0  0  0  0
  2 16  1  0  0  0  0
  4 12  1  1  0  0  0
  4  1  1  0  0  0  0
  5 11  1  0  0  0  0
  7 15  1  6  0  0  0
  7 27  1  0  0  0  0
  8  6  2  0  0  0  0
  8 11  1  0  0  0  0
  9 14  1  6  0  0  0
  9 22  1  0  0  0  0
  9  7  1  0  0  0  0
 10 21  1  6  0  0  0
 10 22  1  0  0  0  0
 10  3  1  0  0  0  0
 11 28  1  1  0  0  0
 12  8  1  0  0  0  0
 13  2  1  0  0  0  0
 14 23  1  0  0  0  0
 17  3  1  6  0  0  0
 17 20  1  0  0  0  0
 17 26  1  0  0  0  0
 18 13  2  0  0  0  0
 19  2  2  0  0  0  0
 20  4  1  0  0  0  0
 22 20  1  0  0  0  0
 23 15  1  0  0  0  0
 24 27  1  0  0  0  0
 25 26  2  0  0  0  0
 25 18  1  0  0  0  0
 26 19  1  0  0  0  0
 27 12  1  0  0  0  0
 28 30  1  0  0  0  0
 30 29  1  0  0  0  0
M  END
>  <MODEL>
7

>  <REMARK>
 VINA RESULT:      -6.7      3.117      6.103
  Name = 
  2 active torsions:
  status: ('A' for Active; 'I' for Inactive)
    1  A    between atoms: C_11  and  C_28
    2  A    between atoms: C_28  and  C_30
                            x       y       z     vdW  Elec       q    Type
                         _______ _______ _______ _____ _____    ______ ____

>  <TORSDO>
F 2

$$$$
=
 OpenBabel11112416123D

 30 35  0  0  1  0  0  0  0  0999 V2000
  190.1420  174.6560  143.4760 C   0  0  1  0  0  3  0  0  0  0  0  0
  192.4970  173.6460  143.3590 C   0  0  0  0  0  0  0  0  0  0  0  0
  190.9310  176.0150  147.3020 N   0  0  0  0  0  2  0  0  0  0  0  0
  189.4340  175.8380  144.1710 C   0  0  1  0  0  3  0  0  0  0  0  0
  190.2080  174.9140  142.0920 O   0  0  0  0  0  0  0  0  0  0  0  0
  186.8000  175.8720  141.6380 O   0  0  0  0  0  0  0  0  0  0  0  0
  186.5770  176.4470  145.5520 C   0  0  1  0  0  3  0  0  0  0  0  0
  187.8730  175.5910  142.2360 C   0  0  0  0  0  0  0  0  0  0  0  0
  187.4340  176.6340  146.7350 N   0  0  2  0  0  0  0  0  0  0  0  0
  189.7380  176.7470  147.6920 C   0  0  1  0  0  3  0  0  0  0  0  0
  188.9120  174.7500  141.5390 C   0  0  2  0  0  3  0  0  0  0  0  0
  188.1000  176.0390  143.5850 N   0  0  0  0  0  0  0  0  0  0  0  0
  193.7260  173.3500  143.9570 C   0  0  0  0  0  3  0  0  0  0  0  0
  186.9460  177.8700  147.3320 C   0  0  0  0  0  2  0  0  0  0  0  0
  185.2820  177.1550  145.8710 C   0  0  0  0  0  2  0  0  0  0  0  0
  192.2730  173.2230  142.0540 O   0  0  0  0  0  1  0  0  0  0  0  0
  190.7160  175.3760  146.2040 C   0  0  1  0  0  3  0  0  0  0  0  0
  193.9810  173.7260  145.2760 C   0  0  0  0  0  3  0  0  0  0  0  0
  191.5110  174.3540  144.0790 C   0  0  0  0  0  0  0  0  0  0  0  0
  189.3550  175.5550  145.6610 C   0  0  1  0  0  3  0  0  0  0  0  0
  190.1150  178.1600  148.0920 C   0  0  0  0  0  1  0  0  0  0  0  0
  188.8640  176.7660  146.4310 C   0  0  1  0  0  3  0  0  0  0  0  0
  185.5280  178.0100  147.0230 N   0  0  0  0  0  2  0  0  0  0  0  0
  187.6170  178.4000  144.1860 C   0  0  0  0  0  1  0  0  0  0  0  0
  193.0010  174.3880  146.0150 C   0  0  0  0  0  3  0  0  0  0  0  0
  191.7620  174.6850  145.4340 C   0  0  0  0  0  0  0  0  0  0  0  0
  187.1260  176.9550  144.1920 C   0  0  2  0  0  3  0  0  0  0  0  0
  188.4900  173.2810  141.4790 C   0  0  0  0  0  2  0  0  0  0  0  0
  188.5130  173.9690  139.0820 C   0  0  0  0  0  1  0  0  0  0  0  0
  188.3760  172.8020  140.0410 C   0  0  0  0  0  2  0  0  0  0  0  0
  1  5  1  6  0  0  0
  1 19  1  0  0  0  0
  1  4  1  0  0  0  0
  2 13  2  0  0  0  0
  2 19  1  0  0  0  0
  3 10  1  0  0  0  0
  4 12  1  6  0  0  0
  4 20  1  0  0  0  0
  6  8  2  0  0  0  0
  7 15  1  1  0  0  0
  7  9  1  0  0  0  0
  8 12  1  0  0  0  0
  9 14  1  6  0  0  0
 10 21  1  6  0  0  0
 11 28  1  1  0  0  0
 11  5  1  0  0  0  0
 11  8  1  0  0  0  0
 12 27  1  0  0  0  0
 13 18  1  0  0  0  0
 15 23  1  0  0  0  0
 16  2  1  0  0  0  0
 17 26  1  6  0  0  0
 17  3  1  0  0  0  0
 18 25  2  0  0  0  0
 19 26  2  0  0  0  0
 20 17  1  0  0  0  0
 20 22  1  0  0  0  0
 22  9  1  0  0  0  0
 22 10  1  0  0  0  0
 23 14  1  0  0  0  0
 24 27  1  0  0  0  0
 26 25  1  0  0  0  0
 27  7  1  0  0  0  0
 29 30  1  0  0  0  0
 30 28  1  0  0  0  0
M  END
>  <MODEL>
8

>  <REMARK>
 VINA RESULT:      -6.7      2.194      5.773
  Name = 
  2 active torsions:
  status: ('A' for Active; 'I' for Inactive)
    1  A    between atoms: C_11  and  C_28
    2  A    between atoms: C_28  and  C_30
                            x       y       z     vdW  Elec       q    Type
                         _______ _______ _______ _____ _____    ______ ____

>  <TORSDO>
F 2

$$$$
=
 OpenBabel11112416123D

 30 35  0  0  1  0  0  0  0  0999 V2000
  190.3300  174.6920  142.4320 C   0  0  1  0  0  3  0  0  0  0  0  0
  188.1350  175.8140  143.1420 C   0  0  0  0  0  0  0  0  0  0  0  0
  192.3900  177.0420  145.1400 N   0  0  0  0  0  2  0  0  0  0  0  0
  191.6970  174.3480  143.0570 C   0  0  1  0  0  3  0  0  0  0  0  0
  189.6190  173.4970  142.2030 O   0  0  0  0  0  0  0  0  0  0  0  0
  192.2540  171.6890  140.6130 O   0  0  0  0  0  0  0  0  0  0  0  0
  194.8010  174.2990  142.1630 C   0  0  1  0  0  3  0  0  0  0  0  0
  191.6830  172.5960  141.2780 C   0  0  0  0  0  0  0  0  0  0  0  0
  194.8960  175.3230  143.2170 N   0  0  2  0  0  0  0  0  0  0  0  0
  193.7710  176.5990  145.0440 C   0  0  1  0  0  3  0  0  0  0  0  0
  190.2040  172.8260  141.0990 C   0  0  2  0  0  3  0  0  0  0  0  0
  192.4360  173.4290  142.1780 N   0  0  0  0  0  0  0  0  0  0  0  0
  187.4440  176.7700  143.8930 C   0  0  0  0  0  3  0  0  0  0  0  0
  196.0690  174.9300  143.9860 C   0  0  0  0  0  2  0  0  0  0  0  0
  196.2090  173.7880  141.9640 C   0  0  0  0  0  2  0  0  0  0  0  0
  187.4150  175.0010  142.2750 O   0  0  0  0  0  1  0  0  0  0  0  0
  191.6930  176.5170  144.1930 C   0  0  1  0  0  3  0  0  0  0  0  0
  188.1310  177.6310  144.7500 C   0  0  0  0  0  3  0  0  0  0  0  0
  189.5360  175.6930  143.2660 C   0  0  0  0  0  0  0  0  0  0  0  0
  192.4660  175.6360  143.2950 C   0  0  1  0  0  3  0  0  0  0  0  0
  194.2670  176.1800  146.4150 C   0  0  0  0  0  1  0  0  0  0  0  0
  193.7270  175.3900  144.1020 C   0  0  1  0  0  3  0  0  0  0  0  0
  196.9980  174.2370  143.1020 N   0  0  0  0  0  2  0  0  0  0  0  0
  194.0470  172.3830  143.7520 C   0  0  0  0  0  1  0  0  0  0  0  0
  189.5190  177.5520  144.8520 C   0  0  0  0  0  3  0  0  0  0  0  0
  190.2270  176.6060  144.1010 C   0  0  0  0  0  0  0  0  0  0  0  0
  193.8470  173.1030  142.4210 C   0  0  2  0  0  3  0  0  0  0  0  0
  189.9070  173.5280  139.7710 C   0  0  0  0  0  2  0  0  0  0  0  0
  188.1320  174.1530  138.1350 C   0  0  0  0  0  1  0  0  0  0  0  0
  188.4680  173.2950  139.3390 C   0  0  0  0  0  2  0  0  0  0  0  0
  1  5  1  1  0  0  0
  1  4  1  0  0  0  0
  1 19  1  0  0  0  0
  2 19  2  0  0  0  0
  2 13  1  0  0  0  0
  4 12  1  6  0  0  0
  4 20  1  0  0  0  0
  6  8  2  0  0  0  0
  7 15  1  1  0  0  0
  7 27  1  0  0  0  0
  7  9  1  0  0  0  0
  8 12  1  0  0  0  0
  9 14  1  1  0  0  0
  9 22  1  0  0  0  0
 10  3  1  0  0  0  0
 10 21  1  1  0  0  0
 11 28  1  6  0  0  0
 11  8  1  0  0  0  0
 11  5  1  0  0  0  0
 12 27  1  0  0  0  0
 13 18  2  0  0  0  0
 15 23  1  0  0  0  0
 16  2  1  0  0  0  0
 17 26  1  1  0  0  0
 17  3  1  0  0  0  0
 18 25  1  0  0  0  0
 19 26  1  0  0  0  0
 20 22  1  0  0  0  0
 20 17  1  0  0  0  0
 22 10  1  0  0  0  0
 23 14  1  0  0  0  0
 26 25  2  0  0  0  0
 27 24  1  0  0  0  0
 29 30  1  0  0  0  0
 30 28  1  0  0  0  0
M  END
>  <MODEL>
9

>  <REMARK>
 VINA RESULT:      -6.6      2.791      4.521
  Name = 
  2 active torsions:
  status: ('A' for Active; 'I' for Inactive)
    1  A    between atoms: C_11  and  C_28
    2  A    between atoms: C_28  and  C_30
                            x       y       z     vdW  Elec       q    Type
                         _______ _______ _______ _____ _____    ______ ____

>  <TORSDO>
F 2

$$$$
