=
 OpenBabel11112417373D

 28 31  0  0  1  0  0  0  0  0999 V2000
  187.1720  177.7590  145.2550 C   0  0  0  0  0  0  0  0  0  0  0  0
  190.3130  177.9890  147.5120 O   0  0  0  0  0  0  0  0  0  0  0  0
  186.5110  176.2550  147.5210 C   0  0  0  0  0  3  0  0  0  0  0  0
  187.4440  178.4440  144.0720 O   0  0  0  0  0  0  0  0  0  0  0  0
  190.2560  175.5420  147.8520 O   0  0  0  0  0  0  0  0  0  0  0  0
  190.8490  176.6640  147.0460 S   0  0  0  0  0  0  0  0  0  0  0  0
  193.1900  175.4030  146.4250 C   0  0  2  0  0  3  0  0  0  0  0  0
  190.5770  176.4490  145.3480 N   0  0  1  0  0  0  0  0  0  0  0  0
  187.3010  177.4540  140.4340 C   0  0  0  0  0  1  0  0  0  0  0  0
  189.0750  175.2150  143.8730 C   0  0  2  0  0  3  0  0  0  0  0  0
  192.6800  175.2920  144.9780 C   0  0  0  0  0  2  0  0  0  0  0  0
  192.6280  176.6150  147.1880 C   0  0  0  0  0  2  0  0  0  0  0  0
  187.9320  177.7930  141.7740 C   0  0  2  0  0  3  0  0  0  0  0  0
  188.0210  176.7250  145.6810 C   0  0  0  0  0  0  0  0  0  0  0  0
  194.5820  175.4580  146.4260 O   0  0  0  0  0  1  0  0  0  0  0  0
  188.9700  176.8880  142.1130 O   0  0  0  0  0  0  0  0  0  0  0  0
  187.6610  175.9480  146.7890 C   0  0  0  0  0  3  0  0  0  0  0  0
  186.0240  178.0700  145.9940 C   0  0  0  0  0  3  0  0  0  0  0  0
  185.6990  177.3240  147.1310 C   0  0  0  0  0  3  0  0  0  0  0  0
  186.8610  178.0030  142.8540 C   0  0  0  0  0  2  0  0  0  0  0  0
  190.5100  174.7330  143.6980 C   0  0  1  0  0  3  0  0  0  0  0  0
  188.4200  175.6660  142.5560 C   0  0  1  0  0  3  0  0  0  0  0  0
  191.1610  175.1700  144.9970 C   0  0  2  0  0  3  0  0  0  0  0  0
  189.2080  176.3900  144.8250 C   0  0  1  0  0  3  0  0  0  0  0  0
  187.5200  173.7880  141.8050 C   0  0  0  0  0  1  0  0  0  0  0  0
  188.5590  174.6880  141.5670 O   0  0  0  0  0  0  0  0  0  0  0  0
  190.5280  173.2180  143.5710 C   0  0  0  0  0  2  0  0  0  0  0  0
  189.8370  172.5790  144.7610 C   0  0  0  0  0  1  0  0  0  0  0  0
  1 14  2  0  0  0  0
  1 18  1  0  0  0  0
  4  1  1  0  0  0  0
  6 12  1  0  0  0  0
  6  2  2  0  0  0  0
  6  5  2  0  0  0  0
  7 15  1  6  0  0  0
  7 12  1  0  0  0  0
  8  6  1  1  0  0  0
  9 13  1  0  0  0  0
 10 24  1  0  0  0  0
 11 23  1  0  0  0  0
 11  7  1  0  0  0  0
 13 16  1  0  0  0  0
 13 20  1  0  0  0  0
 14 17  1  0  0  0  0
 16 22  1  0  0  0  0
 17  3  2  0  0  0  0
 18 19  2  0  0  0  0
 19  3  1  0  0  0  0
 20  4  1  0  0  0  0
 21 10  1  0  0  0  0
 21 23  1  0  0  0  0
 22 10  1  0  0  0  0
 23  8  1  0  0  0  0
 24  8  1  0  0  0  0
 24 14  1  0  0  0  0
 26 25  1  0  0  0  0
 26 22  1  0  0  0  0
 27 21  1  0  0  0  0
 27 28  1  0  0  0  0
M  END
>  <MODEL>
1

>  <REMARK>
 VINA RESULT:      -7.4      0.000      0.000
  Name = 
  2 active torsions:
  status: ('A' for Active; 'I' for Inactive)
    1  A    between atoms: C_5  and  C_24
    2  A    between atoms: O_17  and  C_25
                            x       y       z     vdW  Elec       q    Type
                         _______ _______ _______ _____ _____    ______ ____

>  <TORSDO>
F 2

$$$$
=
 OpenBabel11112417373D

 28 31  0  0  1  0  0  0  0  0999 V2000
  191.5710  173.9810  142.9540 C   0  0  0  0  0  0  0  0  0  0  0  0
  188.6870  175.2090  140.6770 O   0  0  0  0  0  0  0  0  0  0  0  0
  189.7980  171.8180  142.8520 C   0  0  0  0  0  3  0  0  0  0  0  0
  192.4780  175.0300  143.0990 O   0  0  0  0  0  0  0  0  0  0  0  0
  187.0330  174.4120  142.3310 O   0  0  0  0  0  0  0  0  0  0  0  0
  187.8190  175.5960  141.8410 S   0  0  0  0  0  0  0  0  0  0  0  0
  186.0390  177.5070  142.6400 C   0  0  2  0  0  3  0  0  0  0  0  0
  188.7650  176.3080  143.1080 N   0  0  1  0  0  0  0  0  0  0  0  0
  193.9260  176.7800  146.1130 C   0  0  0  0  0  1  0  0  0  0  0  0
  189.6680  175.6920  145.2890 C   0  0  2  0  0  3  0  0  0  0  0  0
  187.0480  177.9110  143.7280 C   0  0  0  0  0  2  0  0  0  0  0  0
  186.6920  176.9030  141.3850 C   0  0  0  0  0  2  0  0  0  0  0  0
  193.0450  176.5850  144.8890 C   0  0  2  0  0  3  0  0  0  0  0  0
  190.2190  174.1690  143.2800 C   0  0  0  0  0  0  0  0  0  0  0  0
  185.2740  178.6140  142.2790 O   0  0  0  0  0  1  0  0  0  0  0  0
  191.7110  177.0010  145.1280 O   0  0  0  0  0  0  0  0  0  0  0  0
  189.3480  173.0730  143.2700 C   0  0  0  0  0  3  0  0  0  0  0  0
  192.0200  172.7250  142.5280 C   0  0  0  0  0  3  0  0  0  0  0  0
  191.1320  171.6470  142.4690 C   0  0  0  0  0  3  0  0  0  0  0  0
  193.2020  175.1710  144.3140 C   0  0  0  0  0  2  0  0  0  0  0  0
  188.6440  176.8120  145.4330 C   0  0  1  0  0  3  0  0  0  0  0  0
  191.0350  176.0350  145.9060 C   0  0  1  0  0  3  0  0  0  0  0  0
  187.8350  176.6780  144.1570 C   0  0  2  0  0  3  0  0  0  0  0  0
  189.7970  175.5180  143.7860 C   0  0  1  0  0  3  0  0  0  0  0  0
  191.1150  175.3640  148.0150 C   0  0  0  0  0  1  0  0  0  0  0  0
  190.8920  176.4890  147.2200 O   0  0  0  0  0  0  0  0  0  0  0  0
  187.7730  176.5530  146.6520 C   0  0  0  0  0  2  0  0  0  0  0  0
  187.2730  177.8620  147.2340 C   0  0  0  0  0  1  0  0  0  0  0  0
  1  4  1  0  0  0  0
  1 14  1  0  0  0  0
  2  6  2  0  0  0  0
  3 17  1  0  0  0  0
  4 20  1  0  0  0  0
  6  5  2  0  0  0  0
  7 15  1  6  0  0  0
  7 11  1  0  0  0  0
  8  6  1  6  0  0  0
  8 24  1  0  0  0  0
  8 23  1  0  0  0  0
 10 21  1  0  0  0  0
 10 22  1  0  0  0  0
 11 23  1  0  0  0  0
 12  6  1  0  0  0  0
 12  7  1  0  0  0  0
 13 16  1  0  0  0  0
 13  9  1  0  0  0  0
 14 24  1  0  0  0  0
 16 22  1  0  0  0  0
 17 14  2  0  0  0  0
 18  1  2  0  0  0  0
 19 18  1  0  0  0  0
 19  3  2  0  0  0  0
 20 13  1  0  0  0  0
 21 27  1  0  0  0  0
 22 26  1  0  0  0  0
 23 21  1  0  0  0  0
 24 10  1  0  0  0  0
 26 25  1  0  0  0  0
 27 28  1  0  0  0  0
M  END
>  <MODEL>
2

>  <REMARK>
 VINA RESULT:      -7.1      2.075      6.436
  Name = 
  2 active torsions:
  status: ('A' for Active; 'I' for Inactive)
    1  A    between atoms: C_5  and  C_24
    2  A    between atoms: O_17  and  C_25
                            x       y       z     vdW  Elec       q    Type
                         _______ _______ _______ _____ _____    ______ ____

>  <TORSDO>
F 2

$$$$
=
 OpenBabel11112417373D

 28 31  0  0  1  0  0  0  0  0999 V2000
  188.8020  176.6880  145.6530 C   0  0  0  0  0  0  0  0  0  0  0  0
  192.4510  176.9050  146.9380 O   0  0  0  0  0  0  0  0  0  0  0  0
  189.0350  174.5520  147.4440 C   0  0  0  0  0  3  0  0  0  0  0  0
  188.6220  177.6960  144.7060 O   0  0  0  0  0  0  0  0  0  0  0  0
  192.7480  174.4870  146.5220 O   0  0  0  0  0  0  0  0  0  0  0  0
  192.9440  175.8700  145.9660 S   0  0  0  0  0  0  0  0  0  0  0  0
  195.0890  175.2730  144.3850 C   0  0  2  0  0  3  0  0  0  0  0  0
  192.1790  176.0580  144.4220 N   0  0  1  0  0  0  0  0  0  0  0  0
  187.4510  177.6770  141.1190 C   0  0  0  0  0  1  0  0  0  0  0  0
  190.4240  174.9920  143.1040 C   0  0  2  0  0  3  0  0  0  0  0  0
  194.1680  175.4480  143.1660 C   0  0  0  0  0  2  0  0  0  0  0  0
  194.6740  176.1180  145.6010 C   0  0  0  0  0  2  0  0  0  0  0  0
  188.4320  177.7680  142.2770 C   0  0  2  0  0  3  0  0  0  0  0  0
  189.8410  175.7570  145.4990 C   0  0  0  0  0  0  0  0  0  0  0  0
  196.4000  175.5840  144.0280 O   0  0  0  0  0  1  0  0  0  0  0  0
  189.6080  177.0150  142.0320 O   0  0  0  0  0  0  0  0  0  0  0  0
  189.9240  174.6650  146.3720 C   0  0  0  0  0  3  0  0  0  0  0  0
  187.9170  176.5770  146.7320 C   0  0  0  0  0  3  0  0  0  0  0  0
  188.0390  175.5140  147.6320 C   0  0  0  0  0  3  0  0  0  0  0  0
  187.7360  177.4860  143.6160 C   0  0  0  0  0  2  0  0  0  0  0  0
  191.7740  174.8480  142.4110 C   0  0  1  0  0  3  0  0  0  0  0  0
  189.3500  175.6400  142.2140 C   0  0  1  0  0  3  0  0  0  0  0  0
  192.7500  175.0460  143.5550 C   0  0  2  0  0  3  0  0  0  0  0  0
  190.7290  175.8820  144.2950 C   0  0  1  0  0  3  0  0  0  0  0  0
  188.3130  173.9960  141.1520 C   0  0  0  0  0  1  0  0  0  0  0  0
  189.2700  174.9960  140.9760 O   0  0  0  0  0  0  0  0  0  0  0  0
  191.9030  173.4480  141.8310 C   0  0  0  0  0  2  0  0  0  0  0  0
  191.3530  172.4200  142.8010 C   0  0  0  0  0  1  0  0  0  0  0  0
  1 18  1  0  0  0  0
  3 19  1  0  0  0  0
  4  1  1  0  0  0  0
  6  5  2  0  0  0  0
  6  2  2  0  0  0  0
  7 15  1  6  0  0  0
  7 12  1  0  0  0  0
  8  6  1  1  0  0  0
  9 13  1  0  0  0  0
 10 24  1  0  0  0  0
 11 23  1  0  0  0  0
 11  7  1  0  0  0  0
 12  6  1  0  0  0  0
 13 20  1  0  0  0  0
 14  1  2  0  0  0  0
 14 17  1  0  0  0  0
 16 22  1  0  0  0  0
 16 13  1  0  0  0  0
 17  3  2  0  0  0  0
 18 19  2  0  0  0  0
 20  4  1  0  0  0  0
 21 10  1  0  0  0  0
 21 23  1  0  0  0  0
 22 10  1  0  0  0  0
 23  8  1  0  0  0  0
 24  8  1  0  0  0  0
 24 14  1  0  0  0  0
 26 25  1  0  0  0  0
 26 22  1  0  0  0  0
 27 21  1  0  0  0  0
 27 28  1  0  0  0  0
M  END
>  <MODEL>
3

>  <REMARK>
 VINA RESULT:      -6.8      1.696      2.129
  Name = 
  2 active torsions:
  status: ('A' for Active; 'I' for Inactive)
    1  A    between atoms: C_5  and  C_24
    2  A    between atoms: O_17  and  C_25
                            x       y       z     vdW  Elec       q    Type
                         _______ _______ _______ _____ _____    ______ ____

>  <TORSDO>
F 2

$$$$
=
 OpenBabel11112417373D

 28 31  0  0  1  0  0  0  0  0999 V2000
  190.7660  177.0180  145.8970 C   0  0  0  0  0  0  0  0  0  0  0  0
  194.6020  177.4230  145.5240 O   0  0  0  0  0  0  0  0  0  0  0  0
  191.8380  175.0570  147.5810 C   0  0  0  0  0  3  0  0  0  0  0  0
  190.1550  177.9330  145.0400 O   0  0  0  0  0  0  0  0  0  0  0  0
  194.8340  174.9830  145.2010 O   0  0  0  0  0  0  0  0  0  0  0  0
  194.7060  176.3140  144.5140 S   0  0  0  0  0  0  0  0  0  0  0  0
  196.0330  175.6200  142.2310 C   0  0  2  0  0  3  0  0  0  0  0  0
  193.3610  176.3460  143.4210 N   0  0  1  0  0  0  0  0  0  0  0  0
  187.6070  177.5670  142.2810 C   0  0  0  0  0  1  0  0  0  0  0  0
  191.2800  175.1320  143.0370 C   0  0  2  0  0  3  0  0  0  0  0  0
  194.6820  175.6660  141.4980 C   0  0  0  0  0  2  0  0  0  0  0  0
  196.1130  176.5630  143.4440 C   0  0  0  0  0  2  0  0  0  0  0  0
  188.9730  177.7810  142.9140 C   0  0  2  0  0  3  0  0  0  0  0  0
  191.6980  176.0970  145.3930 C   0  0  0  0  0  0  0  0  0  0  0  0
  197.0590  175.9230  141.3380 O   0  0  0  0  0  1  0  0  0  0  0  0
  189.9820  177.0330  142.2570 O   0  0  0  0  0  0  0  0  0  0  0  0
  192.1960  175.0910  146.2300 C   0  0  0  0  0  3  0  0  0  0  0  0
  190.4150  176.9870  147.2520 C   0  0  0  0  0  3  0  0  0  0  0  0
  190.9570  176.0130  148.0950 C   0  0  0  0  0  3  0  0  0  0  0  0
  188.9100  177.6080  144.4380 C   0  0  0  0  0  2  0  0  0  0  0  0
  192.2270  174.9520  141.8570 C   0  0  1  0  0  3  0  0  0  0  0  0
  189.8990  175.6750  142.6310 C   0  0  1  0  0  3  0  0  0  0  0  0
  193.5770  175.2720  142.4720 C   0  0  2  0  0  3  0  0  0  0  0  0
  192.0010  176.1320  143.9230 C   0  0  1  0  0  3  0  0  0  0  0  0
  188.5490  173.9680  142.2210 C   0  0  0  0  0  1  0  0  0  0  0  0
  189.3510  174.9210  141.5900 O   0  0  0  0  0  0  0  0  0  0  0  0
  192.1820  173.5090  141.3810 C   0  0  0  0  0  2  0  0  0  0  0  0
  192.1200  172.5620  142.5640 C   0  0  0  0  0  1  0  0  0  0  0  0
  1 18  1  0  0  0  0
  3 19  1  0  0  0  0
  4  1  1  0  0  0  0
  6  5  2  0  0  0  0
  6  2  2  0  0  0  0
  7 15  1  6  0  0  0
  7 12  1  0  0  0  0
  8 24  1  0  0  0  0
  8  6  1  1  0  0  0
  9 13  1  0  0  0  0
 10 24  1  0  0  0  0
 11  7  1  0  0  0  0
 11 23  1  0  0  0  0
 12  6  1  0  0  0  0
 13 20  1  0  0  0  0
 14  1  2  0  0  0  0
 14 17  1  0  0  0  0
 16 22  1  0  0  0  0
 16 13  1  0  0  0  0
 17  3  2  0  0  0  0
 18 19  2  0  0  0  0
 20  4  1  0  0  0  0
 21 23  1  0  0  0  0
 21 10  1  0  0  0  0
 22 10  1  0  0  0  0
 23  8  1  0  0  0  0
 24 14  1  0  0  0  0
 26 25  1  0  0  0  0
 26 22  1  0  0  0  0
 27 21  1  0  0  0  0
 27 28  1  0  0  0  0
M  END
>  <MODEL>
4

>  <REMARK>
 VINA RESULT:      -6.8      2.574      3.746
  Name = 
  2 active torsions:
  status: ('A' for Active; 'I' for Inactive)
    1  A    between atoms: C_5  and  C_24
    2  A    between atoms: O_17  and  C_25
                            x       y       z     vdW  Elec       q    Type
                         _______ _______ _______ _____ _____    ______ ____

>  <TORSDO>
F 2

$$$$
=
 OpenBabel11112417373D

 28 31  0  0  1  0  0  0  0  0999 V2000
  192.0530  174.1310  144.9340 C   0  0  0  0  0  0  0  0  0  0  0  0
  189.8610  176.2610  147.3140 O   0  0  0  0  0  0  0  0  0  0  0  0
  193.2510  176.6600  144.9040 C   0  0  0  0  0  3  0  0  0  0  0  0
  191.4850  172.8600  144.8530 O   0  0  0  0  0  0  0  0  0  0  0  0
  189.7640  178.0620  145.6250 O   0  0  0  0  0  0  0  0  0  0  0  0
  189.0650  176.8560  146.1870 S   0  0  0  0  0  0  0  0  0  0  0  0
  186.5290  177.6320  145.5360 C   0  0  2  0  0  3  0  0  0  0  0  0
  188.7450  175.6710  144.9630 N   0  0  1  0  0  0  0  0  0  0  0  0
  190.3300  170.7400  141.9530 C   0  0  0  0  0  1  0  0  0  0  0  0
  189.5440  175.0710  142.7370 C   0  0  2  0  0  3  0  0  0  0  0  0
  186.5250  176.5240  144.4680 C   0  0  0  0  0  2  0  0  0  0  0  0
  187.4340  177.3260  146.7410 C   0  0  0  0  0  2  0  0  0  0  0  0
  190.2100  171.6450  143.1670 C   0  0  2  0  0  3  0  0  0  0  0  0
  191.2840  175.2660  144.6340 C   0  0  0  0  0  0  0  0  0  0  0  0
  185.2270  177.8580  145.9770 O   0  0  0  0  0  1  0  0  0  0  0  0
  189.2480  172.6690  142.9690 O   0  0  0  0  0  0  0  0  0  0  0  0
  191.9000  176.5220  144.5770 C   0  0  0  0  0  3  0  0  0  0  0  0
  193.4050  174.2710  145.2700 C   0  0  0  0  0  3  0  0  0  0  0  0
  194.0010  175.5360  145.2630 C   0  0  0  0  0  3  0  0  0  0  0  0
  191.5890  172.1200  143.6440 C   0  0  0  0  0  2  0  0  0  0  0  0
  188.0870  175.5150  142.6790 C   0  0  1  0  0  3  0  0  0  0  0  0
  189.7790  173.6750  142.1340 C   0  0  1  0  0  3  0  0  0  0  0  0
  187.9450  176.3310  143.9500 C   0  0  2  0  0  3  0  0  0  0  0  0
  189.8540  175.0610  144.2240 C   0  0  1  0  0  3  0  0  0  0  0  0
  190.3040  173.7170  139.9820 C   0  0  0  0  0  1  0  0  0  0  0  0
  189.2230  173.5830  140.8550 O   0  0  0  0  0  0  0  0  0  0  0  0
  187.8690  176.3870  141.4530 C   0  0  0  0  0  2  0  0  0  0  0  0
  188.3950  177.7890  141.7000 C   0  0  0  0  0  1  0  0  0  0  0  0
  1 18  1  0  0  0  0
  3 19  1  0  0  0  0
  4  1  1  0  0  0  0
  5  6  2  0  0  0  0
  6 12  1  0  0  0  0
  6  2  2  0  0  0  0
  7 15  1  1  0  0  0
  7 12  1  0  0  0  0
  8  6  1  1  0  0  0
  9 13  1  0  0  0  0
 10 24  1  0  0  0  0
 11  7  1  0  0  0  0
 13 20  1  0  0  0  0
 14  1  2  0  0  0  0
 16 13  1  0  0  0  0
 17 14  1  0  0  0  0
 17  3  2  0  0  0  0
 19 18  2  0  0  0  0
 20  4  1  0  0  0  0
 21 10  1  0  0  0  0
 21 23  1  0  0  0  0
 22 10  1  0  0  0  0
 22 16  1  0  0  0  0
 23 11  1  0  0  0  0
 23  8  1  0  0  0  0
 24 14  1  0  0  0  0
 24  8  1  0  0  0  0
 25 26  1  0  0  0  0
 26 22  1  0  0  0  0
 27 28  1  0  0  0  0
 27 21  1  0  0  0  0
M  END
>  <MODEL>
5

>  <REMARK>
 VINA RESULT:      -6.8      1.869      5.461
  Name = 
  2 active torsions:
  status: ('A' for Active; 'I' for Inactive)
    1  A    between atoms: C_5  and  C_24
    2  A    between atoms: O_17  and  C_25
                            x       y       z     vdW  Elec       q    Type
                         _______ _______ _______ _____ _____    ______ ____

>  <TORSDO>
F 2

$$$$
=
 OpenBabel11112417373D

 28 31  0  0  1  0  0  0  0  0999 V2000
  186.0920  176.8870  143.1070 C   0  0  0  0  0  0  0  0  0  0  0  0
  187.1980  173.4770  141.6370 O   0  0  0  0  0  0  0  0  0  0  0  0
  186.9630  177.4960  140.5180 C   0  0  0  0  0  3  0  0  0  0  0  0
  185.6910  176.6740  144.4250 O   0  0  0  0  0  0  0  0  0  0  0  0
  189.3110  174.4930  140.8530 O   0  0  0  0  0  0  0  0  0  0  0  0
  188.6480  173.7150  141.9550 S   0  0  0  0  0  0  0  0  0  0  0  0
  190.8900  172.4120  142.8120 C   0  0  2  0  0  3  0  0  0  0  0  0
  188.8230  174.4980  143.4910 N   0  0  1  0  0  0  0  0  0  0  0  0
  186.7390  178.2060  147.7110 C   0  0  0  0  0  1  0  0  0  0  0  0
  189.3130  176.7210  144.3700 C   0  0  2  0  0  3  0  0  0  0  0  0
  190.8480  173.2890  144.0750 C   0  0  0  0  0  2  0  0  0  0  0  0
  189.5080  172.1670  142.1830 C   0  0  0  0  0  2  0  0  0  0  0  0
  186.6440  177.1550  146.6170 C   0  0  2  0  0  3  0  0  0  0  0  0
  187.3710  176.4890  142.6870 C   0  0  0  0  0  0  0  0  0  0  0  0
  191.4880  171.1900  143.1120 O   0  0  0  0  0  1  0  0  0  0  0  0
  187.9030  176.5620  146.3440 O   0  0  0  0  0  0  0  0  0  0  0  0
  187.8160  176.8370  141.4060 C   0  0  0  0  0  3  0  0  0  0  0  0
  185.2350  177.5410  142.2130 C   0  0  0  0  0  3  0  0  0  0  0  0
  185.6670  177.8370  140.9170 C   0  0  0  0  0  3  0  0  0  0  0  0
  185.8900  177.6950  145.3940 C   0  0  0  0  0  2  0  0  0  0  0  0
  190.4180  175.7420  144.7510 C   0  0  1  0  0  3  0  0  0  0  0  0
  188.6980  177.4450  145.5800 C   0  0  1  0  0  3  0  0  0  0  0  0
  190.2480  174.6430  143.7180 C   0  0  2  0  0  3  0  0  0  0  0  0
  188.2750  175.8430  143.6960 C   0  0  1  0  0  3  0  0  0  0  0  0
  189.9030  177.0880  147.4040 C   0  0  0  0  0  1  0  0  0  0  0  0
  189.6910  178.0140  146.3810 O   0  0  0  0  0  0  0  0  0  0  0  0
  191.7720  176.4170  144.6000 C   0  0  0  0  0  2  0  0  0  0  0  0
  191.7750  177.3360  143.3930 C   0  0  0  0  0  1  0  0  0  0  0  0
  1  4  1  0  0  0  0
  2  6  2  0  0  0  0
  3 19  2  0  0  0  0
  3 17  1  0  0  0  0
  4 20  1  0  0  0  0
  5  6  2  0  0  0  0
  6 12  1  0  0  0  0
  7 15  1  1  0  0  0
  7 11  1  0  0  0  0
  8  6  1  6  0  0  0
  8 24  1  0  0  0  0
  8 23  1  0  0  0  0
 10 21  1  0  0  0  0
 10 22  1  0  0  0  0
 12  7  1  0  0  0  0
 13  9  1  0  0  0  0
 14  1  1  0  0  0  0
 14 24  1  0  0  0  0
 16 13  1  0  0  0  0
 17 14  2  0  0  0  0
 18  1  2  0  0  0  0
 19 18  1  0  0  0  0
 20 13  1  0  0  0  0
 22 16  1  0  0  0  0
 22 26  1  0  0  0  0
 23 11  1  0  0  0  0
 23 21  1  0  0  0  0
 24 10  1  0  0  0  0
 26 25  1  0  0  0  0
 27 21  1  0  0  0  0
 28 27  1  0  0  0  0
M  END
>  <MODEL>
6

>  <REMARK>
 VINA RESULT:      -6.2      2.283      5.014
  Name = 
  2 active torsions:
  status: ('A' for Active; 'I' for Inactive)
    1  A    between atoms: C_5  and  C_24
    2  A    between atoms: O_17  and  C_25
                            x       y       z     vdW  Elec       q    Type
                         _______ _______ _______ _____ _____    ______ ____

>  <TORSDO>
F 2

$$$$
=
 OpenBabel11112417373D

 28 31  0  0  1  0  0  0  0  0999 V2000
  189.7660  174.8690  146.5920 C   0  0  0  0  0  0  0  0  0  0  0  0
  186.5150  176.7470  147.5520 O   0  0  0  0  0  0  0  0  0  0  0  0
  190.6520  177.3380  147.5660 C   0  0  0  0  0  3  0  0  0  0  0  0
  189.4030  173.6400  146.0430 O   0  0  0  0  0  0  0  0  0  0  0  0
  187.3110  178.7540  146.3500 O   0  0  0  0  0  0  0  0  0  0  0  0
  186.4730  177.5100  146.2580 S   0  0  0  0  0  0  0  0  0  0  0  0
  184.7200  178.4490  144.3860 C   0  0  2  0  0  3  0  0  0  0  0  0
  186.9570  176.5040  144.9320 N   0  0  1  0  0  0  0  0  0  0  0  0
  190.1940  171.9540  142.7610 C   0  0  0  0  0  1  0  0  0  0  0  0
  188.9040  176.1710  143.4990 C   0  0  2  0  0  3  0  0  0  0  0  0
  185.3730  177.4900  143.3770 C   0  0  0  0  0  2  0  0  0  0  0  0
  184.7960  177.9590  145.8430 C   0  0  0  0  0  2  0  0  0  0  0  0
  189.3650  172.6980  143.7950 C   0  0  2  0  0  3  0  0  0  0  0  0
  189.2510  176.0590  146.0540 C   0  0  0  0  0  0  0  0  0  0  0  0
  183.3880  178.6600  144.0360 O   0  0  0  0  0  1  0  0  0  0  0  0
  188.6400  173.7710  143.2170 O   0  0  0  0  0  0  0  0  0  0  0  0
  189.7330  177.2910  146.5150 C   0  0  0  0  0  3  0  0  0  0  0  0
  190.6810  174.9190  147.6500 C   0  0  0  0  0  3  0  0  0  0  0  0
  191.1170  176.1530  148.1430 C   0  0  0  0  0  3  0  0  0  0  0  0
  190.2080  173.0590  145.0260 C   0  0  0  0  0  2  0  0  0  0  0  0
  187.7180  176.6680  142.6810 C   0  0  1  0  0  3  0  0  0  0  0  0
  189.5040  174.8590  142.9650 C   0  0  1  0  0  3  0  0  0  0  0  0
  186.8430  177.3170  143.7370 C   0  0  2  0  0  3  0  0  0  0  0  0
  188.3170  175.9580  144.8830 C   0  0  1  0  0  3  0  0  0  0  0  0
  191.1680  174.9630  141.5080 C   0  0  0  0  0  1  0  0  0  0  0  0
  189.7750  174.9520  141.5980 O   0  0  0  0  0  0  0  0  0  0  0  0
  188.1930  177.6990  141.6690 C   0  0  0  0  0  2  0  0  0  0  0  0
  187.3470  177.6370  140.4120 C   0  0  0  0  0  1  0  0  0  0  0  0
  1 18  1  0  0  0  0
  3 19  1  0  0  0  0
  4  1  1  0  0  0  0
  6  5  2  0  0  0  0
  6  2  2  0  0  0  0
  7 15  1  6  0  0  0
  7 12  1  0  0  0  0
  8  6  1  1  0  0  0
  9 13  1  0  0  0  0
 10 24  1  0  0  0  0
 11 23  1  0  0  0  0
 11  7  1  0  0  0  0
 12  6  1  0  0  0  0
 13 20  1  0  0  0  0
 14 17  1  0  0  0  0
 14  1  2  0  0  0  0
 16 13  1  0  0  0  0
 17  3  2  0  0  0  0
 18 19  2  0  0  0  0
 20  4  1  0  0  0  0
 21 10  1  0  0  0  0
 21 23  1  0  0  0  0
 22 16  1  0  0  0  0
 22 10  1  0  0  0  0
 23  8  1  0  0  0  0
 24  8  1  0  0  0  0
 24 14  1  0  0  0  0
 25 26  1  0  0  0  0
 26 22  1  0  0  0  0
 27 21  1  0  0  0  0
 28 27  1  0  0  0  0
M  END
>  <MODEL>
7

>  <REMARK>
 VINA RESULT:      -6.2      2.361      5.440
  Name = 
  2 active torsions:
  status: ('A' for Active; 'I' for Inactive)
    1  A    between atoms: C_5  and  C_24
    2  A    between atoms: O_17  and  C_25
                            x       y       z     vdW  Elec       q    Type
                         _______ _______ _______ _____ _____    ______ ____

>  <TORSDO>
F 2

$$$$
=
 OpenBabel11112417373D

 28 31  0  0  1  0  0  0  0  0999 V2000
  188.0820  176.4210  144.8730 C   0  0  0  0  0  0  0  0  0  0  0  0
  187.0330  173.9730  142.0590 O   0  0  0  0  0  0  0  0  0  0  0  0
  187.5360  178.0750  142.6820 C   0  0  0  0  0  3  0  0  0  0  0  0
  188.4250  175.6640  145.9920 O   0  0  0  0  0  0  0  0  0  0  0  0
  188.5630  175.1120  140.4870 O   0  0  0  0  0  0  0  0  0  0  0  0
  188.4030  173.9620  141.4410 S   0  0  0  0  0  0  0  0  0  0  0  0
  190.1840  172.2900  140.2190 C   0  0  2  0  0  3  0  0  0  0  0  0
  189.6320  173.9640  142.6640 N   0  0  1  0  0  0  0  0  0  0  0  0
  191.5260  175.5010  148.1360 C   0  0  0  0  0  1  0  0  0  0  0  0
  191.2080  175.5270  143.6760 C   0  0  2  0  0  3  0  0  0  0  0  0
  191.1240  172.5090  141.4160 C   0  0  0  0  0  2  0  0  0  0  0  0
  188.6920  172.4300  140.5700 C   0  0  0  0  0  2  0  0  0  0  0  0
  190.5150  175.0580  147.0910 C   0  0  2  0  0  3  0  0  0  0  0  0
  188.7120  176.1820  143.6410 C   0  0  0  0  0  0  0  0  0  0  0  0
  190.4150  171.0320  139.6680 O   0  0  0  0  0  1  0  0  0  0  0  0
  191.1470  174.5810  145.9140 O   0  0  0  0  0  0  0  0  0  0  0  0
  188.4680  177.0410  142.5620 C   0  0  0  0  0  3  0  0  0  0  0  0
  187.1430  177.4530  144.9880 C   0  0  0  0  0  3  0  0  0  0  0  0
  186.8640  178.2730  143.8910 C   0  0  0  0  0  3  0  0  0  0  0  0
  189.4380  176.1300  146.8720 C   0  0  0  0  0  2  0  0  0  0  0  0
  191.9530  174.4210  142.9390 C   0  0  1  0  0  3  0  0  0  0  0  0
  191.6280  175.6660  145.1500 C   0  0  1  0  0  3  0  0  0  0  0  0
  190.9030  173.9120  141.9690 C   0  0  2  0  0  3  0  0  0  0  0  0
  189.7540  175.1030  143.5800 C   0  0  1  0  0  3  0  0  0  0  0  0
  193.2930  177.1250  145.1870 C   0  0  0  0  0  1  0  0  0  0  0  0
  193.0170  175.7600  145.2680 O   0  0  0  0  0  0  0  0  0  0  0  0
  193.1350  175.0150  142.1880 C   0  0  0  0  0  2  0  0  0  0  0  0
  194.3850  174.1890  142.4280 C   0  0  0  0  0  1  0  0  0  0  0  0
  1 18  1  0  0  0  0
  1  4  1  0  0  0  0
  3 19  1  0  0  0  0
  4 20  1  0  0  0  0
  5  6  2  0  0  0  0
  6  2  2  0  0  0  0
  7 15  1  1  0  0  0
  7 12  1  0  0  0  0
  7 11  1  0  0  0  0
  8  6  1  6  0  0  0
  8 24  1  0  0  0  0
 10 22  1  0  0  0  0
 11 23  1  0  0  0  0
 12  6  1  0  0  0  0
 13  9  1  0  0  0  0
 14  1  2  0  0  0  0
 16 13  1  0  0  0  0
 17  3  2  0  0  0  0
 17 14  1  0  0  0  0
 19 18  2  0  0  0  0
 20 13  1  0  0  0  0
 21 10  1  0  0  0  0
 22 26  1  0  0  0  0
 22 16  1  0  0  0  0
 23  8  1  0  0  0  0
 23 21  1  0  0  0  0
 24 14  1  0  0  0  0
 24 10  1  0  0  0  0
 25 26  1  0  0  0  0
 27 28  1  0  0  0  0
 27 21  1  0  0  0  0
M  END
>  <MODEL>
8

>  <REMARK>
 VINA RESULT:      -6.2      2.458      5.476
  Name = 
  2 active torsions:
  status: ('A' for Active; 'I' for Inactive)
    1  A    between atoms: C_5  and  C_24
    2  A    between atoms: O_17  and  C_25
                            x       y       z     vdW  Elec       q    Type
                         _______ _______ _______ _____ _____    ______ ____

>  <TORSDO>
F 2

$$$$
=
 OpenBabel11112417373D

 28 31  0  0  1  0  0  0  0  0999 V2000
  189.5260  175.5650  144.5490 C   0  0  0  0  0  0  0  0  0  0  0  0
  192.7900  177.4990  145.3330 O   0  0  0  0  0  0  0  0  0  0  0  0
  190.0740  174.9470  147.2220 C   0  0  0  0  0  3  0  0  0  0  0  0
  189.2130  175.7810  143.2070 O   0  0  0  0  0  0  0  0  0  0  0  0
  193.7620  175.4630  146.3420 O   0  0  0  0  0  0  0  0  0  0  0  0
  193.6600  176.2970  145.0950 S   0  0  0  0  0  0  0  0  0  0  0  0
  196.0740  175.5790  144.0380 C   0  0  2  0  0  3  0  0  0  0  0  0
  193.0810  175.3720  143.7490 N   0  0  1  0  0  0  0  0  0  0  0  0
  188.5660  173.4520  140.3100 C   0  0  0  0  0  1  0  0  0  0  0  0
  191.8540  173.3030  143.3370 C   0  0  2  0  0  3  0  0  0  0  0  0
  195.3060  174.7790  142.9730 C   0  0  0  0  0  2  0  0  0  0  0  0
  195.2970  176.7910  144.5810 C   0  0  0  0  0  2  0  0  0  0  0  0
  189.3290  174.4440  141.1720 C   0  0  2  0  0  3  0  0  0  0  0  0
  190.7830  175.0520  144.9040 C   0  0  0  0  0  0  0  0  0  0  0  0
  197.2920  176.0050  143.5130 O   0  0  0  0  0  1  0  0  0  0  0  0
  190.6830  174.0610  141.3450 O   0  0  0  0  0  0  0  0  0  0  0  0
  191.0340  174.7030  146.2370 C   0  0  0  0  0  3  0  0  0  0  0  0
  188.5680  175.8170  145.5380 C   0  0  0  0  0  3  0  0  0  0  0  0
  188.8450  175.5150  146.8750 C   0  0  0  0  0  3  0  0  0  0  0  0
  188.5630  174.7600  142.4640 C   0  0  0  0  0  2  0  0  0  0  0  0
  193.2720  173.1990  142.7900 C   0  0  1  0  0  3  0  0  0  0  0  0
  190.7720  173.0090  142.2830 C   0  0  1  0  0  3  0  0  0  0  0  0
  194.0050  174.2670  143.5810 C   0  0  2  0  0  3  0  0  0  0  0  0
  191.7570  174.7450  143.8040 C   0  0  1  0  0  3  0  0  0  0  0  0
  190.3630  170.8350  142.3880 C   0  0  0  0  0  1  0  0  0  0  0  0
  191.0260  171.8010  141.6290 O   0  0  0  0  0  0  0  0  0  0  0  0
  193.8370  171.8220  143.0960 C   0  0  0  0  0  2  0  0  0  0  0  0
  193.5510  171.4390  144.5360 C   0  0  0  0  0  1  0  0  0  0  0  0
  1 14  2  0  0  0  0
  1 18  1  0  0  0  0
  4  1  1  0  0  0  0
  6  2  2  0  0  0  0
  6  5  2  0  0  0  0
  7 15  1  6  0  0  0
  7 12  1  0  0  0  0
  8 24  1  0  0  0  0
  8  6  1  1  0  0  0
  9 13  1  0  0  0  0
 10 24  1  0  0  0  0
 11 23  1  0  0  0  0
 11  7  1  0  0  0  0
 12  6  1  0  0  0  0
 13 16  1  0  0  0  0
 13 20  1  0  0  0  0
 14 17  1  0  0  0  0
 16 22  1  0  0  0  0
 17  3  2  0  0  0  0
 18 19  2  0  0  0  0
 19  3  1  0  0  0  0
 20  4  1  0  0  0  0
 21 27  1  0  0  0  0
 21 10  1  0  0  0  0
 21 23  1  0  0  0  0
 22 10  1  0  0  0  0
 23  8  1  0  0  0  0
 24 14  1  0  0  0  0
 26 22  1  0  0  0  0
 26 25  1  0  0  0  0
 27 28  1  0  0  0  0
M  END
>  <MODEL>
9

>  <REMARK>
 VINA RESULT:      -6.1      2.490      3.590
  Name = 
  2 active torsions:
  status: ('A' for Active; 'I' for Inactive)
    1  A    between atoms: C_5  and  C_24
    2  A    between atoms: O_17  and  C_25
                            x       y       z     vdW  Elec       q    Type
                         _______ _______ _______ _____ _____    ______ ____

>  <TORSDO>
F 2

$$$$
