=
 OpenBabel11112417093D

 37 43  0  0  1  0  0  0  0  0999 V2000
  193.5840  173.2090  144.3550 C   0  0  0  0  0  2  0  0  0  0  0  0
  191.9910  170.5400  140.6720 C   0  0  0  0  0  0  0  0  0  0  0  0
  189.9580  174.1410  141.5260 C   0  0  0  0  0  0  0  0  0  0  0  0
  194.2290  173.7690  145.5360 N   0  0  0  0  0  0  0  0  0  0  0  0
  190.5490  176.1410  144.6190 C   0  0  0  0  0  2  0  0  0  0  0  0
  190.5710  172.5050  139.8380 C   0  0  0  0  0  0  0  0  0  0  0  0
  190.2930  174.3410  142.7920 C   0  0  1  0  0  3  0  0  0  0  0  0
  194.0790  176.1900  146.0040 C   0  0  2  0  0  3  0  0  0  0  0  0
  190.7310  173.0560  141.0240 C   0  0  0  0  0  0  0  0  0  0  0  0
  189.6560  175.3420  143.6920 C   0  0  0  0  0  0  0  0  0  0  0  0
  189.5670  173.1110  138.9310 C   0  0  0  0  0  3  0  0  0  0  0  0
  194.7000  175.0880  145.1400 C   0  0  0  0  0  2  0  0  0  0  0  0
  191.5730  172.5790  142.0700 C   0  0  0  0  0  0  0  0  0  0  0  0
  193.1350  169.6710  140.2030 C   0  0  0  0  0  1  0  0  0  0  0  0
  187.5800  174.5930  141.4370 C   0  0  0  0  0  3  0  0  0  0  0  0
  188.7980  174.1510  139.3320 C   0  0  0  0  0  3  0  0  0  0  0  0
  192.5030  171.4280  141.8410 C   0  0  0  0  0  2  0  0  0  0  0  0
  192.5470  176.1880  146.1190 C   0  0  0  0  0  2  0  0  0  0  0  0
  191.8390  175.4330  145.0060 C   0  0  1  0  0  3  0  0  0  0  0  0
  188.8770  174.7800  140.7240 C   0  0  0  0  0  0  0  0  0  0  0  0
  191.3610  173.3520  143.1420 C   0  0  0  0  0  0  0  0  0  0  0  0
  191.4650  171.3510  139.4530 C   0  0  0  0  0  2  0  0  0  0  0  0
  188.3150  175.6090  143.6550 C   0  0  0  0  0  0  0  0  0  0  0  0
  190.8880  169.6280  141.1810 C   0  0  0  0  0  1  0  0  0  0  0  0
  191.5610  174.1270  145.4440 O   0  0  0  0  0  0  0  0  0  0  0  0
  194.5370  177.5360  145.4850 C   0  0  0  0  0  1  0  0  0  0  0  0
  192.0480  173.2140  144.4830 C   0  0  2  0  0  3  0  0  0  0  0  0
  187.3580  174.9790  142.6980 C   0  0  0  0  0  3  0  0  0  0  0  0
  187.7310  176.1270  146.0910 C   0  0  0  0  0  3  0  0  0  0  0  0
  187.6680  176.4930  144.6600 C   0  0  0  0  0  0  0  0  0  0  0  0
  187.0770  177.6380  144.2940 C   0  0  0  0  0  3  0  0  0  0  0  0
  185.8930  179.5800  144.9130 O   0  0  0  0  0  0  0  0  0  0  0  0
  186.5780  178.2350  146.7620 C   0  0  0  0  0  2  0  0  0  0  0  0
  186.4840  178.5380  145.2920 C   0  0  0  0  0  0  0  0  0  0  0  0
  187.2360  176.9120  147.0500 C   0  0  0  0  0  3  0  0  0  0  0  0
  196.6370  173.8640  145.8200 C   0  0  0  0  0  1  0  0  0  0  0  0
  195.4150  172.9660  145.7920 C   0  0  0  0  0  2  0  0  0  0  0  0
  1  4  1  0  0  0  0
  2 24  1  0  0  0  0
  2 17  1  0  0  0  0
  4 37  1  0  0  0  0
  6  9  1  0  0  0  0
  7  3  1  1  0  0  0
  7 21  1  0  0  0  0
  7 10  1  0  0  0  0
  8 26  1  6  0  0  0
  8 18  1  0  0  0  0
  9  3  2  0  0  0  0
  9 13  1  0  0  0  0
 10  5  1  0  0  0  0
 11 16  1  0  0  0  0
 11  6  2  0  0  0  0
 12  4  1  0  0  0  0
 12  8  1  0  0  0  0
 13 21  2  0  0  0  0
 14  2  1  0  0  0  0
 15 28  2  0  0  0  0
 16 20  2  0  0  0  0
 17 13  1  0  0  0  0
 19  5  1  1  0  0  0
 19 25  1  0  0  0  0
 19 18  1  0  0  0  0
 20 15  1  0  0  0  0
 20  3  1  0  0  0  0
 21 27  1  0  0  0  0
 22  6  1  0  0  0  0
 22  2  1  0  0  0  0
 23 10  2  0  0  0  0
 23 30  1  0  0  0  0
 27  1  1  6  0  0  0
 27 25  1  0  0  0  0
 28 23  1  0  0  0  0
 29 35  2  0  0  0  0
 30 29  1  0  0  0  0
 31 30  2  0  0  0  0
 31 34  1  0  0  0  0
 32 34  2  0  0  0  0
 33 35  1  0  0  0  0
 34 33  1  0  0  0  0
 37 36  1  0  0  0  0
M  END
>  <MODEL>
1

>  <REMARK>
 VINA RESULT:      -8.4      0.000      0.000
  Name = 
  2 active torsions:
  status: ('A' for Active; 'I' for Inactive)
    1  A    between atoms: N_4  and  C_37
    2  A    between atoms: C_23  and  C_30
                            x       y       z     vdW  Elec       q    Type
                         _______ _______ _______ _____ _____    ______ ____

>  <TORSDO>
F 2

$$$$
=
 OpenBabel11112417093D

 37 43  0  0  1  0  0  0  0  0999 V2000
  190.1280  172.7690  139.9610 C   0  0  0  0  0  2  0  0  0  0  0  0
  187.8560  176.5130  141.9740 C   0  0  0  0  0  0  0  0  0  0  0  0
  191.7710  175.6390  143.2910 C   0  0  0  0  0  0  0  0  0  0  0  0
  190.5410  171.5710  139.2410 N   0  0  0  0  0  0  0  0  0  0  0  0
  193.5860  172.5100  142.3800 C   0  0  0  0  0  2  0  0  0  0  0  0
  190.0660  177.3400  142.9740 C   0  0  0  0  0  0  0  0  0  0  0  0
  191.8890  174.3660  142.9450 C   0  0  0  0  0  0  0  0  0  0  0  0
  192.9400  171.0720  138.9310 C   0  0  2  0  0  3  0  0  0  0  0  0
  190.5630  176.1440  142.7320 C   0  0  0  0  0  0  0  0  0  0  0  0
  192.9840  173.4610  143.3940 C   0  0  0  0  0  0  0  0  0  0  0  0
  190.8630  178.2530  143.8280 C   0  0  0  0  0  3  0  0  0  0  0  0
  191.7490  171.9420  138.5190 C   0  0  0  0  0  2  0  0  0  0  0  0
  189.9210  175.0920  142.0160 C   0  0  0  0  0  0  0  0  0  0  0  0
  186.7870  176.9760  141.0100 C   0  0  0  0  0  1  0  0  0  0  0  0
  192.6730  175.7580  145.5360 C   0  0  0  0  0  3  0  0  0  0  0  0
  192.0270  177.8500  144.3890 C   0  0  0  0  0  3  0  0  0  0  0  0
  188.6160  175.3240  141.3210 C   0  0  0  0  0  2  0  0  0  0  0  0
  193.2320  170.9800  140.4370 C   0  0  0  0  0  2  0  0  0  0  0  0
  192.6390  172.1140  141.2580 C   0  0  1  0  0  3  0  0  0  0  0  0
  192.6140  176.4480  144.2150 C   0  0  2  0  0  3  0  0  0  0  0  0
  190.7090  174.0130  142.0940 C   0  0  0  0  0  0  0  0  0  0  0  0
  188.7660  177.7270  142.3130 C   0  0  0  0  0  2  0  0  0  0  0  0
  193.5040  173.5150  144.6580 C   0  0  0  0  0  0  0  0  0  0  0  0
  187.1670  176.0320  143.2400 C   0  0  0  0  0  1  0  0  0  0  0  0
  191.4070  171.6980  141.7890 O   0  0  0  0  0  0  0  0  0  0  0  0
  194.1790  171.5650  138.2150 C   0  0  0  0  0  1  0  0  0  0  0  0
  190.4270  172.6650  141.4700 C   0  0  2  0  0  3  0  0  0  0  0  0
  193.0810  174.4940  145.7010 C   0  0  0  0  0  3  0  0  0  0  0  0
  195.9020  172.9010  145.3040 C   0  0  0  0  0  3  0  0  0  0  0  0
  194.4860  172.5080  145.1400 C   0  0  0  0  0  0  0  0  0  0  0  0
  194.0970  171.2710  145.4780 C   0  0  0  0  0  3  0  0  0  0  0  0
  194.6720  169.1250  146.2650 O   0  0  0  0  0  0  0  0  0  0  0  0
  196.4940  170.6660  146.2430 C   0  0  0  0  0  2  0  0  0  0  0  0
  195.0580  170.2920  146.0050 C   0  0  0  0  0  0  0  0  0  0  0  0
  196.8190  172.0690  145.8010 C   0  0  0  0  0  3  0  0  0  0  0  0
  189.6710  169.8890  137.7240 C   0  0  0  0  0  1  0  0  0  0  0  0
  189.5230  171.3090  138.2370 C   0  0  0  0  0  2  0  0  0  0  0  0
  2 22  1  0  0  0  0
  2 24  1  0  0  0  0
  3 20  1  0  0  0  0
  4  1  1  0  0  0  0
  5 10  1  0  0  0  0
  6 11  1  0  0  0  0
  7  3  2  0  0  0  0
  7 10  1  0  0  0  0
  8 26  1  6  0  0  0
  8 18  1  0  0  0  0
  9  6  2  0  0  0  0
  9  3  1  0  0  0  0
 10 23  2  0  0  0  0
 11 16  2  0  0  0  0
 12  8  1  0  0  0  0
 12  4  1  0  0  0  0
 13 21  2  0  0  0  0
 13  9  1  0  0  0  0
 14  2  1  0  0  0  0
 15 28  2  0  0  0  0
 17  2  1  0  0  0  0
 17 13  1  0  0  0  0
 19 18  1  1  0  0  0
 19 25  1  0  0  0  0
 19  5  1  0  0  0  0
 20 16  1  1  0  0  0
 20 15  1  0  0  0  0
 21  7  1  0  0  0  0
 22  6  1  0  0  0  0
 23 30  1  0  0  0  0
 23 28  1  0  0  0  0
 27  1  1  6  0  0  0
 27 25  1  0  0  0  0
 27 21  1  0  0  0  0
 29 35  2  0  0  0  0
 30 29  1  0  0  0  0
 30 31  2  0  0  0  0
 31 34  1  0  0  0  0
 34 33  1  0  0  0  0
 34 32  2  0  0  0  0
 35 33  1  0  0  0  0
 36 37  1  0  0  0  0
 37  4  1  0  0  0  0
M  END
>  <MODEL>
2

>  <REMARK>
 VINA RESULT:      -8.1      2.811      7.619
  Name = 
  2 active torsions:
  status: ('A' for Active; 'I' for Inactive)
    1  A    between atoms: N_4  and  C_37
    2  A    between atoms: C_23  and  C_30
                            x       y       z     vdW  Elec       q    Type
                         _______ _______ _______ _____ _____    ______ ____

>  <TORSDO>
F 2

$$$$
=
 OpenBabel11112417093D

 37 43  0  0  1  0  0  0  0  0999 V2000
  193.6380  173.0990  144.4310 C   0  0  0  0  0  2  0  0  0  0  0  0
  192.1370  170.3020  140.8050 C   0  0  0  0  0  0  0  0  0  0  0  0
  190.1250  173.9590  141.4420 C   0  0  0  0  0  0  0  0  0  0  0  0
  194.2500  173.6990  145.6110 N   0  0  0  0  0  0  0  0  0  0  0  0
  190.6360  176.0760  144.4700 C   0  0  0  0  0  2  0  0  0  0  0  0
  190.7740  172.2480  139.8430 C   0  0  0  0  0  0  0  0  0  0  0  0
  190.4190  174.2060  142.7090 C   0  0  1  0  0  3  0  0  0  0  0  0
  194.1170  176.1390  145.9740 C   0  0  2  0  0  3  0  0  0  0  0  0
  190.9000  172.8450  141.0110 C   0  0  0  0  0  0  0  0  0  0  0  0
  189.7640  175.2510  143.5450 C   0  0  0  0  0  0  0  0  0  0  0  0
  189.8090  172.8280  138.8780 C   0  0  0  0  0  3  0  0  0  0  0  0
  194.7520  174.9960  145.1780 C   0  0  0  0  0  2  0  0  0  0  0  0
  191.6990  172.4010  142.1050 C   0  0  0  0  0  0  0  0  0  0  0  0
  193.2850  169.4000  140.4130 C   0  0  0  0  0  1  0  0  0  0  0  0
  187.7580  174.4360  141.2500 C   0  0  0  0  0  3  0  0  0  0  0  0
  189.0420  173.8930  139.2100 C   0  0  0  0  0  3  0  0  0  0  0  0
  192.6200  171.2300  141.9550 C   0  0  0  0  0  2  0  0  0  0  0  0
  192.5820  176.1600  146.0360 C   0  0  0  0  0  2  0  0  0  0  0  0
  191.9020  175.3690  144.9300 C   0  0  1  0  0  3  0  0  0  0  0  0
  189.0810  174.5770  140.5770 C   0  0  0  0  0  0  0  0  0  0  0  0
  191.4600  173.2190  143.1360 C   0  0  0  0  0  0  0  0  0  0  0  0
  191.6640  171.0690  139.5370 C   0  0  0  0  0  2  0  0  0  0  0  0
  188.4300  175.5320  143.4500 C   0  0  0  0  0  0  0  0  0  0  0  0
  191.0050  169.4250  141.3120 C   0  0  0  0  0  1  0  0  0  0  0  0
  191.5910  174.0860  145.4110 O   0  0  0  0  0  0  0  0  0  0  0  0
  194.6100  177.4570  145.4180 C   0  0  0  0  0  1  0  0  0  0  0  0
  192.0990  173.1280  144.5040 C   0  0  2  0  0  3  0  0  0  0  0  0
  187.4980  174.8760  142.4870 C   0  0  0  0  0  3  0  0  0  0  0  0
  187.3290  177.7950  143.9120 C   0  0  0  0  0  3  0  0  0  0  0  0
  187.7600  176.4650  144.3950 C   0  0  0  0  0  0  0  0  0  0  0  0
  187.4960  176.0990  145.6560 C   0  0  0  0  0  3  0  0  0  0  0  0
  186.5980  176.6480  147.7650 O   0  0  0  0  0  0  0  0  0  0  0  0
  186.2780  178.3370  146.1100 C   0  0  0  0  0  2  0  0  0  0  0  0
  186.7870  177.0000  146.5740 C   0  0  0  0  0  0  0  0  0  0  0  0
  186.6590  178.6500  144.6870 C   0  0  0  0  0  3  0  0  0  0  0  0
  196.6740  173.7030  145.7000 C   0  0  0  0  0  1  0  0  0  0  0  0
  195.4150  172.8930  145.9400 C   0  0  0  0  0  2  0  0  0  0  0  0
  1  4  1  0  0  0  0
  2 24  1  0  0  0  0
  2 17  1  0  0  0  0
  4 37  1  0  0  0  0
  6  9  1  0  0  0  0
  7  3  1  1  0  0  0
  7 21  1  0  0  0  0
  7 10  1  0  0  0  0
  8 26  1  6  0  0  0
  8 18  1  0  0  0  0
  9  3  2  0  0  0  0
  9 13  1  0  0  0  0
 10  5  1  0  0  0  0
 11 16  1  0  0  0  0
 11  6  2  0  0  0  0
 12  4  1  0  0  0  0
 12  8  1  0  0  0  0
 13 21  2  0  0  0  0
 14  2  1  0  0  0  0
 15 28  2  0  0  0  0
 16 20  2  0  0  0  0
 17 13  1  0  0  0  0
 19  5  1  1  0  0  0
 19 25  1  0  0  0  0
 19 18  1  0  0  0  0
 20 15  1  0  0  0  0
 20  3  1  0  0  0  0
 21 27  1  0  0  0  0
 22  6  1  0  0  0  0
 22  2  1  0  0  0  0
 23 10  2  0  0  0  0
 23 30  1  0  0  0  0
 27  1  1  6  0  0  0
 27 25  1  0  0  0  0
 28 23  1  0  0  0  0
 29 30  1  0  0  0  0
 29 35  2  0  0  0  0
 30 31  2  0  0  0  0
 31 34  1  0  0  0  0
 33 34  1  0  0  0  0
 34 32  2  0  0  0  0
 35 33  1  0  0  0  0
 36 37  1  0  0  0  0
M  END
>  <MODEL>
3

>  <REMARK>
 VINA RESULT:      -8.1      0.751      1.099
  Name = 
  2 active torsions:
  status: ('A' for Active; 'I' for Inactive)
    1  A    between atoms: N_4  and  C_37
    2  A    between atoms: C_23  and  C_30
                            x       y       z     vdW  Elec       q    Type
                         _______ _______ _______ _____ _____    ______ ____

>  <TORSDO>
F 2

$$$$
=
 OpenBabel11112417093D

 37 43  0  0  1  0  0  0  0  0999 V2000
  189.7410  175.9310  144.6540 C   0  0  0  0  0  2  0  0  0  0  0  0
  194.4310  176.3510  145.6790 C   0  0  0  0  0  0  0  0  0  0  0  0
  193.3650  175.0600  141.8040 C   0  0  0  0  0  0  0  0  0  0  0  0
  188.2870  175.8350  144.6440 N   0  0  0  0  0  0  0  0  0  0  0  0
  189.8930  174.0810  140.8550 C   0  0  0  0  0  2  0  0  0  0  0  0
  195.0090  176.1940  143.1870 C   0  0  0  0  0  0  0  0  0  0  0  0
  192.1410  174.5970  142.0050 C   0  0  0  0  0  0  0  0  0  0  0  0
  187.0480  175.9640  142.5100 C   0  0  2  0  0  3  0  0  0  0  0  0
  193.7960  175.7200  142.9890 C   0  0  2  0  0  3  0  0  0  0  0  0
  191.3680  173.7820  141.0270 C   0  0  0  0  0  0  0  0  0  0  0  0
  195.9720  176.1020  142.0630 C   0  0  0  0  0  3  0  0  0  0  0  0
  187.8400  176.7220  143.5790 C   0  0  0  0  0  2  0  0  0  0  0  0
  192.7560  175.6300  143.9590 C   0  0  0  0  0  0  0  0  0  0  0  0
  194.5660  177.3230  146.8300 C   0  0  0  0  0  1  0  0  0  0  0  0
  194.4390  173.3880  140.4170 C   0  0  0  0  0  3  0  0  0  0  0  0
  195.6350  175.4970  140.9000 C   0  0  0  0  0  3  0  0  0  0  0  0
  192.9240  176.2320  145.3200 C   0  0  0  0  0  2  0  0  0  0  0  0
  187.7210  174.7190  141.9130 C   0  0  0  0  0  2  0  0  0  0  0  0
  189.2310  174.6830  142.0850 C   0  0  1  0  0  3  0  0  0  0  0  0
  194.2720  174.8530  140.6390 C   0  0  0  0  0  0  0  0  0  0  0  0
  191.7280  174.9880  143.3900 C   0  0  0  0  0  0  0  0  0  0  0  0
  195.3160  176.8600  144.5060 C   0  0  0  0  0  2  0  0  0  0  0  0
  191.9590  172.8340  140.2380 C   0  0  0  0  0  0  0  0  0  0  0  0
  194.9440  175.0000  146.1460 C   0  0  0  0  0  1  0  0  0  0  0  0
  189.5440  173.9210  143.2230 O   0  0  0  0  0  0  0  0  0  0  0  0
  186.6920  176.9210  141.3930 C   0  0  0  0  0  1  0  0  0  0  0  0
  190.4040  174.6770  144.0510 C   0  0  2  0  0  3  0  0  0  0  0  0
  193.4220  172.5410  140.2270 C   0  0  0  0  0  3  0  0  0  0  0  0
  190.5790  172.4410  138.1200 C   0  0  0  0  0  3  0  0  0  0  0  0
  191.1560  171.9240  139.3790 C   0  0  0  0  0  0  0  0  0  0  0  0
  190.9930  170.6340  139.7030 C   0  0  0  0  0  3  0  0  0  0  0  0
  190.0660  168.5300  139.1840 O   0  0  0  0  0  0  0  0  0  0  0  0
  189.6910  170.1900  137.5110 C   0  0  0  0  0  2  0  0  0  0  0  0
  190.2440  169.7220  138.8290 C   0  0  0  0  0  0  0  0  0  0  0  0
  189.9110  171.6600  137.2690 C   0  0  0  0  0  3  0  0  0  0  0  0
  188.9490  177.1660  146.5610 C   0  0  0  0  0  1  0  0  0  0  0  0
  187.8150  176.4150  145.8910 C   0  0  0  0  0  2  0  0  0  0  0  0
  2 24  1  0  0  0  0
  2 14  1  0  0  0  0
  3  7  2  0  0  0  0
  4  1  1  0  0  0  0
  4 37  1  0  0  0  0
  5 10  1  0  0  0  0
  6 22  1  0  0  0  0
  7 21  1  0  0  0  0
  8 26  1  6  0  0  0
  8 12  1  0  0  0  0
  9  3  1  1  0  0  0
  9  6  1  0  0  0  0
  9 13  1  0  0  0  0
 10  7  1  0  0  0  0
 11  6  2  0  0  0  0
 12  4  1  0  0  0  0
 13 17  1  0  0  0  0
 15 20  1  0  0  0  0
 16 11  1  0  0  0  0
 17  2  1  0  0  0  0
 18 19  1  0  0  0  0
 18  8  1  0  0  0  0
 19  5  1  6  0  0  0
 19 25  1  0  0  0  0
 20 16  2  0  0  0  0
 20  3  1  0  0  0  0
 21 13  2  0  0  0  0
 21 27  1  0  0  0  0
 22  2  1  0  0  0  0
 23 10  2  0  0  0  0
 25 27  1  0  0  0  0
 27  1  1  6  0  0  0
 28 23  1  0  0  0  0
 28 15  2  0  0  0  0
 29 30  1  0  0  0  0
 30 31  2  0  0  0  0
 30 23  1  0  0  0  0
 33 34  1  0  0  0  0
 34 32  2  0  0  0  0
 34 31  1  0  0  0  0
 35 33  1  0  0  0  0
 35 29  2  0  0  0  0
 37 36  1  0  0  0  0
M  END
>  <MODEL>
4

>  <REMARK>
 VINA RESULT:      -7.9      2.626      7.430
  Name = 
  2 active torsions:
  status: ('A' for Active; 'I' for Inactive)
    1  A    between atoms: N_4  and  C_37
    2  A    between atoms: C_23  and  C_30
                            x       y       z     vdW  Elec       q    Type
                         _______ _______ _______ _____ _____    ______ ____

>  <TORSDO>
F 2

$$$$
=
 OpenBabel11112417093D

 37 43  0  0  1  0  0  0  0  0999 V2000
  189.7910  175.9080  144.5190 C   0  0  0  0  0  2  0  0  0  0  0  0
  194.4550  176.2790  145.6740 C   0  0  0  0  0  0  0  0  0  0  0  0
  193.4830  175.0430  141.7560 C   0  0  0  0  0  0  0  0  0  0  0  0
  188.3360  175.8240  144.4690 N   0  0  0  0  0  0  0  0  0  0  0  0
  190.0300  174.1040  140.7030 C   0  0  0  0  0  2  0  0  0  0  0  0
  195.0980  176.1470  143.1970 C   0  0  0  0  0  0  0  0  0  0  0  0
  192.2510  174.5870  141.9190 C   0  0  0  0  0  0  0  0  0  0  0  0
  187.1560  175.9890  142.3050 C   0  0  2  0  0  3  0  0  0  0  0  0
  193.8870  175.6850  142.9610 C   0  0  2  0  0  3  0  0  0  0  0  0
  191.4980  173.7910  140.9110 C   0  0  0  0  0  0  0  0  0  0  0  0
  196.0900  176.0610  142.0980 C   0  0  0  0  0  3  0  0  0  0  0  0
  187.9260  176.7270  143.4040 C   0  0  0  0  0  2  0  0  0  0  0  0
  192.8200  175.5920  143.9010 C   0  0  0  0  0  0  0  0  0  0  0  0
  194.5660  177.2350  146.8400 C   0  0  0  0  0  1  0  0  0  0  0  0
  194.5810  173.3800  140.3780 C   0  0  0  0  0  3  0  0  0  0  0  0
  195.7800  175.4730  140.9190 C   0  0  0  0  0  3  0  0  0  0  0  0
  192.9560  176.1750  145.2740 C   0  0  0  0  0  2  0  0  0  0  0  0
  187.8350  174.7460  141.7110 C   0  0  0  0  0  2  0  0  0  0  0  0
  189.3400  174.6960  141.9220 C   0  0  1  0  0  3  0  0  0  0  0  0
  194.4190  174.8440  140.6140 C   0  0  0  0  0  0  0  0  0  0  0  0
  191.8040  174.9650  143.2970 C   0  0  0  0  0  0  0  0  0  0  0  0
  195.3750  176.7940  144.5310 C   0  0  0  0  0  2  0  0  0  0  0  0
  192.1020  172.8480  140.1250 C   0  0  0  0  0  0  0  0  0  0  0  0
  194.9440  174.9170  146.1380 C   0  0  0  0  0  1  0  0  0  0  0  0
  189.6160  173.9180  143.0590 O   0  0  0  0  0  0  0  0  0  0  0  0
  186.8380  176.9620  141.1910 C   0  0  0  0  0  1  0  0  0  0  0  0
  190.4600  174.6560  143.9190 C   0  0  2  0  0  3  0  0  0  0  0  0
  193.5630  172.5430  140.1500 C   0  0  0  0  0  3  0  0  0  0  0  0
  190.9110  170.6200  139.7270 C   0  0  0  0  0  3  0  0  0  0  0  0
  191.3150  171.9540  139.2350 C   0  0  0  0  0  0  0  0  0  0  0  0
  190.9250  172.3600  138.0200 C   0  0  0  0  0  3  0  0  0  0  0  0
  189.7940  171.8860  136.0060 O   0  0  0  0  0  0  0  0  0  0  0  0
  189.6190  170.1580  137.6430 C   0  0  0  0  0  2  0  0  0  0  0  0
  190.1030  171.4970  137.1600 C   0  0  0  0  0  0  0  0  0  0  0  0
  190.1430  169.7990  139.0070 C   0  0  0  0  0  3  0  0  0  0  0  0
  188.4570  175.6660  146.8870 C   0  0  0  0  0  1  0  0  0  0  0  0
  187.8360  176.3930  145.7100 C   0  0  0  0  0  2  0  0  0  0  0  0
  2 24  1  0  0  0  0
  2 14  1  0  0  0  0
  3  7  2  0  0  0  0
  4  1  1  0  0  0  0
  4 37  1  0  0  0  0
  5 10  1  0  0  0  0
  6 22  1  0  0  0  0
  7 21  1  0  0  0  0
  8 26  1  6  0  0  0
  8 12  1  0  0  0  0
  9  3  1  1  0  0  0
  9  6  1  0  0  0  0
  9 13  1  0  0  0  0
 10  7  1  0  0  0  0
 11  6  2  0  0  0  0
 12  4  1  0  0  0  0
 13 17  1  0  0  0  0
 15 20  1  0  0  0  0
 16 11  1  0  0  0  0
 17  2  1  0  0  0  0
 18 19  1  0  0  0  0
 18  8  1  0  0  0  0
 19  5  1  6  0  0  0
 19 25  1  0  0  0  0
 20 16  2  0  0  0  0
 20  3  1  0  0  0  0
 21 13  2  0  0  0  0
 21 27  1  0  0  0  0
 22  2  1  0  0  0  0
 23 28  1  0  0  0  0
 23 10  2  0  0  0  0
 25 27  1  0  0  0  0
 27  1  1  6  0  0  0
 28 15  2  0  0  0  0
 30 29  1  0  0  0  0
 30 23  1  0  0  0  0
 31 30  2  0  0  0  0
 32 34  2  0  0  0  0
 33 35  1  0  0  0  0
 34 33  1  0  0  0  0
 34 31  1  0  0  0  0
 35 29  2  0  0  0  0
 37 36  1  0  0  0  0
M  END
>  <MODEL>
5

>  <REMARK>
 VINA RESULT:      -7.8      2.775      7.381
  Name = 
  2 active torsions:
  status: ('A' for Active; 'I' for Inactive)
    1  A    between atoms: N_4  and  C_37
    2  A    between atoms: C_23  and  C_30
                            x       y       z     vdW  Elec       q    Type
                         _______ _______ _______ _____ _____    ______ ____

>  <TORSDO>
F 2

$$$$
=
 OpenBabel11112417093D

 37 43  0  0  1  0  0  0  0  0999 V2000
  193.6810  173.1060  140.6340 C   0  0  0  0  0  2  0  0  0  0  0  0
  196.5650  175.3300  143.7890 C   0  0  0  0  0  0  0  0  0  0  0  0
  192.4060  175.4360  144.5020 C   0  0  0  0  0  0  0  0  0  0  0  0
  193.0580  172.4210  139.5080 N   0  0  0  0  0  0  0  0  0  0  0  0
  189.8710  174.3310  141.9990 C   0  0  0  0  0  2  0  0  0  0  0  0
  194.6350  175.4960  145.4660 C   0  0  0  0  0  0  0  0  0  0  0  0
  191.9230  175.2040  143.2910 C   0  0  0  0  0  0  0  0  0  0  0  0
  190.8090  171.4270  139.7470 C   0  0  2  0  0  3  0  0  0  0  0  0
  193.8140  175.2350  144.4690 C   0  0  0  0  0  0  0  0  0  0  0  0
  190.4970  175.3790  142.8970 C   0  0  0  0  0  0  0  0  0  0  0  0
  194.0360  175.9570  146.7430 C   0  0  0  0  0  3  0  0  0  0  0  0
  192.2980  171.3220  140.0870 C   0  0  0  0  0  2  0  0  0  0  0  0
  194.1870  174.8690  143.1430 C   0  0  0  0  0  0  0  0  0  0  0  0
  197.9390  174.7080  143.6760 C   0  0  0  0  0  1  0  0  0  0  0  0
  191.0650  177.2590  145.3660 C   0  0  0  0  0  3  0  0  0  0  0  0
  192.7030  176.1630  146.8570 C   0  0  0  0  0  3  0  0  0  0  0  0
  195.6190  174.5990  142.7970 C   0  0  0  0  0  2  0  0  0  0  0  0
  190.1270  172.7660  140.0670 C   0  0  0  0  0  2  0  0  0  0  0  0
  190.8610  173.6100  141.0980 C   0  0  1  0  0  3  0  0  0  0  0  0
  191.7100  175.9600  145.7120 C   0  0  2  0  0  3  0  0  0  0  0  0
  193.0680  174.8080  142.4120 C   0  0  0  0  0  0  0  0  0  0  0  0
  196.1090  175.2390  145.2730 C   0  0  0  0  0  2  0  0  0  0  0  0
  189.7260  176.4020  143.3750 C   0  0  0  0  0  0  0  0  0  0  0  0
  196.6800  176.7910  143.3880 C   0  0  0  0  0  1  0  0  0  0  0  0
  191.6740  174.5410  140.4300 O   0  0  0  0  0  0  0  0  0  0  0  0
  190.0660  170.3110  140.4500 C   0  0  0  0  0  1  0  0  0  0  0  0
  192.9870  174.4470  140.9460 C   0  0  2  0  0  3  0  0  0  0  0  0
  190.1950  177.4180  144.3620 C   0  0  0  0  0  3  0  0  0  0  0  0
  187.1920  176.3770  143.7270 C   0  0  0  0  0  3  0  0  0  0  0  0
  188.3560  176.6540  142.8560 C   0  0  0  0  0  0  0  0  0  0  0  0
  188.1630  177.1750  141.6380 C   0  0  0  0  0  3  0  0  0  0  0  0
  186.6600  177.9160  139.9800 O   0  0  0  0  0  0  0  0  0  0  0  0
  185.6050  177.2640  142.0190 C   0  0  0  0  0  2  0  0  0  0  0  0
  186.8110  177.4730  141.1460 C   0  0  0  0  0  0  0  0  0  0  0  0
  185.9410  176.6490  143.3510 C   0  0  0  0  0  3  0  0  0  0  0  0
  195.4460  171.9960  139.4660 C   0  0  0  0  0  1  0  0  0  0  0  0
  194.1310  171.8190  138.7320 C   0  0  0  0  0  2  0  0  0  0  0  0
  2 22  1  0  0  0  0
  3 20  1  0  0  0  0
  4 12  1  0  0  0  0
  4  1  1  0  0  0  0
  5 10  1  0  0  0  0
  6 11  1  0  0  0  0
  7  3  2  0  0  0  0
  8 18  1  0  0  0  0
  8 12  1  0  0  0  0
  8 26  1  1  0  0  0
  9  3  1  0  0  0  0
  9  6  2  0  0  0  0
 10  7  1  0  0  0  0
 10 23  2  0  0  0  0
 11 16  2  0  0  0  0
 13  9  1  0  0  0  0
 14  2  1  0  0  0  0
 17 13  1  0  0  0  0
 17  2  1  0  0  0  0
 19 18  1  6  0  0  0
 19  5  1  0  0  0  0
 20 15  1  6  0  0  0
 20 16  1  0  0  0  0
 21 13  2  0  0  0  0
 21  7  1  0  0  0  0
 22  6  1  0  0  0  0
 23 28  1  0  0  0  0
 24  2  1  0  0  0  0
 25 27  1  0  0  0  0
 25 19  1  0  0  0  0
 27  1  1  1  0  0  0
 27 21  1  0  0  0  0
 28 15  2  0  0  0  0
 30 23  1  0  0  0  0
 30 29  1  0  0  0  0
 31 30  2  0  0  0  0
 32 34  2  0  0  0  0
 33 35  1  0  0  0  0
 34 31  1  0  0  0  0
 34 33  1  0  0  0  0
 35 29  2  0  0  0  0
 37 36  1  0  0  0  0
 37  4  1  0  0  0  0
M  END
>  <MODEL>
6

>  <REMARK>
 VINA RESULT:      -7.7      2.387      5.854
  Name = 
  2 active torsions:
  status: ('A' for Active; 'I' for Inactive)
    1  A    between atoms: N_4  and  C_37
    2  A    between atoms: C_23  and  C_30
                            x       y       z     vdW  Elec       q    Type
                         _______ _______ _______ _____ _____    ______ ____

>  <TORSDO>
F 2

$$$$
=
 OpenBabel11112417093D

 37 43  0  0  1  0  0  0  0  0999 V2000
  187.9770  176.7620  144.7820 C   0  0  0  0  0  2  0  0  0  0  0  0
  191.5510  176.7820  148.0140 C   0  0  0  0  0  0  0  0  0  0  0  0
  192.4340  175.4610  144.1030 C   0  0  0  0  0  0  0  0  0  0  0  0
  186.7180  176.8000  144.0470 N   0  0  0  0  0  0  0  0  0  0  0  0
  189.8170  174.7750  141.5350 C   0  0  0  0  0  2  0  0  0  0  0  0
  193.2730  176.4850  146.1400 C   0  0  0  0  0  0  0  0  0  0  0  0
  191.2330  175.1200  143.6600 C   0  0  1  0  0  3  0  0  0  0  0  0
  186.7240  176.9690  141.5820 C   0  0  2  0  0  3  0  0  0  0  0  0
  192.2800  176.1190  145.3560 C   0  0  0  0  0  0  0  0  0  0  0  0
  190.9730  174.3460  142.4140 C   0  0  0  0  0  0  0  0  0  0  0  0
  194.6530  176.2660  145.6430 C   0  0  0  0  0  3  0  0  0  0  0  0
  186.9500  177.6870  142.9150 C   0  0  0  0  0  2  0  0  0  0  0  0
  190.8920  176.1600  145.6770 C   0  0  0  0  0  0  0  0  0  0  0  0
  191.1900  177.7770  149.0940 C   0  0  0  0  0  1  0  0  0  0  0  0
  193.8860  173.6500  143.4100 C   0  0  0  0  0  3  0  0  0  0  0  0
  194.8820  175.6540  144.4580 C   0  0  0  0  0  3  0  0  0  0  0  0
  190.4180  176.7900  146.9500 C   0  0  0  0  0  2  0  0  0  0  0  0
  187.4800  175.6470  141.3800 C   0  0  0  0  0  2  0  0  0  0  0  0
  188.6930  175.4780  142.2810 C   0  0  1  0  0  3  0  0  0  0  0  0
  193.7740  175.1310  143.5420 C   0  0  0  0  0  0  0  0  0  0  0  0
  190.2260  175.5960  144.6610 C   0  0  0  0  0  0  0  0  0  0  0  0
  192.9470  177.1660  147.4460 C   0  0  0  0  0  2  0  0  0  0  0  0
  191.7830  173.3220  142.0090 C   0  0  0  0  0  0  0  0  0  0  0  0
  191.6290  175.4060  148.6520 C   0  0  0  0  0  1  0  0  0  0  0  0
  188.3220  174.7300  143.4110 O   0  0  0  0  0  0  0  0  0  0  0  0
  187.0660  177.9150  140.4510 C   0  0  0  0  0  1  0  0  0  0  0  0
  188.7260  175.4320  144.5690 C   0  0  2  0  0  3  0  0  0  0  0  0
  193.0210  172.8940  142.7240 C   0  0  0  0  0  3  0  0  0  0  0  0
  191.5020  173.0220  139.4840 C   0  0  0  0  0  3  0  0  0  0  0  0
  191.4290  172.4600  140.8500 C   0  0  0  0  0  0  0  0  0  0  0  0
  191.0970  171.1740  141.0220 C   0  0  0  0  0  3  0  0  0  0  0  0
  190.4430  169.1190  140.0700 O   0  0  0  0  0  0  0  0  0  0  0  0
  190.9180  170.8200  138.4640 C   0  0  0  0  0  2  0  0  0  0  0  0
  190.7990  170.3080  139.8730 C   0  0  0  0  0  0  0  0  0  0  0  0
  191.2680  172.2830  138.3970 C   0  0  0  0  0  3  0  0  0  0  0  0
  185.7270  176.7920  146.2610 C   0  0  0  0  0  1  0  0  0  0  0  0
  185.7480  177.4650  144.9020 C   0  0  0  0  0  2  0  0  0  0  0  0
  2 24  1  0  0  0  0
  2 14  1  0  0  0  0
  3  9  1  0  0  0  0
  4  1  1  0  0  0  0
  4 37  1  0  0  0  0
  5 19  1  0  0  0  0
  5 10  1  0  0  0  0
  6 22  1  0  0  0  0
  7 10  1  1  0  0  0
  7  3  1  0  0  0  0
  7 21  1  0  0  0  0
  8 26  1  6  0  0  0
  8 12  1  0  0  0  0
  9 13  1  0  0  0  0
  9  6  2  0  0  0  0
 11  6  1  0  0  0  0
 12  4  1  0  0  0  0
 13 17  1  0  0  0  0
 15 20  1  0  0  0  0
 16 11  2  0  0  0  0
 17  2  1  0  0  0  0
 18  8  1  0  0  0  0
 19 18  1  6  0  0  0
 19 25  1  0  0  0  0
 20  3  2  0  0  0  0
 20 16  1  0  0  0  0
 21 13  2  0  0  0  0
 22  2  1  0  0  0  0
 23 10  2  0  0  0  0
 23 28  1  0  0  0  0
 25 27  1  0  0  0  0
 27 21  1  0  0  0  0
 27  1  1  6  0  0  0
 28 15  2  0  0  0  0
 29 30  1  0  0  0  0
 30 31  2  0  0  0  0
 30 23  1  0  0  0  0
 33 34  1  0  0  0  0
 34 32  2  0  0  0  0
 34 31  1  0  0  0  0
 35 33  1  0  0  0  0
 35 29  2  0  0  0  0
 37 36  1  0  0  0  0
M  END
>  <MODEL>
7

>  <REMARK>
 VINA RESULT:      -7.7      2.475      7.910
  Name = 
  2 active torsions:
  status: ('A' for Active; 'I' for Inactive)
    1  A    between atoms: N_4  and  C_37
    2  A    between atoms: C_23  and  C_30
                            x       y       z     vdW  Elec       q    Type
                         _______ _______ _______ _____ _____    ______ ____

>  <TORSDO>
F 2

$$$$
=
 OpenBabel11112417093D

 37 43  0  0  1  0  0  0  0  0999 V2000
  193.1310  176.2040  144.8150 C   0  0  0  0  0  2  0  0  0  0  0  0
  188.5880  176.4140  143.2220 C   0  0  0  0  0  0  0  0  0  0  0  0
  191.2960  173.9320  141.1420 C   0  0  0  0  0  0  0  0  0  0  0  0
  194.4240  176.3800  145.4640 N   0  0  0  0  0  0  0  0  0  0  0  0
  194.9790  173.9710  141.7360 C   0  0  0  0  0  2  0  0  0  0  0  0
  188.9840  174.3450  141.7620 C   0  0  0  0  0  0  0  0  0  0  0  0
  192.4600  174.4600  141.4880 C   0  0  0  0  0  0  0  0  0  0  0  0
  196.1560  174.6280  145.2810 C   0  0  2  0  0  3  0  0  0  0  0  0
  190.2770  174.5410  141.9260 C   0  0  2  0  0  3  0  0  0  0  0  0
  193.7650  174.1400  140.8450 C   0  0  0  0  0  0  0  0  0  0  0  0
  188.5660  173.3580  140.7370 C   0  0  0  0  0  3  0  0  0  0  0  0
  194.8260  175.0530  145.9090 C   0  0  0  0  0  2  0  0  0  0  0  0
  190.8820  175.5010  142.7870 C   0  0  0  0  0  0  0  0  0  0  0  0
  187.7150  176.8560  144.3750 C   0  0  0  0  0  1  0  0  0  0  0  0
  191.4740  173.5530  138.7560 C   0  0  0  0  0  3  0  0  0  0  0  0
  189.4770  172.7310  139.9570 C   0  0  0  0  0  3  0  0  0  0  0  0
  190.0520  176.3130  143.7330 C   0  0  0  0  0  2  0  0  0  0  0  0
  196.2520  174.7230  143.7510 C   0  0  0  0  0  2  0  0  0  0  0  0
  194.9070  174.7480  143.0410 C   0  0  1  0  0  3  0  0  0  0  0  0
  190.9840  172.9770  140.0410 C   0  0  0  0  0  0  0  0  0  0  0  0
  192.2030  175.4570  142.5750 C   0  0  0  0  0  0  0  0  0  0  0  0
  188.0240  175.0740  142.6690 C   0  0  0  0  0  2  0  0  0  0  0  0
  193.8830  173.9230  139.5000 C   0  0  0  0  0  0  0  0  0  0  0  0
  188.5070  177.4780  142.1400 C   0  0  0  0  0  1  0  0  0  0  0  0
  194.5480  176.0830  142.7890 O   0  0  0  0  0  0  0  0  0  0  0  0
  196.4700  173.2110  145.7100 C   0  0  0  0  0  1  0  0  0  0  0  0
  193.2410  176.3010  143.2800 C   0  0  2  0  0  3  0  0  0  0  0  0
  192.7380  173.9350  138.5420 C   0  0  0  0  0  3  0  0  0  0  0  0
  195.7420  172.3940  138.6350 C   0  0  0  0  0  3  0  0  0  0  0  0
  195.2100  173.7570  138.8500 C   0  0  0  0  0  0  0  0  0  0  0  0
  195.9010  174.8160  138.4120 C   0  0  0  0  0  3  0  0  0  0  0  0
  197.8370  175.6650  137.3670 O   0  0  0  0  0  0  0  0  0  0  0  0
  197.7390  173.2810  137.4290 C   0  0  0  0  0  2  0  0  0  0  0  0
  197.1880  174.6490  137.7220 C   0  0  0  0  0  0  0  0  0  0  0  0
  196.8910  172.1720  137.9930 C   0  0  0  0  0  3  0  0  0  0  0  0
  192.8490  176.7910  147.2630 C   0  0  0  0  0  1  0  0  0  0  0  0
  194.1910  177.1660  146.6650 C   0  0  0  0  0  2  0  0  0  0  0  0
  1  4  1  0  0  0  0
  2 17  1  0  0  0  0
  2 14  1  0  0  0  0
  3  7  2  0  0  0  0
  4 12  1  0  0  0  0
  4 37  1  0  0  0  0
  6  9  1  0  0  0  0
  6 22  1  0  0  0  0
  7 21  1  0  0  0  0
  8 26  1  6  0  0  0
  8 12  1  0  0  0  0
  9  3  1  6  0  0  0
  9 13  1  0  0  0  0
 10  7  1  0  0  0  0
 10  5  1  0  0  0  0
 11  6  2  0  0  0  0
 13 17  1  0  0  0  0
 15 20  1  0  0  0  0
 16 20  2  0  0  0  0
 16 11  1  0  0  0  0
 18  8  1  0  0  0  0
 19  5  1  6  0  0  0
 19 18  1  0  0  0  0
 20  3  1  0  0  0  0
 21 13  2  0  0  0  0
 21 27  1  0  0  0  0
 22  2  1  0  0  0  0
 23 10  2  0  0  0  0
 24  2  1  0  0  0  0
 25 19  1  0  0  0  0
 25 27  1  0  0  0  0
 27  1  1  1  0  0  0
 28 15  2  0  0  0  0
 28 23  1  0  0  0  0
 29 30  1  0  0  0  0
 30 23  1  0  0  0  0
 31 30  2  0  0  0  0
 32 34  2  0  0  0  0
 33 34  1  0  0  0  0
 33 35  1  0  0  0  0
 34 31  1  0  0  0  0
 35 29  2  0  0  0  0
 37 36  1  0  0  0  0
M  END
>  <MODEL>
8

>  <REMARK>
 VINA RESULT:      -7.6      3.318      7.106
  Name = 
  2 active torsions:
  status: ('A' for Active; 'I' for Inactive)
    1  A    between atoms: N_4  and  C_37
    2  A    between atoms: C_23  and  C_30
                            x       y       z     vdW  Elec       q    Type
                         _______ _______ _______ _____ _____    ______ ____

>  <TORSDO>
F 2

$$$$
=
 OpenBabel11112417093D

 37 43  0  0  1  0  0  0  0  0999 V2000
  189.6580  175.5400  142.7770 C   0  0  0  0  0  2  0  0  0  0  0  0
  189.3600  173.5370  138.4050 C   0  0  0  0  0  0  0  0  0  0  0  0
  191.3330  171.3660  141.4410 C   0  0  0  0  0  0  0  0  0  0  0  0
  189.6540  176.3970  143.9570 N   0  0  0  0  0  0  0  0  0  0  0  0
  192.2440  172.8360  144.7460 C   0  0  0  0  0  2  0  0  0  0  0  0
  190.0580  171.2700  139.3750 C   0  0  0  0  0  0  0  0  0  0  0  0
  191.6610  172.3310  142.2860 C   0  0  1  0  0  3  0  0  0  0  0  0
  189.8750  175.4100  146.2110 C   0  0  2  0  0  3  0  0  0  0  0  0
  190.4780  171.9150  140.4440 C   0  0  0  0  0  0  0  0  0  0  0  0
  192.6030  172.1750  143.4300 C   0  0  0  0  0  0  0  0  0  0  0  0
  190.4410  169.8430  139.2420 C   0  0  0  0  0  3  0  0  0  0  0  0
  188.9730  175.6360  144.9950 C   0  0  0  0  0  2  0  0  0  0  0  0
  190.2980  173.3020  140.7180 C   0  0  0  0  0  0  0  0  0  0  0  0
  188.1870  174.1660  137.6880 C   0  0  0  0  0  1  0  0  0  0  0  0
  193.3200  169.9910  141.2690 C   0  0  0  0  0  3  0  0  0  0  0  0
  191.2450  169.2460  140.1530 C   0  0  0  0  0  3  0  0  0  0  0  0
  189.4460  174.1540  139.8280 C   0  0  0  0  0  2  0  0  0  0  0  0
  191.2590  174.8020  145.9330 C   0  0  0  0  0  2  0  0  0  0  0  0
  191.3620  174.0670  144.6060 C   0  0  1  0  0  3  0  0  0  0  0  0
  191.8330  169.9640  141.3690 C   0  0  0  0  0  0  0  0  0  0  0  0
  190.9700  173.5820  141.8410 C   0  0  0  0  0  0  0  0  0  0  0  0
  189.1610  171.9940  138.4020 C   0  0  0  0  0  2  0  0  0  0  0  0
  193.7290  171.4030  143.3500 C   0  0  0  0  0  0  0  0  0  0  0  0
  190.6210  173.8820  137.6310 C   0  0  0  0  0  1  0  0  0  0  0  0
  191.8970  174.9380  143.6420 O   0  0  0  0  0  0  0  0  0  0  0  0
  189.1430  174.5410  147.2100 C   0  0  0  0  0  1  0  0  0  0  0  0
  191.0500  174.9350  142.5100 C   0  0  2  0  0  3  0  0  0  0  0  0
  194.1180  170.6050  142.1510 C   0  0  0  0  0  3  0  0  0  0  0  0
  194.9410  170.1310  145.2090 C   0  0  0  0  0  3  0  0  0  0  0  0
  194.7370  171.3800  144.4420 C   0  0  0  0  0  0  0  0  0  0  0  0
  195.4960  172.4510  144.7050 C   0  0  0  0  0  3  0  0  0  0  0  0
  197.1920  173.4480  146.0050 O   0  0  0  0  0  0  0  0  0  0  0  0
  196.8120  171.1470  146.5120 C   0  0  0  0  0  2  0  0  0  0  0  0
  196.5290  172.4110  145.7490 C   0  0  0  0  0  0  0  0  0  0  0  0
  195.8790  170.0210  146.1520 C   0  0  0  0  0  3  0  0  0  0  0  0
  188.9460  177.8950  142.1850 C   0  0  0  0  0  1  0  0  0  0  0  0
  188.8030  177.5350  143.6510 C   0  0  0  0  0  2  0  0  0  0  0  0
  1  4  1  0  0  0  0
  2 17  1  0  0  0  0
  4 12  1  0  0  0  0
  6  9  1  0  0  0  0
  7  3  1  6  0  0  0
  7 10  1  0  0  0  0
  8 26  1  1  0  0  0
  9 13  1  0  0  0  0
  9  3  2  0  0  0  0
 10  5  1  0  0  0  0
 11  6  2  0  0  0  0
 11 16  1  0  0  0  0
 12  8  1  0  0  0  0
 13 21  2  0  0  0  0
 14  2  1  0  0  0  0
 15 20  1  0  0  0  0
 15 28  2  0  0  0  0
 16 20  2  0  0  0  0
 17 13  1  0  0  0  0
 18  8  1  0  0  0  0
 19  5  1  1  0  0  0
 19 18  1  0  0  0  0
 20  3  1  0  0  0  0
 21  7  1  0  0  0  0
 21 27  1  0  0  0  0
 22  2  1  0  0  0  0
 22  6  1  0  0  0  0
 23 10  2  0  0  0  0
 23 30  1  0  0  0  0
 24  2  1  0  0  0  0
 25 19  1  0  0  0  0
 27  1  1  1  0  0  0
 27 25  1  0  0  0  0
 28 23  1  0  0  0  0
 29 35  2  0  0  0  0
 30 31  2  0  0  0  0
 30 29  1  0  0  0  0
 31 34  1  0  0  0  0
 34 32  2  0  0  0  0
 34 33  1  0  0  0  0
 35 33  1  0  0  0  0
 36 37  1  0  0  0  0
 37  4  1  0  0  0  0
M  END
>  <MODEL>
9

>  <REMARK>
 VINA RESULT:      -7.3      2.413      6.570
  Name = 
  2 active torsions:
  status: ('A' for Active; 'I' for Inactive)
    1  A    between atoms: N_4  and  C_37
    2  A    between atoms: C_23  and  C_30
                            x       y       z     vdW  Elec       q    Type
                         _______ _______ _______ _____ _____    ______ ____

>  <TORSDO>
F 2

$$$$
