=
 OpenBabel11112417433D

 28 32  0  0  1  0  0  0  0  0999 V2000
  190.3690  174.5940  141.8360 C   0  0  2  0  0  3  0  0  0  0  0  0
  187.6370  178.6760  142.0690 O   0  0  0  0  0  1  0  0  0  0  0  0
  188.9700  174.7220  147.4800 C   0  0  0  0  0  2  0  0  0  0  0  0
  188.5380  172.3160  142.3340 C   0  0  0  0  0  2  0  0  0  0  0  0
  187.7190  176.4510  146.3490 N   0  0  0  0  0  0  0  0  0  0  0  0
  191.6060  175.3590  142.3080 C   0  0  0  0  0  2  0  0  0  0  0  0
  187.4180  177.0210  140.3860 C   0  0  0  0  0  1  0  0  0  0  0  0
  186.9470  177.5040  141.7460 C   0  0  1  0  0  0  0  0  0  0  0  0
  184.6610  177.6450  142.9430 C   0  0  2  0  0  3  0  0  0  0  0  0
  187.2170  176.4150  142.8080 C   0  0  2  0  0  3  0  0  0  0  0  0
  193.2140  176.7760  145.0080 C   0  0  0  0  0  1  0  0  0  0  0  0
  189.0750  176.7080  144.4060 C   0  0  1  0  0  3  0  0  0  0  0  0
  185.5510  177.8230  144.1650 C   0  0  0  0  0  2  0  0  0  0  0  0
  185.4490  177.8230  141.6380 C   0  0  0  0  0  2  0  0  0  0  0  0
  191.8540  176.2600  144.5880 C   0  0  2  0  0  3  0  0  0  0  0  0
  189.1520  174.6910  142.7770 C   0  0  2  0  0  3  0  0  0  0  0  0
  188.8590  175.6280  146.5140 C   0  0  0  0  0  0  0  0  0  0  0  0
  183.5200  178.6400  142.9880 C   0  0  0  0  0  1  0  0  0  0  0  0
  191.0570  176.0450  145.7310 O   0  0  0  0  0  0  0  0  0  0  0  0
  188.0470  173.7590  142.2720 C   0  0  0  0  0  2  0  0  0  0  0  0
  190.7270  173.1690  141.4850 C   0  0  0  0  0  3  0  0  0  0  0  0
  189.8770  172.1470  141.6670 C   0  0  0  0  0  3  0  0  0  0  0  0
  192.0210  175.0090  143.7310 C   0  0  0  0  0  2  0  0  0  0  0  0
  187.7780  177.1640  145.0870 C   0  0  1  0  0  3  0  0  0  0  0  0
  189.7530  175.6700  145.3370 C   0  0  2  0  0  3  0  0  0  0  0  0
  186.6290  176.7390  144.1900 C   0  0  2  0  0  3  0  0  0  0  0  0
  186.6990  176.6780  147.3600 C   0  0  0  0  0  1  0  0  0  0  0  0
  188.7110  176.1580  143.0130 C   0  0  1  0  0  3  0  0  0  0  0  0
  1 21  1  1  0  0  0
  1  6  1  0  0  0  0
  1 16  1  0  0  0  0
  5 17  1  0  0  0  0
  5 27  1  0  0  0  0
  6 23  1  0  0  0  0
  8  7  1  6  0  0  0
  8  2  1  0  0  0  0
  8 10  1  0  0  0  0
  9 18  1  1  0  0  0
  9 13  1  0  0  0  0
 10 28  1  0  0  0  0
 10 26  1  0  0  0  0
 12 24  1  0  0  0  0
 12 25  1  0  0  0  0
 13 26  1  0  0  0  0
 14  8  1  0  0  0  0
 14  9  1  0  0  0  0
 15 11  1  0  0  0  0
 15 19  1  0  0  0  0
 16 28  1  0  0  0  0
 17  3  2  0  0  0  0
 20  4  1  0  0  0  0
 20 16  1  0  0  0  0
 21 22  2  0  0  0  0
 22  4  1  0  0  0  0
 23 15  1  0  0  0  0
 24  5  1  0  0  0  0
 25 19  1  0  0  0  0
 25 17  1  0  0  0  0
 26 24  1  0  0  0  0
 28 12  1  0  0  0  0
M  END
>  <MODEL>
1

>  <REMARK>
 VINA RESULT:      -8.8      0.000      0.000
  Name = 
  0 active torsions:
  status: ('A' for Active; 'I' for Inactive)
                            x       y       z     vdW  Elec       q    Type
                         _______ _______ _______ _____ _____    ______ ____

>  <TORSDO>
F 0

$$$$
=
 OpenBabel11112417433D

 28 32  0  0  1  0  0  0  0  0999 V2000
  190.9160  173.7190  141.4590 C   0  0  2  0  0  3  0  0  0  0  0  0
  188.6770  178.0860  141.7620 O   0  0  0  0  0  1  0  0  0  0  0  0
  192.0660  175.2230  146.9580 C   0  0  0  0  0  2  0  0  0  0  0  0
  189.4010  171.8640  143.2070 C   0  0  0  0  0  2  0  0  0  0  0  0
  190.5090  176.8250  146.0440 N   0  0  0  0  0  0  0  0  0  0  0  0
  192.2600  174.3930  141.1810 C   0  0  0  0  0  2  0  0  0  0  0  0
  187.7080  176.1580  140.7830 C   0  0  0  0  0  1  0  0  0  0  0  0
  187.8790  176.9760  142.0500 C   0  0  1  0  0  0  0  0  0  0  0  0
  186.3280  177.6720  143.9970 C   0  0  2  0  0  3  0  0  0  0  0  0
  188.5410  176.1100  143.1440 C   0  0  2  0  0  3  0  0  0  0  0  0
  194.9110  176.1200  142.5490 C   0  0  0  0  0  1  0  0  0  0  0  0
  190.9110  176.4820  143.7200 C   0  0  1  0  0  3  0  0  0  0  0  0
  187.6600  177.9830  144.6650 C   0  0  0  0  0  2  0  0  0  0  0  0
  186.4880  177.4630  142.4860 C   0  0  0  0  0  2  0  0  0  0  0  0
  193.4860  175.7140  142.8610 C   0  0  2  0  0  3  0  0  0  0  0  0
  190.2220  174.1740  142.7570 C   0  0  2  0  0  3  0  0  0  0  0  0
  191.5820  175.9100  145.9300 C   0  0  0  0  0  0  0  0  0  0  0  0
  185.3490  178.7970  144.2540 C   0  0  0  0  0  1  0  0  0  0  0  0
  193.2480  175.8540  144.2440 O   0  0  0  0  0  0  0  0  0  0  0  0
  188.9770  173.3140  142.9940 C   0  0  0  0  0  2  0  0  0  0  0  0
  191.0440  172.2170  141.3580 C   0  0  0  0  0  3  0  0  0  0  0  0
  190.3210  171.3800  142.1170 C   0  0  0  0  0  3  0  0  0  0  0  0
  193.2320  174.3000  142.3500 C   0  0  0  0  0  2  0  0  0  0  0  0
  190.0450  177.2410  144.7330 C   0  0  1  0  0  3  0  0  0  0  0  0
  191.8890  175.5820  144.5200 C   0  0  2  0  0  3  0  0  0  0  0  0
  188.6100  176.7940  144.5180 C   0  0  2  0  0  3  0  0  0  0  0  0
  190.0250  177.3960  147.2910 C   0  0  0  0  0  1  0  0  0  0  0  0
  189.9700  175.7040  142.7800 C   0  0  1  0  0  3  0  0  0  0  0  0
  1  6  1  1  0  0  0
  1 16  1  0  0  0  0
  2  8  1  0  0  0  0
  5 27  1  0  0  0  0
  6 23  1  0  0  0  0
  8  7  1  6  0  0  0
  8 14  1  0  0  0  0
  8 10  1  0  0  0  0
  9 18  1  6  0  0  0
  9 13  1  0  0  0  0
 10 26  1  0  0  0  0
 11 15  1  0  0  0  0
 12 25  1  0  0  0  0
 12 24  1  0  0  0  0
 14  9  1  0  0  0  0
 15 19  1  0  0  0  0
 16 28  1  0  0  0  0
 16 20  1  0  0  0  0
 17  5  1  0  0  0  0
 17  3  2  0  0  0  0
 19 25  1  0  0  0  0
 20  4  1  0  0  0  0
 21  1  1  0  0  0  0
 21 22  2  0  0  0  0
 22  4  1  0  0  0  0
 23 15  1  0  0  0  0
 24  5  1  0  0  0  0
 25 17  1  0  0  0  0
 26 13  1  0  0  0  0
 26 24  1  0  0  0  0
 28 10  1  0  0  0  0
 28 12  1  0  0  0  0
M  END
>  <MODEL>
2

>  <REMARK>
 VINA RESULT:      -8.1      1.621      2.034
  Name = 
  0 active torsions:
  status: ('A' for Active; 'I' for Inactive)
                            x       y       z     vdW  Elec       q    Type
                         _______ _______ _______ _____ _____    ______ ____

>  <TORSDO>
F 0

$$$$
=
 OpenBabel11112417433D

 28 32  0  0  1  0  0  0  0  0999 V2000
  186.1930  176.4210  142.9780 C   0  0  2  0  0  3  0  0  0  0  0  0
  188.9950  172.4480  143.7200 O   0  0  0  0  0  1  0  0  0  0  0  0
  191.4040  178.8390  143.8880 C   0  0  0  0  0  2  0  0  0  0  0  0
  187.0660  177.6080  140.4050 C   0  0  0  0  0  2  0  0  0  0  0  0
  191.6940  176.4470  143.7410 N   0  0  0  0  0  0  0  0  0  0  0  0
  186.0330  176.6270  144.4850 C   0  0  0  0  0  2  0  0  0  0  0  0
  187.4020  172.6480  141.9760 C   0  0  0  0  0  1  0  0  0  0  0  0
  188.8490  172.8460  142.3880 C   0  0  1  0  0  0  0  0  0  0  0  0
  191.1400  172.4610  141.2530 C   0  0  2  0  0  3  0  0  0  0  0  0
  189.2380  174.3330  142.2280 C   0  0  2  0  0  3  0  0  0  0  0  0
  187.5450  177.7250  147.3820 C   0  0  0  0  0  1  0  0  0  0  0  0
  189.4680  175.7510  144.2340 C   0  0  1  0  0  3  0  0  0  0  0  0
  191.6120  173.3640  142.3840 C   0  0  0  0  0  2  0  0  0  0  0  0
  189.7180  171.9400  141.5010 C   0  0  0  0  0  2  0  0  0  0  0  0
  187.8800  177.3150  145.9630 C   0  0  2  0  0  3  0  0  0  0  0  0
  187.6530  176.3670  142.4860 C   0  0  2  0  0  3  0  0  0  0  0  0
  190.9510  177.6050  144.0740 C   0  0  0  0  0  0  0  0  0  0  0  0
  192.0890  171.2930  141.0960 C   0  0  0  0  0  1  0  0  0  0  0  0
  189.1730  177.7720  145.6330 O   0  0  0  0  0  0  0  0  0  0  0  0
  187.6690  176.3190  140.9550 C   0  0  0  0  0  2  0  0  0  0  0  0
  185.3530  177.4170  142.2140 C   0  0  0  0  0  3  0  0  0  0  0  0
  185.7290  177.9160  141.0260 C   0  0  0  0  0  3  0  0  0  0  0  0
  186.8040  177.8300  145.0120 C   0  0  0  0  0  2  0  0  0  0  0  0
  190.8640  175.2600  143.8290 C   0  0  1  0  0  3  0  0  0  0  0  0
  189.5310  177.2970  144.3510 C   0  0  2  0  0  3  0  0  0  0  0  0
  190.7310  174.6100  142.4630 C   0  0  2  0  0  3  0  0  0  0  0  0
  193.1260  176.4160  143.4920 C   0  0  0  0  0  1  0  0  0  0  0  0
  188.4630  175.2430  143.1820 C   0  0  1  0  0  3  0  0  0  0  0  0
  1 21  1  6  0  0  0
  1  6  1  0  0  0  0
  3 17  2  0  0  0  0
  4 20  1  0  0  0  0
  4 22  1  0  0  0  0
  5 24  1  0  0  0  0
  5 17  1  0  0  0  0
  6 23  1  0  0  0  0
  8  7  1  6  0  0  0
  8  2  1  0  0  0  0
  9 18  1  1  0  0  0
  9 14  1  0  0  0  0
  9 13  1  0  0  0  0
 10  8  1  0  0  0  0
 10 26  1  0  0  0  0
 10 28  1  0  0  0  0
 12 25  1  0  0  0  0
 13 26  1  0  0  0  0
 14  8  1  0  0  0  0
 15 11  1  0  0  0  0
 16  1  1  0  0  0  0
 16 28  1  0  0  0  0
 17 25  1  0  0  0  0
 19 15  1  0  0  0  0
 20 16  1  0  0  0  0
 22 21  2  0  0  0  0
 23 15  1  0  0  0  0
 24 12  1  0  0  0  0
 25 19  1  0  0  0  0
 26 24  1  0  0  0  0
 27  5  1  0  0  0  0
 28 12  1  0  0  0  0
M  END
>  <MODEL>
3

>  <REMARK>
 VINA RESULT:      -7.9      1.772      5.653
  Name = 
  0 active torsions:
  status: ('A' for Active; 'I' for Inactive)
                            x       y       z     vdW  Elec       q    Type
                         _______ _______ _______ _____ _____    ______ ____

>  <TORSDO>
F 0

$$$$
=
 OpenBabel11112417433D

 28 32  0  0  1  0  0  0  0  0999 V2000
  194.0160  174.0330  145.7300 C   0  0  2  0  0  3  0  0  0  0  0  0
  189.3160  174.5410  147.0840 O   0  0  0  0  0  1  0  0  0  0  0  0
  191.2810  173.4680  140.6290 C   0  0  0  0  0  2  0  0  0  0  0  0
  194.6950  176.4190  144.1060 C   0  0  0  0  0  2  0  0  0  0  0  0
  189.6590  174.1330  142.2890 N   0  0  0  0  0  0  0  0  0  0  0  0
  193.8930  172.5090  145.7630 C   0  0  0  0  0  2  0  0  0  0  0  0
  191.0760  175.9430  147.8290 C   0  0  0  0  0  1  0  0  0  0  0  0
  189.9920  175.7270  146.7880 C   0  0  1  0  0  0  0  0  0  0  0  0
  188.2960  177.2540  145.5740 C   0  0  2  0  0  3  0  0  0  0  0  0
  190.6280  175.6440  145.3820 C   0  0  2  0  0  3  0  0  0  0  0  0
  192.6910  169.7180  144.1340 C   0  0  0  0  0  1  0  0  0  0  0  0
  190.8140  173.4550  144.2600 C   0  0  1  0  0  3  0  0  0  0  0  0
  188.2010  176.0510  144.6450 C   0  0  0  0  0  2  0  0  0  0  0  0
  189.0050  176.9000  146.8880 C   0  0  0  0  0  2  0  0  0  0  0  0
  192.5380  171.2250  144.1550 C   0  0  2  0  0  3  0  0  0  0  0  0
  192.9940  174.7440  144.8230 C   0  0  2  0  0  3  0  0  0  0  0  0
  190.8380  173.4660  141.8810 C   0  0  0  0  0  0  0  0  0  0  0  0
  186.9100  177.7850  145.8700 C   0  0  0  0  0  1  0  0  0  0  0  0
  191.9090  171.6510  142.9660 O   0  0  0  0  0  0  0  0  0  0  0  0
  193.3280  176.2370  144.7570 C   0  0  0  0  0  2  0  0  0  0  0  0
  195.4410  174.4440  145.4430 C   0  0  0  0  0  3  0  0  0  0  0  0
  195.7450  175.5510  144.7480 C   0  0  0  0  0  3  0  0  0  0  0  0
  193.8990  171.8760  144.3770 C   0  0  0  0  0  2  0  0  0  0  0  0
  189.5560  174.1590  143.7360 C   0  0  1  0  0  3  0  0  0  0  0  0
  191.6660  173.0410  143.0310 C   0  0  2  0  0  3  0  0  0  0  0  0
  189.6010  175.5900  144.2410 C   0  0  2  0  0  3  0  0  0  0  0  0
  188.6110  174.6010  141.3950 C   0  0  0  0  0  1  0  0  0  0  0  0
  191.5320  174.4200  145.2230 C   0  0  1  0  0  3  0  0  0  0  0  0
  1 21  1  6  0  0  0
  1  6  1  0  0  0  0
  3 17  2  0  0  0  0
  4 22  1  0  0  0  0
  4 20  1  0  0  0  0
  5 24  1  0  0  0  0
  8 14  1  0  0  0  0
  8  2  1  0  0  0  0
  8  7  1  1  0  0  0
  9 18  1  1  0  0  0
  9 14  1  0  0  0  0
 10  8  1  0  0  0  0
 11 15  1  0  0  0  0
 12 28  1  0  0  0  0
 13  9  1  0  0  0  0
 15 23  1  0  0  0  0
 16 28  1  0  0  0  0
 16  1  1  0  0  0  0
 17  5  1  0  0  0  0
 17 25  1  0  0  0  0
 19 25  1  0  0  0  0
 19 15  1  0  0  0  0
 20 16  1  0  0  0  0
 22 21  2  0  0  0  0
 23  6  1  0  0  0  0
 24 26  1  0  0  0  0
 24 12  1  0  0  0  0
 25 12  1  0  0  0  0
 26 13  1  0  0  0  0
 26 10  1  0  0  0  0
 27  5  1  0  0  0  0
 28 10  1  0  0  0  0
M  END
>  <MODEL>
4

>  <REMARK>
 VINA RESULT:      -7.8      2.667      5.578
  Name = 
  0 active torsions:
  status: ('A' for Active; 'I' for Inactive)
                            x       y       z     vdW  Elec       q    Type
                         _______ _______ _______ _____ _____    ______ ____

>  <TORSDO>
F 0

$$$$
=
 OpenBabel11112417433D

 28 32  0  0  1  0  0  0  0  0999 V2000
  189.2790  177.0560  145.3420 C   0  0  2  0  0  3  0  0  0  0  0  0
  193.4420  176.4160  142.8030 O   0  0  0  0  0  1  0  0  0  0  0  0
  187.8160  172.6660  141.8190 C   0  0  0  0  0  2  0  0  0  0  0  0
  188.9410  174.6490  147.0400 C   0  0  0  0  0  2  0  0  0  0  0  0
  190.1830  173.0780  141.5740 N   0  0  0  0  0  0  0  0  0  0  0  0
  188.6930  177.9160  144.2210 C   0  0  0  0  0  2  0  0  0  0  0  0
  193.3470  176.7030  145.1540 C   0  0  0  0  0  1  0  0  0  0  0  0
  193.3530  175.7100  144.0060 C   0  0  1  0  0  0  0  0  0  0  0  0
  194.4500  173.4080  143.5890 C   0  0  2  0  0  3  0  0  0  0  0  0
  192.0570  174.8690  144.0380 C   0  0  2  0  0  3  0  0  0  0  0  0
  187.2640  177.9090  141.0840 C   0  0  0  0  0  1  0  0  0  0  0  0
  190.2770  175.3160  142.3880 C   0  0  1  0  0  3  0  0  0  0  0  0
  193.4190  173.3560  142.4710 C   0  0  0  0  0  2  0  0  0  0  0  0
  194.5990  174.8250  144.1570 C   0  0  0  0  0  2  0  0  0  0  0  0
  188.0590  177.0180  142.0160 C   0  0  2  0  0  3  0  0  0  0  0  0
  189.7430  175.6530  144.9040 C   0  0  2  0  0  3  0  0  0  0  0  0
  188.8540  173.4950  141.8240 C   0  0  0  0  0  0  0  0  0  0  0  0
  195.7900  172.9220  143.0770 C   0  0  0  0  0  1  0  0  0  0  0  0
  187.9650  175.6790  141.5830 O   0  0  0  0  0  0  0  0  0  0  0  0
  190.1570  174.8480  146.1390 C   0  0  0  0  0  2  0  0  0  0  0  0
  188.3470  177.0220  146.5290 C   0  0  0  0  0  3  0  0  0  0  0  0
  188.2320  175.9470  147.3240 C   0  0  0  0  0  3  0  0  0  0  0  0
  187.5800  177.2180  143.4500 C   0  0  0  0  0  2  0  0  0  0  0  0
  191.1220  174.1410  141.8790 C   0  0  1  0  0  3  0  0  0  0  0  0
  188.7940  174.8630  142.3840 C   0  0  2  0  0  3  0  0  0  0  0  0
  192.0380  173.7230  143.0140 C   0  0  2  0  0  3  0  0  0  0  0  0
  190.5610  171.8170  140.9550 C   0  0  0  0  0  1  0  0  0  0  0  0
  190.8080  175.7140  143.7790 C   0  0  1  0  0  3  0  0  0  0  0  0
  1  6  1  6  0  0  0
  1 21  1  0  0  0  0
  2  8  1  0  0  0  0
  3 17  2  0  0  0  0
  4 22  1  0  0  0  0
  5 17  1  0  0  0  0
  5 24  1  0  0  0  0
  8 10  1  0  0  0  0
  8 14  1  0  0  0  0
  8  7  1  1  0  0  0
  9 18  1  6  0  0  0
  9 14  1  0  0  0  0
 11 15  1  0  0  0  0
 12 28  1  0  0  0  0
 13 26  1  0  0  0  0
 13  9  1  0  0  0  0
 15 23  1  0  0  0  0
 16  1  1  0  0  0  0
 16 20  1  0  0  0  0
 17 25  1  0  0  0  0
 19 15  1  0  0  0  0
 19 25  1  0  0  0  0
 20  4  1  0  0  0  0
 21 22  2  0  0  0  0
 23  6  1  0  0  0  0
 24 12  1  0  0  0  0
 24 26  1  0  0  0  0
 25 12  1  0  0  0  0
 26 10  1  0  0  0  0
 27  5  1  0  0  0  0
 28 10  1  0  0  0  0
 28 16  1  0  0  0  0
M  END
>  <MODEL>
5

>  <REMARK>
 VINA RESULT:      -7.7      2.128      6.669
  Name = 
  0 active torsions:
  status: ('A' for Active; 'I' for Inactive)
                            x       y       z     vdW  Elec       q    Type
                         _______ _______ _______ _____ _____    ______ ____

>  <TORSDO>
F 0

$$$$
=
 OpenBabel11112417433D

 28 32  0  0  1  0  0  0  0  0999 V2000
  187.3100  178.1790  143.8610 C   0  0  2  0  0  3  0  0  0  0  0  0
  192.1030  177.5590  142.9520 O   0  0  0  0  0  1  0  0  0  0  0  0
  187.4280  172.6660  142.0130 C   0  0  0  0  0  2  0  0  0  0  0  0
  186.6580  176.4630  146.1900 C   0  0  0  0  0  2  0  0  0  0  0  0
  189.7050  173.4300  142.2640 N   0  0  0  0  0  0  0  0  0  0  0  0
  187.0380  178.4800  142.3870 C   0  0  0  0  0  2  0  0  0  0  0  0
  191.2400  178.5920  144.9030 C   0  0  0  0  0  1  0  0  0  0  0  0
  191.6960  177.2940  144.2630 C   0  0  1  0  0  0  0  0  0  0  0  0
  193.0640  175.2490  145.0550 C   0  0  2  0  0  3  0  0  0  0  0  0
  190.5360  176.2740  144.2670 C   0  0  2  0  0  3  0  0  0  0  0  0
  186.6880  177.1420  139.2290 C   0  0  0  0  0  1  0  0  0  0  0  0
  189.3420  175.7830  142.1640 C   0  0  1  0  0  3  0  0  0  0  0  0
  192.4500  174.6240  143.8100 C   0  0  0  0  0  2  0  0  0  0  0  0
  192.9020  176.7740  145.0610 C   0  0  0  0  0  2  0  0  0  0  0  0
  187.2190  176.7900  140.6030 C   0  0  2  0  0  3  0  0  0  0  0  0
  188.0080  176.8310  144.1260 C   0  0  2  0  0  3  0  0  0  0  0  0
  188.3340  173.6360  141.9770 C   0  0  0  0  0  0  0  0  0  0  0  0
  194.5330  174.8930  145.1380 C   0  0  0  0  0  1  0  0  0  0  0  0
  187.3830  175.3930  140.7010 O   0  0  0  0  0  0  0  0  0  0  0  0
  188.0750  176.5840  145.6370 C   0  0  0  0  0  2  0  0  0  0  0  0
  186.0550  178.3610  144.6810 C   0  0  0  0  0  3  0  0  0  0  0  0
  185.7860  177.6140  145.7630 C   0  0  0  0  0  3  0  0  0  0  0  0
  186.2930  177.3600  141.6730 C   0  0  0  0  0  2  0  0  0  0  0  0
  190.4030  174.6960  142.3800 C   0  0  1  0  0  3  0  0  0  0  0  0
  187.9820  175.0720  141.9410 C   0  0  2  0  0  3  0  0  0  0  0  0
  190.9420  174.8720  143.7880 C   0  0  2  0  0  3  0  0  0  0  0  0
  190.3670  172.1350  142.2930 C   0  0  0  0  0  1  0  0  0  0  0  0
  189.3660  176.7200  143.3870 C   0  0  1  0  0  3  0  0  0  0  0  0
  1  6  1  6  0  0  0
  1 16  1  0  0  0  0
  1 21  1  0  0  0  0
  2  8  1  0  0  0  0
  5 27  1  0  0  0  0
  5 24  1  0  0  0  0
  8 10  1  0  0  0  0
  8  7  1  1  0  0  0
  8 14  1  0  0  0  0
  9 14  1  0  0  0  0
  9 18  1  6  0  0  0
 11 15  1  0  0  0  0
 12 24  1  0  0  0  0
 12 28  1  0  0  0  0
 13  9  1  0  0  0  0
 15 19  1  0  0  0  0
 15 23  1  0  0  0  0
 16 20  1  0  0  0  0
 17  3  2  0  0  0  0
 17  5  1  0  0  0  0
 19 25  1  0  0  0  0
 20  4  1  0  0  0  0
 21 22  2  0  0  0  0
 22  4  1  0  0  0  0
 23  6  1  0  0  0  0
 24 26  1  0  0  0  0
 25 17  1  0  0  0  0
 25 12  1  0  0  0  0
 26 13  1  0  0  0  0
 26 10  1  0  0  0  0
 28 16  1  0  0  0  0
 28 10  1  0  0  0  0
M  END
>  <MODEL>
6

>  <REMARK>
 VINA RESULT:      -7.3      1.889      6.272
  Name = 
  0 active torsions:
  status: ('A' for Active; 'I' for Inactive)
                            x       y       z     vdW  Elec       q    Type
                         _______ _______ _______ _____ _____    ______ ____

>  <TORSDO>
F 0

$$$$
=
 OpenBabel11112417433D

 28 32  0  0  1  0  0  0  0  0999 V2000
  196.6610  174.0670  145.2990 C   0  0  2  0  0  3  0  0  0  0  0  0
  192.2360  174.9370  147.2600 O   0  0  0  0  0  1  0  0  0  0  0  0
  193.2610  170.6700  142.0230 C   0  0  0  0  0  2  0  0  0  0  0  0
  196.6270  175.2340  142.5740 C   0  0  0  0  0  2  0  0  0  0  0  0
  191.8450  172.0260  143.4330 N   0  0  0  0  0  0  0  0  0  0  0  0
  196.8170  172.7980  146.1380 C   0  0  0  0  0  2  0  0  0  0  0  0
  193.8180  176.6240  146.7410 C   0  0  0  0  0  1  0  0  0  0  0  0
  192.6320  175.8140  146.2480 C   0  0  1  0  0  0  0  0  0  0  0  0
  190.5140  176.3360  144.8600 C   0  0  2  0  0  3  0  0  0  0  0  0
  193.0310  175.0240  144.9810 C   0  0  2  0  0  3  0  0  0  0  0  0
  195.8770  169.5020  146.5100 C   0  0  0  0  0  1  0  0  0  0  0  0
  193.4130  172.5920  145.1360 C   0  0  1  0  0  3  0  0  0  0  0  0
  190.4820  174.8200  144.7340 C   0  0  0  0  0  2  0  0  0  0  0  0
  191.4830  176.7920  145.9600 C   0  0  0  0  0  2  0  0  0  0  0  0
  195.4640  170.7680  145.7890 C   0  0  2  0  0  3  0  0  0  0  0  0
  195.3920  174.1110  144.4260 C   0  0  2  0  0  3  0  0  0  0  0  0
  193.0400  171.3180  143.1620 C   0  0  0  0  0  0  0  0  0  0  0  0
  189.1250  176.8580  145.1580 C   0  0  0  0  0  1  0  0  0  0  0  0
  194.5810  170.4460  144.7380 O   0  0  0  0  0  0  0  0  0  0  0  0
  195.4400  175.3500  143.5260 C   0  0  0  0  0  2  0  0  0  0  0  0
  197.9220  174.3440  144.5160 C   0  0  0  0  0  3  0  0  0  0  0  0
  197.9060  174.9170  143.3020 C   0  0  0  0  0  3  0  0  0  0  0  0
  196.7050  171.5190  145.3180 C   0  0  0  0  0  2  0  0  0  0  0  0
  191.9810  172.8230  144.6380 C   0  0  1  0  0  3  0  0  0  0  0  0
  194.1090  171.6330  144.1340 C   0  0  2  0  0  3  0  0  0  0  0  0
  191.8550  174.2990  144.3090 C   0  0  2  0  0  3  0  0  0  0  0  0
  190.5970  171.8720  142.7020 C   0  0  0  0  0  1  0  0  0  0  0  0
  194.0980  173.9660  145.2660 C   0  0  1  0  0  3  0  0  0  0  0  0
  1 21  1  6  0  0  0
  1  6  1  0  0  0  0
  3 17  2  0  0  0  0
  4 22  1  0  0  0  0
  4 20  1  0  0  0  0
  5 24  1  0  0  0  0
  8  7  1  1  0  0  0
  8  2  1  0  0  0  0
  9 18  1  1  0  0  0
  9 14  1  0  0  0  0
 10 28  1  0  0  0  0
 10  8  1  0  0  0  0
 12 28  1  0  0  0  0
 13  9  1  0  0  0  0
 14  8  1  0  0  0  0
 15 11  1  0  0  0  0
 16 28  1  0  0  0  0
 16  1  1  0  0  0  0
 17  5  1  0  0  0  0
 17 25  1  0  0  0  0
 19 15  1  0  0  0  0
 20 16  1  0  0  0  0
 22 21  2  0  0  0  0
 23 15  1  0  0  0  0
 23  6  1  0  0  0  0
 24 12  1  0  0  0  0
 25 19  1  0  0  0  0
 25 12  1  0  0  0  0
 26 24  1  0  0  0  0
 26 13  1  0  0  0  0
 26 10  1  0  0  0  0
 27  5  1  0  0  0  0
M  END
>  <MODEL>
7

>  <REMARK>
 VINA RESULT:      -7.3      3.993      7.090
  Name = 
  0 active torsions:
  status: ('A' for Active; 'I' for Inactive)
                            x       y       z     vdW  Elec       q    Type
                         _______ _______ _______ _____ _____    ______ ____

>  <TORSDO>
F 0

$$$$
=
 OpenBabel11112417433D

 28 32  0  0  1  0  0  0  0  0999 V2000
  191.6430  173.6460  141.2540 C   0  0  2  0  0  3  0  0  0  0  0  0
  189.0690  177.6320  142.5460 O   0  0  0  0  0  1  0  0  0  0  0  0
  194.0810  174.9850  146.3610 C   0  0  0  0  0  2  0  0  0  0  0  0
  190.9040  171.5020  143.1630 C   0  0  0  0  0  2  0  0  0  0  0  0
  192.1510  176.4020  146.0480 N   0  0  0  0  0  0  0  0  0  0  0  0
  192.7670  174.5170  140.6910 C   0  0  0  0  0  2  0  0  0  0  0  0
  188.1050  175.6450  141.6860 C   0  0  0  0  0  1  0  0  0  0  0  0
  188.5200  176.4060  142.9310 C   0  0  1  0  0  0  0  0  0  0  0  0
  187.4970  176.7670  145.2780 C   0  0  2  0  0  3  0  0  0  0  0  0
  189.5580  175.5810  143.7240 C   0  0  2  0  0  3  0  0  0  0  0  0
  195.4670  176.5200  141.4560 C   0  0  0  0  0  1  0  0  0  0  0  0
  191.9330  176.2500  143.6800 C   0  0  1  0  0  3  0  0  0  0  0  0
  188.9140  177.2230  145.5920 C   0  0  0  0  0  2  0  0  0  0  0  0
  187.2570  176.6680  143.7650 C   0  0  0  0  0  2  0  0  0  0  0  0
  194.2420  175.9010  142.0980 C   0  0  2  0  0  3  0  0  0  0  0  0
  191.2850  173.9260  142.7260 C   0  0  2  0  0  3  0  0  0  0  0  0
  193.2520  175.6540  145.5680 C   0  0  0  0  0  0  0  0  0  0  0  0
  186.4990  177.7270  145.8890 C   0  0  0  0  0  1  0  0  0  0  0  0
  194.3810  175.9270  143.5010 O   0  0  0  0  0  0  0  0  0  0  0  0
  190.2670  172.8870  143.2060 C   0  0  0  0  0  2  0  0  0  0  0  0
  191.9170  172.1850  140.9840 C   0  0  0  0  0  3  0  0  0  0  0  0
  191.5380  171.2130  141.8280 C   0  0  0  0  0  3  0  0  0  0  0  0
  194.0280  174.4950  141.5450 C   0  0  0  0  0  2  0  0  0  0  0  0
  191.2960  176.8210  144.9530 C   0  0  1  0  0  3  0  0  0  0  0  0
  193.1940  175.4530  144.1040 C   0  0  2  0  0  3  0  0  0  0  0  0
  189.9220  176.1900  145.0870 C   0  0  2  0  0  3  0  0  0  0  0  0
  191.9660  176.8280  147.4260 C   0  0  0  0  0  1  0  0  0  0  0  0
  190.8690  175.4010  142.9570 C   0  0  1  0  0  3  0  0  0  0  0  0
  1  6  1  1  0  0  0
  1 16  1  0  0  0  0
  2  8  1  0  0  0  0
  4 20  1  0  0  0  0
  5 27  1  0  0  0  0
  6 23  1  0  0  0  0
  8  7  1  6  0  0  0
  8 10  1  0  0  0  0
  8 14  1  0  0  0  0
  9 13  1  0  0  0  0
  9 18  1  6  0  0  0
 10 26  1  0  0  0  0
 11 15  1  0  0  0  0
 12 25  1  0  0  0  0
 12 24  1  0  0  0  0
 14  9  1  0  0  0  0
 15 19  1  0  0  0  0
 16 28  1  0  0  0  0
 16 20  1  0  0  0  0
 17  5  1  0  0  0  0
 17  3  2  0  0  0  0
 19 25  1  0  0  0  0
 21  1  1  0  0  0  0
 21 22  2  0  0  0  0
 22  4  1  0  0  0  0
 23 15  1  0  0  0  0
 24 26  1  0  0  0  0
 24  5  1  0  0  0  0
 25 17  1  0  0  0  0
 26 13  1  0  0  0  0
 28 12  1  0  0  0  0
 28 10  1  0  0  0  0
M  END
>  <MODEL>
8

>  <REMARK>
 VINA RESULT:      -7.0      2.135      3.324
  Name = 
  0 active torsions:
  status: ('A' for Active; 'I' for Inactive)
                            x       y       z     vdW  Elec       q    Type
                         _______ _______ _______ _____ _____    ______ ____

>  <TORSDO>
F 0

$$$$
=
 OpenBabel11112417433D

 28 32  0  0  1  0  0  0  0  0999 V2000
  190.8980  177.1590  145.5460 C   0  0  2  0  0  3  0  0  0  0  0  0
  194.6890  176.1480  142.5820 O   0  0  0  0  0  1  0  0  0  0  0  0
  189.3160  172.0030  143.3710 C   0  0  0  0  0  2  0  0  0  0  0  0
  191.0130  175.2020  147.7690 C   0  0  0  0  0  2  0  0  0  0  0  0
  191.5780  172.4610  142.6650 N   0  0  0  0  0  0  0  0  0  0  0  0
  190.0860  177.7040  144.3710 C   0  0  0  0  0  2  0  0  0  0  0  0
  194.9110  176.9710  144.7930 C   0  0  0  0  0  1  0  0  0  0  0  0
  194.8340  175.7390  143.9100 C   0  0  1  0  0  0  0  0  0  0  0  0
  196.0500  173.4580  143.8460 C   0  0  2  0  0  3  0  0  0  0  0  0
  193.6320  174.8660  144.3350 C   0  0  2  0  0  3  0  0  0  0  0  0
  188.2240  176.8970  141.5840 C   0  0  0  0  0  1  0  0  0  0  0  0
  191.6010  174.8290  142.9340 C   0  0  1  0  0  3  0  0  0  0  0  0
  194.8750  173.0970  142.9480 C   0  0  0  0  0  2  0  0  0  0  0  0
  196.1590  174.9750  144.0530 C   0  0  0  0  0  2  0  0  0  0  0  0
  189.2180  176.2880  142.5510 C   0  0  2  0  0  3  0  0  0  0  0  0
  191.4100  175.7170  145.3630 C   0  0  2  0  0  3  0  0  0  0  0  0
  190.2690  172.8600  143.0250 C   0  0  0  0  0  0  0  0  0  0  0  0
  197.3370  172.9320  143.2480 C   0  0  0  0  0  1  0  0  0  0  0  0
  189.1750  174.8820  142.4490 O   0  0  0  0  0  0  0  0  0  0  0  0
  192.0640  175.2440  146.6650 C   0  0  0  0  0  2  0  0  0  0  0  0
  190.1530  177.3570  146.8450 C   0  0  0  0  0  3  0  0  0  0  0  0
  190.2450  176.4940  147.8670 C   0  0  0  0  0  3  0  0  0  0  0  0
  188.9350  176.7930  143.9620 C   0  0  0  0  0  2  0  0  0  0  0  0
  192.4590  173.6100  142.5710 C   0  0  1  0  0  3  0  0  0  0  0  0
  190.1760  174.3160  143.2690 C   0  0  2  0  0  3  0  0  0  0  0  0
  193.5620  173.5140  143.6090 C   0  0  2  0  0  3  0  0  0  0  0  0
  191.9680  171.1110  142.2900 C   0  0  0  0  0  1  0  0  0  0  0  0
  192.2920  175.5650  144.0980 C   0  0  1  0  0  3  0  0  0  0  0  0
  1  6  1  6  0  0  0
  1 21  1  0  0  0  0
  2  8  1  0  0  0  0
  4 22  1  0  0  0  0
  5 17  1  0  0  0  0
  8 14  1  0  0  0  0
  8 10  1  0  0  0  0
  8  7  1  1  0  0  0
  9 18  1  6  0  0  0
  9 14  1  0  0  0  0
 11 15  1  0  0  0  0
 12 25  1  0  0  0  0
 12 28  1  0  0  0  0
 13 26  1  0  0  0  0
 13  9  1  0  0  0  0
 15 23  1  0  0  0  0
 16  1  1  0  0  0  0
 16 20  1  0  0  0  0
 17 25  1  0  0  0  0
 17  3  2  0  0  0  0
 19 15  1  0  0  0  0
 19 25  1  0  0  0  0
 20  4  1  0  0  0  0
 21 22  2  0  0  0  0
 23  6  1  0  0  0  0
 24  5  1  0  0  0  0
 24 12  1  0  0  0  0
 24 26  1  0  0  0  0
 26 10  1  0  0  0  0
 27  5  1  0  0  0  0
 28 10  1  0  0  0  0
 28 16  1  0  0  0  0
M  END
>  <MODEL>
9

>  <REMARK>
 VINA RESULT:      -6.9      2.798      7.255
  Name = 
  0 active torsions:
  status: ('A' for Active; 'I' for Inactive)
                            x       y       z     vdW  Elec       q    Type
                         _______ _______ _______ _____ _____    ______ ____

>  <TORSDO>
F 0

$$$$
