=
 OpenBabel11112417483D

 34 41  0  0  1  0  0  0  0  0999 V2000
  189.8020  173.9020  143.6390 C   0  0  0  0  0  0  0  0  0  0  0  0
  191.8050  172.3750  143.9000 C   0  0  0  0  0  2  0  0  0  0  0  0
  185.9250  178.3180  145.5570 C   0  0  2  0  0  3  0  0  0  0  0  0
  188.1740  175.6040  143.1320 C   0  0  0  0  0  0  0  0  0  0  0  0
  188.1890  177.8340  144.3350 C   0  0  1  0  0  3  0  0  0  0  0  0
  186.8760  176.4560  146.0690 C   0  0  0  0  0  2  0  0  0  0  0  0
  185.4380  176.9460  145.9980 C   0  0  0  0  0  2  0  0  0  0  0  0
  185.3060  177.6120  143.1440 C   0  0  0  0  0  2  0  0  0  0  0  0
  191.5620  174.2410  145.4250 C   0  0  2  0  0  3  0  0  0  0  0  0
  194.2900  176.0190  145.6890 C   0  0  0  0  0  2  0  0  0  0  0  0
  189.6710  177.5450  144.5960 C   0  0  0  0  0  2  0  0  0  0  0  0
  186.6250  177.4440  142.4120 C   0  0  0  0  0  2  0  0  0  0  0  0
  191.3660  175.7570  145.1960 C   0  0  1  0  0  3  0  0  0  0  0  0
  193.0510  172.4230  144.7690 C   0  0  0  0  0  2  0  0  0  0  0  0
  187.6460  176.9310  143.3130 N   0  0  0  0  0  0  0  0  0  0  0  0
  185.3910  178.7380  144.1730 C   0  0  0  0  0  2  0  0  0  0  0  0
  194.0510  174.7380  144.8680 C   0  0  1  0  0  3  0  0  0  0  0  0
  189.2890  175.1830  143.8750 C   0  0  0  0  0  0  0  0  0  0  0  0
  187.3730  177.8300  145.6440 C   0  0  2  0  0  3  0  0  0  0  0  0
  189.8830  176.0690  144.9460 C   0  0  2  0  0  3  0  0  0  0  0  0
  188.1510  173.5300  141.9870 C   0  0  0  0  0  3  0  0  0  0  0  0
  193.3030  176.2260  146.8410 C   0  0  0  0  0  2  0  0  0  0  0  0
  187.6340  174.7660  142.2040 N   0  0  0  0  0  0  0  0  0  0  0  0
  191.8930  176.5960  146.3710 C   0  0  0  0  0  2  0  0  0  0  0  0
  193.0240  173.7670  145.4920 C   0  0  1  0  0  3  0  0  0  0  0  0
  189.2300  173.1060  142.6970 N   0  0  0  0  0  0  0  0  0  0  0  0
  190.9650  173.4650  144.3520 N   0  0  0  0  0  0  0  0  0  0  0  0
  193.7030  175.0740  143.5540 O   0  0  0  0  0  0  0  0  0  0  0  0
  194.5470  176.1330  143.2100 C   0  0  0  0  0  2  0  0  0  0  0  0
  196.7240  176.0130  140.2150 O   0  0  0  0  0  0  0  0  0  0  0  0
  194.6770  175.1050  140.9630 C   0  0  0  0  0  3  0  0  0  0  0  0
  195.1920  175.8430  141.9000 C   0  0  0  0  0  0  0  0  0  0  0  0
  195.6500  175.1660  139.8320 C   0  0  0  0  0  3  0  0  0  0  0  0
  196.4040  176.4080  141.4760 N   0  0  0  0  0  0  0  0  0  0  0  0
  1 18  1  0  0  0  0
  1 27  1  0  0  0  0
  2 27  1  0  0  0  0
  2 14  1  0  0  0  0
  3 16  1  6  0  0  0
  3 19  1  0  0  0  0
  3  7  1  0  0  0  0
  4 15  1  0  0  0  0
  4 18  2  0  0  0  0
  5 11  1  1  0  0  0
  5 19  1  0  0  0  0
  7  6  1  0  0  0  0
  8 16  1  0  0  0  0
  9 27  1  6  0  0  0
  9 25  1  0  0  0  0
 10 22  1  0  0  0  0
 12  8  1  0  0  0  0
 12 15  1  0  0  0  0
 13  9  1  0  0  0  0
 13 24  1  1  0  0  0
 15  5  1  0  0  0  0
 17 28  1  6  0  0  0
 17 25  1  0  0  0  0
 17 10  1  0  0  0  0
 18 20  1  0  0  0  0
 19  6  1  6  0  0  0
 20 11  1  6  0  0  0
 20 13  1  0  0  0  0
 21 23  2  0  0  0  0
 21 26  1  0  0  0  0
 23  4  1  0  0  0  0
 24 22  1  0  0  0  0
 25 14  1  6  0  0  0
 26  1  2  0  0  0  0
 29 28  1  0  0  0  0
 30 34  1  0  0  0  0
 31 32  1  0  0  0  0
 32 29  1  0  0  0  0
 33 30  1  0  0  0  0
 33 31  2  0  0  0  0
 34 32  2  0  0  0  0
M  END
>  <MODEL>
1

>  <REMARK>
 VINA RESULT:      -9.0      0.000      0.000
  Name = 
  3 active torsions:
  status: ('A' for Active; 'I' for Inactive)
    1  A    between atoms: C_17  and  O_28
    2  A    between atoms: O_28  and  C_29
    3  A    between atoms: C_29  and  C_32
                            x       y       z     vdW  Elec       q    Type
                         _______ _______ _______ _____ _____    ______ ____

>  <TORSDO>
F 3

$$$$
=
 OpenBabel11112417483D

 34 41  0  0  1  0  0  0  0  0999 V2000
  190.0280  176.5780  144.7900 C   0  0  0  0  0  0  0  0  0  0  0  0
  192.1680  175.5970  143.8580 C   0  0  0  0  0  2  0  0  0  0  0  0
  184.3610  178.9920  144.2710 C   0  0  2  0  0  3  0  0  0  0  0  0
  187.8850  177.0810  145.7670 C   0  0  0  0  0  0  0  0  0  0  0  0
  185.7400  176.7730  144.4540 C   0  0  1  0  0  3  0  0  0  0  0  0
  186.4020  179.1090  143.5930 C   0  0  0  0  0  2  0  0  0  0  0  0
  185.4180  180.0860  144.2200 C   0  0  0  0  0  2  0  0  0  0  0  0
  184.9580  178.7190  146.7750 C   0  0  0  0  0  2  0  0  0  0  0  0
  190.2410  175.7750  142.4010 C   0  0  2  0  0  3  0  0  0  0  0  0
  189.5910  172.9900  140.8220 C   0  0  0  0  0  2  0  0  0  0  0  0
  186.5390  175.7700  143.6180 C   0  0  0  0  0  2  0  0  0  0  0  0
  185.6570  177.3760  146.8880 C   0  0  0  0  0  2  0  0  0  0  0  0
  188.7820  175.2830  142.5370 C   0  0  1  0  0  3  0  0  0  0  0  0
  192.5240  174.9270  142.5410 C   0  0  0  0  0  2  0  0  0  0  0  0
  186.4470  177.1100  145.6950 N   0  0  0  0  0  0  0  0  0  0  0  0
  183.8740  178.6820  145.7000 C   0  0  0  0  0  2  0  0  0  0  0  0
  190.7470  173.3000  141.7920 C   0  0  1  0  0  3  0  0  0  0  0  0
  188.6350  176.6360  144.6680 C   0  0  0  0  0  0  0  0  0  0  0  0
  185.3450  178.0140  143.6250 C   0  0  2  0  0  3  0  0  0  0  0  0
  187.9590  176.2850  143.3620 C   0  0  2  0  0  3  0  0  0  0  0  0
  189.8780  177.3640  147.0170 C   0  0  0  0  0  3  0  0  0  0  0  0
  188.9500  174.2260  140.1860 C   0  0  0  0  0  2  0  0  0  0  0  0
  188.5250  177.4320  146.9160 N   0  0  0  0  0  0  0  0  0  0  0  0
  188.1170  175.0500  141.1710 C   0  0  0  0  0  2  0  0  0  0  0  0
  191.2190  174.7710  141.7670 C   0  0  1  0  0  3  0  0  0  0  0  0
  190.6200  176.9340  145.9620 N   0  0  0  0  0  0  0  0  0  0  0  0
  190.8140  176.0870  143.6990 N   0  0  0  0  0  0  0  0  0  0  0  0
  190.4010  172.8970  143.0860 O   0  0  0  0  0  0  0  0  0  0  0  0
  190.6120  171.5160  143.1110 C   0  0  0  0  0  2  0  0  0  0  0  0
  193.6930  171.6130  145.1640 O   0  0  0  0  0  0  0  0  0  0  0  0
  192.5930  170.1470  143.6760 C   0  0  0  0  0  3  0  0  0  0  0  0
  191.8820  171.2240  143.8280 C   0  0  0  0  0  0  0  0  0  0  0  0
  193.7920  170.3390  144.5440 C   0  0  0  0  0  3  0  0  0  0  0  0
  192.5210  172.1210  144.6980 N   0  0  0  0  0  0  0  0  0  0  0  0
  1 26  1  0  0  0  0
  3  7  1  1  0  0  0
  3 16  1  0  0  0  0
  4 23  2  0  0  0  0
  5 11  1  6  0  0  0
  5 15  1  0  0  0  0
  6  7  1  0  0  0  0
  8 12  1  0  0  0  0
  9 13  1  0  0  0  0
  9 27  1  1  0  0  0
 10 17  1  0  0  0  0
 13 24  1  6  0  0  0
 13 20  1  0  0  0  0
 14  2  1  0  0  0  0
 15  4  1  0  0  0  0
 15 12  1  0  0  0  0
 16  8  1  0  0  0  0
 17 28  1  1  0  0  0
 18  1  2  0  0  0  0
 18  4  1  0  0  0  0
 19  6  1  1  0  0  0
 19  3  1  0  0  0  0
 19  5  1  0  0  0  0
 20 11  1  1  0  0  0
 20 18  1  0  0  0  0
 22 10  1  0  0  0  0
 22 24  1  0  0  0  0
 23 21  1  0  0  0  0
 25 17  1  0  0  0  0
 25  9  1  0  0  0  0
 25 14  1  1  0  0  0
 26 21  2  0  0  0  0
 27  2  1  0  0  0  0
 27  1  1  0  0  0  0
 28 29  1  0  0  0  0
 29 32  1  0  0  0  0
 31 32  1  0  0  0  0
 31 33  2  0  0  0  0
 32 34  2  0  0  0  0
 33 30  1  0  0  0  0
 34 30  1  0  0  0  0
M  END
>  <MODEL>
2

>  <REMARK>
 VINA RESULT:      -8.7      2.722      4.755
  Name = 
  3 active torsions:
  status: ('A' for Active; 'I' for Inactive)
    1  A    between atoms: C_17  and  O_28
    2  A    between atoms: O_28  and  C_29
    3  A    between atoms: C_29  and  C_32
                            x       y       z     vdW  Elec       q    Type
                         _______ _______ _______ _____ _____    ______ ____

>  <TORSDO>
F 3

$$$$
=
 OpenBabel11112417483D

 34 41  0  0  1  0  0  0  0  0999 V2000
  191.3820  172.8960  143.2010 C   0  0  0  0  0  0  0  0  0  0  0  0
  188.9760  173.0780  142.4330 C   0  0  0  0  0  2  0  0  0  0  0  0
  197.1790  174.9670  143.7760 C   0  0  2  0  0  3  0  0  0  0  0  0
  193.5060  172.8440  144.3360 C   0  0  0  0  0  0  0  0  0  0  0  0
  194.7820  174.9770  144.8320 C   0  0  1  0  0  3  0  0  0  0  0  0
  195.5590  174.6020  142.4040 C   0  0  0  0  0  2  0  0  0  0  0  0
  197.0160  174.1740  142.4880 C   0  0  0  0  0  2  0  0  0  0  0  0
  196.9360  172.7170  145.0330 C   0  0  0  0  0  2  0  0  0  0  0  0
  190.3570  175.0690  142.4060 C   0  0  2  0  0  3  0  0  0  0  0  0
  188.9190  177.6220  143.8490 C   0  0  0  0  0  2  0  0  0  0  0  0
  193.4190  175.6690  144.7390 C   0  0  0  0  0  2  0  0  0  0  0  0
  195.5910  172.7800  145.7360 C   0  0  0  0  0  2  0  0  0  0  0  0
  191.2130  175.7590  143.4920 C   0  0  1  0  0  3  0  0  0  0  0  0
  188.0870  174.2490  142.0480 C   0  0  0  0  0  2  0  0  0  0  0  0
  194.6300  173.5200  144.9310 N   0  0  0  0  0  0  0  0  0  0  0  0
  197.5890  174.0960  144.9800 C   0  0  0  0  0  2  0  0  0  0  0  0
  188.3600  176.2050  143.6190 C   0  0  1  0  0  3  0  0  0  0  0  0
  192.4810  173.5850  143.7280 C   0  0  0  0  0  0  0  0  0  0  0  0
  195.7170  175.4120  143.6830 C   0  0  2  0  0  3  0  0  0  0  0  0
  192.5900  175.0870  143.5900 C   0  0  2  0  0  3  0  0  0  0  0  0
  192.3230  170.8400  143.8950 C   0  0  0  0  0  3  0  0  0  0  0  0
  190.0730  178.0060  142.9190 C   0  0  0  0  0  2  0  0  0  0  0  0
  193.4000  171.4880  144.4070 N   0  0  0  0  0  0  0  0  0  0  0  0
  191.3750  177.2650  143.2330 C   0  0  0  0  0  2  0  0  0  0  0  0
  188.8870  175.5150  142.3410 C   0  0  1  0  0  3  0  0  0  0  0  0
  191.3210  171.5410  143.3020 N   0  0  0  0  0  0  0  0  0  0  0  0
  190.3030  173.6310  142.6140 N   0  0  0  0  0  0  0  0  0  0  0  0
  188.5830  175.4170  144.7540 O   0  0  0  0  0  0  0  0  0  0  0  0
  188.3860  176.2720  145.8400 C   0  0  0  0  0  2  0  0  0  0  0  0
  191.2580  176.8470  148.1070 O   0  0  0  0  0  0  0  0  0  0  0  0
  190.1100  175.0380  147.1160 C   0  0  0  0  0  3  0  0  0  0  0  0
  189.5370  176.1540  146.7760 C   0  0  0  0  0  0  0  0  0  0  0  0
  191.2420  175.4310  148.0070 C   0  0  0  0  0  3  0  0  0  0  0  0
  190.2100  177.2490  147.3400 N   0  0  0  0  0  0  0  0  0  0  0  0
  1 26  2  0  0  0  0
  1 18  1  0  0  0  0
  2 27  1  0  0  0  0
  3  7  1  6  0  0  0
  3 16  1  0  0  0  0
  4 23  1  0  0  0  0
  4 15  1  0  0  0  0
  5 11  1  6  0  0  0
  5 15  1  0  0  0  0
  6  7  1  0  0  0  0
  8 12  1  0  0  0  0
  9 27  1  1  0  0  0
  9 13  1  0  0  0  0
 13 24  1  6  0  0  0
 13 20  1  0  0  0  0
 14  2  1  0  0  0  0
 15 12  1  0  0  0  0
 16  8  1  0  0  0  0
 17 10  1  0  0  0  0
 17 28  1  1  0  0  0
 18  4  2  0  0  0  0
 19  6  1  6  0  0  0
 19  3  1  0  0  0  0
 19  5  1  0  0  0  0
 20 18  1  0  0  0  0
 20 11  1  1  0  0  0
 21 23  2  0  0  0  0
 22 24  1  0  0  0  0
 22 10  1  0  0  0  0
 25 14  1  1  0  0  0
 25  9  1  0  0  0  0
 25 17  1  0  0  0  0
 26 21  1  0  0  0  0
 27  1  1  0  0  0  0
 28 29  1  0  0  0  0
 29 32  1  0  0  0  0
 31 33  2  0  0  0  0
 32 31  1  0  0  0  0
 32 34  2  0  0  0  0
 33 30  1  0  0  0  0
 34 30  1  0  0  0  0
M  END
>  <MODEL>
3

>  <REMARK>
 VINA RESULT:      -7.9      2.842      7.354
  Name = 
  3 active torsions:
  status: ('A' for Active; 'I' for Inactive)
    1  A    between atoms: C_17  and  O_28
    2  A    between atoms: O_28  and  C_29
    3  A    between atoms: C_29  and  C_32
                            x       y       z     vdW  Elec       q    Type
                         _______ _______ _______ _____ _____    ______ ____

>  <TORSDO>
F 3

$$$$
=
 OpenBabel11112417483D

 34 41  0  0  1  0  0  0  0  0999 V2000
  192.7520  175.8240  145.6470 C   0  0  0  0  0  0  0  0  0  0  0  0
  190.4680  175.7430  146.7360 C   0  0  0  0  0  2  0  0  0  0  0  0
  197.1660  173.6910  141.8810 C   0  0  2  0  0  3  0  0  0  0  0  0
  194.7380  176.2140  144.3400 C   0  0  0  0  0  0  0  0  0  0  0  0
  195.0200  175.1830  142.0430 C   0  0  1  0  0  3  0  0  0  0  0  0
  195.8050  173.1900  143.4730 C   0  0  0  0  0  2  0  0  0  0  0  0
  197.3100  173.0910  143.2720 C   0  0  0  0  0  2  0  0  0  0  0  0
  197.9270  175.9380  142.9190 C   0  0  0  0  0  2  0  0  0  0  0  0
  190.8880  174.3310  144.8120 C   0  0  2  0  0  3  0  0  0  0  0  0
  188.5600  174.5770  142.5340 C   0  0  0  0  0  2  0  0  0  0  0  0
  193.4910  175.1140  142.0200 C   0  0  0  0  0  2  0  0  0  0  0  0
  196.7020  176.8350  142.9030 C   0  0  0  0  0  2  0  0  0  0  0  0
  191.4100  174.6350  143.3900 C   0  0  1  0  0  3  0  0  0  0  0  0
  189.1590  175.0630  146.3710 C   0  0  0  0  0  2  0  0  0  0  0  0
  195.4940  176.0530  143.1260 N   0  0  0  0  0  0  0  0  0  0  0  0
  197.9410  175.0120  141.7040 C   0  0  0  0  0  2  0  0  0  0  0  0
  188.6380  175.2660  143.9100 C   0  0  1  0  0  3  0  0  0  0  0  0
  193.4790  175.6080  144.4700 C   0  0  0  0  0  0  0  0  0  0  0  0
  195.6500  173.7750  142.0760 C   0  0  2  0  0  3  0  0  0  0  0  0
  192.9450  174.6950  143.3900 C   0  0  2  0  0  3  0  0  0  0  0  0
  194.4880  177.1980  146.4810 C   0  0  0  0  0  3  0  0  0  0  0  0
  189.4180  173.3160  142.4090 C   0  0  0  0  0  2  0  0  0  0  0  0
  195.2110  176.9960  145.3490 N   0  0  0  0  0  0  0  0  0  0  0  0
  190.9200  173.6070  142.3590 C   0  0  0  0  0  2  0  0  0  0  0  0
  189.3650  174.4380  144.9930 C   0  0  1  0  0  3  0  0  0  0  0  0
  193.2670  176.6200  146.6230 N   0  0  0  0  0  0  0  0  0  0  0  0
  191.4470  175.2540  145.7870 N   0  0  0  0  0  0  0  0  0  0  0  0
  189.2060  176.5380  143.7720 O   0  0  0  0  0  0  0  0  0  0  0  0
  188.5280  177.1310  142.7060 C   0  0  0  0  0  2  0  0  0  0  0  0
  186.1370  179.0390  144.7940 O   0  0  0  0  0  0  0  0  0  0  0  0
  186.5390  178.5900  142.5120 C   0  0  0  0  0  3  0  0  0  0  0  0
  187.4490  178.0090  143.2350 C   0  0  0  0  0  0  0  0  0  0  0  0
  185.6540  179.2980  143.4840 C   0  0  0  0  0  3  0  0  0  0  0  0
  187.2250  178.2480  144.5990 N   0  0  0  0  0  0  0  0  0  0  0  0
  1 27  1  0  0  0  0
  1 26  1  0  0  0  0
  3 16  1  1  0  0  0
  3 19  1  0  0  0  0
  3  7  1  0  0  0  0
  4 18  1  0  0  0  0
  4 23  2  0  0  0  0
  5 11  1  1  0  0  0
  5 19  1  0  0  0  0
  5 15  1  0  0  0  0
  7  6  1  0  0  0  0
  9 25  1  0  0  0  0
  9 27  1  1  0  0  0
 10 17  1  0  0  0  0
 12  8  1  0  0  0  0
 12 15  1  0  0  0  0
 13 24  1  6  0  0  0
 13  9  1  0  0  0  0
 14  2  1  0  0  0  0
 15  4  1  0  0  0  0
 16  8  1  0  0  0  0
 17 28  1  6  0  0  0
 17 25  1  0  0  0  0
 18  1  2  0  0  0  0
 19  6  1  1  0  0  0
 20 11  1  6  0  0  0
 20 13  1  0  0  0  0
 20 18  1  0  0  0  0
 21 26  2  0  0  0  0
 22 10  1  0  0  0  0
 23 21  1  0  0  0  0
 24 22  1  0  0  0  0
 25 14  1  1  0  0  0
 27  2  1  0  0  0  0
 29 32  1  0  0  0  0
 29 28  1  0  0  0  0
 31 32  1  0  0  0  0
 31 33  2  0  0  0  0
 32 34  2  0  0  0  0
 33 30  1  0  0  0  0
 34 30  1  0  0  0  0
M  END
>  <MODEL>
4

>  <REMARK>
 VINA RESULT:      -7.7      2.658      8.017
  Name = 
  3 active torsions:
  status: ('A' for Active; 'I' for Inactive)
    1  A    between atoms: C_17  and  O_28
    2  A    between atoms: O_28  and  C_29
    3  A    between atoms: C_29  and  C_32
                            x       y       z     vdW  Elec       q    Type
                         _______ _______ _______ _____ _____    ______ ____

>  <TORSDO>
F 3

$$$$
=
 OpenBabel11112417483D

 34 41  0  0  1  0  0  0  0  0999 V2000
  193.0260  175.2880  143.4680 C   0  0  0  0  0  0  0  0  0  0  0  0
  193.4740  176.6690  145.5420 C   0  0  0  0  0  2  0  0  0  0  0  0
  190.8200  170.3450  140.4830 C   0  0  2  0  0  3  0  0  0  0  0  0
  192.2570  174.2620  141.4290 C   0  0  0  0  0  0  0  0  0  0  0  0
  190.2430  172.7240  141.4120 C   0  0  1  0  0  3  0  0  0  0  0  0
  192.0390  171.0210  142.1230 C   0  0  0  0  0  2  0  0  0  0  0  0
  192.2560  170.1090  140.9250 C   0  0  0  0  0  2  0  0  0  0  0  0
  191.7680  172.0380  138.7690 C   0  0  0  0  0  2  0  0  0  0  0  0
  191.8970  174.8360  145.6870 C   0  0  2  0  0  3  0  0  0  0  0  0
  189.0710  175.7090  147.0740 C   0  0  0  0  0  2  0  0  0  0  0  0
  189.8240  173.4590  142.6890 C   0  0  0  0  0  2  0  0  0  0  0  0
  191.3310  173.4080  139.2560 C   0  0  0  0  0  2  0  0  0  0  0  0
  190.6390  174.4760  144.8650 C   0  0  1  0  0  3  0  0  0  0  0  0
  192.8520  176.7070  146.9280 C   0  0  0  0  0  2  0  0  0  0  0  0
  191.3110  173.4480  140.7110 N   0  0  0  0  0  0  0  0  0  0  0  0
  190.7100  170.9820  139.0830 C   0  0  0  0  0  2  0  0  0  0  0  0
  190.3340  176.5600  146.8440 C   0  0  1  0  0  3  0  0  0  0  0  0
  192.1140  174.4530  142.8120 C   0  0  0  0  0  0  0  0  0  0  0  0
  190.5960  171.2490  141.6970 C   0  0  2  0  0  3  0  0  0  0  0  0
  191.0380  173.7250  143.5850 C   0  0  2  0  0  3  0  0  0  0  0  0
  194.1340  175.7080  141.4210 C   0  0  0  0  0  3  0  0  0  0  0  0
  189.3160  174.1980  147.0670 C   0  0  0  0  0  2  0  0  0  0  0  0
  193.2630  174.8970  140.7660 N   0  0  0  0  0  0  0  0  0  0  0  0
  189.6340  173.6430  145.6760 C   0  0  0  0  0  2  0  0  0  0  0  0
  191.6560  175.7600  146.8920 C   0  0  1  0  0  3  0  0  0  0  0  0
  194.0100  175.9040  142.7600 N   0  0  0  0  0  0  0  0  0  0  0  0
  192.8770  175.5330  144.8710 N   0  0  0  0  0  0  0  0  0  0  0  0
  190.2130  177.2740  145.6460 O   0  0  0  0  0  0  0  0  0  0  0  0
  188.8490  177.5420  145.5130 C   0  0  0  0  0  2  0  0  0  0  0  0
  187.2550  178.2850  142.2530 O   0  0  0  0  0  0  0  0  0  0  0  0
  189.3470  177.5810  143.0900 C   0  0  0  0  0  3  0  0  0  0  0  0
  188.5330  177.7890  144.0800 C   0  0  0  0  0  0  0  0  0  0  0  0
  188.5670  177.9060  141.8600 C   0  0  0  0  0  3  0  0  0  0  0  0
  187.2740  178.1950  143.6100 N   0  0  0  0  0  0  0  0  0  0  0  0
  1 27  1  0  0  0  0
  2 14  1  0  0  0  0
  3 16  1  6  0  0  0
  3  7  1  0  0  0  0
  3 19  1  0  0  0  0
  4 18  2  0  0  0  0
  5 19  1  0  0  0  0
  5 11  1  1  0  0  0
  7  6  1  0  0  0  0
  8 16  1  0  0  0  0
  8 12  1  0  0  0  0
  9 27  1  6  0  0  0
  9 25  1  0  0  0  0
 12 15  1  0  0  0  0
 13 24  1  1  0  0  0
 13  9  1  0  0  0  0
 15  5  1  0  0  0  0
 15  4  1  0  0  0  0
 17 28  1  6  0  0  0
 17 25  1  0  0  0  0
 17 10  1  0  0  0  0
 18  1  1  0  0  0  0
 18 20  1  0  0  0  0
 19  6  1  1  0  0  0
 20 11  1  6  0  0  0
 20 13  1  0  0  0  0
 21 26  1  0  0  0  0
 22 10  1  0  0  0  0
 23 21  2  0  0  0  0
 23  4  1  0  0  0  0
 24 22  1  0  0  0  0
 25 14  1  6  0  0  0
 26  1  2  0  0  0  0
 27  2  1  0  0  0  0
 29 28  1  0  0  0  0
 30 34  1  0  0  0  0
 31 32  1  0  0  0  0
 32 29  1  0  0  0  0
 33 30  1  0  0  0  0
 33 31  2  0  0  0  0
 34 32  2  0  0  0  0
M  END
>  <MODEL>
5

>  <REMARK>
 VINA RESULT:      -7.7      2.846      6.491
  Name = 
  3 active torsions:
  status: ('A' for Active; 'I' for Inactive)
    1  A    between atoms: C_17  and  O_28
    2  A    between atoms: O_28  and  C_29
    3  A    between atoms: C_29  and  C_32
                            x       y       z     vdW  Elec       q    Type
                         _______ _______ _______ _____ _____    ______ ____

>  <TORSDO>
F 3

$$$$
=
 OpenBabel11112417483D

 34 41  0  0  1  0  0  0  0  0999 V2000
  192.1740  172.1110  144.0840 C   0  0  0  0  0  0  0  0  0  0  0  0
  193.9780  170.3350  144.1100 C   0  0  0  0  0  2  0  0  0  0  0  0
  189.3650  177.1750  146.2470 C   0  0  2  0  0  3  0  0  0  0  0  0
  190.7060  173.9870  143.7280 C   0  0  0  0  0  0  0  0  0  0  0  0
  191.2500  176.2770  144.6670 C   0  0  1  0  0  3  0  0  0  0  0  0
  190.1580  175.2390  146.7560 C   0  0  0  0  0  2  0  0  0  0  0  0
  188.8090  175.9260  146.9140 C   0  0  0  0  0  2  0  0  0  0  0  0
  188.1790  176.3850  144.0860 C   0  0  0  0  0  2  0  0  0  0  0  0
  194.2920  172.3270  145.4520 C   0  0  2  0  0  3  0  0  0  0  0  0
  197.2180  173.7060  144.9980 C   0  0  0  0  0  2  0  0  0  0  0  0
  192.7050  175.7970  144.6660 C   0  0  0  0  0  2  0  0  0  0  0  0
  189.2870  175.9730  143.1330 C   0  0  0  0  0  2  0  0  0  0  0  0
  194.2470  173.8330  145.1090 C   0  0  1  0  0  3  0  0  0  0  0  0
  195.3720  170.2680  144.7120 C   0  0  0  0  0  2  0  0  0  0  0  0
  190.3990  175.3870  143.8690 N   0  0  0  0  0  0  0  0  0  0  0  0
  188.6150  177.5620  144.9560 C   0  0  0  0  0  2  0  0  0  0  0  0
  196.6550  172.4140  144.3760 C   0  0  1  0  0  3  0  0  0  0  0  0
  191.8870  173.4670  144.2810 C   0  0  0  0  0  0  0  0  0  0  0  0
  190.7260  176.4910  146.1030 C   0  0  2  0  0  3  0  0  0  0  0  0
  192.7950  174.3370  145.1190 C   0  0  2  0  0  3  0  0  0  0  0  0
  190.1850  171.8570  142.8310 C   0  0  0  0  0  3  0  0  0  0  0  0
  196.5240  174.1400  146.2910 C   0  0  0  0  0  2  0  0  0  0  0  0
  189.8840  173.1690  143.0140 N   0  0  0  0  0  0  0  0  0  0  0  0
  195.1060  174.6730  146.0660 C   0  0  0  0  0  2  0  0  0  0  0  0
  195.6640  171.6520  145.2830 C   0  0  1  0  0  3  0  0  0  0  0  0
  191.3240  171.3370  143.3580 N   0  0  0  0  0  0  0  0  0  0  0  0
  193.3930  171.5660  144.6000 N   0  0  0  0  0  0  0  0  0  0  0  0
  196.0910  172.6960  143.1270 O   0  0  0  0  0  0  0  0  0  0  0  0
  196.9820  173.5780  142.5100 C   0  0  0  0  0  2  0  0  0  0  0  0
  195.8550  176.8510  141.1930 O   0  0  0  0  0  0  0  0  0  0  0  0
  194.9430  174.7400  141.7250 C   0  0  0  0  0  3  0  0  0  0  0  0
  196.2250  174.7250  141.9400 C   0  0  0  0  0  0  0  0  0  0  0  0
  194.6430  176.1110  141.2160 C   0  0  0  0  0  3  0  0  0  0  0  0
  196.7910  175.9750  141.6460 N   0  0  0  0  0  0  0  0  0  0  0  0
  1 18  1  0  0  0  0
  1 27  1  0  0  0  0
  2 27  1  0  0  0  0
  2 14  1  0  0  0  0
  3 16  1  6  0  0  0
  3  7  1  0  0  0  0
  4 15  1  0  0  0  0
  4 18  2  0  0  0  0
  5 11  1  1  0  0  0
  5 19  1  0  0  0  0
  6  7  1  0  0  0  0
  8 16  1  0  0  0  0
  9 27  1  6  0  0  0
 10 22  1  0  0  0  0
 12 15  1  0  0  0  0
 12  8  1  0  0  0  0
 13 20  1  0  0  0  0
 13  9  1  0  0  0  0
 13 24  1  1  0  0  0
 15  5  1  0  0  0  0
 17 28  1  6  0  0  0
 17 10  1  0  0  0  0
 17 25  1  0  0  0  0
 18 20  1  0  0  0  0
 19  3  1  0  0  0  0
 19  6  1  6  0  0  0
 20 11  1  6  0  0  0
 21 23  2  0  0  0  0
 21 26  1  0  0  0  0
 23  4  1  0  0  0  0
 24 22  1  0  0  0  0
 25 14  1  6  0  0  0
 25  9  1  0  0  0  0
 26  1  2  0  0  0  0
 29 28  1  0  0  0  0
 30 33  1  0  0  0  0
 30 34  1  0  0  0  0
 31 32  1  0  0  0  0
 32 29  1  0  0  0  0
 33 31  2  0  0  0  0
 34 32  2  0  0  0  0
M  END
>  <MODEL>
6

>  <REMARK>
 VINA RESULT:      -7.7      1.985      3.149
  Name = 
  3 active torsions:
  status: ('A' for Active; 'I' for Inactive)
    1  A    between atoms: C_17  and  O_28
    2  A    between atoms: O_28  and  C_29
    3  A    between atoms: C_29  and  C_32
                            x       y       z     vdW  Elec       q    Type
                         _______ _______ _______ _____ _____    ______ ____

>  <TORSDO>
F 3

$$$$
=
 OpenBabel11112417483D

 34 41  0  0  1  0  0  0  0  0999 V2000
  189.6890  174.8020  142.0300 C   0  0  0  0  0  0  0  0  0  0  0  0
  188.8220  177.1180  142.5750 C   0  0  0  0  0  2  0  0  0  0  0  0
  193.9100  170.2900  142.2130 C   0  0  2  0  0  3  0  0  0  0  0  0
  190.2440  172.4650  141.8500 C   0  0  0  0  0  0  0  0  0  0  0  0
  191.8760  171.3760  143.4530 C   0  0  1  0  0  3  0  0  0  0  0  0
  193.5640  172.3710  141.7820 C   0  0  0  0  0  2  0  0  0  0  0  0
  194.1400  171.1920  141.0110 C   0  0  0  0  0  2  0  0  0  0  0  0
  191.7880  169.4390  140.9990 C   0  0  0  0  0  2  0  0  0  0  0  0
  190.7460  176.2840  143.7880 C   0  0  2  0  0  3  0  0  0  0  0  0
  190.4450  176.6250  147.0220 C   0  0  0  0  0  2  0  0  0  0  0  0
  191.5050  172.5130  144.4100 C   0  0  0  0  0  2  0  0  0  0  0  0
  190.6120  169.9820  141.7930 C   0  0  0  0  0  2  0  0  0  0  0  0
  190.9890  174.9890  144.5970 C   0  0  1  0  0  3  0  0  0  0  0  0
  189.1670  178.1380  143.6480 C   0  0  0  0  0  2  0  0  0  0  0  0
  190.9280  171.2950  142.3360 N   0  0  0  0  0  0  0  0  0  0  0  0
  192.9630  169.1100  141.9170 C   0  0  0  0  0  2  0  0  0  0  0  0
  189.4740  177.0690  145.9130 C   0  0  1  0  0  3  0  0  0  0  0  0
  190.4050  173.6970  142.5040 C   0  0  0  0  0  0  0  0  0  0  0  0
  193.3460  171.4780  142.9950 C   0  0  2  0  0  3  0  0  0  0  0  0
  191.3750  173.8390  143.6540 C   0  0  2  0  0  3  0  0  0  0  0  0
  188.7060  173.4610  140.3480 C   0  0  0  0  0  3  0  0  0  0  0  0
  191.8870  176.4160  146.5540 C   0  0  0  0  0  2  0  0  0  0  0  0
  189.3950  172.3770  140.7880 N   0  0  0  0  0  0  0  0  0  0  0  0
  192.0640  175.1730  145.6780 C   0  0  0  0  0  2  0  0  0  0  0  0
  190.1620  177.4610  144.5860 C   0  0  1  0  0  3  0  0  0  0  0  0
  188.8490  174.6610  140.9700 N   0  0  0  0  0  0  0  0  0  0  0  0
  189.8030  176.0590  142.7060 N   0  0  0  0  0  0  0  0  0  0  0  0
  188.5020  176.0820  145.7110 O   0  0  0  0  0  0  0  0  0  0  0  0
  187.7670  176.0410  146.8980 C   0  0  0  0  0  2  0  0  0  0  0  0
  185.1900  178.6660  147.3330 O   0  0  0  0  0  0  0  0  0  0  0  0
  185.6050  176.7920  145.9590 C   0  0  0  0  0  3  0  0  0  0  0  0
  186.5950  176.9510  146.7850 C   0  0  0  0  0  0  0  0  0  0  0  0
  184.6550  177.9030  146.2620 C   0  0  0  0  0  3  0  0  0  0  0  0
  186.3670  178.0510  147.6260 N   0  0  0  0  0  0  0  0  0  0  0  0
  1 18  1  0  0  0  0
  1 27  1  0  0  0  0
  2 27  1  0  0  0  0
  2 14  1  0  0  0  0
  3  7  1  6  0  0  0
  3 19  1  0  0  0  0
  4 15  1  0  0  0  0
  4 18  2  0  0  0  0
  5 11  1  6  0  0  0
  7  6  1  0  0  0  0
  8 12  1  0  0  0  0
  8 16  1  0  0  0  0
  9 27  1  6  0  0  0
  9 25  1  0  0  0  0
  9 13  1  0  0  0  0
 12 15  1  0  0  0  0
 13 24  1  1  0  0  0
 15  5  1  0  0  0  0
 16  3  1  0  0  0  0
 17 28  1  6  0  0  0
 17 10  1  0  0  0  0
 18 20  1  0  0  0  0
 19  6  1  6  0  0  0
 19  5  1  0  0  0  0
 20 11  1  1  0  0  0
 20 13  1  0  0  0  0
 21 23  2  0  0  0  0
 21 26  1  0  0  0  0
 22 10  1  0  0  0  0
 23  4  1  0  0  0  0
 24 22  1  0  0  0  0
 25 14  1  6  0  0  0
 25 17  1  0  0  0  0
 26  1  2  0  0  0  0
 28 29  1  0  0  0  0
 30 34  1  0  0  0  0
 31 33  2  0  0  0  0
 31 32  1  0  0  0  0
 32 29  1  0  0  0  0
 32 34  2  0  0  0  0
 33 30  1  0  0  0  0
M  END
>  <MODEL>
7

>  <REMARK>
 VINA RESULT:      -7.5      3.027      7.542
  Name = 
  3 active torsions:
  status: ('A' for Active; 'I' for Inactive)
    1  A    between atoms: C_17  and  O_28
    2  A    between atoms: O_28  and  C_29
    3  A    between atoms: C_29  and  C_32
                            x       y       z     vdW  Elec       q    Type
                         _______ _______ _______ _____ _____    ______ ____

>  <TORSDO>
F 3

$$$$
=
 OpenBabel11112417483D

 34 41  0  0  1  0  0  0  0  0999 V2000
  193.1880  176.0950  143.0280 C   0  0  0  0  0  0  0  0  0  0  0  0
  191.3950  177.8810  143.1140 C   0  0  0  0  0  2  0  0  0  0  0  0
  197.1550  172.1090  145.5940 C   0  0  2  0  0  3  0  0  0  0  0  0
  194.5490  174.1150  142.8570 C   0  0  0  0  0  0  0  0  0  0  0  0
  194.6950  172.4540  144.7660 C   0  0  1  0  0  3  0  0  0  0  0  0
  196.4600  174.1470  145.5750 C   0  0  0  0  0  2  0  0  0  0  0  0
  197.8100  173.4680  145.3980 C   0  0  0  0  0  2  0  0  0  0  0  0
  197.2190  171.8550  143.0190 C   0  0  0  0  0  2  0  0  0  0  0  0
  191.8890  176.6340  145.1320 C   0  0  2  0  0  3  0  0  0  0  0  0
  189.2070  175.4480  146.5710 C   0  0  0  0  0  2  0  0  0  0  0  0
  193.3370  173.0170  145.1980 C   0  0  0  0  0  2  0  0  0  0  0  0
  195.7740  171.9440  142.5590 C   0  0  0  0  0  2  0  0  0  0  0  0
  191.9380  175.1190  145.4360 C   0  0  1  0  0  3  0  0  0  0  0  0
  190.3920  178.3050  144.1740 C   0  0  0  0  0  2  0  0  0  0  0  0
  195.0290  172.8700  143.3980 N   0  0  0  0  0  0  0  0  0  0  0  0
  197.3180  171.1720  144.3810 C   0  0  0  0  0  2  0  0  0  0  0  0
  189.3150  176.3250  145.3100 C   0  0  1  0  0  3  0  0  0  0  0  0
  193.6690  174.9140  143.6050 C   0  0  0  0  0  0  0  0  0  0  0  0
  195.7990  172.7920  145.7890 C   0  0  2  0  0  3  0  0  0  0  0  0
  193.2990  174.5390  145.0210 C   0  0  2  0  0  3  0  0  0  0  0  0
  194.4160  175.6490  141.0570 C   0  0  0  0  0  3  0  0  0  0  0  0
  190.4270  175.5130  147.4930 C   0  0  0  0  0  2  0  0  0  0  0  0
  194.8990  174.5020  141.5990 N   0  0  0  0  0  0  0  0  0  0  0  0
  191.6600  174.8140  146.9150 C   0  0  0  0  0  2  0  0  0  0  0  0
  190.5140  177.2990  145.3150 C   0  0  1  0  0  3  0  0  0  0  0  0
  193.5630  176.4340  141.7660 N   0  0  0  0  0  0  0  0  0  0  0  0
  192.2560  176.9060  143.7520 N   0  0  0  0  0  0  0  0  0  0  0  0
  189.3190  175.5160  144.1680 O   0  0  0  0  0  0  0  0  0  0  0  0
  187.9770  175.3770  143.8100 C   0  0  0  0  0  2  0  0  0  0  0  0
  187.7400  177.8290  141.0440 O   0  0  0  0  0  0  0  0  0  0  0  0
  186.6790  177.3600  143.1000 C   0  0  0  0  0  3  0  0  0  0  0  0
  187.5990  176.4710  142.8750 C   0  0  0  0  0  0  0  0  0  0  0  0
  186.7140  178.2740  141.9200 C   0  0  0  0  0  3  0  0  0  0  0  0
  188.2570  176.7350  141.6640 N   0  0  0  0  0  0  0  0  0  0  0  0
  1 18  1  0  0  0  0
  1 27  1  0  0  0  0
  2 27  1  0  0  0  0
  2 14  1  0  0  0  0
  3 16  1  6  0  0  0
  3 19  1  0  0  0  0
  4 15  1  0  0  0  0
  4 18  2  0  0  0  0
  5 11  1  1  0  0  0
  5 19  1  0  0  0  0
  7  6  1  0  0  0  0
  7  3  1  0  0  0  0
  8 16  1  0  0  0  0
  9 27  1  6  0  0  0
  9 25  1  0  0  0  0
  9 13  1  0  0  0  0
 10 22  1  0  0  0  0
 12  8  1  0  0  0  0
 12 15  1  0  0  0  0
 13 24  1  1  0  0  0
 15  5  1  0  0  0  0
 17 28  1  6  0  0  0
 17 25  1  0  0  0  0
 17 10  1  0  0  0  0
 18 20  1  0  0  0  0
 19  6  1  6  0  0  0
 20 11  1  6  0  0  0
 20 13  1  0  0  0  0
 21 23  2  0  0  0  0
 21 26  1  0  0  0  0
 23  4  1  0  0  0  0
 24 22  1  0  0  0  0
 25 14  1  6  0  0  0
 26  1  2  0  0  0  0
 29 28  1  0  0  0  0
 30 34  1  0  0  0  0
 30 33  1  0  0  0  0
 32 31  1  0  0  0  0
 32 29  1  0  0  0  0
 33 31  2  0  0  0  0
 34 32  2  0  0  0  0
M  END
>  <MODEL>
8

>  <REMARK>
 VINA RESULT:      -7.5      2.738      7.727
  Name = 
  3 active torsions:
  status: ('A' for Active; 'I' for Inactive)
    1  A    between atoms: C_17  and  O_28
    2  A    between atoms: O_28  and  C_29
    3  A    between atoms: C_29  and  C_32
                            x       y       z     vdW  Elec       q    Type
                         _______ _______ _______ _____ _____    ______ ____

>  <TORSDO>
F 3

$$$$
=
 OpenBabel11112417483D

 34 41  0  0  1  0  0  0  0  0999 V2000
  190.9610  173.1380  142.9490 C   0  0  0  0  0  0  0  0  0  0  0  0
  188.8590  174.1990  142.0170 C   0  0  0  0  0  2  0  0  0  0  0  0
  196.8650  173.2370  144.7770 C   0  0  2  0  0  3  0  0  0  0  0  0
  192.7550  172.1770  144.2370 C   0  0  0  0  0  0  0  0  0  0  0  0
  194.3840  173.6390  145.5130 C   0  0  1  0  0  3  0  0  0  0  0  0
  195.4960  173.7360  143.1910 C   0  0  0  0  0  2  0  0  0  0  0  0
  196.7670  172.9050  143.2960 C   0  0  0  0  0  2  0  0  0  0  0  0
  195.8590  170.8950  145.2310 C   0  0  0  0  0  2  0  0  0  0  0  0
  190.6530  175.6430  142.7680 C   0  0  2  0  0  3  0  0  0  0  0  0
  189.6170  178.0060  144.7720 C   0  0  0  0  0  2  0  0  0  0  0  0
  193.2690  174.6890  145.4930 C   0  0  0  0  0  2  0  0  0  0  0  0
  194.4590  171.1440  145.7650 C   0  0  0  0  0  2  0  0  0  0  0  0
  191.4260  175.7390  144.1030 C   0  0  1  0  0  3  0  0  0  0  0  0
  188.3640  175.6330  141.9240 C   0  0  0  0  0  2  0  0  0  0  0  0
  193.8740  172.3170  145.1330 N   0  0  0  0  0  0  0  0  0  0  0  0
  196.8200  171.9920  145.6850 C   0  0  0  0  0  2  0  0  0  0  0  0
  188.7910  176.9250  144.0490 C   0  0  1  0  0  3  0  0  0  0  0  0
  192.0710  173.3160  143.7820 C   0  0  0  0  0  0  0  0  0  0  0  0
  195.5970  174.0870  144.6690 C   0  0  2  0  0  3  0  0  0  0  0  0
  192.5590  174.7020  144.1350 C   0  0  2  0  0  3  0  0  0  0  0  0
  191.2350  170.7910  143.0610 C   0  0  0  0  0  3  0  0  0  0  0  0
  190.9840  178.2840  144.1420 C   0  0  0  0  0  2  0  0  0  0  0  0
  192.3180  170.9420  143.8660 N   0  0  0  0  0  0  0  0  0  0  0  0
  191.9890  177.1470  144.3490 C   0  0  0  0  0  2  0  0  0  0  0  0
  189.3720  176.4900  142.6840 C   0  0  1  0  0  3  0  0  0  0  0  0
  190.5600  171.8830  142.6130 N   0  0  0  0  0  0  0  0  0  0  0  0
  190.2200  174.2810  142.5070 N   0  0  0  0  0  0  0  0  0  0  0  0
  188.6000  175.8280  144.8960 O   0  0  0  0  0  0  0  0  0  0  0  0
  188.4860  176.3690  146.1790 C   0  0  0  0  0  2  0  0  0  0  0  0
  184.8600  177.1040  146.0160 O   0  0  0  0  0  0  0  0  0  0  0  0
  186.7810  177.8760  147.1500 C   0  0  0  0  0  3  0  0  0  0  0  0
  187.1040  176.8830  146.3770 C   0  0  0  0  0  0  0  0  0  0  0  0
  185.3110  178.0580  146.9670 C   0  0  0  0  0  3  0  0  0  0  0  0
  185.9810  176.4130  145.6780 N   0  0  0  0  0  0  0  0  0  0  0  0
  1 18  1  0  0  0  0
  2 27  1  0  0  0  0
  3  7  1  6  0  0  0
  3 16  1  0  0  0  0
  4 15  1  0  0  0  0
  5 11  1  6  0  0  0
  6  7  1  0  0  0  0
  8 16  1  0  0  0  0
  8 12  1  0  0  0  0
  9 27  1  1  0  0  0
  9 13  1  0  0  0  0
 13 20  1  0  0  0  0
 13 24  1  6  0  0  0
 14  2  1  0  0  0  0
 15  5  1  0  0  0  0
 15 12  1  0  0  0  0
 17 10  1  0  0  0  0
 17 28  1  1  0  0  0
 18 20  1  0  0  0  0
 18  4  2  0  0  0  0
 19  6  1  6  0  0  0
 19  3  1  0  0  0  0
 19  5  1  0  0  0  0
 20 11  1  1  0  0  0
 21 23  2  0  0  0  0
 22 24  1  0  0  0  0
 22 10  1  0  0  0  0
 23  4  1  0  0  0  0
 25 14  1  1  0  0  0
 25  9  1  0  0  0  0
 25 17  1  0  0  0  0
 26  1  2  0  0  0  0
 26 21  1  0  0  0  0
 27  1  1  0  0  0  0
 28 29  1  0  0  0  0
 29 32  1  0  0  0  0
 30 33  1  0  0  0  0
 32 31  1  0  0  0  0
 33 31  2  0  0  0  0
 34 30  1  0  0  0  0
 34 32  2  0  0  0  0
M  END
>  <MODEL>
9

>  <REMARK>
 VINA RESULT:      -7.3      2.844      7.861
  Name = 
  3 active torsions:
  status: ('A' for Active; 'I' for Inactive)
    1  A    between atoms: C_17  and  O_28
    2  A    between atoms: O_28  and  C_29
    3  A    between atoms: C_29  and  C_32
                            x       y       z     vdW  Elec       q    Type
                         _______ _______ _______ _____ _____    ______ ____

>  <TORSDO>
F 3

$$$$
