=
 OpenBabel11112417193D

 37 43  0  0  1  0  0  0  0  0999 V2000
  186.5100  177.4570  143.0410 C   0  0  1  0  0  0  0  0  0  0  0  0
  190.3600  176.6900  144.8630 C   0  0  1  0  0  3  0  0  0  0  0  0
  192.4370  173.8120  143.2600 C   0  0  0  0  0  2  0  0  0  0  0  0
  187.8820  177.2060  145.1480 C   0  0  0  0  0  0  0  0  0  0  0  0
  190.5580  175.3840  144.1230 C   0  0  2  0  0  3  0  0  0  0  0  0
  189.1180  177.3490  144.2720 C   0  0  2  0  0  3  0  0  0  0  0  0
  192.0870  175.1870  143.8480 C   0  0  1  0  0  3  0  0  0  0  0  0
  187.9880  177.1510  146.4840 C   0  0  0  0  0  3  0  0  0  0  0  0
  188.9750  176.6750  142.9020 C   0  0  2  0  0  3  0  0  0  0  0  0
  186.7930  178.9190  142.7370 C   0  0  0  0  0  1  0  0  0  0  0  0
  191.2900  175.7830  147.0210 C   0  0  0  0  0  3  0  0  0  0  0  0
  189.3210  177.2260  147.1700 C   0  0  0  0  0  2  0  0  0  0  0  0
  187.5380  176.5570  142.3580 C   0  0  0  0  0  2  0  0  0  0  0  0
  191.6320  172.8080  140.9300 C   0  0  1  0  0  3  0  0  0  0  0  0
  192.1000  173.9420  141.8040 C   0  0  1  0  0  3  0  0  0  0  0  0
  190.3520  176.4970  146.3670 C   0  0  0  0  0  0  0  0  0  0  0  0
  189.5810  175.3510  142.9960 N   0  0  1  0  0  0  0  0  0  0  0  0
  186.5060  177.2110  144.5480 C   0  0  0  0  0  2  0  0  0  0  0  0
  192.9330  175.5270  145.0990 C   0  0  1  0  0  3  0  0  0  0  0  0
  185.2450  177.1410  142.5430 O   0  0  0  0  0  1  0  0  0  0  0  0
  190.6460  173.5400  141.8310 C   0  0  1  0  0  3  0  0  0  0  0  0
  190.0640  174.9240  141.6750 C   0  0  0  0  0  2  0  0  0  0  0  0
  192.3660  174.9270  146.3880 C   0  0  0  0  0  2  0  0  0  0  0  0
  195.0440  174.3530  145.7510 C   0  0  0  0  0  3  0  0  0  0  0  0
  194.4060  175.2910  144.9310 C   0  0  0  0  0  0  0  0  0  0  0  0
  195.1600  176.0190  143.9960 C   0  0  0  0  0  3  0  0  0  0  0  0
  197.2960  176.5370  142.9300 N   0  0  0  0  0  1  0  0  0  0  0  0
  197.1660  174.8590  144.6980 C   0  0  0  0  0  3  0  0  0  0  0  0
  196.5360  175.7990  143.8790 C   0  0  0  0  0  0  0  0  0  0  0  0
  196.4200  174.1360  145.6340 C   0  0  0  0  0  3  0  0  0  0  0  0
  191.4600  173.2210  139.4910 C   0  0  0  0  0  0  0  0  0  0  0  0
  190.4120  172.6750  138.6670 N   0  0  0  0  0  2  0  0  0  0  0  0
  192.2770  174.0270  138.9690 O   0  0  0  0  0  0  0  0  0  0  0  0
  189.3680  170.6690  138.0940 C   0  0  0  0  0  1  0  0  0  0  0  0
  189.4290  171.7460  139.0700 N   0  0  0  0  0  0  0  0  0  0  0  0
  188.1730  173.5820  138.3760 O   0  0  0  0  0  1  0  0  0  0  0  0
  188.1320  172.4040  139.1220 C   0  0  0  0  0  2  0  0  0  0  0  0
  1 10  1  6  0  0  0
  1 18  1  0  0  0  0
  2 16  1  1  0  0  0
  3  7  1  0  0  0  0
  4  8  2  0  0  0  0
  5  2  1  0  0  0  0
  6  2  1  0  0  0  0
  6  4  1  0  0  0  0
  7  5  1  0  0  0  0
  7 19  1  0  0  0  0
  8 12  1  0  0  0  0
  9 17  1  0  0  0  0
  9  6  1  0  0  0  0
 13  9  1  0  0  0  0
 13  1  1  0  0  0  0
 14 15  1  0  0  0  0
 14 21  1  0  0  0  0
 15 21  1  0  0  0  0
 15  3  1  0  0  0  0
 16 11  2  0  0  0  0
 16 12  1  0  0  0  0
 17  5  1  0  0  0  0
 18  4  1  0  0  0  0
 19 23  1  0  0  0  0
 20  1  1  0  0  0  0
 22 21  1  0  0  0  0
 22 17  1  0  0  0  0
 23 11  1  0  0  0  0
 25 19  1  0  0  0  0
 25 24  2  0  0  0  0
 26 25  1  0  0  0  0
 27 29  1  0  0  0  0
 28 30  2  0  0  0  0
 29 26  2  0  0  0  0
 29 28  1  0  0  0  0
 30 24  1  0  0  0  0
 31 14  1  0  0  0  0
 32 35  1  0  0  0  0
 32 31  1  0  0  0  0
 33 31  2  0  0  0  0
 34 35  1  0  0  0  0
 35 37  1  0  0  0  0
 36 37  1  0  0  0  0
M  END
>  <MODEL>
1

>  <REMARK>
 VINA RESULT:      -8.3      0.000      0.000
  Name = 
  4 active torsions:
  status: ('A' for Active; 'I' for Inactive)
    1  A    between atoms: N_4  and  N_12
    2  A    between atoms: N_4  and  C_37
    3  A    between atoms: C_8  and  C_18
    4  A    between atoms: C_23  and  C_30
                            x       y       z     vdW  Elec       q    Type
                         _______ _______ _______ _____ _____    ______ ____

>  <TORSDO>
F 4

$$$$
=
 OpenBabel11112417193D

 37 43  0  0  1  0  0  0  0  0999 V2000
  186.1580  178.8050  147.4240 C   0  0  1  0  0  0  0  0  0  0  0  0
  186.7590  176.5540  143.7760 C   0  0  1  0  0  3  0  0  0  0  0  0
  190.4710  175.8660  142.8160 C   0  0  0  0  0  2  0  0  0  0  0  0
  185.5110  178.3970  145.0150 C   0  0  0  0  0  0  0  0  0  0  0  0
  188.2440  176.8470  143.7270 C   0  0  2  0  0  3  0  0  0  0  0  0
  186.2510  177.0710  145.1180 C   0  0  2  0  0  3  0  0  0  0  0  0
  188.9790  175.6210  143.0870 C   0  0  1  0  0  3  0  0  0  0  0  0
  184.8100  178.7090  143.9150 C   0  0  0  0  0  3  0  0  0  0  0  0
  187.5210  177.1480  145.9740 C   0  0  2  0  0  3  0  0  0  0  0  0
  185.2910  177.7500  148.0930 C   0  0  0  0  0  1  0  0  0  0  0  0
  186.4640  176.8530  141.2930 C   0  0  0  0  0  3  0  0  0  0  0  0
  184.7240  177.7730  142.7450 C   0  0  0  0  0  2  0  0  0  0  0  0
  187.5290  178.2300  147.0720 C   0  0  0  0  0  2  0  0  0  0  0  0
  192.3660  176.3840  144.6130 C   0  0  1  0  0  3  0  0  0  0  0  0
  191.1200  175.6710  144.1540 C   0  0  1  0  0  3  0  0  0  0  0  0
  186.0340  177.0760  142.5510 C   0  0  0  0  0  0  0  0  0  0  0  0
  188.6510  177.3480  145.0720 N   0  0  1  0  0  0  0  0  0  0  0  0
  185.4730  179.3520  146.1730 C   0  0  0  0  0  2  0  0  0  0  0  0
  188.2290  175.1050  141.8340 C   0  0  1  0  0  3  0  0  0  0  0  0
  186.3370  179.8600  148.3200 O   0  0  0  0  0  1  0  0  0  0  0  0
  191.0090  177.0700  144.7100 C   0  0  1  0  0  3  0  0  0  0  0  0
  189.8770  176.8020  145.6720 C   0  0  0  0  0  2  0  0  0  0  0  0
  187.7860  176.2300  140.8960 C   0  0  0  0  0  2  0  0  0  0  0  0
  189.0650  174.0330  139.7340 C   0  0  0  0  0  3  0  0  0  0  0  0
  188.9160  173.9750  141.1250 C   0  0  0  0  0  0  0  0  0  0  0  0
  189.3750  172.8460  141.8240 C   0  0  0  0  0  3  0  0  0  0  0  0
  190.4520  170.6540  141.8460 N   0  0  0  0  0  1  0  0  0  0  0  0
  190.1360  171.8600  139.7470 C   0  0  0  0  0  3  0  0  0  0  0  0
  189.9870  171.7940  141.1350 C   0  0  0  0  0  0  0  0  0  0  0  0
  189.6750  172.9800  139.0470 C   0  0  0  0  0  3  0  0  0  0  0  0
  192.8340  175.9150  145.9660 C   0  0  0  0  0  0  0  0  0  0  0  0
  193.6160  174.7160  146.1220 N   0  0  0  0  0  2  0  0  0  0  0  0
  192.4990  176.5520  147.0010 O   0  0  0  0  0  0  0  0  0  0  0  0
  193.2160  172.6810  145.0530 C   0  0  0  0  0  1  0  0  0  0  0  0
  194.0590  173.8650  145.0860 N   0  0  0  0  0  0  0  0  0  0  0  0
  196.1510  174.5290  145.8690 O   0  0  0  0  0  1  0  0  0  0  0  0
  195.4310  173.4540  145.3490 C   0  0  0  0  0  2  0  0  0  0  0  0
  1 10  1  1  0  0  0
  1 20  1  0  0  0  0
  2 16  1  6  0  0  0
  2  6  1  0  0  0  0
  3  7  1  0  0  0  0
  3 15  1  0  0  0  0
  4  6  1  0  0  0  0
  4 18  1  0  0  0  0
  5  2  1  0  0  0  0
  5 17  1  0  0  0  0
  6  9  1  0  0  0  0
  7  5  1  0  0  0  0
  8  4  2  0  0  0  0
  9 13  1  0  0  0  0
 11 16  2  0  0  0  0
 12  8  1  0  0  0  0
 13  1  1  0  0  0  0
 14 21  1  0  0  0  0
 14 31  1  0  0  0  0
 15 14  1  0  0  0  0
 15 21  1  0  0  0  0
 16 12  1  0  0  0  0
 17 22  1  0  0  0  0
 17  9  1  0  0  0  0
 18  1  1  0  0  0  0
 19  7  1  0  0  0  0
 21 22  1  0  0  0  0
 23 11  1  0  0  0  0
 23 19  1  0  0  0  0
 24 25  1  0  0  0  0
 25 26  2  0  0  0  0
 25 19  1  0  0  0  0
 28 29  2  0  0  0  0
 29 26  1  0  0  0  0
 29 27  1  0  0  0  0
 30 24  2  0  0  0  0
 30 28  1  0  0  0  0
 31 32  1  0  0  0  0
 31 33  2  0  0  0  0
 34 35  1  0  0  0  0
 35 37  1  0  0  0  0
 35 32  1  0  0  0  0
 37 36  1  0  0  0  0
M  END
>  <MODEL>
2

>  <REMARK>
 VINA RESULT:      -8.1      3.057      6.460
  Name = 
  4 active torsions:
  status: ('A' for Active; 'I' for Inactive)
    1  A    between atoms: N_4  and  N_12
    2  A    between atoms: N_4  and  C_37
    3  A    between atoms: C_8  and  C_18
    4  A    between atoms: C_23  and  C_30
                            x       y       z     vdW  Elec       q    Type
                         _______ _______ _______ _____ _____    ______ ____

>  <TORSDO>
F 4

$$$$
=
 OpenBabel11112417193D

 37 43  0  0  1  0  0  0  0  0999 V2000
  186.2490  178.1860  147.1930 C   0  0  1  0  0  0  0  0  0  0  0  0
  186.4910  176.6460  143.1540 C   0  0  1  0  0  3  0  0  0  0  0  0
  190.0250  175.4730  142.0100 C   0  0  0  0  0  2  0  0  0  0  0  0
  185.5890  178.4040  144.7620 C   0  0  0  0  0  0  0  0  0  0  0  0
  188.0050  176.6550  143.1390 C   0  0  2  0  0  3  0  0  0  0  0  0
  186.0620  176.9690  144.5820 C   0  0  2  0  0  3  0  0  0  0  0  0
  188.5070  175.4670  142.2510 C   0  0  1  0  0  3  0  0  0  0  0  0
  184.9840  179.0600  143.7610 C   0  0  0  0  0  3  0  0  0  0  0  0
  187.3040  176.6280  145.4130 C   0  0  2  0  0  3  0  0  0  0  0  0
  185.1830  177.2020  147.6490 C   0  0  0  0  0  1  0  0  0  0  0  0
  186.3120  177.4920  140.7890 C   0  0  0  0  0  3  0  0  0  0  0  0
  184.7480  178.4140  142.4280 C   0  0  0  0  0  2  0  0  0  0  0  0
  187.4930  177.4440  146.7070 C   0  0  0  0  0  2  0  0  0  0  0  0
  191.9440  175.2470  143.8400 C   0  0  1  0  0  3  0  0  0  0  0  0
  190.5950  174.8920  143.2690 C   0  0  1  0  0  3  0  0  0  0  0  0
  185.9050  177.5340  142.0730 C   0  0  0  0  0  0  0  0  0  0  0  0
  188.4710  176.7870  144.5500 N   0  0  1  0  0  0  0  0  0  0  0  0
  185.7080  179.0940  146.0900 C   0  0  0  0  0  2  0  0  0  0  0  0
  187.7010  175.3680  140.9330 C   0  0  1  0  0  3  0  0  0  0  0  0
  186.6060  178.9840  148.2800 O   0  0  0  0  0  1  0  0  0  0  0  0
  190.7400  176.1450  144.0980 C   0  0  1  0  0  3  0  0  0  0  0  0
  189.5570  175.9090  145.0060 C   0  0  0  0  0  2  0  0  0  0  0  0
  187.5000  176.7220  140.2500 C   0  0  0  0  0  2  0  0  0  0  0  0
  188.5000  173.0350  140.5150 C   0  0  0  0  0  3  0  0  0  0  0  0
  188.1760  174.2940  139.9980 C   0  0  0  0  0  0  0  0  0  0  0  0
  188.3390  174.5420  138.6250 C   0  0  0  0  0  3  0  0  0  0  0  0
  188.9720  173.7870  136.3900 N   0  0  0  0  0  1  0  0  0  0  0  0
  189.1280  172.2760  138.3010 C   0  0  0  0  0  3  0  0  0  0  0  0
  188.8100  173.5320  137.7800 C   0  0  0  0  0  0  0  0  0  0  0  0
  188.9720  172.0270  139.6690 C   0  0  0  0  0  3  0  0  0  0  0  0
  192.2860  174.4340  145.0630 C   0  0  0  0  0  0  0  0  0  0  0  0
  192.6910  175.0570  146.2960 N   0  0  0  0  0  2  0  0  0  0  0  0
  192.2670  173.1750  145.0030 O   0  0  0  0  0  0  0  0  0  0  0  0
  194.2030  176.8040  146.6250 C   0  0  0  0  0  1  0  0  0  0  0  0
  192.7960  176.4430  146.5390 N   0  0  0  0  0  0  0  0  0  0  0  0
  191.1860  175.8040  148.0960 O   0  0  0  0  0  1  0  0  0  0  0  0
  192.1530  176.7650  147.8040 C   0  0  0  0  0  2  0  0  0  0  0  0
  1 10  1  1  0  0  0
  1 20  1  0  0  0  0
  2 16  1  6  0  0  0
  2  6  1  0  0  0  0
  3  7  1  0  0  0  0
  3 15  1  0  0  0  0
  4 18  1  0  0  0  0
  5  2  1  0  0  0  0
  5 17  1  0  0  0  0
  6  4  1  0  0  0  0
  6  9  1  0  0  0  0
  7  5  1  0  0  0  0
  8  4  2  0  0  0  0
  9 13  1  0  0  0  0
 11 16  2  0  0  0  0
 12  8  1  0  0  0  0
 13  1  1  0  0  0  0
 14 21  1  0  0  0  0
 14 31  1  0  0  0  0
 15 14  1  0  0  0  0
 15 21  1  0  0  0  0
 16 12  1  0  0  0  0
 17 22  1  0  0  0  0
 17  9  1  0  0  0  0
 18  1  1  0  0  0  0
 19  7  1  0  0  0  0
 21 22  1  0  0  0  0
 23 11  1  0  0  0  0
 23 19  1  0  0  0  0
 25 24  1  0  0  0  0
 25 19  1  0  0  0  0
 26 25  2  0  0  0  0
 27 29  1  0  0  0  0
 28 30  1  0  0  0  0
 29 28  2  0  0  0  0
 29 26  1  0  0  0  0
 30 24  2  0  0  0  0
 31 32  1  0  0  0  0
 32 35  1  0  0  0  0
 33 31  2  0  0  0  0
 35 34  1  0  0  0  0
 35 37  1  0  0  0  0
 37 36  1  0  0  0  0
M  END
>  <MODEL>
3

>  <REMARK>
 VINA RESULT:      -8.1      2.925      6.866
  Name = 
  4 active torsions:
  status: ('A' for Active; 'I' for Inactive)
    1  A    between atoms: N_4  and  N_12
    2  A    between atoms: N_4  and  C_37
    3  A    between atoms: C_8  and  C_18
    4  A    between atoms: C_23  and  C_30
                            x       y       z     vdW  Elec       q    Type
                         _______ _______ _______ _____ _____    ______ ____

>  <TORSDO>
F 4

$$$$
=
 OpenBabel11112417193D

 37 43  0  0  1  0  0  0  0  0999 V2000
  185.7290  177.8540  143.4760 C   0  0  1  0  0  0  0  0  0  0  0  0
  189.6440  177.0500  145.1390 C   0  0  1  0  0  3  0  0  0  0  0  0
  191.5430  174.0250  143.5860 C   0  0  0  0  0  2  0  0  0  0  0  0
  187.2010  177.6640  145.5220 C   0  0  0  0  0  0  0  0  0  0  0  0
  189.7610  175.7020  144.4600 C   0  0  2  0  0  3  0  0  0  0  0  0
  188.3930  177.7200  144.5780 C   0  0  2  0  0  3  0  0  0  0  0  0
  191.2660  175.4400  144.1180 C   0  0  1  0  0  3  0  0  0  0  0  0
  187.3750  177.6730  146.8520 C   0  0  0  0  0  3  0  0  0  0  0  0
  188.1570  176.9830  143.2550 C   0  0  2  0  0  3  0  0  0  0  0  0
  186.0410  179.2890  143.0820 C   0  0  0  0  0  1  0  0  0  0  0  0
  190.6550  176.2220  147.2920 C   0  0  0  0  0  3  0  0  0  0  0  0
  188.7430  177.7380  147.4650 C   0  0  0  0  0  2  0  0  0  0  0  0
  186.6920  176.8860  142.7900 C   0  0  0  0  0  2  0  0  0  0  0  0
  190.5850  172.9320  141.3560 C   0  0  1  0  0  3  0  0  0  0  0  0
  191.1340  174.0930  142.1450 C   0  0  1  0  0  3  0  0  0  0  0  0
  189.7070  176.9350  146.6500 C   0  0  0  0  0  0  0  0  0  0  0  0
  188.7260  175.6450  143.3870 N   0  0  1  0  0  0  0  0  0  0  0  0
  185.7960  177.6850  144.9930 C   0  0  0  0  0  2  0  0  0  0  0  0
  192.1880  175.8140  145.3050 C   0  0  1  0  0  3  0  0  0  0  0  0
  184.4310  177.5560  143.0600 O   0  0  0  0  0  1  0  0  0  0  0  0
  189.6710  173.7420  142.2660 C   0  0  1  0  0  3  0  0  0  0  0  0
  189.1250  175.1350  142.0670 C   0  0  0  0  0  2  0  0  0  0  0  0
  191.6700  175.3000  146.6510 C   0  0  0  0  0  2  0  0  0  0  0  0
  194.2630  174.5220  145.8370 C   0  0  0  0  0  3  0  0  0  0  0  0
  193.6420  175.5190  145.0760 C   0  0  0  0  0  0  0  0  0  0  0  0
  194.3960  176.2500  144.1430 C   0  0  0  0  0  3  0  0  0  0  0  0
  196.5150  176.7150  143.0220 N   0  0  0  0  0  1  0  0  0  0  0  0
  196.3690  174.9750  144.7280 C   0  0  0  0  0  3  0  0  0  0  0  0
  195.7550  175.9740  143.9680 C   0  0  0  0  0  0  0  0  0  0  0  0
  195.6230  174.2490  145.6620 C   0  0  0  0  0  3  0  0  0  0  0  0
  190.3520  173.2770  139.9080 C   0  0  0  0  0  0  0  0  0  0  0  0
  191.4410  173.6100  139.0250 N   0  0  0  0  0  2  0  0  0  0  0  0
  189.1760  173.3280  139.4570 O   0  0  0  0  0  0  0  0  0  0  0  0
  193.4780  174.6450  138.5550 C   0  0  0  0  0  1  0  0  0  0  0  0
  192.8120  173.6330  139.3590 N   0  0  0  0  0  0  0  0  0  0  0  0
  193.7540  171.6990  140.2540 O   0  0  0  0  0  1  0  0  0  0  0  0
  193.4060  172.3370  139.0630 C   0  0  0  0  0  2  0  0  0  0  0  0
  1 10  1  6  0  0  0
  1 18  1  0  0  0  0
  2 16  1  1  0  0  0
  3  7  1  0  0  0  0
  4  8  2  0  0  0  0
  5  2  1  0  0  0  0
  6  2  1  0  0  0  0
  6  4  1  0  0  0  0
  7  5  1  0  0  0  0
  7 19  1  0  0  0  0
  8 12  1  0  0  0  0
  9 17  1  0  0  0  0
  9  6  1  0  0  0  0
 13  9  1  0  0  0  0
 13  1  1  0  0  0  0
 14 15  1  0  0  0  0
 14 21  1  0  0  0  0
 15 21  1  0  0  0  0
 15  3  1  0  0  0  0
 16 11  2  0  0  0  0
 16 12  1  0  0  0  0
 17  5  1  0  0  0  0
 18  4  1  0  0  0  0
 19 23  1  0  0  0  0
 20  1  1  0  0  0  0
 22 21  1  0  0  0  0
 22 17  1  0  0  0  0
 23 11  1  0  0  0  0
 25 19  1  0  0  0  0
 25 24  2  0  0  0  0
 26 25  1  0  0  0  0
 27 29  1  0  0  0  0
 28 30  2  0  0  0  0
 29 26  2  0  0  0  0
 29 28  1  0  0  0  0
 30 24  1  0  0  0  0
 31 14  1  0  0  0  0
 32 35  1  0  0  0  0
 32 31  1  0  0  0  0
 33 31  2  0  0  0  0
 34 35  1  0  0  0  0
 37 35  1  0  0  0  0
 37 36  1  0  0  0  0
M  END
>  <MODEL>
4

>  <REMARK>
 VINA RESULT:      -8.1      1.297      2.032
  Name = 
  4 active torsions:
  status: ('A' for Active; 'I' for Inactive)
    1  A    between atoms: N_4  and  N_12
    2  A    between atoms: N_4  and  C_37
    3  A    between atoms: C_8  and  C_18
    4  A    between atoms: C_23  and  C_30
                            x       y       z     vdW  Elec       q    Type
                         _______ _______ _______ _____ _____    ______ ____

>  <TORSDO>
F 4

$$$$
=
 OpenBabel11112417193D

 37 43  0  0  1  0  0  0  0  0999 V2000
  185.0010  178.2880  143.5060 C   0  0  1  0  0  0  0  0  0  0  0  0
  188.5920  176.2910  144.8710 C   0  0  1  0  0  3  0  0  0  0  0  0
  189.9360  173.4710  142.5440 C   0  0  0  0  0  2  0  0  0  0  0  0
  186.3010  177.2630  145.4170 C   0  0  0  0  0  0  0  0  0  0  0  0
  188.4770  175.1790  143.8490 C   0  0  2  0  0  3  0  0  0  0  0  0
  187.5280  177.3260  144.5190 C   0  0  2  0  0  3  0  0  0  0  0  0
  189.9160  174.7180  143.4430 C   0  0  1  0  0  3  0  0  0  0  0  0
  186.4050  176.8800  146.6980 C   0  0  0  0  0  3  0  0  0  0  0  0
  187.2200  177.0330  143.0450 C   0  0  2  0  0  3  0  0  0  0  0  0
  185.6090  179.6810  143.5160 C   0  0  0  0  0  1  0  0  0  0  0  0
  189.3100  174.7300  146.7120 C   0  0  0  0  0  3  0  0  0  0  0  0
  187.7260  176.4990  147.3000 C   0  0  0  0  0  2  0  0  0  0  0  0
  185.7890  177.3640  142.5790 C   0  0  0  0  0  2  0  0  0  0  0  0
  188.8980  173.2320  140.1050 C   0  0  1  0  0  3  0  0  0  0  0  0
  189.6230  174.0040  141.1780 C   0  0  1  0  0  3  0  0  0  0  0  0
  188.5540  175.7650  146.2920 C   0  0  0  0  0  0  0  0  0  0  0  0
  187.5070  175.6220  142.8060 N   0  0  1  0  0  0  0  0  0  0  0  0
  184.9570  177.7090  144.9190 C   0  0  0  0  0  2  0  0  0  0  0  0
  190.8310  174.5650  144.6820 C   0  0  1  0  0  3  0  0  0  0  0  0
  183.6930  178.3820  143.0310 O   0  0  0  0  0  1  0  0  0  0  0  0
  188.1160  173.9380  141.2050 C   0  0  1  0  0  3  0  0  0  0  0  0
  187.8650  175.4140  141.3960 C   0  0  0  0  0  2  0  0  0  0  0  0
  190.1550  173.8260  145.8390 C   0  0  0  0  0  2  0  0  0  0  0  0
  193.0630  174.8320  143.5830 C   0  0  0  0  0  3  0  0  0  0  0  0
  192.2090  174.0540  144.3750 C   0  0  0  0  0  0  0  0  0  0  0  0
  192.6400  172.7980  144.8320 C   0  0  0  0  0  3  0  0  0  0  0  0
  194.3530  171.0620  144.9730 N   0  0  0  0  0  1  0  0  0  0  0  0
  194.7680  173.1160  143.7200 C   0  0  0  0  0  3  0  0  0  0  0  0
  193.9190  172.3340  144.5070 C   0  0  0  0  0  0  0  0  0  0  0  0
  194.3400  174.3650  143.2580 C   0  0  0  0  0  3  0  0  0  0  0  0
  188.8110  173.9930  138.8060 C   0  0  0  0  0  0  0  0  0  0  0  0
  189.8530  173.9150  137.8140 N   0  0  0  0  0  2  0  0  0  0  0  0
  187.8320  174.7570  138.5920 O   0  0  0  0  0  0  0  0  0  0  0  0
  192.1520  174.0100  138.2010 C   0  0  0  0  0  1  0  0  0  0  0  0
  191.0290  173.1390  137.8930 N   0  0  0  0  0  0  0  0  0  0  0  0
  190.1780  172.6940  135.7710 O   0  0  0  0  0  1  0  0  0  0  0  0
  191.2740  172.4960  136.6100 C   0  0  0  0  0  2  0  0  0  0  0  0
  1 10  1  1  0  0  0
  1 18  1  0  0  0  0
  2 16  1  1  0  0  0
  3  7  1  0  0  0  0
  4  8  2  0  0  0  0
  5  2  1  0  0  0  0
  6  2  1  0  0  0  0
  6  4  1  0  0  0  0
  7  5  1  0  0  0  0
  7 19  1  0  0  0  0
  8 12  1  0  0  0  0
  9  6  1  0  0  0  0
 13  9  1  0  0  0  0
 13  1  1  0  0  0  0
 14 15  1  0  0  0  0
 14 21  1  0  0  0  0
 15 21  1  0  0  0  0
 15  3  1  0  0  0  0
 16 11  2  0  0  0  0
 16 12  1  0  0  0  0
 17  9  1  0  0  0  0
 17  5  1  0  0  0  0
 18  4  1  0  0  0  0
 19 23  1  0  0  0  0
 20  1  1  0  0  0  0
 21 22  1  0  0  0  0
 22 17  1  0  0  0  0
 23 11  1  0  0  0  0
 24 25  1  0  0  0  0
 25 19  1  0  0  0  0
 25 26  2  0  0  0  0
 28 29  2  0  0  0  0
 29 26  1  0  0  0  0
 29 27  1  0  0  0  0
 30 24  2  0  0  0  0
 30 28  1  0  0  0  0
 31 14  1  0  0  0  0
 32 35  1  0  0  0  0
 32 31  1  0  0  0  0
 33 31  2  0  0  0  0
 35 34  1  0  0  0  0
 36 37  1  0  0  0  0
 37 35  1  0  0  0  0
M  END
>  <MODEL>
5

>  <REMARK>
 VINA RESULT:      -7.8      2.200      2.852
  Name = 
  4 active torsions:
  status: ('A' for Active; 'I' for Inactive)
    1  A    between atoms: N_4  and  N_12
    2  A    between atoms: N_4  and  C_37
    3  A    between atoms: C_8  and  C_18
    4  A    between atoms: C_23  and  C_30
                            x       y       z     vdW  Elec       q    Type
                         _______ _______ _______ _____ _____    ______ ____

>  <TORSDO>
F 4

$$$$
=
 OpenBabel11112417193D

 37 43  0  0  1  0  0  0  0  0999 V2000
  194.4700  172.1470  144.3640 C   0  0  1  0  0  0  0  0  0  0  0  0
  191.5700  175.1240  145.5780 C   0  0  1  0  0  3  0  0  0  0  0  0
  188.8480  175.9980  142.9330 C   0  0  0  0  0  2  0  0  0  0  0  0
  193.9970  174.3520  145.5060 C   0  0  0  0  0  0  0  0  0  0  0  0
  191.0170  175.2940  144.1790 C   0  0  2  0  0  3  0  0  0  0  0  0
  192.5330  173.9410  145.5310 C   0  0  2  0  0  3  0  0  0  0  0  0
  189.4900  175.6260  144.2790 C   0  0  1  0  0  3  0  0  0  0  0  0
  194.4080  175.4720  146.1200 C   0  0  0  0  0  3  0  0  0  0  0  0
  192.0940  173.1740  144.2780 C   0  0  2  0  0  3  0  0  0  0  0  0
  194.1910  171.2060  145.5250 C   0  0  0  0  0  1  0  0  0  0  0  0
  191.4810  177.5910  146.0760 C   0  0  0  0  0  3  0  0  0  0  0  0
  193.4490  176.3640  146.8530 C   0  0  0  0  0  2  0  0  0  0  0  0
  193.2000  172.3870  143.5490 C   0  0  0  0  0  2  0  0  0  0  0  0
  188.6290  174.4540  140.7760 C   0  0  1  0  0  3  0  0  0  0  0  0
  188.6100  174.6760  142.2670 C   0  0  1  0  0  3  0  0  0  0  0  0
  192.1420  176.4170  146.1260 C   0  0  0  0  0  0  0  0  0  0  0  0
  191.4810  174.1340  143.3650 N   0  0  1  0  0  0  0  0  0  0  0  0
  195.0350  173.4740  144.8700 C   0  0  0  0  0  2  0  0  0  0  0  0
  189.2130  176.6830  145.3760 C   0  0  1  0  0  3  0  0  0  0  0  0
  195.4220  171.5540  143.5360 O   0  0  0  0  0  1  0  0  0  0  0  0
  189.9320  174.4900  141.5640 C   0  0  1  0  0  3  0  0  0  0  0  0
  190.5020  173.4550  142.5050 C   0  0  0  0  0  2  0  0  0  0  0  0
  190.1890  177.8600  145.3350 C   0  0  0  0  0  2  0  0  0  0  0  0
  186.9250  176.4170  146.3520 C   0  0  0  0  0  3  0  0  0  0  0  0
  187.7760  177.1040  145.4790 C   0  0  0  0  0  0  0  0  0  0  0  0
  187.2630  178.1460  144.6890 C   0  0  0  0  0  3  0  0  0  0  0  0
  185.3980  179.5570  143.9830 N   0  0  0  0  0  1  0  0  0  0  0  0
  185.0700  177.8130  145.6600 C   0  0  0  0  0  3  0  0  0  0  0  0
  185.9130  178.5010  144.7840 C   0  0  0  0  0  0  0  0  0  0  0  0
  185.5760  176.7710  146.4440 C   0  0  0  0  0  3  0  0  0  0  0  0
  188.2630  173.0410  140.3980 C   0  0  0  0  0  0  0  0  0  0  0  0
  188.7860  172.4170  139.2110 N   0  0  0  0  0  2  0  0  0  0  0  0
  187.4410  172.3970  141.1040 O   0  0  0  0  0  0  0  0  0  0  0  0
  189.3150  172.5890  136.9450 C   0  0  0  0  0  1  0  0  0  0  0  0
  189.6900  172.9910  138.2920 N   0  0  0  0  0  0  0  0  0  0  0  0
  191.8790  173.5870  138.8230 O   0  0  0  0  0  1  0  0  0  0  0  0
  191.0350  172.5070  138.5660 C   0  0  0  0  0  2  0  0  0  0  0  0
  1 18  1  0  0  0  0
  1 10  1  1  0  0  0
  2 16  1  6  0  0  0
  3  7  1  0  0  0  0
  4  6  1  0  0  0  0
  4  8  2  0  0  0  0
  5  7  1  0  0  0  0
  5  2  1  0  0  0  0
  6  2  1  0  0  0  0
  7 19  1  0  0  0  0
  8 12  1  0  0  0  0
  9  6  1  0  0  0  0
 11 16  2  0  0  0  0
 13  9  1  0  0  0  0
 13  1  1  0  0  0  0
 14 21  1  0  0  0  0
 14 15  1  0  0  0  0
 15  3  1  0  0  0  0
 16 12  1  0  0  0  0
 17  5  1  0  0  0  0
 17  9  1  0  0  0  0
 18  4  1  0  0  0  0
 19 25  1  0  0  0  0
 20  1  1  0  0  0  0
 21 15  1  0  0  0  0
 21 22  1  0  0  0  0
 22 17  1  0  0  0  0
 23 19  1  0  0  0  0
 23 11  1  0  0  0  0
 24 30  1  0  0  0  0
 25 24  2  0  0  0  0
 26 29  2  0  0  0  0
 26 25  1  0  0  0  0
 27 29  1  0  0  0  0
 28 30  2  0  0  0  0
 29 28  1  0  0  0  0
 31 14  1  0  0  0  0
 31 33  2  0  0  0  0
 32 31  1  0  0  0  0
 34 35  1  0  0  0  0
 35 37  1  0  0  0  0
 35 32  1  0  0  0  0
 37 36  1  0  0  0  0
M  END
>  <MODEL>
6

>  <REMARK>
 VINA RESULT:      -7.8      2.083      6.494
  Name = 
  4 active torsions:
  status: ('A' for Active; 'I' for Inactive)
    1  A    between atoms: N_4  and  N_12
    2  A    between atoms: N_4  and  C_37
    3  A    between atoms: C_8  and  C_18
    4  A    between atoms: C_23  and  C_30
                            x       y       z     vdW  Elec       q    Type
                         _______ _______ _______ _____ _____    ______ ____

>  <TORSDO>
F 4

$$$$
=
 OpenBabel11112417193D

 37 43  0  0  1  0  0  0  0  0999 V2000
  192.9880  176.3940  146.2680 C   0  0  1  0  0  0  0  0  0  0  0  0
  192.3360  173.6860  142.9540 C   0  0  1  0  0  3  0  0  0  0  0  0
  188.7980  173.8340  141.3320 C   0  0  0  0  0  2  0  0  0  0  0  0
  193.2900  174.0860  145.2830 C   0  0  0  0  0  0  0  0  0  0  0  0
  190.8400  173.9150  142.9380 C   0  0  2  0  0  3  0  0  0  0  0  0
  192.9260  174.6940  143.9360 C   0  0  2  0  0  3  0  0  0  0  0  0
  190.3290  173.7990  141.4620 C   0  0  1  0  0  3  0  0  0  0  0  0
  193.6920  172.8100  145.3750 C   0  0  0  0  0  3  0  0  0  0  0  0
  191.8430  175.7760  144.0290 C   0  0  2  0  0  3  0  0  0  0  0  0
  194.1890  177.0860  145.6430 C   0  0  0  0  0  1  0  0  0  0  0  0
  192.1160  171.2120  142.5430 C   0  0  0  0  0  3  0  0  0  0  0  0
  193.8010  171.9310  144.1640 C   0  0  0  0  0  2  0  0  0  0  0  0
  191.7610  176.5320  145.3690 C   0  0  0  0  0  2  0  0  0  0  0  0
  187.1730  175.8320  142.0040 C   0  0  1  0  0  3  0  0  0  0  0  0
  188.4580  175.2910  141.4310 C   0  0  1  0  0  3  0  0  0  0  0  0
  192.6890  172.2340  143.2100 C   0  0  0  0  0  0  0  0  0  0  0  0
  190.5600  175.1440  143.7350 N   0  0  1  0  0  0  0  0  0  0  0  0
  193.2920  174.9200  146.5310 C   0  0  0  0  0  2  0  0  0  0  0  0
  190.9540  172.5790  140.7430 C   0  0  1  0  0  3  0  0  0  0  0  0
  192.7140  177.0080  147.4900 O   0  0  0  0  0  1  0  0  0  0  0  0
  188.3170  175.4300  142.9270 C   0  0  1  0  0  3  0  0  0  0  0  0
  189.6290  176.1340  143.1770 C   0  0  0  0  0  2  0  0  0  0  0  0
  190.9400  171.3080  141.5950 C   0  0  0  0  0  2  0  0  0  0  0  0
  190.0660  171.0760  138.9500 C   0  0  0  0  0  3  0  0  0  0  0  0
  190.4530  172.3630  139.3440 C   0  0  0  0  0  0  0  0  0  0  0  0
  190.4030  173.4160  138.4160 C   0  0  0  0  0  3  0  0  0  0  0  0
  189.9080  174.2500  136.1750 N   0  0  0  0  0  1  0  0  0  0  0  0
  189.5700  171.8960  136.7250 C   0  0  0  0  0  3  0  0  0  0  0  0
  189.9580  173.1810  137.1110 C   0  0  0  0  0  0  0  0  0  0  0  0
  189.6240  170.8430  137.6450 C   0  0  0  0  0  3  0  0  0  0  0  0
  187.0750  177.3320  141.8850 C   0  0  0  0  0  0  0  0  0  0  0  0
  186.3620  178.1220  142.8550 N   0  0  0  0  0  2  0  0  0  0  0  0
  187.5830  177.9160  140.8900 O   0  0  0  0  0  0  0  0  0  0  0  0
  184.4410  178.3350  144.1630 C   0  0  0  0  0  1  0  0  0  0  0  0
  185.7100  177.6410  144.0110 N   0  0  0  0  0  0  0  0  0  0  0  0
  186.7800  176.7200  145.8640 O   0  0  0  0  0  1  0  0  0  0  0  0
  186.5330  177.9110  145.1810 C   0  0  0  0  0  2  0  0  0  0  0  0
  1 10  1  6  0  0  0
  1 18  1  0  0  0  0
  1 20  1  0  0  0  0
  2 16  1  1  0  0  0
  2  6  1  0  0  0  0
  3 15  1  0  0  0  0
  3  7  1  0  0  0  0
  4  8  2  0  0  0  0
  4 18  1  0  0  0  0
  5  2  1  0  0  0  0
  5 17  1  0  0  0  0
  6  9  1  0  0  0  0
  6  4  1  0  0  0  0
  7  5  1  0  0  0  0
  9 13  1  0  0  0  0
 11 16  2  0  0  0  0
 12  8  1  0  0  0  0
 13  1  1  0  0  0  0
 14 21  1  0  0  0  0
 15 14  1  0  0  0  0
 15 21  1  0  0  0  0
 16 12  1  0  0  0  0
 17  9  1  0  0  0  0
 19  7  1  0  0  0  0
 19 23  1  0  0  0  0
 21 22  1  0  0  0  0
 22 17  1  0  0  0  0
 23 11  1  0  0  0  0
 24 25  1  0  0  0  0
 25 19  1  0  0  0  0
 26 25  2  0  0  0  0
 27 29  1  0  0  0  0
 28 29  2  0  0  0  0
 28 30  1  0  0  0  0
 29 26  1  0  0  0  0
 30 24  2  0  0  0  0
 31 14  1  0  0  0  0
 31 32  1  0  0  0  0
 32 35  1  0  0  0  0
 33 31  2  0  0  0  0
 35 34  1  0  0  0  0
 35 37  1  0  0  0  0
 37 36  1  0  0  0  0
M  END
>  <MODEL>
7

>  <REMARK>
 VINA RESULT:      -7.5      2.577      7.059
  Name = 
  4 active torsions:
  status: ('A' for Active; 'I' for Inactive)
    1  A    between atoms: N_4  and  N_12
    2  A    between atoms: N_4  and  C_37
    3  A    between atoms: C_8  and  C_18
    4  A    between atoms: C_23  and  C_30
                            x       y       z     vdW  Elec       q    Type
                         _______ _______ _______ _____ _____    ______ ____

>  <TORSDO>
F 4

$$$$
=
 OpenBabel11112417193D

 37 43  0  0  1  0  0  0  0  0999 V2000
  185.7390  178.4530  146.8920 C   0  0  1  0  0  0  0  0  0  0  0  0
  186.2550  176.7710  142.9360 C   0  0  1  0  0  3  0  0  0  0  0  0
  189.9100  175.8370  141.9680 C   0  0  0  0  0  2  0  0  0  0  0  0
  185.1570  178.5160  144.4330 C   0  0  0  0  0  0  0  0  0  0  0  0
  187.7630  176.9000  142.9740 C   0  0  2  0  0  3  0  0  0  0  0  0
  185.7480  177.1170  144.3330 C   0  0  2  0  0  3  0  0  0  0  0  0
  188.3900  175.7200  142.1570 C   0  0  1  0  0  3  0  0  0  0  0  0
  184.5410  179.0800  143.3830 C   0  0  0  0  0  3  0  0  0  0  0  0
  186.9800  176.9110  145.2210 C   0  0  2  0  0  3  0  0  0  0  0  0
  184.7370  177.4070  147.3540 C   0  0  0  0  0  1  0  0  0  0  0  0
  186.1010  177.5010  140.5310 C   0  0  0  0  0  3  0  0  0  0  0  0
  184.4080  178.3620  142.0720 C   0  0  0  0  0  2  0  0  0  0  0  0
  187.0550  177.7920  146.4830 C   0  0  0  0  0  2  0  0  0  0  0  0
  191.7710  175.8410  143.8730 C   0  0  1  0  0  3  0  0  0  0  0  0
  190.4760  175.3560  143.2710 C   0  0  1  0  0  3  0  0  0  0  0  0
  185.6430  177.5640  141.7980 C   0  0  0  0  0  0  0  0  0  0  0  0
  188.1630  177.1270  144.3930 N   0  0  1  0  0  0  0  0  0  0  0  0
  185.1710  179.2690  145.7320 C   0  0  0  0  0  2  0  0  0  0  0  0
  187.6440  175.5020  140.8180 C   0  0  1  0  0  3  0  0  0  0  0  0
  185.9910  179.3210  147.9550 O   0  0  0  0  0  1  0  0  0  0  0  0
  190.4910  176.6490  144.0490 C   0  0  1  0  0  3  0  0  0  0  0  0
  189.2960  176.3580  144.9240 C   0  0  0  0  0  2  0  0  0  0  0  0
  187.3640  176.8070  140.0690 C   0  0  0  0  0  2  0  0  0  0  0  0
  188.7180  173.2600  140.5420 C   0  0  0  0  0  3  0  0  0  0  0  0
  188.2370  174.4320  139.9470 C   0  0  0  0  0  0  0  0  0  0  0  0
  188.3540  174.6030  138.5580 C   0  0  0  0  0  3  0  0  0  0  0  0
  189.0520  173.7780  136.3680 N   0  0  0  0  0  1  0  0  0  0  0  0
  189.4110  172.4320  138.3730 C   0  0  0  0  0  3  0  0  0  0  0  0
  188.9360  173.6020  137.7740 C   0  0  0  0  0  0  0  0  0  0  0  0
  189.3010  172.2610  139.7570 C   0  0  0  0  0  3  0  0  0  0  0  0
  192.1270  175.1080  145.1410 C   0  0  0  0  0  0  0  0  0  0  0  0
  192.1370  173.6700  145.2050 N   0  0  0  0  0  2  0  0  0  0  0  0
  192.3780  175.7590  146.1910 O   0  0  0  0  0  0  0  0  0  0  0  0
  190.5940  172.1110  144.4090 C   0  0  0  0  0  1  0  0  0  0  0  0
  191.8570  172.7820  144.1440 N   0  0  0  0  0  0  0  0  0  0  0  0
  192.3400  170.5060  144.0150 O   0  0  0  0  0  1  0  0  0  0  0  0
  192.9090  171.7800  144.0590 C   0  0  0  0  0  2  0  0  0  0  0  0
  1 10  1  1  0  0  0
  1 20  1  0  0  0  0
  2 16  1  6  0  0  0
  2  5  1  0  0  0  0
  2  6  1  0  0  0  0
  3  7  1  0  0  0  0
  3 15  1  0  0  0  0
  4 18  1  0  0  0  0
  5 17  1  0  0  0  0
  6  4  1  0  0  0  0
  6  9  1  0  0  0  0
  7  5  1  0  0  0  0
  8  4  2  0  0  0  0
  9 13  1  0  0  0  0
 11 16  2  0  0  0  0
 12  8  1  0  0  0  0
 13  1  1  0  0  0  0
 14 21  1  0  0  0  0
 14 31  1  0  0  0  0
 15 14  1  0  0  0  0
 15 21  1  0  0  0  0
 16 12  1  0  0  0  0
 17 22  1  0  0  0  0
 17  9  1  0  0  0  0
 18  1  1  0  0  0  0
 19  7  1  0  0  0  0
 21 22  1  0  0  0  0
 23 11  1  0  0  0  0
 23 19  1  0  0  0  0
 25 24  1  0  0  0  0
 25 19  1  0  0  0  0
 26 25  2  0  0  0  0
 27 29  1  0  0  0  0
 28 30  1  0  0  0  0
 29 28  2  0  0  0  0
 29 26  1  0  0  0  0
 30 24  2  0  0  0  0
 31 32  1  0  0  0  0
 31 33  2  0  0  0  0
 35 34  1  0  0  0  0
 35 32  1  0  0  0  0
 36 37  1  0  0  0  0
 37 35  1  0  0  0  0
M  END
>  <MODEL>
8

>  <REMARK>
 VINA RESULT:      -7.2      3.101      6.382
  Name = 
  4 active torsions:
  status: ('A' for Active; 'I' for Inactive)
    1  A    between atoms: N_4  and  N_12
    2  A    between atoms: N_4  and  C_37
    3  A    between atoms: C_8  and  C_18
    4  A    between atoms: C_23  and  C_30
                            x       y       z     vdW  Elec       q    Type
                         _______ _______ _______ _____ _____    ______ ____

>  <TORSDO>
F 4

$$$$
=
 OpenBabel11112417193D

 37 43  0  0  1  0  0  0  0  0999 V2000
  184.0840  178.0970  140.9130 C   0  0  1  0  0  0  0  0  0  0  0  0
  187.1110  177.9490  144.0040 C   0  0  1  0  0  3  0  0  0  0  0  0
  189.3610  174.7700  144.0040 C   0  0  0  0  0  2  0  0  0  0  0  0
  184.7130  178.4820  143.3310 C   0  0  0  0  0  0  0  0  0  0  0  0
  187.4300  176.4900  143.7550 C   0  0  2  0  0  3  0  0  0  0  0  0
  186.1660  178.3900  142.8900 C   0  0  2  0  0  3  0  0  0  0  0  0
  188.9490  176.2490  144.0470 C   0  0  1  0  0  3  0  0  0  0  0  0
  184.3950  178.8120  144.5910 C   0  0  0  0  0  3  0  0  0  0  0  0
  186.4040  177.3510  141.7880 C   0  0  2  0  0  3  0  0  0  0  0  0
  184.5560  179.4170  140.3240 C   0  0  0  0  0  1  0  0  0  0  0  0
  187.2560  177.7110  146.5060 C   0  0  0  0  0  3  0  0  0  0  0  0
  185.4510  179.1030  145.6170 C   0  0  0  0  0  2  0  0  0  0  0  0
  185.2030  177.0580  140.8690 C   0  0  0  0  0  2  0  0  0  0  0  0
  189.2440  173.1290  141.9110 C   0  0  1  0  0  3  0  0  0  0  0  0
  189.5020  174.4740  142.5410 C   0  0  1  0  0  3  0  0  0  0  0  0
  186.6230  178.1930  145.4180 C   0  0  0  0  0  0  0  0  0  0  0  0
  186.8510  176.1190  142.4310 N   0  0  1  0  0  0  0  0  0  0  0  0
  183.5950  178.2910  142.3470 C   0  0  0  0  0  2  0  0  0  0  0  0
  189.3900  176.9470  145.3570 C   0  0  1  0  0  3  0  0  0  0  0  0
  183.0160  177.6300  140.1470 O   0  0  0  0  0  1  0  0  0  0  0  0
  188.0850  174.0710  142.2130 C   0  0  1  0  0  3  0  0  0  0  0  0
  187.6860  175.3420  141.5040 C   0  0  0  0  0  2  0  0  0  0  0  0
  188.4080  176.7300  146.5110 C   0  0  0  0  0  2  0  0  0  0  0  0
  191.1280  176.4030  147.0710 C   0  0  0  0  0  3  0  0  0  0  0  0
  190.8210  176.6980  145.7380 C   0  0  0  0  0  0  0  0  0  0  0  0
  191.8550  176.7950  144.7940 C   0  0  0  0  0  3  0  0  0  0  0  0
  194.2270  176.6840  144.2210 N   0  0  0  0  0  1  0  0  0  0  0  0
  193.4830  176.2880  146.5130 C   0  0  0  0  0  3  0  0  0  0  0  0
  193.1820  176.5860  145.1820 C   0  0  0  0  0  0  0  0  0  0  0  0
  192.4560  176.1960  147.4580 C   0  0  0  0  0  3  0  0  0  0  0  0
  189.5590  173.1120  140.4370 C   0  0  0  0  0  0  0  0  0  0  0  0
  190.9000  173.3030  139.9490 N   0  0  0  0  0  2  0  0  0  0  0  0
  188.6270  172.9770  139.6000 O   0  0  0  0  0  0  0  0  0  0  0  0
  193.0670  174.1670  139.9300 C   0  0  0  0  0  1  0  0  0  0  0  0
  192.0570  173.4960  140.7320 N   0  0  0  0  0  0  0  0  0  0  0  0
  192.7760  172.2060  142.5350 O   0  0  0  0  0  1  0  0  0  0  0  0
  192.5800  172.2040  141.1540 C   0  0  0  0  0  2  0  0  0  0  0  0
  1 10  1  6  0  0  0
  1 18  1  0  0  0  0
  2 16  1  1  0  0  0
  3  7  1  0  0  0  0
  4  8  2  0  0  0  0
  5  2  1  0  0  0  0
  5  7  1  0  0  0  0
  6  4  1  0  0  0  0
  6  2  1  0  0  0  0
  7 19  1  0  0  0  0
  8 12  1  0  0  0  0
  9 17  1  0  0  0  0
  9  6  1  0  0  0  0
 11 23  1  0  0  0  0
 13  1  1  0  0  0  0
 13  9  1  0  0  0  0
 14 21  1  0  0  0  0
 14 15  1  0  0  0  0
 15  3  1  0  0  0  0
 16 12  1  0  0  0  0
 16 11  2  0  0  0  0
 17  5  1  0  0  0  0
 18  4  1  0  0  0  0
 19 25  1  0  0  0  0
 19 23  1  0  0  0  0
 20  1  1  0  0  0  0
 21 15  1  0  0  0  0
 22 21  1  0  0  0  0
 22 17  1  0  0  0  0
 24 30  1  0  0  0  0
 25 24  2  0  0  0  0
 26 29  2  0  0  0  0
 26 25  1  0  0  0  0
 27 29  1  0  0  0  0
 28 30  2  0  0  0  0
 29 28  1  0  0  0  0
 31 14  1  0  0  0  0
 32 31  1  0  0  0  0
 32 35  1  0  0  0  0
 33 31  2  0  0  0  0
 34 35  1  0  0  0  0
 35 37  1  0  0  0  0
 37 36  1  0  0  0  0
M  END
>  <MODEL>
9

>  <REMARK>
 VINA RESULT:      -6.9      2.176      3.775
  Name = 
  4 active torsions:
  status: ('A' for Active; 'I' for Inactive)
    1  A    between atoms: N_4  and  N_12
    2  A    between atoms: N_4  and  C_37
    3  A    between atoms: C_8  and  C_18
    4  A    between atoms: C_23  and  C_30
                            x       y       z     vdW  Elec       q    Type
                         _______ _______ _______ _____ _____    ______ ____

>  <TORSDO>
F 4

$$$$
