=
 OpenBabel11112416573D

 31 35  0  0  0  0  0  0  0  0999 V2000
  185.2280  177.9880  140.8810 C   0  0  0  0  0  0  0  0  0  0  0  0
  187.1770  177.4320  144.1960 C   0  0  0  0  0  0  0  0  0  0  0  0
  186.3080  177.7910  145.2760 C   0  0  0  0  0  0  0  0  0  0  0  0
  184.1780  178.6120  146.1570 C   0  0  0  0  0  0  0  0  0  0  0  0
  186.8290  177.5290  142.8100 C   0  0  0  0  0  0  0  0  0  0  0  0
  186.2780  177.5780  139.9470 C   0  0  0  0  0  3  0  0  0  0  0  0
  185.0000  178.2720  145.0800 C   0  0  0  0  0  3  0  0  0  0  0  0
  189.3890  176.5680  143.5440 C   0  0  0  0  0  0  0  0  0  0  0  0
  184.0920  178.2940  140.4370 O   0  0  0  0  0  0  0  0  0  0  0  0
  188.0390  177.1830  146.8650 C   0  0  0  0  0  3  0  0  0  0  0  0
  182.9250  179.0720  145.9320 F   0  0  0  0  0  0  0  0  0  0  0  0
  189.0250  176.6630  142.2040 C   0  0  0  0  0  3  0  0  0  0  0  0
  188.4750  176.9460  144.5380 C   0  0  0  0  0  0  0  0  0  0  0  0
  185.4930  178.0850  142.3550 C   0  0  0  0  0  2  0  0  0  0  0  0
  184.6490  178.4760  147.4620 C   0  0  0  0  0  3  0  0  0  0  0  0
  187.7730  177.1340  141.8320 C   0  0  0  0  0  0  0  0  0  0  0  0
  187.4660  177.1860  140.3940 C   0  0  0  0  0  3  0  0  0  0  0  0
  188.8530  176.8420  145.8400 N   0  0  0  0  0  0  0  0  0  0  0  0
  186.7620  177.6590  146.6130 C   0  0  0  0  0  0  0  0  0  0  0  0
  185.9390  178.0000  147.6900 C   0  0  0  0  0  3  0  0  0  0  0  0
  191.8830  178.0930  143.8780 O   0  0  0  0  0  0  0  0  0  0  0  0
  191.8910  176.8490  144.0830 C   0  0  0  0  0  0  0  0  0  0  0  0
  190.6870  176.0820  143.9270 N   0  0  0  0  0  2  0  0  0  0  0  0
  195.5380  174.8480  145.1510 C   0  0  0  0  0  0  0  0  0  0  0  0
  193.9740  175.6380  143.4860 C   0  0  0  0  0  3  0  0  0  0  0  0
  192.7470  176.5220  146.8730 O   0  0  0  0  0  1  0  0  0  0  0  0
  196.8030  174.1530  145.5030 C   0  0  0  0  0  1  0  0  0  0  0  0
  195.1640  174.9840  143.8150 C   0  0  0  0  0  3  0  0  0  0  0  0
  193.5290  176.0220  145.8390 C   0  0  0  0  0  0  0  0  0  0  0  0
  193.1430  176.1650  144.4860 C   0  0  0  0  0  0  0  0  0  0  0  0
  194.7230  175.3650  146.1600 C   0  0  0  0  0  3  0  0  0  0  0  0
  1 14  1  0  0  0  0
  2 13  1  0  0  0  0
  2  3  2  0  0  0  0
  3 19  1  0  0  0  0
  4 15  1  0  0  0  0
  5  2  1  0  0  0  0
  6 17  2  0  0  0  0
  6  1  1  0  0  0  0
  7  3  1  0  0  0  0
  7  4  2  0  0  0  0
  8 23  1  0  0  0  0
  8 13  1  0  0  0  0
  9  1  2  0  0  0  0
 11  4  1  0  0  0  0
 12  8  2  0  0  0  0
 13 18  2  0  0  0  0
 14  5  1  0  0  0  0
 15 20  2  0  0  0  0
 16 12  1  0  0  0  0
 16  5  2  0  0  0  0
 17 16  1  0  0  0  0
 18 10  1  0  0  0  0
 19 10  2  0  0  0  0
 19 20  1  0  0  0  0
 21 22  2  0  0  0  0
 22 30  1  0  0  0  0
 23 22  1  0  0  0  0
 24 27  1  0  0  0  0
 24 31  1  0  0  0  0
 25 28  1  0  0  0  0
 25 30  2  0  0  0  0
 28 24  2  0  0  0  0
 29 31  2  0  0  0  0
 29 26  1  0  0  0  0
 30 29  1  0  0  0  0
M  END
>  <MODEL>
1

>  <REMARK>
 VINA RESULT:      -9.8      0.000      0.000
  Name = 
  2 active torsions:
  status: ('A' for Active; 'I' for Inactive)
    1  A    between atoms: C_5  and  C_30
    2  A    between atoms: C_10  and  N_16
                            x       y       z     vdW  Elec       q    Type
                         _______ _______ _______ _____ _____    ______ ____

>  <TORSDO>
F 2

$$$$
=
 OpenBabel11112416573D

 31 35  0  0  0  0  0  0  0  0999 V2000
  185.1960  177.9940  140.9180 C   0  0  0  0  0  0  0  0  0  0  0  0
  187.1970  177.4010  144.1960 C   0  0  0  0  0  0  0  0  0  0  0  0
  186.3440  177.7460  145.2930 C   0  0  0  0  0  0  0  0  0  0  0  0
  184.2280  178.5550  146.2160 C   0  0  0  0  0  0  0  0  0  0  0  0
  186.8270  177.5130  142.8160 C   0  0  0  0  0  0  0  0  0  0  0  0
  186.2320  177.5950  139.9640 C   0  0  0  0  0  3  0  0  0  0  0  0
  185.0330  178.2280  145.1230 C   0  0  0  0  0  3  0  0  0  0  0  0
  189.3980  176.5450  143.4990 C   0  0  0  0  0  0  0  0  0  0  0  0
  184.0530  178.3050  140.4950 O   0  0  0  0  0  0  0  0  0  0  0  0
  188.1000  177.1210  146.8480 C   0  0  0  0  0  3  0  0  0  0  0  0
  182.9710  179.0170  146.0160 F   0  0  0  0  0  0  0  0  0  0  0  0
  189.0140  176.6560  142.1670 C   0  0  0  0  0  3  0  0  0  0  0  0
  188.5000  176.9110  144.5120 C   0  0  0  0  0  0  0  0  0  0  0  0
  185.4840  178.0740  142.3880 C   0  0  0  0  0  2  0  0  0  0  0  0
  184.7180  178.4050  147.5130 C   0  0  0  0  0  3  0  0  0  0  0  0
  187.7560  177.1300  141.8190 C   0  0  0  0  0  0  0  0  0  0  0  0
  187.4270  177.1990  140.3880 C   0  0  0  0  0  3  0  0  0  0  0  0
  188.8980  176.7920  145.8070 N   0  0  0  0  0  0  0  0  0  0  0  0
  186.8180  177.5990  146.6210 C   0  0  0  0  0  0  0  0  0  0  0  0
  186.0120  177.9270  147.7150 C   0  0  0  0  0  3  0  0  0  0  0  0
  191.8780  178.0800  143.8990 O   0  0  0  0  0  0  0  0  0  0  0  0
  191.8990  176.8280  144.0460 C   0  0  0  0  0  0  0  0  0  0  0  0
  190.7030  176.0560  143.8570 N   0  0  0  0  0  2  0  0  0  0  0  0
  195.5220  174.8410  145.2150 C   0  0  0  0  0  0  0  0  0  0  0  0
  193.4390  175.9300  145.7740 C   0  0  0  0  0  3  0  0  0  0  0  0
  193.8660  175.8640  142.0900 O   0  0  0  0  0  1  0  0  0  0  0  0
  196.7710  174.1550  145.6380 C   0  0  0  0  0  1  0  0  0  0  0  0
  194.6120  175.2850  146.1730 C   0  0  0  0  0  3  0  0  0  0  0  0
  194.0880  175.6850  143.4510 C   0  0  0  0  0  0  0  0  0  0  0  0
  193.1580  176.1390  144.4150 C   0  0  0  0  0  0  0  0  0  0  0  0
  195.2610  175.0400  143.8590 C   0  0  0  0  0  3  0  0  0  0  0  0
  1 14  1  0  0  0  0
  2 13  1  0  0  0  0
  2  3  2  0  0  0  0
  3 19  1  0  0  0  0
  4 15  1  0  0  0  0
  5  2  1  0  0  0  0
  6 17  2  0  0  0  0
  6  1  1  0  0  0  0
  7  3  1  0  0  0  0
  7  4  2  0  0  0  0
  8 23  1  0  0  0  0
  8 13  1  0  0  0  0
  9  1  2  0  0  0  0
 11  4  1  0  0  0  0
 12  8  2  0  0  0  0
 13 18  2  0  0  0  0
 14  5  1  0  0  0  0
 15 20  2  0  0  0  0
 16 12  1  0  0  0  0
 16  5  2  0  0  0  0
 17 16  1  0  0  0  0
 18 10  1  0  0  0  0
 19 10  2  0  0  0  0
 19 20  1  0  0  0  0
 21 22  2  0  0  0  0
 22 30  1  0  0  0  0
 23 22  1  0  0  0  0
 24 27  1  0  0  0  0
 24 28  1  0  0  0  0
 25 28  2  0  0  0  0
 26 29  1  0  0  0  0
 29 31  1  0  0  0  0
 29 30  2  0  0  0  0
 30 25  1  0  0  0  0
 31 24  2  0  0  0  0
M  END
>  <MODEL>
2

>  <REMARK>
 VINA RESULT:      -9.8      0.630      1.245
  Name = 
  2 active torsions:
  status: ('A' for Active; 'I' for Inactive)
    1  A    between atoms: C_5  and  C_30
    2  A    between atoms: C_10  and  N_16
                            x       y       z     vdW  Elec       q    Type
                         _______ _______ _______ _____ _____    ______ ____

>  <TORSDO>
F 2

$$$$
=
 OpenBabel11112416573D

 31 35  0  0  0  0  0  0  0  0999 V2000
  184.8740  178.0590  146.9770 C   0  0  0  0  0  0  0  0  0  0  0  0
  187.0200  177.7800  143.7490 C   0  0  0  0  0  0  0  0  0  0  0  0
  186.1350  177.8950  142.6290 C   0  0  0  0  0  0  0  0  0  0  0  0
  183.9100  178.1660  141.6490 C   0  0  0  0  0  0  0  0  0  0  0  0
  186.6000  177.8050  145.1190 C   0  0  0  0  0  0  0  0  0  0  0  0
  185.9490  177.9130  147.9590 C   0  0  0  0  0  3  0  0  0  0  0  0
  184.7440  178.0570  142.7640 C   0  0  0  0  0  3  0  0  0  0  0  0
  189.3480  177.5190  144.5060 C   0  0  0  0  0  0  0  0  0  0  0  0
  183.7020  178.2890  147.3730 O   0  0  0  0  0  0  0  0  0  0  0  0
  188.0280  177.7020  141.1220 C   0  0  0  0  0  3  0  0  0  0  0  0
  182.5760  178.3200  141.8150 F   0  0  0  0  0  0  0  0  0  0  0  0
  188.9170  177.5530  145.8290 C   0  0  0  0  0  3  0  0  0  0  0  0
  188.4120  177.6330  143.4690 C   0  0  0  0  0  0  0  0  0  0  0  0
  185.1370  177.9030  145.5080 C   0  0  0  0  0  2  0  0  0  0  0  0
  184.4530  178.1180  140.3650 C   0  0  0  0  0  3  0  0  0  0  0  0
  187.5710  177.6920  146.1410 C   0  0  0  0  0  0  0  0  0  0  0  0
  187.2050  177.7360  147.5650 C   0  0  0  0  0  3  0  0  0  0  0  0
  188.8570  177.5990  142.1850 N   0  0  0  0  0  0  0  0  0  0  0  0
  186.6640  177.8520  141.3140 C   0  0  0  0  0  0  0  0  0  0  0  0
  185.8280  177.9610  140.1980 C   0  0  0  0  0  3  0  0  0  0  0  0
  190.9900  175.0770  144.5680 O   0  0  0  0  0  0  0  0  0  0  0  0
  191.5220  176.1660  144.2230 C   0  0  0  0  0  0  0  0  0  0  0  0
  190.7420  177.3720  144.1840 N   0  0  0  0  0  2  0  0  0  0  0  0
  195.6520  176.2910  143.0540 C   0  0  0  0  0  0  0  0  0  0  0  0
  193.3120  176.0390  142.5080 C   0  0  0  0  0  3  0  0  0  0  0  0
  193.6900  176.6120  146.1530 O   0  0  0  0  0  1  0  0  0  0  0  0
  197.0770  176.3320  142.6320 C   0  0  0  0  0  1  0  0  0  0  0  0
  194.6500  176.0770  142.1090 C   0  0  0  0  0  3  0  0  0  0  0  0
  193.9800  176.4320  144.8050 C   0  0  0  0  0  0  0  0  0  0  0  0
  192.9570  176.2150  143.8540 C   0  0  0  0  0  0  0  0  0  0  0  0
  195.3180  176.4680  144.3980 C   0  0  0  0  0  3  0  0  0  0  0  0
  1  9  2  0  0  0  0
  1  6  1  0  0  0  0
  2  5  1  0  0  0  0
  3  7  2  0  0  0  0
  3  2  1  0  0  0  0
  4 11  1  0  0  0  0
  4  7  1  0  0  0  0
  5 14  1  0  0  0  0
  5 16  2  0  0  0  0
  8 12  2  0  0  0  0
 10 19  1  0  0  0  0
 10 18  2  0  0  0  0
 12 16  1  0  0  0  0
 13  2  2  0  0  0  0
 13  8  1  0  0  0  0
 14  1  1  0  0  0  0
 15  4  2  0  0  0  0
 16 17  1  0  0  0  0
 17  6  2  0  0  0  0
 18 13  1  0  0  0  0
 19  3  1  0  0  0  0
 20 15  1  0  0  0  0
 20 19  2  0  0  0  0
 22 21  2  0  0  0  0
 23 22  1  0  0  0  0
 23  8  1  0  0  0  0
 24 31  1  0  0  0  0
 25 30  2  0  0  0  0
 27 24  1  0  0  0  0
 28 25  1  0  0  0  0
 28 24  2  0  0  0  0
 29 26  1  0  0  0  0
 30 22  1  0  0  0  0
 30 29  1  0  0  0  0
 31 29  2  0  0  0  0
M  END
>  <MODEL>
3

>  <REMARK>
 VINA RESULT:      -9.2      1.992      4.146
  Name = 
  2 active torsions:
  status: ('A' for Active; 'I' for Inactive)
    1  A    between atoms: C_5  and  C_30
    2  A    between atoms: C_10  and  N_16
                            x       y       z     vdW  Elec       q    Type
                         _______ _______ _______ _____ _____    ______ ____

>  <TORSDO>
F 2

$$$$
=
 OpenBabel11112416573D

 31 35  0  0  0  0  0  0  0  0999 V2000
  184.4400  178.5400  146.4470 C   0  0  0  0  0  0  0  0  0  0  0  0
  187.1810  177.4770  143.9060 C   0  0  0  0  0  0  0  0  0  0  0  0
  186.6370  177.6320  142.5910 C   0  0  0  0  0  0  0  0  0  0  0  0
  184.8250  178.2170  141.0550 C   0  0  0  0  0  0  0  0  0  0  0  0
  186.4620  177.7420  145.1170 C   0  0  0  0  0  0  0  0  0  0  0  0
  185.1920  178.3010  147.6810 C   0  0  0  0  0  3  0  0  0  0  0  0
  185.3230  178.0770  142.3520 C   0  0  0  0  0  3  0  0  0  0  0  0
  189.1470  176.8560  145.2530 C   0  0  0  0  0  0  0  0  0  0  0  0
  183.2870  179.0380  146.5130 O   0  0  0  0  0  0  0  0  0  0  0  0
  188.7460  176.9010  141.6380 C   0  0  0  0  0  3  0  0  0  0  0  0
  183.5550  178.6460  140.8620 F   0  0  0  0  0  0  0  0  0  0  0  0
  188.4300  177.1260  146.4140 C   0  0  0  0  0  3  0  0  0  0  0  0
  188.5330  177.0310  144.0040 C   0  0  0  0  0  0  0  0  0  0  0  0
  185.0060  178.1670  145.1080 C   0  0  0  0  0  2  0  0  0  0  0  0
  185.6350  177.9160  139.9610 C   0  0  0  0  0  3  0  0  0  0  0  0
  187.1130  177.5610  146.3600 C   0  0  0  0  0  0  0  0  0  0  0  0
  186.4360  177.8380  147.6360 C   0  0  0  0  0  3  0  0  0  0  0  0
  189.2550  176.7620  142.8830 N   0  0  0  0  0  0  0  0  0  0  0  0
  187.4420  177.3350  141.4620 C   0  0  0  0  0  0  0  0  0  0  0  0
  186.9410  177.4760  140.1640 C   0  0  0  0  0  3  0  0  0  0  0  0
  190.1700  174.2420  146.1380 O   0  0  0  0  0  0  0  0  0  0  0  0
  190.9850  175.1210  145.7480 C   0  0  0  0  0  0  0  0  0  0  0  0
  190.5120  176.4040  145.3110 N   0  0  0  0  0  2  0  0  0  0  0  0
  195.2180  174.3990  145.7630 C   0  0  0  0  0  0  0  0  0  0  0  0
  193.3140  175.7920  146.2850 C   0  0  0  0  0  3  0  0  0  0  0  0
  192.1670  172.6730  144.6380 O   0  0  0  0  0  1  0  0  0  0  0  0
  196.6860  174.1660  145.7760 C   0  0  0  0  0  1  0  0  0  0  0  0
  194.6930  175.5740  146.2990 C   0  0  0  0  0  3  0  0  0  0  0  0
  192.9810  173.6520  145.1950 C   0  0  0  0  0  0  0  0  0  0  0  0
  192.4400  174.8400  145.7370 C   0  0  0  0  0  0  0  0  0  0  0  0
  194.3650  173.4420  145.2120 C   0  0  0  0  0  3  0  0  0  0  0  0
  1  9  2  0  0  0  0
  1  6  1  0  0  0  0
  2 13  2  0  0  0  0
  2  5  1  0  0  0  0
  3  2  1  0  0  0  0
  4  7  1  0  0  0  0
  5 16  2  0  0  0  0
  7  3  2  0  0  0  0
  8 23  1  0  0  0  0
  8 12  2  0  0  0  0
 10 18  2  0  0  0  0
 11  4  1  0  0  0  0
 13  8  1  0  0  0  0
 14  5  1  0  0  0  0
 14  1  1  0  0  0  0
 15 20  1  0  0  0  0
 15  4  2  0  0  0  0
 16 12  1  0  0  0  0
 16 17  1  0  0  0  0
 17  6  2  0  0  0  0
 18 13  1  0  0  0  0
 19 10  1  0  0  0  0
 19  3  1  0  0  0  0
 20 19  2  0  0  0  0
 22 21  2  0  0  0  0
 23 22  1  0  0  0  0
 24 27  1  0  0  0  0
 24 28  1  0  0  0  0
 25 28  2  0  0  0  0
 26 29  1  0  0  0  0
 29 31  1  0  0  0  0
 29 30  2  0  0  0  0
 30 22  1  0  0  0  0
 30 25  1  0  0  0  0
 31 24  2  0  0  0  0
M  END
>  <MODEL>
4

>  <REMARK>
 VINA RESULT:      -9.2      2.072      4.292
  Name = 
  2 active torsions:
  status: ('A' for Active; 'I' for Inactive)
    1  A    between atoms: C_5  and  C_30
    2  A    between atoms: C_10  and  N_16
                            x       y       z     vdW  Elec       q    Type
                         _______ _______ _______ _____ _____    ______ ____

>  <TORSDO>
F 2

$$$$
=
 OpenBabel11112416573D

 31 35  0  0  0  0  0  0  0  0999 V2000
  185.3630  177.9990  140.9330 C   0  0  0  0  0  0  0  0  0  0  0  0
  187.1570  176.9830  144.2260 C   0  0  0  0  0  0  0  0  0  0  0  0
  186.3470  177.4340  145.3180 C   0  0  0  0  0  0  0  0  0  0  0  0
  184.3750  178.5590  146.2270 C   0  0  0  0  0  0  0  0  0  0  0  0
  186.8450  177.1960  142.8440 C   0  0  0  0  0  0  0  0  0  0  0  0
  186.3410  177.4610  139.9850 C   0  0  0  0  0  3  0  0  0  0  0  0
  185.1400  178.1340  145.1390 C   0  0  0  0  0  3  0  0  0  0  0  0
  189.2010  175.7910  143.5430 C   0  0  0  0  0  0  0  0  0  0  0  0
  184.2980  178.5100  140.4990 O   0  0  0  0  0  0  0  0  0  0  0  0
  187.9370  176.4780  146.8840 C   0  0  0  0  0  3  0  0  0  0  0  0
  183.2180  179.2310  146.0190 F   0  0  0  0  0  0  0  0  0  0  0  0
  188.8720  176.0050  142.2080 C   0  0  0  0  0  3  0  0  0  0  0  0
  188.3520  176.2730  144.5500 C   0  0  0  0  0  0  0  0  0  0  0  0
  185.6250  177.9870  142.4100 C   0  0  0  0  0  2  0  0  0  0  0  0
  184.8020  178.2900  147.5270 C   0  0  0  0  0  3  0  0  0  0  0  0
  187.7200  176.6920  141.8530 C   0  0  0  0  0  0  0  0  0  0  0  0
  187.4420  176.8580  140.4180 C   0  0  0  0  0  3  0  0  0  0  0  0
  188.6930  176.0510  145.8480 N   0  0  0  0  0  0  0  0  0  0  0  0
  186.7590  177.1710  146.6490 C   0  0  0  0  0  0  0  0  0  0  0  0
  185.9920  177.5970  147.7380 C   0  0  0  0  0  3  0  0  0  0  0  0
  189.5250  172.9150  144.0770 O   0  0  0  0  0  0  0  0  0  0  0  0
  190.5280  173.6740  144.1660 C   0  0  0  0  0  0  0  0  0  0  0  0
  190.3960  175.0810  143.9090 N   0  0  0  0  0  2  0  0  0  0  0  0
  194.3870  172.1630  145.2910 C   0  0  0  0  0  0  0  0  0  0  0  0
  192.6810  173.8710  145.3860 C   0  0  0  0  0  3  0  0  0  0  0  0
  191.5440  171.0880  143.2140 O   0  0  0  0  0  1  0  0  0  0  0  0
  195.7260  171.6550  145.6910 C   0  0  0  0  0  1  0  0  0  0  0  0
  193.9390  173.3950  145.7630 C   0  0  0  0  0  3  0  0  0  0  0  0
  192.3170  171.8740  144.0600 C   0  0  0  0  0  0  0  0  0  0  0  0
  191.8540  173.1220  144.5340 C   0  0  0  0  0  0  0  0  0  0  0  0
  193.5790  171.4040  144.4420 C   0  0  0  0  0  3  0  0  0  0  0  0
  1 14  1  0  0  0  0
  2 13  1  0  0  0  0
  2  3  2  0  0  0  0
  3 19  1  0  0  0  0
  4 15  1  0  0  0  0
  5  2  1  0  0  0  0
  6 17  2  0  0  0  0
  6  1  1  0  0  0  0
  7  3  1  0  0  0  0
  7  4  2  0  0  0  0
  8 23  1  0  0  0  0
  8 13  1  0  0  0  0
  9  1  2  0  0  0  0
 11  4  1  0  0  0  0
 12  8  2  0  0  0  0
 13 18  2  0  0  0  0
 14  5  1  0  0  0  0
 15 20  2  0  0  0  0
 16 12  1  0  0  0  0
 16  5  2  0  0  0  0
 17 16  1  0  0  0  0
 18 10  1  0  0  0  0
 19 10  2  0  0  0  0
 19 20  1  0  0  0  0
 21 22  2  0  0  0  0
 22 30  1  0  0  0  0
 23 22  1  0  0  0  0
 24 27  1  0  0  0  0
 24 28  1  0  0  0  0
 25 28  2  0  0  0  0
 26 29  1  0  0  0  0
 29 31  1  0  0  0  0
 29 30  2  0  0  0  0
 30 25  1  0  0  0  0
 31 24  2  0  0  0  0
M  END
>  <MODEL>
5

>  <REMARK>
 VINA RESULT:      -9.1      2.280      2.403
  Name = 
  2 active torsions:
  status: ('A' for Active; 'I' for Inactive)
    1  A    between atoms: C_5  and  C_30
    2  A    between atoms: C_10  and  N_16
                            x       y       z     vdW  Elec       q    Type
                         _______ _______ _______ _____ _____    ______ ____

>  <TORSDO>
F 2

$$$$
=
 OpenBabel11112416573D

 31 35  0  0  0  0  0  0  0  0999 V2000
  190.8160  176.9760  147.6370 C   0  0  0  0  0  0  0  0  0  0  0  0
  188.3030  176.5960  144.6970 C   0  0  0  0  0  0  0  0  0  0  0  0
  187.0960  177.2710  145.0680 C   0  0  0  0  0  0  0  0  0  0  0  0
  185.7360  178.5640  146.6380 C   0  0  0  0  0  0  0  0  0  0  0  0
  189.4610  176.4870  145.5340 C   0  0  0  0  0  0  0  0  0  0  0  0
  191.9340  176.2290  147.0570 C   0  0  0  0  0  3  0  0  0  0  0  0
  186.9280  177.9140  146.3080 C   0  0  0  0  0  3  0  0  0  0  0  0
  189.4880  175.3200  142.9560 C   0  0  0  0  0  0  0  0  0  0  0  0
  190.9630  177.5420  148.7500 O   0  0  0  0  0  0  0  0  0  0  0  0
  186.1230  176.7010  142.9190 C   0  0  0  0  0  3  0  0  0  0  0  0
  185.6080  179.1720  147.8400 F   0  0  0  0  0  0  0  0  0  0  0  0
  190.6020  175.2340  143.7840 C   0  0  0  0  0  3  0  0  0  0  0  0
  188.3440  175.9970  143.4020 C   0  0  0  0  0  0  0  0  0  0  0  0
  189.4870  177.0460  146.9440 C   0  0  0  0  0  2  0  0  0  0  0  0
  184.6800  178.5870  145.7270 C   0  0  0  0  0  3  0  0  0  0  0  0
  190.6010  175.8020  145.0510 C   0  0  0  0  0  0  0  0  0  0  0  0
  191.8270  175.6780  145.8530 C   0  0  0  0  0  3  0  0  0  0  0  0
  187.2680  176.0690  142.5740 N   0  0  0  0  0  0  0  0  0  0  0  0
  186.0090  177.3110  144.1580 C   0  0  0  0  0  0  0  0  0  0  0  0
  184.8170  177.9610  144.4890 C   0  0  0  0  0  3  0  0  0  0  0  0
  188.4760  172.6790  142.1400 O   0  0  0  0  0  0  0  0  0  0  0  0
  188.9900  173.4350  141.2720 C   0  0  0  0  0  0  0  0  0  0  0  0
  189.4910  174.7290  141.6440 N   0  0  0  0  0  2  0  0  0  0  0  0
  189.3170  172.0850  137.2090 C   0  0  0  0  0  0  0  0  0  0  0  0
  189.7720  171.8100  139.5660 C   0  0  0  0  0  3  0  0  0  0  0  0
  187.8160  174.9150  139.0240 O   0  0  0  0  0  1  0  0  0  0  0  0
  189.4390  171.6020  135.8080 C   0  0  0  0  0  1  0  0  0  0  0  0
  189.8880  171.3550  138.2510 C   0  0  0  0  0  3  0  0  0  0  0  0
  188.5080  173.7310  138.7960 C   0  0  0  0  0  0  0  0  0  0  0  0
  189.0840  172.9980  139.8590 C   0  0  0  0  0  0  0  0  0  0  0  0
  188.6290  173.2690  137.4810 C   0  0  0  0  0  3  0  0  0  0  0  0
  1  9  2  0  0  0  0
  2  3  1  0  0  0  0
  2  5  1  0  0  0  0
  3  7  2  0  0  0  0
  4 11  1  0  0  0  0
  5 14  1  0  0  0  0
  6  1  1  0  0  0  0
  7  4  1  0  0  0  0
  8 13  1  0  0  0  0
  8 12  2  0  0  0  0
 10 19  1  0  0  0  0
 12 16  1  0  0  0  0
 13  2  2  0  0  0  0
 14  1  1  0  0  0  0
 15  4  2  0  0  0  0
 16  5  2  0  0  0  0
 16 17  1  0  0  0  0
 17  6  2  0  0  0  0
 18 10  2  0  0  0  0
 18 13  1  0  0  0  0
 19 20  2  0  0  0  0
 19  3  1  0  0  0  0
 20 15  1  0  0  0  0
 22 23  1  0  0  0  0
 22 21  2  0  0  0  0
 23  8  1  0  0  0  0
 24 31  2  0  0  0  0
 24 28  1  0  0  0  0
 25 30  1  0  0  0  0
 27 24  1  0  0  0  0
 28 25  2  0  0  0  0
 29 26  1  0  0  0  0
 29 30  2  0  0  0  0
 30 22  1  0  0  0  0
 31 29  1  0  0  0  0
M  END
>  <MODEL>
6

>  <REMARK>
 VINA RESULT:      -8.7      3.548      6.448
  Name = 
  2 active torsions:
  status: ('A' for Active; 'I' for Inactive)
    1  A    between atoms: C_5  and  C_30
    2  A    between atoms: C_10  and  N_16
                            x       y       z     vdW  Elec       q    Type
                         _______ _______ _______ _____ _____    ______ ____

>  <TORSDO>
F 2

$$$$
=
 OpenBabel11112416573D

 31 35  0  0  0  0  0  0  0  0999 V2000
  186.1030  177.9050  146.8930 C   0  0  0  0  0  0  0  0  0  0  0  0
  189.2030  176.4730  145.0390 C   0  0  0  0  0  0  0  0  0  0  0  0
  190.3200  176.5570  145.9310 C   0  0  0  0  0  0  0  0  0  0  0  0
  191.3370  177.1650  148.0710 C   0  0  0  0  0  0  0  0  0  0  0  0
  187.8810  176.9310  145.3490 C   0  0  0  0  0  0  0  0  0  0  0  0
  185.1190  177.7300  145.8240 C   0  0  0  0  0  3  0  0  0  0  0  0
  190.2270  177.0990  147.2270 C   0  0  0  0  0  3  0  0  0  0  0  0
  188.3970  175.7620  142.8230 C   0  0  0  0  0  0  0  0  0  0  0  0
  185.7290  178.3390  148.0130 O   0  0  0  0  0  0  0  0  0  0  0  0
  191.7340  175.5240  144.2510 C   0  0  0  0  0  3  0  0  0  0  0  0
  191.2120  177.6930  149.3120 F   0  0  0  0  0  0  0  0  0  0  0  0
  187.1200  176.2080  143.1510 C   0  0  0  0  0  3  0  0  0  0  0  0
  189.4350  175.8890  143.7570 C   0  0  0  0  0  0  0  0  0  0  0  0
  187.5570  177.6130  146.6650 C   0  0  0  0  0  2  0  0  0  0  0  0
  192.5720  176.6870  147.6370 C   0  0  0  0  0  3  0  0  0  0  0  0
  186.8550  176.7830  144.3860 C   0  0  0  0  0  0  0  0  0  0  0  0
  185.4750  177.2120  144.6540 C   0  0  0  0  0  3  0  0  0  0  0  0
  190.6740  175.4440  143.4150 N   0  0  0  0  0  0  0  0  0  0  0  0
  191.5870  176.0750  145.5140 C   0  0  0  0  0  0  0  0  0  0  0  0
  192.6970  176.1430  146.3600 C   0  0  0  0  0  3  0  0  0  0  0  0
  187.7520  173.0440  141.8940 O   0  0  0  0  0  0  0  0  0  0  0  0
  188.3450  173.8360  141.1130 C   0  0  0  0  0  0  0  0  0  0  0  0
  188.6700  175.1680  141.5420 N   0  0  0  0  0  2  0  0  0  0  0  0
  189.3510  172.6600  137.1070 C   0  0  0  0  0  0  0  0  0  0  0  0
  188.2130  174.1300  138.6510 C   0  0  0  0  0  3  0  0  0  0  0  0
  190.0660  171.5280  140.5370 O   0  0  0  0  0  1  0  0  0  0  0  0
  189.6900  172.2660  135.7140 C   0  0  0  0  0  1  0  0  0  0  0  0
  188.5300  173.7620  137.3420 C   0  0  0  0  0  3  0  0  0  0  0  0
  189.5430  172.2870  139.4970 C   0  0  0  0  0  0  0  0  0  0  0  0
  188.7120  173.4030  139.7440 C   0  0  0  0  0  0  0  0  0  0  0  0
  189.8560  171.9240  138.1810 C   0  0  0  0  0  3  0  0  0  0  0  0
  1  9  2  0  0  0  0
  2  5  1  0  0  0  0
  2  3  2  0  0  0  0
  3  7  1  0  0  0  0
  4 11  1  0  0  0  0
  5 14  1  0  0  0  0
  6  1  1  0  0  0  0
  7  4  2  0  0  0  0
  8 12  2  0  0  0  0
  8 13  1  0  0  0  0
 10 19  2  0  0  0  0
 12 16  1  0  0  0  0
 13  2  1  0  0  0  0
 14  1  1  0  0  0  0
 15  4  1  0  0  0  0
 16 17  1  0  0  0  0
 16  5  2  0  0  0  0
 17  6  2  0  0  0  0
 18 13  2  0  0  0  0
 18 10  1  0  0  0  0
 19  3  1  0  0  0  0
 19 20  1  0  0  0  0
 20 15  2  0  0  0  0
 22 23  1  0  0  0  0
 22 21  2  0  0  0  0
 23  8  1  0  0  0  0
 24 28  2  0  0  0  0
 24 31  1  0  0  0  0
 25 30  2  0  0  0  0
 27 24  1  0  0  0  0
 28 25  1  0  0  0  0
 29 30  1  0  0  0  0
 29 26  1  0  0  0  0
 30 22  1  0  0  0  0
 31 29  2  0  0  0  0
M  END
>  <MODEL>
7

>  <REMARK>
 VINA RESULT:      -8.6      4.021      6.624
  Name = 
  2 active torsions:
  status: ('A' for Active; 'I' for Inactive)
    1  A    between atoms: C_5  and  C_30
    2  A    between atoms: C_10  and  N_16
                            x       y       z     vdW  Elec       q    Type
                         _______ _______ _______ _____ _____    ______ ____

>  <TORSDO>
F 2

$$$$
=
 OpenBabel11112416573D

 31 35  0  0  0  0  0  0  0  0999 V2000
  190.9160  176.8050  147.6740 C   0  0  0  0  0  0  0  0  0  0  0  0
  188.4210  176.2550  144.7460 C   0  0  0  0  0  0  0  0  0  0  0  0
  187.2650  177.0600  145.0040 C   0  0  0  0  0  0  0  0  0  0  0  0
  185.9890  178.6360  146.3720 C   0  0  0  0  0  0  0  0  0  0  0  0
  189.5550  176.1630  145.6160 C   0  0  0  0  0  0  0  0  0  0  0  0
  191.9800  175.9090  147.2150 C   0  0  0  0  0  3  0  0  0  0  0  0
  187.1300  177.8630  146.1520 C   0  0  0  0  0  3  0  0  0  0  0  0
  189.5260  174.6880  143.2010 C   0  0  0  0  0  0  0  0  0  0  0  0
  191.0910  177.4910  148.7130 O   0  0  0  0  0  0  0  0  0  0  0  0
  186.2790  176.3030  142.9190 C   0  0  0  0  0  3  0  0  0  0  0  0
  185.8920  179.3960  147.4880 F   0  0  0  0  0  0  0  0  0  0  0  0
  190.6190  174.6210  144.0600 C   0  0  0  0  0  3  0  0  0  0  0  0
  188.4320  175.4990  143.5350 C   0  0  0  0  0  0  0  0  0  0  0  0
  189.6050  176.8890  146.9480 C   0  0  0  0  0  2  0  0  0  0  0  0
  184.9500  178.6260  145.4420 C   0  0  0  0  0  3  0  0  0  0  0  0
  190.6450  175.3400  145.2470 C   0  0  0  0  0  0  0  0  0  0  0  0
  191.8470  175.2230  146.0860 C   0  0  0  0  0  3  0  0  0  0  0  0
  187.3760  175.5490  142.6800 N   0  0  0  0  0  0  0  0  0  0  0  0
  186.1970  177.0690  144.0720 C   0  0  0  0  0  0  0  0  0  0  0  0
  185.0540  177.8430  144.2930 C   0  0  0  0  0  3  0  0  0  0  0  0
  191.6520  174.4130  141.1840 O   0  0  0  0  0  0  0  0  0  0  0  0
  190.5530  173.8230  141.0030 C   0  0  0  0  0  0  0  0  0  0  0  0
  189.5000  173.9400  141.9730 N   0  0  0  0  0  2  0  0  0  0  0  0
  189.9150  171.5310  137.4280 C   0  0  0  0  0  0  0  0  0  0  0  0
  190.1520  173.6530  138.5590 C   0  0  0  0  0  3  0  0  0  0  0  0
  190.4790  170.8870  141.0090 O   0  0  0  0  0  1  0  0  0  0  0  0
  189.6940  170.7530  136.1810 C   0  0  0  0  0  1  0  0  0  0  0  0
  189.9440  172.9240  137.3860 C   0  0  0  0  0  3  0  0  0  0  0  0
  190.3050  171.5880  139.8220 C   0  0  0  0  0  0  0  0  0  0  0  0
  190.3360  173.0010  139.7890 C   0  0  0  0  0  0  0  0  0  0  0  0
  190.0950  170.8650  138.6420 C   0  0  0  0  0  3  0  0  0  0  0  0
  1  9  2  0  0  0  0
  2  3  1  0  0  0  0
  2  5  1  0  0  0  0
  3  7  2  0  0  0  0
  4 11  1  0  0  0  0
  5 14  1  0  0  0  0
  6  1  1  0  0  0  0
  7  4  1  0  0  0  0
  8 13  1  0  0  0  0
  8 12  2  0  0  0  0
 10 19  1  0  0  0  0
 12 16  1  0  0  0  0
 13  2  2  0  0  0  0
 14  1  1  0  0  0  0
 15  4  2  0  0  0  0
 16  5  2  0  0  0  0
 16 17  1  0  0  0  0
 17  6  2  0  0  0  0
 18 10  2  0  0  0  0
 18 13  1  0  0  0  0
 19 20  2  0  0  0  0
 19  3  1  0  0  0  0
 20 15  1  0  0  0  0
 22 21  2  0  0  0  0
 22 23  1  0  0  0  0
 23  8  1  0  0  0  0
 24 31  1  0  0  0  0
 25 30  2  0  0  0  0
 27 24  1  0  0  0  0
 28 24  2  0  0  0  0
 28 25  1  0  0  0  0
 29 26  1  0  0  0  0
 30 29  1  0  0  0  0
 30 22  1  0  0  0  0
 31 29  2  0  0  0  0
M  END
>  <MODEL>
8

>  <REMARK>
 VINA RESULT:      -8.3      3.814      6.258
  Name = 
  2 active torsions:
  status: ('A' for Active; 'I' for Inactive)
    1  A    between atoms: C_5  and  C_30
    2  A    between atoms: C_10  and  N_16
                            x       y       z     vdW  Elec       q    Type
                         _______ _______ _______ _____ _____    ______ ____

>  <TORSDO>
F 2

$$$$
=
 OpenBabel11112416573D

 31 35  0  0  0  0  0  0  0  0999 V2000
  186.2530  178.5560  144.5450 C   0  0  0  0  0  0  0  0  0  0  0  0
  188.9930  175.8010  144.4970 C   0  0  0  0  0  0  0  0  0  0  0  0
  189.8410  176.0130  145.6320 C   0  0  0  0  0  0  0  0  0  0  0  0
  190.5010  177.2470  147.6380 C   0  0  0  0  0  0  0  0  0  0  0  0
  187.8790  176.6340  144.1510 C   0  0  0  0  0  0  0  0  0  0  0  0
  185.5340  178.1590  143.3330 C   0  0  0  0  0  3  0  0  0  0  0  0
  189.6550  177.0710  146.5410 C   0  0  0  0  0  3  0  0  0  0  0  0
  188.5060  174.3970  142.5340 C   0  0  0  0  0  0  0  0  0  0  0  0
  185.8140  179.5070  145.2410 O   0  0  0  0  0  0  0  0  0  0  0  0
  191.1460  174.0610  145.0140 C   0  0  0  0  0  3  0  0  0  0  0  0
  190.2940  178.2760  148.4930 F   0  0  0  0  0  0  0  0  0  0  0  0
  187.4250  175.2160  142.2230 C   0  0  0  0  0  3  0  0  0  0  0  0
  189.2880  174.6810  143.6630 C   0  0  0  0  0  0  0  0  0  0  0  0
  187.5280  177.8750  144.9500 C   0  0  0  0  0  2  0  0  0  0  0  0
  191.5580  176.3630  147.8520 C   0  0  0  0  0  3  0  0  0  0  0  0
  187.1080  176.3160  143.0090 C   0  0  0  0  0  0  0  0  0  0  0  0
  185.9390  177.1170  142.6170 C   0  0  0  0  0  3  0  0  0  0  0  0
  190.3380  173.8660  143.9470 N   0  0  0  0  0  0  0  0  0  0  0  0
  190.9210  175.1260  145.8730 C   0  0  0  0  0  0  0  0  0  0  0  0
  191.7670  175.3030  146.9710 C   0  0  0  0  0  3  0  0  0  0  0  0
  190.6050  174.1640  140.4840 O   0  0  0  0  0  0  0  0  0  0  0  0
  189.8650  173.1720  140.7210 C   0  0  0  0  0  0  0  0  0  0  0  0
  188.8340  173.2600  141.7170 N   0  0  0  0  0  2  0  0  0  0  0  0
  190.4620  169.4620  138.6410 C   0  0  0  0  0  0  0  0  0  0  0  0
  190.8250  170.8880  140.5580 C   0  0  0  0  0  3  0  0  0  0  0  0
  188.7060  172.6490  138.0740 O   0  0  0  0  0  1  0  0  0  0  0  0
  190.6790  168.1720  137.9350 C   0  0  0  0  0  1  0  0  0  0  0  0
  191.0290  169.6750  139.8970 C   0  0  0  0  0  3  0  0  0  0  0  0
  189.4800  171.6800  138.7020 C   0  0  0  0  0  0  0  0  0  0  0  0
  190.0510  171.9040  139.9760 C   0  0  0  0  0  0  0  0  0  0  0  0
  189.6910  170.4620  138.0460 C   0  0  0  0  0  3  0  0  0  0  0  0
  1 14  1  0  0  0  0
  1  9  2  0  0  0  0
  2  3  2  0  0  0  0
  3 19  1  0  0  0  0
  3  7  1  0  0  0  0
  4 15  1  0  0  0  0
  4 11  1  0  0  0  0
  5  2  1  0  0  0  0
  5 14  1  0  0  0  0
  6  1  1  0  0  0  0
  7  4  2  0  0  0  0
  8 13  1  0  0  0  0
 10 19  2  0  0  0  0
 12  8  2  0  0  0  0
 12 16  1  0  0  0  0
 13 18  2  0  0  0  0
 13  2  1  0  0  0  0
 16  5  2  0  0  0  0
 17 16  1  0  0  0  0
 17  6  2  0  0  0  0
 18 10  1  0  0  0  0
 19 20  1  0  0  0  0
 20 15  2  0  0  0  0
 21 22  2  0  0  0  0
 22 23  1  0  0  0  0
 23  8  1  0  0  0  0
 24 28  1  0  0  0  0
 26 29  1  0  0  0  0
 27 24  1  0  0  0  0
 28 25  2  0  0  0  0
 29 30  2  0  0  0  0
 30 25  1  0  0  0  0
 30 22  1  0  0  0  0
 31 24  2  0  0  0  0
 31 29  1  0  0  0  0
M  END
>  <MODEL>
9

>  <REMARK>
 VINA RESULT:      -8.3      4.591      6.134
  Name = 
  2 active torsions:
  status: ('A' for Active; 'I' for Inactive)
    1  A    between atoms: C_5  and  C_30
    2  A    between atoms: C_10  and  N_16
                            x       y       z     vdW  Elec       q    Type
                         _______ _______ _______ _____ _____    ______ ____

>  <TORSDO>
F 2

$$$$
