=
 OpenBabel11112416413D

 32 37  0  0  1  0  0  0  0  0999 V2000
  190.3160  174.5250  143.6290 C   0  0  1  0  0  3  0  0  0  0  0  0
  191.2470  176.6100  147.9680 C   0  0  0  0  0  3  0  0  0  0  0  0
  190.2330  177.5370  147.7270 C   0  0  0  0  0  3  0  0  0  0  0  0
  188.1930  175.0090  142.3310 C   0  0  2  0  0  3  0  0  0  0  0  0
  187.1150  176.1000  142.1910 C   0  0  2  0  0  3  0  0  0  0  0  0
  191.9360  173.3170  142.6350 C   0  0  2  0  0  3  0  0  0  0  0  0
  192.0820  173.6060  145.1180 O   0  0  0  0  0  0  0  0  0  0  0  0
  185.9630  177.9340  143.1660 N   0  0  0  0  0  0  0  0  0  0  0  0
  191.4440  175.5440  147.0880 C   0  0  0  0  0  3  0  0  0  0  0  0
  190.7970  174.2160  145.0440 C   0  0  1  0  0  3  0  0  0  0  0  0
  190.6330  175.4030  145.9530 C   0  0  0  0  0  0  0  0  0  0  0  0
  188.7200  176.2400  144.4750 C   0  0  2  0  0  3  0  0  0  0  0  0
  187.0180  178.5070  142.3400 C   0  0  0  0  0  2  0  0  0  0  0  0
  192.7960  173.6510  143.8880 C   0  0  2  0  0  3  0  0  0  0  0  0
  187.6890  177.3650  141.5920 C   0  0  0  0  0  2  0  0  0  0  0  0
  189.4050  177.3950  146.6100 C   0  0  0  0  0  3  0  0  0  0  0  0
  189.5730  176.3160  145.7300 C   0  0  0  0  0  0  0  0  0  0  0  0
  187.2410  176.4420  144.7630 C   0  0  0  0  0  2  0  0  0  0  0  0
  190.5400  173.3820  142.8580 O   0  0  0  0  0  0  0  0  0  0  0  0
  187.6460  173.7710  141.9940 O   0  0  0  0  0  1  0  0  0  0  0  0
  185.7890  178.7680  144.3510 C   0  0  0  0  0  1  0  0  0  0  0  0
  188.8490  174.9170  143.7140 C   0  0  2  0  0  3  0  0  0  0  0  0
  186.3940  176.5600  143.4660 C   0  0  2  0  0  3  0  0  0  0  0  0
  194.8580  174.9470  144.3860 C   0  0  0  0  0  2  0  0  0  0  0  0
  193.4980  174.9910  143.7200 C   0  0  1  0  0  3  0  0  0  0  0  0
  194.7460  174.7980  142.8840 C   0  0  1  0  0  3  0  0  0  0  0  0
  195.0970  176.1120  142.2160 C   0  0  0  0  0  2  0  0  0  0  0  0
  196.5750  176.2860  142.1870 C   0  0  0  0  0  0  0  0  0  0  0  0
  197.2530  175.7710  141.2590 O   0  0  0  0  0  0  0  0  0  0  0  0
  197.2050  177.0490  143.1620 O   0  0  0  0  0  1  0  0  0  0  0  0
  191.7140  170.9620  142.9190 O   0  0  0  0  0  1  0  0  0  0  0  0
  192.3080  171.9400  142.1220 C   0  0  0  0  0  2  0  0  0  0  0  0
  1 19  1  6  0  0  0
  1 22  1  0  0  0  0
  1 10  1  0  0  0  0
  3  2  1  0  0  0  0
  4 20  1  1  0  0  0
  4 22  1  0  0  0  0
  5 15  1  1  0  0  0
  5  4  1  0  0  0  0
  5 23  1  0  0  0  0
  6 32  1  1  0  0  0
  6 19  1  0  0  0  0
  6 14  1  0  0  0  0
  8 23  1  0  0  0  0
  8 21  1  0  0  0  0
  9  2  2  0  0  0  0
 10  7  1  6  0  0  0
 10 11  1  0  0  0  0
 11  9  1  0  0  0  0
 12 18  1  1  0  0  0
 12 17  1  0  0  0  0
 13  8  1  0  0  0  0
 14  7  1  1  0  0  0
 15 13  1  0  0  0  0
 16  3  2  0  0  0  0
 17 11  2  0  0  0  0
 17 16  1  0  0  0  0
 22 12  1  0  0  0  0
 23 18  1  0  0  0  0
 25 14  1  0  0  0  0
 25 24  1  0  0  0  0
 26 25  1  0  0  0  0
 26 24  1  0  0  0  0
 27 26  1  0  0  0  0
 28 27  1  0  0  0  0
 28 30  1  0  0  0  0
 29 28  2  0  0  0  0
 32 31  1  0  0  0  0
M  END
>  <MODEL>
1

>  <REMARK>
 VINA RESULT:      -7.3      0.000      0.000
  Name = 
  4 active torsions:
  status: ('A' for Active; 'I' for Inactive)
    1  A    between atoms: C_7  and  C_19
    2  A    between atoms: C_10  and  C_17
    3  A    between atoms: C_20  and  C_29
    4  A    between atoms: C_29  and  C_30
                            x       y       z     vdW  Elec       q    Type
                         _______ _______ _______ _____ _____    ______ ____

>  <TORSDO>
F 4

$$$$
=
 OpenBabel11112416413D

 32 37  0  0  1  0  0  0  0  0999 V2000
  188.3230  176.1950  141.8360 C   0  0  1  0  0  3  0  0  0  0  0  0
  191.9700  178.2940  144.3520 C   0  0  0  0  0  3  0  0  0  0  0  0
  192.5670  177.0430  144.5080 C   0  0  0  0  0  3  0  0  0  0  0  0
  188.5010  173.8360  140.9230 C   0  0  2  0  0  3  0  0  0  0  0  0
  189.2590  172.5220  141.1830 C   0  0  2  0  0  3  0  0  0  0  0  0
  186.3370  177.2480  141.7190 C   0  0  2  0  0  3  0  0  0  0  0  0
  188.3530  178.6530  142.1990 O   0  0  0  0  0  0  0  0  0  0  0  0
  191.1780  171.4430  142.0780 N   0  0  0  0  0  0  0  0  0  0  0  0
  190.8430  178.4350  143.5390 C   0  0  0  0  0  3  0  0  0  0  0  0
  189.1300  177.4850  141.9520 C   0  0  1  0  0  3  0  0  0  0  0  0
  190.2990  177.3220  142.8840 C   0  0  0  0  0  0  0  0  0  0  0  0
  190.3280  174.8160  142.3690 C   0  0  2  0  0  3  0  0  0  0  0  0
  190.1420  171.3480  143.0990 C   0  0  0  0  0  2  0  0  0  0  0  0
  187.0090  178.3660  142.5660 C   0  0  2  0  0  3  0  0  0  0  0  0
  188.8580  171.9080  142.5070 C   0  0  0  0  0  2  0  0  0  0  0  0
  192.0450  175.9300  143.8440 C   0  0  0  0  0  3  0  0  0  0  0  0
  190.9290  176.0590  143.0040 C   0  0  0  0  0  0  0  0  0  0  0  0
  191.3740  173.9390  141.7010 C   0  0  0  0  0  2  0  0  0  0  0  0
  187.2480  176.4550  140.9820 O   0  0  0  0  0  0  0  0  0  0  0  0
  188.1410  173.9050  139.5780 O   0  0  0  0  0  1  0  0  0  0  0  0
  192.4710  171.6110  142.7350 C   0  0  0  0  0  1  0  0  0  0  0  0
  189.2560  175.1110  141.3160 C   0  0  2  0  0  3  0  0  0  0  0  0
  190.7930  172.5780  141.2260 C   0  0  2  0  0  3  0  0  0  0  0  0
  186.0250  179.0680  144.7390 C   0  0  0  0  0  2  0  0  0  0  0  0
  186.9120  178.0500  144.0520 C   0  0  1  0  0  3  0  0  0  0  0  0
  185.4790  177.6990  144.3940 C   0  0  1  0  0  3  0  0  0  0  0  0
  185.4690  176.8280  145.6350 C   0  0  0  0  0  2  0  0  0  0  0  0
  185.0620  177.6360  146.8170 C   0  0  0  0  0  0  0  0  0  0  0  0
  183.9200  178.1660  146.8550 O   0  0  0  0  0  0  0  0  0  0  0  0
  185.9250  177.7750  147.8950 O   0  0  0  0  0  1  0  0  0  0  0  0
  184.1160  178.0690  141.4450 O   0  0  0  0  0  1  0  0  0  0  0  0
  185.3250  177.8720  140.7770 C   0  0  0  0  0  2  0  0  0  0  0  0
  1 19  1  6  0  0  0
  1 10  1  0  0  0  0
  2  3  1  0  0  0  0
  4 20  1  6  0  0  0
  4  5  1  0  0  0  0
  4 22  1  0  0  0  0
  5 23  1  0  0  0  0
  5 15  1  1  0  0  0
  6 32  1  6  0  0  0
  6 14  1  0  0  0  0
  8 21  1  0  0  0  0
  8 13  1  0  0  0  0
  9  2  2  0  0  0  0
 10  7  1  1  0  0  0
 10 11  1  0  0  0  0
 11 17  2  0  0  0  0
 11  9  1  0  0  0  0
 12 18  1  6  0  0  0
 12 17  1  0  0  0  0
 14  7  1  6  0  0  0
 14 25  1  0  0  0  0
 15 13  1  0  0  0  0
 16  3  2  0  0  0  0
 17 16  1  0  0  0  0
 19  6  1  0  0  0  0
 22  1  1  0  0  0  0
 22 12  1  0  0  0  0
 23 18  1  0  0  0  0
 23  8  1  0  0  0  0
 25 26  1  0  0  0  0
 25 24  1  0  0  0  0
 26 24  1  0  0  0  0
 26 27  1  0  0  0  0
 27 28  1  0  0  0  0
 28 29  2  0  0  0  0
 28 30  1  0  0  0  0
 32 31  1  0  0  0  0
M  END
>  <MODEL>
2

>  <REMARK>
 VINA RESULT:      -7.3      3.964      7.391
  Name = 
  4 active torsions:
  status: ('A' for Active; 'I' for Inactive)
    1  A    between atoms: C_7  and  C_19
    2  A    between atoms: C_10  and  C_17
    3  A    between atoms: C_20  and  C_29
    4  A    between atoms: C_29  and  C_30
                            x       y       z     vdW  Elec       q    Type
                         _______ _______ _______ _____ _____    ______ ____

>  <TORSDO>
F 4

$$$$
=
 OpenBabel11112416413D

 32 37  0  0  1  0  0  0  0  0999 V2000
  191.1450  175.7320  145.7060 C   0  0  1  0  0  3  0  0  0  0  0  0
  190.1750  171.4290  143.5660 C   0  0  0  0  0  3  0  0  0  0  0  0
  191.5150  171.3280  143.1880 C   0  0  0  0  0  3  0  0  0  0  0  0
  193.5150  176.4910  146.1900 C   0  0  2  0  0  3  0  0  0  0  0  0
  194.9550  176.2570  145.6980 C   0  0  2  0  0  3  0  0  0  0  0  0
  189.4610  177.1920  146.0210 C   0  0  2  0  0  3  0  0  0  0  0  0
  188.8520  174.7760  145.7770 O   0  0  0  0  0  0  0  0  0  0  0  0
  196.5080  174.8240  144.6120 N   0  0  0  0  0  0  0  0  0  0  0  0
  189.7600  172.4690  144.4000 C   0  0  0  0  0  3  0  0  0  0  0  0
  190.2490  174.5010  145.8100 C   0  0  1  0  0  3  0  0  0  0  0  0
  190.6810  173.4230  144.8550 C   0  0  0  0  0  0  0  0  0  0  0  0
  193.0640  174.3500  144.9230 C   0  0  2  0  0  3  0  0  0  0  0  0
  196.0390  175.7610  143.5990 C   0  0  0  0  0  2  0  0  0  0  0  0
  188.5510  176.1070  145.3760 C   0  0  2  0  0  3  0  0  0  0  0  0
  195.1470  176.7800  144.2910 C   0  0  0  0  0  2  0  0  0  0  0  0
  192.4450  172.2620  143.6520 C   0  0  0  0  0  3  0  0  0  0  0  0
  192.0500  173.2970  144.5110 C   0  0  0  0  0  0  0  0  0  0  0  0
  194.3660  173.7430  145.4190 C   0  0  0  0  0  2  0  0  0  0  0  0
  190.6470  176.6830  146.6000 O   0  0  0  0  0  0  0  0  0  0  0  0
  193.5400  176.8770  147.5290 O   0  0  0  0  0  1  0  0  0  0  0  0
  196.7300  173.5250  143.9850 C   0  0  0  0  0  1  0  0  0  0  0  0
  192.5690  175.2970  146.0200 C   0  0  2  0  0  3  0  0  0  0  0  0
  195.4690  174.8110  145.6530 C   0  0  2  0  0  3  0  0  0  0  0  0
  187.1640  175.9860  143.3160 C   0  0  0  0  0  2  0  0  0  0  0  0
  188.5580  176.2280  143.8590 C   0  0  1  0  0  3  0  0  0  0  0  0
  187.6910  177.4000  143.4480 C   0  0  1  0  0  3  0  0  0  0  0  0
  188.1500  177.9000  142.0940 C   0  0  0  0  0  2  0  0  0  0  0  0
  187.0140  177.8710  141.1320 C   0  0  0  0  0  0  0  0  0  0  0  0
  187.1020  177.1980  140.0720 O   0  0  0  0  0  0  0  0  0  0  0  0
  185.8410  178.5570  141.4210 O   0  0  0  0  0  1  0  0  0  0  0  0
  187.3240  177.5900  147.0000 O   0  0  0  0  0  1  0  0  0  0  0  0
  188.6690  177.9550  147.0660 C   0  0  0  0  0  2  0  0  0  0  0  0
  1 10  1  0  0  0  0
  1 22  1  0  0  0  0
  1 19  1  1  0  0  0
  2  9  1  0  0  0  0
  3  2  2  0  0  0  0
  3 16  1  0  0  0  0
  4 20  1  1  0  0  0
  5 15  1  6  0  0  0
  5  4  1  0  0  0  0
  6 19  1  0  0  0  0
  6 32  1  1  0  0  0
  7 10  1  0  0  0  0
  8 23  1  0  0  0  0
  9 11  2  0  0  0  0
 10 11  1  6  0  0  0
 12 18  1  1  0  0  0
 12 22  1  0  0  0  0
 13 15  1  0  0  0  0
 13  8  1  0  0  0  0
 14  7  1  6  0  0  0
 14  6  1  0  0  0  0
 16 17  2  0  0  0  0
 17 11  1  0  0  0  0
 17 12  1  0  0  0  0
 18 23  1  0  0  0  0
 21  8  1  0  0  0  0
 22  4  1  0  0  0  0
 23  5  1  0  0  0  0
 24 26  1  0  0  0  0
 24 25  1  0  0  0  0
 25 14  1  0  0  0  0
 26 25  1  0  0  0  0
 27 26  1  0  0  0  0
 28 30  1  0  0  0  0
 28 27  1  0  0  0  0
 29 28  2  0  0  0  0
 31 32  1  0  0  0  0
M  END
>  <MODEL>
3

>  <REMARK>
 VINA RESULT:      -7.1      3.235      7.483
  Name = 
  4 active torsions:
  status: ('A' for Active; 'I' for Inactive)
    1  A    between atoms: C_7  and  C_19
    2  A    between atoms: C_10  and  C_17
    3  A    between atoms: C_20  and  C_29
    4  A    between atoms: C_29  and  C_30
                            x       y       z     vdW  Elec       q    Type
                         _______ _______ _______ _____ _____    ______ ____

>  <TORSDO>
F 4

$$$$
=
 OpenBabel11112416413D

 32 37  0  0  1  0  0  0  0  0999 V2000
  190.7830  175.7650  143.2100 C   0  0  1  0  0  3  0  0  0  0  0  0
  194.5070  176.8850  146.1960 C   0  0  0  0  0  3  0  0  0  0  0  0
  194.9410  175.5610  146.1310 C   0  0  0  0  0  3  0  0  0  0  0  0
  190.7310  173.6120  141.8730 C   0  0  2  0  0  3  0  0  0  0  0  0
  191.3120  172.1870  141.9030 C   0  0  2  0  0  3  0  0  0  0  0  0
  188.9450  177.0660  143.2310 C   0  0  2  0  0  3  0  0  0  0  0  0
  191.0830  178.0910  144.0350 O   0  0  0  0  0  0  0  0  0  0  0  0
  193.0370  170.7280  142.6390 N   0  0  0  0  0  0  0  0  0  0  0  0
  193.4510  177.3160  145.3890 C   0  0  0  0  0  3  0  0  0  0  0  0
  191.7290  176.8990  143.5960 C   0  0  1  0  0  3  0  0  0  0  0  0
  192.8170  176.4200  144.5170 C   0  0  0  0  0  0  0  0  0  0  0  0
  192.5770  174.0690  143.5370 C   0  0  2  0  0  3  0  0  0  0  0  0
  191.9410  170.5780  143.5890 C   0  0  0  0  0  2  0  0  0  0  0  0
  189.6970  177.9140  144.2970 C   0  0  2  0  0  3  0  0  0  0  0  0
  190.7680  171.3960  143.0720 C   0  0  0  0  0  2  0  0  0  0  0  0
  194.3290  174.6650  145.2510 C   0  0  0  0  0  3  0  0  0  0  0  0
  193.2850  175.0870  144.4150 C   0  0  0  0  0  0  0  0  0  0  0  0
  193.5480  173.2040  142.7490 C   0  0  0  0  0  2  0  0  0  0  0  0
  189.7950  176.3130  142.3880 O   0  0  0  0  0  0  0  0  0  0  0  0
  190.4560  173.9730  140.5540 O   0  0  0  0  0  1  0  0  0  0  0  0
  194.3020  170.6060  143.3570 C   0  0  0  0  0  1  0  0  0  0  0  0
  191.6080  174.6870  142.5250 C   0  0  2  0  0  3  0  0  0  0  0  0
  192.8370  172.0400  142.0060 C   0  0  2  0  0  3  0  0  0  0  0  0
  188.0860  177.6850  146.1780 C   0  0  0  0  0  2  0  0  0  0  0  0
  189.4800  177.3440  145.6920 C   0  0  1  0  0  3  0  0  0  0  0  0
  188.3830  176.3010  145.6390 C   0  0  1  0  0  3  0  0  0  0  0  0
  188.5660  175.3360  146.7930 C   0  0  0  0  0  2  0  0  0  0  0  0
  189.8220  174.5580  146.6060 C   0  0  0  0  0  0  0  0  0  0  0  0
  189.8520  173.5950  145.7950 O   0  0  0  0  0  0  0  0  0  0  0  0
  190.9710  174.9160  147.2990 O   0  0  0  0  0  1  0  0  0  0  0  0
  187.7530  177.3500  141.1870 O   0  0  0  0  0  1  0  0  0  0  0  0
  188.0680  177.9760  142.3930 C   0  0  0  0  0  2  0  0  0  0  0  0
  1 19  1  6  0  0  0
  1 10  1  0  0  0  0
  3  2  1  0  0  0  0
  4 20  1  6  0  0  0
  4  5  1  0  0  0  0
  4 22  1  0  0  0  0
  5 23  1  0  0  0  0
  5 15  1  1  0  0  0
  6 32  1  6  0  0  0
  6 14  1  0  0  0  0
  8 21  1  0  0  0  0
  8 13  1  0  0  0  0
  9  2  2  0  0  0  0
 10  7  1  1  0  0  0
 10 11  1  0  0  0  0
 11  9  1  0  0  0  0
 12 18  1  6  0  0  0
 12 17  1  0  0  0  0
 14  7  1  6  0  0  0
 14 25  1  0  0  0  0
 15 13  1  0  0  0  0
 16  3  2  0  0  0  0
 17 11  2  0  0  0  0
 17 16  1  0  0  0  0
 19  6  1  0  0  0  0
 22  1  1  0  0  0  0
 22 12  1  0  0  0  0
 23  8  1  0  0  0  0
 23 18  1  0  0  0  0
 25 24  1  0  0  0  0
 26 25  1  0  0  0  0
 26 24  1  0  0  0  0
 26 27  1  0  0  0  0
 28 27  1  0  0  0  0
 28 30  1  0  0  0  0
 29 28  2  0  0  0  0
 31 32  1  0  0  0  0
M  END
>  <MODEL>
4

>  <REMARK>
 VINA RESULT:      -6.9      3.189      6.382
  Name = 
  4 active torsions:
  status: ('A' for Active; 'I' for Inactive)
    1  A    between atoms: C_7  and  C_19
    2  A    between atoms: C_10  and  C_17
    3  A    between atoms: C_20  and  C_29
    4  A    between atoms: C_29  and  C_30
                            x       y       z     vdW  Elec       q    Type
                         _______ _______ _______ _____ _____    ______ ____

>  <TORSDO>
F 4

$$$$
=
 OpenBabel11112416413D

 32 37  0  0  1  0  0  0  0  0999 V2000
  189.2000  176.6800  144.3750 C   0  0  1  0  0  3  0  0  0  0  0  0
  186.8090  177.5410  140.1830 C   0  0  0  0  0  3  0  0  0  0  0  0
  185.6530  177.8170  140.9130 C   0  0  0  0  0  3  0  0  0  0  0  0
  188.2670  177.3830  146.6260 C   0  0  2  0  0  3  0  0  0  0  0  0
  186.9210  177.6980  147.3010 C   0  0  2  0  0  3  0  0  0  0  0  0
  191.0440  175.3880  144.3290 C   0  0  2  0  0  3  0  0  0  0  0  0
  190.3790  176.5140  142.1940 O   0  0  0  0  0  0  0  0  0  0  0  0
  184.6600  178.3920  147.0670 N   0  0  0  0  0  0  0  0  0  0  0  0
  188.0190  177.3220  140.8450 C   0  0  0  0  0  3  0  0  0  0  0  0
  189.3940  177.2050  142.9550 C   0  0  1  0  0  3  0  0  0  0  0  0
  188.0780  177.3690  142.2450 C   0  0  0  0  0  0  0  0  0  0  0  0
  186.9240  177.6810  144.5060 C   0  0  2  0  0  3  0  0  0  0  0  0
  184.6380  176.9350  147.1170 C   0  0  0  0  0  2  0  0  0  0  0  0
  190.8020  175.2960  142.7950 C   0  0  2  0  0  3  0  0  0  0  0  0
  186.0550  176.4620  147.4040 C   0  0  0  0  0  2  0  0  0  0  0  0
  185.7050  177.8850  142.3070 C   0  0  0  0  0  3  0  0  0  0  0  0
  186.9160  177.6940  142.9870 C   0  0  0  0  0  0  0  0  0  0  0  0
  186.1840  178.8680  145.1020 C   0  0  0  0  0  2  0  0  0  0  0  0
  190.4710  176.5300  144.9370 O   0  0  0  0  0  0  0  0  0  0  0  0
  189.2860  178.0810  147.2750 O   0  0  0  0  0  1  0  0  0  0  0  0
  183.6170  178.8470  146.1530 C   0  0  0  0  0  1  0  0  0  0  0  0
  188.3260  177.6760  145.1220 C   0  0  2  0  0  3  0  0  0  0  0  0
  186.0210  178.7540  146.6430 C   0  0  2  0  0  3  0  0  0  0  0  0
  189.8110  173.9270  140.9720 C   0  0  0  0  0  2  0  0  0  0  0  0
  189.8330  174.1690  142.4670 C   0  0  1  0  0  3  0  0  0  0  0  0
  190.6030  173.0060  141.8750 C   0  0  1  0  0  3  0  0  0  0  0  0
  189.8220  171.7300  142.1110 C   0  0  0  0  0  2  0  0  0  0  0  0
  190.6870  170.5490  141.8370 C   0  0  0  0  0  0  0  0  0  0  0  0
  190.6210  169.9630  140.7250 O   0  0  0  0  0  0  0  0  0  0  0  0
  191.5960  170.1160  142.7940 O   0  0  0  0  0  1  0  0  0  0  0  0
  193.0060  176.6520  144.8120 O   0  0  0  0  0  1  0  0  0  0  0  0
  192.5350  175.3560  144.6050 C   0  0  0  0  0  2  0  0  0  0  0  0
  1 19  1  1  0  0  0
  1 22  1  0  0  0  0
  2  9  2  0  0  0  0
  2  3  1  0  0  0  0
  3 16  2  0  0  0  0
  4 20  1  1  0  0  0
  4  5  1  0  0  0  0
  5 15  1  6  0  0  0
  6 32  1  6  0  0  0
  6 19  1  0  0  0  0
  8 13  1  0  0  0  0
  9 11  1  0  0  0  0
 10  7  1  6  0  0  0
 10  1  1  0  0  0  0
 11 10  1  0  0  0  0
 11 17  2  0  0  0  0
 12 18  1  1  0  0  0
 12 22  1  0  0  0  0
 13 15  1  0  0  0  0
 14  7  1  1  0  0  0
 14  6  1  0  0  0  0
 16 17  1  0  0  0  0
 17 12  1  0  0  0  0
 18 23  1  0  0  0  0
 21  8  1  0  0  0  0
 22  4  1  0  0  0  0
 23  8  1  0  0  0  0
 23  5  1  0  0  0  0
 24 26  1  0  0  0  0
 24 25  1  0  0  0  0
 25 14  1  0  0  0  0
 26 27  1  0  0  0  0
 26 25  1  0  0  0  0
 28 27  1  0  0  0  0
 28 30  1  0  0  0  0
 29 28  2  0  0  0  0
 32 31  1  0  0  0  0
M  END
>  <MODEL>
5

>  <REMARK>
 VINA RESULT:      -6.9      2.596      5.543
  Name = 
  4 active torsions:
  status: ('A' for Active; 'I' for Inactive)
    1  A    between atoms: C_7  and  C_19
    2  A    between atoms: C_10  and  C_17
    3  A    between atoms: C_20  and  C_29
    4  A    between atoms: C_29  and  C_30
                            x       y       z     vdW  Elec       q    Type
                         _______ _______ _______ _____ _____    ______ ____

>  <TORSDO>
F 4

$$$$
=
 OpenBabel11112416413D

 32 37  0  0  1  0  0  0  0  0999 V2000
  190.9320  175.0540  142.8360 C   0  0  1  0  0  3  0  0  0  0  0  0
  194.2150  176.5690  146.1460 C   0  0  0  0  0  3  0  0  0  0  0  0
  194.7800  175.2930  146.1530 C   0  0  0  0  0  3  0  0  0  0  0  0
  191.2210  172.8900  141.5460 C   0  0  2  0  0  3  0  0  0  0  0  0
  191.9320  171.5300  141.6630 C   0  0  2  0  0  3  0  0  0  0  0  0
  188.9840  176.1670  142.6490 C   0  0  2  0  0  3  0  0  0  0  0  0
  190.9220  177.4070  143.6360 O   0  0  0  0  0  0  0  0  0  0  0  0
  193.7080  170.2560  142.5950 N   0  0  0  0  0  0  0  0  0  0  0  0
  193.2080  176.8840  145.2310 C   0  0  0  0  0  3  0  0  0  0  0  0
  191.7200  176.2800  143.2880 C   0  0  1  0  0  3  0  0  0  0  0  0
  192.7530  175.9200  144.3210 C   0  0  0  0  0  0  0  0  0  0  0  0
  192.8400  173.5460  143.3720 C   0  0  2  0  0  3  0  0  0  0  0  0
  192.5430  170.0100  143.4360 C   0  0  0  0  0  2  0  0  0  0  0  0
  189.5400  177.0970  143.7650 C   0  0  2  0  0  3  0  0  0  0  0  0
  191.3530  170.7020  142.7900 C   0  0  0  0  0  2  0  0  0  0  0  0
  194.3470  174.3320  145.2360 C   0  0  0  0  0  3  0  0  0  0  0  0
  193.3560  174.6390  144.2940 C   0  0  0  0  0  0  0  0  0  0  0  0
  193.9630  172.7720  142.7010 C   0  0  0  0  0  2  0  0  0  0  0  0
  189.9820  175.4910  141.9090 O   0  0  0  0  0  0  0  0  0  0  0  0
  191.0450  173.2070  140.1990 O   0  0  0  0  0  1  0  0  0  0  0  0
  194.9010  170.2670  143.4360 C   0  0  0  0  0  1  0  0  0  0  0  0
  191.9210  174.0530  142.2570 C   0  0  2  0  0  3  0  0  0  0  0  0
  193.4460  171.5350  141.9170 C   0  0  2  0  0  3  0  0  0  0  0  0
  189.5970  177.5400  146.2110 C   0  0  0  0  0  2  0  0  0  0  0  0
  189.2420  176.5250  145.1440 C   0  0  1  0  0  3  0  0  0  0  0  0
  188.1530  177.3480  145.8010 C   0  0  1  0  0  3  0  0  0  0  0  0
  187.4420  176.4910  146.8280 C   0  0  0  0  0  2  0  0  0  0  0  0
  186.1440  177.1180  147.2000 C   0  0  0  0  0  0  0  0  0  0  0  0
  186.1000  177.9820  148.1140 O   0  0  0  0  0  1  0  0  0  0  0  0
  184.9860  176.7790  146.5120 O   0  0  0  0  0  0  0  0  0  0  0  0
  188.5730  178.2910  141.6480 O   0  0  0  0  0  1  0  0  0  0  0  0
  188.1100  176.9760  141.7100 C   0  0  0  0  0  2  0  0  0  0  0  0
  1 19  1  6  0  0  0
  1 10  1  0  0  0  0
  2  3  1  0  0  0  0
  4 20  1  6  0  0  0
  4  5  1  0  0  0  0
  4 22  1  0  0  0  0
  5 23  1  0  0  0  0
  5 15  1  1  0  0  0
  6 32  1  6  0  0  0
  6 14  1  0  0  0  0
  8 13  1  0  0  0  0
  8 21  1  0  0  0  0
  9  2  2  0  0  0  0
 10  7  1  1  0  0  0
 10 11  1  0  0  0  0
 11  9  1  0  0  0  0
 12 18  1  6  0  0  0
 12 17  1  0  0  0  0
 14  7  1  6  0  0  0
 14 25  1  0  0  0  0
 15 13  1  0  0  0  0
 16  3  2  0  0  0  0
 17 11  2  0  0  0  0
 17 16  1  0  0  0  0
 19  6  1  0  0  0  0
 22  1  1  0  0  0  0
 22 12  1  0  0  0  0
 23  8  1  0  0  0  0
 23 18  1  0  0  0  0
 25 26  1  0  0  0  0
 25 24  1  0  0  0  0
 26 24  1  0  0  0  0
 26 27  1  0  0  0  0
 27 28  1  0  0  0  0
 28 29  1  0  0  0  0
 30 28  2  0  0  0  0
 31 32  1  0  0  0  0
M  END
>  <MODEL>
6

>  <REMARK>
 VINA RESULT:      -6.8      3.279      7.186
  Name = 
  4 active torsions:
  status: ('A' for Active; 'I' for Inactive)
    1  A    between atoms: C_7  and  C_19
    2  A    between atoms: C_10  and  C_17
    3  A    between atoms: C_20  and  C_29
    4  A    between atoms: C_29  and  C_30
                            x       y       z     vdW  Elec       q    Type
                         _______ _______ _______ _____ _____    ______ ____

>  <TORSDO>
F 4

$$$$
=
 OpenBabel11112416413D

 32 37  0  0  1  0  0  0  0  0999 V2000
  191.9490  175.6970  143.0390 C   0  0  1  0  0  3  0  0  0  0  0  0
  189.4860  172.3190  140.4780 C   0  0  0  0  0  3  0  0  0  0  0  0
  188.3080  172.7140  141.1130 C   0  0  0  0  0  3  0  0  0  0  0  0
  190.7720  177.5650  144.2840 C   0  0  2  0  0  3  0  0  0  0  0  0
  189.4060  177.8880  144.9150 C   0  0  2  0  0  3  0  0  0  0  0  0
  194.1640  175.4280  143.3420 C   0  0  2  0  0  3  0  0  0  0  0  0
  193.1260  174.2620  141.3850 O   0  0  0  0  0  0  0  0  0  0  0  0
  187.0660  177.4780  144.9790 N   0  0  0  0  0  0  0  0  0  0  0  0
  190.6660  173.0380  140.6830 C   0  0  0  0  0  3  0  0  0  0  0  0
  191.9290  174.9690  141.6970 C   0  0  1  0  0  3  0  0  0  0  0  0
  190.6770  174.1520  141.5330 C   0  0  0  0  0  0  0  0  0  0  0  0
  189.4610  175.7410  143.1270 C   0  0  2  0  0  3  0  0  0  0  0  0
  187.6530  176.6660  146.0370 C   0  0  0  0  0  2  0  0  0  0  0  0
  194.0080  174.1340  142.4940 C   0  0  2  0  0  3  0  0  0  0  0  0
  189.1320  177.0070  146.1150 C   0  0  0  0  0  2  0  0  0  0  0  0
  188.3040  173.8350  141.9460 C   0  0  0  0  0  3  0  0  0  0  0  0
  189.4740  174.5830  142.1430 C   0  0  0  0  0  0  0  0  0  0  0  0
  188.2840  176.6780  142.9090 C   0  0  0  0  0  2  0  0  0  0  0  0
  193.1580  176.3950  143.1120 O   0  0  0  0  0  0  0  0  0  0  0  0
  191.3960  178.7510  143.8980 O   0  0  0  0  0  1  0  0  0  0  0  0
  185.9430  176.7510  144.3950 C   0  0  0  0  0  1  0  0  0  0  0  0
  190.7270  176.6010  143.0930 C   0  0  2  0  0  3  0  0  0  0  0  0
  188.1590  177.7450  144.0310 C   0  0  2  0  0  3  0  0  0  0  0  0
  194.5110  171.7760  143.1020 C   0  0  0  0  0  2  0  0  0  0  0  0
  193.6030  172.9580  143.3720 C   0  0  1  0  0  3  0  0  0  0  0  0
  194.7330  172.6370  144.3270 C   0  0  1  0  0  3  0  0  0  0  0  0
  194.1630  171.9410  145.5470 C   0  0  0  0  0  2  0  0  0  0  0  0
  195.0050  170.7650  145.8990 C   0  0  0  0  0  0  0  0  0  0  0  0
  194.4920  169.6180  145.9580 O   0  0  0  0  0  0  0  0  0  0  0  0
  196.3660  170.9270  146.1250 O   0  0  0  0  0  1  0  0  0  0  0  0
  196.3950  175.7230  144.1270 O   0  0  0  0  0  1  0  0  0  0  0  0
  195.5280  176.0380  143.0810 C   0  0  0  0  0  2  0  0  0  0  0  0
  1 22  1  0  0  0  0
  1 19  1  6  0  0  0
  2  9  2  0  0  0  0
  2  3  1  0  0  0  0
  3 16  2  0  0  0  0
  4 20  1  6  0  0  0
  4  5  1  0  0  0  0
  5 15  1  1  0  0  0
  6 32  1  6  0  0  0
  8 13  1  0  0  0  0
  9 11  1  0  0  0  0
 10  7  1  1  0  0  0
 10  1  1  0  0  0  0
 11 10  1  0  0  0  0
 11 17  2  0  0  0  0
 12 18  1  6  0  0  0
 13 15  1  0  0  0  0
 14  7  1  6  0  0  0
 14  6  1  0  0  0  0
 14 25  1  0  0  0  0
 16 17  1  0  0  0  0
 17 12  1  0  0  0  0
 18 23  1  0  0  0  0
 19  6  1  0  0  0  0
 21  8  1  0  0  0  0
 22 12  1  0  0  0  0
 22  4  1  0  0  0  0
 23  5  1  0  0  0  0
 23  8  1  0  0  0  0
 24 25  1  0  0  0  0
 24 26  1  0  0  0  0
 25 26  1  0  0  0  0
 26 27  1  0  0  0  0
 27 28  1  0  0  0  0
 28 29  2  0  0  0  0
 28 30  1  0  0  0  0
 32 31  1  0  0  0  0
M  END
>  <MODEL>
7

>  <REMARK>
 VINA RESULT:      -6.6      2.525      4.880
  Name = 
  4 active torsions:
  status: ('A' for Active; 'I' for Inactive)
    1  A    between atoms: C_7  and  C_19
    2  A    between atoms: C_10  and  C_17
    3  A    between atoms: C_20  and  C_29
    4  A    between atoms: C_29  and  C_30
                            x       y       z     vdW  Elec       q    Type
                         _______ _______ _______ _____ _____    ______ ____

>  <TORSDO>
F 4

$$$$
=
 OpenBabel11112416413D

 32 37  0  0  1  0  0  0  0  0999 V2000
  191.9290  175.0920  144.8970 C   0  0  1  0  0  3  0  0  0  0  0  0
  190.0570  171.2740  142.4570 C   0  0  0  0  0  3  0  0  0  0  0  0
  191.2460  171.1670  141.7350 C   0  0  0  0  0  3  0  0  0  0  0  0
  194.4060  175.6290  144.8610 C   0  0  2  0  0  3  0  0  0  0  0  0
  195.6520  175.4050  143.9850 C   0  0  2  0  0  3  0  0  0  0  0  0
  190.5200  176.5670  145.8530 C   0  0  2  0  0  3  0  0  0  0  0  0
  189.6430  174.2630  145.4130 O   0  0  0  0  0  0  0  0  0  0  0  0
  196.7470  174.0960  142.3320 N   0  0  0  0  0  0  0  0  0  0  0  0
  189.9600  172.1790  143.5170 C   0  0  0  0  0  3  0  0  0  0  0  0
  190.9730  173.9120  145.0420 C   0  0  1  0  0  3  0  0  0  0  0  0
  191.0520  172.9900  143.8560 C   0  0  0  0  0  0  0  0  0  0  0  0
  193.4550  173.7630  143.4460 C   0  0  2  0  0  3  0  0  0  0  0  0
  196.1340  175.2150  141.6280 C   0  0  0  0  0  2  0  0  0  0  0  0
  189.3810  175.6570  145.3090 C   0  0  2  0  0  3  0  0  0  0  0  0
  195.5410  176.1480  142.6720 C   0  0  0  0  0  2  0  0  0  0  0  0
  192.3460  171.9570  142.0780 C   0  0  0  0  0  3  0  0  0  0  0  0
  192.2750  172.8510  143.1560 C   0  0  0  0  0  0  0  0  0  0  0  0
  194.7760  173.0100  143.4920 C   0  0  0  0  0  2  0  0  0  0  0  0
  191.7580  175.9030  146.0220 O   0  0  0  0  0  0  0  0  0  0  0  0
  194.7960  175.7800  146.1920 O   0  0  0  0  0  1  0  0  0  0  0  0
  196.6820  172.9120  141.4800 C   0  0  0  0  0  1  0  0  0  0  0  0
  193.3380  174.5340  144.7640 C   0  0  2  0  0  3  0  0  0  0  0  0
  195.9990  173.9620  143.5920 C   0  0  2  0  0  3  0  0  0  0  0  0
  187.5290  176.2240  143.7500 C   0  0  0  0  0  2  0  0  0  0  0  0
  189.0260  176.0340  143.8770 C   0  0  1  0  0  3  0  0  0  0  0  0
  188.4380  177.4290  143.8600 C   0  0  1  0  0  3  0  0  0  0  0  0
  188.6480  178.0340  142.4870 C   0  0  0  0  0  2  0  0  0  0  0  0
  187.3510  178.1030  141.7600 C   0  0  0  0  0  0  0  0  0  0  0  0
  186.4380  178.8670  142.1700 O   0  0  0  0  0  1  0  0  0  0  0  0
  187.1590  177.3530  140.6070 O   0  0  0  0  0  0  0  0  0  0  0  0
  191.0800  176.9940  148.1300 O   0  0  0  0  0  1  0  0  0  0  0  0
  190.0860  177.1820  147.1690 C   0  0  0  0  0  2  0  0  0  0  0  0
  1 10  1  0  0  0  0
  1 19  1  1  0  0  0
  2  9  1  0  0  0  0
  3 16  1  0  0  0  0
  3  2  2  0  0  0  0
  4 20  1  1  0  0  0
  5 15  1  6  0  0  0
  5  4  1  0  0  0  0
  6 19  1  0  0  0  0
  6 32  1  1  0  0  0
  8 23  1  0  0  0  0
  9 11  2  0  0  0  0
 10 11  1  6  0  0  0
 10  7  1  0  0  0  0
 12 18  1  1  0  0  0
 12 22  1  0  0  0  0
 13  8  1  0  0  0  0
 13 15  1  0  0  0  0
 14  7  1  6  0  0  0
 14  6  1  0  0  0  0
 16 17  2  0  0  0  0
 17 12  1  0  0  0  0
 17 11  1  0  0  0  0
 18 23  1  0  0  0  0
 21  8  1  0  0  0  0
 22  4  1  0  0  0  0
 22  1  1  0  0  0  0
 23  5  1  0  0  0  0
 24 26  1  0  0  0  0
 24 25  1  0  0  0  0
 25 14  1  0  0  0  0
 26 25  1  0  0  0  0
 27 26  1  0  0  0  0
 28 29  1  0  0  0  0
 28 27  1  0  0  0  0
 30 28  2  0  0  0  0
 32 31  1  0  0  0  0
M  END
>  <MODEL>
8

>  <REMARK>
 VINA RESULT:      -6.6      2.906      7.522
  Name = 
  4 active torsions:
  status: ('A' for Active; 'I' for Inactive)
    1  A    between atoms: C_7  and  C_19
    2  A    between atoms: C_10  and  C_17
    3  A    between atoms: C_20  and  C_29
    4  A    between atoms: C_29  and  C_30
                            x       y       z     vdW  Elec       q    Type
                         _______ _______ _______ _____ _____    ______ ____

>  <TORSDO>
F 4

$$$$
=
 OpenBabel11112416413D

 32 37  0  0  1  0  0  0  0  0999 V2000
  191.7240  173.4820  143.5380 C   0  0  1  0  0  3  0  0  0  0  0  0
  188.9820  177.4350  144.4800 C   0  0  0  0  0  3  0  0  0  0  0  0
  188.4990  177.3960  143.1710 C   0  0  0  0  0  3  0  0  0  0  0  0
  191.3380  172.0300  141.4960 C   0  0  2  0  0  3  0  0  0  0  0  0
  190.7340  172.1150  140.0820 C   0  0  2  0  0  3  0  0  0  0  0  0
  193.5460  173.0970  144.8040 C   0  0  2  0  0  3  0  0  0  0  0  0
  191.7410  174.5200  145.7970 O   0  0  0  0  0  0  0  0  0  0  0  0
  189.2190  173.1850  138.5970 N   0  0  0  0  0  0  0  0  0  0  0  0
  189.7970  176.4050  144.9550 C   0  0  0  0  0  3  0  0  0  0  0  0
  190.9590  174.1880  144.6540 C   0  0  1  0  0  3  0  0  0  0  0  0
  190.1410  175.3330  144.1210 C   0  0  0  0  0  0  0  0  0  0  0  0
  190.0230  174.1600  141.8510 C   0  0  2  0  0  3  0  0  0  0  0  0
  190.5230  173.7900  138.3570 C   0  0  0  0  0  2  0  0  0  0  0  0
  193.1400  174.3840  145.5780 C   0  0  2  0  0  3  0  0  0  0  0  0
  191.5430  173.0340  139.1930 C   0  0  0  0  0  2  0  0  0  0  0  0
  188.8190  176.3220  142.3380 C   0  0  0  0  0  3  0  0  0  0  0  0
  189.6150  175.2670  142.8070 C   0  0  0  0  0  0  0  0  0  0  0  0
  188.8460  173.6040  141.0650 C   0  0  0  0  0  2  0  0  0  0  0  0
  192.4740  172.4640  144.1330 O   0  0  0  0  0  0  0  0  0  0  0  0
  191.2600  170.7160  141.9550 O   0  0  0  0  0  1  0  0  0  0  0  0
  188.1890  174.2070  138.4390 C   0  0  0  0  0  1  0  0  0  0  0  0
  190.7070  172.9700  142.5300 C   0  0  2  0  0  3  0  0  0  0  0  0
  189.2880  172.6160  139.9520 C   0  0  2  0  0  3  0  0  0  0  0  0
  194.4200  176.4890  145.9130 C   0  0  0  0  0  2  0  0  0  0  0  0
  193.7020  175.6240  144.8970 C   0  0  1  0  0  3  0  0  0  0  0  0
  195.2140  175.5970  144.9830 C   0  0  1  0  0  3  0  0  0  0  0  0
  195.7850  176.4250  143.8490 C   0  0  0  0  0  2  0  0  0  0  0  0
  195.5700  175.7250  142.5530 C   0  0  0  0  0  0  0  0  0  0  0  0
  195.1510  176.3650  141.5530 O   0  0  0  0  0  0  0  0  0  0  0  0
  195.8680  174.3740  142.4340 O   0  0  0  0  0  1  0  0  0  0  0  0
  195.5860  172.2350  145.6850 O   0  0  0  0  0  1  0  0  0  0  0  0
  194.1980  172.1190  145.7630 C   0  0  0  0  0  2  0  0  0  0  0  0
  1 19  1  1  0  0  0
  1 10  1  0  0  0  0
  2  9  1  0  0  0  0
  3  2  2  0  0  0  0
  4 20  1  1  0  0  0
  4 22  1  0  0  0  0
  5 15  1  6  0  0  0
  5  4  1  0  0  0  0
  6 14  1  0  0  0  0
  6 32  1  1  0  0  0
  8 23  1  0  0  0  0
 10 11  1  6  0  0  0
 10  7  1  0  0  0  0
 11  9  2  0  0  0  0
 12 18  1  1  0  0  0
 12 22  1  0  0  0  0
 12 17  1  0  0  0  0
 13  8  1  0  0  0  0
 13 15  1  0  0  0  0
 14  7  1  6  0  0  0
 16 17  2  0  0  0  0
 16  3  1  0  0  0  0
 17 11  1  0  0  0  0
 19  6  1  0  0  0  0
 21  8  1  0  0  0  0
 22  1  1  0  0  0  0
 23  5  1  0  0  0  0
 23 18  1  0  0  0  0
 25 26  1  0  0  0  0
 25 14  1  0  0  0  0
 25 24  1  0  0  0  0
 26 24  1  0  0  0  0
 27 26  1  0  0  0  0
 28 27  1  0  0  0  0
 29 28  2  0  0  0  0
 30 28  1  0  0  0  0
 31 32  1  0  0  0  0
M  END
>  <MODEL>
9

>  <REMARK>
 VINA RESULT:      -6.5      2.470      4.106
  Name = 
  4 active torsions:
  status: ('A' for Active; 'I' for Inactive)
    1  A    between atoms: C_7  and  C_19
    2  A    between atoms: C_10  and  C_17
    3  A    between atoms: C_20  and  C_29
    4  A    between atoms: C_29  and  C_30
                            x       y       z     vdW  Elec       q    Type
                         _______ _______ _______ _____ _____    ______ ____

>  <TORSDO>
F 4

$$$$
