=
 OpenBabel11112417033D

 31 35  0  0  1  0  0  0  0  0999 V2000
  184.8280  177.8990  147.1390 C   0  0  1  0  0  3  0  0  0  0  0  0
  187.4460  175.7670  145.1690 C   0  0  2  0  0  3  0  0  0  0  0  0
  187.4470  176.3230  143.7450 C   0  0  0  0  0  0  0  0  0  0  0  0
  186.3130  177.5220  141.9520 C   0  0  0  0  0  0  0  0  0  0  0  0
  186.8420  176.6810  146.2550 C   0  0  2  0  0  3  0  0  0  0  0  0
  185.6570  179.1750  147.2210 C   0  0  0  0  0  2  0  0  0  0  0  0
  186.3650  177.0840  143.2750 C   0  0  0  0  0  3  0  0  0  0  0  0
  189.7510  176.5620  145.9070 C   0  0  2  0  0  3  0  0  0  0  0  0
  183.4990  178.2240  146.8720 O   0  0  0  0  0  1  0  0  0  0  0  0
  189.6710  175.1670  143.2440 C   0  0  0  0  0  2  0  0  0  0  0  0
  185.1640  178.3410  141.4850 C   0  0  0  0  0  1  0  0  0  0  0  0
  189.0970  177.4990  146.9250 C   0  0  0  0  0  2  0  0  0  0  0  0
  188.8530  175.3410  145.6200 C   0  0  2  0  0  3  0  0  0  0  0  0
  185.3620  177.0020  146.0290 C   0  0  0  0  0  2  0  0  0  0  0  0
  187.3360  177.1860  141.0660 C   0  0  0  0  0  3  0  0  0  0  0  0
  187.7070  177.9320  146.4720 C   0  0  2  0  0  3  0  0  0  0  0  0
  187.1040  178.8280  147.5510 C   0  0  0  0  0  2  0  0  0  0  0  0
  189.4650  174.4220  144.5620 C   0  0  0  0  0  2  0  0  0  0  0  0
  188.4640  175.9550  142.8260 C   0  0  0  0  0  0  0  0  0  0  0  0
  188.4080  176.4060  141.5040 C   0  0  0  0  0  3  0  0  0  0  0  0
  192.2600  177.0410  144.6420 O   0  0  0  0  0  0  0  0  0  0  0  0
  192.2680  176.4040  145.7320 C   0  0  0  0  0  0  0  0  0  0  0  0
  191.0440  176.1220  146.4120 N   0  0  0  0  0  2  0  0  0  0  0  0
  195.7630  176.1640  144.5480 C   0  0  1  0  0  3  0  0  0  0  0  0
  194.6280  177.0260  146.3070 C   0  0  0  0  0  2  0  0  0  0  0  0
  193.1170  173.7080  145.4470 O   0  0  0  0  0  1  0  0  0  0  0  0
  196.4710  176.4900  143.2500 C   0  0  0  0  0  1  0  0  0  0  0  0
  195.0470  177.2920  144.9880 O   0  0  0  0  0  0  0  0  0  0  0  0
  194.1160  174.6620  145.6440 C   0  0  2  0  0  3  0  0  0  0  0  0
  193.5600  175.9240  146.3270 C   0  0  2  0  0  3  0  0  0  0  0  0
  194.8070  174.9930  144.3240 C   0  0  0  0  0  2  0  0  0  0  0  0
  1  9  1  6  0  0  0
  1  6  1  0  0  0  0
  2  3  1  6  0  0  0
  2 13  1  0  0  0  0
  2  5  1  0  0  0  0
  4  7  2  0  0  0  0
  5 14  1  6  0  0  0
  5 16  1  0  0  0  0
  6 17  1  0  0  0  0
  7  3  1  0  0  0  0
  8 23  1  1  0  0  0
  8 12  1  0  0  0  0
 10 18  1  0  0  0  0
 11  4  1  0  0  0  0
 13 18  1  6  0  0  0
 13  8  1  0  0  0  0
 14  1  1  0  0  0  0
 15 20  2  0  0  0  0
 15  4  1  0  0  0  0
 16 12  1  1  0  0  0
 16 17  1  0  0  0  0
 19 10  1  0  0  0  0
 19  3  2  0  0  0  0
 20 19  1  0  0  0  0
 21 22  2  0  0  0  0
 22 23  1  0  0  0  0
 24 27  1  6  0  0  0
 24 28  1  0  0  0  0
 25 30  1  0  0  0  0
 28 25  1  0  0  0  0
 29 26  1  6  0  0  0
 29 30  1  0  0  0  0
 30 22  1  6  0  0  0
 31 24  1  0  0  0  0
 31 29  1  0  0  0  0
M  END
>  <MODEL>
1

>  <REMARK>
 VINA RESULT:      -8.5      0.000      0.000
  Name = 
  2 active torsions:
  status: ('A' for Active; 'I' for Inactive)
    1  A    between atoms: C_5  and  C_30
    2  A    between atoms: C_10  and  N_16
                            x       y       z     vdW  Elec       q    Type
                         _______ _______ _______ _____ _____    ______ ____

>  <TORSDO>
F 2

$$$$
=
 OpenBabel11112417033D

 31 35  0  0  1  0  0  0  0  0999 V2000
  191.7890  172.7990  141.7110 C   0  0  1  0  0  3  0  0  0  0  0  0
  191.2460  174.0160  145.3860 C   0  0  2  0  0  3  0  0  0  0  0  0
  192.3230  175.0700  145.6380 C   0  0  0  0  0  0  0  0  0  0  0  0
  194.4990  176.0280  145.1000 C   0  0  0  0  0  0  0  0  0  0  0  0
  190.9480  173.6860  143.9090 C   0  0  2  0  0  3  0  0  0  0  0  0
  191.2690  174.0560  141.0250 C   0  0  0  0  0  2  0  0  0  0  0  0
  193.4680  175.1290  144.8270 C   0  0  0  0  0  3  0  0  0  0  0  0
  189.2000  175.5340  145.3660 C   0  0  2  0  0  3  0  0  0  0  0  0
  192.9180  172.3350  141.0400 O   0  0  0  0  0  1  0  0  0  0  0  0
  191.0670  175.9340  147.6910 C   0  0  0  0  0  2  0  0  0  0  0  0
  195.6920  176.0810  144.2160 C   0  0  0  0  0  1  0  0  0  0  0  0
  188.9900  175.2230  143.8830 C   0  0  0  0  0  2  0  0  0  0  0  0
  189.9200  174.3720  146.0810 C   0  0  2  0  0  3  0  0  0  0  0  0
  192.1520  173.1090  143.1590 C   0  0  0  0  0  2  0  0  0  0  0  0
  194.4120  176.8720  146.2070 C   0  0  0  0  0  3  0  0  0  0  0  0
  190.3050  174.8830  143.1920 C   0  0  2  0  0  3  0  0  0  0  0  0
  190.0110  174.5450  141.7320 C   0  0  0  0  0  2  0  0  0  0  0  0
  190.1900  174.6900  147.5510 C   0  0  0  0  0  2  0  0  0  0  0  0
  192.2620  175.9070  146.7820 C   0  0  0  0  0  0  0  0  0  0  0  0
  193.2960  176.8120  147.0420 C   0  0  0  0  0  3  0  0  0  0  0  0
  188.5350  177.8620  146.8720 O   0  0  0  0  0  0  0  0  0  0  0  0
  187.6410  176.9820  146.7330 C   0  0  0  0  0  0  0  0  0  0  0  0
  187.9130  175.7870  145.9980 N   0  0  0  0  0  2  0  0  0  0  0  0
  184.4870  178.5790  145.6530 C   0  0  1  0  0  3  0  0  0  0  0  0
  185.1840  176.5790  146.4500 C   0  0  0  0  0  2  0  0  0  0  0  0
  187.0210  179.2780  148.2870 O   0  0  0  0  0  1  0  0  0  0  0  0
  184.0470  179.3360  144.4180 C   0  0  0  0  0  1  0  0  0  0  0  0
  185.0330  177.3400  145.2740 O   0  0  0  0  0  0  0  0  0  0  0  0
  185.9510  178.6380  147.6580 C   0  0  2  0  0  3  0  0  0  0  0  0
  186.2830  177.1690  147.3430 C   0  0  2  0  0  3  0  0  0  0  0  0
  185.5320  179.4030  146.4050 C   0  0  0  0  0  2  0  0  0  0  0  0
  1  9  1  6  0  0  0
  1 14  1  0  0  0  0
  2  3  1  6  0  0  0
  2 13  1  0  0  0  0
  3 19  1  0  0  0  0
  4 15  2  0  0  0  0
  5 14  1  6  0  0  0
  5  2  1  0  0  0  0
  6  1  1  0  0  0  0
  6 17  1  0  0  0  0
  7  4  1  0  0  0  0
  7  3  2  0  0  0  0
  8 23  1  1  0  0  0
  8 13  1  0  0  0  0
 11  4  1  0  0  0  0
 12  8  1  0  0  0  0
 13 18  1  1  0  0  0
 15 20  1  0  0  0  0
 16 17  1  6  0  0  0
 16 12  1  0  0  0  0
 16  5  1  0  0  0  0
 18 10  1  0  0  0  0
 19 20  2  0  0  0  0
 19 10  1  0  0  0  0
 22 21  2  0  0  0  0
 23 22  1  0  0  0  0
 24 27  1  6  0  0  0
 24 31  1  0  0  0  0
 25 30  1  0  0  0  0
 28 24  1  0  0  0  0
 28 25  1  0  0  0  0
 29 26  1  6  0  0  0
 30 22  1  6  0  0  0
 30 29  1  0  0  0  0
 31 29  1  0  0  0  0
M  END
>  <MODEL>
2

>  <REMARK>
 VINA RESULT:      -8.3      2.455      7.893
  Name = 
  2 active torsions:
  status: ('A' for Active; 'I' for Inactive)
    1  A    between atoms: C_5  and  C_30
    2  A    between atoms: C_10  and  N_16
                            x       y       z     vdW  Elec       q    Type
                         _______ _______ _______ _____ _____    ______ ____

>  <TORSDO>
F 2

$$$$
=
 OpenBabel11112417033D

 31 35  0  0  1  0  0  0  0  0999 V2000
  194.4430  176.9480  145.1690 C   0  0  1  0  0  3  0  0  0  0  0  0
  190.9590  176.9490  143.3960 C   0  0  2  0  0  3  0  0  0  0  0  0
  190.8520  175.5970  142.6910 C   0  0  0  0  0  0  0  0  0  0  0  0
  191.9270  173.6470  141.7010 C   0  0  0  0  0  0  0  0  0  0  0  0
  192.0180  177.0520  144.5130 C   0  0  2  0  0  3  0  0  0  0  0  0
  194.0840  175.9630  146.2740 C   0  0  0  0  0  2  0  0  0  0  0  0
  192.0020  174.8390  142.4210 C   0  0  0  0  0  3  0  0  0  0  0  0
  189.2070  176.5920  145.2100 C   0  0  2  0  0  3  0  0  0  0  0  0
  195.7270  176.6760  144.7020 O   0  0  0  0  0  1  0  0  0  0  0  0
  188.3250  175.8830  142.4230 C   0  0  0  0  0  2  0  0  0  0  0  0
  193.1580  172.8550  141.4440 C   0  0  0  0  0  1  0  0  0  0  0  0
  190.3060  176.6370  146.2740 C   0  0  0  0  0  2  0  0  0  0  0  0
  189.6060  177.4090  143.9640 C   0  0  2  0  0  3  0  0  0  0  0  0
  193.4490  176.8260  144.0200 C   0  0  0  0  0  2  0  0  0  0  0  0
  190.6970  173.2010  141.2180 C   0  0  0  0  0  3  0  0  0  0  0  0
  191.6440  176.1680  145.7140 C   0  0  2  0  0  3  0  0  0  0  0  0
  192.6960  176.2800  146.8160 C   0  0  0  0  0  2  0  0  0  0  0  0
  188.5440  177.3280  142.8680 C   0  0  0  0  0  2  0  0  0  0  0  0
  189.6110  175.1530  142.1630 C   0  0  0  0  0  0  0  0  0  0  0  0
  189.5440  173.9520  141.4510 C   0  0  0  0  0  3  0  0  0  0  0  0
  187.7740  175.4340  147.3860 O   0  0  0  0  0  0  0  0  0  0  0  0
  187.3020  176.4850  146.8700 C   0  0  0  0  0  0  0  0  0  0  0  0
  187.9660  177.1100  145.7700 N   0  0  0  0  0  2  0  0  0  0  0  0
  184.8190  178.8910  145.5610 C   0  0  1  0  0  3  0  0  0  0  0  0
  184.8520  176.8120  146.4550 C   0  0  0  0  0  2  0  0  0  0  0  0
  187.3170  178.9290  148.3180 O   0  0  0  0  0  1  0  0  0  0  0  0
  184.6820  179.6880  144.2810 C   0  0  0  0  0  1  0  0  0  0  0  0
  184.9900  177.5300  145.2500 O   0  0  0  0  0  0  0  0  0  0  0  0
  186.1370  178.6050  147.6460 C   0  0  2  0  0  3  0  0  0  0  0  0
  186.0330  177.0910  147.3940 C   0  0  2  0  0  3  0  0  0  0  0  0
  186.0240  179.4020  146.3500 C   0  0  0  0  0  2  0  0  0  0  0  0
  1  9  1  6  0  0  0
  1  6  1  0  0  0  0
  2  3  1  1  0  0  0
  2 13  1  0  0  0  0
  2  5  1  0  0  0  0
  4  7  2  0  0  0  0
  5 14  1  6  0  0  0
  5 16  1  0  0  0  0
  6 17  1  0  0  0  0
  7  3  1  0  0  0  0
  8 23  1  1  0  0  0
  8 12  1  0  0  0  0
 10 18  1  0  0  0  0
 11  4  1  0  0  0  0
 13 18  1  6  0  0  0
 13  8  1  0  0  0  0
 14  1  1  0  0  0  0
 15 20  2  0  0  0  0
 15  4  1  0  0  0  0
 16 12  1  1  0  0  0
 16 17  1  0  0  0  0
 19 10  1  0  0  0  0
 19  3  2  0  0  0  0
 20 19  1  0  0  0  0
 22 21  2  0  0  0  0
 23 22  1  0  0  0  0
 24 27  1  6  0  0  0
 24 31  1  0  0  0  0
 25 30  1  0  0  0  0
 28 24  1  0  0  0  0
 28 25  1  0  0  0  0
 29 26  1  6  0  0  0
 30 22  1  6  0  0  0
 30 29  1  0  0  0  0
 31 29  1  0  0  0  0
M  END
>  <MODEL>
3

>  <REMARK>
 VINA RESULT:      -8.3      2.196      7.227
  Name = 
  2 active torsions:
  status: ('A' for Active; 'I' for Inactive)
    1  A    between atoms: C_5  and  C_30
    2  A    between atoms: C_10  and  N_16
                            x       y       z     vdW  Elec       q    Type
                         _______ _______ _______ _____ _____    ______ ____

>  <TORSDO>
F 2

$$$$
=
 OpenBabel11112417033D

 31 35  0  0  1  0  0  0  0  0999 V2000
  185.0220  177.6470  146.9410 C   0  0  1  0  0  3  0  0  0  0  0  0
  187.2670  175.7940  144.3320 C   0  0  2  0  0  3  0  0  0  0  0  0
  186.9570  176.4430  142.9830 C   0  0  0  0  0  0  0  0  0  0  0  0
  185.4390  177.6970  141.5490 C   0  0  0  0  0  0  0  0  0  0  0  0
  186.8610  176.5990  145.5840 C   0  0  2  0  0  3  0  0  0  0  0  0
  185.8000  178.9570  146.9530 C   0  0  0  0  0  2  0  0  0  0  0  0
  185.7740  177.1760  142.7980 C   0  0  0  0  0  3  0  0  0  0  0  0
  189.6410  176.6590  144.6550 C   0  0  2  0  0  3  0  0  0  0  0  0
  183.6550  177.9180  146.9710 O   0  0  0  0  0  1  0  0  0  0  0  0
  189.0780  175.4430  141.9620 C   0  0  0  0  0  2  0  0  0  0  0  0
  184.1880  178.4830  141.3840 C   0  0  0  0  0  1  0  0  0  0  0  0
  189.1710  177.4900  145.8500 C   0  0  0  0  0  2  0  0  0  0  0  0
  188.7520  175.4140  144.4600 C   0  0  2  0  0  3  0  0  0  0  0  0
  185.3550  176.8560  145.6820 C   0  0  0  0  0  2  0  0  0  0  0  0
  186.2730  177.4760  140.4540 C   0  0  0  0  0  3  0  0  0  0  0  0
  187.7030  177.8780  145.7180 C   0  0  2  0  0  3  0  0  0  0  0  0
  187.2960  178.6660  146.9610 C   0  0  0  0  0  2  0  0  0  0  0  0
  189.1720  174.6030  143.2340 C   0  0  0  0  0  2  0  0  0  0  0  0
  187.7810  176.1920  141.8550 C   0  0  0  0  0  0  0  0  0  0  0  0
  187.4410  176.7280  140.6090 C   0  0  0  0  0  3  0  0  0  0  0  0
  191.9250  178.1380  143.8040 O   0  0  0  0  0  0  0  0  0  0  0  0
  192.1270  177.0510  144.4120 C   0  0  0  0  0  0  0  0  0  0  0  0
  191.0260  176.2570  144.8560 N   0  0  0  0  0  2  0  0  0  0  0  0
  193.7080  173.7380  144.8550 C   0  0  1  0  0  3  0  0  0  0  0  0
  193.9870  175.5890  143.5830 C   0  0  0  0  0  2  0  0  0  0  0  0
  193.0980  176.6750  147.0560 O   0  0  0  0  0  1  0  0  0  0  0  0
  193.2010  172.3120  144.8730 C   0  0  0  0  0  1  0  0  0  0  0  0
  193.2840  174.3710  143.6730 O   0  0  0  0  0  0  0  0  0  0  0  0
  193.7000  175.9140  146.0520 C   0  0  2  0  0  3  0  0  0  0  0  0
  193.5250  176.5670  144.6700 C   0  0  2  0  0  3  0  0  0  0  0  0
  193.1640  174.4840  146.0720 C   0  0  0  0  0  2  0  0  0  0  0  0
  1  6  1  0  0  0  0
  1  9  1  6  0  0  0
  2  3  1  6  0  0  0
  2 13  1  0  0  0  0
  2  5  1  0  0  0  0
  4  7  2  0  0  0  0
  5 14  1  6  0  0  0
  5 16  1  0  0  0  0
  6 17  1  0  0  0  0
  7  3  1  0  0  0  0
  8 23  1  1  0  0  0
  8 12  1  0  0  0  0
 10 18  1  0  0  0  0
 11  4  1  0  0  0  0
 13 18  1  6  0  0  0
 13  8  1  0  0  0  0
 14  1  1  0  0  0  0
 15 20  2  0  0  0  0
 15  4  1  0  0  0  0
 16 12  1  1  0  0  0
 16 17  1  0  0  0  0
 19 10  1  0  0  0  0
 19  3  2  0  0  0  0
 20 19  1  0  0  0  0
 21 22  2  0  0  0  0
 22 23  1  0  0  0  0
 24 27  1  6  0  0  0
 24 31  1  0  0  0  0
 25 28  1  0  0  0  0
 25 30  1  0  0  0  0
 28 24  1  0  0  0  0
 29 31  1  0  0  0  0
 29 26  1  1  0  0  0
 30 22  1  6  0  0  0
 30 29  1  0  0  0  0
M  END
>  <MODEL>
4

>  <REMARK>
 VINA RESULT:      -8.0      1.254      1.904
  Name = 
  2 active torsions:
  status: ('A' for Active; 'I' for Inactive)
    1  A    between atoms: C_5  and  C_30
    2  A    between atoms: C_10  and  N_16
                            x       y       z     vdW  Elec       q    Type
                         _______ _______ _______ _____ _____    ______ ____

>  <TORSDO>
F 2

$$$$
=
 OpenBabel11112417033D

 31 35  0  0  1  0  0  0  0  0999 V2000
  187.4930  177.4320  140.8880 C   0  0  1  0  0  3  0  0  0  0  0  0
  188.7230  177.9150  144.5670 C   0  0  2  0  0  3  0  0  0  0  0  0
  187.4590  177.9620  145.4240 C   0  0  0  0  0  0  0  0  0  0  0  0
  185.0670  178.3800  145.6280 C   0  0  0  0  0  0  0  0  0  0  0  0
  188.5680  177.3070  143.1570 C   0  0  2  0  0  3  0  0  0  0  0  0
  187.0660  175.9770  141.0280 C   0  0  0  0  0  2  0  0  0  0  0  0
  186.2130  178.2470  144.8440 C   0  0  0  0  0  3  0  0  0  0  0  0
  189.6450  175.6690  145.3380 C   0  0  2  0  0  3  0  0  0  0  0  0
  186.5560  178.1200  140.1200 O   0  0  0  0  0  1  0  0  0  0  0  0
  188.8240  177.5410  147.5450 C   0  0  0  0  0  2  0  0  0  0  0  0
  183.7570  178.6650  144.9860 C   0  0  0  0  0  1  0  0  0  0  0  0
  189.4080  175.0970  143.9390 C   0  0  0  0  0  2  0  0  0  0  0  0
  189.8770  177.1930  145.2830 C   0  0  2  0  0  3  0  0  0  0  0  0
  187.5950  178.0800  142.2640 C   0  0  0  0  0  2  0  0  0  0  0  0
  185.1510  178.2500  147.0140 C   0  0  0  0  0  3  0  0  0  0  0  0
  188.2560  175.8040  143.2330 C   0  0  2  0  0  3  0  0  0  0  0  0
  188.1080  175.2100  141.8340 C   0  0  0  0  0  2  0  0  0  0  0  0
  190.0570  177.7910  146.6780 C   0  0  0  0  0  2  0  0  0  0  0  0
  187.5410  177.8700  146.8380 C   0  0  0  0  0  0  0  0  0  0  0  0
  186.3850  177.9940  147.6140 C   0  0  0  0  0  3  0  0  0  0  0  0
  192.3360  175.8770  144.4200 O   0  0  0  0  0  0  0  0  0  0  0  0
  192.1200  175.1640  145.4400 C   0  0  0  0  0  0  0  0  0  0  0  0
  190.7930  175.0110  145.9450 N   0  0  0  0  0  2  0  0  0  0  0  0
  195.7500  174.8150  144.8310 C   0  0  1  0  0  3  0  0  0  0  0  0
  194.3690  175.4370  146.5130 C   0  0  0  0  0  2  0  0  0  0  0  0
  192.8380  172.5000  144.7630 O   0  0  0  0  0  1  0  0  0  0  0  0
  196.7010  175.3080  143.7620 C   0  0  0  0  0  1  0  0  0  0  0  0
  195.0370  175.9040  145.3640 O   0  0  0  0  0  0  0  0  0  0  0  0
  193.8410  173.3000  145.3120 C   0  0  2  0  0  3  0  0  0  0  0  0
  193.2490  174.4590  146.1330 C   0  0  2  0  0  3  0  0  0  0  0  0
  194.7800  173.8040  144.2190 C   0  0  0  0  0  2  0  0  0  0  0  0
  1  9  1  6  0  0  0
  1  6  1  0  0  0  0
  1 14  1  0  0  0  0
  2 13  1  0  0  0  0
  2  3  1  1  0  0  0
  3 19  1  0  0  0  0
  4 15  2  0  0  0  0
  5 14  1  1  0  0  0
  5 16  1  0  0  0  0
  5  2  1  0  0  0  0
  6 17  1  0  0  0  0
  7  3  2  0  0  0  0
  7  4  1  0  0  0  0
  8 23  1  6  0  0  0
 11  4  1  0  0  0  0
 12  8  1  0  0  0  0
 13  8  1  0  0  0  0
 13 18  1  1  0  0  0
 15 20  1  0  0  0  0
 16 17  1  6  0  0  0
 16 12  1  0  0  0  0
 18 10  1  0  0  0  0
 19 10  1  0  0  0  0
 19 20  2  0  0  0  0
 21 22  2  0  0  0  0
 22 23  1  0  0  0  0
 24 27  1  6  0  0  0
 24 28  1  0  0  0  0
 28 25  1  0  0  0  0
 29 26  1  6  0  0  0
 29 30  1  0  0  0  0
 30 22  1  6  0  0  0
 30 25  1  0  0  0  0
 31 24  1  0  0  0  0
 31 29  1  0  0  0  0
M  END
>  <MODEL>
5

>  <REMARK>
 VINA RESULT:      -7.7      1.826      3.941
  Name = 
  2 active torsions:
  status: ('A' for Active; 'I' for Inactive)
    1  A    between atoms: C_5  and  C_30
    2  A    between atoms: C_10  and  N_16
                            x       y       z     vdW  Elec       q    Type
                         _______ _______ _______ _____ _____    ______ ____

>  <TORSDO>
F 2

$$$$
=
 OpenBabel11112417033D

 31 35  0  0  1  0  0  0  0  0999 V2000
  186.9730  177.9160  140.7720 C   0  0  1  0  0  3  0  0  0  0  0  0
  189.2920  177.6470  143.9080 C   0  0  2  0  0  3  0  0  0  0  0  0
  188.3730  177.2790  145.0730 C   0  0  0  0  0  0  0  0  0  0  0  0
  186.1530  177.2520  146.0770 C   0  0  0  0  0  0  0  0  0  0  0  0
  188.7310  177.3950  142.4930 C   0  0  2  0  0  3  0  0  0  0  0  0
  186.7170  176.4240  140.6070 C   0  0  0  0  0  2  0  0  0  0  0  0
  186.9900  177.5020  144.9890 C   0  0  0  0  0  3  0  0  0  0  0  0
  190.5670  175.4520  143.6970 C   0  0  2  0  0  3  0  0  0  0  0  0
  185.7920  178.6190  140.5430 O   0  0  0  0  0  1  0  0  0  0  0  0
  190.3770  176.5580  146.4880 C   0  0  0  0  0  2  0  0  0  0  0  0
  184.6900  177.4800  145.9560 C   0  0  0  0  0  1  0  0  0  0  0  0
  189.9300  175.2190  142.3250 C   0  0  0  0  0  2  0  0  0  0  0  0
  190.6630  176.9580  144.0170 C   0  0  2  0  0  3  0  0  0  0  0  0
  187.4700  178.2060  142.1840 C   0  0  0  0  0  2  0  0  0  0  0  0
  186.6910  176.7940  147.2790 C   0  0  0  0  0  3  0  0  0  0  0  0
  188.5660  175.8920  142.2210 C   0  0  2  0  0  3  0  0  0  0  0  0
  188.0140  175.6520  140.8180 C   0  0  0  0  0  2  0  0  0  0  0  0
  191.2430  177.2060  145.4090 C   0  0  0  0  0  2  0  0  0  0  0  0
  188.9150  176.8480  146.3120 C   0  0  0  0  0  0  0  0  0  0  0  0
  188.0670  176.5920  147.3940 C   0  0  0  0  0  3  0  0  0  0  0  0
  191.2380  173.0130  145.0130 O   0  0  0  0  0  0  0  0  0  0  0  0
  192.1600  173.6180  144.3990 C   0  0  0  0  0  0  0  0  0  0  0  0
  191.8930  174.8500  143.7270 N   0  0  0  0  0  2  0  0  0  0  0  0
  195.5310  175.0340  143.8500 C   0  0  1  0  0  3  0  0  0  0  0  0
  194.4580  173.7680  145.3890 C   0  0  0  0  0  2  0  0  0  0  0  0
  193.3320  172.6830  141.9850 O   0  0  0  0  0  1  0  0  0  0  0  0
  196.0660  176.4150  143.5360 C   0  0  0  0  0  1  0  0  0  0  0  0
  194.7150  175.0960  144.9940 O   0  0  0  0  0  0  0  0  0  0  0  0
  194.2080  173.1210  142.9790 C   0  0  2  0  0  3  0  0  0  0  0  0
  193.5540  173.0610  144.3710 C   0  0  2  0  0  3  0  0  0  0  0  0
  194.7240  174.5210  142.6580 C   0  0  0  0  0  2  0  0  0  0  0  0
  1  9  1  1  0  0  0
  1 14  1  0  0  0  0
  2 13  1  0  0  0  0
  2  3  1  1  0  0  0
  3 19  1  0  0  0  0
  4 15  2  0  0  0  0
  5 14  1  1  0  0  0
  5  2  1  0  0  0  0
  6  1  1  0  0  0  0
  6 17  1  0  0  0  0
  7  3  2  0  0  0  0
  7  4  1  0  0  0  0
  8 23  1  6  0  0  0
  8 13  1  0  0  0  0
 11  4  1  0  0  0  0
 12  8  1  0  0  0  0
 13 18  1  1  0  0  0
 15 20  1  0  0  0  0
 16 17  1  6  0  0  0
 16 12  1  0  0  0  0
 16  5  1  0  0  0  0
 18 10  1  0  0  0  0
 19 10  1  0  0  0  0
 19 20  2  0  0  0  0
 22 21  2  0  0  0  0
 23 22  1  0  0  0  0
 24 27  1  6  0  0  0
 24 28  1  0  0  0  0
 28 25  1  0  0  0  0
 29 26  1  6  0  0  0
 29 30  1  0  0  0  0
 30 22  1  6  0  0  0
 30 25  1  0  0  0  0
 31 29  1  0  0  0  0
 31 24  1  0  0  0  0
M  END
>  <MODEL>
6

>  <REMARK>
 VINA RESULT:      -7.5      2.100      4.256
  Name = 
  2 active torsions:
  status: ('A' for Active; 'I' for Inactive)
    1  A    between atoms: C_5  and  C_30
    2  A    between atoms: C_10  and  N_16
                            x       y       z     vdW  Elec       q    Type
                         _______ _______ _______ _____ _____    ______ ____

>  <TORSDO>
F 2

$$$$
=
 OpenBabel11112417033D

 31 35  0  0  1  0  0  0  0  0999 V2000
  187.8050  177.4940  141.3160 C   0  0  1  0  0  3  0  0  0  0  0  0
  190.9200  177.3480  143.6740 C   0  0  2  0  0  3  0  0  0  0  0  0
  190.3650  177.1430  145.0830 C   0  0  0  0  0  0  0  0  0  0  0  0
  188.5310  177.3480  146.6740 C   0  0  0  0  0  0  0  0  0  0  0  0
  189.9650  177.0110  142.5100 C   0  0  2  0  0  3  0  0  0  0  0  0
  187.4570  176.0120  141.3830 C   0  0  0  0  0  2  0  0  0  0  0  0
  189.0260  177.4470  145.3740 C   0  0  0  0  0  3  0  0  0  0  0  0
  191.9970  175.0640  143.3330 C   0  0  2  0  0  3  0  0  0  0  0  0
  186.6350  178.2500  141.3620 O   0  0  0  0  0  1  0  0  0  0  0  0
  192.6640  176.4190  145.9350 C   0  0  0  0  0  2  0  0  0  0  0  0
  187.1050  177.6600  146.9520 C   0  0  0  0  0  1  0  0  0  0  0  0
  190.9830  174.7550  142.2300 C   0  0  0  0  0  2  0  0  0  0  0  0
  192.2370  176.5830  143.4580 C   0  0  2  0  0  3  0  0  0  0  0  0
  188.6990  177.8720  142.4910 C   0  0  0  0  0  2  0  0  0  0  0  0
  189.3760  176.9620  147.7140 C   0  0  0  0  0  3  0  0  0  0  0  0
  189.6730  175.5030  142.4510 C   0  0  2  0  0  3  0  0  0  0  0  0
  188.7300  175.1790  141.2940 C   0  0  0  0  0  2  0  0  0  0  0  0
  193.2050  176.9130  144.5940 C   0  0  0  0  0  2  0  0  0  0  0  0
  191.2250  176.7870  146.1540 C   0  0  0  0  0  0  0  0  0  0  0  0
  190.7180  176.6820  147.4520 C   0  0  0  0  0  3  0  0  0  0  0  0
  193.1940  173.0620  144.9720 O   0  0  0  0  0  0  0  0  0  0  0  0
  193.7930  173.3790  143.9070 C   0  0  0  0  0  0  0  0  0  0  0  0
  193.2510  174.3820  143.0460 N   0  0  0  0  0  2  0  0  0  0  0  0
  195.8970  170.7220  145.3830 C   0  0  1  0  0  3  0  0  0  0  0  0
  194.9190  171.1980  143.3990 C   0  0  0  0  0  2  0  0  0  0  0  0
  196.2890  174.3800  144.8240 O   0  0  0  0  0  1  0  0  0  0  0  0
  195.8150  169.8720  146.6340 C   0  0  0  0  0  1  0  0  0  0  0  0
  194.6970  170.6080  144.6590 O   0  0  0  0  0  0  0  0  0  0  0  0
  196.2350  173.0210  144.5070 C   0  0  2  0  0  3  0  0  0  0  0  0
  195.0860  172.7170  143.5300 C   0  0  2  0  0  3  0  0  0  0  0  0
  196.1340  172.1800  145.7770 C   0  0  0  0  0  2  0  0  0  0  0  0
  1  9  1  1  0  0  0
  1  6  1  0  0  0  0
  1 14  1  0  0  0  0
  2  3  1  1  0  0  0
  3  7  2  0  0  0  0
  3 19  1  0  0  0  0
  4 11  1  0  0  0  0
  4 15  2  0  0  0  0
  5 14  1  1  0  0  0
  5  2  1  0  0  0  0
  7  4  1  0  0  0  0
  8 23  1  6  0  0  0
  8 13  1  0  0  0  0
 10 19  1  0  0  0  0
 12 16  1  0  0  0  0
 12  8  1  0  0  0  0
 13  2  1  0  0  0  0
 13 18  1  1  0  0  0
 16 17  1  6  0  0  0
 16  5  1  0  0  0  0
 17  6  1  0  0  0  0
 18 10  1  0  0  0  0
 19 20  2  0  0  0  0
 20 15  1  0  0  0  0
 22 21  2  0  0  0  0
 23 22  1  0  0  0  0
 24 31  1  0  0  0  0
 24 27  1  1  0  0  0
 25 30  1  0  0  0  0
 25 28  1  0  0  0  0
 28 24  1  0  0  0  0
 29 26  1  1  0  0  0
 29 31  1  0  0  0  0
 30 22  1  1  0  0  0
 30 29  1  0  0  0  0
M  END
>  <MODEL>
7

>  <REMARK>
 VINA RESULT:      -7.4      2.619      5.229
  Name = 
  2 active torsions:
  status: ('A' for Active; 'I' for Inactive)
    1  A    between atoms: C_5  and  C_30
    2  A    between atoms: C_10  and  N_16
                            x       y       z     vdW  Elec       q    Type
                         _______ _______ _______ _____ _____    ______ ____

>  <TORSDO>
F 2

$$$$
=
 OpenBabel11112417033D

 31 35  0  0  1  0  0  0  0  0999 V2000
  186.8950  177.9140  140.8750 C   0  0  1  0  0  3  0  0  0  0  0  0
  189.5300  177.5880  143.7440 C   0  0  2  0  0  3  0  0  0  0  0  0
  188.7530  177.1080  144.9700 C   0  0  0  0  0  0  0  0  0  0  0  0
  186.6490  176.9120  146.1850 C   0  0  0  0  0  0  0  0  0  0  0  0
  188.8410  177.3880  142.3790 C   0  0  2  0  0  3  0  0  0  0  0  0
  186.6920  176.4220  140.6450 C   0  0  0  0  0  2  0  0  0  0  0  0
  187.3590  177.2640  145.0370 C   0  0  0  0  0  3  0  0  0  0  0  0
  190.8760  175.4760  143.2750 C   0  0  2  0  0  3  0  0  0  0  0  0
  185.6660  178.5670  140.8070 O   0  0  0  0  0  1  0  0  0  0  0  0
  190.9210  176.4120  146.1330 C   0  0  0  0  0  2  0  0  0  0  0  0
  185.1730  177.0710  146.2230 C   0  0  0  0  0  1  0  0  0  0  0  0
  190.1140  175.2890  141.9610 C   0  0  0  0  0  2  0  0  0  0  0  0
  190.9350  176.9650  143.6750 C   0  0  2  0  0  3  0  0  0  0  0  0
  187.5190  178.1490  142.2460 C   0  0  0  0  0  2  0  0  0  0  0  0
  187.3270  176.4150  147.2980 C   0  0  0  0  0  3  0  0  0  0  0  0
  188.7170  175.8950  142.0330 C   0  0  2  0  0  3  0  0  0  0  0  0
  188.0370  175.7070  140.6790 C   0  0  0  0  0  2  0  0  0  0  0  0
  191.6420  177.1640  145.0150 C   0  0  0  0  0  2  0  0  0  0  0  0
  189.4360  176.6370  146.1200 C   0  0  0  0  0  0  0  0  0  0  0  0
  188.7150  176.2770  147.2630 C   0  0  0  0  0  3  0  0  0  0  0  0
  191.9030  173.2160  144.6770 O   0  0  0  0  0  0  0  0  0  0  0  0
  192.6730  173.7980  143.8640 C   0  0  0  0  0  0  0  0  0  0  0  0
  192.2230  174.9430  143.1360 N   0  0  0  0  0  2  0  0  0  0  0  0
  194.5320  170.7340  144.7710 C   0  0  1  0  0  3  0  0  0  0  0  0
  194.0910  171.9590  142.9200 C   0  0  0  0  0  2  0  0  0  0  0  0
  194.7220  174.3150  145.7630 O   0  0  0  0  0  1  0  0  0  0  0  0
  194.1920  169.4690  145.5300 C   0  0  0  0  0  1  0  0  0  0  0  0
  193.5900  170.9330  143.7460 O   0  0  0  0  0  0  0  0  0  0  0  0
  194.8820  173.1850  144.9580 C   0  0  2  0  0  3  0  0  0  0  0  0
  194.0750  173.3060  143.6540 C   0  0  2  0  0  3  0  0  0  0  0  0
  194.5180  171.9220  145.7320 C   0  0  0  0  0  2  0  0  0  0  0  0
  1  9  1  1  0  0  0
  1 14  1  0  0  0  0
  2  3  1  1  0  0  0
  3  7  2  0  0  0  0
  3 19  1  0  0  0  0
  4 11  1  0  0  0  0
  4 15  2  0  0  0  0
  5 14  1  1  0  0  0
  5  2  1  0  0  0  0
  6 17  1  0  0  0  0
  6  1  1  0  0  0  0
  7  4  1  0  0  0  0
  8 23  1  6  0  0  0
  8 13  1  0  0  0  0
 12 16  1  0  0  0  0
 12  8  1  0  0  0  0
 13  2  1  0  0  0  0
 13 18  1  1  0  0  0
 16 17  1  6  0  0  0
 16  5  1  0  0  0  0
 18 10  1  0  0  0  0
 19 10  1  0  0  0  0
 19 20  2  0  0  0  0
 20 15  1  0  0  0  0
 22 21  2  0  0  0  0
 23 22  1  0  0  0  0
 24 27  1  1  0  0  0
 24 31  1  0  0  0  0
 25 30  1  0  0  0  0
 25 28  1  0  0  0  0
 28 24  1  0  0  0  0
 29 31  1  0  0  0  0
 29 26  1  1  0  0  0
 30 22  1  1  0  0  0
 30 29  1  0  0  0  0
M  END
>  <MODEL>
8

>  <REMARK>
 VINA RESULT:      -7.4      2.400      4.827
  Name = 
  2 active torsions:
  status: ('A' for Active; 'I' for Inactive)
    1  A    between atoms: C_5  and  C_30
    2  A    between atoms: C_10  and  N_16
                            x       y       z     vdW  Elec       q    Type
                         _______ _______ _______ _____ _____    ______ ____

>  <TORSDO>
F 2

$$$$
=
 OpenBabel11112417033D

 31 35  0  0  1  0  0  0  0  0999 V2000
  191.4810  170.7340  142.5970 C   0  0  1  0  0  3  0  0  0  0  0  0
  190.6680  173.5410  145.1940 C   0  0  2  0  0  3  0  0  0  0  0  0
  191.9990  174.2330  145.4870 C   0  0  0  0  0  0  0  0  0  0  0  0
  194.4340  174.1780  145.5420 C   0  0  0  0  0  0  0  0  0  0  0  0
  190.6080  172.6980  143.9030 C   0  0  2  0  0  3  0  0  0  0  0  0
  191.7100  171.6520  141.4030 C   0  0  0  0  0  2  0  0  0  0  0  0
  193.2150  173.5940  145.1990 C   0  0  0  0  0  3  0  0  0  0  0  0
  189.5140  175.4180  143.9160 C   0  0  2  0  0  3  0  0  0  0  0  0
  192.4320  169.7160  142.5900 O   0  0  0  0  0  1  0  0  0  0  0  0
  190.7850  176.2340  146.5170 C   0  0  0  0  0  2  0  0  0  0  0  0
  195.7070  173.4870  145.2100 C   0  0  0  0  0  1  0  0  0  0  0  0
  189.5400  174.5640  142.6460 C   0  0  0  0  0  2  0  0  0  0  0  0
  189.4930  174.5340  145.1800 C   0  0  2  0  0  3  0  0  0  0  0  0
  191.5950  171.5270  143.8930 C   0  0  0  0  0  2  0  0  0  0  0  0
  194.4580  175.4060  146.2010 C   0  0  0  0  0  3  0  0  0  0  0  0
  190.7110  173.5880  142.6550 C   0  0  2  0  0  3  0  0  0  0  0  0
  190.6480  172.7450  141.3820 C   0  0  0  0  0  2  0  0  0  0  0  0
  189.5260  175.3710  146.4580 C   0  0  0  0  0  2  0  0  0  0  0  0
  192.0320  175.4650  146.1900 C   0  0  0  0  0  0  0  0  0  0  0  0
  193.2600  176.0470  146.5210 C   0  0  0  0  0  3  0  0  0  0  0  0
  189.3330  177.9030  142.5300 O   0  0  0  0  0  0  0  0  0  0  0  0
  188.3170  177.5160  143.1710 C   0  0  0  0  0  0  0  0  0  0  0  0
  188.3440  176.2850  143.8940 N   0  0  0  0  0  2  0  0  0  0  0  0
  185.2950  177.6360  145.2980 C   0  0  1  0  0  3  0  0  0  0  0  0
  186.8890  179.0540  144.5410 C   0  0  0  0  0  2  0  0  0  0  0  0
  185.9840  176.7140  141.7600 O   0  0  0  0  0  1  0  0  0  0  0  0
  184.8040  176.8470  146.4930 C   0  0  0  0  0  1  0  0  0  0  0  0
  186.5880  178.1260  145.5580 O   0  0  0  0  0  0  0  0  0  0  0  0
  185.7940  177.5430  142.8670 C   0  0  2  0  0  3  0  0  0  0  0  0
  187.0660  178.3460  143.1920 C   0  0  2  0  0  3  0  0  0  0  0  0
  185.3180  176.7300  144.0670 C   0  0  0  0  0  2  0  0  0  0  0  0
  1  9  1  1  0  0  0
  1 14  1  0  0  0  0
  2  3  1  6  0  0  0
  3 19  1  0  0  0  0
  4 15  2  0  0  0  0
  5 14  1  1  0  0  0
  5  2  1  0  0  0  0
  6  1  1  0  0  0  0
  7  3  2  0  0  0  0
  7  4  1  0  0  0  0
  8 23  1  6  0  0  0
  8 13  1  0  0  0  0
 11  4  1  0  0  0  0
 12 16  1  0  0  0  0
 12  8  1  0  0  0  0
 13  2  1  0  0  0  0
 13 18  1  1  0  0  0
 15 20  1  0  0  0  0
 16 17  1  6  0  0  0
 16  5  1  0  0  0  0
 17  6  1  0  0  0  0
 18 10  1  0  0  0  0
 19 10  1  0  0  0  0
 19 20  2  0  0  0  0
 21 22  2  0  0  0  0
 22 23  1  0  0  0  0
 24 28  1  0  0  0  0
 24 27  1  1  0  0  0
 25 28  1  0  0  0  0
 29 26  1  6  0  0  0
 29 30  1  0  0  0  0
 29 31  1  0  0  0  0
 30 22  1  1  0  0  0
 30 25  1  0  0  0  0
 31 24  1  0  0  0  0
M  END
>  <MODEL>
9

>  <REMARK>
 VINA RESULT:      -7.2      2.579      7.955
  Name = 
  2 active torsions:
  status: ('A' for Active; 'I' for Inactive)
    1  A    between atoms: C_5  and  C_30
    2  A    between atoms: C_10  and  N_16
                            x       y       z     vdW  Elec       q    Type
                         _______ _______ _______ _____ _____    ______ ____

>  <TORSDO>
F 2

$$$$
