=
 OpenBabel11112416413D

 32 37  0  0  1  0  0  0  0  0999 V2000
  189.5040  174.8360  143.0990 C   0  0  1  0  0  3  0  0  0  0  0  0
  191.8850  176.2780  146.6550 C   0  0  0  0  0  2  0  0  0  0  0  0
  192.8210  175.0750  146.4950 C   0  0  0  0  0  2  0  0  0  0  0  0
  189.9590  172.3950  142.7330 C   0  0  0  0  0  0  0  0  0  0  0  0
  190.8580  171.1900  142.8240 C   0  0  1  0  0  3  0  0  0  0  0  0
  187.5560  176.0080  142.0660 N   0  0  0  0  0  0  0  0  0  0  0  0
  189.4280  177.3920  143.0700 C   0  0  0  0  0  2  0  0  0  0  0  0
  193.0990  170.7460  142.0230 C   0  0  1  0  0  3  0  0  0  0  0  0
  190.7570  176.2390  145.6230 C   0  0  0  0  0  2  0  0  0  0  0  0
  190.3060  176.1360  143.1110 C   0  0  1  0  0  3  0  0  0  0  0  0
  191.3580  176.1750  144.2170 C   0  0  2  0  0  3  0  0  0  0  0  0
  191.8250  173.7820  143.5330 C   0  0  0  0  0  0  0  0  0  0  0  0
  192.1500  169.7370  141.3910 C   0  0  0  0  0  2  0  0  0  0  0  0
  187.9200  177.0830  143.0150 C   0  0  2  0  0  3  0  0  0  0  0  0
  190.7380  170.2700  141.6260 C   0  0  0  0  0  2  0  0  0  0  0  0
  193.3710  175.0160  145.0690 C   0  0  0  0  0  2  0  0  0  0  0  0
  192.2550  175.0200  144.1300 N   0  0  0  0  0  0  0  0  0  0  0  0
  192.6710  172.8050  143.3890 N   0  0  0  0  0  0  0  0  0  0  0  0
  188.5600  174.9420  141.9030 C   0  0  0  0  0  2  0  0  0  0  0  0
  188.6230  172.1940  142.4030 O   0  0  0  0  0  1  0  0  0  0  0  0
  193.7400  171.5770  140.9250 C   0  0  0  0  0  1  0  0  0  0  0  0
  190.4200  173.6270  143.0480 C   0  0  0  0  0  0  0  0  0  0  0  0
  192.2530  171.5780  142.8550 N   0  0  0  0  0  0  0  0  0  0  0  0
  187.6660  177.9220  145.3430 C   0  0  0  0  0  2  0  0  0  0  0  0
  187.3830  176.7670  144.4030 C   0  0  1  0  0  3  0  0  0  0  0  0
  186.2830  177.7510  144.7510 C   0  0  1  0  0  3  0  0  0  0  0  0
  185.3650  177.1150  145.7760 C   0  0  0  0  0  2  0  0  0  0  0  0
  184.5520  178.1660  146.4480 C   0  0  0  0  0  0  0  0  0  0  0  0
  183.6240  178.8980  145.7180 O   0  0  0  0  0  0  0  0  0  0  0  0
  184.7290  178.4140  147.6680 O   0  0  0  0  0  1  0  0  0  0  0  0
  186.3740  177.7620  140.8670 C   0  0  0  0  0  1  0  0  0  0  0  0
  187.3580  176.6120  140.7580 C   0  0  0  0  0  2  0  0  0  0  0  0
  1 19  1  6  0  0  0
  1 10  1  0  0  0  0
  3  2  1  0  0  0  0
  4  5  1  0  0  0  0
  4 22  2  0  0  0  0
  5 15  1  6  0  0  0
  5 23  1  0  0  0  0
  6 14  1  0  0  0  0
  8 21  1  6  0  0  0
  8 23  1  0  0  0  0
  9  2  1  0  0  0  0
 10  7  1  1  0  0  0
 10 11  1  0  0  0  0
 11  9  1  1  0  0  0
 12 17  1  0  0  0  0
 13 15  1  0  0  0  0
 13  8  1  0  0  0  0
 14  7  1  1  0  0  0
 14 25  1  0  0  0  0
 16  3  1  0  0  0  0
 17 11  1  0  0  0  0
 17 16  1  0  0  0  0
 18 12  2  0  0  0  0
 19  6  1  0  0  0  0
 20  4  1  0  0  0  0
 22  1  1  0  0  0  0
 22 12  1  0  0  0  0
 23 18  1  0  0  0  0
 25 26  1  0  0  0  0
 25 24  1  1  0  0  0
 26 24  1  0  0  0  0
 26 27  1  1  0  0  0
 27 28  1  0  0  0  0
 28 30  1  0  0  0  0
 29 28  2  0  0  0  0
 32 31  1  0  0  0  0
 32  6  1  0  0  0  0
M  END
>  <MODEL>
1

>  <REMARK>
 VINA RESULT:      -7.5      0.000      0.000
  Name = 
  4 active torsions:
  status: ('A' for Active; 'I' for Inactive)
    1  A    between atoms: N_7  and  C_19
    2  A    between atoms: C_10  and  C_17
    3  A    between atoms: C_20  and  C_29
    4  A    between atoms: C_29  and  C_30
                            x       y       z     vdW  Elec       q    Type
                         _______ _______ _______ _____ _____    ______ ____

>  <TORSDO>
F 4

$$$$
=
 OpenBabel11112416413D

 32 37  0  0  1  0  0  0  0  0999 V2000
  189.3760  175.2810  143.1680 C   0  0  1  0  0  3  0  0  0  0  0  0
  192.3000  174.7900  146.5750 C   0  0  0  0  0  2  0  0  0  0  0  0
  191.4170  175.6950  147.4410 C   0  0  0  0  0  2  0  0  0  0  0  0
  187.9900  177.3370  143.5570 C   0  0  0  0  0  0  0  0  0  0  0  0
  187.3380  178.3370  144.4750 C   0  0  1  0  0  3  0  0  0  0  0  0
  189.5160  174.1560  140.9430 N   0  0  0  0  0  0  0  0  0  0  0  0
  190.3460  172.9210  142.9950 C   0  0  0  0  0  2  0  0  0  0  0  0
  185.7840  178.1080  146.3170 C   0  0  1  0  0  3  0  0  0  0  0  0
  191.7290  174.6530  145.1630 C   0  0  0  0  0  2  0  0  0  0  0  0
  189.6360  173.9530  143.8780 C   0  0  1  0  0  3  0  0  0  0  0  0
  190.2940  174.1290  145.2450 C   0  0  2  0  0  3  0  0  0  0  0  0
  188.6450  176.0290  145.5330 C   0  0  0  0  0  0  0  0  0  0  0  0
  185.1390  178.9750  145.2450 C   0  0  0  0  0  2  0  0  0  0  0  0
  190.6420  173.4320  141.5730 C   0  0  2  0  0  3  0  0  0  0  0  0
  185.9790  178.7930  143.9820 C   0  0  0  0  0  2  0  0  0  0  0  0
  189.9820  175.1680  147.4680 C   0  0  0  0  0  2  0  0  0  0  0  0
  189.5050  175.0210  146.0980 N   0  0  0  0  0  0  0  0  0  0  0  0
  187.8900  176.7450  146.3120 N   0  0  0  0  0  0  0  0  0  0  0  0
  188.6610  174.9220  141.8670 C   0  0  0  0  0  2  0  0  0  0  0  0
  188.0350  177.6250  142.1970 O   0  0  0  0  0  1  0  0  0  0  0  0
  184.9450  176.8560  146.5100 C   0  0  0  0  0  1  0  0  0  0  0  0
  188.5930  176.2320  144.0530 C   0  0  0  0  0  0  0  0  0  0  0  0
  187.0850  177.7630  145.7800 N   0  0  0  0  0  0  0  0  0  0  0  0
  193.0950  173.4640  141.9850 C   0  0  0  0  0  2  0  0  0  0  0  0
  191.8980  174.2900  141.5590 C   0  0  1  0  0  3  0  0  0  0  0  0
  192.8600  173.7530  140.5180 C   0  0  1  0  0  3  0  0  0  0  0  0
  193.7710  174.8780  140.0680 C   0  0  0  0  0  2  0  0  0  0  0  0
  193.9350  174.8340  138.5880 C   0  0  0  0  0  0  0  0  0  0  0  0
  195.1970  174.9720  138.0250 O   0  0  0  0  0  1  0  0  0  0  0  0
  192.9270  174.7040  137.8470 O   0  0  0  0  0  0  0  0  0  0  0  0
  189.5040  172.2820  139.3950 C   0  0  0  0  0  1  0  0  0  0  0  0
  188.6640  173.1780  140.2860 C   0  0  0  0  0  2  0  0  0  0  0  0
  1 19  1  6  0  0  0
  1 10  1  0  0  0  0
  1 22  1  0  0  0  0
  2  3  1  0  0  0  0
  3 16  1  0  0  0  0
  4 22  2  0  0  0  0
  4  5  1  0  0  0  0
  5 15  1  6  0  0  0
  5 23  1  0  0  0  0
  6 14  1  0  0  0  0
  6 19  1  0  0  0  0
  8 21  1  6  0  0  0
  9  2  1  0  0  0  0
 10  7  1  6  0  0  0
 10 11  1  0  0  0  0
 11  9  1  6  0  0  0
 11 17  1  0  0  0  0
 12 17  1  0  0  0  0
 12 18  2  0  0  0  0
 13  8  1  0  0  0  0
 14  7  1  1  0  0  0
 15 13  1  0  0  0  0
 17 16  1  0  0  0  0
 20  4  1  0  0  0  0
 22 12  1  0  0  0  0
 23 18  1  0  0  0  0
 23  8  1  0  0  0  0
 25 14  1  0  0  0  0
 25 24  1  1  0  0  0
 26 27  1  1  0  0  0
 26 25  1  0  0  0  0
 26 24  1  0  0  0  0
 28 27  1  0  0  0  0
 29 28  1  0  0  0  0
 30 28  2  0  0  0  0
 31 32  1  0  0  0  0
 32  6  1  0  0  0  0
M  END
>  <MODEL>
2

>  <REMARK>
 VINA RESULT:      -7.4      3.016      7.446
  Name = 
  4 active torsions:
  status: ('A' for Active; 'I' for Inactive)
    1  A    between atoms: N_7  and  C_19
    2  A    between atoms: C_10  and  C_17
    3  A    between atoms: C_20  and  C_29
    4  A    between atoms: C_29  and  C_30
                            x       y       z     vdW  Elec       q    Type
                         _______ _______ _______ _____ _____    ______ ____

>  <TORSDO>
F 4

$$$$
=
 OpenBabel11112416413D

 32 37  0  0  1  0  0  0  0  0999 V2000
  190.0200  175.8300  144.9230 C   0  0  1  0  0  3  0  0  0  0  0  0
  189.3050  174.3170  140.7290 C   0  0  0  0  0  2  0  0  0  0  0  0
  187.8660  174.8370  140.8040 C   0  0  0  0  0  2  0  0  0  0  0  0
  187.8140  176.1340  146.0810 C   0  0  0  0  0  0  0  0  0  0  0  0
  186.3370  176.4240  146.0540 C   0  0  1  0  0  3  0  0  0  0  0  0
  192.1860  175.7460  146.1630 N   0  0  0  0  0  0  0  0  0  0  0  0
  192.2240  176.0720  143.6490 C   0  0  0  0  0  2  0  0  0  0  0  0
  185.0400  178.2680  145.1700 C   0  0  1  0  0  3  0  0  0  0  0  0
  190.0470  174.5560  142.0450 C   0  0  0  0  0  2  0  0  0  0  0  0
  190.7250  176.3890  143.6890 C   0  0  1  0  0  3  0  0  0  0  0  0
  190.0040  176.0470  142.3870 C   0  0  2  0  0  3  0  0  0  0  0  0
  187.9010  176.6270  143.6740 C   0  0  0  0  0  0  0  0  0  0  0  0
  184.7880  178.1740  146.6690 C   0  0  0  0  0  2  0  0  0  0  0  0
  192.7110  175.2640  144.8660 C   0  0  2  0  0  3  0  0  0  0  0  0
  185.8770  177.2620  147.2310 C   0  0  0  0  0  2  0  0  0  0  0  0
  187.8560  176.3170  141.1890 C   0  0  0  0  0  2  0  0  0  0  0  0
  188.6080  176.4900  142.4260 N   0  0  0  0  0  0  0  0  0  0  0  0
  186.6940  177.1080  143.6830 N   0  0  0  0  0  0  0  0  0  0  0  0
  190.8300  176.3210  146.1210 C   0  0  0  0  0  2  0  0  0  0  0  0
  188.3690  175.6580  147.2650 O   0  0  0  0  0  1  0  0  0  0  0  0
  185.6680  179.6160  144.8580 C   0  0  0  0  0  1  0  0  0  0  0  0
  188.5620  176.2480  144.9600 C   0  0  0  0  0  0  0  0  0  0  0  0
  185.9760  177.1990  144.8850 N   0  0  0  0  0  0  0  0  0  0  0  0
  192.9000  173.3120  143.3360 C   0  0  0  0  0  2  0  0  0  0  0  0
  192.4060  173.7840  144.6880 C   0  0  1  0  0  3  0  0  0  0  0  0
  193.7070  173.0130  144.5820 C   0  0  1  0  0  3  0  0  0  0  0  0
  193.4630  171.5810  145.0150 C   0  0  0  0  0  2  0  0  0  0  0  0
  194.6560  171.0620  145.7400 C   0  0  0  0  0  0  0  0  0  0  0  0
  195.8050  171.8380  145.8300 O   0  0  0  0  0  0  0  0  0  0  0  0
  194.6350  169.9090  146.2420 O   0  0  0  0  0  1  0  0  0  0  0  0
  194.5200  176.3650  146.4460 C   0  0  0  0  0  1  0  0  0  0  0  0
  193.0770  176.7870  146.6490 C   0  0  0  0  0  2  0  0  0  0  0  0
  1 22  1  0  0  0  0
  1 19  1  1  0  0  0
  2  3  1  0  0  0  0
  2  9  1  0  0  0  0
  3 16  1  0  0  0  0
  4 20  1  0  0  0  0
  5  4  1  0  0  0  0
  5 15  1  1  0  0  0
  6 32  1  0  0  0  0
  8 21  1  1  0  0  0
  8 13  1  0  0  0  0
 10  7  1  6  0  0  0
 10  1  1  0  0  0  0
 11  9  1  1  0  0  0
 11 17  1  0  0  0  0
 11 10  1  0  0  0  0
 12 18  2  0  0  0  0
 12 22  1  0  0  0  0
 13 15  1  0  0  0  0
 14  7  1  6  0  0  0
 14  6  1  0  0  0  0
 16 17  1  0  0  0  0
 17 12  1  0  0  0  0
 18 23  1  0  0  0  0
 19  6  1  0  0  0  0
 22  4  2  0  0  0  0
 23  8  1  0  0  0  0
 23  5  1  0  0  0  0
 24 26  1  0  0  0  0
 25 24  1  6  0  0  0
 25 14  1  0  0  0  0
 26 25  1  0  0  0  0
 26 27  1  1  0  0  0
 27 28  1  0  0  0  0
 28 29  2  0  0  0  0
 28 30  1  0  0  0  0
 31 32  1  0  0  0  0
M  END
>  <MODEL>
3

>  <REMARK>
 VINA RESULT:      -7.4      2.728      8.050
  Name = 
  4 active torsions:
  status: ('A' for Active; 'I' for Inactive)
    1  A    between atoms: N_7  and  C_19
    2  A    between atoms: C_10  and  C_17
    3  A    between atoms: C_20  and  C_29
    4  A    between atoms: C_29  and  C_30
                            x       y       z     vdW  Elec       q    Type
                         _______ _______ _______ _____ _____    ______ ____

>  <TORSDO>
F 4

$$$$
=
 OpenBabel11112416413D

 32 37  0  0  1  0  0  0  0  0999 V2000
  191.4300  175.3060  144.9330 C   0  0  1  0  0  3  0  0  0  0  0  0
  189.3170  172.0670  142.5990 C   0  0  0  0  0  2  0  0  0  0  0  0
  190.6760  171.4330  142.2810 C   0  0  0  0  0  2  0  0  0  0  0  0
  193.8300  175.4160  144.2080 C   0  0  0  0  0  0  0  0  0  0  0  0
  195.0770  174.7710  143.6630 C   0  0  1  0  0  3  0  0  0  0  0  0
  190.3290  177.1430  146.2170 N   0  0  0  0  0  0  0  0  0  0  0  0
  189.1890  174.8820  146.0910 C   0  0  0  0  0  2  0  0  0  0  0  0
  196.3750  172.8500  144.3610 C   0  0  1  0  0  3  0  0  0  0  0  0
  189.4860  173.3530  143.4090 C   0  0  0  0  0  2  0  0  0  0  0  0
  190.4960  174.2760  145.5660 C   0  0  1  0  0  3  0  0  0  0  0  0
  190.2770  173.0490  144.6830 C   0  0  2  0  0  3  0  0  0  0  0  0
  192.7710  173.1980  144.2650 C   0  0  0  0  0  0  0  0  0  0  0  0
  197.2720  174.0800  144.3980 C   0  0  0  0  0  2  0  0  0  0  0  0
  189.0920  176.4030  145.8790 C   0  0  2  0  0  3  0  0  0  0  0  0
  196.3440  175.2910  144.3110 C   0  0  0  0  0  2  0  0  0  0  0  0
  191.4580  171.1810  143.5710 C   0  0  0  0  0  2  0  0  0  0  0  0
  191.5540  172.4290  144.3190 N   0  0  0  0  0  0  0  0  0  0  0  0
  193.9010  172.6030  144.0260 N   0  0  0  0  0  0  0  0  0  0  0  0
  191.5870  176.4160  145.9690 C   0  0  0  0  0  2  0  0  0  0  0  0
  193.7960  176.8030  144.3030 O   0  0  0  0  0  1  0  0  0  0  0  0
  196.2670  172.2740  145.7630 C   0  0  0  0  0  1  0  0  0  0  0  0
  192.7430  174.6710  144.5140 C   0  0  0  0  0  0  0  0  0  0  0  0
  195.0860  173.3460  143.9220 N   0  0  0  0  0  0  0  0  0  0  0  0
  187.3260  176.0630  144.1620 C   0  0  0  0  0  2  0  0  0  0  0  0
  188.6570  176.7240  144.4570 C   0  0  1  0  0  3  0  0  0  0  0  0
  187.3780  177.5380  144.4960 C   0  0  1  0  0  3  0  0  0  0  0  0
  187.2780  178.3530  143.2220 C   0  0  0  0  0  2  0  0  0  0  0  0
  185.9390  178.9990  143.1390 C   0  0  0  0  0  0  0  0  0  0  0  0
  185.5670  179.9500  144.0810 O   0  0  0  0  0  1  0  0  0  0  0  0
  185.1320  178.6610  142.2350 O   0  0  0  0  0  0  0  0  0  0  0  0
  191.4990  176.8560  148.3290 C   0  0  0  0  0  1  0  0  0  0  0  0
  190.2910  177.4580  147.6360 C   0  0  0  0  0  2  0  0  0  0  0  0
  1 10  1  0  0  0  0
  1 19  1  1  0  0  0
  2  9  1  0  0  0  0
  3  2  1  0  0  0  0
  3 16  1  0  0  0  0
  4 20  1  0  0  0  0
  4 22  2  0  0  0  0
  5 23  1  0  0  0  0
  5  4  1  0  0  0  0
  5 15  1  1  0  0  0
  6 32  1  0  0  0  0
  8 13  1  0  0  0  0
  8 21  1  1  0  0  0
 10  7  1  6  0  0  0
 11  9  1  6  0  0  0
 11 10  1  0  0  0  0
 12 17  1  0  0  0  0
 12 22  1  0  0  0  0
 14  7  1  6  0  0  0
 14  6  1  0  0  0  0
 15 13  1  0  0  0  0
 16 17  1  0  0  0  0
 17 11  1  0  0  0  0
 18 12  2  0  0  0  0
 19  6  1  0  0  0  0
 22  1  1  0  0  0  0
 23 18  1  0  0  0  0
 23  8  1  0  0  0  0
 24 26  1  0  0  0  0
 25 24  1  6  0  0  0
 25 26  1  0  0  0  0
 25 14  1  0  0  0  0
 26 27  1  6  0  0  0
 28 27  1  0  0  0  0
 28 29  1  0  0  0  0
 30 28  2  0  0  0  0
 32 31  1  0  0  0  0
M  END
>  <MODEL>
4

>  <REMARK>
 VINA RESULT:      -7.3      2.522      4.807
  Name = 
  4 active torsions:
  status: ('A' for Active; 'I' for Inactive)
    1  A    between atoms: N_7  and  C_19
    2  A    between atoms: C_10  and  C_17
    3  A    between atoms: C_20  and  C_29
    4  A    between atoms: C_29  and  C_30
                            x       y       z     vdW  Elec       q    Type
                         _______ _______ _______ _____ _____    ______ ____

>  <TORSDO>
F 4

$$$$
=
 OpenBabel11112416413D

 32 37  0  0  1  0  0  0  0  0999 V2000
  191.0390  174.4140  143.5770 C   0  0  1  0  0  3  0  0  0  0  0  0
  193.9180  176.4560  146.3950 C   0  0  0  0  0  2  0  0  0  0  0  0
  194.9350  175.3390  146.1380 C   0  0  0  0  0  2  0  0  0  0  0  0
  191.6930  172.0030  143.3300 C   0  0  0  0  0  0  0  0  0  0  0  0
  192.7270  170.9080  143.3260 C   0  0  1  0  0  3  0  0  0  0  0  0
  188.7950  175.2730  142.8970 N   0  0  0  0  0  0  0  0  0  0  0  0
  190.6580  176.9320  143.3490 C   0  0  0  0  0  2  0  0  0  0  0  0
  194.7900  170.5990  142.0980 C   0  0  1  0  0  3  0  0  0  0  0  0
  192.6130  176.1960  145.6400 C   0  0  0  0  0  2  0  0  0  0  0  0
  191.6670  175.7790  143.3050 C   0  0  1  0  0  3  0  0  0  0  0  0
  192.9130  176.0390  144.1480 C   0  0  2  0  0  3  0  0  0  0  0  0
  193.5070  173.6430  143.5840 C   0  0  0  0  0  0  0  0  0  0  0  0
  193.8560  169.4410  141.7740 C   0  0  0  0  0  2  0  0  0  0  0  0
  189.2190  176.4740  143.6500 C   0  0  2  0  0  3  0  0  0  0  0  0
  192.4710  169.8560  142.2650 C   0  0  0  0  0  2  0  0  0  0  0  0
  195.1810  175.1800  144.6380 C   0  0  0  0  0  2  0  0  0  0  0  0
  193.9030  174.9740  143.9670 N   0  0  0  0  0  0  0  0  0  0  0  0
  194.4140  172.7430  143.3440 N   0  0  0  0  0  0  0  0  0  0  0  0
  189.8620  174.2980  142.6110 C   0  0  0  0  0  2  0  0  0  0  0  0
  190.3500  171.6390  143.3170 O   0  0  0  0  0  1  0  0  0  0  0  0
  195.0870  171.3660  140.8200 C   0  0  0  0  0  1  0  0  0  0  0  0
  192.0600  173.3010  143.4320 C   0  0  0  0  0  0  0  0  0  0  0  0
  194.0420  171.4300  143.0190 N   0  0  0  0  0  0  0  0  0  0  0  0
  189.3210  177.5410  145.8950 C   0  0  0  0  0  2  0  0  0  0  0  0
  189.0220  176.2590  145.1430 C   0  0  1  0  0  3  0  0  0  0  0  0
  187.8860  177.1380  145.6300 C   0  0  1  0  0  3  0  0  0  0  0  0
  187.2920  176.5210  146.8810 C   0  0  0  0  0  2  0  0  0  0  0  0
  185.9890  177.1700  147.1940 C   0  0  0  0  0  0  0  0  0  0  0  0
  184.8410  176.7880  146.5120 O   0  0  0  0  0  0  0  0  0  0  0  0
  185.9340  178.0870  148.0540 O   0  0  0  0  0  1  0  0  0  0  0  0
  187.2160  176.7870  141.8370 C   0  0  0  0  0  1  0  0  0  0  0  0
  188.2610  175.7100  141.6170 C   0  0  0  0  0  2  0  0  0  0  0  0
  1 19  1  6  0  0  0
  3  2  1  0  0  0  0
  4 22  2  0  0  0  0
  5 15  1  6  0  0  0
  5  4  1  0  0  0  0
  6 14  1  0  0  0  0
  8 21  1  6  0  0  0
  8 23  1  0  0  0  0
  9  2  1  0  0  0  0
 10  7  1  1  0  0  0
 10  1  1  0  0  0  0
 10 11  1  0  0  0  0
 11  9  1  1  0  0  0
 12 17  1  0  0  0  0
 13  8  1  0  0  0  0
 13 15  1  0  0  0  0
 14  7  1  1  0  0  0
 14 25  1  0  0  0  0
 16  3  1  0  0  0  0
 17 11  1  0  0  0  0
 17 16  1  0  0  0  0
 18 12  2  0  0  0  0
 19  6  1  0  0  0  0
 20  4  1  0  0  0  0
 22  1  1  0  0  0  0
 22 12  1  0  0  0  0
 23  5  1  0  0  0  0
 23 18  1  0  0  0  0
 25 26  1  0  0  0  0
 25 24  1  1  0  0  0
 26 24  1  0  0  0  0
 26 27  1  1  0  0  0
 27 28  1  0  0  0  0
 28 30  1  0  0  0  0
 29 28  2  0  0  0  0
 32 31  1  0  0  0  0
 32  6  1  0  0  0  0
M  END
>  <MODEL>
5

>  <REMARK>
 VINA RESULT:      -6.8      1.490      1.794
  Name = 
  4 active torsions:
  status: ('A' for Active; 'I' for Inactive)
    1  A    between atoms: N_7  and  C_19
    2  A    between atoms: C_10  and  C_17
    3  A    between atoms: C_20  and  C_29
    4  A    between atoms: C_29  and  C_30
                            x       y       z     vdW  Elec       q    Type
                         _______ _______ _______ _____ _____    ______ ____

>  <TORSDO>
F 4

$$$$
=
 OpenBabel11112416413D

 32 37  0  0  1  0  0  0  0  0999 V2000
  191.9270  174.5240  144.0720 C   0  0  1  0  0  3  0  0  0  0  0  0
  190.5670  170.6810  142.1270 C   0  0  0  0  0  2  0  0  0  0  0  0
  192.0190  170.1920  142.1180 C   0  0  0  0  0  2  0  0  0  0  0  0
  194.3850  174.8320  143.6650 C   0  0  0  0  0  0  0  0  0  0  0  0
  195.7640  174.2780  143.4200 C   0  0  1  0  0  3  0  0  0  0  0  0
  190.4480  176.3870  144.8310 N   0  0  0  0  0  0  0  0  0  0  0  0
  189.5940  174.0040  144.9810 C   0  0  0  0  0  2  0  0  0  0  0  0
  197.1390  172.6970  144.6330 C   0  0  1  0  0  3  0  0  0  0  0  0
  190.4670  172.0970  142.6970 C   0  0  0  0  0  2  0  0  0  0  0  0
  191.0250  173.5000  144.7570 C   0  0  1  0  0  3  0  0  0  0  0  0
  191.0800  172.1240  144.0990 C   0  0  2  0  0  3  0  0  0  0  0  0
  193.5770  172.5340  143.9950 C   0  0  0  0  0  0  0  0  0  0  0  0
  197.8800  174.0250  144.5570 C   0  0  0  0  0  2  0  0  0  0  0  0
  189.3660  175.4410  144.4760 C   0  0  2  0  0  3  0  0  0  0  0  0
  196.8510  175.0670  144.1220 C   0  0  0  0  0  2  0  0  0  0  0  0
  192.6150  170.2700  143.5240 C   0  0  0  0  0  2  0  0  0  0  0  0
  192.4570  171.6280  144.0300 N   0  0  0  0  0  0  0  0  0  0  0  0
  194.7890  172.0650  144.0250 N   0  0  0  0  0  0  0  0  0  0  0  0
  191.8000  175.8050  144.8930 C   0  0  0  0  0  2  0  0  0  0  0  0
  194.1860  176.1980  143.4930 O   0  0  0  0  0  1  0  0  0  0  0  0
  196.8790  172.3580  146.0910 C   0  0  0  0  0  1  0  0  0  0  0  0
  193.3510  174.0110  143.9570 C   0  0  0  0  0  0  0  0  0  0  0  0
  195.8880  172.9320  143.9410 N   0  0  0  0  0  0  0  0  0  0  0  0
  187.9080  174.6130  142.6390 C   0  0  0  0  0  2  0  0  0  0  0  0
  189.1240  175.4540  142.9740 C   0  0  1  0  0  3  0  0  0  0  0  0
  187.7930  176.1220  142.6870 C   0  0  1  0  0  3  0  0  0  0  0  0
  187.8210  176.6800  141.2780 C   0  0  0  0  0  2  0  0  0  0  0  0
  186.7800  177.7350  141.1320 C   0  0  0  0  0  0  0  0  0  0  0  0
  185.9890  177.7770  139.9910 O   0  0  0  0  0  0  0  0  0  0  0  0
  186.6390  178.6080  142.0270 O   0  0  0  0  0  1  0  0  0  0  0  0
  188.7010  177.3530  146.2170 C   0  0  0  0  0  1  0  0  0  0  0  0
  190.1560  176.9300  146.1470 C   0  0  0  0  0  2  0  0  0  0  0  0
  1 10  1  0  0  0  0
  1 19  1  1  0  0  0
  2  9  1  0  0  0  0
  3  2  1  0  0  0  0
  3 16  1  0  0  0  0
  4 22  2  0  0  0  0
  5  4  1  0  0  0  0
  5 23  1  0  0  0  0
  5 15  1  1  0  0  0
  6 19  1  0  0  0  0
  6 32  1  0  0  0  0
  8 21  1  1  0  0  0
 10  7  1  6  0  0  0
 11  9  1  6  0  0  0
 11 10  1  0  0  0  0
 12 18  2  0  0  0  0
 12 17  1  0  0  0  0
 13  8  1  0  0  0  0
 14  6  1  0  0  0  0
 14  7  1  6  0  0  0
 15 13  1  0  0  0  0
 16 17  1  0  0  0  0
 17 11  1  0  0  0  0
 20  4  1  0  0  0  0
 22 12  1  0  0  0  0
 22  1  1  0  0  0  0
 23 18  1  0  0  0  0
 23  8  1  0  0  0  0
 24 26  1  0  0  0  0
 25 24  1  1  0  0  0
 25 14  1  0  0  0  0
 26 27  1  6  0  0  0
 26 25  1  0  0  0  0
 28 27  1  0  0  0  0
 28 30  1  0  0  0  0
 29 28  2  0  0  0  0
 32 31  1  0  0  0  0
M  END
>  <MODEL>
6

>  <REMARK>
 VINA RESULT:      -6.6      2.804      5.090
  Name = 
  4 active torsions:
  status: ('A' for Active; 'I' for Inactive)
    1  A    between atoms: N_7  and  C_19
    2  A    between atoms: C_10  and  C_17
    3  A    between atoms: C_20  and  C_29
    4  A    between atoms: C_29  and  C_30
                            x       y       z     vdW  Elec       q    Type
                         _______ _______ _______ _____ _____    ______ ____

>  <TORSDO>
F 4

$$$$
=
 OpenBabel11112416413D

 32 37  0  0  1  0  0  0  0  0999 V2000
  190.2750  175.5530  143.4290 C   0  0  1  0  0  3  0  0  0  0  0  0
  193.3150  176.0570  146.7300 C   0  0  0  0  0  2  0  0  0  0  0  0
  192.2800  176.8480  147.5390 C   0  0  0  0  0  2  0  0  0  0  0  0
  188.4930  177.3050  143.6690 C   0  0  0  0  0  0  0  0  0  0  0  0
  187.6650  178.2400  144.5090 C   0  0  1  0  0  3  0  0  0  0  0  0
  190.5980  174.2460  141.3250 N   0  0  0  0  0  0  0  0  0  0  0  0
  191.7190  173.4420  143.4520 C   0  0  0  0  0  2  0  0  0  0  0  0
  186.2390  177.8950  146.4340 C   0  0  1  0  0  3  0  0  0  0  0  0
  192.7530  175.6510  145.3670 C   0  0  0  0  0  2  0  0  0  0  0  0
  190.8260  174.3940  144.2570 C   0  0  1  0  0  3  0  0  0  0  0  0
  191.4640  174.8510  145.5670 C   0  0  2  0  0  3  0  0  0  0  0  0
  189.4560  176.3860  145.7360 C   0  0  0  0  0  0  0  0  0  0  0  0
  185.4000  178.4870  145.3110 C   0  0  0  0  0  2  0  0  0  0  0  0
  191.8660  173.8460  141.9740 C   0  0  2  0  0  3  0  0  0  0  0  0
  186.2290  178.3470  144.0360 C   0  0  0  0  0  2  0  0  0  0  0  0
  190.9910  176.0390  147.6850 C   0  0  0  0  0  2  0  0  0  0  0  0
  190.5240  175.6470  146.3600 N   0  0  0  0  0  0  0  0  0  0  0  0
  188.5850  177.0090  146.4720 N   0  0  0  0  0  0  0  0  0  0  0  0
  189.6220  174.9130  142.2050 C   0  0  0  0  0  2  0  0  0  0  0  0
  188.4450  177.4460  142.2860 O   0  0  0  0  0  1  0  0  0  0  0  0
  185.6900  176.5240  146.7930 C   0  0  0  0  0  1  0  0  0  0  0  0
  189.3280  176.4110  144.2470 C   0  0  0  0  0  0  0  0  0  0  0  0
  187.5700  177.7720  145.8770 N   0  0  0  0  0  0  0  0  0  0  0  0
  194.2260  174.4940  142.4210 C   0  0  0  0  0  2  0  0  0  0  0  0
  192.9110  174.9410  141.8140 C   0  0  1  0  0  3  0  0  0  0  0  0
  194.0290  174.4400  140.9210 C   0  0  1  0  0  3  0  0  0  0  0  0
  194.7090  175.6310  140.2750 C   0  0  0  0  0  2  0  0  0  0  0  0
  196.1870  175.4980  140.3980 C   0  0  0  0  0  0  0  0  0  0  0  0
  196.8310  174.3930  139.8580 O   0  0  0  0  0  0  0  0  0  0  0  0
  196.8480  176.3700  141.0190 O   0  0  0  0  0  1  0  0  0  0  0  0
  190.9430  172.2610  139.9650 C   0  0  0  0  0  1  0  0  0  0  0  0
  189.9580  173.0470  140.8100 C   0  0  0  0  0  2  0  0  0  0  0  0
  1 19  1  6  0  0  0
  1 22  1  0  0  0  0
  1 10  1  0  0  0  0
  2  3  1  0  0  0  0
  3 16  1  0  0  0  0
  4 22  2  0  0  0  0
  4  5  1  0  0  0  0
  5 15  1  6  0  0  0
  5 23  1  0  0  0  0
  6 14  1  0  0  0  0
  6 19  1  0  0  0  0
  8 21  1  6  0  0  0
  9  2  1  0  0  0  0
 10  7  1  6  0  0  0
 10 11  1  0  0  0  0
 11  9  1  6  0  0  0
 11 17  1  0  0  0  0
 12 17  1  0  0  0  0
 12 18  2  0  0  0  0
 13  8  1  0  0  0  0
 14  7  1  1  0  0  0
 15 13  1  0  0  0  0
 17 16  1  0  0  0  0
 20  4  1  0  0  0  0
 22 12  1  0  0  0  0
 23  8  1  0  0  0  0
 23 18  1  0  0  0  0
 25 14  1  0  0  0  0
 25 24  1  1  0  0  0
 26 27  1  6  0  0  0
 26 25  1  0  0  0  0
 26 24  1  0  0  0  0
 27 28  1  0  0  0  0
 28 30  1  0  0  0  0
 29 28  2  0  0  0  0
 31 32  1  0  0  0  0
 32  6  1  0  0  0  0
M  END
>  <MODEL>
7

>  <REMARK>
 VINA RESULT:      -6.6      3.297      7.536
  Name = 
  4 active torsions:
  status: ('A' for Active; 'I' for Inactive)
    1  A    between atoms: N_7  and  C_19
    2  A    between atoms: C_10  and  C_17
    3  A    between atoms: C_20  and  C_29
    4  A    between atoms: C_29  and  C_30
                            x       y       z     vdW  Elec       q    Type
                         _______ _______ _______ _____ _____    ______ ____

>  <TORSDO>
F 4

$$$$
=
 OpenBabel11112416413D

 32 37  0  0  1  0  0  0  0  0999 V2000
  191.5610  175.2610  143.9580 C   0  0  1  0  0  3  0  0  0  0  0  0
  190.0080  173.5500  140.0770 C   0  0  0  0  0  2  0  0  0  0  0  0
  191.4530  173.3620  139.6020 C   0  0  0  0  0  2  0  0  0  0  0  0
  193.9230  176.0430  143.6310 C   0  0  0  0  0  0  0  0  0  0  0  0
  195.2620  175.9540  142.9470 C   0  0  1  0  0  3  0  0  0  0  0  0
  190.1710  175.9650  145.9100 N   0  0  0  0  0  0  0  0  0  0  0  0
  189.4000  174.0050  144.4990 C   0  0  0  0  0  2  0  0  0  0  0  0
  196.8350  174.1400  142.6420 C   0  0  1  0  0  3  0  0  0  0  0  0
  189.9650  174.2080  141.4570 C   0  0  0  0  0  2  0  0  0  0  0  0
  190.7920  173.9450  143.8590 C   0  0  1  0  0  3  0  0  0  0  0  0
  190.7780  173.3690  142.4450 C   0  0  2  0  0  3  0  0  0  0  0  0
  193.2230  174.0300  142.4060 C   0  0  0  0  0  0  0  0  0  0  0  0
  197.5290  175.2580  143.4080 C   0  0  0  0  0  2  0  0  0  0  0  0
  189.0690  175.3750  145.1170 C   0  0  2  0  0  3  0  0  0  0  0  0
  196.4250  176.1980  143.8880 C   0  0  0  0  0  2  0  0  0  0  0  0
  192.2490  172.5560  140.6290 C   0  0  0  0  0  2  0  0  0  0  0  0
  192.1400  173.2080  141.9300 N   0  0  0  0  0  0  0  0  0  0  0  0
  194.4350  173.8040  141.9960 N   0  0  0  0  0  0  0  0  0  0  0  0
  191.5300  175.6500  145.4340 C   0  0  0  0  0  2  0  0  0  0  0  0
  193.6720  177.1450  144.4420 O   0  0  0  0  0  1  0  0  0  0  0  0
  196.8020  172.8930  143.5090 C   0  0  0  0  0  1  0  0  0  0  0  0
  192.9620  175.1220  143.3920 C   0  0  0  0  0  0  0  0  0  0  0  0
  195.4900  174.6280  142.4120 N   0  0  0  0  0  0  0  0  0  0  0  0
  187.4240  175.7750  143.2950 C   0  0  0  0  0  2  0  0  0  0  0  0
  188.6060  176.3530  144.0470 C   0  0  1  0  0  3  0  0  0  0  0  0
  187.2000  176.8180  144.3680 C   0  0  1  0  0  3  0  0  0  0  0  0
  186.9740  178.1720  143.7240 C   0  0  0  0  0  2  0  0  0  0  0  0
  185.7090  178.7700  144.2340 C   0  0  0  0  0  0  0  0  0  0  0  0
  185.5270  180.1460  144.1980 O   0  0  0  0  0  0  0  0  0  0  0  0
  184.8180  178.0310  144.7260 O   0  0  0  0  0  1  0  0  0  0  0  0
  191.4520  175.3010  147.8660 C   0  0  0  0  0  1  0  0  0  0  0  0
  190.0670  175.4610  147.2690 C   0  0  0  0  0  2  0  0  0  0  0  0
  1 19  1  1  0  0  0
  2  9  1  0  0  0  0
  3  2  1  0  0  0  0
  3 16  1  0  0  0  0
  4 20  1  0  0  0  0
  5  4  1  0  0  0  0
  5 15  1  1  0  0  0
  6 32  1  0  0  0  0
  8 13  1  0  0  0  0
  8 21  1  1  0  0  0
 10  1  1  0  0  0  0
 10  7  1  6  0  0  0
 11  9  1  6  0  0  0
 11 10  1  0  0  0  0
 12 22  1  0  0  0  0
 13 15  1  0  0  0  0
 14  7  1  6  0  0  0
 14  6  1  0  0  0  0
 16 17  1  0  0  0  0
 17 12  1  0  0  0  0
 17 11  1  0  0  0  0
 18 12  2  0  0  0  0
 18 23  1  0  0  0  0
 19  6  1  0  0  0  0
 22  4  2  0  0  0  0
 22  1  1  0  0  0  0
 23  8  1  0  0  0  0
 23  5  1  0  0  0  0
 24 26  1  0  0  0  0
 25 24  1  6  0  0  0
 25 26  1  0  0  0  0
 25 14  1  0  0  0  0
 26 27  1  6  0  0  0
 27 28  1  0  0  0  0
 28 30  1  0  0  0  0
 29 28  2  0  0  0  0
 32 31  1  0  0  0  0
M  END
>  <MODEL>
8

>  <REMARK>
 VINA RESULT:      -6.6      2.672      4.907
  Name = 
  4 active torsions:
  status: ('A' for Active; 'I' for Inactive)
    1  A    between atoms: N_7  and  C_19
    2  A    between atoms: C_10  and  C_17
    3  A    between atoms: C_20  and  C_29
    4  A    between atoms: C_29  and  C_30
                            x       y       z     vdW  Elec       q    Type
                         _______ _______ _______ _____ _____    ______ ____

>  <TORSDO>
F 4

$$$$
=
 OpenBabel11112416413D

 32 37  0  0  1  0  0  0  0  0999 V2000
  191.1400  175.1880  143.1190 C   0  0  1  0  0  3  0  0  0  0  0  0
  194.5090  175.9570  146.0270 C   0  0  0  0  0  2  0  0  0  0  0  0
  193.5540  176.7910  146.8870 C   0  0  0  0  0  2  0  0  0  0  0  0
  189.3620  176.9330  143.4320 C   0  0  0  0  0  0  0  0  0  0  0  0
  188.6130  177.9160  144.2920 C   0  0  1  0  0  3  0  0  0  0  0  0
  191.2580  173.7410  141.0870 N   0  0  0  0  0  0  0  0  0  0  0  0
  192.6170  173.1010  143.1290 C   0  0  0  0  0  2  0  0  0  0  0  0
  187.4100  177.6900  146.3800 C   0  0  1  0  0  3  0  0  0  0  0  0
  193.8110  175.4500  144.7640 C   0  0  0  0  0  2  0  0  0  0  0  0
  191.8000  174.0970  143.9600 C   0  0  1  0  0  3  0  0  0  0  0  0
  192.5670  174.6520  145.1580 C   0  0  2  0  0  3  0  0  0  0  0  0
  190.5610  176.1720  145.4390 C   0  0  0  0  0  0  0  0  0  0  0  0
  186.4430  178.1920  145.3170 C   0  0  0  0  0  2  0  0  0  0  0  0
  192.5960  173.4010  141.6200 C   0  0  2  0  0  3  0  0  0  0  0  0
  187.1320  177.9730  143.9720 C   0  0  0  0  0  2  0  0  0  0  0  0
  192.3030  175.9800  147.2290 C   0  0  0  0  0  2  0  0  0  0  0  0
  191.7030  175.4910  145.9930 N   0  0  0  0  0  0  0  0  0  0  0  0
  189.7630  176.8350  146.2220 N   0  0  0  0  0  0  0  0  0  0  0  0
  190.3710  174.4570  142.0210 C   0  0  0  0  0  2  0  0  0  0  0  0
  189.1620  176.9760  142.0560 O   0  0  0  0  0  1  0  0  0  0  0  0
  186.9280  176.3420  146.8890 C   0  0  0  0  0  1  0  0  0  0  0  0
  190.2720  176.0910  143.9750 C   0  0  0  0  0  0  0  0  0  0  0  0
  188.6750  177.5440  145.6900 N   0  0  0  0  0  0  0  0  0  0  0  0
  194.9960  174.0560  141.6560 C   0  0  0  0  0  2  0  0  0  0  0  0
  193.5970  174.4940  141.2720 C   0  0  1  0  0  3  0  0  0  0  0  0
  194.5510  173.9810  140.2120 C   0  0  1  0  0  3  0  0  0  0  0  0
  195.1100  175.1630  139.4440 C   0  0  0  0  0  2  0  0  0  0  0  0
  196.5710  174.9770  139.2230 C   0  0  0  0  0  0  0  0  0  0  0  0
  197.4720  175.9150  139.7090 O   0  0  0  0  0  1  0  0  0  0  0  0
  196.9860  173.9870  138.5670 O   0  0  0  0  0  0  0  0  0  0  0  0
  189.3290  172.3390  141.5590 C   0  0  0  0  0  1  0  0  0  0  0  0
  190.5890  172.5010  140.7290 C   0  0  0  0  0  2  0  0  0  0  0  0
  1 19  1  6  0  0  0
  1 10  1  0  0  0  0
  1 22  1  0  0  0  0
  2  3  1  0  0  0  0
  3 16  1  0  0  0  0
  4 22  2  0  0  0  0
  4  5  1  0  0  0  0
  5 15  1  6  0  0  0
  5 23  1  0  0  0  0
  6 14  1  0  0  0  0
  6 19  1  0  0  0  0
  8 21  1  6  0  0  0
  9  2  1  0  0  0  0
 10  7  1  6  0  0  0
 10 11  1  0  0  0  0
 11  9  1  6  0  0  0
 11 17  1  0  0  0  0
 12 17  1  0  0  0  0
 12 18  2  0  0  0  0
 13  8  1  0  0  0  0
 14  7  1  1  0  0  0
 15 13  1  0  0  0  0
 17 16  1  0  0  0  0
 20  4  1  0  0  0  0
 22 12  1  0  0  0  0
 23 18  1  0  0  0  0
 23  8  1  0  0  0  0
 25 14  1  0  0  0  0
 25 24  1  1  0  0  0
 26 27  1  6  0  0  0
 26 25  1  0  0  0  0
 26 24  1  0  0  0  0
 28 27  1  0  0  0  0
 28 29  1  0  0  0  0
 30 28  2  0  0  0  0
 32  6  1  0  0  0  0
 32 31  1  0  0  0  0
M  END
>  <MODEL>
9

>  <REMARK>
 VINA RESULT:      -6.5      3.311      7.669
  Name = 
  4 active torsions:
  status: ('A' for Active; 'I' for Inactive)
    1  A    between atoms: N_7  and  C_19
    2  A    between atoms: C_10  and  C_17
    3  A    between atoms: C_20  and  C_29
    4  A    between atoms: C_29  and  C_30
                            x       y       z     vdW  Elec       q    Type
                         _______ _______ _______ _____ _____    ______ ____

>  <TORSDO>
F 4

$$$$
