=
 OpenBabel11112417143D

 37 42  0  0  1  0  0  0  0  0999 V2000
  194.7490  175.6950  144.4410 C   0  0  0  0  0  0  0  0  0  0  0  0
  190.7780  175.8530  145.7360 C   0  0  0  0  0  0  0  0  0  0  0  0
  189.2470  177.9870  144.3130 C   0  0  0  0  0  1  0  0  0  0  0  0
  193.0740  176.2260  146.2950 C   0  0  0  0  0  0  0  0  0  0  0  0
  189.9620  175.5510  144.5190 C   0  0  1  0  0  3  0  0  0  0  0  0
  192.0920  175.8230  145.4080 C   0  0  0  0  0  0  0  0  0  0  0  0
  188.7940  176.5270  144.3300 C   0  0  1  0  0  3  0  0  0  0  0  0
  192.6930  176.6410  147.5400 N   0  0  0  0  0  0  0  0  0  0  0  0
  192.3160  175.5830  144.0430 N   0  0  0  0  0  0  0  0  0  0  0  0
  194.9550  174.2060  144.6570 C   0  0  0  0  0  1  0  0  0  0  0  0
  188.9240  176.5870  147.2860 C   0  0  0  0  0  2  0  0  0  0  0  0
  191.3710  176.6860  147.9030 C   0  0  0  0  0  3  0  0  0  0  0  0
  193.5990  175.9200  143.4340 C   0  0  0  0  0  2  0  0  0  0  0  0
  190.3670  176.2960  146.9960 C   0  0  0  0  0  0  0  0  0  0  0  0
  191.0130  175.5840  143.3710 C   0  0  1  0  0  3  0  0  0  0  0  0
  194.4880  176.3840  145.8030 C   0  0  0  0  0  2  0  0  0  0  0  0
  187.6830  176.2480  145.3710 C   0  0  1  0  0  3  0  0  0  0  0  0
  196.0210  176.2670  143.8510 C   0  0  0  0  0  1  0  0  0  0  0  0
  188.0770  175.6880  146.6130 O   0  0  0  0  0  0  0  0  0  0  0  0
  190.3110  173.1540  143.1030 C   0  0  0  0  0  2  0  0  0  0  0  0
  190.4410  171.9360  142.2370 C   0  0  0  0  0  0  0  0  0  0  0  0
  188.8580  172.7360  140.5280 C   0  0  0  0  0  0  0  0  0  0  0  0
  189.7550  171.7930  141.1390 N   0  0  0  0  0  0  0  0  0  0  0  0
  188.7710  174.1780  140.9330 C   0  0  1  0  0  3  0  0  0  0  0  0
  187.9500  174.3460  142.0340 F   0  0  0  0  0  0  0  0  0  0  0  0
  190.1500  174.8120  141.1320 C   0  0  0  0  0  2  0  0  0  0  0  0
  188.1160  172.3420  139.5910 O   0  0  0  0  0  0  0  0  0  0  0  0
  190.8860  174.3950  142.4160 C   0  0  1  0  0  3  0  0  0  0  0  0
  192.1060  170.9240  143.8520 C   0  0  0  0  0  1  0  0  0  0  0  0
  191.3070  170.8730  142.6390 N   0  0  0  0  0  2  0  0  0  0  0  0
  185.4340  176.9770  146.2750 C   0  0  0  0  0  3  0  0  0  0  0  0
  186.5360  177.2140  145.4410 C   0  0  0  0  0  0  0  0  0  0  0  0
  186.5830  178.3840  144.6740 C   0  0  0  0  0  3  0  0  0  0  0  0
  185.5830  180.4350  143.9860 F   0  0  0  0  0  0  0  0  0  0  0  0
  184.4350  179.0640  145.5620 C   0  0  0  0  0  3  0  0  0  0  0  0
  185.5340  179.3060  144.7330 C   0  0  0  0  0  0  0  0  0  0  0  0
  184.3860  177.8990  146.3340 C   0  0  0  0  0  3  0  0  0  0  0  0
  1 10  1  0  0  0  0
  1 16  1  0  0  0  0
  2 14  1  0  0  0  0
  4  8  2  0  0  0  0
  5  2  1  1  0  0  0
  6  2  2  0  0  0  0
  6  4  1  0  0  0  0
  7  3  1  1  0  0  0
  7  5  1  0  0  0  0
  7 17  1  0  0  0  0
  8 12  1  0  0  0  0
  9  6  1  0  0  0  0
 13  9  1  0  0  0  0
 13  1  1  0  0  0  0
 14 11  1  0  0  0  0
 14 12  2  0  0  0  0
 15  9  1  1  0  0  0
 15  5  1  0  0  0  0
 16  4  1  0  0  0  0
 17 32  1  1  0  0  0
 17 19  1  0  0  0  0
 18  1  1  0  0  0  0
 19 11  1  0  0  0  0
 21 30  1  0  0  0  0
 21 20  1  0  0  0  0
 22 24  1  0  0  0  0
 22 23  1  0  0  0  0
 23 21  2  0  0  0  0
 24 26  1  0  0  0  0
 24 25  1  1  0  0  0
 27 22  2  0  0  0  0
 28 26  1  6  0  0  0
 28 20  1  0  0  0  0
 28 15  1  0  0  0  0
 30 29  1  0  0  0  0
 31 37  1  0  0  0  0
 32 31  2  0  0  0  0
 33 36  2  0  0  0  0
 33 32  1  0  0  0  0
 34 36  1  0  0  0  0
 35 37  2  0  0  0  0
 36 35  1  0  0  0  0
M  END
>  <MODEL>
1

>  <REMARK>
 VINA RESULT:     -10.2      0.000      0.000
  Name = 
  2 active torsions:
  status: ('A' for Active; 'I' for Inactive)
    1  A    between atoms: C_21  and  C_27
    2  A    between atoms: C_23  and  C_30
                            x       y       z     vdW  Elec       q    Type
                         _______ _______ _______ _____ _____    ______ ____

>  <TORSDO>
F 2

$$$$
=
 OpenBabel11112417143D

 37 42  0  0  1  0  0  0  0  0999 V2000
  194.8450  175.7350  144.0850 C   0  0  0  0  0  0  0  0  0  0  0  0
  190.9150  175.8410  145.5050 C   0  0  0  0  0  0  0  0  0  0  0  0
  189.3250  177.9870  144.1690 C   0  0  0  0  0  1  0  0  0  0  0  0
  193.2250  176.2210  145.9990 C   0  0  0  0  0  0  0  0  0  0  0  0
  190.0630  175.5530  144.3090 C   0  0  1  0  0  3  0  0  0  0  0  0
  192.2190  175.8260  145.1360 C   0  0  0  0  0  0  0  0  0  0  0  0
  188.8840  176.5230  144.1750 C   0  0  1  0  0  3  0  0  0  0  0  0
  192.8800  176.6110  147.2620 N   0  0  0  0  0  0  0  0  0  0  0  0
  192.4010  175.6110  143.7610 N   0  0  0  0  0  0  0  0  0  0  0  0
  195.0680  174.2440  144.2680 C   0  0  0  0  0  1  0  0  0  0  0  0
  189.1060  176.5330  147.1250 C   0  0  0  0  0  2  0  0  0  0  0  0
  191.5700  176.6400  147.6680 C   0  0  0  0  0  3  0  0  0  0  0  0
  193.6630  175.9690  143.1180 C   0  0  0  0  0  2  0  0  0  0  0  0
  190.5400  176.2580  146.7850 C   0  0  0  0  0  0  0  0  0  0  0  0
  191.0780  175.6140  143.1300 C   0  0  1  0  0  3  0  0  0  0  0  0
  194.6210  176.3980  145.4670 C   0  0  0  0  0  2  0  0  0  0  0  0
  187.8070  176.2170  145.2440 C   0  0  1  0  0  3  0  0  0  0  0  0
  196.0940  176.3270  143.4650 C   0  0  0  0  0  1  0  0  0  0  0  0
  188.2450  175.6390  146.4630 O   0  0  0  0  0  0  0  0  0  0  0  0
  192.2790  173.8430  141.7560 C   0  0  0  0  0  2  0  0  0  0  0  0
  192.1360  172.8820  140.6120 C   0  0  0  0  0  0  0  0  0  0  0  0
  190.8550  171.2220  141.9050 C   0  0  0  0  0  0  0  0  0  0  0  0
  191.5330  171.7360  140.7450 N   0  0  0  0  0  0  0  0  0  0  0  0
  190.5000  172.0630  143.0950 C   0  0  1  0  0  3  0  0  0  0  0  0
  191.5700  172.1840  143.9650 F   0  0  0  0  0  0  0  0  0  0  0  0
  189.9150  173.4200  142.6980 C   0  0  0  0  0  2  0  0  0  0  0  0
  190.5230  170.0090  141.9200 O   0  0  0  0  0  0  0  0  0  0  0  0
  190.9300  174.4410  142.1580 C   0  0  1  0  0  3  0  0  0  0  0  0
  193.4210  174.4470  139.0940 C   0  0  0  0  0  1  0  0  0  0  0  0
  192.7130  173.2030  139.3450 N   0  0  0  0  0  2  0  0  0  0  0  0
  185.5990  176.9300  146.2550 C   0  0  0  0  0  3  0  0  0  0  0  0
  186.6570  177.1740  145.3670 C   0  0  0  0  0  0  0  0  0  0  0  0
  186.6550  178.3400  144.5940 C   0  0  0  0  0  3  0  0  0  0  0  0
  185.6030  180.3800  143.9490 F   0  0  0  0  0  0  0  0  0  0  0  0
  184.5470  179.0040  145.5850 C   0  0  0  0  0  3  0  0  0  0  0  0
  185.6010  179.2530  144.7010 C   0  0  0  0  0  0  0  0  0  0  0  0
  184.5460  177.8430  146.3620 C   0  0  0  0  0  3  0  0  0  0  0  0
  1 10  1  0  0  0  0
  1 16  1  0  0  0  0
  2 14  1  0  0  0  0
  4  8  2  0  0  0  0
  5  2  1  1  0  0  0
  6  2  2  0  0  0  0
  6  4  1  0  0  0  0
  7  3  1  1  0  0  0
  7  5  1  0  0  0  0
  7 17  1  0  0  0  0
  8 12  1  0  0  0  0
  9  6  1  0  0  0  0
 13  9  1  0  0  0  0
 13  1  1  0  0  0  0
 14 11  1  0  0  0  0
 14 12  2  0  0  0  0
 15  9  1  1  0  0  0
 15  5  1  0  0  0  0
 16  4  1  0  0  0  0
 17 32  1  1  0  0  0
 17 19  1  0  0  0  0
 18  1  1  0  0  0  0
 19 11  1  0  0  0  0
 21 23  2  0  0  0  0
 21 20  1  0  0  0  0
 22 27  2  0  0  0  0
 22 24  1  0  0  0  0
 23 22  1  0  0  0  0
 24 25  1  6  0  0  0
 26 24  1  0  0  0  0
 28 20  1  1  0  0  0
 28 26  1  0  0  0  0
 28 15  1  0  0  0  0
 29 30  1  0  0  0  0
 30 21  1  0  0  0  0
 31 37  1  0  0  0  0
 32 31  2  0  0  0  0
 33 36  2  0  0  0  0
 33 32  1  0  0  0  0
 34 36  1  0  0  0  0
 35 37  2  0  0  0  0
 36 35  1  0  0  0  0
M  END
>  <MODEL>
2

>  <REMARK>
 VINA RESULT:      -9.4      1.500      1.915
  Name = 
  2 active torsions:
  status: ('A' for Active; 'I' for Inactive)
    1  A    between atoms: C_21  and  C_27
    2  A    between atoms: C_23  and  C_30
                            x       y       z     vdW  Elec       q    Type
                         _______ _______ _______ _____ _____    ______ ____

>  <TORSDO>
F 2

$$$$
=
 OpenBabel11112417143D

 37 42  0  0  1  0  0  0  0  0999 V2000
  195.7120  175.7510  142.9930 C   0  0  0  0  0  0  0  0  0  0  0  0
  192.1090  175.5180  145.1010 C   0  0  0  0  0  0  0  0  0  0  0  0
  190.0240  177.2920  143.9060 C   0  0  0  0  0  1  0  0  0  0  0  0
  194.3910  176.2360  145.1260 C   0  0  0  0  0  0  0  0  0  0  0  0
  191.1150  174.9990  144.1110 C   0  0  1  0  0  3  0  0  0  0  0  0
  193.3190  175.6270  144.5000 C   0  0  0  0  0  0  0  0  0  0  0  0
  189.8040  175.7940  144.1160 C   0  0  1  0  0  3  0  0  0  0  0  0
  194.2170  176.7140  146.3940 N   0  0  0  0  0  0  0  0  0  0  0  0
  193.2910  175.2890  143.1380 N   0  0  0  0  0  0  0  0  0  0  0  0
  196.1720  174.3280  143.2570 C   0  0  0  0  0  1  0  0  0  0  0  0
  190.5250  176.1510  146.9630 C   0  0  0  0  0  2  0  0  0  0  0  0
  193.0050  176.6220  147.0310 C   0  0  0  0  0  3  0  0  0  0  0  0
  194.3600  175.7290  142.2450 C   0  0  0  0  0  2  0  0  0  0  0  0
  191.9040  176.0220  146.3880 C   0  0  0  0  0  0  0  0  0  0  0  0
  191.8930  175.0580  142.7640 C   0  0  1  0  0  3  0  0  0  0  0  0
  195.6370  176.5270  144.3320 C   0  0  0  0  0  2  0  0  0  0  0  0
  188.9810  175.4740  145.3880 C   0  0  1  0  0  3  0  0  0  0  0  0
  196.7380  176.4240  142.1060 C   0  0  0  0  0  1  0  0  0  0  0  0
  189.6990  175.0900  146.5490 O   0  0  0  0  0  0  0  0  0  0  0  0
  190.9900  172.6820  142.6920 C   0  0  0  0  0  2  0  0  0  0  0  0
  191.0890  171.3610  141.9860 C   0  0  0  0  0  0  0  0  0  0  0  0
  189.7690  172.0790  140.0340 C   0  0  0  0  0  0  0  0  0  0  0  0
  190.5050  171.1450  140.8420 N   0  0  0  0  0  0  0  0  0  0  0  0
  189.7820  173.5610  140.2640 C   0  0  1  0  0  3  0  0  0  0  0  0
  188.8740  173.9290  141.2420 F   0  0  0  0  0  0  0  0  0  0  0  0
  191.1890  174.0960  140.5430 C   0  0  0  0  0  2  0  0  0  0  0  0
  189.0910  171.6380  139.0700 O   0  0  0  0  0  0  0  0  0  0  0  0
  191.7480  173.7770  141.9390 C   0  0  1  0  0  3  0  0  0  0  0  0
  192.4770  170.4150  143.8790 C   0  0  0  0  0  1  0  0  0  0  0  0
  191.8040  170.2860  142.5980 N   0  0  0  0  0  2  0  0  0  0  0  0
  186.9260  176.7130  144.5850 C   0  0  0  0  0  3  0  0  0  0  0  0
  187.7450  176.2870  145.6400 C   0  0  0  0  0  0  0  0  0  0  0  0
  187.3960  176.6050  146.9580 C   0  0  0  0  0  3  0  0  0  0  0  0
  185.9080  177.6560  148.4960 F   0  0  0  0  0  0  0  0  0  0  0  0
  185.4300  177.7750  146.1630 C   0  0  0  0  0  3  0  0  0  0  0  0
  186.2410  177.3490  147.2190 C   0  0  0  0  0  0  0  0  0  0  0  0
  185.7720  177.4560  144.8460 C   0  0  0  0  0  3  0  0  0  0  0  0
  1 10  1  0  0  0  0
  1 16  1  0  0  0  0
  2 14  1  0  0  0  0
  4  8  2  0  0  0  0
  5  7  1  0  0  0  0
  5  2  1  1  0  0  0
  6  2  2  0  0  0  0
  6  4  1  0  0  0  0
  7  3  1  1  0  0  0
  7 17  1  0  0  0  0
  8 12  1  0  0  0  0
  9  6  1  0  0  0  0
 13  1  1  0  0  0  0
 13  9  1  0  0  0  0
 14 11  1  0  0  0  0
 14 12  2  0  0  0  0
 15  9  1  1  0  0  0
 15  5  1  0  0  0  0
 16  4  1  0  0  0  0
 17 32  1  1  0  0  0
 17 19  1  0  0  0  0
 18  1  1  0  0  0  0
 19 11  1  0  0  0  0
 21 30  1  0  0  0  0
 21 20  1  0  0  0  0
 22 24  1  0  0  0  0
 22 23  1  0  0  0  0
 23 21  2  0  0  0  0
 24 26  1  0  0  0  0
 24 25  1  1  0  0  0
 27 22  2  0  0  0  0
 28 26  1  6  0  0  0
 28 20  1  0  0  0  0
 28 15  1  0  0  0  0
 30 29  1  0  0  0  0
 31 37  2  0  0  0  0
 31 32  1  0  0  0  0
 32 33  2  0  0  0  0
 33 36  1  0  0  0  0
 35 36  2  0  0  0  0
 36 34  1  0  0  0  0
 37 35  1  0  0  0  0
M  END
>  <MODEL>
3

>  <REMARK>
 VINA RESULT:      -9.3      1.460      1.843
  Name = 
  2 active torsions:
  status: ('A' for Active; 'I' for Inactive)
    1  A    between atoms: C_21  and  C_27
    2  A    between atoms: C_23  and  C_30
                            x       y       z     vdW  Elec       q    Type
                         _______ _______ _______ _____ _____    ______ ____

>  <TORSDO>
F 2

$$$$
=
 OpenBabel11112417143D

 37 42  0  0  1  0  0  0  0  0999 V2000
  192.2150  170.6420  142.7340 C   0  0  0  0  0  0  0  0  0  0  0  0
  190.0420  174.2050  142.9870 C   0  0  0  0  0  0  0  0  0  0  0  0
  188.9700  174.6400  145.7410 C   0  0  0  0  0  1  0  0  0  0  0  0
  190.1360  171.9860  142.0980 C   0  0  0  0  0  0  0  0  0  0  0  0
  190.7780  175.0360  143.9910 C   0  0  1  0  0  3  0  0  0  0  0  0
  190.6810  173.0190  142.8390 C   0  0  0  0  0  0  0  0  0  0  0  0
  189.8470  175.6710  145.0310 C   0  0  1  0  0  3  0  0  0  0  0  0
  188.9320  172.1900  141.4870 N   0  0  0  0  0  0  0  0  0  0  0  0
  191.7910  172.8800  143.6870 N   0  0  0  0  0  0  0  0  0  0  0  0
  193.1890  171.0970  141.6620 C   0  0  0  0  0  1  0  0  0  0  0  0
  187.9600  175.6140  142.7520 C   0  0  0  0  0  2  0  0  0  0  0  0
  188.2570  173.3780  141.6190 C   0  0  0  0  0  3  0  0  0  0  0  0
  192.3410  171.5580  143.9720 C   0  0  0  0  0  2  0  0  0  0  0  0
  188.7980  174.4250  142.3890 C   0  0  0  0  0  0  0  0  0  0  0  0
  191.8130  174.0370  144.5850 C   0  0  1  0  0  3  0  0  0  0  0  0
  190.7780  170.6260  142.1530 C   0  0  0  0  0  2  0  0  0  0  0  0
  189.0340  176.8260  144.3960 C   0  0  1  0  0  3  0  0  0  0  0  0
  192.5830  169.2320  143.1420 C   0  0  0  0  0  1  0  0  0  0  0  0
  188.7590  176.7440  143.0070 O   0  0  0  0  0  0  0  0  0  0  0  0
  193.6570  175.3130  143.3840 C   0  0  0  0  0  2  0  0  0  0  0  0
  195.1190  175.6490  143.4030 C   0  0  0  0  0  0  0  0  0  0  0  0
  194.9120  177.3350  145.1870 C   0  0  0  0  0  0  0  0  0  0  0  0
  195.6050  176.5670  144.1890 N   0  0  0  0  0  0  0  0  0  0  0  0
  193.5330  177.0050  145.6750 C   0  0  1  0  0  3  0  0  0  0  0  0
  192.5620  177.5140  144.8310 F   0  0  0  0  0  0  0  0  0  0  0  0
  193.3500  175.5080  145.9380 C   0  0  0  0  0  2  0  0  0  0  0  0
  195.4950  178.3280  145.6950 O   0  0  0  0  0  0  0  0  0  0  0  0
  193.2210  174.6310  144.6830 C   0  0  1  0  0  3  0  0  0  0  0  0
  195.5670  173.9540  141.5790 C   0  0  0  0  0  1  0  0  0  0  0  0
  196.0090  174.9820  142.5070 N   0  0  0  0  0  2  0  0  0  0  0  0
  187.9190  177.2960  146.6180 C   0  0  0  0  0  3  0  0  0  0  0  0
  187.9520  177.4540  145.2250 C   0  0  0  0  0  0  0  0  0  0  0  0
  186.9720  178.2270  144.5940 C   0  0  0  0  0  3  0  0  0  0  0  0
  185.0140  179.5800  144.7310 F   0  0  0  0  0  0  0  0  0  0  0  0
  185.9300  178.6710  146.7350 C   0  0  0  0  0  3  0  0  0  0  0  0
  185.9610  178.8340  145.3470 C   0  0  0  0  0  0  0  0  0  0  0  0
  186.9100  177.9020  147.3710 C   0  0  0  0  0  3  0  0  0  0  0  0
  1 18  1  0  0  0  0
  1 13  1  0  0  0  0
  4 16  1  0  0  0  0
  4  6  2  0  0  0  0
  5  2  1  6  0  0  0
  5 15  1  0  0  0  0
  5  7  1  0  0  0  0
  6  2  1  0  0  0  0
  6  9  1  0  0  0  0
  7  3  1  6  0  0  0
  8 12  2  0  0  0  0
  8  4  1  0  0  0  0
  9 13  1  0  0  0  0
 10  1  1  0  0  0  0
 11 19  1  0  0  0  0
 12 14  1  0  0  0  0
 14 11  1  0  0  0  0
 14  2  2  0  0  0  0
 15  9  1  6  0  0  0
 15 28  1  0  0  0  0
 16  1  1  0  0  0  0
 17  7  1  0  0  0  0
 17 32  1  1  0  0  0
 19 17  1  0  0  0  0
 20 21  1  0  0  0  0
 21 23  2  0  0  0  0
 22 24  1  0  0  0  0
 22 27  2  0  0  0  0
 23 22  1  0  0  0  0
 24 25  1  6  0  0  0
 24 26  1  0  0  0  0
 28 20  1  6  0  0  0
 28 26  1  0  0  0  0
 29 30  1  0  0  0  0
 30 21  1  0  0  0  0
 31 37  1  0  0  0  0
 32 31  2  0  0  0  0
 33 32  1  0  0  0  0
 33 36  2  0  0  0  0
 34 36  1  0  0  0  0
 35 37  2  0  0  0  0
 36 35  1  0  0  0  0
M  END
>  <MODEL>
4

>  <REMARK>
 VINA RESULT:      -9.0      2.401      5.324
  Name = 
  2 active torsions:
  status: ('A' for Active; 'I' for Inactive)
    1  A    between atoms: C_21  and  C_27
    2  A    between atoms: C_23  and  C_30
                            x       y       z     vdW  Elec       q    Type
                         _______ _______ _______ _____ _____    ______ ____

>  <TORSDO>
F 2

$$$$
=
 OpenBabel11112417143D

 37 42  0  0  1  0  0  0  0  0999 V2000
  193.6750  175.6540  145.3940 C   0  0  0  0  0  0  0  0  0  0  0  0
  189.5840  175.8400  144.5560 C   0  0  0  0  0  0  0  0  0  0  0  0
  189.0140  177.6960  142.2870 C   0  0  0  0  0  1  0  0  0  0  0  0
  191.3290  176.3730  146.1040 C   0  0  0  0  0  0  0  0  0  0  0  0
  189.4540  175.3400  143.1520 C   0  0  1  0  0  3  0  0  0  0  0  0
  190.8900  175.8140  144.9170 C   0  0  0  0  0  0  0  0  0  0  0  0
  188.5600  176.2360  142.2860 C   0  0  1  0  0  3  0  0  0  0  0  0
  190.4050  176.9420  146.9340 N   0  0  0  0  0  0  0  0  0  0  0  0
  191.7410  175.3950  143.8830 N   0  0  0  0  0  0  0  0  0  0  0  0
  193.6970  174.2180  145.8880 C   0  0  0  0  0  1  0  0  0  0  0  0
  187.2370  176.7110  144.8890 C   0  0  0  0  0  2  0  0  0  0  0  0
  189.0750  176.9870  146.5980 C   0  0  0  0  0  3  0  0  0  0  0  0
  193.1690  175.6930  143.9350 C   0  0  0  0  0  2  0  0  0  0  0  0
  188.6270  176.4370  145.3810 C   0  0  0  0  0  0  0  0  0  0  0  0
  190.9310  175.2540  142.6690 C   0  0  1  0  0  3  0  0  0  0  0  0
  192.8080  176.5150  146.3460 C   0  0  0  0  0  2  0  0  0  0  0  0
  187.0740  176.0620  142.6810 C   0  0  1  0  0  3  0  0  0  0  0  0
  195.0920  176.1860  145.4240 C   0  0  0  0  0  1  0  0  0  0  0  0
  186.7940  175.6950  144.0220 O   0  0  0  0  0  0  0  0  0  0  0  0
  190.6800  172.7230  142.6870 C   0  0  0  0  0  2  0  0  0  0  0  0
  191.2160  171.4410  142.1210 C   0  0  0  0  0  0  0  0  0  0  0  0
  190.0770  171.6870  139.9520 C   0  0  0  0  0  0  0  0  0  0  0  0
  190.8900  171.0210  140.9330 N   0  0  0  0  0  0  0  0  0  0  0  0
  189.6800  173.1300  140.0480 C   0  0  1  0  0  3  0  0  0  0  0  0
  188.5680  173.2960  140.8560 F   0  0  0  0  0  0  0  0  0  0  0  0
  190.8450  174.0290  140.4680 C   0  0  0  0  0  2  0  0  0  0  0  0
  189.6890  171.0340  138.9470 O   0  0  0  0  0  0  0  0  0  0  0  0
  191.2440  173.9390  141.9490 C   0  0  1  0  0  3  0  0  0  0  0  0
  192.4880  170.9900  144.2630 C   0  0  0  0  0  1  0  0  0  0  0  0
  192.0760  170.6230  142.9180 N   0  0  0  0  0  2  0  0  0  0  0  0
  186.1900  177.3770  140.7080 C   0  0  0  0  0  3  0  0  0  0  0  0
  186.0720  176.9840  142.0490 C   0  0  0  0  0  0  0  0  0  0  0  0
  184.9910  177.4420  142.8110 C   0  0  0  0  0  3  0  0  0  0  0  0
  182.9940  178.7320  142.9820 F   0  0  0  0  0  0  0  0  0  0  0  0
  184.1610  178.6830  140.9040 C   0  0  0  0  0  3  0  0  0  0  0  0
  184.0380  178.2910  142.2400 C   0  0  0  0  0  0  0  0  0  0  0  0
  185.2370  178.2260  140.1380 C   0  0  0  0  0  3  0  0  0  0  0  0
  1 18  1  0  0  0  0
  1 10  1  0  0  0  0
  1 16  1  0  0  0  0
  2  6  2  0  0  0  0
  2 14  1  0  0  0  0
  4 16  1  0  0  0  0
  4  8  2  0  0  0  0
  5  2  1  1  0  0  0
  6  4  1  0  0  0  0
  7  3  1  1  0  0  0
  7 17  1  0  0  0  0
  7  5  1  0  0  0  0
  9 13  1  0  0  0  0
  9  6  1  0  0  0  0
 11 14  1  0  0  0  0
 12  8  1  0  0  0  0
 13  1  1  0  0  0  0
 14 12  2  0  0  0  0
 15  5  1  0  0  0  0
 15  9  1  1  0  0  0
 17 32  1  1  0  0  0
 17 19  1  0  0  0  0
 19 11  1  0  0  0  0
 21 20  1  0  0  0  0
 21 30  1  0  0  0  0
 22 24  1  0  0  0  0
 22 23  1  0  0  0  0
 23 21  2  0  0  0  0
 24 26  1  0  0  0  0
 24 25  1  1  0  0  0
 27 22  2  0  0  0  0
 28 26  1  6  0  0  0
 28 15  1  0  0  0  0
 28 20  1  0  0  0  0
 30 29  1  0  0  0  0
 31 32  1  0  0  0  0
 32 33  2  0  0  0  0
 35 36  2  0  0  0  0
 36 33  1  0  0  0  0
 36 34  1  0  0  0  0
 37 31  2  0  0  0  0
 37 35  1  0  0  0  0
M  END
>  <MODEL>
5

>  <REMARK>
 VINA RESULT:      -9.0      2.023      2.469
  Name = 
  2 active torsions:
  status: ('A' for Active; 'I' for Inactive)
    1  A    between atoms: C_21  and  C_27
    2  A    between atoms: C_23  and  C_30
                            x       y       z     vdW  Elec       q    Type
                         _______ _______ _______ _____ _____    ______ ____

>  <TORSDO>
F 2

$$$$
=
 OpenBabel11112417143D

 37 42  0  0  1  0  0  0  0  0999 V2000
  191.1070  171.4430  140.9370 C   0  0  0  0  0  0  0  0  0  0  0  0
  189.3410  175.1660  141.6440 C   0  0  0  0  0  0  0  0  0  0  0  0
  187.7490  175.1610  144.1720 C   0  0  0  0  0  1  0  0  0  0  0  0
  189.3800  173.2060  140.2740 C   0  0  0  0  0  0  0  0  0  0  0  0
  189.9280  175.6330  142.9390 C   0  0  1  0  0  3  0  0  0  0  0  0
  189.8610  173.9540  141.3320 C   0  0  0  0  0  0  0  0  0  0  0  0
  188.8690  176.1680  143.9110 C   0  0  1  0  0  3  0  0  0  0  0  0
  188.3680  173.7260  139.5180 N   0  0  0  0  0  0  0  0  0  0  0  0
  190.7370  173.4600  142.3120 N   0  0  0  0  0  0  0  0  0  0  0  0
  192.3360  171.9580  140.2100 C   0  0  0  0  0  1  0  0  0  0  0  0
  187.5300  176.9060  141.3770 C   0  0  0  0  0  2  0  0  0  0  0  0
  187.8170  174.9490  139.8070 C   0  0  0  0  0  3  0  0  0  0  0  0
  191.0610  172.0370  142.3630 C   0  0  0  0  0  2  0  0  0  0  0  0
  188.2900  175.7050  140.8970 C   0  0  0  0  0  0  0  0  0  0  0  0
  190.6910  174.3770  143.4540 C   0  0  1  0  0  3  0  0  0  0  0  0
  189.8390  171.7810  140.1130 C   0  0  0  0  0  2  0  0  0  0  0  0
  188.3480  177.5470  143.4370 C   0  0  1  0  0  3  0  0  0  0  0  0
  191.2190  169.9380  141.0490 C   0  0  0  0  0  1  0  0  0  0  0  0
  188.3750  177.8110  142.0440 O   0  0  0  0  0  0  0  0  0  0  0  0
  192.7150  175.9010  143.2230 C   0  0  0  0  0  2  0  0  0  0  0  0
  194.1770  176.0400  143.5300 C   0  0  0  0  0  0  0  0  0  0  0  0
  193.8310  176.6140  145.9000 C   0  0  0  0  0  0  0  0  0  0  0  0
  194.6050  176.3880  144.7090 N   0  0  0  0  0  0  0  0  0  0  0  0
  192.3910  176.2170  146.0380 C   0  0  1  0  0  3  0  0  0  0  0  0
  191.5480  177.1710  145.4950 F   0  0  0  0  0  0  0  0  0  0  0  0
  192.1170  174.8150  145.4860 C   0  0  0  0  0  2  0  0  0  0  0  0
  194.3900  177.1570  146.8880 O   0  0  0  0  0  0  0  0  0  0  0  0
  192.1010  174.7040  143.9530 C   0  0  1  0  0  3  0  0  0  0  0  0
  194.7680  175.4560  141.1390 C   0  0  0  0  0  1  0  0  0  0  0  0
  195.1380  175.8320  142.4930 N   0  0  0  0  0  2  0  0  0  0  0  0
  186.2640  178.9790  143.5340 C   0  0  0  0  0  3  0  0  0  0  0  0
  187.1870  178.1440  144.1790 C   0  0  0  0  0  0  0  0  0  0  0  0
  187.0160  177.8410  145.5340 C   0  0  0  0  0  3  0  0  0  0  0  0
  185.7750  178.0800  147.5550 F   0  0  0  0  0  0  0  0  0  0  0  0
  185.0190  179.2100  145.5970 C   0  0  0  0  0  3  0  0  0  0  0  0
  185.9350  178.3740  146.2430 C   0  0  0  0  0  0  0  0  0  0  0  0
  185.1830  179.5110  144.2420 C   0  0  0  0  0  3  0  0  0  0  0  0
  1 18  1  0  0  0  0
  1 13  1  0  0  0  0
  4  6  2  0  0  0  0
  5  2  1  6  0  0  0
  5 15  1  0  0  0  0
  5  7  1  0  0  0  0
  6  2  1  0  0  0  0
  6  9  1  0  0  0  0
  7  3  1  6  0  0  0
  8 12  2  0  0  0  0
  8  4  1  0  0  0  0
  9 13  1  0  0  0  0
 10  1  1  0  0  0  0
 11 19  1  0  0  0  0
 12 14  1  0  0  0  0
 14 11  1  0  0  0  0
 14  2  2  0  0  0  0
 15  9  1  6  0  0  0
 15 28  1  0  0  0  0
 16  4  1  0  0  0  0
 16  1  1  0  0  0  0
 17  7  1  0  0  0  0
 17 32  1  6  0  0  0
 19 17  1  0  0  0  0
 20 21  1  0  0  0  0
 21 23  2  0  0  0  0
 22 24  1  0  0  0  0
 22 27  2  0  0  0  0
 23 22  1  0  0  0  0
 24 25  1  6  0  0  0
 26 24  1  0  0  0  0
 28 20  1  6  0  0  0
 28 26  1  0  0  0  0
 29 30  1  0  0  0  0
 30 21  1  0  0  0  0
 31 32  2  0  0  0  0
 31 37  1  0  0  0  0
 32 33  1  0  0  0  0
 33 36  2  0  0  0  0
 35 36  1  0  0  0  0
 36 34  1  0  0  0  0
 37 35  2  0  0  0  0
M  END
>  <MODEL>
6

>  <REMARK>
 VINA RESULT:      -8.8      2.383      5.613
  Name = 
  2 active torsions:
  status: ('A' for Active; 'I' for Inactive)
    1  A    between atoms: C_21  and  C_27
    2  A    between atoms: C_23  and  C_30
                            x       y       z     vdW  Elec       q    Type
                         _______ _______ _______ _____ _____    ______ ____

>  <TORSDO>
F 2

$$$$
=
 OpenBabel11112417143D

 37 42  0  0  1  0  0  0  0  0999 V2000
  194.8820  175.4930  144.8330 C   0  0  0  0  0  0  0  0  0  0  0  0
  190.8540  175.8360  145.8980 C   0  0  0  0  0  0  0  0  0  0  0  0
  189.4300  177.8190  144.1760 C   0  0  0  0  0  1  0  0  0  0  0  0
  193.1250  176.2430  146.5310 C   0  0  0  0  0  0  0  0  0  0  0  0
  190.0940  175.4120  144.6810 C   0  0  1  0  0  3  0  0  0  0  0  0
  192.1820  175.7560  145.6430 C   0  0  0  0  0  0  0  0  0  0  0  0
  188.9540  176.3740  144.3280 C   0  0  1  0  0  3  0  0  0  0  0  0
  192.6900  176.7940  147.7020 N   0  0  0  0  0  0  0  0  0  0  0  0
  192.4690  175.3660  144.3260 N   0  0  0  0  0  0  0  0  0  0  0  0
  195.0510  174.0350  145.2200 C   0  0  0  0  0  1  0  0  0  0  0  0
  188.9380  176.7550  147.2630 C   0  0  0  0  0  2  0  0  0  0  0  0
  191.3520  176.8930  147.9910 C   0  0  0  0  0  3  0  0  0  0  0  0
  193.7870  175.6200  143.7500 C   0  0  0  0  0  2  0  0  0  0  0  0
  190.3880  176.4180  147.0800 C   0  0  0  0  0  0  0  0  0  0  0  0
  191.2020  175.3080  143.5920 C   0  0  1  0  0  3  0  0  0  0  0  0
  194.5640  176.3300  146.0980 C   0  0  0  0  0  2  0  0  0  0  0  0
  187.7870  176.2220  145.3350 C   0  0  1  0  0  3  0  0  0  0  0  0
  196.1900  175.9840  144.2510 C   0  0  0  0  0  1  0  0  0  0  0  0
  188.1110  175.7970  146.6490 O   0  0  0  0  0  0  0  0  0  0  0  0
  190.1740  174.1760  141.5600 C   0  0  0  0  0  2  0  0  0  0  0  0
  189.8790  172.8510  140.9210 C   0  0  0  0  0  0  0  0  0  0  0  0
  192.1870  172.4880  140.1400 C   0  0  0  0  0  0  0  0  0  0  0  0
  190.7910  172.1740  140.2840 N   0  0  0  0  0  0  0  0  0  0  0  0
  192.8850  173.5420  140.9460 C   0  0  1  0  0  3  0  0  0  0  0  0
  192.7040  174.8000  140.3990 F   0  0  0  0  0  0  0  0  0  0  0  0
  192.5040  173.4900  142.4280 C   0  0  0  0  0  2  0  0  0  0  0  0
  192.8680  171.8350  139.3070 O   0  0  0  0  0  0  0  0  0  0  0  0
  191.1030  174.0230  142.7660 C   0  0  1  0  0  3  0  0  0  0  0  0
  187.4570  173.0070  141.6380 C   0  0  0  0  0  1  0  0  0  0  0  0
  188.5510  172.3250  140.9670 N   0  0  0  0  0  2  0  0  0  0  0  0
  186.4060  178.1270  146.2660 C   0  0  0  0  0  3  0  0  0  0  0  0
  186.6550  177.2040  145.2410 C   0  0  0  0  0  0  0  0  0  0  0  0
  185.8490  177.2060  144.0970 C   0  0  0  0  0  3  0  0  0  0  0  0
  184.0190  178.1170  142.8720 F   0  0  0  0  0  0  0  0  0  0  0  0
  184.5490  179.0370  145.0060 C   0  0  0  0  0  3  0  0  0  0  0  0
  184.7970  178.1200  143.9800 C   0  0  0  0  0  0  0  0  0  0  0  0
  185.3540  179.0410  146.1490 C   0  0  0  0  0  3  0  0  0  0  0  0
  1 10  1  0  0  0  0
  1 16  1  0  0  0  0
  2 14  1  0  0  0  0
  4  8  2  0  0  0  0
  5  2  1  1  0  0  0
  6  2  2  0  0  0  0
  6  4  1  0  0  0  0
  7  3  1  1  0  0  0
  7  5  1  0  0  0  0
  7 17  1  0  0  0  0
  8 12  1  0  0  0  0
  9  6  1  0  0  0  0
 13  9  1  0  0  0  0
 13  1  1  0  0  0  0
 14 11  1  0  0  0  0
 14 12  2  0  0  0  0
 15  9  1  1  0  0  0
 15  5  1  0  0  0  0
 16  4  1  0  0  0  0
 17 32  1  1  0  0  0
 17 19  1  0  0  0  0
 18  1  1  0  0  0  0
 19 11  1  0  0  0  0
 21 30  1  0  0  0  0
 21 20  1  0  0  0  0
 22 23  1  0  0  0  0
 22 24  1  0  0  0  0
 23 21  2  0  0  0  0
 24 25  1  6  0  0  0
 24 26  1  0  0  0  0
 26 28  1  0  0  0  0
 27 22  2  0  0  0  0
 28 20  1  6  0  0  0
 28 15  1  0  0  0  0
 30 29  1  0  0  0  0
 32 31  2  0  0  0  0
 33 32  1  0  0  0  0
 34 36  1  0  0  0  0
 35 37  2  0  0  0  0
 36 33  2  0  0  0  0
 36 35  1  0  0  0  0
 37 31  1  0  0  0  0
M  END
>  <MODEL>
7

>  <REMARK>
 VINA RESULT:      -8.6      1.598      2.071
  Name = 
  2 active torsions:
  status: ('A' for Active; 'I' for Inactive)
    1  A    between atoms: C_21  and  C_27
    2  A    between atoms: C_23  and  C_30
                            x       y       z     vdW  Elec       q    Type
                         _______ _______ _______ _____ _____    ______ ____

>  <TORSDO>
F 2

$$$$
=
 OpenBabel11112417143D

 37 42  0  0  1  0  0  0  0  0999 V2000
  185.8880  177.7240  145.8480 C   0  0  0  0  0  0  0  0  0  0  0  0
  189.6870  176.1550  145.0850 C   0  0  0  0  0  0  0  0  0  0  0  0
  189.7760  173.2110  145.5820 C   0  0  0  0  0  1  0  0  0  0  0  0
  188.3520  177.5480  146.5000 C   0  0  0  0  0  0  0  0  0  0  0  0
  189.4840  175.1690  143.9780 C   0  0  1  0  0  3  0  0  0  0  0  0
  188.4970  176.7200  145.4020 C   0  0  0  0  0  0  0  0  0  0  0  0
  190.1800  173.8290  144.2430 C   0  0  1  0  0  3  0  0  0  0  0  0
  189.4540  177.8120  147.2630 N   0  0  0  0  0  0  0  0  0  0  0  0
  187.4230  176.1940  144.6660 N   0  0  0  0  0  0  0  0  0  0  0  0
  185.9410  178.8430  144.8230 C   0  0  0  0  0  1  0  0  0  0  0  0
  192.0700  175.5830  145.6950 C   0  0  0  0  0  2  0  0  0  0  0  0
  190.6740  177.2560  146.9720 C   0  0  0  0  0  3  0  0  0  0  0  0
  186.0510  176.3620  145.1380 C   0  0  0  0  0  2  0  0  0  0  0  0
  190.8210  176.3950  145.8660 C   0  0  0  0  0  0  0  0  0  0  0  0
  187.9330  175.0730  143.8720 C   0  0  1  0  0  3  0  0  0  0  0  0
  186.9700  177.9620  146.9310 C   0  0  0  0  0  2  0  0  0  0  0  0
  191.7130  173.9750  144.0790 C   0  0  1  0  0  3  0  0  0  0  0  0
  184.5290  177.7570  146.5140 C   0  0  0  0  0  1  0  0  0  0  0  0
  192.2790  175.2480  144.3450 O   0  0  0  0  0  0  0  0  0  0  0  0
  187.9100  176.4130  141.7110 C   0  0  0  0  0  2  0  0  0  0  0  0
  187.2010  176.6040  140.4020 C   0  0  0  0  0  0  0  0  0  0  0  0
  188.2110  174.6260  139.3370 C   0  0  0  0  0  0  0  0  0  0  0  0
  187.3980  175.8110  139.3880 N   0  0  0  0  0  0  0  0  0  0  0  0
  188.7670  173.9520  140.5560 C   0  0  1  0  0  3  0  0  0  0  0  0
  189.9420  174.5520  140.9740 F   0  0  0  0  0  0  0  0  0  0  0  0
  187.7370  173.8390  141.6830 C   0  0  0  0  0  2  0  0  0  0  0  0
  188.4560  174.1110  138.2150 O   0  0  0  0  0  0  0  0  0  0  0  0
  187.4320  175.1490  142.4270 C   0  0  1  0  0  3  0  0  0  0  0  0
  186.0360  178.6650  141.2960 C   0  0  0  0  0  1  0  0  0  0  0  0
  186.3140  177.7120  140.2350 N   0  0  0  0  0  2  0  0  0  0  0  0
  193.6230  172.9390  145.3760 C   0  0  0  0  0  3  0  0  0  0  0  0
  192.5680  172.8030  144.4630 C   0  0  0  0  0  0  0  0  0  0  0  0
  192.2900  171.5470  143.9110 C   0  0  0  0  0  3  0  0  0  0  0  0
  192.7910  169.2240  143.7250 F   0  0  0  0  0  0  0  0  0  0  0  0
  194.1170  170.5780  145.1710 C   0  0  0  0  0  3  0  0  0  0  0  0
  193.0640  170.4370  144.2630 C   0  0  0  0  0  0  0  0  0  0  0  0
  194.3960  171.8300  145.7280 C   0  0  0  0  0  3  0  0  0  0  0  0
  1 18  1  0  0  0  0
  1 16  1  0  0  0  0
  2  6  2  0  0  0  0
  2 14  1  0  0  0  0
  4 16  1  0  0  0  0
  4  8  2  0  0  0  0
  5  7  1  0  0  0  0
  5  2  1  1  0  0  0
  6  4  1  0  0  0  0
  7  3  1  1  0  0  0
  9 13  1  0  0  0  0
  9  6  1  0  0  0  0
 10  1  1  0  0  0  0
 11 14  1  0  0  0  0
 12  8  1  0  0  0  0
 13  1  1  0  0  0  0
 14 12  2  0  0  0  0
 15  5  1  0  0  0  0
 15  9  1  1  0  0  0
 17  7  1  0  0  0  0
 17 19  1  0  0  0  0
 17 32  1  1  0  0  0
 19 11  1  0  0  0  0
 20 28  1  0  0  0  0
 21 20  1  0  0  0  0
 22 23  1  0  0  0  0
 22 24  1  0  0  0  0
 23 21  2  0  0  0  0
 24 25  1  1  0  0  0
 24 26  1  0  0  0  0
 27 22  2  0  0  0  0
 28 26  1  6  0  0  0
 28 15  1  0  0  0  0
 30 21  1  0  0  0  0
 30 29  1  0  0  0  0
 31 37  1  0  0  0  0
 32 31  2  0  0  0  0
 33 36  2  0  0  0  0
 33 32  1  0  0  0  0
 34 36  1  0  0  0  0
 35 37  2  0  0  0  0
 36 35  1  0  0  0  0
M  END
>  <MODEL>
8

>  <REMARK>
 VINA RESULT:      -8.5      2.789      6.907
  Name = 
  2 active torsions:
  status: ('A' for Active; 'I' for Inactive)
    1  A    between atoms: C_21  and  C_27
    2  A    between atoms: C_23  and  C_30
                            x       y       z     vdW  Elec       q    Type
                         _______ _______ _______ _____ _____    ______ ____

>  <TORSDO>
F 2

$$$$
=
 OpenBabel11112417143D

 37 42  0  0  1  0  0  0  0  0999 V2000
  187.2870  176.5300  142.6130 C   0  0  0  0  0  0  0  0  0  0  0  0
  191.3790  175.6960  142.8010 C   0  0  0  0  0  0  0  0  0  0  0  0
  192.0140  173.8220  145.0380 C   0  0  0  0  0  1  0  0  0  0  0  0
  189.6630  177.3380  143.0910 C   0  0  0  0  0  0  0  0  0  0  0  0
  191.4840  174.2210  142.5780 C   0  0  1  0  0  3  0  0  0  0  0  0
  190.0750  176.0610  142.7560 C   0  0  0  0  0  0  0  0  0  0  0  0
  192.4090  173.5330  143.5890 C   0  0  1  0  0  3  0  0  0  0  0  0
  190.6120  178.2520  143.4520 N   0  0  0  0  0  0  0  0  0  0  0  0
  189.2030  174.9750  142.5780 N   0  0  0  0  0  0  0  0  0  0  0  0
  187.2100  176.7380  141.1110 C   0  0  0  0  0  1  0  0  0  0  0  0
  193.7600  176.1640  143.5000 C   0  0  0  0  0  2  0  0  0  0  0  0
  191.9410  177.9160  143.5100 C   0  0  0  0  0  3  0  0  0  0  0  0
  187.7880  175.1000  142.9150 C   0  0  0  0  0  2  0  0  0  0  0  0
  192.3620  176.6100  143.1900 C   0  0  0  0  0  0  0  0  0  0  0  0
  190.0020  173.7480  142.6430 C   0  0  1  0  0  3  0  0  0  0  0  0
  188.1920  177.6200  143.2400 C   0  0  0  0  0  2  0  0  0  0  0  0
  193.8890  173.8700  143.2850 C   0  0  1  0  0  3  0  0  0  0  0  0
  185.8930  176.6790  143.1840 C   0  0  0  0  0  1  0  0  0  0  0  0
  194.1590  175.1120  142.6550 O   0  0  0  0  0  0  0  0  0  0  0  0
  190.1190  173.2920  140.1440 C   0  0  0  0  0  2  0  0  0  0  0  0
  189.5270  172.4910  139.0210 C   0  0  0  0  0  0  0  0  0  0  0  0
  190.7200  170.4170  139.6050 C   0  0  0  0  0  0  0  0  0  0  0  0
  189.8530  171.2480  138.8140 N   0  0  0  0  0  0  0  0  0  0  0  0
  191.1900  170.7860  140.9800 C   0  0  1  0  0  3  0  0  0  0  0  0
  192.2930  171.6210  140.9300 F   0  0  0  0  0  0  0  0  0  0  0  0
  190.0660  171.3560  141.8490 C   0  0  0  0  0  2  0  0  0  0  0  0
  191.0910  169.3120  139.1310 O   0  0  0  0  0  0  0  0  0  0  0  0
  189.6350  172.7910  141.5060 C   0  0  1  0  0  3  0  0  0  0  0  0
  188.1910  174.4980  138.2500 C   0  0  0  0  0  1  0  0  0  0  0  0
  188.6100  173.1120  138.1190 N   0  0  0  0  0  2  0  0  0  0  0  0
  195.8150  174.3240  144.8620 C   0  0  0  0  0  3  0  0  0  0  0  0
  194.9240  173.4170  144.2740 C   0  0  0  0  0  0  0  0  0  0  0  0
  194.9810  172.0640  144.6270 C   0  0  0  0  0  3  0  0  0  0  0  0
  195.9800  170.3090  145.8930 F   0  0  0  0  0  0  0  0  0  0  0  0
  196.8160  172.5280  146.1380 C   0  0  0  0  0  3  0  0  0  0  0  0
  195.9270  171.6190  145.5560 C   0  0  0  0  0  0  0  0  0  0  0  0
  196.7600  173.8800  145.7910 C   0  0  0  0  0  3  0  0  0  0  0  0
  1 13  1  0  0  0  0
  1 18  1  0  0  0  0
  1 16  1  0  0  0  0
  2 14  1  0  0  0  0
  4 16  1  0  0  0  0
  4  8  2  0  0  0  0
  5 15  1  0  0  0  0
  5  2  1  1  0  0  0
  5  7  1  0  0  0  0
  6  2  2  0  0  0  0
  6  4  1  0  0  0  0
  7  3  1  1  0  0  0
  8 12  1  0  0  0  0
  9  6  1  0  0  0  0
  9 13  1  0  0  0  0
 10  1  1  0  0  0  0
 14 11  1  0  0  0  0
 14 12  2  0  0  0  0
 15  9  1  6  0  0  0
 17  7  1  0  0  0  0
 17 32  1  1  0  0  0
 19 17  1  0  0  0  0
 19 11  1  0  0  0  0
 21 20  1  0  0  0  0
 22 24  1  0  0  0  0
 23 21  2  0  0  0  0
 23 22  1  0  0  0  0
 24 25  1  6  0  0  0
 24 26  1  0  0  0  0
 27 22  2  0  0  0  0
 28 20  1  6  0  0  0
 28 26  1  0  0  0  0
 28 15  1  0  0  0  0
 30 29  1  0  0  0  0
 30 21  1  0  0  0  0
 31 37  1  0  0  0  0
 32 33  1  0  0  0  0
 32 31  2  0  0  0  0
 33 36  2  0  0  0  0
 36 34  1  0  0  0  0
 36 35  1  0  0  0  0
 37 35  2  0  0  0  0
M  END
>  <MODEL>
9

>  <REMARK>
 VINA RESULT:      -8.4      3.512      7.191
  Name = 
  2 active torsions:
  status: ('A' for Active; 'I' for Inactive)
    1  A    between atoms: C_21  and  C_27
    2  A    between atoms: C_23  and  C_30
                            x       y       z     vdW  Elec       q    Type
                         _______ _______ _______ _____ _____    ______ ____

>  <TORSDO>
F 2

$$$$
