=
 OpenBabel11112417403D

 28 32  0  0  1  0  0  0  0  0999 V2000
  189.3550  176.5580  145.1620 C   0  0  0  0  0  0  0  0  0  0  0  0
  194.3740  176.2720  143.7720 F   0  0  0  0  0  0  0  0  0  0  0  0
  189.2610  172.5140  143.0760 O   0  0  0  0  0  0  0  0  0  0  0  0
  189.2010  174.9670  147.4620 C   0  0  0  0  0  3  0  0  0  0  0  0
  191.4770  172.6570  143.8580 N   0  0  0  0  0  0  0  0  0  0  0  0
  189.4150  177.3030  143.9830 O   0  0  0  0  0  0  0  0  0  0  0  0
  194.1480  177.4800  145.6580 F   0  0  0  0  0  0  0  0  0  0  0  0
  194.2370  176.1990  145.1490 C   0  0  0  0  0  0  0  0  0  0  0  0
  195.5210  174.1300  145.6380 C   0  0  0  0  0  0  0  0  0  0  0  0
  192.9760  175.4060  145.5360 C   0  0  2  0  0  3  0  0  0  0  0  0
  187.3700  175.2200  142.2530 O   0  0  0  0  0  0  0  0  0  0  0  0
  191.7270  174.9960  143.4820 C   0  0  1  0  0  3  0  0  0  0  0  0
  194.4040  173.3620  145.3080 O   0  0  0  0  0  0  0  0  0  0  0  0
  195.4140  175.5490  145.7020 N   0  0  0  0  0  2  0  0  0  0  0  0
  188.4150  175.8350  142.3820 C   0  0  0  0  0  0  0  0  0  0  0  0
  190.4870  175.8430  145.5880 C   0  0  0  0  0  0  0  0  0  0  0  0
  190.2840  173.2020  143.3390 C   0  0  0  0  0  0  0  0  0  0  0  0
  196.9450  173.4030  145.9640 S   0  0  0  0  0  0  0  0  0  0  0  0
  189.7040  175.2120  141.9470 C   0  0  0  0  0  2  0  0  0  0  0  0
  190.3920  175.0370  146.7370 C   0  0  0  0  0  3  0  0  0  0  0  0
  188.1590  176.4790  145.8910 C   0  0  0  0  0  3  0  0  0  0  0  0
  188.0850  175.6910  147.0400 C   0  0  0  0  0  3  0  0  0  0  0  0
  188.4000  177.2060  142.9910 C   0  0  0  0  0  2  0  0  0  0  0  0
  192.4920  173.7000  143.8320 C   0  0  1  0  0  3  0  0  0  0  0  0
  190.3810  174.5880  143.0780 N   0  0  0  0  0  0  0  0  0  0  0  0
  193.0830  173.9080  145.2160 C   0  0  2  0  0  3  0  0  0  0  0  0
  191.7710  171.2350  143.9350 C   0  0  0  0  0  1  0  0  0  0  0  0
  191.7560  175.8820  144.7500 C   0  0  1  0  0  3  0  0  0  0  0  0
  1 16  2  0  0  0  0
  1 21  1  0  0  0  0
  2  8  1  0  0  0  0
  3 17  2  0  0  0  0
  5 27  1  0  0  0  0
  6  1  1  0  0  0  0
  8  7  1  0  0  0  0
  8 14  1  0  0  0  0
  9 14  1  0  0  0  0
  9 18  2  0  0  0  0
 10  8  1  6  0  0  0
 11 15  2  0  0  0  0
 12 25  1  1  0  0  0
 12 24  1  0  0  0  0
 12 28  1  0  0  0  0
 13  9  1  0  0  0  0
 15 23  1  0  0  0  0
 16 20  1  0  0  0  0
 17  5  1  0  0  0  0
 19 15  1  0  0  0  0
 19 25  1  0  0  0  0
 20  4  2  0  0  0  0
 21 22  2  0  0  0  0
 22  4  1  0  0  0  0
 23  6  1  0  0  0  0
 24  5  1  1  0  0  0
 24 26  1  0  0  0  0
 25 17  1  0  0  0  0
 26 13  1  6  0  0  0
 26 10  1  0  0  0  0
 28 10  1  0  0  0  0
 28 16  1  1  0  0  0
M  END
>  <MODEL>
1

>  <REMARK>
 VINA RESULT:      -7.9      0.000      0.000
  Name = 
  0 active torsions:
  status: ('A' for Active; 'I' for Inactive)
                            x       y       z     vdW  Elec       q    Type
                         _______ _______ _______ _____ _____    ______ ____

>  <TORSDO>
F 0

$$$$
=
 OpenBabel11112417403D

 28 32  0  0  1  0  0  0  0  0999 V2000
  190.1520  175.0910  142.4990 C   0  0  0  0  0  0  0  0  0  0  0  0
  186.9890  179.0910  141.4010 F   0  0  0  0  0  0  0  0  0  0  0  0
  188.6720  175.9740  146.7120 O   0  0  0  0  0  0  0  0  0  0  0  0
  188.4160  172.9060  142.7400 C   0  0  0  0  0  3  0  0  0  0  0  0
  186.8800  176.6850  145.3600 N   0  0  0  0  0  0  0  0  0  0  0  0
  191.0130  176.1870  142.4400 O   0  0  0  0  0  0  0  0  0  0  0  0
  187.1100  177.6800  139.6510 F   0  0  0  0  0  0  0  0  0  0  0  0
  186.4980  177.9100  140.8680 C   0  0  0  0  0  0  0  0  0  0  0  0
  184.1830  177.9160  141.7690 C   0  0  0  0  0  0  0  0  0  0  0  0
  186.7700  176.7240  141.8090 C   0  0  2  0  0  3  0  0  0  0  0  0
  191.9210  175.9860  145.7030 O   0  0  0  0  0  0  0  0  0  0  0  0
  188.2250  177.5390  143.5880 C   0  0  1  0  0  3  0  0  0  0  0  0
  184.6520  177.3850  142.9700 O   0  0  0  0  0  0  0  0  0  0  0  0
  185.0660  178.0510  140.6590 N   0  0  0  0  0  2  0  0  0  0  0  0
  191.4920  176.6070  144.7440 C   0  0  0  0  0  0  0  0  0  0  0  0
  188.7640  175.2960  142.4200 C   0  0  0  0  0  0  0  0  0  0  0  0
  188.2490  176.4890  145.6420 C   0  0  0  0  0  0  0  0  0  0  0  0
  182.6210  178.3690  141.6290 S   0  0  0  0  0  0  0  0  0  0  0  0
  190.3890  177.5990  144.9330 C   0  0  0  0  0  2  0  0  0  0  0  0
  187.9030  174.1910  142.5550 C   0  0  0  0  0  3  0  0  0  0  0  0
  190.6610  173.7980  142.6910 C   0  0  0  0  0  3  0  0  0  0  0  0
  189.7960  172.7090  142.8050 C   0  0  0  0  0  3  0  0  0  0  0  0
  192.0660  176.3570  143.3810 C   0  0  0  0  0  2  0  0  0  0  0  0
  186.7860  177.4850  144.1480 C   0  0  1  0  0  3  0  0  0  0  0  0
  189.0970  176.9950  144.6300 N   0  0  0  0  0  0  0  0  0  0  0  0
  185.9410  176.7770  143.1020 C   0  0  2  0  0  3  0  0  0  0  0  0
  185.8080  176.5480  146.3320 C   0  0  0  0  0  1  0  0  0  0  0  0
  188.2220  176.7100  142.2820 C   0  0  1  0  0  3  0  0  0  0  0  0
  1 21  1  0  0  0  0
  4 22  1  0  0  0  0
  5 17  1  0  0  0  0
  5 27  1  0  0  0  0
  6  1  1  0  0  0  0
  6 23  1  0  0  0  0
  7  8  1  0  0  0  0
  8  2  1  0  0  0  0
  9 13  1  0  0  0  0
 10  8  1  6  0  0  0
 10 28  1  0  0  0  0
 10 26  1  0  0  0  0
 12 24  1  0  0  0  0
 12 25  1  1  0  0  0
 14  8  1  0  0  0  0
 14  9  1  0  0  0  0
 15 19  1  0  0  0  0
 15 11  2  0  0  0  0
 16  1  2  0  0  0  0
 16 20  1  0  0  0  0
 17  3  2  0  0  0  0
 18  9  2  0  0  0  0
 20  4  2  0  0  0  0
 21 22  2  0  0  0  0
 23 15  1  0  0  0  0
 24  5  1  1  0  0  0
 25 19  1  0  0  0  0
 25 17  1  0  0  0  0
 26 13  1  6  0  0  0
 26 24  1  0  0  0  0
 28 16  1  1  0  0  0
 28 12  1  0  0  0  0
M  END
>  <MODEL>
2

>  <REMARK>
 VINA RESULT:      -7.8      4.619      7.263
  Name = 
  0 active torsions:
  status: ('A' for Active; 'I' for Inactive)
                            x       y       z     vdW  Elec       q    Type
                         _______ _______ _______ _____ _____    ______ ____

>  <TORSDO>
F 0

$$$$
=
 OpenBabel11112417403D

 28 32  0  0  1  0  0  0  0  0999 V2000
  190.8990  174.0150  142.8920 C   0  0  0  0  0  0  0  0  0  0  0  0
  188.1060  178.3330  143.7670 F   0  0  0  0  0  0  0  0  0  0  0  0
  193.3300  175.7190  146.3420 O   0  0  0  0  0  0  0  0  0  0  0  0
  190.0220  172.2340  144.8680 C   0  0  0  0  0  3  0  0  0  0  0  0
  191.1660  176.5510  146.7550 N   0  0  0  0  0  0  0  0  0  0  0  0
  191.3810  174.9190  141.9440 O   0  0  0  0  0  0  0  0  0  0  0  0
  186.7910  176.6980  142.9510 F   0  0  0  0  0  0  0  0  0  0  0  0
  187.3810  177.1990  144.0960 C   0  0  0  0  0  0  0  0  0  0  0  0
  186.6780  177.7480  146.4140 C   0  0  0  0  0  0  0  0  0  0  0  0
  188.2890  176.1240  144.7160 C   0  0  2  0  0  3  0  0  0  0  0  0
  194.5170  175.0050  143.2350 O   0  0  0  0  0  0  0  0  0  0  0  0
  190.5880  176.8970  144.4700 C   0  0  1  0  0  3  0  0  0  0  0  0
  187.9150  177.3100  146.8890 O   0  0  0  0  0  0  0  0  0  0  0  0
  186.3400  177.5680  145.0420 N   0  0  0  0  0  2  0  0  0  0  0  0
  193.4980  175.5560  142.8530 C   0  0  0  0  0  0  0  0  0  0  0  0
  189.9880  174.4550  143.8680 C   0  0  0  0  0  0  0  0  0  0  0  0
  192.2260  176.1510  145.9140 C   0  0  0  0  0  0  0  0  0  0  0  0
  185.6150  178.4520  147.4320 S   0  0  0  0  0  0  0  0  0  0  0  0
  192.9760  176.7480  143.5910 C   0  0  0  0  0  2  0  0  0  0  0  0
  189.5660  173.5530  144.8620 C   0  0  0  0  0  3  0  0  0  0  0  0
  191.3590  172.6900  142.9070 C   0  0  0  0  0  3  0  0  0  0  0  0
  190.9170  171.8020  143.8890 C   0  0  0  0  0  3  0  0  0  0  0  0
  192.7700  175.0220  141.6560 C   0  0  0  0  0  2  0  0  0  0  0  0
  190.1520  177.1820  145.9240 C   0  0  1  0  0  3  0  0  0  0  0  0
  191.9450  176.3520  144.5420 N   0  0  0  0  0  0  0  0  0  0  0  0
  188.8060  176.5020  146.1120 C   0  0  2  0  0  3  0  0  0  0  0  0
  191.2800  176.7450  148.1920 C   0  0  0  0  0  1  0  0  0  0  0  0
  189.5510  175.9120  143.8820 C   0  0  1  0  0  3  0  0  0  0  0  0
  1 21  2  0  0  0  0
  1 16  1  0  0  0  0
  2  8  1  0  0  0  0
  5 27  1  0  0  0  0
  6  1  1  0  0  0  0
  7  8  1  0  0  0  0
  8 14  1  0  0  0  0
  9 13  1  0  0  0  0
  9 18  2  0  0  0  0
 10  8  1  6  0  0  0
 10 26  1  0  0  0  0
 12 25  1  1  0  0  0
 12 24  1  0  0  0  0
 14  9  1  0  0  0  0
 15 11  2  0  0  0  0
 15 19  1  0  0  0  0
 16 20  2  0  0  0  0
 17  3  2  0  0  0  0
 17  5  1  0  0  0  0
 19 25  1  0  0  0  0
 20  4  1  0  0  0  0
 21 22  1  0  0  0  0
 22  4  2  0  0  0  0
 23  6  1  0  0  0  0
 23 15  1  0  0  0  0
 24 26  1  0  0  0  0
 24  5  1  1  0  0  0
 25 17  1  0  0  0  0
 26 13  1  6  0  0  0
 28 16  1  1  0  0  0
 28 12  1  0  0  0  0
 28 10  1  0  0  0  0
M  END
>  <MODEL>
3

>  <REMARK>
 VINA RESULT:      -7.8      3.743      6.003
  Name = 
  0 active torsions:
  status: ('A' for Active; 'I' for Inactive)
                            x       y       z     vdW  Elec       q    Type
                         _______ _______ _______ _____ _____    ______ ____

>  <TORSDO>
F 0

$$$$
=
 OpenBabel11112417403D

 28 32  0  0  1  0  0  0  0  0999 V2000
  188.8960  176.8460  145.3130 C   0  0  0  0  0  0  0  0  0  0  0  0
  193.5330  176.7120  142.9290 F   0  0  0  0  0  0  0  0  0  0  0  0
  188.1610  173.2810  142.5810 O   0  0  0  0  0  0  0  0  0  0  0  0
  189.0840  174.8480  147.2660 C   0  0  0  0  0  3  0  0  0  0  0  0
  190.4910  173.2170  142.9220 N   0  0  0  0  0  0  0  0  0  0  0  0
  188.7760  177.8020  144.3020 O   0  0  0  0  0  0  0  0  0  0  0  0
  193.7430  177.5410  145.0120 F   0  0  0  0  0  0  0  0  0  0  0  0
  193.6550  176.3790  144.2690 C   0  0  0  0  0  0  0  0  0  0  0  0
  194.8810  174.2250  144.1070 C   0  0  0  0  0  0  0  0  0  0  0  0
  192.4450  175.5570  144.7450 C   0  0  2  0  0  3  0  0  0  0  0  0
  186.3180  176.1380  142.6580 O   0  0  0  0  0  0  0  0  0  0  0  0
  190.8070  175.5790  142.9400 C   0  0  1  0  0  3  0  0  0  0  0  0
  193.6760  173.5610  143.8700 O   0  0  0  0  0  0  0  0  0  0  0  0
  194.8740  175.6070  144.4500 N   0  0  0  0  0  2  0  0  0  0  0  0
  187.4040  176.6920  142.6890 C   0  0  0  0  0  0  0  0  0  0  0  0
  190.0420  176.0360  145.3670 C   0  0  0  0  0  0  0  0  0  0  0  0
  189.2560  173.8800  142.7580 C   0  0  0  0  0  0  0  0  0  0  0  0
  196.2940  173.4150  144.0070 S   0  0  0  0  0  0  0  0  0  0  0  0
  188.5470  176.1340  141.9000 C   0  0  0  0  0  2  0  0  0  0  0  0
  190.1180  175.0270  146.3460 C   0  0  0  0  0  3  0  0  0  0  0  0
  187.8570  176.6570  146.2370 C   0  0  0  0  0  3  0  0  0  0  0  0
  187.9540  175.6660  147.2130 C   0  0  0  0  0  3  0  0  0  0  0  0
  187.5880  177.9210  143.5290 C   0  0  0  0  0  2  0  0  0  0  0  0
  191.5430  174.2220  142.8880 C   0  0  1  0  0  3  0  0  0  0  0  0
  189.3860  175.2880  142.7410 N   0  0  0  0  0  0  0  0  0  0  0  0
  192.3980  174.1460  144.1420 C   0  0  2  0  0  3  0  0  0  0  0  0
  190.7070  171.8000  142.6780 C   0  0  0  0  0  1  0  0  0  0  0  0
  191.1300  176.2040  144.3170 C   0  0  1  0  0  3  0  0  0  0  0  0
  1 16  2  0  0  0  0
  1 21  1  0  0  0  0
  2  8  1  0  0  0  0
  3 17  2  0  0  0  0
  6  1  1  0  0  0  0
  8 14  1  0  0  0  0
  8  7  1  0  0  0  0
  9 14  1  0  0  0  0
 10  8  1  6  0  0  0
 11 15  2  0  0  0  0
 12 25  1  1  0  0  0
 12 28  1  0  0  0  0
 13  9  1  0  0  0  0
 15 23  1  0  0  0  0
 16 20  1  0  0  0  0
 17  5  1  0  0  0  0
 18  9  2  0  0  0  0
 19 15  1  0  0  0  0
 19 25  1  0  0  0  0
 20  4  2  0  0  0  0
 21 22  2  0  0  0  0
 22  4  1  0  0  0  0
 23  6  1  0  0  0  0
 24  5  1  1  0  0  0
 24 12  1  0  0  0  0
 24 26  1  0  0  0  0
 25 17  1  0  0  0  0
 26 13  1  6  0  0  0
 26 10  1  0  0  0  0
 27  5  1  0  0  0  0
 28 10  1  0  0  0  0
 28 16  1  1  0  0  0
M  END
>  <MODEL>
4

>  <REMARK>
 VINA RESULT:      -7.7      1.164      1.224
  Name = 
  0 active torsions:
  status: ('A' for Active; 'I' for Inactive)
                            x       y       z     vdW  Elec       q    Type
                         _______ _______ _______ _____ _____    ______ ____

>  <TORSDO>
F 0

$$$$
=
 OpenBabel11112417403D

 28 32  0  0  1  0  0  0  0  0999 V2000
  191.6350  173.9180  143.0160 C   0  0  0  0  0  0  0  0  0  0  0  0
  189.1540  178.3800  141.9450 F   0  0  0  0  0  0  0  0  0  0  0  0
  192.5160  176.1420  146.8890 O   0  0  0  0  0  0  0  0  0  0  0  0
  189.8380  172.5240  144.6520 C   0  0  0  0  0  3  0  0  0  0  0  0
  190.4700  177.0780  146.1930 N   0  0  0  0  0  0  0  0  0  0  0  0
  192.5570  174.6340  142.2520 O   0  0  0  0  0  0  0  0  0  0  0  0
  188.1640  176.6560  140.8880 F   0  0  0  0  0  0  0  0  0  0  0  0
  188.2550  177.3350  142.0880 C   0  0  0  0  0  0  0  0  0  0  0  0
  186.6880  178.2910  143.7610 C   0  0  0  0  0  0  0  0  0  0  0  0
  188.7080  176.3650  143.1920 C   0  0  2  0  0  3  0  0  0  0  0  0
  194.8390  174.8760  144.7510 O   0  0  0  0  0  0  0  0  0  0  0  0
  190.9540  177.0350  143.8600 C   0  0  1  0  0  3  0  0  0  0  0  0
  187.5580  177.9160  144.7850 O   0  0  0  0  0  0  0  0  0  0  0  0
  186.9500  177.8830  142.4220 N   0  0  0  0  0  2  0  0  0  0  0  0
  194.1360  175.3740  143.8870 C   0  0  0  0  0  0  0  0  0  0  0  0
  190.4410  174.5390  143.4220 C   0  0  0  0  0  0  0  0  0  0  0  0
  191.7450  176.5160  145.9650 C   0  0  0  0  0  0  0  0  0  0  0  0
  185.3640  179.1830  144.0990 S   0  0  0  0  0  0  0  0  0  0  0  0
  193.4640  176.6870  144.1400 C   0  0  0  0  0  2  0  0  0  0  0  0
  189.5540  173.8320  144.2550 C   0  0  0  0  0  3  0  0  0  0  0  0
  191.9180  172.6060  143.4250 C   0  0  0  0  0  3  0  0  0  0  0  0
  191.0190  171.9100  144.2340 C   0  0  0  0  0  3  0  0  0  0  0  0
  193.9390  174.6570  142.5850 C   0  0  0  0  0  2  0  0  0  0  0  0
  189.9700  177.5760  144.9200 C   0  0  1  0  0  3  0  0  0  0  0  0
  192.0940  176.4830  144.5950 N   0  0  0  0  0  0  0  0  0  0  0  0
  188.6140  176.9670  144.6010 C   0  0  2  0  0  3  0  0  0  0  0  0
  189.9800  177.5140  147.4900 C   0  0  0  0  0  1  0  0  0  0  0  0
  190.1780  175.9850  143.0310 C   0  0  1  0  0  3  0  0  0  0  0  0
  1 16  2  0  0  0  0
  1 21  1  0  0  0  0
  2  8  1  0  0  0  0
  5 27  1  0  0  0  0
  6 23  1  0  0  0  0
  6  1  1  0  0  0  0
  7  8  1  0  0  0  0
  8 14  1  0  0  0  0
  9 18  2  0  0  0  0
  9 13  1  0  0  0  0
 10  8  1  6  0  0  0
 10 26  1  0  0  0  0
 12 25  1  1  0  0  0
 12 24  1  0  0  0  0
 14  9  1  0  0  0  0
 15 19  1  0  0  0  0
 15 11  2  0  0  0  0
 16 20  1  0  0  0  0
 17  5  1  0  0  0  0
 17  3  2  0  0  0  0
 19 25  1  0  0  0  0
 20  4  2  0  0  0  0
 21 22  2  0  0  0  0
 22  4  1  0  0  0  0
 23 15  1  0  0  0  0
 24  5  1  1  0  0  0
 25 17  1  0  0  0  0
 26 13  1  6  0  0  0
 26 24  1  0  0  0  0
 28 10  1  0  0  0  0
 28 16  1  1  0  0  0
 28 12  1  0  0  0  0
M  END
>  <MODEL>
5

>  <REMARK>
 VINA RESULT:      -7.7      3.671      6.238
  Name = 
  0 active torsions:
  status: ('A' for Active; 'I' for Inactive)
                            x       y       z     vdW  Elec       q    Type
                         _______ _______ _______ _____ _____    ______ ____

>  <TORSDO>
F 0

$$$$
=
 OpenBabel11112417403D

 28 32  0  0  1  0  0  0  0  0999 V2000
  187.3910  176.6970  143.7700 C   0  0  0  0  0  0  0  0  0  0  0  0
  189.3730  172.1320  145.3310 F   0  0  0  0  0  0  0  0  0  0  0  0
  189.7100  178.1600  147.4030 O   0  0  0  0  0  0  0  0  0  0  0  0
  189.5020  177.9110  142.3880 C   0  0  0  0  0  3  0  0  0  0  0  0
  190.9330  176.2680  146.7190 N   0  0  0  0  0  0  0  0  0  0  0  0
  186.3560  176.1220  144.5090 O   0  0  0  0  0  0  0  0  0  0  0  0
  189.0710  172.1360  143.1000 F   0  0  0  0  0  0  0  0  0  0  0  0
  189.9210  172.5210  144.1190 C   0  0  0  0  0  0  0  0  0  0  0  0
  192.3470  172.3550  144.6260 C   0  0  0  0  0  0  0  0  0  0  0  0
  190.1220  174.0450  144.0690 C   0  0  2  0  0  3  0  0  0  0  0  0
  186.3670  178.5330  146.8970 O   0  0  0  0  0  0  0  0  0  0  0  0
  189.0460  174.9770  146.0490 C   0  0  1  0  0  3  0  0  0  0  0  0
  192.3070  173.6190  145.2160 O   0  0  0  0  0  0  0  0  0  0  0  0
  191.2000  171.8520  143.9470 N   0  0  0  0  0  2  0  0  0  0  0  0
  186.4130  177.3640  146.5510 C   0  0  0  0  0  0  0  0  0  0  0  0
  188.6500  176.0730  143.7410 C   0  0  0  0  0  0  0  0  0  0  0  0
  189.7430  177.0030  146.9050 C   0  0  0  0  0  0  0  0  0  0  0  0
  193.7090  171.4600  144.7010 S   0  0  0  0  0  0  0  0  0  0  0  0
  187.3260  176.4140  147.2620 C   0  0  0  0  0  2  0  0  0  0  0  0
  189.7050  176.7010  143.0530 C   0  0  0  0  0  3  0  0  0  0  0  0
  187.1950  177.9170  143.1050 C   0  0  0  0  0  3  0  0  0  0  0  0
  188.2460  178.5180  142.4110 C   0  0  0  0  0  3  0  0  0  0  0  0
  185.5660  176.8930  145.4070 C   0  0  0  0  0  2  0  0  0  0  0  0
  190.5650  174.9160  146.3260 C   0  0  1  0  0  3  0  0  0  0  0  0
  188.5860  176.2760  146.5410 N   0  0  0  0  0  0  0  0  0  0  0  0
  191.2290  174.5390  145.0130 C   0  0  2  0  0  3  0  0  0  0  0  0
  192.2250  176.6310  147.2790 C   0  0  0  0  0  1  0  0  0  0  0  0
  188.8680  174.7880  144.5240 C   0  0  1  0  0  3  0  0  0  0  0  0
  1  6  1  0  0  0  0
  4 22  2  0  0  0  0
  4 20  1  0  0  0  0
  5 17  1  0  0  0  0
  5 27  1  0  0  0  0
  6 23  1  0  0  0  0
  7  8  1  0  0  0  0
  8  2  1  0  0  0  0
  9 18  2  0  0  0  0
  9 13  1  0  0  0  0
 10  8  1  1  0  0  0
 10 28  1  0  0  0  0
 10 26  1  0  0  0  0
 12 24  1  0  0  0  0
 12 25  1  6  0  0  0
 14  8  1  0  0  0  0
 14  9  1  0  0  0  0
 15 11  2  0  0  0  0
 15 19  1  0  0  0  0
 16  1  1  0  0  0  0
 17  3  2  0  0  0  0
 20 16  2  0  0  0  0
 21  1  2  0  0  0  0
 22 21  1  0  0  0  0
 23 15  1  0  0  0  0
 24  5  1  6  0  0  0
 25 17  1  0  0  0  0
 25 19  1  0  0  0  0
 26 13  1  1  0  0  0
 26 24  1  0  0  0  0
 28 16  1  6  0  0  0
 28 12  1  0  0  0  0
M  END
>  <MODEL>
6

>  <REMARK>
 VINA RESULT:      -7.6      2.923      4.776
  Name = 
  0 active torsions:
  status: ('A' for Active; 'I' for Inactive)
                            x       y       z     vdW  Elec       q    Type
                         _______ _______ _______ _____ _____    ______ ____

>  <TORSDO>
F 0

$$$$
=
 OpenBabel11112417403D

 28 32  0  0  1  0  0  0  0  0999 V2000
  186.2070  176.9620  144.0440 C   0  0  0  0  0  0  0  0  0  0  0  0
  188.6160  172.4260  143.1310 F   0  0  0  0  0  0  0  0  0  0  0  0
  190.4140  178.1500  145.3120 O   0  0  0  0  0  0  0  0  0  0  0  0
  186.8340  178.5210  141.8030 C   0  0  0  0  0  3  0  0  0  0  0  0
  190.7980  176.4740  143.7030 N   0  0  0  0  0  0  0  0  0  0  0  0
  185.9420  176.2100  145.1890 O   0  0  0  0  0  0  0  0  0  0  0  0
  186.8730  172.6870  141.7300 F   0  0  0  0  0  0  0  0  0  0  0  0
  188.1980  173.0120  141.9470 C   0  0  0  0  0  0  0  0  0  0  0  0
  190.3130  172.9960  140.6440 C   0  0  0  0  0  0  0  0  0  0  0  0
  188.3460  174.5420  142.0060 C   0  0  2  0  0  3  0  0  0  0  0  0
  187.6340  178.2910  147.2670 O   0  0  0  0  0  0  0  0  0  0  0  0
  188.9320  175.1180  144.3020 C   0  0  1  0  0  3  0  0  0  0  0  0
  190.7150  174.1660  141.2880 O   0  0  0  0  0  0  0  0  0  0  0  0
  189.0000  172.4840  140.8550 N   0  0  0  0  0  2  0  0  0  0  0  0
  187.4050  177.1830  146.8090 C   0  0  0  0  0  0  0  0  0  0  0  0
  187.0920  176.4590  143.0750 C   0  0  0  0  0  0  0  0  0  0  0  0
  190.0720  177.0720  144.7550 C   0  0  0  0  0  0  0  0  0  0  0  0
  191.3390  172.2210  139.6390 S   0  0  0  0  0  0  0  0  0  0  0  0
  188.5350  176.2350  146.5580 C   0  0  0  0  0  2  0  0  0  0  0  0
  187.4090  177.2590  141.9610 C   0  0  0  0  0  3  0  0  0  0  0  0
  185.6380  178.2340  143.8820 C   0  0  0  0  0  3  0  0  0  0  0  0
  185.9460  179.0070  142.7630 C   0  0  0  0  0  3  0  0  0  0  0  0
  185.9950  176.7890  146.4870 C   0  0  0  0  0  2  0  0  0  0  0  0
  190.2290  175.1550  143.4640 C   0  0  1  0  0  3  0  0  0  0  0  0
  188.9610  176.3000  145.1650 N   0  0  0  0  0  0  0  0  0  0  0  0
  189.8100  175.0070  142.0110 C   0  0  2  0  0  3  0  0  0  0  0  0
  192.1320  176.8750  143.2870 C   0  0  0  0  0  1  0  0  0  0  0  0
  187.7570  175.1090  143.2960 C   0  0  1  0  0  3  0  0  0  0  0  0
  1  6  1  0  0  0  0
  4 20  2  0  0  0  0
  4 22  1  0  0  0  0
  5 17  1  0  0  0  0
  6 23  1  0  0  0  0
  7  8  1  0  0  0  0
  8  2  1  0  0  0  0
  9 14  1  0  0  0  0
  9 13  1  0  0  0  0
 10  8  1  1  0  0  0
 10 26  1  0  0  0  0
 10 28  1  0  0  0  0
 12 25  1  1  0  0  0
 14  8  1  0  0  0  0
 15 11  2  0  0  0  0
 16  1  2  0  0  0  0
 17 25  1  0  0  0  0
 17  3  2  0  0  0  0
 18  9  2  0  0  0  0
 19 15  1  0  0  0  0
 20 16  1  0  0  0  0
 21  1  1  0  0  0  0
 22 21  2  0  0  0  0
 23 15  1  0  0  0  0
 24  5  1  6  0  0  0
 24 12  1  0  0  0  0
 25 19  1  0  0  0  0
 26 13  1  1  0  0  0
 26 24  1  0  0  0  0
 27  5  1  0  0  0  0
 28 16  1  6  0  0  0
 28 12  1  0  0  0  0
M  END
>  <MODEL>
7

>  <REMARK>
 VINA RESULT:      -7.5      3.710      5.694
  Name = 
  0 active torsions:
  status: ('A' for Active; 'I' for Inactive)
                            x       y       z     vdW  Elec       q    Type
                         _______ _______ _______ _____ _____    ______ ____

>  <TORSDO>
F 0

$$$$
=
 OpenBabel11112417403D

 28 32  0  0  1  0  0  0  0  0999 V2000
  190.7530  174.0300  141.9620 C   0  0  0  0  0  0  0  0  0  0  0  0
  188.2240  178.5910  141.8660 F   0  0  0  0  0  0  0  0  0  0  0  0
  190.7960  174.9350  146.4230 O   0  0  0  0  0  0  0  0  0  0  0  0
  188.7870  172.1860  142.7250 C   0  0  0  0  0  3  0  0  0  0  0  0
  188.8500  176.0320  145.6770 N   0  0  0  0  0  0  0  0  0  0  0  0
  191.7480  174.9540  141.6410 O   0  0  0  0  0  0  0  0  0  0  0  0
  187.5470  177.2800  140.1650 F   0  0  0  0  0  0  0  0  0  0  0  0
  187.3820  177.5500  141.5100 C   0  0  0  0  0  0  0  0  0  0  0  0
  185.4870  177.9270  143.0720 C   0  0  0  0  0  0  0  0  0  0  0  0
  187.6930  176.2850  142.3280 C   0  0  2  0  0  3  0  0  0  0  0  0
  193.5340  174.4130  144.4740 O   0  0  0  0  0  0  0  0  0  0  0  0
  189.7400  176.7240  143.5780 C   0  0  1  0  0  3  0  0  0  0  0  0
  186.1850  177.2540  144.0750 O   0  0  0  0  0  0  0  0  0  0  0  0
  186.0070  177.9600  141.7460 N   0  0  0  0  0  2  0  0  0  0  0  0
  192.9650  175.1520  143.6890 C   0  0  0  0  0  0  0  0  0  0  0  0
  189.4700  174.4870  142.3080 C   0  0  0  0  0  0  0  0  0  0  0  0
  190.1770  175.5760  145.5310 C   0  0  0  0  0  0  0  0  0  0  0  0
  184.0710  178.6630  143.4120 S   0  0  0  0  0  0  0  0  0  0  0  0
  192.1770  176.3170  144.2020 C   0  0  0  0  0  2  0  0  0  0  0  0
  188.4960  173.5510  142.7020 C   0  0  0  0  0  3  0  0  0  0  0  0
  191.0420  172.6570  141.9940 C   0  0  0  0  0  3  0  0  0  0  0  0
  190.0600  171.7390  142.3690 C   0  0  0  0  0  3  0  0  0  0  0  0
  193.0460  174.8770  142.2170 C   0  0  0  0  0  2  0  0  0  0  0  0
  188.5510  176.9010  144.5480 C   0  0  1  0  0  3  0  0  0  0  0  0
  190.7640  175.9740  144.3080 N   0  0  0  0  0  0  0  0  0  0  0  0
  187.3150  176.4160  143.8110 C   0  0  2  0  0  3  0  0  0  0  0  0
  188.1120  176.0380  146.9300 C   0  0  0  0  0  1  0  0  0  0  0  0
  189.1900  175.9820  142.3370 C   0  0  1  0  0  3  0  0  0  0  0  0
  1 21  2  0  0  0  0
  1 16  1  0  0  0  0
  5 27  1  0  0  0  0
  6  1  1  0  0  0  0
  6 23  1  0  0  0  0
  7  8  1  0  0  0  0
  8 14  1  0  0  0  0
  8  2  1  0  0  0  0
  9 18  2  0  0  0  0
  9 13  1  0  0  0  0
 10  8  1  6  0  0  0
 10 28  1  0  0  0  0
 10 26  1  0  0  0  0
 12 25  1  1  0  0  0
 12 24  1  0  0  0  0
 14  9  1  0  0  0  0
 15 19  1  0  0  0  0
 15 11  2  0  0  0  0
 16 20  2  0  0  0  0
 17  5  1  0  0  0  0
 17  3  2  0  0  0  0
 19 25  1  0  0  0  0
 20  4  1  0  0  0  0
 21 22  1  0  0  0  0
 22  4  2  0  0  0  0
 23 15  1  0  0  0  0
 24  5  1  1  0  0  0
 25 17  1  0  0  0  0
 26 13  1  6  0  0  0
 26 24  1  0  0  0  0
 28 16  1  1  0  0  0
 28 12  1  0  0  0  0
M  END
>  <MODEL>
8

>  <REMARK>
 VINA RESULT:      -7.4      3.944      6.580
  Name = 
  0 active torsions:
  status: ('A' for Active; 'I' for Inactive)
                            x       y       z     vdW  Elec       q    Type
                         _______ _______ _______ _____ _____    ______ ____

>  <TORSDO>
F 0

$$$$
=
 OpenBabel11112417403D

 28 32  0  0  1  0  0  0  0  0999 V2000
  190.8390  174.3400  143.7390 C   0  0  0  0  0  0  0  0  0  0  0  0
  186.2110  176.0680  145.4130 F   0  0  0  0  0  0  0  0  0  0  0  0
  188.6780  174.5030  139.7370 O   0  0  0  0  0  0  0  0  0  0  0  0
  192.0950  176.6370  142.7420 C   0  0  0  0  0  3  0  0  0  0  0  0
  187.5970  176.1770  140.9930 N   0  0  0  0  0  0  0  0  0  0  0  0
  190.1940  173.1840  144.1800 O   0  0  0  0  0  0  0  0  0  0  0  0
  187.8600  176.8150  146.7510 F   0  0  0  0  0  0  0  0  0  0  0  0
  187.1870  177.0400  145.5660 C   0  0  0  0  0  0  0  0  0  0  0  0
  186.1160  178.9650  144.4170 C   0  0  0  0  0  0  0  0  0  0  0  0
  188.1860  177.0070  144.3960 C   0  0  2  0  0  3  0  0  0  0  0  0
  190.1130  171.7420  141.1100 O   0  0  0  0  0  0  0  0  0  0  0  0
  187.6790  175.0210  143.0750 C   0  0  1  0  0  3  0  0  0  0  0  0
  186.5520  178.4690  143.1870 O   0  0  0  0  0  0  0  0  0  0  0  0
  186.5450  178.3430  145.6250 N   0  0  0  0  0  2  0  0  0  0  0  0
  189.5680  172.1180  142.1340 C   0  0  0  0  0  0  0  0  0  0  0  0
  190.1320  175.5540  143.6960 C   0  0  0  0  0  0  0  0  0  0  0  0
  188.2500  174.9350  140.8410 C   0  0  0  0  0  0  0  0  0  0  0  0
  185.1300  180.2630  144.4720 S   0  0  0  0  0  0  0  0  0  0  0  0
  188.2090  172.7410  142.0670 C   0  0  0  0  0  2  0  0  0  0  0  0
  190.7710  176.6970  143.1800 C   0  0  0  0  0  3  0  0  0  0  0  0
  192.1680  174.2850  143.2910 C   0  0  0  0  0  3  0  0  0  0  0  0
  192.7950  175.4300  142.8000 C   0  0  0  0  0  3  0  0  0  0  0  0
  190.2710  171.9660  143.4500 C   0  0  0  0  0  2  0  0  0  0  0  0
  187.0660  176.2380  142.3470 C   0  0  1  0  0  3  0  0  0  0  0  0
  188.3120  174.1950  142.0450 N   0  0  0  0  0  0  0  0  0  0  0  0
  187.5750  177.4750  143.0670 C   0  0  2  0  0  3  0  0  0  0  0  0
  187.1230  177.0000  139.8920 C   0  0  0  0  0  1  0  0  0  0  0  0
  188.6710  175.5860  144.1190 C   0  0  1  0  0  3  0  0  0  0  0  0
  1  6  1  0  0  0  0
  2  8  1  0  0  0  0
  3 17  2  0  0  0  0
  4 22  2  0  0  0  0
  4 20  1  0  0  0  0
  8 14  1  0  0  0  0
  8  7  1  0  0  0  0
  9 18  2  0  0  0  0
  9 14  1  0  0  0  0
 10  8  1  1  0  0  0
 11 15  2  0  0  0  0
 12 25  1  6  0  0  0
 12 28  1  0  0  0  0
 13  9  1  0  0  0  0
 15 23  1  0  0  0  0
 16  1  1  0  0  0  0
 17  5  1  0  0  0  0
 17 25  1  0  0  0  0
 19 15  1  0  0  0  0
 20 16  2  0  0  0  0
 21  1  2  0  0  0  0
 22 21  1  0  0  0  0
 23  6  1  0  0  0  0
 24  5  1  6  0  0  0
 24 26  1  0  0  0  0
 24 12  1  0  0  0  0
 25 19  1  0  0  0  0
 26 13  1  1  0  0  0
 26 10  1  0  0  0  0
 27  5  1  0  0  0  0
 28 16  1  6  0  0  0
 28 10  1  0  0  0  0
M  END
>  <MODEL>
9

>  <REMARK>
 VINA RESULT:      -7.3      4.203      6.396
  Name = 
  0 active torsions:
  status: ('A' for Active; 'I' for Inactive)
                            x       y       z     vdW  Elec       q    Type
                         _______ _______ _______ _____ _____    ______ ____

>  <TORSDO>
F 0

$$$$
