=
 OpenBabel11112416363D

 32 37  0  0  1  0  0  0  0  0999 V2000
  184.5170  177.8820  146.5130 C   0  0  0  0  0  2  0  0  0  0  0  0
  189.2370  176.3780  144.9760 C   0  0  0  0  0  0  0  0  0  0  0  0
  188.4540  173.8510  140.7040 C   0  0  0  0  0  2  0  0  0  0  0  0
  189.6620  173.0030  141.0500 C   0  0  0  0  0  2  0  0  0  0  0  0
  191.6790  176.5730  145.9370 C   0  0  2  0  0  3  0  0  0  0  0  0
  192.9920  175.8250  145.7990 C   0  0  2  0  0  3  0  0  0  0  0  0
  187.3740  177.4370  146.0790 N   0  0  0  0  0  0  0  0  0  0  0  0
  186.9750  176.4100  143.8730 C   0  0  0  0  0  2  0  0  0  0  0  0
  194.8140  175.3730  144.5250 C   0  0  0  0  0  0  0  0  0  0  0  0
  185.0950  177.5220  145.1340 C   0  0  2  0  0  3  0  0  0  0  0  0
  187.8250  174.3550  141.9950 C   0  0  0  0  0  2  0  0  0  0  0  0
  188.3330  175.8670  143.9760 N   0  0  0  0  0  0  0  0  0  0  0  0
  188.8230  175.0050  142.9310 C   0  0  0  0  0  0  0  0  0  0  0  0
  191.1060  175.2970  143.8210 C   0  0  0  0  0  0  0  0  0  0  0  0
  195.3120  175.5900  145.8400 N   0  0  0  0  0  2  0  0  0  0  0  0
  185.5400  177.8690  147.6560 C   0  0  0  0  0  2  0  0  0  0  0  0
  186.3970  176.7160  145.2530 C   0  0  2  0  0  3  0  0  0  0  0  0
  194.2250  176.1780  146.6180 C   0  0  0  0  0  2  0  0  0  0  0  0
  186.9330  178.2840  147.1860 C   0  0  0  0  0  2  0  0  0  0  0  0
  190.7050  173.8870  141.7200 C   0  0  0  0  0  2  0  0  0  0  0  0
  190.1440  174.7120  142.8560 C   0  0  0  0  0  0  0  0  0  0  0  0
  192.5180  175.0600  143.6200 N   0  0  0  0  0  2  0  0  0  0  0  0
  188.7700  177.1510  145.9610 C   0  0  0  0  0  3  0  0  0  0  0  0
  191.1880  176.3670  147.2280 O   0  0  0  0  0  1  0  0  0  0  0  0
  195.5100  174.8860  143.5960 O   0  0  0  0  0  0  0  0  0  0  0  0
  190.6800  176.0400  144.8880 C   0  0  0  0  0  0  0  0  0  0  0  0
  193.4410  175.8830  144.3760 C   0  0  1  0  0  3  0  0  0  0  0  0
  185.3150  178.6980  144.4090 O   0  0  0  0  0  0  0  0  0  0  0  0
  184.0980  178.9650  143.7760 C   0  0  0  0  0  2  0  0  0  0  0  0
  184.1450  178.4740  142.3730 C   0  0  0  0  0  0  0  0  0  0  0  0
  185.3760  178.4980  141.6590 N   0  0  0  0  0  1  0  0  0  0  0  0
  182.7550  178.1630  141.5770 S   0  0  0  0  0  0  0  0  0  0  0  0
  1 16  1  0  0  0  0
  2 23  2  0  0  0  0
  3  4  1  0  0  0  0
  3 11  1  0  0  0  0
  4 20  1  0  0  0  0
  5 24  1  1  0  0  0
  6  5  1  0  0  0  0
  6 18  1  1  0  0  0
  7 19  1  0  0  0  0
  8 12  1  0  0  0  0
  9 15  1  0  0  0  0
 10 28  1  6  0  0  0
 10 17  1  0  0  0  0
 10  1  1  0  0  0  0
 11 13  1  0  0  0  0
 12  2  1  0  0  0  0
 13 12  1  0  0  0  0
 14 26  2  0  0  0  0
 15 18  1  0  0  0  0
 17  8  1  6  0  0  0
 17  7  1  0  0  0  0
 19 16  1  0  0  0  0
 20 21  1  0  0  0  0
 21 13  2  0  0  0  0
 21 14  1  0  0  0  0
 22 14  1  0  0  0  0
 23  7  1  0  0  0  0
 25  9  2  0  0  0  0
 26  2  1  0  0  0  0
 26  5  1  0  0  0  0
 27 22  1  6  0  0  0
 27  9  1  0  0  0  0
 27  6  1  0  0  0  0
 29 28  1  0  0  0  0
 30 29  1  0  0  0  0
 31 30  1  0  0  0  0
 32 30  2  0  0  0  0
M  END
>  <MODEL>
1

>  <REMARK>
 VINA RESULT:      -8.3      0.000      0.000
  Name = 
  3 active torsions:
  status: ('A' for Active; 'I' for Inactive)
    1  A    between atoms: C_10  and  O_20
    2  A    between atoms: O_20  and  C_29
    3  A    between atoms: C_29  and  C_30
                            x       y       z     vdW  Elec       q    Type
                         _______ _______ _______ _____ _____    ______ ____

>  <TORSDO>
F 3

$$$$
=
 OpenBabel11112416363D

 32 37  0  0  1  0  0  0  0  0999 V2000
  191.2220  172.3370  139.6190 C   0  0  0  0  0  2  0  0  0  0  0  0
  189.1110  175.3970  143.2360 C   0  0  0  0  0  0  0  0  0  0  0  0
  192.3710  175.3100  147.0580 C   0  0  0  0  0  2  0  0  0  0  0  0
  191.1940  175.4980  147.9930 C   0  0  0  0  0  2  0  0  0  0  0  0
  186.8700  176.7580  143.4740 C   0  0  2  0  0  3  0  0  0  0  0  0
  186.0070  177.2910  144.6030 C   0  0  2  0  0  3  0  0  0  0  0  0
  189.6530  174.2360  141.1950 N   0  0  0  0  0  0  0  0  0  0  0  0
  191.3830  174.3540  142.9480 C   0  0  0  0  0  2  0  0  0  0  0  0
  185.7260  178.8490  146.2280 C   0  0  0  0  0  0  0  0  0  0  0  0
  191.8270  173.1420  140.7820 C   0  0  2  0  0  3  0  0  0  0  0  0
  191.8910  174.5930  145.8040 C   0  0  0  0  0  2  0  0  0  0  0  0
  190.3460  174.9280  143.8110 N   0  0  0  0  0  0  0  0  0  0  0  0
  190.6680  175.2350  145.1820 C   0  0  0  0  0  0  0  0  0  0  0  0
  188.5980  176.5740  145.3210 C   0  0  0  0  0  0  0  0  0  0  0  0
  184.4600  178.7300  145.5900 N   0  0  0  0  0  2  0  0  0  0  0  0
  189.7100  172.5230  139.4340 C   0  0  0  0  0  2  0  0  0  0  0  0
  190.7670  173.5180  141.8280 C   0  0  2  0  0  3  0  0  0  0  0  0
  184.6700  177.9740  144.3580 C   0  0  0  0  0  2  0  0  0  0  0  0
  189.2510  173.9270  139.8240 C   0  0  0  0  0  2  0  0  0  0  0  0
  190.1830  176.4240  147.3290 C   0  0  0  0  0  2  0  0  0  0  0  0
  189.8320  176.0060  145.9190 C   0  0  0  0  0  0  0  0  0  0  0  0
  187.8100  177.4960  146.1080 N   0  0  0  0  0  2  0  0  0  0  0  0
  188.8040  175.0830  141.9740 C   0  0  0  0  0  3  0  0  0  0  0  0
  186.1760  175.7270  142.8370 O   0  0  0  0  0  1  0  0  0  0  0  0
  185.8960  179.4600  147.3150 O   0  0  0  0  0  0  0  0  0  0  0  0
  188.1990  176.2330  144.0580 C   0  0  0  0  0  0  0  0  0  0  0  0
  186.8010  178.2660  145.4080 C   0  0  1  0  0  3  0  0  0  0  0  0
  192.4400  174.2920  140.2730 O   0  0  0  0  0  0  0  0  0  0  0  0
  193.7630  173.9170  140.0280 C   0  0  0  0  0  2  0  0  0  0  0  0
  194.6480  174.4950  141.0750 C   0  0  0  0  0  0  0  0  0  0  0  0
  195.2380  173.6410  142.0480 N   0  0  0  0  0  1  0  0  0  0  0  0
  194.7270  176.1140  141.2650 S   0  0  0  0  0  0  0  0  0  0  0  0
  1 10  1  0  0  0  0
  2 12  1  0  0  0  0
  2 26  1  0  0  0  0
  3  4  1  0  0  0  0
  5 24  1  1  0  0  0
  5 26  1  0  0  0  0
  5  6  1  0  0  0  0
  6 18  1  6  0  0  0
  6 27  1  0  0  0  0
  7 17  1  0  0  0  0
  7 23  1  0  0  0  0
  8 12  1  0  0  0  0
  9 25  2  0  0  0  0
 10 28  1  6  0  0  0
 10 17  1  0  0  0  0
 11  3  1  0  0  0  0
 12 13  1  0  0  0  0
 13 11  1  0  0  0  0
 13 21  2  0  0  0  0
 14 21  1  0  0  0  0
 14 22  1  0  0  0  0
 15  9  1  0  0  0  0
 16  1  1  0  0  0  0
 16 19  1  0  0  0  0
 17  8  1  1  0  0  0
 18 15  1  0  0  0  0
 19  7  1  0  0  0  0
 20  4  1  0  0  0  0
 21 20  1  0  0  0  0
 23  2  2  0  0  0  0
 26 14  2  0  0  0  0
 27 22  1  1  0  0  0
 27  9  1  0  0  0  0
 29 28  1  0  0  0  0
 29 30  1  0  0  0  0
 30 32  2  0  0  0  0
 30 31  1  0  0  0  0
M  END
>  <MODEL>
2

>  <REMARK>
 VINA RESULT:      -7.7      3.133      7.972
  Name = 
  3 active torsions:
  status: ('A' for Active; 'I' for Inactive)
    1  A    between atoms: C_10  and  O_20
    2  A    between atoms: O_20  and  C_29
    3  A    between atoms: C_29  and  C_30
                            x       y       z     vdW  Elec       q    Type
                         _______ _______ _______ _____ _____    ______ ____

>  <TORSDO>
F 3

$$$$
=
 OpenBabel11112416363D

 32 37  0  0  1  0  0  0  0  0999 V2000
  185.4600  179.2850  143.3170 C   0  0  0  0  0  2  0  0  0  0  0  0
  188.7970  175.3140  143.3160 C   0  0  0  0  0  0  0  0  0  0  0  0
  191.6660  176.0430  147.3760 C   0  0  0  0  0  2  0  0  0  0  0  0
  192.7990  175.3730  146.6260 C   0  0  0  0  0  2  0  0  0  0  0  0
  189.2900  173.2720  141.7300 C   0  0  2  0  0  3  0  0  0  0  0  0
  190.4640  172.3600  141.4220 C   0  0  2  0  0  3  0  0  0  0  0  0
  186.9570  176.8100  142.8860 N   0  0  0  0  0  0  0  0  0  0  0  0
  188.1860  177.0740  145.0070 C   0  0  0  0  0  2  0  0  0  0  0  0
  191.7670  170.6250  142.0840 C   0  0  0  0  0  0  0  0  0  0  0  0
  186.2600  178.6000  144.4370 C   0  0  2  0  0  3  0  0  0  0  0  0
  190.7310  176.6970  146.3680 C   0  0  0  0  0  2  0  0  0  0  0  0
  189.1410  176.0970  144.4760 N   0  0  0  0  0  0  0  0  0  0  0  0
  190.3060  175.7620  145.2550 C   0  0  0  0  0  0  0  0  0  0  0  0
  190.6680  173.8080  143.7900 C   0  0  0  0  0  0  0  0  0  0  0  0
  191.4870  170.3900  140.7080 N   0  0  0  0  0  2  0  0  0  0  0  0
  185.6090  178.6320  141.9370 C   0  0  0  0  0  2  0  0  0  0  0  0
  187.4340  177.7800  143.8810 C   0  0  2  0  0  3  0  0  0  0  0  0
  190.4150  171.3060  140.3260 C   0  0  0  0  0  2  0  0  0  0  0  0
  185.8110  177.1200  142.0330 C   0  0  0  0  0  2  0  0  0  0  0  0
  192.2270  174.2470  145.7760 C   0  0  0  0  0  2  0  0  0  0  0  0
  191.0530  174.6800  144.9270 C   0  0  0  0  0  0  0  0  0  0  0  0
  191.4220  172.5950  143.5640 N   0  0  0  0  0  2  0  0  0  0  0  0
  187.7320  175.6490  142.5800 C   0  0  0  0  0  3  0  0  0  0  0  0
  189.0550  174.0800  140.6150 O   0  0  0  0  0  1  0  0  0  0  0  0
  192.6380  169.9870  142.7290 O   0  0  0  0  0  0  0  0  0  0  0  0
  189.6310  174.1370  142.9620 C   0  0  0  0  0  0  0  0  0  0  0  0
  190.8450  171.6190  142.6610 C   0  0  1  0  0  3  0  0  0  0  0  0
  185.4020  177.7820  145.1790 O   0  0  0  0  0  0  0  0  0  0  0  0
  184.8080  178.6340  146.1130 C   0  0  0  0  0  2  0  0  0  0  0  0
  185.5810  178.6000  147.3840 C   0  0  0  0  0  0  0  0  0  0  0  0
  186.1080  179.8080  147.9210 N   0  0  0  0  0  1  0  0  0  0  0  0
  186.0460  177.1670  148.0110 S   0  0  0  0  0  0  0  0  0  0  0  0
  1 10  1  0  0  0  0
  2 12  1  0  0  0  0
  4  3  1  0  0  0  0
  5 24  1  6  0  0  0
  5 26  1  0  0  0  0
  6 18  1  6  0  0  0
  6  5  1  0  0  0  0
  6 27  1  0  0  0  0
  7 17  1  0  0  0  0
  9 25  2  0  0  0  0
 10 28  1  6  0  0  0
 11  3  1  0  0  0  0
 12  8  1  0  0  0  0
 12 13  1  0  0  0  0
 13 11  1  0  0  0  0
 14 21  1  0  0  0  0
 15  9  1  0  0  0  0
 16 19  1  0  0  0  0
 16  1  1  0  0  0  0
 17 10  1  0  0  0  0
 17  8  1  1  0  0  0
 18 15  1  0  0  0  0
 19  7  1  0  0  0  0
 20  4  1  0  0  0  0
 21 13  2  0  0  0  0
 21 20  1  0  0  0  0
 22 14  1  0  0  0  0
 23  7  1  0  0  0  0
 23  2  2  0  0  0  0
 26  2  1  0  0  0  0
 26 14  2  0  0  0  0
 27  9  1  6  0  0  0
 27 22  1  0  0  0  0
 28 29  1  0  0  0  0
 29 30  1  0  0  0  0
 30 31  1  0  0  0  0
 30 32  2  0  0  0  0
M  END
>  <MODEL>
3

>  <REMARK>
 VINA RESULT:      -7.6      2.769      5.016
  Name = 
  3 active torsions:
  status: ('A' for Active; 'I' for Inactive)
    1  A    between atoms: C_10  and  O_20
    2  A    between atoms: O_20  and  C_29
    3  A    between atoms: C_29  and  C_30
                            x       y       z     vdW  Elec       q    Type
                         _______ _______ _______ _____ _____    ______ ____

>  <TORSDO>
F 3

$$$$
=
 OpenBabel11112416363D

 32 37  0  0  1  0  0  0  0  0999 V2000
  185.9610  177.3110  146.1130 C   0  0  0  0  0  2  0  0  0  0  0  0
  190.5370  175.6930  144.2830 C   0  0  0  0  0  0  0  0  0  0  0  0
  189.5090  173.7880  139.7490 C   0  0  0  0  0  2  0  0  0  0  0  0
  190.6580  172.8220  139.9560 C   0  0  0  0  0  2  0  0  0  0  0  0
  193.0010  175.5960  145.2010 C   0  0  2  0  0  3  0  0  0  0  0  0
  194.2560  174.7830  144.9390 C   0  0  2  0  0  3  0  0  0  0  0  0
  188.7720  176.7290  145.5570 N   0  0  0  0  0  0  0  0  0  0  0  0
  188.2660  176.0200  143.2500 C   0  0  0  0  0  2  0  0  0  0  0  0
  196.0210  174.3720  143.5730 C   0  0  0  0  0  0  0  0  0  0  0  0
  186.4910  177.0900  144.6860 C   0  0  2  0  0  3  0  0  0  0  0  0
  188.9370  174.1660  141.1080 C   0  0  0  0  0  2  0  0  0  0  0  0
  189.5830  175.3760  143.2510 N   0  0  0  0  0  0  0  0  0  0  0  0
  189.9940  174.6220  142.0930 C   0  0  0  0  0  0  0  0  0  0  0  0
  192.3060  174.6410  142.9570 C   0  0  0  0  0  0  0  0  0  0  0  0
  196.5540  174.3860  144.8930 N   0  0  0  0  0  2  0  0  0  0  0  0
  186.9990  177.0830  147.2190 C   0  0  0  0  0  2  0  0  0  0  0  0
  187.7330  176.1870  144.6710 C   0  0  2  0  0  3  0  0  0  0  0  0
  195.5230  174.9430  145.7650 C   0  0  0  0  0  2  0  0  0  0  0  0
  188.4100  177.4570  146.7710 C   0  0  0  0  0  2  0  0  0  0  0  0
  191.7720  173.5400  140.7060 C   0  0  0  0  0  2  0  0  0  0  0  0
  191.2890  174.2510  141.9500 C   0  0  0  0  0  0  0  0  0  0  0  0
  193.6940  174.3350  142.6930 N   0  0  0  0  0  2  0  0  0  0  0  0
  190.1420  176.3650  145.3690 C   0  0  0  0  0  3  0  0  0  0  0  0
  192.5180  175.2620  146.4680 O   0  0  0  0  0  1  0  0  0  0  0  0
  196.6650  173.9590  142.5740 O   0  0  0  0  0  0  0  0  0  0  0  0
  191.9510  175.2700  144.1190 C   0  0  0  0  0  0  0  0  0  0  0  0
  194.6850  174.9900  143.5230 C   0  0  1  0  0  3  0  0  0  0  0  0
  186.7820  178.3310  144.1090 O   0  0  0  0  0  0  0  0  0  0  0  0
  185.5400  178.8700  143.7650 C   0  0  0  0  0  2  0  0  0  0  0  0
  185.1520  178.4070  142.4060 C   0  0  0  0  0  0  0  0  0  0  0  0
  186.1430  178.2900  141.3920 N   0  0  0  0  0  1  0  0  0  0  0  0
  183.5730  178.2900  142.0110 S   0  0  0  0  0  0  0  0  0  0  0  0
  1 16  1  0  0  0  0
  2 23  2  0  0  0  0
  3  4  1  0  0  0  0
  3 11  1  0  0  0  0
  4 20  1  0  0  0  0
  5 24  1  1  0  0  0
  6  5  1  0  0  0  0
  6 18  1  1  0  0  0
  7 19  1  0  0  0  0
  8 12  1  0  0  0  0
  9 15  1  0  0  0  0
 10 28  1  1  0  0  0
 10  1  1  0  0  0  0
 11 13  1  0  0  0  0
 12  2  1  0  0  0  0
 13 12  1  0  0  0  0
 14 26  2  0  0  0  0
 15 18  1  0  0  0  0
 17  8  1  6  0  0  0
 17 10  1  0  0  0  0
 17  7  1  0  0  0  0
 19 16  1  0  0  0  0
 20 21  1  0  0  0  0
 21 13  2  0  0  0  0
 21 14  1  0  0  0  0
 22 14  1  0  0  0  0
 23  7  1  0  0  0  0
 25  9  2  0  0  0  0
 26  2  1  0  0  0  0
 26  5  1  0  0  0  0
 27 22  1  6  0  0  0
 27  9  1  0  0  0  0
 27  6  1  0  0  0  0
 29 28  1  0  0  0  0
 30 29  1  0  0  0  0
 31 30  1  0  0  0  0
 32 30  2  0  0  0  0
M  END
>  <MODEL>
4

>  <REMARK>
 VINA RESULT:      -7.4      1.309      1.603
  Name = 
  3 active torsions:
  status: ('A' for Active; 'I' for Inactive)
    1  A    between atoms: C_10  and  O_20
    2  A    between atoms: O_20  and  C_29
    3  A    between atoms: C_29  and  C_30
                            x       y       z     vdW  Elec       q    Type
                         _______ _______ _______ _____ _____    ______ ____

>  <TORSDO>
F 3

$$$$
=
 OpenBabel11112416363D

 32 37  0  0  1  0  0  0  0  0999 V2000
  187.0730  178.1870  142.5320 C   0  0  0  0  0  2  0  0  0  0  0  0
  190.4220  174.3860  143.6450 C   0  0  0  0  0  0  0  0  0  0  0  0
  193.9210  176.5580  146.5250 C   0  0  0  0  0  2  0  0  0  0  0  0
  194.9220  175.5760  145.9500 C   0  0  0  0  0  2  0  0  0  0  0  0
  190.6730  171.8490  142.9920 C   0  0  2  0  0  3  0  0  0  0  0  0
  191.7930  170.8270  142.9060 C   0  0  2  0  0  3  0  0  0  0  0  0
  188.5140  175.6740  142.9320 N   0  0  0  0  0  0  0  0  0  0  0  0
  190.0770  176.7170  144.5290 C   0  0  0  0  0  2  0  0  0  0  0  0
  193.2140  169.4470  144.0110 C   0  0  0  0  0  0  0  0  0  0  0  0
  188.0600  177.9790  143.6910 C   0  0  2  0  0  3  0  0  0  0  0  0
  192.8210  176.7910  145.4990 C   0  0  0  0  0  2  0  0  0  0  0  0
  190.9440  175.5560  144.3050 N   0  0  0  0  0  0  0  0  0  0  0  0
  192.2280  175.5060  144.9570 C   0  0  0  0  0  0  0  0  0  0  0  0
  192.3700  173.1060  144.3970 C   0  0  0  0  0  0  0  0  0  0  0  0
  192.7120  168.6840  142.9200 N   0  0  0  0  0  2  0  0  0  0  0  0
  186.9980  177.0170  141.5420 C   0  0  0  0  0  2  0  0  0  0  0  0
  189.1360  176.9380  143.3460 C   0  0  2  0  0  3  0  0  0  0  0  0
  191.5770  169.4200  142.3690 C   0  0  0  0  0  2  0  0  0  0  0  0
  187.2360  175.6700  142.2220 C   0  0  0  0  0  2  0  0  0  0  0  0
  194.2320  174.2340  145.7470 C   0  0  0  0  0  2  0  0  0  0  0  0
  192.9270  174.3450  144.9930 C   0  0  0  0  0  0  0  0  0  0  0  0
  193.0930  171.8670  144.5760 N   0  0  0  0  0  2  0  0  0  0  0  0
  189.2440  174.4480  143.0160 C   0  0  0  0  0  3  0  0  0  0  0  0
  190.2420  172.1390  141.6950 O   0  0  0  0  0  1  0  0  0  0  0  0
  194.1920  169.0830  144.7150 O   0  0  0  0  0  0  0  0  0  0  0  0
  191.2030  173.1230  143.6830 C   0  0  0  0  0  0  0  0  0  0  0  0
  192.3880  170.6400  144.2630 C   0  0  1  0  0  3  0  0  0  0  0  0
  187.3510  177.5870  144.8320 O   0  0  0  0  0  0  0  0  0  0  0  0
  186.2270  178.4160  144.8610 C   0  0  0  0  0  2  0  0  0  0  0  0
  185.3570  178.0400  146.0080 C   0  0  0  0  0  0  0  0  0  0  0  0
  184.0690  178.6290  146.1380 N   0  0  0  0  0  1  0  0  0  0  0  0
  185.9760  177.1690  147.2420 S   0  0  0  0  0  0  0  0  0  0  0  0
  1 10  1  0  0  0  0
  2 26  1  0  0  0  0
  2 12  1  0  0  0  0
  4  3  1  0  0  0  0
  5 24  1  6  0  0  0
  5 26  1  0  0  0  0
  6 18  1  1  0  0  0
  6  5  1  0  0  0  0
  6 27  1  0  0  0  0
  7 23  1  0  0  0  0
  7 17  1  0  0  0  0
  9 25  2  0  0  0  0
 10 28  1  1  0  0  0
 11  3  1  0  0  0  0
 12  8  1  0  0  0  0
 12 13  1  0  0  0  0
 13 21  2  0  0  0  0
 13 11  1  0  0  0  0
 14 22  1  0  0  0  0
 14 21  1  0  0  0  0
 15  9  1  0  0  0  0
 16 19  1  0  0  0  0
 16  1  1  0  0  0  0
 17 10  1  0  0  0  0
 17  8  1  1  0  0  0
 18 15  1  0  0  0  0
 19  7  1  0  0  0  0
 20  4  1  0  0  0  0
 21 20  1  0  0  0  0
 23  2  2  0  0  0  0
 26 14  2  0  0  0  0
 27  9  1  6  0  0  0
 27 22  1  0  0  0  0
 28 29  1  0  0  0  0
 29 30  1  0  0  0  0
 30 31  1  0  0  0  0
 30 32  2  0  0  0  0
M  END
>  <MODEL>
5

>  <REMARK>
 VINA RESULT:      -7.3      3.196      5.227
  Name = 
  3 active torsions:
  status: ('A' for Active; 'I' for Inactive)
    1  A    between atoms: C_10  and  O_20
    2  A    between atoms: O_20  and  C_29
    3  A    between atoms: C_29  and  C_30
                            x       y       z     vdW  Elec       q    Type
                         _______ _______ _______ _____ _____    ______ ____

>  <TORSDO>
F 3

$$$$
=
 OpenBabel11112416363D

 32 37  0  0  1  0  0  0  0  0999 V2000
  195.1870  174.3300  145.1040 C   0  0  0  0  0  2  0  0  0  0  0  0
  190.2220  175.8310  145.1380 C   0  0  0  0  0  0  0  0  0  0  0  0
  188.4750  174.6010  140.5910 C   0  0  0  0  0  2  0  0  0  0  0  0
  187.5350  175.7870  140.6930 C   0  0  0  0  0  2  0  0  0  0  0  0
  188.6410  177.0600  146.8460 C   0  0  2  0  0  3  0  0  0  0  0  0
  187.3750  177.8950  146.7880 C   0  0  2  0  0  3  0  0  0  0  0  0
  192.4790  175.2340  145.7370 N   0  0  0  0  0  0  0  0  0  0  0  0
  191.5990  174.4060  143.5870 C   0  0  0  0  0  2  0  0  0  0  0  0
  185.1240  177.9450  146.5040 C   0  0  0  0  0  0  0  0  0  0  0  0
  193.9560  173.8680  144.3060 C   0  0  2  0  0  3  0  0  0  0  0  0
  189.7180  174.8900  141.4190 C   0  0  0  0  0  2  0  0  0  0  0  0
  190.4380  175.2670  143.8300 N   0  0  0  0  0  0  0  0  0  0  0  0
  189.4030  175.3440  142.8300 C   0  0  0  0  0  0  0  0  0  0  0  0
  187.9310  176.4120  144.4990 C   0  0  0  0  0  0  0  0  0  0  0  0
  185.3880  178.7940  147.6150 N   0  0  0  0  0  2  0  0  0  0  0  0
  194.8920  175.3890  146.1730 C   0  0  0  0  0  2  0  0  0  0  0  0
  192.8260  174.9070  144.3480 C   0  0  2  0  0  3  0  0  0  0  0  0
  186.7710  178.5540  148.0190 C   0  0  0  0  0  2  0  0  0  0  0  0
  193.5010  175.2210  146.7820 C   0  0  0  0  0  2  0  0  0  0  0  0
  187.0690  175.9190  142.1370 C   0  0  0  0  0  2  0  0  0  0  0  0
  188.2070  175.9040  143.1330 C   0  0  0  0  0  0  0  0  0  0  0  0
  186.5980  176.8790  144.8070 N   0  0  0  0  0  2  0  0  0  0  0  0
  191.1970  175.7830  146.0520 C   0  0  0  0  0  3  0  0  0  0  0  0
  189.6980  177.8880  147.2300 O   0  0  0  0  0  1  0  0  0  0  0  0
  184.0100  177.8980  145.9220 O   0  0  0  0  0  0  0  0  0  0  0  0
  188.9100  176.4510  145.4540 C   0  0  0  0  0  0  0  0  0  0  0  0
  186.2730  177.0720  146.2060 C   0  0  1  0  0  3  0  0  0  0  0  0
  193.5120  172.6440  144.8180 O   0  0  0  0  0  0  0  0  0  0  0  0
  194.6740  171.9720  145.2070 C   0  0  0  0  0  2  0  0  0  0  0  0
  194.3770  170.5280  145.3990 C   0  0  0  0  0  0  0  0  0  0  0  0
  195.1090  169.7800  146.3630 N   0  0  0  0  0  1  0  0  0  0  0  0
  193.4130  169.7510  144.3360 S   0  0  0  0  0  0  0  0  0  0  0  0
  1 16  1  0  0  0  0
  2 26  1  0  0  0  0
  2 23  2  0  0  0  0
  3  4  1  0  0  0  0
  3 11  1  0  0  0  0
  4 20  1  0  0  0  0
  5 24  1  6  0  0  0
  6  5  1  0  0  0  0
  6 18  1  1  0  0  0
  7 23  1  0  0  0  0
  7 19  1  0  0  0  0
  8 12  1  0  0  0  0
  9 15  1  0  0  0  0
 10 17  1  0  0  0  0
 10 28  1  1  0  0  0
 10  1  1  0  0  0  0
 11 13  1  0  0  0  0
 12  2  1  0  0  0  0
 13 21  2  0  0  0  0
 13 12  1  0  0  0  0
 14 22  1  0  0  0  0
 14 26  2  0  0  0  0
 15 18  1  0  0  0  0
 16 19  1  0  0  0  0
 17  8  1  1  0  0  0
 17  7  1  0  0  0  0
 20 21  1  0  0  0  0
 21 14  1  0  0  0  0
 25  9  2  0  0  0  0
 26  5  1  0  0  0  0
 27 22  1  6  0  0  0
 27  9  1  0  0  0  0
 27  6  1  0  0  0  0
 28 29  1  0  0  0  0
 29 30  1  0  0  0  0
 30 31  1  0  0  0  0
 32 30  2  0  0  0  0
M  END
>  <MODEL>
6

>  <REMARK>
 VINA RESULT:      -7.2      3.207      7.793
  Name = 
  3 active torsions:
  status: ('A' for Active; 'I' for Inactive)
    1  A    between atoms: C_10  and  O_20
    2  A    between atoms: O_20  and  C_29
    3  A    between atoms: C_29  and  C_30
                            x       y       z     vdW  Elec       q    Type
                         _______ _______ _______ _____ _____    ______ ____

>  <TORSDO>
F 3

$$$$
=
 OpenBabel11112416363D

 32 37  0  0  1  0  0  0  0  0999 V2000
  192.6960  172.8820  142.2450 C   0  0  0  0  0  2  0  0  0  0  0  0
  188.5190  175.6230  143.6380 C   0  0  0  0  0  0  0  0  0  0  0  0
  186.2560  176.8080  139.3110 C   0  0  0  0  0  2  0  0  0  0  0  0
  185.7690  178.0790  139.9780 C   0  0  0  0  0  2  0  0  0  0  0  0
  187.5150  176.5000  145.9070 C   0  0  2  0  0  3  0  0  0  0  0  0
  186.5980  177.6220  146.3590 C   0  0  2  0  0  3  0  0  0  0  0  0
  190.4740  174.2150  143.6010 N   0  0  0  0  0  0  0  0  0  0  0  0
  189.2720  174.5740  141.4780 C   0  0  0  0  0  2  0  0  0  0  0  0
  184.4810  178.4270  146.4940 C   0  0  0  0  0  0  0  0  0  0  0  0
  191.3460  173.1420  141.5560 C   0  0  2  0  0  3  0  0  0  0  0  0
  187.5610  176.3800  139.9660 C   0  0  0  0  0  2  0  0  0  0  0  0
  188.4750  175.5720  142.1980 N   0  0  0  0  0  0  0  0  0  0  0  0
  187.4800  176.3260  141.4780 C   0  0  0  0  0  0  0  0  0  0  0  0
  186.5240  177.0440  143.6370 C   0  0  0  0  0  0  0  0  0  0  0  0
  185.0630  178.6660  147.7710 N   0  0  0  0  0  2  0  0  0  0  0  0
  192.8180  173.4830  143.6510 C   0  0  0  0  0  2  0  0  0  0  0  0
  190.6280  174.3640  142.1480 C   0  0  2  0  0  3  0  0  0  0  0  0
  186.3040  177.8990  147.8260 C   0  0  0  0  0  2  0  0  0  0  0  0
  191.4800  173.5040  144.3880 C   0  0  0  0  0  2  0  0  0  0  0  0
  185.4400  177.7730  141.4330 C   0  0  0  0  0  2  0  0  0  0  0  0
  186.5530  177.0460  142.1540 C   0  0  0  0  0  0  0  0  0  0  0  0
  185.4370  177.7210  144.3090 N   0  0  0  0  0  2  0  0  0  0  0  0
  189.4630  174.9460  144.2990 C   0  0  0  0  0  3  0  0  0  0  0  0
  188.8040  176.7710  146.3740 O   0  0  0  0  0  1  0  0  0  0  0  0
  183.3890  178.9350  146.1280 O   0  0  0  0  0  0  0  0  0  0  0  0
  187.5030  176.4260  144.3660 C   0  0  0  0  0  0  0  0  0  0  0  0
  185.2590  177.4450  145.7200 C   0  0  1  0  0  3  0  0  0  0  0  0
  190.5450  172.0010  141.6730 O   0  0  0  0  0  0  0  0  0  0  0  0
  191.0600  171.1000  140.7370 C   0  0  0  0  0  2  0  0  0  0  0  0
  190.6820  171.5330  139.3650 C   0  0  0  0  0  0  0  0  0  0  0  0
  189.3080  171.6740  139.0250 N   0  0  0  0  0  1  0  0  0  0  0  0
  191.8150  171.5850  138.1920 S   0  0  0  0  0  0  0  0  0  0  0  0
  1 16  1  0  0  0  0
  2 23  2  0  0  0  0
  2 26  1  0  0  0  0
  3 11  1  0  0  0  0
  3  4  1  0  0  0  0
  4 20  1  0  0  0  0
  5  6  1  0  0  0  0
  5 24  1  6  0  0  0
  6 18  1  1  0  0  0
  7 23  1  0  0  0  0
  7 19  1  0  0  0  0
  8 12  1  0  0  0  0
  9 15  1  0  0  0  0
 10 28  1  1  0  0  0
 10 17  1  0  0  0  0
 10  1  1  0  0  0  0
 11 13  1  0  0  0  0
 12  2  1  0  0  0  0
 13 21  2  0  0  0  0
 13 12  1  0  0  0  0
 14 22  1  0  0  0  0
 14 26  2  0  0  0  0
 15 18  1  0  0  0  0
 16 19  1  0  0  0  0
 17  8  1  6  0  0  0
 17  7  1  0  0  0  0
 20 21  1  0  0  0  0
 21 14  1  0  0  0  0
 25  9  2  0  0  0  0
 26  5  1  0  0  0  0
 27 22  1  6  0  0  0
 27  6  1  0  0  0  0
 27  9  1  0  0  0  0
 29 28  1  0  0  0  0
 30 29  1  0  0  0  0
 31 30  1  0  0  0  0
 32 30  2  0  0  0  0
M  END
>  <MODEL>
7

>  <REMARK>
 VINA RESULT:      -7.0      3.240      7.403
  Name = 
  3 active torsions:
  status: ('A' for Active; 'I' for Inactive)
    1  A    between atoms: C_10  and  O_20
    2  A    between atoms: O_20  and  C_29
    3  A    between atoms: C_29  and  C_30
                            x       y       z     vdW  Elec       q    Type
                         _______ _______ _______ _____ _____    ______ ____

>  <TORSDO>
F 3

$$$$
=
 OpenBabel11112416363D

 32 37  0  0  1  0  0  0  0  0999 V2000
  187.1670  176.7600  145.9860 C   0  0  0  0  0  2  0  0  0  0  0  0
  191.4400  175.7910  143.2110 C   0  0  0  0  0  0  0  0  0  0  0  0
  189.8750  172.9080  139.4040 C   0  0  0  0  0  2  0  0  0  0  0  0
  191.2410  172.2510  139.4140 C   0  0  0  0  0  2  0  0  0  0  0  0
  193.9980  176.3680  143.4330 C   0  0  2  0  0  3  0  0  0  0  0  0
  195.3150  175.7910  142.9470 C   0  0  2  0  0  3  0  0  0  0  0  0
  189.8240  176.6660  144.7700 N   0  0  0  0  0  0  0  0  0  0  0  0
  188.9810  175.4530  142.7960 C   0  0  0  0  0  2  0  0  0  0  0  0
  196.7570  175.4990  141.2200 C   0  0  0  0  0  0  0  0  0  0  0  0
  187.3850  176.3900  144.5100 C   0  0  2  0  0  3  0  0  0  0  0  0
  189.5630  173.4090  140.8070 C   0  0  0  0  0  2  0  0  0  0  0  0
  190.3770  175.1010  142.5230 N   0  0  0  0  0  0  0  0  0  0  0  0
  190.6770  174.2440  141.4040 C   0  0  0  0  0  0  0  0  0  0  0  0
  193.0510  174.8920  141.6010 C   0  0  0  0  0  0  0  0  0  0  0  0
  197.5640  175.8660  142.3340 N   0  0  0  0  0  2  0  0  0  0  0  0
  188.4580  176.9570  146.7910 C   0  0  0  0  0  2  0  0  0  0  0  0
  188.7710  175.7710  144.2750 C   0  0  2  0  0  3  0  0  0  0  0  0
  196.6630  176.3550  143.3730 C   0  0  0  0  0  2  0  0  0  0  0  0
  189.5900  177.5190  145.9340 C   0  0  0  0  0  2  0  0  0  0  0  0
  192.2900  173.3070  139.7380 C   0  0  0  0  0  2  0  0  0  0  0  0
  191.9530  174.1230  140.9650 C   0  0  0  0  0  0  0  0  0  0  0  0
  194.3700  174.8290  141.0130 N   0  0  0  0  0  2  0  0  0  0  0  0
  191.1580  176.5590  144.2680 C   0  0  0  0  0  3  0  0  0  0  0  0
  193.9200  176.1840  144.8160 O   0  0  0  0  0  1  0  0  0  0  0  0
  197.2300  175.0470  140.1450 O   0  0  0  0  0  0  0  0  0  0  0  0
  192.8350  175.6400  142.7250 C   0  0  0  0  0  0  0  0  0  0  0  0
  195.3380  175.8140  141.4540 C   0  0  1  0  0  3  0  0  0  0  0  0
  187.2230  177.5340  143.7220 O   0  0  0  0  0  0  0  0  0  0  0  0
  186.0610  177.3010  142.9810 C   0  0  0  0  0  2  0  0  0  0  0  0
  185.0400  178.3300  143.3150 C   0  0  0  0  0  0  0  0  0  0  0  0
  183.7390  178.2420  142.7440 N   0  0  0  0  0  1  0  0  0  0  0  0
  185.4840  179.6840  144.1100 S   0  0  0  0  0  0  0  0  0  0  0  0
  1 16  1  0  0  0  0
  2 23  2  0  0  0  0
  3  4  1  0  0  0  0
  3 11  1  0  0  0  0
  4 20  1  0  0  0  0
  5 24  1  1  0  0  0
  6 18  1  1  0  0  0
  6  5  1  0  0  0  0
  7 19  1  0  0  0  0
  9 27  1  0  0  0  0
  9 15  1  0  0  0  0
 10 28  1  6  0  0  0
 10  1  1  0  0  0  0
 11 13  1  0  0  0  0
 12  8  1  0  0  0  0
 12  2  1  0  0  0  0
 13 12  1  0  0  0  0
 14 26  2  0  0  0  0
 15 18  1  0  0  0  0
 17  8  1  6  0  0  0
 17 10  1  0  0  0  0
 17  7  1  0  0  0  0
 19 16  1  0  0  0  0
 20 21  1  0  0  0  0
 21 13  2  0  0  0  0
 21 14  1  0  0  0  0
 22 14  1  0  0  0  0
 23  7  1  0  0  0  0
 25  9  2  0  0  0  0
 26  2  1  0  0  0  0
 26  5  1  0  0  0  0
 27 22  1  6  0  0  0
 27  6  1  0  0  0  0
 29 30  1  0  0  0  0
 29 28  1  0  0  0  0
 30 32  2  0  0  0  0
 31 30  1  0  0  0  0
M  END
>  <MODEL>
8

>  <REMARK>
 VINA RESULT:      -6.9      2.205      3.032
  Name = 
  3 active torsions:
  status: ('A' for Active; 'I' for Inactive)
    1  A    between atoms: C_10  and  O_20
    2  A    between atoms: O_20  and  C_29
    3  A    between atoms: C_29  and  C_30
                            x       y       z     vdW  Elec       q    Type
                         _______ _______ _______ _____ _____    ______ ____

>  <TORSDO>
F 3

$$$$
=
 OpenBabel11112416363D

 32 37  0  0  1  0  0  0  0  0999 V2000
  189.5940  175.1910  147.4450 C   0  0  0  0  0  2  0  0  0  0  0  0
  192.2980  174.9610  143.0250 C   0  0  0  0  0  0  0  0  0  0  0  0
  189.1930  172.7840  139.7290 C   0  0  0  0  0  2  0  0  0  0  0  0
  190.4150  172.2000  139.0490 C   0  0  0  0  0  2  0  0  0  0  0  0
  194.7390  175.6020  142.2770 C   0  0  2  0  0  3  0  0  0  0  0  0
  195.7150  175.1890  141.1910 C   0  0  2  0  0  3  0  0  0  0  0  0
  191.5060  175.4510  145.2470 N   0  0  0  0  0  0  0  0  0  0  0  0
  189.8770  174.5970  143.6050 C   0  0  0  0  0  2  0  0  0  0  0  0
  196.3010  175.2960  139.0020 C   0  0  0  0  0  0  0  0  0  0  0  0
  189.1690  175.1180  145.9690 C   0  0  2  0  0  3  0  0  0  0  0  0
  189.5080  172.9950  141.2030 C   0  0  0  0  0  2  0  0  0  0  0  0
  191.0210  174.3670  142.7190 N   0  0  0  0  0  0  0  0  0  0  0  0
  190.7990  173.7520  141.4340 C   0  0  0  0  0  0  0  0  0  0  0  0
  193.0650  174.4590  140.7540 C   0  0  0  0  0  0  0  0  0  0  0  0
  197.5090  175.4820  139.7300 N   0  0  0  0  0  2  0  0  0  0  0  0
  191.1090  175.2900  147.6670 C   0  0  0  0  0  2  0  0  0  0  0  0
  190.3090  174.6180  145.0700 C   0  0  2  0  0  3  0  0  0  0  0  0
  197.1370  175.7240  141.1220 C   0  0  0  0  0  2  0  0  0  0  0  0
  191.8060  176.0560  146.5440 C   0  0  0  0  0  2  0  0  0  0  0  0
  191.5420  173.2220  139.1050 C   0  0  0  0  0  2  0  0  0  0  0  0
  191.7740  173.7750  140.4930 C   0  0  0  0  0  0  0  0  0  0  0  0
  194.0190  174.5690  139.6740 N   0  0  0  0  0  2  0  0  0  0  0  0
  192.5080  175.5030  144.2290 C   0  0  0  0  0  3  0  0  0  0  0  0
  195.2330  175.1570  143.5060 O   0  0  0  0  0  1  0  0  0  0  0  0
  196.2700  175.0790  137.7620 O   0  0  0  0  0  0  0  0  0  0  0  0
  193.3610  174.9700  141.9880 C   0  0  0  0  0  0  0  0  0  0  0  0
  195.1180  175.4960  139.8560 C   0  0  1  0  0  3  0  0  0  0  0  0
  188.7380  176.3820  145.5540 O   0  0  0  0  0  0  0  0  0  0  0  0
  187.7710  176.7600  146.4880 C   0  0  0  0  0  2  0  0  0  0  0  0
  186.4700  176.9790  145.8010 C   0  0  0  0  0  0  0  0  0  0  0  0
  185.2540  176.7860  146.5160 N   0  0  0  0  0  1  0  0  0  0  0  0
  186.4330  177.1770  144.1810 S   0  0  0  0  0  0  0  0  0  0  0  0
  1 16  1  0  0  0  0
  2 23  2  0  0  0  0
  3 11  1  0  0  0  0
  4 20  1  0  0  0  0
  4  3  1  0  0  0  0
  5 24  1  1  0  0  0
  6 18  1  1  0  0  0
  6  5  1  0  0  0  0
  7 19  1  0  0  0  0
  9 15  1  0  0  0  0
 10 28  1  6  0  0  0
 10  1  1  0  0  0  0
 11 13  1  0  0  0  0
 12  2  1  0  0  0  0
 12  8  1  0  0  0  0
 13 12  1  0  0  0  0
 14 26  2  0  0  0  0
 15 18  1  0  0  0  0
 17  8  1  6  0  0  0
 17  7  1  0  0  0  0
 17 10  1  0  0  0  0
 19 16  1  0  0  0  0
 20 21  1  0  0  0  0
 21 14  1  0  0  0  0
 21 13  2  0  0  0  0
 22 27  1  0  0  0  0
 22 14  1  0  0  0  0
 23  7  1  0  0  0  0
 25  9  2  0  0  0  0
 26  5  1  0  0  0  0
 26  2  1  0  0  0  0
 27  9  1  6  0  0  0
 27  6  1  0  0  0  0
 28 29  1  0  0  0  0
 30 29  1  0  0  0  0
 30 31  1  0  0  0  0
 32 30  2  0  0  0  0
M  END
>  <MODEL>
9

>  <REMARK>
 VINA RESULT:      -6.7      2.947      4.600
  Name = 
  3 active torsions:
  status: ('A' for Active; 'I' for Inactive)
    1  A    between atoms: C_10  and  O_20
    2  A    between atoms: O_20  and  C_29
    3  A    between atoms: C_29  and  C_30
                            x       y       z     vdW  Elec       q    Type
                         _______ _______ _______ _____ _____    ______ ____

>  <TORSDO>
F 3

$$$$
