=
 OpenBabel11112417503D

 34 40  0  0  1  0  0  0  0  0999 V2000
  189.5470  174.8380  144.7630 C   0  0  0  0  0  0  0  0  0  0  0  0
  190.0830  173.0870  143.0820 C   0  0  0  0  0  2  0  0  0  0  0  0
  184.4470  178.6110  146.2140 C   0  0  1  0  0  3  0  0  0  0  0  0
  188.0730  176.1810  146.1450 C   0  0  0  0  0  0  0  0  0  0  0  0
  186.7720  178.1030  145.0600 C   0  0  2  0  0  3  0  0  0  0  0  0
  185.2430  179.8490  144.2660 C   0  0  0  0  0  2  0  0  0  0  0  0
  183.9880  177.3070  146.1680 F   0  0  0  0  0  0  0  0  0  0  0  0
  186.4110  179.3340  147.7340 C   0  0  0  0  0  2  0  0  0  0  0  0
  189.6510  175.2650  142.2400 C   0  0  2  0  0  3  0  0  0  0  0  0
  187.9890  174.9950  139.5090 C   0  0  0  0  0  2  0  0  0  0  0  0
  186.8160  177.2260  143.8170 C   0  0  0  0  0  2  0  0  0  0  0  0
  187.3530  178.1420  147.5450 C   0  0  0  0  0  2  0  0  0  0  0  0
  188.2960  175.8280  142.4270 N   0  0  1  0  0  0  0  0  0  0  0  0
  190.2520  172.9890  141.6950 O   0  0  0  0  0  0  0  0  0  0  0  0
  187.0270  177.2610  146.3280 C   0  0  2  0  0  3  0  0  0  0  0  0
  184.9340  178.9450  147.6350 C   0  0  0  0  0  2  0  0  0  0  0  0
  188.3730  173.8550  140.4420 C   0  0  2  0  0  3  0  0  0  0  0  0
  188.5990  175.8610  144.8710 C   0  0  0  0  0  0  0  0  0  0  0  0
  185.4570  178.8480  145.1170 C   0  0  0  0  0  0  0  0  0  0  0  0
  188.2270  176.6550  143.6440 C   0  0  2  0  0  3  0  0  0  0  0  0
  189.3910  174.3920  147.0940 C   0  0  0  0  0  3  0  0  0  0  0  0
  187.2130  176.0690  140.2510 C   0  0  0  0  0  2  0  0  0  0  0  0
  188.4560  175.4100  147.2500 C   0  0  0  0  0  3  0  0  0  0  0  0
  188.0860  176.7350  141.2990 C   0  0  0  0  0  2  0  0  0  0  0  0
  189.7040  174.1690  141.1490 C   0  0  1  0  0  3  0  0  0  0  0  0
  189.9210  174.1380  145.8700 N   0  0  0  0  0  0  0  0  0  0  0  0
  190.2060  174.5400  143.4520 C   0  0  1  0  0  3  0  0  0  0  0  0
  188.4950  172.6830  139.6890 O   0  0  0  0  0  0  0  0  0  0  0  0
  188.4850  173.1100  138.3600 C   0  0  0  0  0  2  0  0  0  0  0  0
  191.7360  173.1460  138.4160 O   0  0  0  0  0  0  0  0  0  0  0  0
  190.2110  171.3430  138.4130 C   0  0  0  0  0  2  0  0  0  0  0  0
  189.6220  172.4570  137.5960 C   0  0  2  0  0  3  0  0  0  0  0  0
  191.6480  171.7610  138.6130 C   0  0  0  0  0  2  0  0  0  0  0  0
  190.7610  173.4400  137.4510 C   0  0  0  0  0  2  0  0  0  0  0  0
  1 18  2  0  0  0  0
  1 26  1  0  0  0  0
  2 27  1  0  0  0  0
  3  7  1  1  0  0  0
  3 16  1  0  0  0  0
  4 15  1  0  0  0  0
  4 23  2  0  0  0  0
  5 11  1  6  0  0  0
  5 19  1  0  0  0  0
  5 15  1  0  0  0  0
  6 19  2  0  0  0  0
  9 13  1  0  0  0  0
  9 27  1  0  0  0  0
 10 22  1  0  0  0  0
 10 17  1  0  0  0  0
 12  8  1  0  0  0  0
 13 20  1  0  0  0  0
 14  2  1  0  0  0  0
 15 12  1  0  0  0  0
 16  8  1  0  0  0  0
 17 25  1  0  0  0  0
 18  4  1  0  0  0  0
 19  3  1  0  0  0  0
 20 11  1  0  0  0  0
 20 18  1  0  0  0  0
 21 23  1  0  0  0  0
 22 24  1  0  0  0  0
 24 13  1  0  0  0  0
 25 14  1  0  0  0  0
 25  9  1  0  0  0  0
 26 21  2  0  0  0  0
 27  1  1  0  0  0  0
 28 17  1  0  0  0  0
 29 28  1  0  0  0  0
 30 33  1  0  0  0  0
 31 33  1  0  0  0  0
 32 29  1  0  0  0  0
 32 31  1  0  0  0  0
 34 32  1  0  0  0  0
 34 30  1  0  0  0  0
M  END
>  <MODEL>
1

>  <REMARK>
 VINA RESULT:      -8.5      0.000      0.000
  Name = 
  3 active torsions:
  status: ('A' for Active; 'I' for Inactive)
    1  A    between atoms: C_17  and  O_28
    2  A    between atoms: O_28  and  C_29
    3  A    between atoms: C_29  and  C_32
                            x       y       z     vdW  Elec       q    Type
                         _______ _______ _______ _____ _____    ______ ____

>  <TORSDO>
F 3

$$$$
=
 OpenBabel11112417503D

 34 40  0  0  1  0  0  0  0  0999 V2000
  191.9880  176.1650  145.9760 C   0  0  0  0  0  0  0  0  0  0  0  0
  189.8730  177.2650  146.6810 C   0  0  0  0  0  2  0  0  0  0  0  0
  195.5450  175.7760  140.5400 C   0  0  1  0  0  3  0  0  0  0  0  0
  193.9760  175.8930  144.6120 C   0  0  0  0  0  0  0  0  0  0  0  0
  193.7360  174.9020  142.2620 C   0  0  2  0  0  3  0  0  0  0  0  0
  193.7900  174.1980  139.9130 C   0  0  0  0  0  2  0  0  0  0  0  0
  195.3250  177.1180  140.7870 F   0  0  0  0  0  0  0  0  0  0  0  0
  196.6190  174.2030  142.2910 C   0  0  0  0  0  2  0  0  0  0  0  0
  189.6910  175.6080  144.9880 C   0  0  2  0  0  3  0  0  0  0  0  0
  187.5050  176.5710  142.8460 C   0  0  0  0  0  2  0  0  0  0  0  0
  192.3600  175.5500  142.2960 C   0  0  0  0  0  2  0  0  0  0  0  0
  195.9230  174.6970  143.5620 C   0  0  0  0  0  2  0  0  0  0  0  0
  190.3510  175.8660  143.6890 N   0  0  1  0  0  0  0  0  0  0  0  0
  188.5060  177.1800  146.3880 O   0  0  0  0  0  0  0  0  0  0  0  0
  194.6670  175.5480  143.3090 C   0  0  2  0  0  3  0  0  0  0  0  0
  196.8250  175.3120  141.2570 C   0  0  0  0  0  2  0  0  0  0  0  0
  188.0200  177.3810  144.0270 C   0  0  2  0  0  3  0  0  0  0  0  0
  192.5710  175.8110  144.7540 C   0  0  0  0  0  0  0  0  0  0  0  0
  194.3040  174.9770  140.8620 C   0  0  0  0  0  0  0  0  0  0  0  0
  191.6980  175.2710  143.6490 C   0  0  2  0  0  3  0  0  0  0  0  0
  194.1130  176.7540  146.8660 C   0  0  0  0  0  3  0  0  0  0  0  0
  188.6490  176.1180  141.9550 C   0  0  0  0  0  2  0  0  0  0  0  0
  194.7370  176.4000  145.6730 C   0  0  0  0  0  3  0  0  0  0  0  0
  189.5540  175.1490  142.6940 C   0  0  0  0  0  2  0  0  0  0  0  0
  188.4060  176.4460  145.1880 C   0  0  1  0  0  3  0  0  0  0  0  0
  192.7680  176.6180  146.9960 N   0  0  0  0  0  0  0  0  0  0  0  0
  190.5180  175.9930  146.2010 C   0  0  1  0  0  3  0  0  0  0  0  0
  187.0160  178.2630  144.4360 O   0  0  0  0  0  0  0  0  0  0  0  0
  185.8270  177.5510  144.2720 C   0  0  0  0  0  2  0  0  0  0  0  0
  185.6850  177.4190  147.5180 O   0  0  0  0  0  0  0  0  0  0  0  0
  185.2780  179.2030  146.0260 C   0  0  0  0  0  2  0  0  0  0  0  0
  184.8420  177.9290  145.3630 C   0  0  2  0  0  3  0  0  0  0  0  0
  185.4950  178.8070  147.4670 C   0  0  0  0  0  2  0  0  0  0  0  0
  184.9040  176.9040  146.4730 C   0  0  0  0  0  2  0  0  0  0  0  0
  1 27  1  0  0  0  0
  1 26  1  0  0  0  0
  3  7  1  1  0  0  0
  3 19  1  0  0  0  0
  3 16  1  0  0  0  0
  4 18  1  0  0  0  0
  4 23  2  0  0  0  0
  5 11  1  6  0  0  0
  5 15  1  0  0  0  0
  6 19  2  0  0  0  0
  8 12  1  0  0  0  0
  9 25  1  0  0  0  0
  9 27  1  0  0  0  0
 10 17  1  0  0  0  0
 11 20  1  0  0  0  0
 13  9  1  0  0  0  0
 14  2  1  0  0  0  0
 15 12  1  0  0  0  0
 15  4  1  0  0  0  0
 16  8  1  0  0  0  0
 17 28  1  0  0  0  0
 17 25  1  0  0  0  0
 18  1  2  0  0  0  0
 19  5  1  0  0  0  0
 20 13  1  0  0  0  0
 20 18  1  0  0  0  0
 21 26  2  0  0  0  0
 22 24  1  0  0  0  0
 22 10  1  0  0  0  0
 23 21  1  0  0  0  0
 24 13  1  0  0  0  0
 25 14  1  0  0  0  0
 27  2  1  0  0  0  0
 29 28  1  0  0  0  0
 29 32  1  0  0  0  0
 31 33  1  0  0  0  0
 32 31  1  0  0  0  0
 32 34  1  0  0  0  0
 33 30  1  0  0  0  0
 34 30  1  0  0  0  0
M  END
>  <MODEL>
2

>  <REMARK>
 VINA RESULT:      -8.3      4.505      8.269
  Name = 
  3 active torsions:
  status: ('A' for Active; 'I' for Inactive)
    1  A    between atoms: C_17  and  O_28
    2  A    between atoms: O_28  and  C_29
    3  A    between atoms: C_29  and  C_32
                            x       y       z     vdW  Elec       q    Type
                         _______ _______ _______ _____ _____    ______ ____

>  <TORSDO>
F 3

$$$$
=
 OpenBabel11112417503D

 34 40  0  0  1  0  0  0  0  0999 V2000
  189.9010  175.0250  142.2020 C   0  0  0  0  0  0  0  0  0  0  0  0
  187.5800  175.6050  142.8790 C   0  0  0  0  0  2  0  0  0  0  0  0
  195.2000  172.5660  145.0710 C   0  0  1  0  0  3  0  0  0  0  0  0
  192.0100  173.8380  142.3760 C   0  0  0  0  0  0  0  0  0  0  0  0
  193.6790  174.5420  144.1870 C   0  0  2  0  0  3  0  0  0  0  0  0
  195.3630  174.8400  145.9470 C   0  0  0  0  0  2  0  0  0  0  0  0
  194.1530  171.7050  145.3440 F   0  0  0  0  0  0  0  0  0  0  0  0
  195.8540  173.2290  142.6570 C   0  0  0  0  0  2  0  0  0  0  0  0
  189.3250  176.8360  143.9200 C   0  0  2  0  0  3  0  0  0  0  0  0
  188.5440  177.3180  146.9940 C   0  0  0  0  0  2  0  0  0  0  0  0
  192.4320  174.9330  144.9670 C   0  0  0  0  0  2  0  0  0  0  0  0
  194.4650  173.4090  142.0400 C   0  0  0  0  0  2  0  0  0  0  0  0
  190.2690  176.1040  144.7910 N   0  0  1  0  0  0  0  0  0  0  0  0
  186.9380  176.5200  143.7220 O   0  0  0  0  0  0  0  0  0  0  0  0
  193.3270  173.5440  143.0640 C   0  0  2  0  0  3  0  0  0  0  0  0
  195.8830  172.1600  143.7530 C   0  0  0  0  0  2  0  0  0  0  0  0
  187.7670  176.4730  145.9930 C   0  0  2  0  0  3  0  0  0  0  0  0
  191.1120  174.8140  142.8700 C   0  0  0  0  0  0  0  0  0  0  0  0
  194.7270  173.9990  145.1330 C   0  0  0  0  0  0  0  0  0  0  0  0
  191.4700  175.6890  144.0440 C   0  0  2  0  0  3  0  0  0  0  0  0
  190.4040  173.2900  140.6550 C   0  0  0  0  0  3  0  0  0  0  0  0
  189.9850  176.8520  147.0990 C   0  0  0  0  0  2  0  0  0  0  0  0
  191.6260  173.0560  141.2800 C   0  0  0  0  0  3  0  0  0  0  0  0
  190.7190  177.0740  145.7890 C   0  0  0  0  0  2  0  0  0  0  0  0
  187.9370  177.0400  144.5720 C   0  0  1  0  0  3  0  0  0  0  0  0
  189.5820  174.2680  141.1170 N   0  0  0  0  0  0  0  0  0  0  0  0
  188.9720  176.1190  142.6300 C   0  0  1  0  0  3  0  0  0  0  0  0
  186.4170  176.4800  146.3540 O   0  0  0  0  0  0  0  0  0  0  0  0
  186.3380  177.3790  147.4200 C   0  0  0  0  0  2  0  0  0  0  0  0
  185.4820  179.5320  145.1380 O   0  0  0  0  0  0  0  0  0  0  0  0
  184.2470  177.8070  146.1750 C   0  0  0  0  0  2  0  0  0  0  0  0
  185.2090  178.3650  147.1830 C   0  0  2  0  0  3  0  0  0  0  0  0
  184.2870  178.8060  145.0430 C   0  0  0  0  0  2  0  0  0  0  0  0
  185.7570  179.6050  146.5120 C   0  0  0  0  0  2  0  0  0  0  0  0
  1 27  1  0  0  0  0
  1 18  1  0  0  0  0
  2 14  1  0  0  0  0
  3 19  1  0  0  0  0
  3  7  1  6  0  0  0
  4 18  2  0  0  0  0
  4 15  1  0  0  0  0
  5 11  1  1  0  0  0
  5 19  1  0  0  0  0
  8 16  1  0  0  0  0
  9 25  1  0  0  0  0
  9 13  1  0  0  0  0
 10 22  1  0  0  0  0
 12  8  1  0  0  0  0
 12 15  1  0  0  0  0
 13 24  1  0  0  0  0
 14 25  1  0  0  0  0
 15  5  1  0  0  0  0
 16  3  1  0  0  0  0
 17 28  1  0  0  0  0
 17 10  1  0  0  0  0
 18 20  1  0  0  0  0
 19  6  2  0  0  0  0
 20 13  1  0  0  0  0
 20 11  1  0  0  0  0
 21 26  1  0  0  0  0
 21 23  2  0  0  0  0
 23  4  1  0  0  0  0
 24 22  1  0  0  0  0
 25 17  1  0  0  0  0
 26  1  2  0  0  0  0
 27  2  1  0  0  0  0
 27  9  1  0  0  0  0
 28 29  1  0  0  0  0
 30 34  1  0  0  0  0
 31 32  1  0  0  0  0
 32 29  1  0  0  0  0
 33 30  1  0  0  0  0
 33 31  1  0  0  0  0
 34 32  1  0  0  0  0
M  END
>  <MODEL>
3

>  <REMARK>
 VINA RESULT:      -7.9      4.015      8.478
  Name = 
  3 active torsions:
  status: ('A' for Active; 'I' for Inactive)
    1  A    between atoms: C_17  and  O_28
    2  A    between atoms: O_28  and  C_29
    3  A    between atoms: C_29  and  C_32
                            x       y       z     vdW  Elec       q    Type
                         _______ _______ _______ _____ _____    ______ ____

>  <TORSDO>
F 3

$$$$
=
 OpenBabel11112417503D

 34 40  0  0  1  0  0  0  0  0999 V2000
  191.8410  175.9110  146.0370 C   0  0  0  0  0  0  0  0  0  0  0  0
  189.5600  176.6540  146.6900 C   0  0  0  0  0  2  0  0  0  0  0  0
  195.5230  176.0700  140.6720 C   0  0  1  0  0  3  0  0  0  0  0  0
  193.8730  175.9580  144.7130 C   0  0  0  0  0  0  0  0  0  0  0  0
  193.8470  174.9240  142.3700 C   0  0  2  0  0  3  0  0  0  0  0  0
  194.0630  174.2210  140.0290 C   0  0  0  0  0  2  0  0  0  0  0  0
  195.0810  177.3600  140.9010 F   0  0  0  0  0  0  0  0  0  0  0  0
  196.8040  174.7070  142.4600 C   0  0  0  0  0  2  0  0  0  0  0  0
  189.6860  174.9780  145.0120 C   0  0  2  0  0  3  0  0  0  0  0  0
  187.4160  175.5530  142.8190 C   0  0  0  0  0  2  0  0  0  0  0  0
  192.3830  175.3380  142.3710 C   0  0  0  0  0  2  0  0  0  0  0  0
  196.0110  175.0900  143.7120 C   0  0  0  0  0  2  0  0  0  0  0  0
  190.3210  175.3300  143.7230 N   0  0  1  0  0  0  0  0  0  0  0  0
  188.2320  176.3450  146.3720 O   0  0  0  0  0  0  0  0  0  0  0  0
  194.6390  175.7220  143.4270 C   0  0  2  0  0  3  0  0  0  0  0  0
  196.8470  175.8280  141.4190 C   0  0  0  0  0  2  0  0  0  0  0  0
  187.7670  176.4450  144.0010 C   0  0  2  0  0  3  0  0  0  0  0  0
  192.4980  175.6490  144.8300 C   0  0  0  0  0  0  0  0  0  0  0  0
  194.4240  175.0800  140.9800 C   0  0  0  0  0  0  0  0  0  0  0  0
  191.7480  174.9640  143.7150 C   0  0  2  0  0  3  0  0  0  0  0  0
  193.8230  176.8470  146.9600 C   0  0  0  0  0  3  0  0  0  0  0  0
  188.6360  175.2870  141.9540 C   0  0  0  0  0  2  0  0  0  0  0  0
  194.5190  176.5920  145.7820 C   0  0  0  0  0  3  0  0  0  0  0  0
  189.6730  174.4850  142.7200 C   0  0  0  0  0  2  0  0  0  0  0  0
  188.2770  175.5950  145.1780 C   0  0  1  0  0  3  0  0  0  0  0  0
  192.5150  176.4940  147.0660 N   0  0  0  0  0  0  0  0  0  0  0  0
  190.4140  175.5020  146.2360 C   0  0  1  0  0  3  0  0  0  0  0  0
  186.6250  177.1540  144.3810 O   0  0  0  0  0  0  0  0  0  0  0  0
  186.8720  178.4690  143.9810 C   0  0  0  0  0  2  0  0  0  0  0  0
  183.7140  178.7230  144.7190 O   0  0  0  0  0  0  0  0  0  0  0  0
  185.6340  178.8310  146.0890 C   0  0  0  0  0  2  0  0  0  0  0  0
  185.9780  179.4230  144.7530 C   0  0  2  0  0  3  0  0  0  0  0  0
  184.1290  178.7140  146.0580 C   0  0  0  0  0  2  0  0  0  0  0  0
  184.6430  179.5380  144.0540 C   0  0  0  0  0  2  0  0  0  0  0  0
  1 27  1  0  0  0  0
  1 26  1  0  0  0  0
  3  7  1  1  0  0  0
  3 19  1  0  0  0  0
  3 16  1  0  0  0  0
  4 18  1  0  0  0  0
  4 23  2  0  0  0  0
  5 11  1  6  0  0  0
  5 15  1  0  0  0  0
  6 19  2  0  0  0  0
  8 12  1  0  0  0  0
  9 25  1  0  0  0  0
  9 27  1  0  0  0  0
 10 17  1  0  0  0  0
 11 20  1  0  0  0  0
 13  9  1  0  0  0  0
 14  2  1  0  0  0  0
 15 12  1  0  0  0  0
 15  4  1  0  0  0  0
 16  8  1  0  0  0  0
 17 28  1  0  0  0  0
 17 25  1  0  0  0  0
 18  1  2  0  0  0  0
 19  5  1  0  0  0  0
 20 13  1  0  0  0  0
 20 18  1  0  0  0  0
 21 26  2  0  0  0  0
 22 24  1  0  0  0  0
 22 10  1  0  0  0  0
 23 21  1  0  0  0  0
 24 13  1  0  0  0  0
 25 14  1  0  0  0  0
 27  2  1  0  0  0  0
 29 28  1  0  0  0  0
 29 32  1  0  0  0  0
 30 33  1  0  0  0  0
 32 31  1  0  0  0  0
 33 31  1  0  0  0  0
 34 30  1  0  0  0  0
 34 32  1  0  0  0  0
M  END
>  <MODEL>
4

>  <REMARK>
 VINA RESULT:      -7.9      4.472      8.129
  Name = 
  3 active torsions:
  status: ('A' for Active; 'I' for Inactive)
    1  A    between atoms: C_17  and  O_28
    2  A    between atoms: O_28  and  C_29
    3  A    between atoms: C_29  and  C_32
                            x       y       z     vdW  Elec       q    Type
                         _______ _______ _______ _____ _____    ______ ____

>  <TORSDO>
F 3

$$$$
=
 OpenBabel11112417503D

 34 40  0  0  1  0  0  0  0  0999 V2000
  191.6280  173.7540  142.6620 C   0  0  0  0  0  0  0  0  0  0  0  0
  189.3070  174.4480  143.2190 C   0  0  0  0  0  2  0  0  0  0  0  0
  196.7890  171.4490  145.8890 C   0  0  1  0  0  3  0  0  0  0  0  0
  193.7010  172.5400  143.0020 C   0  0  0  0  0  0  0  0  0  0  0  0
  195.3420  173.3700  144.7860 C   0  0  2  0  0  3  0  0  0  0  0  0
  196.9880  173.7900  146.5550 C   0  0  0  0  0  2  0  0  0  0  0  0
  195.7130  170.6420  146.2110 F   0  0  0  0  0  0  0  0  0  0  0  0
  197.5200  171.8700  143.4430 C   0  0  0  0  0  2  0  0  0  0  0  0
  191.0560  175.7300  144.1890 C   0  0  2  0  0  3  0  0  0  0  0  0
  190.2110  176.5130  147.1830 C   0  0  0  0  0  2  0  0  0  0  0  0
  194.0860  173.8600  145.4910 C   0  0  0  0  0  2  0  0  0  0  0  0
  196.1520  172.0240  142.7740 C   0  0  0  0  0  2  0  0  0  0  0  0
  191.9590  175.0600  145.1490 N   0  0  1  0  0  0  0  0  0  0  0  0
  188.6680  175.4530  143.9560 O   0  0  0  0  0  0  0  0  0  0  0  0
  194.9920  172.2800  143.7500 C   0  0  2  0  0  3  0  0  0  0  0  0
  197.4940  170.9070  144.6330 C   0  0  0  0  0  2  0  0  0  0  0  0
  189.4380  175.5980  146.2440 C   0  0  2  0  0  3  0  0  0  0  0  0
  192.8170  173.5780  143.3790 C   0  0  0  0  0  0  0  0  0  0  0  0
  196.3510  172.8920  145.8060 C   0  0  0  0  0  0  0  0  0  0  0  0
  193.1670  174.5500  144.4770 C   0  0  2  0  0  3  0  0  0  0  0  0
  192.1250  171.8720  141.2950 C   0  0  0  0  0  3  0  0  0  0  0  0
  191.6370  176.0250  147.3700 C   0  0  0  0  0  2  0  0  0  0  0  0
  193.3240  171.6680  141.9720 C   0  0  0  0  0  3  0  0  0  0  0  0
  192.4080  176.1080  146.0650 C   0  0  0  0  0  2  0  0  0  0  0  0
  189.6580  176.0260  144.7810 C   0  0  1  0  0  3  0  0  0  0  0  0
  191.3170  172.9070  141.6420 N   0  0  0  0  0  0  0  0  0  0  0  0
  190.7170  174.9040  142.9610 C   0  0  1  0  0  3  0  0  0  0  0  0
  188.0800  175.6690  146.5650 O   0  0  0  0  0  0  0  0  0  0  0  0
  187.8510  177.0180  146.8440 C   0  0  0  0  0  2  0  0  0  0  0  0
  185.4350  179.1720  146.5290 O   0  0  0  0  0  0  0  0  0  0  0  0
  185.4420  176.8200  146.3300 C   0  0  0  0  0  2  0  0  0  0  0  0
  186.4430  177.2040  147.3810 C   0  0  2  0  0  3  0  0  0  0  0  0
  184.6600  178.0890  146.0920 C   0  0  0  0  0  2  0  0  0  0  0  0
  186.1820  178.6760  147.6080 C   0  0  0  0  0  2  0  0  0  0  0  0
  1 27  1  0  0  0  0
  1 18  1  0  0  0  0
  2 14  1  0  0  0  0
  3  7  1  6  0  0  0
  4 18  2  0  0  0  0
  4 15  1  0  0  0  0
  5 11  1  1  0  0  0
  5 19  1  0  0  0  0
  8 16  1  0  0  0  0
  9 25  1  0  0  0  0
  9 13  1  0  0  0  0
 10 22  1  0  0  0  0
 12  8  1  0  0  0  0
 12 15  1  0  0  0  0
 13 24  1  0  0  0  0
 14 25  1  0  0  0  0
 15  5  1  0  0  0  0
 16  3  1  0  0  0  0
 17 28  1  0  0  0  0
 17 10  1  0  0  0  0
 18 20  1  0  0  0  0
 19  3  1  0  0  0  0
 19  6  2  0  0  0  0
 20 13  1  0  0  0  0
 20 11  1  0  0  0  0
 21 26  1  0  0  0  0
 21 23  2  0  0  0  0
 23  4  1  0  0  0  0
 24 22  1  0  0  0  0
 25 17  1  0  0  0  0
 26  1  2  0  0  0  0
 27  2  1  0  0  0  0
 27  9  1  0  0  0  0
 28 29  1  0  0  0  0
 29 32  1  0  0  0  0
 30 34  1  0  0  0  0
 31 32  1  0  0  0  0
 32 34  1  0  0  0  0
 33 31  1  0  0  0  0
 33 30  1  0  0  0  0
M  END
>  <MODEL>
5

>  <REMARK>
 VINA RESULT:      -7.8      4.913      9.237
  Name = 
  3 active torsions:
  status: ('A' for Active; 'I' for Inactive)
    1  A    between atoms: C_17  and  O_28
    2  A    between atoms: O_28  and  C_29
    3  A    between atoms: C_29  and  C_32
                            x       y       z     vdW  Elec       q    Type
                         _______ _______ _______ _____ _____    ______ ____

>  <TORSDO>
F 3

$$$$
=
 OpenBabel11112417503D

 34 40  0  0  1  0  0  0  0  0999 V2000
  189.2570  174.8580  142.9400 C   0  0  0  0  0  0  0  0  0  0  0  0
  191.6430  174.2310  143.2480 C   0  0  0  0  0  2  0  0  0  0  0  0
  185.4630  179.9360  144.4160 C   0  0  1  0  0  3  0  0  0  0  0  0
  187.4010  176.4050  142.7300 C   0  0  0  0  0  0  0  0  0  0  0  0
  186.4860  177.5320  144.8410 C   0  0  2  0  0  3  0  0  0  0  0  0
  185.5530  178.9200  146.6350 C   0  0  0  0  0  2  0  0  0  0  0  0
  186.5670  180.4330  143.7480 F   0  0  0  0  0  0  0  0  0  0  0  0
  183.9490  178.0950  143.4100 C   0  0  0  0  0  2  0  0  0  0  0  0
  190.3580  174.5070  145.2260 C   0  0  2  0  0  3  0  0  0  0  0  0
  192.1920  175.9200  147.4480 C   0  0  0  0  0  2  0  0  0  0  0  0
  187.9170  177.4060  145.3420 C   0  0  0  0  0  2  0  0  0  0  0  0
  185.0090  177.1820  142.7890 C   0  0  0  0  0  2  0  0  0  0  0  0
  189.8240  175.8530  145.5260 N   0  0  1  0  0  0  0  0  0  0  0  0
  192.5170  173.9390  144.3030 O   0  0  0  0  0  0  0  0  0  0  0  0
  186.4380  177.4260  143.3020 C   0  0  2  0  0  3  0  0  0  0  0  0
  184.3600  179.5690  143.4080 C   0  0  0  0  0  2  0  0  0  0  0  0
  192.5770  175.6630  145.9980 C   0  0  2  0  0  3  0  0  0  0  0  0
  188.3820  175.7750  143.5310 C   0  0  0  0  0  0  0  0  0  0  0  0
  185.8760  178.8210  145.3480 C   0  0  0  0  0  0  0  0  0  0  0  0
  188.4480  176.0050  145.0200 C   0  0  2  0  0  3  0  0  0  0  0  0
  188.2840  175.2430  140.8040 C   0  0  0  0  0  3  0  0  0  0  0  0
  190.9050  176.7230  147.5370 C   0  0  0  0  0  2  0  0  0  0  0  0
  187.3850  176.1530  141.3520 C   0  0  0  0  0  3  0  0  0  0  0  0
  189.7370  175.9270  146.9840 C   0  0  0  0  0  2  0  0  0  0  0  0
  191.8800  174.3930  145.4770 C   0  0  1  0  0  3  0  0  0  0  0  0
  189.1840  174.6120  141.6020 N   0  0  0  0  0  0  0  0  0  0  0  0
  190.2400  174.0920  143.7710 C   0  0  1  0  0  3  0  0  0  0  0  0
  193.9650  175.5130  145.9240 O   0  0  0  0  0  0  0  0  0  0  0  0
  194.4060  176.6280  145.2080 C   0  0  0  0  0  2  0  0  0  0  0  0
  195.6960  173.9490  143.8920 O   0  0  0  0  0  0  0  0  0  0  0  0
  195.2380  176.0650  142.9500 C   0  0  0  0  0  2  0  0  0  0  0  0
  195.6290  176.2650  144.3860 C   0  0  2  0  0  3  0  0  0  0  0  0
  195.6110  174.6290  142.6690 C   0  0  0  0  0  2  0  0  0  0  0  0
  196.1390  174.9080  144.8150 C   0  0  0  0  0  2  0  0  0  0  0  0
  1 18  1  0  0  0  0
  1 27  1  0  0  0  0
  2 27  1  0  0  0  0
  2 14  1  0  0  0  0
  3  7  1  6  0  0  0
  3 19  1  0  0  0  0
  4 15  1  0  0  0  0
  4 18  2  0  0  0  0
  5 11  1  6  0  0  0
  5 19  1  0  0  0  0
  9 25  1  0  0  0  0
  9 13  1  0  0  0  0
 10 22  1  0  0  0  0
 12 15  1  0  0  0  0
 12  8  1  0  0  0  0
 13 24  1  0  0  0  0
 14 25  1  0  0  0  0
 15  5  1  0  0  0  0
 16  8  1  0  0  0  0
 16  3  1  0  0  0  0
 17 10  1  0  0  0  0
 18 20  1  0  0  0  0
 19  6  2  0  0  0  0
 20 11  1  0  0  0  0
 20 13  1  0  0  0  0
 21 23  2  0  0  0  0
 21 26  1  0  0  0  0
 23  4  1  0  0  0  0
 24 22  1  0  0  0  0
 25 17  1  0  0  0  0
 26  1  2  0  0  0  0
 27  9  1  0  0  0  0
 28 17  1  0  0  0  0
 29 28  1  0  0  0  0
 30 34  1  0  0  0  0
 31 32  1  0  0  0  0
 32 34  1  0  0  0  0
 32 29  1  0  0  0  0
 33 31  1  0  0  0  0
 33 30  1  0  0  0  0
M  END
>  <MODEL>
6

>  <REMARK>
 VINA RESULT:      -7.8      3.118      5.546
  Name = 
  3 active torsions:
  status: ('A' for Active; 'I' for Inactive)
    1  A    between atoms: C_17  and  O_28
    2  A    between atoms: O_28  and  C_29
    3  A    between atoms: C_29  and  C_32
                            x       y       z     vdW  Elec       q    Type
                         _______ _______ _______ _____ _____    ______ ____

>  <TORSDO>
F 3

$$$$
=
 OpenBabel11112417503D

 34 40  0  0  1  0  0  0  0  0999 V2000
  190.8940  176.3030  145.2370 C   0  0  0  0  0  0  0  0  0  0  0  0
  192.2650  174.6120  144.0370 C   0  0  0  0  0  2  0  0  0  0  0  0
  184.5660  177.3690  146.3230 C   0  0  1  0  0  3  0  0  0  0  0  0
  188.9240  177.1130  146.3980 C   0  0  0  0  0  0  0  0  0  0  0  0
  186.8460  177.7240  145.0290 C   0  0  2  0  0  3  0  0  0  0  0  0
  184.6560  178.1700  144.0180 C   0  0  0  0  0  2  0  0  0  0  0  0
  184.8290  176.0640  146.6990 F   0  0  0  0  0  0  0  0  0  0  0  0
  185.8740  179.3800  147.2910 C   0  0  0  0  0  2  0  0  0  0  0  0
  190.8040  175.9280  142.7040 C   0  0  2  0  0  3  0  0  0  0  0  0
  189.5450  174.0620  140.4180 C   0  0  0  0  0  2  0  0  0  0  0  0
  187.3440  176.6460  144.0790 C   0  0  0  0  0  2  0  0  0  0  0  0
  187.2920  178.8020  147.2990 C   0  0  0  0  0  2  0  0  0  0  0  0
  189.3480  175.7900  142.9250 N   0  0  1  0  0  0  0  0  0  0  0  0
  192.4790  174.1880  142.7190 O   0  0  0  0  0  0  0  0  0  0  0  0
  187.4730  177.5480  146.4280 C   0  0  2  0  0  3  0  0  0  0  0  0
  184.7980  178.3150  147.5140 C   0  0  0  0  0  2  0  0  0  0  0  0
  190.4390  173.6010  141.5610 C   0  0  2  0  0  3  0  0  0  0  0  0
  189.5570  176.7150  145.1970 C   0  0  0  0  0  0  0  0  0  0  0  0
  185.3340  177.7150  145.0700 C   0  0  0  0  0  0  0  0  0  0  0  0
  188.8530  176.8090  143.8670 C   0  0  2  0  0  3  0  0  0  0  0  0
  190.9510  176.5780  147.5990 C   0  0  0  0  0  3  0  0  0  0  0  0
  188.3220  174.7940  140.9430 C   0  0  0  0  0  2  0  0  0  0  0  0
  189.6270  177.0070  147.6040 C   0  0  0  0  0  3  0  0  0  0  0  0
  188.7250  176.0850  141.6340 C   0  0  0  0  0  2  0  0  0  0  0  0
  191.4180  174.7210  141.9580 C   0  0  1  0  0  3  0  0  0  0  0  0
  191.5540  176.2510  146.4270 N   0  0  0  0  0  0  0  0  0  0  0  0
  191.6310  175.9750  143.9760 C   0  0  1  0  0  3  0  0  0  0  0  0
  191.1470  172.4700  141.1460 O   0  0  0  0  0  0  0  0  0  0  0  0
  190.1660  171.5740  140.7150 C   0  0  0  0  0  2  0  0  0  0  0  0
  190.0970  171.6750  137.4650 O   0  0  0  0  0  0  0  0  0  0  0  0
  191.9020  171.4080  138.9640 C   0  0  0  0  0  2  0  0  0  0  0  0
  190.6950  170.7430  139.5600 C   0  0  2  0  0  3  0  0  0  0  0  0
  191.4970  171.6800  137.5350 C   0  0  0  0  0  2  0  0  0  0  0  0
  189.6860  170.7470  138.4340 C   0  0  0  0  0  2  0  0  0  0  0  0
  1 26  1  0  0  0  0
  3  7  1  1  0  0  0
  3 16  1  0  0  0  0
  4 15  1  0  0  0  0
  4 23  2  0  0  0  0
  5 11  1  6  0  0  0
  5 19  1  0  0  0  0
  5 15  1  0  0  0  0
  6 19  2  0  0  0  0
  8 12  1  0  0  0  0
  8 16  1  0  0  0  0
  9 13  1  0  0  0  0
  9 27  1  0  0  0  0
 10 22  1  0  0  0  0
 10 17  1  0  0  0  0
 13 20  1  0  0  0  0
 14  2  1  0  0  0  0
 15 12  1  0  0  0  0
 17 25  1  0  0  0  0
 18  1  2  0  0  0  0
 18  4  1  0  0  0  0
 19  3  1  0  0  0  0
 20 11  1  0  0  0  0
 20 18  1  0  0  0  0
 21 23  1  0  0  0  0
 22 24  1  0  0  0  0
 24 13  1  0  0  0  0
 25  9  1  0  0  0  0
 25 14  1  0  0  0  0
 26 21  2  0  0  0  0
 27  2  1  0  0  0  0
 27  1  1  0  0  0  0
 28 17  1  0  0  0  0
 29 28  1  0  0  0  0
 30 33  1  0  0  0  0
 30 34  1  0  0  0  0
 31 32  1  0  0  0  0
 32 29  1  0  0  0  0
 33 31  1  0  0  0  0
 34 32  1  0  0  0  0
M  END
>  <MODEL>
7

>  <REMARK>
 VINA RESULT:      -7.7      1.575      1.929
  Name = 
  3 active torsions:
  status: ('A' for Active; 'I' for Inactive)
    1  A    between atoms: C_17  and  O_28
    2  A    between atoms: O_28  and  C_29
    3  A    between atoms: C_29  and  C_32
                            x       y       z     vdW  Elec       q    Type
                         _______ _______ _______ _____ _____    ______ ____

>  <TORSDO>
F 3

$$$$
=
 OpenBabel11112417503D

 34 40  0  0  1  0  0  0  0  0999 V2000
  192.0140  175.9200  146.0820 C   0  0  0  0  0  0  0  0  0  0  0  0
  190.0720  177.4260  145.7080 C   0  0  0  0  0  2  0  0  0  0  0  0
  195.8450  172.1310  142.4320 C   0  0  1  0  0  3  0  0  0  0  0  0
  194.0210  174.7200  145.4380 C   0  0  0  0  0  0  0  0  0  0  0  0
  193.7900  172.5880  144.0360 C   0  0  2  0  0  3  0  0  0  0  0  0
  193.8970  170.6610  142.5220 C   0  0  0  0  0  2  0  0  0  0  0  0
  195.8410  173.3860  141.8510 F   0  0  0  0  0  0  0  0  0  0  0  0
  196.5000  171.7530  144.9060 C   0  0  0  0  0  2  0  0  0  0  0  0
  189.7350  175.1260  145.2220 C   0  0  2  0  0  3  0  0  0  0  0  0
  187.9120  174.8930  142.5930 C   0  0  0  0  0  2  0  0  0  0  0  0
  192.5470  173.2700  143.4840 C   0  0  0  0  0  2  0  0  0  0  0  0
  195.8070  172.9530  145.5570 C   0  0  0  0  0  2  0  0  0  0  0  0
  190.5240  174.5240  144.1250 N   0  0  1  0  0  0  0  0  0  0  0  0
  188.7360  177.3240  145.3000 O   0  0  0  0  0  0  0  0  0  0  0  0
  194.7380  173.6230  144.6780 C   0  0  2  0  0  3  0  0  0  0  0  0
  196.9700  172.0410  143.4780 C   0  0  0  0  0  2  0  0  0  0  0  0
  188.4680  176.1790  143.1870 C   0  0  2  0  0  3  0  0  0  0  0  0
  192.6160  174.8740  145.3760 C   0  0  0  0  0  0  0  0  0  0  0  0
  194.4660  171.7890  142.9430 C   0  0  0  0  0  0  0  0  0  0  0  0
  191.7480  173.8860  144.6380 C   0  0  2  0  0  3  0  0  0  0  0  0
  194.1370  176.7010  146.8170 C   0  0  0  0  0  3  0  0  0  0  0  0
  189.0240  173.9000  142.3000 C   0  0  0  0  0  2  0  0  0  0  0  0
  194.7770  175.6670  146.1400 C   0  0  0  0  0  3  0  0  0  0  0  0
  189.6920  173.4480  143.5860 C   0  0  0  0  0  2  0  0  0  0  0  0
  188.6010  176.0480  144.7150 C   0  0  1  0  0  3  0  0  0  0  0  0
  192.7820  176.7970  146.7850 N   0  0  0  0  0  0  0  0  0  0  0  0
  190.5230  176.0540  146.1280 C   0  0  1  0  0  3  0  0  0  0  0  0
  187.6030  177.2290  142.8690 O   0  0  0  0  0  0  0  0  0  0  0  0
  186.3430  176.6360  142.7700 C   0  0  0  0  0  2  0  0  0  0  0  0
  185.8210  178.6850  145.2400 O   0  0  0  0  0  0  0  0  0  0  0  0
  185.7240  179.0240  142.9060 C   0  0  0  0  0  2  0  0  0  0  0  0
  185.2710  177.6230  143.1950 C   0  0  2  0  0  3  0  0  0  0  0  0
  185.7440  179.6870  144.2630 C   0  0  0  0  0  2  0  0  0  0  0  0
  185.1280  177.5920  144.7000 C   0  0  0  0  0  2  0  0  0  0  0  0
  1 27  1  0  0  0  0
  1 26  1  0  0  0  0
  2 27  1  0  0  0  0
  3  7  1  1  0  0  0
  3 19  1  0  0  0  0
  3 16  1  0  0  0  0
  4 23  2  0  0  0  0
  5 11  1  6  0  0  0
  5 15  1  0  0  0  0
  6 19  2  0  0  0  0
  8 12  1  0  0  0  0
  9 27  1  0  0  0  0
 10 17  1  0  0  0  0
 11 20  1  0  0  0  0
 13 20  1  0  0  0  0
 13  9  1  0  0  0  0
 14  2  1  0  0  0  0
 15  4  1  0  0  0  0
 15 12  1  0  0  0  0
 16  8  1  0  0  0  0
 17 25  1  0  0  0  0
 18  4  1  0  0  0  0
 18  1  2  0  0  0  0
 19  5  1  0  0  0  0
 20 18  1  0  0  0  0
 22 10  1  0  0  0  0
 22 24  1  0  0  0  0
 23 21  1  0  0  0  0
 24 13  1  0  0  0  0
 25  9  1  0  0  0  0
 25 14  1  0  0  0  0
 26 21  2  0  0  0  0
 28 17  1  0  0  0  0
 29 28  1  0  0  0  0
 29 32  1  0  0  0  0
 31 32  1  0  0  0  0
 31 33  1  0  0  0  0
 32 34  1  0  0  0  0
 33 30  1  0  0  0  0
 34 30  1  0  0  0  0
M  END
>  <MODEL>
8

>  <REMARK>
 VINA RESULT:      -7.7      4.521      8.153
  Name = 
  3 active torsions:
  status: ('A' for Active; 'I' for Inactive)
    1  A    between atoms: C_17  and  O_28
    2  A    between atoms: O_28  and  C_29
    3  A    between atoms: C_29  and  C_32
                            x       y       z     vdW  Elec       q    Type
                         _______ _______ _______ _____ _____    ______ ____

>  <TORSDO>
F 3

$$$$
=
 OpenBabel11112417503D

 34 40  0  0  1  0  0  0  0  0999 V2000
  191.0020  176.7660  146.1990 C   0  0  0  0  0  0  0  0  0  0  0  0
  192.8940  175.2150  146.6390 C   0  0  0  0  0  2  0  0  0  0  0  0
  185.7300  176.8500  142.3830 C   0  0  1  0  0  3  0  0  0  0  0  0
  188.7560  177.3490  145.4910 C   0  0  0  0  0  0  0  0  0  0  0  0
  188.2360  177.4480  142.9840 C   0  0  2  0  0  3  0  0  0  0  0  0
  187.3910  177.4050  140.6820 C   0  0  0  0  0  2  0  0  0  0  0  0
  185.7070  175.6570  143.0830 F   0  0  0  0  0  0  0  0  0  0  0  0
  185.8750  179.1460  143.5670 C   0  0  0  0  0  2  0  0  0  0  0  0
  192.7510  176.1140  144.4450 C   0  0  2  0  0  3  0  0  0  0  0  0
  193.5690  173.8280  142.3470 C   0  0  0  0  0  2  0  0  0  0  0  0
  189.3090  176.3750  142.8770 C   0  0  0  0  0  2  0  0  0  0  0  0
  186.8920  178.8220  144.6640 C   0  0  0  0  0  2  0  0  0  0  0  0
  191.5760  175.7550  143.6210 N   0  0  1  0  0  0  0  0  0  0  0  0
  193.9980  174.6950  145.9510 O   0  0  0  0  0  0  0  0  0  0  0  0
  187.6930  177.5310  144.4270 C   0  0  2  0  0  3  0  0  0  0  0  0
  185.0060  177.9440  143.1890 C   0  0  0  0  0  2  0  0  0  0  0  0
  193.4090  173.6500  143.8510 C   0  0  2  0  0  3  0  0  0  0  0  0
  190.0710  176.9390  145.1690 C   0  0  0  0  0  0  0  0  0  0  0  0
  187.1440  177.1860  141.9720 C   0  0  0  0  0  0  0  0  0  0  0  0
  190.5140  176.7680  143.7380 C   0  0  2  0  0  3  0  0  0  0  0  0
  189.3560  177.2980  147.8310 C   0  0  0  0  0  3  0  0  0  0  0  0
  192.3030  174.3930  141.7270 C   0  0  0  0  0  2  0  0  0  0  0  0
  188.4010  177.4930  146.8380 C   0  0  0  0  0  3  0  0  0  0  0  0
  192.0390  175.8000  142.2340 C   0  0  0  0  0  2  0  0  0  0  0  0
  193.7670  174.9560  144.5840 C   0  0  1  0  0  3  0  0  0  0  0  0
  190.6260  176.9540  147.4940 N   0  0  0  0  0  0  0  0  0  0  0  0
  192.4300  176.4360  145.8930 C   0  0  1  0  0  3  0  0  0  0  0  0
  194.2520  172.6180  144.2710 O   0  0  0  0  0  0  0  0  0  0  0  0
  195.2980  172.6130  143.3460 C   0  0  0  0  0  2  0  0  0  0  0  0
  197.2560  174.3090  145.3130 O   0  0  0  0  0  0  0  0  0  0  0  0
  196.3760  172.1280  145.5160 C   0  0  0  0  0  2  0  0  0  0  0  0
  196.6210  172.4000  144.0610 C   0  0  2  0  0  3  0  0  0  0  0  0
  197.0900  173.2550  146.2220 C   0  0  0  0  0  2  0  0  0  0  0  0
  197.4050  173.6930  144.0620 C   0  0  0  0  0  2  0  0  0  0  0  0
  1 26  1  0  0  0  0
  3  7  1  1  0  0  0
  3 16  1  0  0  0  0
  4 23  2  0  0  0  0
  5 11  1  1  0  0  0
  5 15  1  0  0  0  0
  6 19  2  0  0  0  0
  8 12  1  0  0  0  0
  9 25  1  0  0  0  0
  9 27  1  0  0  0  0
 10 17  1  0  0  0  0
 11 20  1  0  0  0  0
 13 20  1  0  0  0  0
 13  9  1  0  0  0  0
 14  2  1  0  0  0  0
 15 12  1  0  0  0  0
 15  4  1  0  0  0  0
 16  8  1  0  0  0  0
 17 28  1  0  0  0  0
 17 25  1  0  0  0  0
 18  4  1  0  0  0  0
 18  1  2  0  0  0  0
 19  3  1  0  0  0  0
 19  5  1  0  0  0  0
 20 18  1  0  0  0  0
 22 24  1  0  0  0  0
 22 10  1  0  0  0  0
 23 21  1  0  0  0  0
 24 13  1  0  0  0  0
 25 14  1  0  0  0  0
 26 21  2  0  0  0  0
 27  1  1  0  0  0  0
 27  2  1  0  0  0  0
 29 32  1  0  0  0  0
 29 28  1  0  0  0  0
 30 33  1  0  0  0  0
 31 33  1  0  0  0  0
 32 34  1  0  0  0  0
 32 31  1  0  0  0  0
 34 30  1  0  0  0  0
M  END
>  <MODEL>
9

>  <REMARK>
 VINA RESULT:      -7.7      3.891      5.430
  Name = 
  3 active torsions:
  status: ('A' for Active; 'I' for Inactive)
    1  A    between atoms: C_17  and  O_28
    2  A    between atoms: O_28  and  C_29
    3  A    between atoms: C_29  and  C_32
                            x       y       z     vdW  Elec       q    Type
                         _______ _______ _______ _____ _____    ______ ____

>  <TORSDO>
F 3

$$$$
