=
 OpenBabel11112417423D

 28 32  0  0  1  0  0  0  0  0999 V2000
  190.3700  175.1210  144.3500 C   0  0  2  0  0  3  0  0  0  0  0  0
  187.8750  175.6480  145.7330 F   0  0  0  0  0  0  0  0  0  0  0  0
  186.5900  177.4610  139.7670 O   0  0  0  0  0  0  0  0  0  0  0  0
  192.5810  176.9810  144.8740 C   0  0  0  0  0  2  0  0  0  0  0  0
  186.0540  178.0050  142.0430 C   0  0  2  0  0  3  0  0  0  0  0  0
  189.5130  174.0420  143.7210 C   0  0  0  0  0  2  0  0  0  0  0  0
  189.3920  176.9890  146.9670 C   0  0  0  0  0  1  0  0  0  0  0  0
  188.1460  176.9720  146.1090 C   0  0  1  0  0  0  0  0  0  0  0  0
  185.7790  177.6830  146.1390 C   0  0  1  0  0  3  0  0  0  0  0  0
  188.3660  177.8870  144.8420 C   0  0  2  0  0  3  0  0  0  0  0  0
  187.9300  172.7490  140.8810 C   0  0  0  0  0  1  0  0  0  0  0  0
  187.7290  176.4250  142.9600 C   0  0  1  0  0  3  0  0  0  0  0  0
  186.1070  178.7990  145.2770 N   0  0  0  0  0  2  0  0  0  0  0  0
  186.9930  177.4570  147.0150 C   0  0  0  0  0  2  0  0  0  0  0  0
  188.3880  174.0090  141.5780 C   0  0  2  0  0  3  0  0  0  0  0  0
  190.3240  176.5190  143.6660 C   0  0  2  0  0  3  0  0  0  0  0  0
  186.7960  177.2810  141.0060 C   0  0  0  0  0  0  0  0  0  0  0  0
  184.6290  178.0500  146.9590 N   0  0  0  0  0  1  0  0  0  0  0  0
  188.2070  175.2440  140.7120 C   0  0  0  0  0  2  0  0  0  0  0  0
  191.2410  177.5640  144.3810 C   0  0  0  0  0  2  0  0  0  0  0  0
  191.7940  174.6500  144.6500 C   0  0  0  0  0  2  0  0  0  0  0  0
  192.3810  175.6610  145.6310 C   0  0  0  0  0  2  0  0  0  0  0  0
  189.7470  173.8880  142.2270 C   0  0  0  0  0  2  0  0  0  0  0  0
  186.5270  177.3350  143.3160 C   0  0  1  0  0  3  0  0  0  0  0  0
  187.7850  176.4090  141.5080 N   0  0  0  0  0  0  0  0  0  0  0  0
  187.0620  178.4040  144.2630 C   0  0  2  0  0  3  0  0  0  0  0  0
  184.5680  177.8050  141.9160 C   0  0  0  0  0  1  0  0  0  0  0  0
  188.9190  177.1690  143.5960 C   0  0  2  0  0  3  0  0  0  0  0  0
  1  6  1  6  0  0  0
  1 21  1  0  0  0  0
  2  8  1  0  0  0  0
  3 17  2  0  0  0  0
  4 22  1  0  0  0  0
  5 27  1  6  0  0  0
  5 24  1  0  0  0  0
  8  7  1  1  0  0  0
  8 14  1  0  0  0  0
  9 18  1  1  0  0  0
  9 14  1  0  0  0  0
 10  8  1  0  0  0  0
 11 15  1  0  0  0  0
 12 24  1  0  0  0  0
 12 28  1  0  0  0  0
 13  9  1  0  0  0  0
 15 23  1  0  0  0  0
 16  1  1  0  0  0  0
 16 20  1  0  0  0  0
 17 25  1  0  0  0  0
 17  5  1  0  0  0  0
 19 25  1  0  0  0  0
 19 15  1  0  0  0  0
 20  4  1  0  0  0  0
 21 22  1  0  0  0  0
 23  6  1  0  0  0  0
 24 26  1  0  0  0  0
 25 12  1  0  0  0  0
 26 10  1  0  0  0  0
 26 13  1  0  0  0  0
 28 16  1  0  0  0  0
 28 10  1  0  0  0  0
M  END
>  <MODEL>
1

>  <REMARK>
 VINA RESULT:      -9.1      0.000      0.000
  Name = 
  0 active torsions:
  status: ('A' for Active; 'I' for Inactive)
                            x       y       z     vdW  Elec       q    Type
                         _______ _______ _______ _____ _____    ______ ____

>  <TORSDO>
F 0

$$$$
=
 OpenBabel11112417423D

 28 32  0  0  1  0  0  0  0  0999 V2000
  187.0420  178.1740  145.0530 C   0  0  2  0  0  3  0  0  0  0  0  0
  189.9310  177.9190  145.1370 F   0  0  0  0  0  0  0  0  0  0  0  0
  188.1680  172.8540  141.7070 O   0  0  0  0  0  0  0  0  0  0  0  0
  185.5930  177.5200  147.5210 C   0  0  0  0  0  2  0  0  0  0  0  0
  189.8360  173.5550  143.2860 C   0  0  2  0  0  3  0  0  0  0  0  0
  187.3540  178.4770  143.6020 C   0  0  0  0  0  2  0  0  0  0  0  0
  189.3870  177.9050  147.4450 C   0  0  0  0  0  1  0  0  0  0  0  0
  190.0160  177.1400  146.3010 C   0  0  1  0  0  0  0  0  0  0  0  0
  192.1240  176.0190  145.6630 C   0  0  1  0  0  3  0  0  0  0  0  0
  189.2700  175.7620  146.1140 C   0  0  2  0  0  3  0  0  0  0  0  0
  187.1410  177.5460  140.2350 C   0  0  0  0  0  1  0  0  0  0  0  0
  188.7190  175.7260  143.7100 C   0  0  1  0  0  3  0  0  0  0  0  0
  191.5110  174.7320  145.9130 N   0  0  0  0  0  2  0  0  0  0  0  0
  191.5100  176.9780  146.6600 C   0  0  0  0  0  2  0  0  0  0  0  0
  187.2240  177.0420  141.6570 C   0  0  2  0  0  3  0  0  0  0  0  0
  186.8670  176.6710  145.4170 C   0  0  2  0  0  3  0  0  0  0  0  0
  188.6050  173.7350  142.5100 C   0  0  0  0  0  0  0  0  0  0  0  0
  193.5600  175.9040  145.8960 N   0  0  0  0  0  1  0  0  0  0  0  0
  187.0550  175.5340  141.7430 C   0  0  0  0  0  2  0  0  0  0  0  0
  186.5450  176.4590  146.9330 C   0  0  0  0  0  2  0  0  0  0  0  0
  185.9310  179.0600  145.6200 C   0  0  0  0  0  2  0  0  0  0  0  0
  186.0250  178.9420  147.1390 C   0  0  0  0  0  2  0  0  0  0  0  0
  186.3790  177.8270  142.6340 C   0  0  0  0  0  2  0  0  0  0  0  0
  190.0150  174.9090  143.9390 C   0  0  1  0  0  3  0  0  0  0  0  0
  187.9310  174.9460  142.7700 N   0  0  0  0  0  0  0  0  0  0  0  0
  190.1400  174.7140  145.4460 C   0  0  2  0  0  3  0  0  0  0  0  0
  191.0240  173.2840  142.4030 C   0  0  0  0  0  1  0  0  0  0  0  0
  188.0950  175.7750  145.1180 C   0  0  2  0  0  3  0  0  0  0  0  0
  1  6  1  6  0  0  0
  1 16  1  0  0  0  0
  1 21  1  0  0  0  0
  2  8  1  0  0  0  0
  3 17  2  0  0  0  0
  5 27  1  6  0  0  0
  5 24  1  0  0  0  0
  8 14  1  0  0  0  0
  8  7  1  1  0  0  0
  9 18  1  1  0  0  0
  9 13  1  0  0  0  0
  9 14  1  0  0  0  0
 10  8  1  0  0  0  0
 11 15  1  0  0  0  0
 12 24  1  0  0  0  0
 12 28  1  0  0  0  0
 15 19  1  0  0  0  0
 15 23  1  0  0  0  0
 16 20  1  0  0  0  0
 17 25  1  0  0  0  0
 17  5  1  0  0  0  0
 19 25  1  0  0  0  0
 20  4  1  0  0  0  0
 21 22  1  0  0  0  0
 22  4  1  0  0  0  0
 23  6  1  0  0  0  0
 24 26  1  0  0  0  0
 25 12  1  0  0  0  0
 26 13  1  0  0  0  0
 26 10  1  0  0  0  0
 28 16  1  0  0  0  0
 28 10  1  0  0  0  0
M  END
>  <MODEL>
2

>  <REMARK>
 VINA RESULT:      -8.4      2.416      5.116
  Name = 
  0 active torsions:
  status: ('A' for Active; 'I' for Inactive)
                            x       y       z     vdW  Elec       q    Type
                         _______ _______ _______ _____ _____    ______ ____

>  <TORSDO>
F 0

$$$$
=
 OpenBabel11112417423D

 28 32  0  0  1  0  0  0  0  0999 V2000
  191.3380  174.7260  145.1670 C   0  0  2  0  0  3  0  0  0  0  0  0
  188.8290  175.3950  146.4620 F   0  0  0  0  0  0  0  0  0  0  0  0
  187.5620  176.4380  140.3110 O   0  0  0  0  0  0  0  0  0  0  0  0
  193.5270  176.6590  145.4670 C   0  0  0  0  0  2  0  0  0  0  0  0
  187.0070  177.2550  142.5000 C   0  0  2  0  0  3  0  0  0  0  0  0
  190.4950  173.5680  144.6740 C   0  0  0  0  0  2  0  0  0  0  0  0
  190.3260  176.8930  147.5280 C   0  0  0  0  0  1  0  0  0  0  0  0
  189.0850  176.7580  146.6730 C   0  0  1  0  0  0  0  0  0  0  0  0
  186.7110  177.4420  146.6030 C   0  0  1  0  0  3  0  0  0  0  0  0
  189.3040  177.5100  145.3030 C   0  0  2  0  0  3  0  0  0  0  0  0
  188.9420  171.9150  142.0090 C   0  0  0  0  0  1  0  0  0  0  0  0
  188.6920  175.8190  143.6140 C   0  0  1  0  0  3  0  0  0  0  0  0
  187.0330  178.4450  145.6110 N   0  0  0  0  0  2  0  0  0  0  0  0
  187.9210  177.3390  147.5060 C   0  0  0  0  0  2  0  0  0  0  0  0
  189.3830  173.2570  142.5470 C   0  0  2  0  0  3  0  0  0  0  0  0
  191.2810  176.0270  144.3150 C   0  0  2  0  0  3  0  0  0  0  0  0
  187.7630  176.4160  141.5640 C   0  0  0  0  0  0  0  0  0  0  0  0
  185.5530  177.8960  147.3660 N   0  0  0  0  0  1  0  0  0  0  0  0
  189.1950  174.3730  141.5320 C   0  0  0  0  0  2  0  0  0  0  0  0
  192.1840  177.1620  144.8990 C   0  0  0  0  0  2  0  0  0  0  0  0
  192.7640  174.3100  145.5300 C   0  0  0  0  0  2  0  0  0  0  0  0
  193.3350  175.4420  146.3820 C   0  0  0  0  0  2  0  0  0  0  0  0
  190.7400  173.2320  143.2120 C   0  0  0  0  0  2  0  0  0  0  0  0
  187.4790  176.7540  143.8480 C   0  0  1  0  0  3  0  0  0  0  0  0
  188.7570  175.6240  142.1750 N   0  0  0  0  0  0  0  0  0  0  0  0
  187.9980  177.9370  144.6580 C   0  0  2  0  0  3  0  0  0  0  0  0
  185.5240  177.0260  142.3920 C   0  0  0  0  0  1  0  0  0  0  0  0
  189.8710  176.6490  144.1580 C   0  0  2  0  0  3  0  0  0  0  0  0
  1  6  1  6  0  0  0
  1 21  1  0  0  0  0
  2  8  1  0  0  0  0
  3 17  2  0  0  0  0
  4 22  1  0  0  0  0
  5 27  1  1  0  0  0
  5 24  1  0  0  0  0
  8 14  1  0  0  0  0
  8  7  1  1  0  0  0
  9 18  1  1  0  0  0
  9 14  1  0  0  0  0
 10  8  1  0  0  0  0
 11 15  1  0  0  0  0
 12 24  1  0  0  0  0
 12 28  1  0  0  0  0
 13  9  1  0  0  0  0
 15 23  1  0  0  0  0
 16 20  1  0  0  0  0
 16  1  1  0  0  0  0
 17 25  1  0  0  0  0
 17  5  1  0  0  0  0
 19 25  1  0  0  0  0
 19 15  1  0  0  0  0
 20  4  1  0  0  0  0
 21 22  1  0  0  0  0
 23  6  1  0  0  0  0
 24 26  1  0  0  0  0
 25 12  1  0  0  0  0
 26 10  1  0  0  0  0
 26 13  1  0  0  0  0
 28 16  1  0  0  0  0
 28 10  1  0  0  0  0
M  END
>  <MODEL>
3

>  <REMARK>
 VINA RESULT:      -8.0      1.124      1.296
  Name = 
  0 active torsions:
  status: ('A' for Active; 'I' for Inactive)
                            x       y       z     vdW  Elec       q    Type
                         _______ _______ _______ _____ _____    ______ ____

>  <TORSDO>
F 0

$$$$
=
 OpenBabel11112417423D

 28 32  0  0  1  0  0  0  0  0999 V2000
  189.0660  176.3480  144.8490 C   0  0  2  0  0  3  0  0  0  0  0  0
  191.6920  177.0740  143.8520 F   0  0  0  0  0  0  0  0  0  0  0  0
  189.7650  172.6770  139.6710 O   0  0  0  0  0  0  0  0  0  0  0  0
  188.9930  174.6780  147.2620 C   0  0  0  0  0  2  0  0  0  0  0  0
  191.7540  173.5070  140.7290 C   0  0  2  0  0  3  0  0  0  0  0  0
  188.6530  177.0720  143.5840 C   0  0  0  0  0  2  0  0  0  0  0  0
  192.2070  176.3310  146.0430 C   0  0  0  0  0  1  0  0  0  0  0  0
  192.4330  176.1180  144.5620 C   0  0  1  0  0  0  0  0  0  0  0  0
  194.2510  175.9620  142.8960 C   0  0  1  0  0  3  0  0  0  0  0  0
  191.9950  174.6550  144.1670 C   0  0  2  0  0  3  0  0  0  0  0  0
  187.2240  176.9510  140.3930 C   0  0  0  0  0  1  0  0  0  0  0  0
  190.4890  175.0050  142.2450 C   0  0  1  0  0  3  0  0  0  0  0  0
  194.0970  174.5230  142.8670 N   0  0  0  0  0  2  0  0  0  0  0  0
  193.9330  176.3920  144.3120 C   0  0  0  0  0  2  0  0  0  0  0  0
  188.0140  176.1820  141.4260 C   0  0  2  0  0  3  0  0  0  0  0  0
  189.3920  174.8340  144.6960 C   0  0  2  0  0  3  0  0  0  0  0  0
  190.3020  173.4370  140.5340 C   0  0  0  0  0  0  0  0  0  0  0  0
  195.6360  176.2890  142.5710 N   0  0  0  0  0  1  0  0  0  0  0  0
  188.2270  174.7320  141.0260 C   0  0  0  0  0  2  0  0  0  0  0  0
  189.8040  174.1720  146.0510 C   0  0  0  0  0  2  0  0  0  0  0  0
  188.1440  176.6450  146.0320 C   0  0  0  0  0  2  0  0  0  0  0  0
  188.9020  176.2090  147.2840 C   0  0  0  0  0  2  0  0  0  0  0  0
  187.5220  176.3800  142.8420 C   0  0  0  0  0  2  0  0  0  0  0  0
  191.9000  174.6450  141.7160 C   0  0  1  0  0  3  0  0  0  0  0  0
  189.5630  174.2500  141.4170 N   0  0  0  0  0  0  0  0  0  0  0  0
  192.6980  174.1540  142.9190 C   0  0  2  0  0  3  0  0  0  0  0  0
  192.4770  173.8720  139.4610 C   0  0  0  0  0  1  0  0  0  0  0  0
  190.5340  174.5050  143.7010 C   0  0  2  0  0  3  0  0  0  0  0  0
  1  6  1  6  0  0  0
  1 21  1  0  0  0  0
  2  8  1  0  0  0  0
  3 17  2  0  0  0  0
  4 22  1  0  0  0  0
  5 27  1  6  0  0  0
  5 24  1  0  0  0  0
  8  7  1  1  0  0  0
  9 18  1  1  0  0  0
  9 14  1  0  0  0  0
 10  8  1  0  0  0  0
 11 15  1  0  0  0  0
 12 28  1  0  0  0  0
 13  9  1  0  0  0  0
 13 26  1  0  0  0  0
 14  8  1  0  0  0  0
 15 23  1  0  0  0  0
 16  1  1  0  0  0  0
 16 20  1  0  0  0  0
 17  5  1  0  0  0  0
 17 25  1  0  0  0  0
 19 25  1  0  0  0  0
 19 15  1  0  0  0  0
 20  4  1  0  0  0  0
 21 22  1  0  0  0  0
 23  6  1  0  0  0  0
 24 12  1  0  0  0  0
 24 26  1  0  0  0  0
 25 12  1  0  0  0  0
 26 10  1  0  0  0  0
 28 10  1  0  0  0  0
 28 16  1  0  0  0  0
M  END
>  <MODEL>
4

>  <REMARK>
 VINA RESULT:      -7.7      2.896      5.647
  Name = 
  0 active torsions:
  status: ('A' for Active; 'I' for Inactive)
                            x       y       z     vdW  Elec       q    Type
                         _______ _______ _______ _____ _____    ______ ____

>  <TORSDO>
F 0

$$$$
=
 OpenBabel11112417423D

 28 32  0  0  1  0  0  0  0  0999 V2000
  188.3240  176.4240  144.6360 C   0  0  2  0  0  3  0  0  0  0  0  0
  188.8860  173.7220  143.7410 F   0  0  0  0  0  0  0  0  0  0  0  0
  194.7030  176.2150  144.4340 O   0  0  0  0  0  0  0  0  0  0  0  0
  187.3160  178.2960  142.6120 C   0  0  0  0  0  2  0  0  0  0  0  0
  193.4900  174.6450  143.0820 C   0  0  2  0  0  3  0  0  0  0  0  0
  188.9100  175.8630  145.9150 C   0  0  0  0  0  2  0  0  0  0  0  0
  187.5620  174.5470  141.9550 C   0  0  0  0  0  1  0  0  0  0  0  0
  188.9050  173.9820  142.3630 C   0  0  1  0  0  0  0  0  0  0  0  0
  190.4700  172.1490  141.8130 C   0  0  1  0  0  3  0  0  0  0  0  0
  190.0430  175.0130  141.9980 C   0  0  2  0  0  3  0  0  0  0  0  0
  191.4890  175.8590  148.2800 C   0  0  0  0  0  1  0  0  0  0  0  0
  191.3110  175.2400  144.1010 C   0  0  1  0  0  3  0  0  0  0  0  0
  191.3120  173.0870  141.1010 N   0  0  0  0  0  2  0  0  0  0  0  0
  189.0480  172.6330  141.6240 C   0  0  0  0  0  2  0  0  0  0  0  0
  191.1410  176.0880  146.8280 C   0  0  2  0  0  3  0  0  0  0  0  0
  189.3430  177.0090  143.6150 C   0  0  2  0  0  3  0  0  0  0  0  0
  193.5960  175.6830  144.1120 C   0  0  0  0  0  0  0  0  0  0  0  0
  190.6340  170.8280  141.2160 N   0  0  0  0  0  1  0  0  0  0  0  0
  192.3160  176.6310  146.0330 C   0  0  0  0  0  2  0  0  0  0  0  0
  188.6460  177.5660  142.3310 C   0  0  0  0  0  2  0  0  0  0  0  0
  187.1300  177.3470  144.8850 C   0  0  0  0  0  2  0  0  0  0  0  0
  186.4100  177.4830  143.5450 C   0  0  0  0  0  2  0  0  0  0  0  0
  189.8420  176.8330  146.6220 C   0  0  0  0  0  2  0  0  0  0  0  0
  192.0390  174.2250  143.1850 C   0  0  1  0  0  3  0  0  0  0  0  0
  192.3600  176.0670  144.6730 N   0  0  0  0  0  0  0  0  0  0  0  0
  191.3930  174.3470  141.8090 C   0  0  2  0  0  3  0  0  0  0  0  0
  194.3590  173.4550  143.3890 C   0  0  0  0  0  1  0  0  0  0  0  0
  190.4160  176.0100  143.1120 C   0  0  2  0  0  3  0  0  0  0  0  0
  1 21  1  1  0  0  0
  1  6  1  0  0  0  0
  4 22  1  0  0  0  0
  5 24  1  0  0  0  0
  5 27  1  1  0  0  0
  5 17  1  0  0  0  0
  6 23  1  0  0  0  0
  8  7  1  6  0  0  0
  8  2  1  0  0  0  0
  9 18  1  6  0  0  0
 10  8  1  0  0  0  0
 10 28  1  0  0  0  0
 12 25  1  0  0  0  0
 13 26  1  0  0  0  0
 13  9  1  0  0  0  0
 14  9  1  0  0  0  0
 14  8  1  0  0  0  0
 15 11  1  0  0  0  0
 16  1  1  0  0  0  0
 17  3  2  0  0  0  0
 17 25  1  0  0  0  0
 19 15  1  0  0  0  0
 20  4  1  0  0  0  0
 20 16  1  0  0  0  0
 22 21  1  0  0  0  0
 23 15  1  0  0  0  0
 24 12  1  0  0  0  0
 25 19  1  0  0  0  0
 26 10  1  0  0  0  0
 26 24  1  0  0  0  0
 28 16  1  0  0  0  0
 28 12  1  0  0  0  0
M  END
>  <MODEL>
5

>  <REMARK>
 VINA RESULT:      -7.6      3.182      6.550
  Name = 
  0 active torsions:
  status: ('A' for Active; 'I' for Inactive)
                            x       y       z     vdW  Elec       q    Type
                         _______ _______ _______ _____ _____    ______ ____

>  <TORSDO>
F 0

$$$$
=
 OpenBabel11112417423D

 28 32  0  0  1  0  0  0  0  0999 V2000
  186.7860  176.7590  143.2060 C   0  0  2  0  0  3  0  0  0  0  0  0
  188.1760  174.2600  143.6950 F   0  0  0  0  0  0  0  0  0  0  0  0
  190.4610  178.0610  148.2630 O   0  0  0  0  0  0  0  0  0  0  0  0
  187.6750  178.3260  140.8880 C   0  0  0  0  0  2  0  0  0  0  0  0
  191.1170  176.2390  146.8430 C   0  0  2  0  0  3  0  0  0  0  0  0
  186.1170  176.3610  144.5060 C   0  0  0  0  0  2  0  0  0  0  0  0
  188.8280  174.7360  141.4650 C   0  0  0  0  0  1  0  0  0  0  0  0
  189.2950  174.5080  142.8860 C   0  0  1  0  0  0  0  0  0  0  0  0
  190.8370  173.0920  144.2010 C   0  0  1  0  0  3  0  0  0  0  0  0
  190.0880  175.7750  143.3910 C   0  0  2  0  0  3  0  0  0  0  0  0
  185.5660  176.9830  147.9050 C   0  0  0  0  0  1  0  0  0  0  0  0
  189.0090  176.3100  145.5430 C   0  0  1  0  0  3  0  0  0  0  0  0
  191.7670  174.1970  144.2930 N   0  0  0  0  0  2  0  0  0  0  0  0
  190.1560  173.2250  142.8560 C   0  0  0  0  0  2  0  0  0  0  0  0
  186.5500  177.1130  146.7650 C   0  0  2  0  0  3  0  0  0  0  0  0
  188.1140  177.5600  143.3360 C   0  0  2  0  0  3  0  0  0  0  0  0
  190.1910  177.2810  147.2990 C   0  0  0  0  0  0  0  0  0  0  0  0
  191.5880  171.8430  144.2630 N   0  0  0  0  0  1  0  0  0  0  0  0
  187.7810  177.9130  147.1560 C   0  0  0  0  0  2  0  0  0  0  0  0
  188.7260  177.9290  141.9450 C   0  0  0  0  0  2  0  0  0  0  0  0
  185.8110  177.3750  142.2010 C   0  0  0  0  0  2  0  0  0  0  0  0
  186.5110  177.3280  140.8440 C   0  0  0  0  0  2  0  0  0  0  0  0
  185.9180  177.5290  145.4570 C   0  0  0  0  0  2  0  0  0  0  0  0
  190.2940  175.4890  145.8180 C   0  0  1  0  0  3  0  0  0  0  0  0
  189.0030  177.3650  146.5430 N   0  0  0  0  0  0  0  0  0  0  0  0
  191.0660  175.4460  144.5040 C   0  0  2  0  0  3  0  0  0  0  0  0
  191.4890  175.2910  147.9510 C   0  0  0  0  0  1  0  0  0  0  0  0
  189.2420  176.8400  144.1160 C   0  0  2  0  0  3  0  0  0  0  0  0
  1 21  1  6  0  0  0
  1 16  1  0  0  0  0
  1  6  1  0  0  0  0
  4 20  1  0  0  0  0
  5 17  1  0  0  0  0
  5 27  1  1  0  0  0
  6 23  1  0  0  0  0
  8  7  1  6  0  0  0
  8 10  1  0  0  0  0
  8  2  1  0  0  0  0
  9 18  1  6  0  0  0
  9 13  1  0  0  0  0
 10 28  1  0  0  0  0
 10 26  1  0  0  0  0
 12 24  1  0  0  0  0
 12 25  1  0  0  0  0
 13 26  1  0  0  0  0
 14  8  1  0  0  0  0
 14  9  1  0  0  0  0
 15 19  1  0  0  0  0
 15 11  1  0  0  0  0
 16 28  1  0  0  0  0
 17  3  2  0  0  0  0
 20 16  1  0  0  0  0
 22  4  1  0  0  0  0
 22 21  1  0  0  0  0
 23 15  1  0  0  0  0
 24  5  1  0  0  0  0
 25 19  1  0  0  0  0
 25 17  1  0  0  0  0
 26 24  1  0  0  0  0
 28 12  1  0  0  0  0
M  END
>  <MODEL>
6

>  <REMARK>
 VINA RESULT:      -7.6      2.760      6.221
  Name = 
  0 active torsions:
  status: ('A' for Active; 'I' for Inactive)
                            x       y       z     vdW  Elec       q    Type
                         _______ _______ _______ _____ _____    ______ ____

>  <TORSDO>
F 0

$$$$
=
 OpenBabel11112417423D

 28 32  0  0  1  0  0  0  0  0999 V2000
  190.1920  174.9200  141.7770 C   0  0  2  0  0  3  0  0  0  0  0  0
  188.7980  177.4300  142.1920 F   0  0  0  0  0  0  0  0  0  0  0  0
  188.7700  174.8240  148.0010 O   0  0  0  0  0  0  0  0  0  0  0  0
  188.7080  172.8090  140.3760 C   0  0  0  0  0  2  0  0  0  0  0  0
  187.4410  176.2240  146.5730 C   0  0  2  0  0  3  0  0  0  0  0  0
  191.2350  175.6410  142.6040 C   0  0  0  0  0  2  0  0  0  0  0  0
  187.4420  176.4030  140.5400 C   0  0  0  0  0  1  0  0  0  0  0  0
  187.4970  176.9650  141.9440 C   0  0  1  0  0  0  0  0  0  0  0  0
  186.3860  178.6260  143.3980 C   0  0  1  0  0  3  0  0  0  0  0  0
  187.0910  175.8430  142.9770 C   0  0  2  0  0  3  0  0  0  0  0  0
  193.0460  175.8910  145.5880 C   0  0  0  0  0  1  0  0  0  0  0  0
  188.9300  175.8810  144.6210 C   0  0  1  0  0  3  0  0  0  0  0  0
  185.6840  177.5570  144.0770 N   0  0  0  0  0  2  0  0  0  0  0  0
  186.5440  178.1800  141.9610 C   0  0  0  0  0  2  0  0  0  0  0  0
  191.7380  175.4610  144.9650 C   0  0  2  0  0  3  0  0  0  0  0  0
  189.1010  174.1450  142.5730 C   0  0  2  0  0  3  0  0  0  0  0  0
  188.5810  175.3480  146.8610 C   0  0  0  0  0  0  0  0  0  0  0  0
  185.5710  179.8340  143.4630 N   0  0  0  0  0  1  0  0  0  0  0  0
  190.8320  174.7550  145.9600 C   0  0  0  0  0  2  0  0  0  0  0  0
  188.0730  173.4310  141.6360 C   0  0  0  0  0  2  0  0  0  0  0  0
  190.8000  174.0960  140.6400 C   0  0  0  0  0  2  0  0  0  0  0  0
  189.6560  173.7910  139.6760 C   0  0  0  0  0  2  0  0  0  0  0  0
  191.8970  174.7490  143.6410 C   0  0  0  0  0  2  0  0  0  0  0  0
  187.7470  176.7160  145.1740 C   0  0  1  0  0  3  0  0  0  0  0  0
  189.4170  175.1070  145.7500 N   0  0  0  0  0  0  0  0  0  0  0  0
  186.5520  176.4150  144.2750 C   0  0  2  0  0  3  0  0  0  0  0  0
  187.3900  177.4070  147.5000 C   0  0  0  0  0  1  0  0  0  0  0  0
  188.2570  175.0110  143.5430 C   0  0  2  0  0  3  0  0  0  0  0  0
  1 21  1  6  0  0  0
  1 16  1  0  0  0  0
  1  6  1  0  0  0  0
  4 20  1  0  0  0  0
  5 17  1  0  0  0  0
  5 27  1  1  0  0  0
  6 23  1  0  0  0  0
  8  7  1  6  0  0  0
  8 14  1  0  0  0  0
  8  2  1  0  0  0  0
  8 10  1  0  0  0  0
  9 18  1  6  0  0  0
  9 13  1  0  0  0  0
 10 28  1  0  0  0  0
 10 26  1  0  0  0  0
 12 24  1  0  0  0  0
 12 25  1  0  0  0  0
 13 26  1  0  0  0  0
 14  9  1  0  0  0  0
 15 11  1  0  0  0  0
 15 19  1  0  0  0  0
 16 28  1  0  0  0  0
 17  3  2  0  0  0  0
 20 16  1  0  0  0  0
 22  4  1  0  0  0  0
 22 21  1  0  0  0  0
 23 15  1  0  0  0  0
 24  5  1  0  0  0  0
 25 19  1  0  0  0  0
 25 17  1  0  0  0  0
 26 24  1  0  0  0  0
 28 12  1  0  0  0  0
M  END
>  <MODEL>
7

>  <REMARK>
 VINA RESULT:      -7.5      2.423      4.886
  Name = 
  0 active torsions:
  status: ('A' for Active; 'I' for Inactive)
                            x       y       z     vdW  Elec       q    Type
                         _______ _______ _______ _____ _____    ______ ____

>  <TORSDO>
F 0

$$$$
=
 OpenBabel11112417423D

 28 32  0  0  1  0  0  0  0  0999 V2000
  189.2200  175.8680  144.4450 C   0  0  2  0  0  3  0  0  0  0  0  0
  192.0770  176.0090  143.9630 F   0  0  0  0  0  0  0  0  0  0  0  0
  190.6070  170.1310  142.0100 O   0  0  0  0  0  0  0  0  0  0  0  0
  188.3710  175.5930  147.2420 C   0  0  0  0  0  2  0  0  0  0  0  0
  192.3890  171.3700  143.0370 C   0  0  2  0  0  3  0  0  0  0  0  0
  189.2080  175.8810  142.9300 C   0  0  0  0  0  2  0  0  0  0  0  0
  191.9690  176.4330  146.2930 C   0  0  0  0  0  1  0  0  0  0  0  0
  192.5010  175.5220  145.2080 C   0  0  1  0  0  0  0  0  0  0  0  0
  194.6180  174.5670  144.3640 C   0  0  1  0  0  3  0  0  0  0  0  0
  191.9770  174.0530  145.4490 C   0  0  2  0  0  3  0  0  0  0  0  0
  188.5530  174.2150  139.9240 C   0  0  0  0  0  1  0  0  0  0  0  0
  191.0160  173.4200  143.2680 C   0  0  1  0  0  3  0  0  0  0  0  0
  194.2870  173.2990  144.9780 N   0  0  0  0  0  2  0  0  0  0  0  0
  194.0400  175.6360  145.2670 C   0  0  0  0  0  2  0  0  0  0  0  0
  188.9740  174.0500  141.3660 C   0  0  2  0  0  3  0  0  0  0  0  0
  189.3690  174.4720  145.1170 C   0  0  2  0  0  3  0  0  0  0  0  0
  191.0250  171.2150  142.5190 C   0  0  0  0  0  0  0  0  0  0  0  0
  196.0710  174.6910  144.3050 N   0  0  0  0  0  1  0  0  0  0  0  0
  189.0810  172.5890  141.7700 C   0  0  0  0  0  2  0  0  0  0  0  0
  189.3670  174.5590  146.6780 C   0  0  0  0  0  2  0  0  0  0  0  0
  188.0960  176.7080  145.0550 C   0  0  0  0  0  2  0  0  0  0  0  0
  188.4800  176.9390  146.5140 C   0  0  0  0  0  2  0  0  0  0  0  0
  188.1990  174.9160  142.3320 C   0  0  0  0  0  2  0  0  0  0  0  0
  192.4520  172.8450  143.3680 C   0  0  1  0  0  3  0  0  0  0  0  0
  190.2150  172.3580  142.6820 N   0  0  0  0  0  0  0  0  0  0  0  0
  192.8780  173.0040  144.8240 C   0  0  2  0  0  3  0  0  0  0  0  0
  193.4270  171.0660  141.9910 C   0  0  0  0  0  1  0  0  0  0  0  0
  190.6570  173.6970  144.7400 C   0  0  2  0  0  3  0  0  0  0  0  0
  1  6  1  6  0  0  0
  1 21  1  0  0  0  0
  1 16  1  0  0  0  0
  2  8  1  0  0  0  0
  3 17  2  0  0  0  0
  5 27  1  6  0  0  0
  5 24  1  0  0  0  0
  8 14  1  0  0  0  0
  8 10  1  0  0  0  0
  8  7  1  1  0  0  0
  9 18  1  1  0  0  0
  9 13  1  0  0  0  0
  9 14  1  0  0  0  0
 11 15  1  0  0  0  0
 12 24  1  0  0  0  0
 12 28  1  0  0  0  0
 15 19  1  0  0  0  0
 15 23  1  0  0  0  0
 16 20  1  0  0  0  0
 17 25  1  0  0  0  0
 17  5  1  0  0  0  0
 19 25  1  0  0  0  0
 20  4  1  0  0  0  0
 21 22  1  0  0  0  0
 22  4  1  0  0  0  0
 23  6  1  0  0  0  0
 24 26  1  0  0  0  0
 25 12  1  0  0  0  0
 26 13  1  0  0  0  0
 26 10  1  0  0  0  0
 28 16  1  0  0  0  0
 28 10  1  0  0  0  0
M  END
>  <MODEL>
8

>  <REMARK>
 VINA RESULT:      -7.4      3.590      6.267
  Name = 
  0 active torsions:
  status: ('A' for Active; 'I' for Inactive)
                            x       y       z     vdW  Elec       q    Type
                         _______ _______ _______ _____ _____    ______ ____

>  <TORSDO>
F 0

$$$$
=
 OpenBabel11112417423D

 28 32  0  0  1  0  0  0  0  0999 V2000
  191.0670  175.3440  144.8370 C   0  0  2  0  0  3  0  0  0  0  0  0
  193.6270  175.7950  143.5490 F   0  0  0  0  0  0  0  0  0  0  0  0
  193.8090  169.5780  144.9100 O   0  0  0  0  0  0  0  0  0  0  0  0
  190.7800  176.3550  147.5780 C   0  0  0  0  0  2  0  0  0  0  0  0
  195.2430  171.4960  144.7260 C   0  0  2  0  0  3  0  0  0  0  0  0
  190.8250  174.5890  143.5470 C   0  0  0  0  0  2  0  0  0  0  0  0
  193.7430  177.3050  145.3730 C   0  0  0  0  0  1  0  0  0  0  0  0
  194.3660  176.1000  144.7020 C   0  0  1  0  0  0  0  0  0  0  0  0
  196.5240  175.2990  143.8030 C   0  0  1  0  0  3  0  0  0  0  0  0
  194.3740  174.8830  145.7070 C   0  0  2  0  0  3  0  0  0  0  0  0
  190.2840  171.5400  141.9160 C   0  0  0  0  0  1  0  0  0  0  0  0
  193.3450  173.0570  144.4070 C   0  0  1  0  0  3  0  0  0  0  0  0
  196.7060  174.4770  144.9800 N   0  0  0  0  0  2  0  0  0  0  0  0
  195.7810  176.5350  144.2620 C   0  0  0  0  0  2  0  0  0  0  0  0
  190.9470  172.2140  143.0940 C   0  0  2  0  0  3  0  0  0  0  0  0
  191.7490  174.5420  145.9830 C   0  0  2  0  0  3  0  0  0  0  0  0
  193.9360  170.8300  144.7440 C   0  0  0  0  0  0  0  0  0  0  0  0
  197.8370  175.6660  143.2830 N   0  0  0  0  0  1  0  0  0  0  0  0
  191.5690  171.2130  144.0540 C   0  0  0  0  0  2  0  0  0  0  0  0
  191.9540  175.4020  147.2730 C   0  0  0  0  0  2  0  0  0  0  0  0
  189.8410  176.1310  145.3050 C   0  0  0  0  0  2  0  0  0  0  0  0
  190.3480  177.1390  146.3330 C   0  0  0  0  0  2  0  0  0  0  0  0
  190.0940  173.2730  143.7530 C   0  0  0  0  0  2  0  0  0  0  0  0
  194.8870  172.9140  144.3370 C   0  0  1  0  0  3  0  0  0  0  0  0
  192.8410  171.7080  144.6070 N   0  0  0  0  0  0  0  0  0  0  0  0
  195.4550  173.8680  145.3820 C   0  0  2  0  0  3  0  0  0  0  0  0
  196.1540  170.9210  143.6750 C   0  0  0  0  0  1  0  0  0  0  0  0
  193.1430  173.9600  145.6380 C   0  0  2  0  0  3  0  0  0  0  0  0
  1  6  1  6  0  0  0
  1 21  1  0  0  0  0
  1 16  1  0  0  0  0
  2  8  1  0  0  0  0
  5 27  1  6  0  0  0
  5 17  1  0  0  0  0
  6 23  1  0  0  0  0
  8  7  1  1  0  0  0
  8 10  1  0  0  0  0
  9 18  1  1  0  0  0
  9 14  1  0  0  0  0
  9 13  1  0  0  0  0
 11 15  1  0  0  0  0
 12 25  1  0  0  0  0
 12 28  1  0  0  0  0
 13 26  1  0  0  0  0
 14  8  1  0  0  0  0
 15 23  1  0  0  0  0
 15 19  1  0  0  0  0
 16 20  1  0  0  0  0
 17  3  2  0  0  0  0
 19 25  1  0  0  0  0
 20  4  1  0  0  0  0
 21 22  1  0  0  0  0
 22  4  1  0  0  0  0
 24 12  1  0  0  0  0
 24  5  1  0  0  0  0
 24 26  1  0  0  0  0
 25 17  1  0  0  0  0
 26 10  1  0  0  0  0
 28 10  1  0  0  0  0
 28 16  1  0  0  0  0
M  END
>  <MODEL>
9

>  <REMARK>
 VINA RESULT:      -7.1      4.932      7.747
  Name = 
  0 active torsions:
  status: ('A' for Active; 'I' for Inactive)
                            x       y       z     vdW  Elec       q    Type
                         _______ _______ _______ _____ _____    ______ ____

>  <TORSDO>
F 0

$$$$
