=
 OpenBabel11112416153D

 30 35  0  0  1  0  0  0  0  0999 V2000
  187.2410  176.6200  144.3610 C   0  0  0  0  0  0  0  0  0  0  0  0
  185.3110  177.9070  145.2600 C   0  0  0  0  0  0  0  0  0  0  0  0
  189.5120  177.4450  147.6860 N   0  0  0  0  0  2  0  0  0  0  0  0
  188.5480  176.0940  144.5270 C   0  0  0  0  0  0  0  0  0  0  0  0
  186.5620  176.3550  143.1660 O   0  0  0  0  0  0  0  0  0  0  0  0
  189.0720  174.3620  141.1870 C   0  0  0  0  0  1  0  0  0  0  0  0
  191.4410  174.9970  143.9950 C   0  0  1  0  0  3  0  0  0  0  0  0
  188.2220  174.7920  142.3810 C   0  0  2  0  0  3  0  0  0  0  0  0
  191.7000  175.6830  145.3290 C   0  0  2  0  0  3  0  0  0  0  0  0
  190.6380  176.8210  147.2780 C   0  0  0  0  0  0  0  0  0  0  0  0
  187.2550  175.9190  142.0020 C   0  0  2  0  0  3  0  0  0  0  0  0
  189.0390  175.1380  143.5590 N   0  0  0  0  0  0  0  0  0  0  0  0
  184.7560  178.6710  146.2910 C   0  0  0  0  0  3  0  0  0  0  0  0
  192.5140  174.6940  146.1390 C   0  0  0  0  0  2  0  0  0  0  0  0
  192.6030  174.0360  143.7980 C   0  0  0  0  0  2  0  0  0  0  0  0
  184.5360  177.6660  144.1300 O   0  0  0  0  0  1  0  0  0  0  0  0
  188.6610  177.2110  146.6730 C   0  0  0  0  0  0  0  0  0  0  0  0
  185.4860  178.9450  147.4470 C   0  0  0  0  0  3  0  0  0  0  0  0
  186.6260  177.4000  145.3810 C   0  0  0  0  0  0  0  0  0  0  0  0
  189.2590  176.4590  145.6920 C   0  0  0  0  0  0  0  0  0  0  0  0
  191.7040  176.8600  147.9480 O   0  0  0  0  0  0  0  0  0  0  0  0
  190.5340  176.1930  146.0760 N   0  0  0  0  0  0  0  0  0  0  0  0
  193.3520  173.9540  145.1190 C   0  0  0  0  0  2  0  0  0  0  0  0
  189.7930  173.3300  145.0780 C   0  0  0  0  0  1  0  0  0  0  0  0
  186.7850  178.4580  147.5830 C   0  0  0  0  0  3  0  0  0  0  0  0
  187.3570  177.6880  146.5640 C   0  0  0  0  0  0  0  0  0  0  0  0
  190.1300  174.2310  143.8910 C   0  0  2  0  0  3  0  0  0  0  0  0
  187.9790  177.1040  141.3650 C   0  0  0  0  0  2  0  0  0  0  0  0
  186.5230  177.3710  139.7310 C   0  0  0  0  0  1  0  0  0  0  0  0
  187.0490  178.0090  140.8530 O   0  0  0  0  0  0  0  0  0  0  0  0
  1  4  2  0  0  0  0
  1 19  1  0  0  0  0
  2 19  2  0  0  0  0
  2 13  1  0  0  0  0
  4 20  1  0  0  0  0
  5  1  1  0  0  0  0
  7 15  1  1  0  0  0
  7  9  1  0  0  0  0
  8  6  1  6  0  0  0
  8 12  1  0  0  0  0
  9 22  1  0  0  0  0
  9 14  1  1  0  0  0
 10  3  1  0  0  0  0
 10 21  2  0  0  0  0
 11 28  1  1  0  0  0
 11  8  1  0  0  0  0
 11  5  1  0  0  0  0
 12 27  1  0  0  0  0
 12  4  1  0  0  0  0
 13 18  2  0  0  0  0
 15 23  1  0  0  0  0
 16  2  1  0  0  0  0
 17  3  1  0  0  0  0
 18 25  1  0  0  0  0
 19 26  1  0  0  0  0
 20 22  1  0  0  0  0
 20 17  2  0  0  0  0
 22 10  1  0  0  0  0
 23 14  1  0  0  0  0
 26 17  1  0  0  0  0
 26 25  2  0  0  0  0
 27  7  1  0  0  0  0
 27 24  1  1  0  0  0
 29 30  1  0  0  0  0
 30 28  1  0  0  0  0
M  END
>  <MODEL>
1

>  <REMARK>
 VINA RESULT:      -8.8      0.000      0.000
  Name = 
  2 active torsions:
  status: ('A' for Active; 'I' for Inactive)
    1  A    between atoms: C_11  and  C_28
    2  A    between atoms: C_28  and  O_30
                            x       y       z     vdW  Elec       q    Type
                         _______ _______ _______ _____ _____    ______ ____

>  <TORSDO>
F 2

$$$$
=
 OpenBabel11112416153D

 30 35  0  0  1  0  0  0  0  0999 V2000
  189.6750  175.8680  144.0280 C   0  0  0  0  0  0  0  0  0  0  0  0
  191.7090  175.3010  145.3430 C   0  0  0  0  0  0  0  0  0  0  0  0
  187.8550  177.5410  147.3120 N   0  0  0  0  0  2  0  0  0  0  0  0
  188.3980  176.4820  143.9480 C   0  0  0  0  0  0  0  0  0  0  0  0
  190.1930  175.2540  142.8830 O   0  0  0  0  0  0  0  0  0  0  0  0
  187.4410  175.7180  140.3530 C   0  0  0  0  0  1  0  0  0  0  0  0
  185.4560  177.2130  143.1320 C   0  0  1  0  0  3  0  0  0  0  0  0
  188.4400  176.0830  141.4490 C   0  0  2  0  0  3  0  0  0  0  0  0
  185.3740  177.5610  144.6120 C   0  0  2  0  0  3  0  0  0  0  0  0
  186.6830  177.8480  146.7150 C   0  0  0  0  0  0  0  0  0  0  0  0
  189.3540  174.8990  141.7890 C   0  0  2  0  0  3  0  0  0  0  0  0
  187.7820  176.6350  142.6480 N   0  0  0  0  0  0  0  0  0  0  0  0
  192.3960  175.3300  146.5610 C   0  0  0  0  0  3  0  0  0  0  0  0
  184.6680  178.9000  144.6730 C   0  0  0  0  0  2  0  0  0  0  0  0
  184.2750  177.9160  142.4810 C   0  0  0  0  0  2  0  0  0  0  0  0
  192.3310  174.7030  144.2520 O   0  0  0  0  0  1  0  0  0  0  0  0
  188.5670  177.0050  146.3070 C   0  0  0  0  0  0  0  0  0  0  0  0
  191.8210  175.9170  147.6890 C   0  0  0  0  0  3  0  0  0  0  0  0
  190.4190  175.8730  145.2420 C   0  0  0  0  0  0  0  0  0  0  0  0
  187.8450  177.0030  145.1390 C   0  0  0  0  0  0  0  0  0  0  0  0
  185.7130  178.3320  147.3570 O   0  0  0  0  0  0  0  0  0  0  0  0
  186.6280  177.5530  145.3880 N   0  0  0  0  0  0  0  0  0  0  0  0
  183.7020  178.8830  143.5070 C   0  0  0  0  0  2  0  0  0  0  0  0
  187.2240  179.0490  142.7140 C   0  0  0  0  0  1  0  0  0  0  0  0
  190.5490  176.4800  147.6100 C   0  0  0  0  0  3  0  0  0  0  0  0
  189.8480  176.4650  146.4000 C   0  0  0  0  0  0  0  0  0  0  0  0
  186.7400  177.6280  142.4280 C   0  0  2  0  0  3  0  0  0  0  0  0
  188.5580  173.6440  142.1410 C   0  0  0  0  0  2  0  0  0  0  0  0
  189.3080  171.9180  143.2900 C   0  0  0  0  0  1  0  0  0  0  0  0
  189.3750  172.5190  142.0340 O   0  0  0  0  0  0  0  0  0  0  0  0
  1 19  1  0  0  0  0
  2 13  1  0  0  0  0
  4  1  2  0  0  0  0
  4 20  1  0  0  0  0
  5  1  1  0  0  0  0
  7 15  1  6  0  0  0
  7  9  1  0  0  0  0
  8  6  1  6  0  0  0
  8 11  1  0  0  0  0
  8 12  1  0  0  0  0
  9 14  1  6  0  0  0
  9 22  1  0  0  0  0
 10  3  1  0  0  0  0
 10 21  2  0  0  0  0
 11 28  1  1  0  0  0
 11  5  1  0  0  0  0
 12  4  1  0  0  0  0
 13 18  2  0  0  0  0
 15 23  1  0  0  0  0
 16  2  1  0  0  0  0
 17 26  1  0  0  0  0
 17  3  1  0  0  0  0
 19  2  2  0  0  0  0
 19 26  1  0  0  0  0
 20 22  1  0  0  0  0
 20 17  2  0  0  0  0
 22 10  1  0  0  0  0
 23 14  1  0  0  0  0
 25 18  1  0  0  0  0
 26 25  2  0  0  0  0
 27 12  1  0  0  0  0
 27 24  1  1  0  0  0
 27  7  1  0  0  0  0
 30 28  1  0  0  0  0
 30 29  1  0  0  0  0
M  END
>  <MODEL>
2

>  <REMARK>
 VINA RESULT:      -7.9      2.189      5.598
  Name = 
  2 active torsions:
  status: ('A' for Active; 'I' for Inactive)
    1  A    between atoms: C_11  and  C_28
    2  A    between atoms: C_28  and  O_30
                            x       y       z     vdW  Elec       q    Type
                         _______ _______ _______ _____ _____    ______ ____

>  <TORSDO>
F 2

$$$$
=
 OpenBabel11112416153D

 30 35  0  0  1  0  0  0  0  0999 V2000
  189.3330  174.8660  143.2020 C   0  0  0  0  0  0  0  0  0  0  0  0
  190.3840  173.1600  141.7260 C   0  0  0  0  0  0  0  0  0  0  0  0
  187.0970  176.3700  140.0980 N   0  0  0  0  0  2  0  0  0  0  0  0
  188.3970  175.9150  143.3900 C   0  0  0  0  0  0  0  0  0  0  0  0
  190.1110  174.4610  144.2930 O   0  0  0  0  0  0  0  0  0  0  0  0
  189.0100  176.8000  147.0320 C   0  0  0  0  0  1  0  0  0  0  0  0
  186.9190  178.4780  144.4410 C   0  0  1  0  0  3  0  0  0  0  0  0
  188.8900  175.8170  145.8710 C   0  0  2  0  0  3  0  0  0  0  0  0
  186.5050  178.5600  142.9790 C   0  0  2  0  0  3  0  0  0  0  0  0
  186.5050  177.3680  140.7880 C   0  0  0  0  0  0  0  0  0  0  0  0
  190.2640  175.2900  145.4400 C   0  0  2  0  0  3  0  0  0  0  0  0
  188.1320  176.3750  144.7360 N   0  0  0  0  0  0  0  0  0  0  0  0
  190.4960  172.5770  140.4600 C   0  0  0  0  0  3  0  0  0  0  0  0
  185.0220  178.8720  142.9970 C   0  0  0  0  0  2  0  0  0  0  0  0
  185.9460  179.3720  145.1920 C   0  0  0  0  0  2  0  0  0  0  0  0
  191.1720  172.6560  142.7550 O   0  0  0  0  0  1  0  0  0  0  0  0
  187.8470  175.7670  141.0360 C   0  0  0  0  0  0  0  0  0  0  0  0
  189.7300  173.0410  139.3910 C   0  0  0  0  0  3  0  0  0  0  0  0
  189.4850  174.2330  141.9360 C   0  0  0  0  0  0  0  0  0  0  0  0
  187.6970  176.3820  142.2550 C   0  0  0  0  0  0  0  0  0  0  0  0
  185.7480  178.2080  140.2310 O   0  0  0  0  0  0  0  0  0  0  0  0
  186.8250  177.4120  142.1090 N   0  0  0  0  0  0  0  0  0  0  0  0
  184.8200  179.7230  144.2320 C   0  0  0  0  0  2  0  0  0  0  0  0
  185.6570  176.2470  144.7590 C   0  0  0  0  0  1  0  0  0  0  0  0
  188.8440  174.1000  139.5770 C   0  0  0  0  0  3  0  0  0  0  0  0
  188.7130  174.6950  140.8360 C   0  0  0  0  0  0  0  0  0  0  0  0
  186.9000  177.0850  145.0540 C   0  0  2  0  0  3  0  0  0  0  0  0
  191.2390  176.4240  145.1250 C   0  0  0  0  0  2  0  0  0  0  0  0
  192.7830  175.7970  146.5690 C   0  0  0  0  0  1  0  0  0  0  0  0
  192.5500  175.9570  145.2030 O   0  0  0  0  0  0  0  0  0  0  0  0
  1  4  1  0  0  0  0
  1  5  1  0  0  0  0
  2 19  1  0  0  0  0
  2 16  1  0  0  0  0
  3 10  1  0  0  0  0
  3 17  1  0  0  0  0
  4 12  1  0  0  0  0
  5 11  1  0  0  0  0
  7 27  1  0  0  0  0
  7 15  1  1  0  0  0
  8  6  1  1  0  0  0
  9 14  1  1  0  0  0
  9  7  1  0  0  0  0
 10 22  1  0  0  0  0
 11 28  1  6  0  0  0
 11  8  1  0  0  0  0
 12 27  1  0  0  0  0
 12  8  1  0  0  0  0
 13  2  2  0  0  0  0
 14 23  1  0  0  0  0
 17 20  1  0  0  0  0
 18 25  2  0  0  0  0
 18 13  1  0  0  0  0
 19  1  2  0  0  0  0
 20  4  2  0  0  0  0
 21 10  2  0  0  0  0
 22 20  1  0  0  0  0
 22  9  1  0  0  0  0
 23 15  1  0  0  0  0
 25 26  1  0  0  0  0
 26 17  2  0  0  0  0
 26 19  1  0  0  0  0
 27 24  1  6  0  0  0
 28 30  1  0  0  0  0
 30 29  1  0  0  0  0
M  END
>  <MODEL>
3

>  <REMARK>
 VINA RESULT:      -7.7      2.245      7.007
  Name = 
  2 active torsions:
  status: ('A' for Active; 'I' for Inactive)
    1  A    between atoms: C_11  and  C_28
    2  A    between atoms: C_28  and  O_30
                            x       y       z     vdW  Elec       q    Type
                         _______ _______ _______ _____ _____    ______ ____

>  <TORSDO>
F 2

$$$$
=
 OpenBabel11112416153D

 30 35  0  0  1  0  0  0  0  0999 V2000
  188.0970  177.1970  143.8520 C   0  0  0  0  0  0  0  0  0  0  0  0
  186.2710  178.4510  142.7190 C   0  0  0  0  0  0  0  0  0  0  0  0
  188.6880  174.8150  140.5540 N   0  0  0  0  0  2  0  0  0  0  0  0
  189.1200  176.2150  143.8080 C   0  0  0  0  0  0  0  0  0  0  0  0
  187.9110  177.9140  145.0380 O   0  0  0  0  0  0  0  0  0  0  0  0
  190.4710  176.4050  147.3530 C   0  0  0  0  0  1  0  0  0  0  0  0
  191.2070  174.0050  144.5960 C   0  0  1  0  0  3  0  0  0  0  0  0
  189.8940  177.0200  146.0790 C   0  0  2  0  0  3  0  0  0  0  0  0
  190.8610  173.5040  143.2010 C   0  0  2  0  0  3  0  0  0  0  0  0
  189.6530  174.0330  141.0840 C   0  0  0  0  0  0  0  0  0  0  0  0
  188.4350  177.4460  146.2770 C   0  0  2  0  0  3  0  0  0  0  0  0
  190.0590  176.1420  144.9060 N   0  0  0  0  0  0  0  0  0  0  0  0
  185.4880  178.6590  141.5800 C   0  0  0  0  0  3  0  0  0  0  0  0
  192.1880  173.1650  142.5530 C   0  0  0  0  0  2  0  0  0  0  0  0
  192.5190  173.3290  144.9590 C   0  0  0  0  0  2  0  0  0  0  0  0
  186.0330  179.2470  143.8350 O   0  0  0  0  0  1  0  0  0  0  0  0
  188.4280  175.6790  141.5490 C   0  0  0  0  0  0  0  0  0  0  0  0
  185.6810  177.8900  140.4320 C   0  0  0  0  0  3  0  0  0  0  0  0
  187.2750  177.4530  142.7180 C   0  0  0  0  0  0  0  0  0  0  0  0
  189.2240  175.4270  142.6400 C   0  0  0  0  0  0  0  0  0  0  0  0
  190.1320  173.0480  140.4610 O   0  0  0  0  0  0  0  0  0  0  0  0
  190.0270  174.3710  142.3470 N   0  0  0  0  0  0  0  0  0  0  0  0
  193.0650  172.6880  143.6910 C   0  0  0  0  0  2  0  0  0  0  0  0
  192.1970  176.1960  143.6520 C   0  0  0  0  0  1  0  0  0  0  0  0
  186.6610  176.9000  140.4140 C   0  0  0  0  0  3  0  0  0  0  0  0
  187.4580  176.6780  141.5420 C   0  0  0  0  0  0  0  0  0  0  0  0
  191.3620  175.5130  144.7340 C   0  0  2  0  0  3  0  0  0  0  0  0
  187.5690  176.2990  146.7960 C   0  0  0  0  0  2  0  0  0  0  0  0
  186.0210  177.5070  147.8010 C   0  0  0  0  0  1  0  0  0  0  0  0
  186.2210  176.6510  146.7190 O   0  0  0  0  0  0  0  0  0  0  0  0
  1  5  1  0  0  0  0
  2 16  1  0  0  0  0
  3 10  1  0  0  0  0
  3 17  1  0  0  0  0
  4  1  1  0  0  0  0
  4 12  1  0  0  0  0
  5 11  1  0  0  0  0
  7 27  1  0  0  0  0
  7 15  1  6  0  0  0
  8 11  1  0  0  0  0
  8  6  1  1  0  0  0
  9 14  1  6  0  0  0
  9  7  1  0  0  0  0
 10 22  1  0  0  0  0
 11 28  1  6  0  0  0
 12  8  1  0  0  0  0
 13  2  2  0  0  0  0
 14 23  1  0  0  0  0
 17 20  1  0  0  0  0
 18 13  1  0  0  0  0
 19  2  1  0  0  0  0
 19  1  2  0  0  0  0
 20  4  2  0  0  0  0
 21 10  2  0  0  0  0
 22 20  1  0  0  0  0
 22  9  1  0  0  0  0
 23 15  1  0  0  0  0
 25 18  2  0  0  0  0
 25 26  1  0  0  0  0
 26 17  2  0  0  0  0
 26 19  1  0  0  0  0
 27 24  1  6  0  0  0
 27 12  1  0  0  0  0
 30 28  1  0  0  0  0
 30 29  1  0  0  0  0
M  END
>  <MODEL>
4

>  <REMARK>
 VINA RESULT:      -7.6      1.894      4.811
  Name = 
  2 active torsions:
  status: ('A' for Active; 'I' for Inactive)
    1  A    between atoms: C_11  and  C_28
    2  A    between atoms: C_28  and  O_30
                            x       y       z     vdW  Elec       q    Type
                         _______ _______ _______ _____ _____    ______ ____

>  <TORSDO>
F 2

$$$$
=
 OpenBabel11112416153D

 30 35  0  0  1  0  0  0  0  0999 V2000
  191.3760  175.0300  143.4950 C   0  0  0  0  0  0  0  0  0  0  0  0
  193.6870  174.6870  144.3510 C   0  0  0  0  0  0  0  0  0  0  0  0
  190.3000  177.1360  146.8580 N   0  0  0  0  0  2  0  0  0  0  0  0
  190.0880  175.6090  143.6390 C   0  0  0  0  0  0  0  0  0  0  0  0
  191.6390  174.2640  142.3550 O   0  0  0  0  0  0  0  0  0  0  0  0
  188.3520  174.3200  140.5170 C   0  0  0  0  0  1  0  0  0  0  0  0
  187.0050  176.1750  143.4570 C   0  0  1  0  0  3  0  0  0  0  0  0
  189.5610  174.8530  141.2820 C   0  0  2  0  0  3  0  0  0  0  0  0
  187.2570  176.7320  144.8520 C   0  0  2  0  0  3  0  0  0  0  0  0
  189.0080  177.3380  146.5210 C   0  0  0  0  0  0  0  0  0  0  0  0
  190.5840  173.7440  141.5530 C   0  0  2  0  0  3  0  0  0  0  0  0
  189.1780  175.5630  142.5160 N   0  0  0  0  0  0  0  0  0  0  0  0
  194.6370  174.9010  145.3540 C   0  0  0  0  0  3  0  0  0  0  0  0
  186.5210  178.0560  144.8950 C   0  0  0  0  0  2  0  0  0  0  0  0
  185.6730  176.7600  143.0180 C   0  0  0  0  0  2  0  0  0  0  0  0
  194.0620  173.9450  143.2360 O   0  0  0  0  0  1  0  0  0  0  0  0
  190.7810  176.4700  145.7950 C   0  0  0  0  0  0  0  0  0  0  0  0
  194.3160  175.6370  146.4940 C   0  0  0  0  0  3  0  0  0  0  0  0
  192.3830  175.2210  144.4840 C   0  0  0  0  0  0  0  0  0  0  0  0
  189.8060  176.2890  144.8450 C   0  0  0  0  0  0  0  0  0  0  0  0
  188.1930  177.8960  147.3040 O   0  0  0  0  0  0  0  0  0  0  0  0
  188.6570  176.8540  145.3000 N   0  0  0  0  0  0  0  0  0  0  0  0
  185.3110  177.8570  144.0080 C   0  0  0  0  0  2  0  0  0  0  0  0
  188.5370  177.9540  142.3810 C   0  0  0  0  0  1  0  0  0  0  0  0
  193.0360  176.1660  146.6450 C   0  0  0  0  0  3  0  0  0  0  0  0
  192.0720  175.9670  145.6520 C   0  0  0  0  0  0  0  0  0  0  0  0
  188.0670  176.5010  142.4170 C   0  0  2  0  0  3  0  0  0  0  0  0
  189.9540  172.5420  142.2540 C   0  0  0  0  0  2  0  0  0  0  0  0
  190.6370  171.2940  140.5690 C   0  0  0  0  0  1  0  0  0  0  0  0
  190.6790  171.3870  141.9600 O   0  0  0  0  0  0  0  0  0  0  0  0
  1  4  2  0  0  0  0
  1 19  1  0  0  0  0
  2 19  2  0  0  0  0
  2 13  1  0  0  0  0
  4 20  1  0  0  0  0
  5  1  1  0  0  0  0
  7 15  1  6  0  0  0
  7  9  1  0  0  0  0
  8  6  1  1  0  0  0
  8 11  1  0  0  0  0
  8 12  1  0  0  0  0
  9 14  1  6  0  0  0
  9 22  1  0  0  0  0
 10  3  1  0  0  0  0
 10 21  2  0  0  0  0
 11 28  1  1  0  0  0
 11  5  1  0  0  0  0
 12  4  1  0  0  0  0
 13 18  2  0  0  0  0
 15 23  1  0  0  0  0
 16  2  1  0  0  0  0
 17  3  1  0  0  0  0
 18 25  1  0  0  0  0
 19 26  1  0  0  0  0
 20 22  1  0  0  0  0
 20 17  2  0  0  0  0
 22 10  1  0  0  0  0
 23 14  1  0  0  0  0
 26 17  1  0  0  0  0
 26 25  2  0  0  0  0
 27 24  1  1  0  0  0
 27 12  1  0  0  0  0
 27  7  1  0  0  0  0
 29 30  1  0  0  0  0
 30 28  1  0  0  0  0
M  END
>  <MODEL>
5

>  <REMARK>
 VINA RESULT:      -7.6      2.459      5.813
  Name = 
  2 active torsions:
  status: ('A' for Active; 'I' for Inactive)
    1  A    between atoms: C_11  and  C_28
    2  A    between atoms: C_28  and  O_30
                            x       y       z     vdW  Elec       q    Type
                         _______ _______ _______ _____ _____    ______ ____

>  <TORSDO>
F 2

$$$$
=
 OpenBabel11112416153D

 30 35  0  0  1  0  0  0  0  0999 V2000
  187.4400  176.4550  140.9140 C   0  0  0  0  0  0  0  0  0  0  0  0
  187.4230  175.5390  138.6010 C   0  0  0  0  0  0  0  0  0  0  0  0
  189.6590  173.2840  142.2980 N   0  0  0  0  0  2  0  0  0  0  0  0
  187.8800  176.3770  142.2600 C   0  0  0  0  0  0  0  0  0  0  0  0
  186.6240  177.5280  140.5390 O   0  0  0  0  0  0  0  0  0  0  0  0
  186.1730  179.4170  143.7670 C   0  0  0  0  0  1  0  0  0  0  0  0
  188.0820  176.6520  145.3820 C   0  0  1  0  0  3  0  0  0  0  0  0
  186.8940  178.6760  142.6430 C   0  0  2  0  0  3  0  0  0  0  0  0
  188.7660  175.3010  145.2270 C   0  0  2  0  0  3  0  0  0  0  0  0
  189.6890  173.6550  143.5960 C   0  0  0  0  0  0  0  0  0  0  0  0
  185.9300  178.3050  141.5100 C   0  0  2  0  0  3  0  0  0  0  0  0
  187.6480  177.5080  143.1320 N   0  0  0  0  0  0  0  0  0  0  0  0
  187.8170  174.5410  137.7040 C   0  0  0  0  0  3  0  0  0  0  0  0
  190.0000  175.3720  146.1050 C   0  0  0  0  0  2  0  0  0  0  0  0
  188.4790  177.1560  146.7590 C   0  0  0  0  0  2  0  0  0  0  0  0
  186.6460  176.5870  138.1180 O   0  0  0  0  0  1  0  0  0  0  0  0
  188.9730  174.2840  141.7200 C   0  0  0  0  0  0  0  0  0  0  0  0
  188.5960  173.4660  138.1320 C   0  0  0  0  0  3  0  0  0  0  0  0
  187.8160  175.4690  139.9590 C   0  0  0  0  0  0  0  0  0  0  0  0
  188.6130  175.2330  142.6460 C   0  0  0  0  0  0  0  0  0  0  0  0
  190.2100  172.9320  144.4860 O   0  0  0  0  0  0  0  0  0  0  0  0
  189.0780  174.8410  143.8600 N   0  0  0  0  0  0  0  0  0  0  0  0
  189.6010  176.2600  147.2640 C   0  0  0  0  0  2  0  0  0  0  0  0
  189.9350  177.8380  144.0300 C   0  0  0  0  0  1  0  0  0  0  0  0
  188.9880  173.3770  139.4660 C   0  0  0  0  0  3  0  0  0  0  0  0
  188.6080  174.3670  140.3790 C   0  0  0  0  0  0  0  0  0  0  0  0
  188.4450  177.6970  144.3370 C   0  0  2  0  0  3  0  0  0  0  0  0
  184.7210  177.5220  142.0210 C   0  0  0  0  0  2  0  0  0  0  0  0
  183.2730  178.2880  140.5450 C   0  0  0  0  0  1  0  0  0  0  0  0
  183.5700  178.3010  141.9070 O   0  0  0  0  0  0  0  0  0  0  0  0
  1  4  1  0  0  0  0
  2 19  1  0  0  0  0
  3 10  1  0  0  0  0
  4 20  2  0  0  0  0
  4 12  1  0  0  0  0
  5  1  1  0  0  0  0
  5 11  1  0  0  0  0
  7 15  1  1  0  0  0
  8 12  1  0  0  0  0
  8  6  1  1  0  0  0
  9  7  1  0  0  0  0
  9 14  1  1  0  0  0
 10 22  1  0  0  0  0
 10 21  2  0  0  0  0
 11 28  1  1  0  0  0
 11  8  1  0  0  0  0
 12 27  1  0  0  0  0
 13 18  1  0  0  0  0
 13  2  2  0  0  0  0
 14 23  1  0  0  0  0
 15 23  1  0  0  0  0
 16  2  1  0  0  0  0
 17  3  1  0  0  0  0
 17 20  1  0  0  0  0
 18 25  2  0  0  0  0
 19 26  1  0  0  0  0
 19  1  2  0  0  0  0
 20 22  1  0  0  0  0
 22  9  1  0  0  0  0
 25 26  1  0  0  0  0
 26 17  2  0  0  0  0
 27 24  1  6  0  0  0
 27  7  1  0  0  0  0
 29 30  1  0  0  0  0
 30 28  1  0  0  0  0
M  END
>  <MODEL>
6

>  <REMARK>
 VINA RESULT:      -7.4      2.339      5.542
  Name = 
  2 active torsions:
  status: ('A' for Active; 'I' for Inactive)
    1  A    between atoms: C_11  and  C_28
    2  A    between atoms: C_28  and  O_30
                            x       y       z     vdW  Elec       q    Type
                         _______ _______ _______ _____ _____    ______ ____

>  <TORSDO>
F 2

$$$$
=
 OpenBabel11112416153D

 30 35  0  0  1  0  0  0  0  0999 V2000
  187.9240  176.1040  144.0830 C   0  0  0  0  0  0  0  0  0  0  0  0
  186.1440  177.2400  145.3990 C   0  0  0  0  0  0  0  0  0  0  0  0
  190.7610  176.9550  146.9330 N   0  0  0  0  0  2  0  0  0  0  0  0
  189.2640  175.6530  143.9670 C   0  0  0  0  0  0  0  0  0  0  0  0
  187.0370  175.8380  143.0340 O   0  0  0  0  0  0  0  0  0  0  0  0
  189.2090  174.0680  140.5160 C   0  0  0  0  0  1  0  0  0  0  0  0
  192.0500  174.7540  142.8310 C   0  0  1  0  0  3  0  0  0  0  0  0
  188.5900  174.4060  141.8710 C   0  0  2  0  0  3  0  0  0  0  0  0
  192.5300  175.4100  144.1180 C   0  0  2  0  0  3  0  0  0  0  0  0
  191.8150  176.4160  146.2850 C   0  0  0  0  0  0  0  0  0  0  0  0
  187.5090  175.4840  141.7380 C   0  0  2  0  0  3  0  0  0  0  0  0
  189.6050  174.7620  142.8790 N   0  0  0  0  0  0  0  0  0  0  0  0
  185.7640  177.9340  146.5510 C   0  0  0  0  0  3  0  0  0  0  0  0
  193.5400  174.4460  144.7080 C   0  0  0  0  0  2  0  0  0  0  0  0
  193.1990  173.8730  142.3670 C   0  0  0  0  0  2  0  0  0  0  0  0
  185.1750  176.9900  144.4320 O   0  0  0  0  0  1  0  0  0  0  0  0
  189.7400  176.7040  146.0970 C   0  0  0  0  0  0  0  0  0  0  0  0
  186.6940  178.2140  147.5530 C   0  0  0  0  0  3  0  0  0  0  0  0
  187.4830  176.8100  145.2370 C   0  0  0  0  0  0  0  0  0  0  0  0
  190.1710  176.0220  144.9860 C   0  0  0  0  0  0  0  0  0  0  0  0
  192.9900  176.4970  146.7350 O   0  0  0  0  0  0  0  0  0  0  0  0
  191.5100  175.8220  145.1000 N   0  0  0  0  0  0  0  0  0  0  0  0
  194.1980  173.7930  143.5120 C   0  0  0  0  0  2  0  0  0  0  0  0
  190.7390  172.9540  144.1400 C   0  0  0  0  0  1  0  0  0  0  0  0
  188.0170  177.8030  147.4110 C   0  0  0  0  0  3  0  0  0  0  0  0
  188.4170  177.1040  146.2660 C   0  0  0  0  0  0  0  0  0  0  0  0
  190.7870  173.9130  142.9510 C   0  0  2  0  0  3  0  0  0  0  0  0
  188.0280  176.7310  141.0250 C   0  0  0  0  0  2  0  0  0  0  0  0
  186.3120  177.5340  139.8960 C   0  0  0  0  0  1  0  0  0  0  0  0
  187.0590  177.7340  141.0570 O   0  0  0  0  0  0  0  0  0  0  0  0
  1 19  1  0  0  0  0
  2 13  1  0  0  0  0
  4  1  2  0  0  0  0
  4 20  1  0  0  0  0
  5  1  1  0  0  0  0
  7 15  1  1  0  0  0
  7 27  1  0  0  0  0
  7  9  1  0  0  0  0
  8  6  1  6  0  0  0
  8 12  1  0  0  0  0
  9 14  1  1  0  0  0
  9 22  1  0  0  0  0
 10 21  2  0  0  0  0
 10  3  1  0  0  0  0
 11 28  1  1  0  0  0
 11  8  1  0  0  0  0
 11  5  1  0  0  0  0
 12 27  1  0  0  0  0
 12  4  1  0  0  0  0
 13 18  2  0  0  0  0
 15 23  1  0  0  0  0
 16  2  1  0  0  0  0
 17 26  1  0  0  0  0
 17  3  1  0  0  0  0
 19  2  2  0  0  0  0
 19 26  1  0  0  0  0
 20 22  1  0  0  0  0
 20 17  2  0  0  0  0
 22 10  1  0  0  0  0
 23 14  1  0  0  0  0
 25 18  1  0  0  0  0
 26 25  2  0  0  0  0
 27 24  1  1  0  0  0
 28 30  1  0  0  0  0
 29 30  1  0  0  0  0
M  END
>  <MODEL>
7

>  <REMARK>
 VINA RESULT:      -7.3      1.053      1.229
  Name = 
  2 active torsions:
  status: ('A' for Active; 'I' for Inactive)
    1  A    between atoms: C_11  and  C_28
    2  A    between atoms: C_28  and  O_30
                            x       y       z     vdW  Elec       q    Type
                         _______ _______ _______ _____ _____    ______ ____

>  <TORSDO>
F 2

$$$$
=
 OpenBabel11112416153D

 30 35  0  0  1  0  0  0  0  0999 V2000
  191.3940  174.1610  142.8390 C   0  0  0  0  0  0  0  0  0  0  0  0
  191.6450  172.7880  140.7800 C   0  0  0  0  0  0  0  0  0  0  0  0
  187.4710  175.0120  141.9560 N   0  0  0  0  0  2  0  0  0  0  0  0
  190.5770  174.9270  143.7100 C   0  0  0  0  0  0  0  0  0  0  0  0
  192.7400  173.9800  143.1740 O   0  0  0  0  0  0  0  0  0  0  0  0
  193.0950  175.9570  146.3610 C   0  0  0  0  0  1  0  0  0  0  0  0
  189.5600  177.0140  145.8240 C   0  0  1  0  0  3  0  0  0  0  0  0
  192.4960  174.9720  145.3590 C   0  0  2  0  0  3  0  0  0  0  0  0
  188.3290  176.9790  144.9290 C   0  0  2  0  0  3  0  0  0  0  0  0
  187.2340  175.8210  143.0110 C   0  0  0  0  0  0  0  0  0  0  0  0
  193.3880  174.8240  144.1210 C   0  0  2  0  0  3  0  0  0  0  0  0
  191.1060  175.3070  145.0020 N   0  0  0  0  0  0  0  0  0  0  0  0
  191.0750  172.2500  139.6220 C   0  0  0  0  0  3  0  0  0  0  0  0
  187.1470  176.8890  145.8730 C   0  0  0  0  0  2  0  0  0  0  0  0
  189.0930  177.6230  147.1360 C   0  0  0  0  0  2  0  0  0  0  0  0
  192.9820  172.5130  141.0440 O   0  0  0  0  0  1  0  0  0  0  0  0
  188.7440  174.6310  142.1550 C   0  0  0  0  0  0  0  0  0  0  0  0
  189.7390  172.4920  139.3060 C   0  0  0  0  0  3  0  0  0  0  0  0
  190.8640  173.5860  141.6500 C   0  0  0  0  0  0  0  0  0  0  0  0
  189.2490  175.1890  143.3040 C   0  0  0  0  0  0  0  0  0  0  0  0
  186.1400  176.4300  143.1540 O   0  0  0  0  0  0  0  0  0  0  0  0
  188.2800  175.9530  143.8700 N   0  0  0  0  0  0  0  0  0  0  0  0
  187.5730  177.6620  147.1030 C   0  0  0  0  0  2  0  0  0  0  0  0
  189.2640  174.5310  146.4690 C   0  0  0  0  0  1  0  0  0  0  0  0
  188.9560  173.2800  140.1470 C   0  0  0  0  0  3  0  0  0  0  0  0
  189.5050  173.8240  141.3130 C   0  0  0  0  0  0  0  0  0  0  0  0
  190.2150  175.6680  146.0970 C   0  0  2  0  0  3  0  0  0  0  0  0
  193.6970  176.1740  143.4740 C   0  0  0  0  0  2  0  0  0  0  0  0
  195.8510  176.4930  143.8190 C   0  0  0  0  0  1  0  0  0  0  0  0
  194.9360  176.1200  142.8360 O   0  0  0  0  0  0  0  0  0  0  0  0
  1  5  1  0  0  0  0
  1  4  1  0  0  0  0
  2 16  1  0  0  0  0
  2 19  1  0  0  0  0
  3 17  1  0  0  0  0
  3 10  1  0  0  0  0
  4 12  1  0  0  0  0
  5 11  1  0  0  0  0
  7 27  1  0  0  0  0
  7 15  1  1  0  0  0
  8  6  1  1  0  0  0
  9  7  1  0  0  0  0
  9 14  1  1  0  0  0
 10 21  2  0  0  0  0
 10 22  1  0  0  0  0
 11 28  1  6  0  0  0
 11  8  1  0  0  0  0
 12  8  1  0  0  0  0
 12 27  1  0  0  0  0
 13  2  2  0  0  0  0
 14 23  1  0  0  0  0
 17 20  1  0  0  0  0
 18 13  1  0  0  0  0
 18 25  2  0  0  0  0
 19  1  2  0  0  0  0
 20  4  2  0  0  0  0
 20 22  1  0  0  0  0
 22  9  1  0  0  0  0
 23 15  1  0  0  0  0
 25 26  1  0  0  0  0
 26 19  1  0  0  0  0
 26 17  2  0  0  0  0
 27 24  1  6  0  0  0
 30 28  1  0  0  0  0
 30 29  1  0  0  0  0
M  END
>  <MODEL>
8

>  <REMARK>
 VINA RESULT:      -7.3      2.658      6.743
  Name = 
  2 active torsions:
  status: ('A' for Active; 'I' for Inactive)
    1  A    between atoms: C_11  and  C_28
    2  A    between atoms: C_28  and  O_30
                            x       y       z     vdW  Elec       q    Type
                         _______ _______ _______ _____ _____    ______ ____

>  <TORSDO>
F 2

$$$$
=
 OpenBabel11112416153D

 30 35  0  0  1  0  0  0  0  0999 V2000
  192.2240  174.7970  143.2340 C   0  0  0  0  0  0  0  0  0  0  0  0
  194.6380  174.2670  142.9480 C   0  0  0  0  0  0  0  0  0  0  0  0
  192.8530  176.2430  147.0300 N   0  0  0  0  0  2  0  0  0  0  0  0
  191.1750  175.3550  144.0080 C   0  0  0  0  0  0  0  0  0  0  0  0
  191.9140  174.2560  141.9810 O   0  0  0  0  0  0  0  0  0  0  0  0
  188.1810  174.7040  141.7640 C   0  0  0  0  0  1  0  0  0  0  0  0
  188.3650  175.9870  145.2600 C   0  0  1  0  0  3  0  0  0  0  0  0
  189.6430  175.0660  142.0150 C   0  0  2  0  0  3  0  0  0  0  0  0
  189.2270  176.2670  146.4830 C   0  0  2  0  0  3  0  0  0  0  0  0
  191.5640  176.5220  147.3170 C   0  0  0  0  0  0  0  0  0  0  0  0
  190.5770  173.9120  141.6330 C   0  0  2  0  0  3  0  0  0  0  0  0
  189.8780  175.5360  143.3920 N   0  0  0  0  0  0  0  0  0  0  0  0
  195.9360  174.2740  143.4670 C   0  0  0  0  0  3  0  0  0  0  0  0
  188.7040  177.5690  147.0550 C   0  0  0  0  0  2  0  0  0  0  0  0
  187.0320  176.6630  145.5360 C   0  0  0  0  0  2  0  0  0  0  0  0
  194.4430  173.7450  141.6740 O   0  0  0  0  0  1  0  0  0  0  0  0
  192.7820  175.7840  145.7690 C   0  0  0  0  0  0  0  0  0  0  0  0
  196.1920  174.7850  144.7400 C   0  0  0  0  0  3  0  0  0  0  0  0
  193.5650  174.7830  143.7120 C   0  0  0  0  0  0  0  0  0  0  0  0
  191.4870  175.7990  145.3130 C   0  0  0  0  0  0  0  0  0  0  0  0
  191.2060  176.9330  148.4530 O   0  0  0  0  0  0  0  0  0  0  0  0
  190.6910  176.2830  146.3020 N   0  0  0  0  0  0  0  0  0  0  0  0
  187.2220  177.5580  146.7520 C   0  0  0  0  0  2  0  0  0  0  0  0
  189.4650  177.9170  143.9420 C   0  0  0  0  0  1  0  0  0  0  0  0
  195.1470  175.2930  145.5090 C   0  0  0  0  0  3  0  0  0  0  0  0
  193.8410  175.2990  145.0060 C   0  0  0  0  0  0  0  0  0  0  0  0
  188.9200  176.4900  143.9340 C   0  0  2  0  0  3  0  0  0  0  0  0
  190.1890  172.6080  142.3280 C   0  0  0  0  0  2  0  0  0  0  0  0
  190.8130  170.5310  141.9270 C   0  0  0  0  0  1  0  0  0  0  0  0
  190.0770  171.5850  141.3860 O   0  0  0  0  0  0  0  0  0  0  0  0
  1 19  2  0  0  0  0
  1  4  1  0  0  0  0
  2 13  2  0  0  0  0
  2 19  1  0  0  0  0
  3 10  1  0  0  0  0
  4 20  2  0  0  0  0
  5  1  1  0  0  0  0
  7 15  1  1  0  0  0
  7  9  1  0  0  0  0
  8  6  1  1  0  0  0
  8 12  1  0  0  0  0
  9 14  1  6  0  0  0
 10 21  2  0  0  0  0
 11  5  1  0  0  0  0
 11  8  1  0  0  0  0
 11 28  1  1  0  0  0
 12 27  1  0  0  0  0
 12  4  1  0  0  0  0
 13 18  1  0  0  0  0
 15 23  1  0  0  0  0
 16  2  1  0  0  0  0
 17  3  1  0  0  0  0
 18 25  2  0  0  0  0
 19 26  1  0  0  0  0
 20 17  1  0  0  0  0
 20 22  1  0  0  0  0
 22  9  1  0  0  0  0
 22 10  1  0  0  0  0
 23 14  1  0  0  0  0
 26 25  1  0  0  0  0
 26 17  2  0  0  0  0
 27 24  1  1  0  0  0
 27  7  1  0  0  0  0
 30 29  1  0  0  0  0
 30 28  1  0  0  0  0
M  END
>  <MODEL>
9

>  <REMARK>
 VINA RESULT:      -7.2      2.632      6.201
  Name = 
  2 active torsions:
  status: ('A' for Active; 'I' for Inactive)
    1  A    between atoms: C_11  and  C_28
    2  A    between atoms: C_28  and  O_30
                            x       y       z     vdW  Elec       q    Type
                         _______ _______ _______ _____ _____    ______ ____

>  <TORSDO>
F 2

$$$$
