=
 OpenBabel11112417233D

 37 42  0  0  1  0  0  0  0  0999 V2000
  191.4100  171.8690  142.6480 C   0  0  0  0  0  0  0  0  0  0  0  0
  188.5900  174.8440  142.0840 C   0  0  0  0  0  0  0  0  0  0  0  0
  189.6740  177.7450  143.2830 C   0  0  0  0  0  2  0  0  0  0  0  0
  189.6690  172.9200  141.1130 C   0  0  0  0  0  0  0  0  0  0  0  0
  188.6250  175.4460  143.3340 C   0  0  0  0  0  0  0  0  0  0  0  0
  189.2900  173.6890  142.1900 C   0  0  0  0  0  0  0  0  0  0  0  0
  188.4090  176.9260  143.5660 C   0  0  2  0  0  3  0  0  0  0  0  0
  189.2400  173.3360  139.8390 C   0  0  0  0  0  3  0  0  0  0  0  0
  189.7350  173.5660  143.4610 C   0  0  0  0  0  0  0  0  0  0  0  0
  192.5900  172.7730  142.3320 C   0  0  0  0  0  1  0  0  0  0  0  0
  187.2970  176.4040  140.7410 O   0  0  0  0  0  0  0  0  0  0  0  0
  188.4610  174.5170  139.7080 C   0  0  0  0  0  3  0  0  0  0  0  0
  190.6420  172.4430  143.8720 C   0  0  0  0  0  2  0  0  0  0  0  0
  190.9630  177.0760  145.3910 C   0  0  1  0  0  3  0  0  0  0  0  0
  190.9480  177.1210  143.8610 C   0  0  0  0  0  2  0  0  0  0  0  0
  188.1200  175.2830  140.8470 C   0  0  0  0  0  0  0  0  0  0  0  0
  189.3450  174.6440  144.1820 N   0  0  0  0  0  0  0  0  0  0  0  0
  190.5290  171.7100  141.3730 C   0  0  0  0  0  2  0  0  0  0  0  0
  187.2000  177.5940  142.8890 C   0  0  1  0  0  3  0  0  0  0  0  0
  191.9530  170.5070  143.0230 C   0  0  0  0  0  1  0  0  0  0  0  0
  189.7840  176.3160  146.0150 C   0  0  0  0  0  2  0  0  0  0  0  0
  189.6760  174.8450  145.5980 C   0  0  0  0  0  2  0  0  0  0  0  0
  186.4500  176.7960  141.8170 C   0  0  0  0  0  2  0  0  0  0  0  0
  194.9510  175.6210  146.5120 O   0  0  0  0  0  0  0  0  0  0  0  0
  194.6550  175.8870  145.3170 C   0  0  0  0  0  0  0  0  0  0  0  0
  192.2750  176.5720  145.9020 C   0  0  0  0  0  0  0  0  0  0  0  0
  193.3440  176.3580  144.9750 N   0  0  0  0  0  2  0  0  0  0  0  0
  192.4350  176.3580  147.1350 O   0  0  0  0  0  0  0  0  0  0  0  0
  195.3680  176.0030  142.9040 C   0  0  0  0  0  1  0  0  0  0  0  0
  195.6420  175.7150  144.3010 N   0  0  0  0  0  2  0  0  0  0  0  0
  184.9890  178.5650  143.5210 C   0  0  0  0  0  3  0  0  0  0  0  0
  186.2500  178.1160  143.9180 C   0  0  0  0  0  0  0  0  0  0  0  0
  186.6100  178.1680  145.2710 C   0  0  0  0  0  3  0  0  0  0  0  0
  186.0660  178.7330  147.6400 C   0  0  0  0  0  1  0  0  0  0  0  0
  184.4750  179.1020  145.7930 N   0  0  0  0  0  0  0  0  0  0  0  0
  185.6980  178.6700  146.2010 C   0  0  0  0  0  0  0  0  0  0  0  0
  184.1060  179.0600  144.4840 C   0  0  0  0  0  3  0  0  0  0  0  0
  1 20  1  0  0  0  0
  1 13  1  0  0  0  0
  2  6  1  0  0  0  0
  2  5  2  0  0  0  0
  3 15  1  0  0  0  0
  4 18  1  0  0  0  0
  4  6  1  0  0  0  0
  5  7  1  0  0  0  0
  5 17  1  0  0  0  0
  6  9  2  0  0  0  0
  7  3  1  6  0  0  0
  8  4  2  0  0  0  0
  9 13  1  0  0  0  0
  9 17  1  0  0  0  0
 10  1  1  0  0  0  0
 11 16  1  0  0  0  0
 11 23  1  0  0  0  0
 12  8  1  0  0  0  0
 12 16  2  0  0  0  0
 14 26  1  6  0  0  0
 14 21  1  0  0  0  0
 15 14  1  0  0  0  0
 16  2  1  0  0  0  0
 17 22  1  0  0  0  0
 18  1  1  0  0  0  0
 19  7  1  0  0  0  0
 19 32  1  1  0  0  0
 22 21  1  0  0  0  0
 23 19  1  0  0  0  0
 25 24  2  0  0  0  0
 26 28  2  0  0  0  0
 27 25  1  0  0  0  0
 27 26  1  0  0  0  0
 29 30  1  0  0  0  0
 30 25  1  0  0  0  0
 31 32  2  0  0  0  0
 31 37  1  0  0  0  0
 32 33  1  0  0  0  0
 33 36  2  0  0  0  0
 35 36  1  0  0  0  0
 36 34  1  0  0  0  0
 37 35  2  0  0  0  0
M  END
>  <MODEL>
1

>  <REMARK>
 VINA RESULT:     -10.1      0.000      0.000
  Name = 
  2 active torsions:
  status: ('A' for Active; 'I' for Inactive)
    1  A    between atoms: C_8  and  C_18
    2  A    between atoms: C_23  and  C_30
                            x       y       z     vdW  Elec       q    Type
                         _______ _______ _______ _____ _____    ______ ____

>  <TORSDO>
F 2

$$$$
=
 OpenBabel11112417233D

 37 42  0  0  1  0  0  0  0  0999 V2000
  194.7600  175.3020  142.7270 C   0  0  0  0  0  0  0  0  0  0  0  0
  191.8750  176.4380  145.4660 C   0  0  0  0  0  0  0  0  0  0  0  0
  189.5040  174.1260  145.7160 C   0  0  0  0  0  2  0  0  0  0  0  0
  194.2340  176.3780  144.9750 C   0  0  0  0  0  0  0  0  0  0  0  0
  190.7280  176.1170  144.7530 C   0  0  0  0  0  0  0  0  0  0  0  0
  192.9100  176.3480  144.5970 C   0  0  0  0  0  0  0  0  0  0  0  0
  189.4470  175.6230  145.3890 C   0  0  2  0  0  3  0  0  0  0  0  0
  194.5110  176.5800  146.3400 C   0  0  0  0  0  3  0  0  0  0  0  0
  192.4290  175.9970  143.3840 C   0  0  0  0  0  0  0  0  0  0  0  0
  194.7430  173.8420  143.1460 C   0  0  0  0  0  1  0  0  0  0  0  0
  191.0410  176.8800  147.7060 O   0  0  0  0  0  0  0  0  0  0  0  0
  193.4410  176.7280  147.2630 C   0  0  0  0  0  3  0  0  0  0  0  0
  193.3440  175.7060  142.2290 C   0  0  0  0  0  2  0  0  0  0  0  0
  189.2500  173.2690  143.3170 C   0  0  1  0  0  3  0  0  0  0  0  0
  190.1020  173.2780  144.5880 C   0  0  0  0  0  2  0  0  0  0  0  0
  192.0990  176.6660  146.8230 C   0  0  0  0  0  0  0  0  0  0  0  0
  191.0870  175.8390  143.4580 N   0  0  0  0  0  0  0  0  0  0  0  0
  195.2800  176.1700  143.9110 C   0  0  0  0  0  2  0  0  0  0  0  0
  188.9000  176.3960  146.6020 C   0  0  1  0  0  3  0  0  0  0  0  0
  195.7290  175.4450  141.5720 C   0  0  0  0  0  1  0  0  0  0  0  0
  188.9860  174.6590  142.7210 C   0  0  0  0  0  2  0  0  0  0  0  0
  190.2450  175.4370  142.3250 C   0  0  0  0  0  2  0  0  0  0  0  0
  189.8110  177.4400  147.2550 C   0  0  0  0  0  2  0  0  0  0  0  0
  190.7100  170.7320  140.0440 O   0  0  0  0  0  0  0  0  0  0  0  0
  189.9150  171.6880  139.8380 C   0  0  0  0  0  0  0  0  0  0  0  0
  189.8150  172.3320  142.2970 C   0  0  0  0  0  0  0  0  0  0  0  0
  189.4500  172.5000  140.9230 N   0  0  0  0  0  2  0  0  0  0  0  0
  190.6150  171.4220  142.6470 O   0  0  0  0  0  0  0  0  0  0  0  0
  188.5660  173.0410  138.1970 C   0  0  0  0  0  1  0  0  0  0  0  0
  189.4810  171.9550  138.5050 N   0  0  0  0  0  2  0  0  0  0  0  0
  186.5000  176.7910  147.1660 C   0  0  0  0  0  3  0  0  0  0  0  0
  187.5650  176.9870  146.2830 C   0  0  0  0  0  0  0  0  0  0  0  0
  187.3650  177.7260  145.1100 C   0  0  0  0  0  3  0  0  0  0  0  0
  185.8730  179.0410  143.6020 C   0  0  0  0  0  1  0  0  0  0  0  0
  185.0790  178.0520  145.7170 N   0  0  0  0  0  0  0  0  0  0  0  0
  186.1010  178.2550  144.8430 C   0  0  0  0  0  0  0  0  0  0  0  0
  185.2520  177.3370  146.8620 C   0  0  0  0  0  3  0  0  0  0  0  0
  1 10  1  0  0  0  0
  1 18  1  0  0  0  0
  2 16  1  0  0  0  0
  4  8  2  0  0  0  0
  5  7  1  0  0  0  0
  5  2  2  0  0  0  0
  6  4  1  0  0  0  0
  6  2  1  0  0  0  0
  7  3  1  1  0  0  0
  7 19  1  0  0  0  0
  8 12  1  0  0  0  0
  9 17  1  0  0  0  0
  9  6  2  0  0  0  0
 13  1  1  0  0  0  0
 13  9  1  0  0  0  0
 14 26  1  6  0  0  0
 14 15  1  0  0  0  0
 15  3  1  0  0  0  0
 16 12  2  0  0  0  0
 16 11  1  0  0  0  0
 17  5  1  0  0  0  0
 18  4  1  0  0  0  0
 19 32  1  6  0  0  0
 19 23  1  0  0  0  0
 20  1  1  0  0  0  0
 21 14  1  0  0  0  0
 22 21  1  0  0  0  0
 22 17  1  0  0  0  0
 23 11  1  0  0  0  0
 25 24  2  0  0  0  0
 25 27  1  0  0  0  0
 26 28  2  0  0  0  0
 27 26  1  0  0  0  0
 29 30  1  0  0  0  0
 30 25  1  0  0  0  0
 32 31  2  0  0  0  0
 33 32  1  0  0  0  0
 34 36  1  0  0  0  0
 35 37  2  0  0  0  0
 36 33  2  0  0  0  0
 36 35  1  0  0  0  0
 37 31  1  0  0  0  0
M  END
>  <MODEL>
2

>  <REMARK>
 VINA RESULT:      -9.8      2.359      5.697
  Name = 
  2 active torsions:
  status: ('A' for Active; 'I' for Inactive)
    1  A    between atoms: C_8  and  C_18
    2  A    between atoms: C_23  and  C_30
                            x       y       z     vdW  Elec       q    Type
                         _______ _______ _______ _____ _____    ______ ____

>  <TORSDO>
F 2

$$$$
=
 OpenBabel11112417233D

 37 42  0  0  1  0  0  0  0  0999 V2000
  194.6760  175.2310  142.7980 C   0  0  0  0  0  0  0  0  0  0  0  0
  191.7330  176.4630  145.4340 C   0  0  0  0  0  0  0  0  0  0  0  0
  189.3330  174.1820  145.6770 C   0  0  0  0  0  2  0  0  0  0  0  0
  194.1030  176.3670  145.0060 C   0  0  0  0  0  0  0  0  0  0  0  0
  190.6030  176.1360  144.6990 C   0  0  0  0  0  0  0  0  0  0  0  0
  192.7900  176.3420  144.5940 C   0  0  0  0  0  0  0  0  0  0  0  0
  189.3000  175.6710  145.3130 C   0  0  2  0  0  3  0  0  0  0  0  0
  194.3480  176.6000  146.3720 C   0  0  0  0  0  3  0  0  0  0  0  0
  192.3370  175.9660  143.3780 C   0  0  0  0  0  0  0  0  0  0  0  0
  194.6320  173.7820  143.2520 C   0  0  0  0  0  1  0  0  0  0  0  0
  190.8470  176.9680  147.6400 O   0  0  0  0  0  0  0  0  0  0  0  0
  193.2560  176.7810  147.2630 C   0  0  0  0  0  3  0  0  0  0  0  0
  193.2780  175.6370  142.2540 C   0  0  0  0  0  2  0  0  0  0  0  0
  189.1310  173.2690  143.2940 C   0  0  1  0  0  3  0  0  0  0  0  0
  189.9500  173.3000  144.5870 C   0  0  0  0  0  2  0  0  0  0  0  0
  191.9250  176.7220  146.7900 C   0  0  0  0  0  0  0  0  0  0  0  0
  190.9910  175.8230  143.4210 N   0  0  0  0  0  0  0  0  0  0  0  0
  195.1750  176.1230  143.9740 C   0  0  0  0  0  2  0  0  0  0  0  0
  188.7300  176.4790  146.4930 C   0  0  1  0  0  3  0  0  0  0  0  0
  195.6750  175.3360  141.6660 C   0  0  0  0  0  1  0  0  0  0  0  0
  188.8970  174.6470  142.6590 C   0  0  0  0  0  2  0  0  0  0  0  0
  190.1750  175.4020  142.2760 C   0  0  0  0  0  2  0  0  0  0  0  0
  189.6350  177.5290  147.1430 C   0  0  0  0  0  2  0  0  0  0  0  0
  191.0560  170.2800  140.7170 O   0  0  0  0  0  0  0  0  0  0  0  0
  191.3530  170.3930  141.9360 C   0  0  0  0  0  0  0  0  0  0  0  0
  189.7120  172.3020  142.3130 C   0  0  0  0  0  0  0  0  0  0  0  0
  190.7130  171.3790  142.7570 N   0  0  0  0  0  2  0  0  0  0  0  0
  189.3090  172.2930  141.1170 O   0  0  0  0  0  0  0  0  0  0  0  0
  192.7260  169.6010  143.8930 C   0  0  0  0  0  1  0  0  0  0  0  0
  192.3370  169.5250  142.4950 N   0  0  0  0  0  2  0  0  0  0  0  0
  186.2880  176.7890  146.9050 C   0  0  0  0  0  3  0  0  0  0  0  0
  187.4110  177.0750  146.1250 C   0  0  0  0  0  0  0  0  0  0  0  0
  187.2820  177.9090  145.0060 C   0  0  0  0  0  3  0  0  0  0  0  0
  185.8780  179.3260  143.5060 C   0  0  0  0  0  1  0  0  0  0  0  0
  184.9510  178.1490  145.4650 N   0  0  0  0  0  0  0  0  0  0  0  0
  186.0300  178.4400  144.6900 C   0  0  0  0  0  0  0  0  0  0  0  0
  185.0540  177.3420  146.5550 C   0  0  0  0  0  3  0  0  0  0  0  0
  1 10  1  0  0  0  0
  1 18  1  0  0  0  0
  2 16  1  0  0  0  0
  4  8  2  0  0  0  0
  5  7  1  0  0  0  0
  5  2  2  0  0  0  0
  6  4  1  0  0  0  0
  6  2  1  0  0  0  0
  7  3  1  1  0  0  0
  7 19  1  0  0  0  0
  8 12  1  0  0  0  0
  9 17  1  0  0  0  0
  9  6  2  0  0  0  0
 13  1  1  0  0  0  0
 13  9  1  0  0  0  0
 14 26  1  6  0  0  0
 14 15  1  0  0  0  0
 15  3  1  0  0  0  0
 16 12  2  0  0  0  0
 16 11  1  0  0  0  0
 17  5  1  0  0  0  0
 18  4  1  0  0  0  0
 19 32  1  6  0  0  0
 19 23  1  0  0  0  0
 20  1  1  0  0  0  0
 21 14  1  0  0  0  0
 22 21  1  0  0  0  0
 22 17  1  0  0  0  0
 23 11  1  0  0  0  0
 24 25  2  0  0  0  0
 25 30  1  0  0  0  0
 25 27  1  0  0  0  0
 26 27  1  0  0  0  0
 28 26  2  0  0  0  0
 30 29  1  0  0  0  0
 32 31  2  0  0  0  0
 33 32  1  0  0  0  0
 34 36  1  0  0  0  0
 35 37  2  0  0  0  0
 36 33  2  0  0  0  0
 36 35  1  0  0  0  0
 37 31  1  0  0  0  0
M  END
>  <MODEL>
3

>  <REMARK>
 VINA RESULT:      -9.7      2.273      5.444
  Name = 
  2 active torsions:
  status: ('A' for Active; 'I' for Inactive)
    1  A    between atoms: C_8  and  C_18
    2  A    between atoms: C_23  and  C_30
                            x       y       z     vdW  Elec       q    Type
                         _______ _______ _______ _____ _____    ______ ____

>  <TORSDO>
F 2

$$$$
=
 OpenBabel11112417233D

 37 42  0  0  1  0  0  0  0  0999 V2000
  195.1820  175.0560  143.0120 C   0  0  0  0  0  0  0  0  0  0  0  0
  191.9710  176.2340  145.3410 C   0  0  0  0  0  0  0  0  0  0  0  0
  189.6910  173.8260  145.5190 C   0  0  0  0  0  2  0  0  0  0  0  0
  194.3690  176.2610  145.1040 C   0  0  0  0  0  0  0  0  0  0  0  0
  190.9230  175.8030  144.5390 C   0  0  0  0  0  0  0  0  0  0  0  0
  193.0970  176.1360  144.5940 C   0  0  0  0  0  0  0  0  0  0  0  0
  189.6040  175.2910  145.0740 C   0  0  2  0  0  3  0  0  0  0  0  0
  194.4900  176.5750  146.4710 C   0  0  0  0  0  3  0  0  0  0  0  0
  192.7650  175.6740  143.3670 C   0  0  0  0  0  0  0  0  0  0  0  0
  195.1840  173.6310  143.5380 C   0  0  0  0  0  1  0  0  0  0  0  0
  190.8820  176.7920  147.4410 O   0  0  0  0  0  0  0  0  0  0  0  0
  193.3210  176.7330  147.2630 C   0  0  0  0  0  3  0  0  0  0  0  0
  193.8110  175.3490  142.3390 C   0  0  0  0  0  2  0  0  0  0  0  0
  189.7350  172.7870  143.1800 C   0  0  1  0  0  3  0  0  0  0  0  0
  190.4430  172.9310  144.5290 C   0  0  0  0  0  2  0  0  0  0  0  0
  192.0370  176.5700  146.6920 C   0  0  0  0  0  0  0  0  0  0  0  0
  191.4310  175.4520  143.3140 N   0  0  0  0  0  0  0  0  0  0  0  0
  195.5320  176.0320  144.1730 C   0  0  0  0  0  2  0  0  0  0  0  0
  188.8960  176.1190  146.1610 C   0  0  1  0  0  3  0  0  0  0  0  0
  196.2610  175.1650  141.9560 C   0  0  0  0  0  1  0  0  0  0  0  0
  189.4750  174.1150  142.4550 C   0  0  0  0  0  2  0  0  0  0  0  0
  190.7350  174.9270  142.1330 C   0  0  0  0  0  2  0  0  0  0  0  0
  189.6850  177.2530  146.8230 C   0  0  0  0  0  2  0  0  0  0  0  0
  191.6170  170.0740  140.2860 O   0  0  0  0  0  0  0  0  0  0  0  0
  190.7310  170.9000  139.9410 C   0  0  0  0  0  0  0  0  0  0  0  0
  190.4470  171.8100  142.3000 C   0  0  0  0  0  0  0  0  0  0  0  0
  190.1280  171.7740  140.9050 N   0  0  0  0  0  2  0  0  0  0  0  0
  191.3260  171.0450  142.7830 O   0  0  0  0  0  0  0  0  0  0  0  0
  189.3160  171.8870  138.1060 C   0  0  0  0  0  1  0  0  0  0  0  0
  190.3310  170.9580  138.5720 N   0  0  0  0  0  2  0  0  0  0  0  0
  187.2720  176.4980  144.3030 C   0  0  0  0  0  3  0  0  0  0  0  0
  187.5790  176.6160  145.6610 C   0  0  0  0  0  0  0  0  0  0  0  0
  186.6520  177.2050  146.5310 C   0  0  0  0  0  3  0  0  0  0  0  0
  184.4420  178.2920  146.9340 C   0  0  0  0  0  1  0  0  0  0  0  0
  185.1570  177.5380  144.6980 N   0  0  0  0  0  0  0  0  0  0  0  0
  185.4350  177.6640  146.0230 C   0  0  0  0  0  0  0  0  0  0  0  0
  186.0440  176.9700  143.8360 C   0  0  0  0  0  3  0  0  0  0  0  0
  1 10  1  0  0  0  0
  1 18  1  0  0  0  0
  2 16  1  0  0  0  0
  4  8  2  0  0  0  0
  5  7  1  0  0  0  0
  5  2  2  0  0  0  0
  6  4  1  0  0  0  0
  6  2  1  0  0  0  0
  7  3  1  1  0  0  0
  7 19  1  0  0  0  0
  8 12  1  0  0  0  0
  9  6  2  0  0  0  0
 13  1  1  0  0  0  0
 13  9  1  0  0  0  0
 14 26  1  6  0  0  0
 14 15  1  0  0  0  0
 15  3  1  0  0  0  0
 16 12  2  0  0  0  0
 16 11  1  0  0  0  0
 17  9  1  0  0  0  0
 17  5  1  0  0  0  0
 18  4  1  0  0  0  0
 19 32  1  6  0  0  0
 19 23  1  0  0  0  0
 20  1  1  0  0  0  0
 21 14  1  0  0  0  0
 22 21  1  0  0  0  0
 22 17  1  0  0  0  0
 23 11  1  0  0  0  0
 25 24  2  0  0  0  0
 25 27  1  0  0  0  0
 26 28  2  0  0  0  0
 27 26  1  0  0  0  0
 29 30  1  0  0  0  0
 30 25  1  0  0  0  0
 31 32  1  0  0  0  0
 32 33  2  0  0  0  0
 35 36  2  0  0  0  0
 36 33  1  0  0  0  0
 36 34  1  0  0  0  0
 37 31  2  0  0  0  0
 37 35  1  0  0  0  0
M  END
>  <MODEL>
4

>  <REMARK>
 VINA RESULT:      -9.5      2.582      5.656
  Name = 
  2 active torsions:
  status: ('A' for Active; 'I' for Inactive)
    1  A    between atoms: C_8  and  C_18
    2  A    between atoms: C_23  and  C_30
                            x       y       z     vdW  Elec       q    Type
                         _______ _______ _______ _____ _____    ______ ____

>  <TORSDO>
F 2

$$$$
=
 OpenBabel11112417233D

 37 42  0  0  1  0  0  0  0  0999 V2000
  195.1910  174.9310  143.0640 C   0  0  0  0  0  0  0  0  0  0  0  0
  191.9850  176.1970  145.3530 C   0  0  0  0  0  0  0  0  0  0  0  0
  189.6910  173.8080  145.6000 C   0  0  0  0  0  2  0  0  0  0  0  0
  194.3830  176.2030  145.1180 C   0  0  0  0  0  0  0  0  0  0  0  0
  190.9350  175.7480  144.5630 C   0  0  0  0  0  0  0  0  0  0  0  0
  193.1110  176.0700  144.6100 C   0  0  0  0  0  0  0  0  0  0  0  0
  189.6130  175.2590  145.1120 C   0  0  2  0  0  3  0  0  0  0  0  0
  194.5040  176.5570  146.4750 C   0  0  0  0  0  3  0  0  0  0  0  0
  192.7780  175.5740  143.3980 C   0  0  0  0  0  0  0  0  0  0  0  0
  195.1840  173.5230  143.6320 C   0  0  0  0  0  1  0  0  0  0  0  0
  190.8970  176.8230  147.4340 O   0  0  0  0  0  0  0  0  0  0  0  0
  193.3360  176.7450  147.2610 C   0  0  0  0  0  3  0  0  0  0  0  0
  193.8220  175.2120  142.3810 C   0  0  0  0  0  2  0  0  0  0  0  0
  189.7310  172.7000  143.2930 C   0  0  1  0  0  3  0  0  0  0  0  0
  190.4390  172.8800  144.6380 C   0  0  0  0  0  2  0  0  0  0  0  0
  192.0520  176.5720  146.6940 C   0  0  0  0  0  0  0  0  0  0  0  0
  191.4430  175.3580  143.3490 N   0  0  0  0  0  0  0  0  0  0  0  0
  195.5460  175.9400  144.1960 C   0  0  0  0  0  2  0  0  0  0  0  0
  188.9090  176.1230  146.1730 C   0  0  1  0  0  3  0  0  0  0  0  0
  196.2720  175.0040  142.0060 C   0  0  0  0  0  1  0  0  0  0  0  0
  189.4800  174.0070  142.5290 C   0  0  0  0  0  2  0  0  0  0  0  0
  190.7440  174.8020  142.1840 C   0  0  0  0  0  2  0  0  0  0  0  0
  189.7030  177.2720  146.8020 C   0  0  0  0  0  2  0  0  0  0  0  0
  192.0340  169.6570  141.1210 O   0  0  0  0  0  0  0  0  0  0  0  0
  192.2840  169.9450  142.3220 C   0  0  0  0  0  0  0  0  0  0  0  0
  190.4380  171.6930  142.4430 C   0  0  0  0  0  0  0  0  0  0  0  0
  191.5200  170.9450  143.0090 N   0  0  0  0  0  2  0  0  0  0  0  0
  190.0710  171.4990  141.2520 O   0  0  0  0  0  0  0  0  0  0  0  0
  193.6810  169.5450  144.3780 C   0  0  0  0  0  1  0  0  0  0  0  0
  193.3410  169.2620  142.9940 N   0  0  0  0  0  2  0  0  0  0  0  0
  187.3010  176.4820  144.2970 C   0  0  0  0  0  3  0  0  0  0  0  0
  187.5950  176.6120  145.6560 C   0  0  0  0  0  0  0  0  0  0  0  0
  186.6580  177.2060  146.5140 C   0  0  0  0  0  3  0  0  0  0  0  0
  184.4420  178.2910  146.8880 C   0  0  0  0  0  1  0  0  0  0  0  0
  185.1800  177.5200  144.6650 N   0  0  0  0  0  0  0  0  0  0  0  0
  185.4440  177.6580  145.9910 C   0  0  0  0  0  0  0  0  0  0  0  0
  186.0750  176.9470  143.8150 C   0  0  0  0  0  3  0  0  0  0  0  0
  1 10  1  0  0  0  0
  1 18  1  0  0  0  0
  2 16  1  0  0  0  0
  4  8  2  0  0  0  0
  5  7  1  0  0  0  0
  5  2  2  0  0  0  0
  6  4  1  0  0  0  0
  6  2  1  0  0  0  0
  7  3  1  1  0  0  0
  7 19  1  0  0  0  0
  8 12  1  0  0  0  0
  9  6  2  0  0  0  0
 13  1  1  0  0  0  0
 13  9  1  0  0  0  0
 14 26  1  6  0  0  0
 14 15  1  0  0  0  0
 15  3  1  0  0  0  0
 16 12  2  0  0  0  0
 16 11  1  0  0  0  0
 17  9  1  0  0  0  0
 17  5  1  0  0  0  0
 18  4  1  0  0  0  0
 19 32  1  6  0  0  0
 19 23  1  0  0  0  0
 20  1  1  0  0  0  0
 21 14  1  0  0  0  0
 22 21  1  0  0  0  0
 22 17  1  0  0  0  0
 23 11  1  0  0  0  0
 24 25  2  0  0  0  0
 25 30  1  0  0  0  0
 25 27  1  0  0  0  0
 26 27  1  0  0  0  0
 28 26  2  0  0  0  0
 30 29  1  0  0  0  0
 31 32  1  0  0  0  0
 32 33  2  0  0  0  0
 35 36  2  0  0  0  0
 36 33  1  0  0  0  0
 36 34  1  0  0  0  0
 37 31  2  0  0  0  0
 37 35  1  0  0  0  0
M  END
>  <MODEL>
5

>  <REMARK>
 VINA RESULT:      -9.5      2.552      5.439
  Name = 
  2 active torsions:
  status: ('A' for Active; 'I' for Inactive)
    1  A    between atoms: C_8  and  C_18
    2  A    between atoms: C_23  and  C_30
                            x       y       z     vdW  Elec       q    Type
                         _______ _______ _______ _____ _____    ______ ____

>  <TORSDO>
F 2

$$$$
=
 OpenBabel11112417233D

 37 42  0  0  1  0  0  0  0  0999 V2000
  190.6740  172.3600  140.8830 C   0  0  0  0  0  0  0  0  0  0  0  0
  187.9590  175.4440  141.3740 C   0  0  0  0  0  0  0  0  0  0  0  0
  189.3570  178.0120  142.9480 C   0  0  0  0  0  2  0  0  0  0  0  0
  188.7820  173.7410  139.8800 C   0  0  0  0  0  0  0  0  0  0  0  0
  188.2090  175.7740  142.6980 C   0  0  0  0  0  0  0  0  0  0  0  0
  188.6060  174.2780  141.1350 C   0  0  0  0  0  0  0  0  0  0  0  0
  188.1070  177.1780  143.2540 C   0  0  2  0  0  3  0  0  0  0  0  0
  188.1910  174.4200  138.7980 C   0  0  0  0  0  3  0  0  0  0  0  0
  189.2270  173.8870  142.2700 C   0  0  0  0  0  0  0  0  0  0  0  0
  191.8390  173.2860  140.5760 C   0  0  0  0  0  1  0  0  0  0  0  0
  186.5640  177.2740  140.5900 O   0  0  0  0  0  0  0  0  0  0  0  0
  187.4640  175.6180  139.0300 C   0  0  0  0  0  3  0  0  0  0  0  0
  190.1260  172.6840  142.3020 C   0  0  0  0  0  2  0  0  0  0  0  0
  190.9070  176.8960  144.6530 C   0  0  1  0  0  3  0  0  0  0  0  0
  190.6680  177.2560  143.1850 C   0  0  0  0  0  2  0  0  0  0  0  0
  187.3340  176.1390  140.3390 C   0  0  0  0  0  0  0  0  0  0  0  0
  189.0050  174.7990  143.2450 N   0  0  0  0  0  0  0  0  0  0  0  0
  189.6070  172.4860  139.7550 C   0  0  0  0  0  2  0  0  0  0  0  0
  186.8470  177.9960  142.9210 C   0  0  1  0  0  3  0  0  0  0  0  0
  191.1950  170.9390  140.8880 C   0  0  0  0  0  1  0  0  0  0  0  0
  189.7960  176.0480  145.2860 C   0  0  0  0  0  2  0  0  0  0  0  0
  189.5510  174.6970  144.6040 C   0  0  0  0  0  2  0  0  0  0  0  0
  185.9060  177.4520  141.8410 C   0  0  0  0  0  2  0  0  0  0  0  0
  194.9410  175.1730  144.8300 O   0  0  0  0  0  0  0  0  0  0  0  0
  194.5000  175.7200  143.7840 C   0  0  0  0  0  0  0  0  0  0  0  0
  192.2520  176.2710  144.8420 C   0  0  0  0  0  0  0  0  0  0  0  0
  193.1770  176.2730  143.7500 N   0  0  0  0  0  2  0  0  0  0  0  0
  192.5660  175.7670  145.9550 O   0  0  0  0  0  0  0  0  0  0  0  0
  194.8880  176.4010  141.3910 C   0  0  0  0  0  1  0  0  0  0  0  0
  195.3340  175.7850  142.6280 N   0  0  0  0  0  2  0  0  0  0  0  0
  184.7560  178.7240  144.0760 C   0  0  0  0  0  3  0  0  0  0  0  0
  186.0880  178.3130  144.1680 C   0  0  0  0  0  0  0  0  0  0  0  0
  186.6950  178.2120  145.4270 C   0  0  0  0  0  3  0  0  0  0  0  0
  186.5860  178.4240  147.9120 C   0  0  0  0  0  1  0  0  0  0  0  0
  184.6600  178.9220  146.4550 N   0  0  0  0  0  0  0  0  0  0  0  0
  185.9550  178.5250  146.5700 C   0  0  0  0  0  0  0  0  0  0  0  0
  184.0520  179.0270  145.2420 C   0  0  0  0  0  3  0  0  0  0  0  0
  1 20  1  0  0  0  0
  1 13  1  0  0  0  0
  2  5  2  0  0  0  0
  3 15  1  0  0  0  0
  4  6  1  0  0  0  0
  5 17  1  0  0  0  0
  5  7  1  0  0  0  0
  6  2  1  0  0  0  0
  6  9  2  0  0  0  0
  7  3  1  6  0  0  0
  8 12  1  0  0  0  0
  8  4  2  0  0  0  0
  9 13  1  0  0  0  0
  9 17  1  0  0  0  0
 10  1  1  0  0  0  0
 11 23  1  0  0  0  0
 12 16  2  0  0  0  0
 14 26  1  6  0  0  0
 14 21  1  0  0  0  0
 15 14  1  0  0  0  0
 16 11  1  0  0  0  0
 16  2  1  0  0  0  0
 17 22  1  0  0  0  0
 18  4  1  0  0  0  0
 18  1  1  0  0  0  0
 19  7  1  0  0  0  0
 19 32  1  1  0  0  0
 22 21  1  0  0  0  0
 23 19  1  0  0  0  0
 25 24  2  0  0  0  0
 26 28  2  0  0  0  0
 27 25  1  0  0  0  0
 27 26  1  0  0  0  0
 29 30  1  0  0  0  0
 30 25  1  0  0  0  0
 31 32  2  0  0  0  0
 31 37  1  0  0  0  0
 32 33  1  0  0  0  0
 33 36  2  0  0  0  0
 35 36  1  0  0  0  0
 36 34  1  0  0  0  0
 37 35  2  0  0  0  0
M  END
>  <MODEL>
6

>  <REMARK>
 VINA RESULT:      -9.4      1.104      1.281
  Name = 
  2 active torsions:
  status: ('A' for Active; 'I' for Inactive)
    1  A    between atoms: C_8  and  C_18
    2  A    between atoms: C_23  and  C_30
                            x       y       z     vdW  Elec       q    Type
                         _______ _______ _______ _____ _____    ______ ____

>  <TORSDO>
F 2

$$$$
=
 OpenBabel11112417233D

 37 42  0  0  1  0  0  0  0  0999 V2000
  187.3140  177.0870  141.7920 C   0  0  0  0  0  0  0  0  0  0  0  0
  190.1320  174.2020  142.7180 C   0  0  0  0  0  0  0  0  0  0  0  0
  190.4060  173.8270  146.0060 C   0  0  0  0  0  2  0  0  0  0  0  0
  188.3270  174.8150  141.2430 C   0  0  0  0  0  0  0  0  0  0  0  0
  190.8170  174.8540  143.7340 C   0  0  0  0  0  0  0  0  0  0  0  0
  189.3240  175.1230  142.1410 C   0  0  0  0  0  0  0  0  0  0  0  0
  191.4390  174.1520  144.9200 C   0  0  2  0  0  3  0  0  0  0  0  0
  188.1960  173.4660  140.8610 C   0  0  0  0  0  3  0  0  0  0  0  0
  189.5060  176.3100  142.7630 C   0  0  0  0  0  0  0  0  0  0  0  0
  186.3580  176.6660  142.8950 C   0  0  0  0  0  1  0  0  0  0  0  0
  190.9640  171.9220  142.8490 O   0  0  0  0  0  0  0  0  0  0  0  0
  189.0660  172.4890  141.4150 C   0  0  0  0  0  3  0  0  0  0  0  0
  188.6690  177.5110  142.4270 C   0  0  0  0  0  2  0  0  0  0  0  0
  190.1320  176.2080  146.9040 C   0  0  1  0  0  3  0  0  0  0  0  0
  189.4440  174.9830  146.2980 C   0  0  0  0  0  2  0  0  0  0  0  0
  190.0590  172.8580  142.3520 C   0  0  0  0  0  0  0  0  0  0  0  0
  190.4150  176.1650  143.7550 N   0  0  0  0  0  0  0  0  0  0  0  0
  187.4410  175.9320  140.7550 C   0  0  0  0  0  2  0  0  0  0  0  0
  192.3110  172.9120  144.6500 C   0  0  1  0  0  3  0  0  0  0  0  0
  186.7200  178.2910  141.0930 C   0  0  0  0  0  1  0  0  0  0  0  0
  191.2630  176.7910  146.0440 C   0  0  0  0  0  2  0  0  0  0  0  0
  190.8340  177.2530  144.6470 C   0  0  0  0  0  2  0  0  0  0  0  0
  192.2780  172.3090  143.2430 C   0  0  0  0  0  2  0  0  0  0  0  0
  186.9140  179.0410  147.8520 O   0  0  0  0  0  0  0  0  0  0  0  0
  186.6880  177.9600  147.2480 C   0  0  0  0  0  0  0  0  0  0  0  0
  189.1330  177.2550  147.2810 C   0  0  0  0  0  0  0  0  0  0  0  0
  187.7560  177.0520  146.9460 N   0  0  0  0  0  2  0  0  0  0  0  0
  189.5020  178.2910  147.9000 O   0  0  0  0  0  0  0  0  0  0  0  0
  185.0190  176.4160  146.1650 C   0  0  0  0  0  1  0  0  0  0  0  0
  185.3500  177.6450  146.8640 N   0  0  0  0  0  2  0  0  0  0  0  0
  194.1320  174.4690  145.3500 C   0  0  0  0  0  3  0  0  0  0  0  0
  193.7180  173.1620  145.0830 C   0  0  0  0  0  0  0  0  0  0  0  0
  194.6300  172.1060  145.2170 C   0  0  0  0  0  3  0  0  0  0  0  0
  196.9180  171.2710  145.7630 C   0  0  0  0  0  1  0  0  0  0  0  0
  196.3200  173.6610  145.8720 N   0  0  0  0  0  0  0  0  0  0  0  0
  195.9400  172.3800  145.6170 C   0  0  0  0  0  0  0  0  0  0  0  0
  195.4510  174.7000  145.7480 C   0  0  0  0  0  3  0  0  0  0  0  0
  1 13  1  0  0  0  0
  1 10  1  0  0  0  0
  2  5  2  0  0  0  0
  3 15  1  0  0  0  0
  4  6  1  0  0  0  0
  5 17  1  0  0  0  0
  5  7  1  0  0  0  0
  6  2  1  0  0  0  0
  6  9  2  0  0  0  0
  7  3  1  1  0  0  0
  8  4  2  0  0  0  0
  8 12  1  0  0  0  0
  9 17  1  0  0  0  0
 11 23  1  0  0  0  0
 12 16  2  0  0  0  0
 13  9  1  0  0  0  0
 14 26  1  6  0  0  0
 15 14  1  0  0  0  0
 16  2  1  0  0  0  0
 16 11  1  0  0  0  0
 17 22  1  0  0  0  0
 18  4  1  0  0  0  0
 18  1  1  0  0  0  0
 19  7  1  0  0  0  0
 19 32  1  6  0  0  0
 20  1  1  0  0  0  0
 21 14  1  0  0  0  0
 22 21  1  0  0  0  0
 23 19  1  0  0  0  0
 25 24  2  0  0  0  0
 26 28  2  0  0  0  0
 27 25  1  0  0  0  0
 27 26  1  0  0  0  0
 29 30  1  0  0  0  0
 30 25  1  0  0  0  0
 31 37  1  0  0  0  0
 32 33  1  0  0  0  0
 32 31  2  0  0  0  0
 33 36  2  0  0  0  0
 36 34  1  0  0  0  0
 36 35  1  0  0  0  0
 37 35  2  0  0  0  0
M  END
>  <MODEL>
7

>  <REMARK>
 VINA RESULT:      -8.6      2.480      7.138
  Name = 
  2 active torsions:
  status: ('A' for Active; 'I' for Inactive)
    1  A    between atoms: C_8  and  C_18
    2  A    between atoms: C_23  and  C_30
                            x       y       z     vdW  Elec       q    Type
                         _______ _______ _______ _____ _____    ______ ____

>  <TORSDO>
F 2

$$$$
=
 OpenBabel11112417233D

 37 42  0  0  1  0  0  0  0  0999 V2000
  195.0050  174.8050  144.9340 C   0  0  0  0  0  0  0  0  0  0  0  0
  191.0630  176.0520  145.1090 C   0  0  0  0  0  0  0  0  0  0  0  0
  189.0360  173.7490  143.8380 C   0  0  0  0  0  2  0  0  0  0  0  0
  193.1760  175.9740  146.2670 C   0  0  0  0  0  0  0  0  0  0  0  0
  190.6440  175.6990  143.8340 C   0  0  0  0  0  0  0  0  0  0  0  0
  192.4120  175.9270  145.1220 C   0  0  0  0  0  0  0  0  0  0  0  0
  189.2440  175.2310  143.5030 C   0  0  2  0  0  3  0  0  0  0  0  0
  192.5080  176.2350  147.4780 C   0  0  0  0  0  3  0  0  0  0  0  0
  192.8230  175.5240  143.8990 C   0  0  0  0  0  0  0  0  0  0  0  0
  194.6820  173.3640  145.2900 C   0  0  0  0  0  1  0  0  0  0  0  0
  188.9890  176.5870  146.2570 O   0  0  0  0  0  0  0  0  0  0  0  0
  191.1000  176.4200  147.4810 C   0  0  0  0  0  3  0  0  0  0  0  0
  194.2600  175.1850  143.6230 C   0  0  0  0  0  2  0  0  0  0  0  0
  190.3740  172.7900  141.8780 C   0  0  1  0  0  3  0  0  0  0  0  0
  190.1990  172.8540  143.3970 C   0  0  0  0  0  2  0  0  0  0  0  0
  190.3610  176.3370  146.2790 C   0  0  0  0  0  0  0  0  0  0  0  0
  191.7490  175.3670  143.0910 N   0  0  0  0  0  0  0  0  0  0  0  0
  194.6570  175.7230  146.1420 C   0  0  0  0  0  2  0  0  0  0  0  0
  188.0620  176.0530  144.0450 C   0  0  1  0  0  3  0  0  0  0  0  0
  196.4940  174.9000  144.6780 C   0  0  0  0  0  1  0  0  0  0  0  0
  190.5960  174.1530  141.2070 C   0  0  0  0  0  2  0  0  0  0  0  0
  191.8320  174.9160  141.6960 C   0  0  0  0  0  2  0  0  0  0  0  0
  188.3600  177.1260  145.0980 C   0  0  0  0  0  2  0  0  0  0  0  0
  193.5500  169.8440  141.1630 O   0  0  0  0  0  0  0  0  0  0  0  0
  193.1840  170.1540  142.3280 C   0  0  0  0  0  0  0  0  0  0  0  0
  191.4400  171.8120  141.5000 C   0  0  0  0  0  0  0  0  0  0  0  0
  192.1470  171.1220  142.5360 N   0  0  0  0  0  2  0  0  0  0  0  0
  191.6950  171.5900  140.2850 O   0  0  0  0  0  0  0  0  0  0  0  0
  193.4420  169.8390  144.8130 C   0  0  0  0  0  1  0  0  0  0  0  0
  193.8160  169.5280  143.4440 N   0  0  0  0  0  2  0  0  0  0  0  0
  187.8070  176.6290  141.6300 C   0  0  0  0  0  3  0  0  0  0  0  0
  187.2680  176.6280  142.9180 C   0  0  0  0  0  0  0  0  0  0  0  0
  185.9950  177.1730  143.1360 C   0  0  0  0  0  3  0  0  0  0  0  0
  183.9370  178.2910  142.2730 C   0  0  0  0  0  1  0  0  0  0  0  0
  185.8330  177.6980  140.8120 N   0  0  0  0  0  0  0  0  0  0  0  0
  185.2880  177.7080  142.0570 C   0  0  0  0  0  0  0  0  0  0  0  0
  187.0670  177.1740  140.5790 C   0  0  0  0  0  3  0  0  0  0  0  0
  1 10  1  0  0  0  0
  1 18  1  0  0  0  0
  2  6  1  0  0  0  0
  2 16  1  0  0  0  0
  4  8  2  0  0  0  0
  5  2  2  0  0  0  0
  6  4  1  0  0  0  0
  7  5  1  0  0  0  0
  7  3  1  1  0  0  0
  7 19  1  0  0  0  0
  8 12  1  0  0  0  0
  9  6  2  0  0  0  0
 11 16  1  0  0  0  0
 13  9  1  0  0  0  0
 13  1  1  0  0  0  0
 14 26  1  1  0  0  0
 14 15  1  0  0  0  0
 15  3  1  0  0  0  0
 16 12  2  0  0  0  0
 17  5  1  0  0  0  0
 17  9  1  0  0  0  0
 18  4  1  0  0  0  0
 19 32  1  6  0  0  0
 19 23  1  0  0  0  0
 20  1  1  0  0  0  0
 21 22  1  0  0  0  0
 21 14  1  0  0  0  0
 22 17  1  0  0  0  0
 23 11  1  0  0  0  0
 24 25  2  0  0  0  0
 25 27  1  0  0  0  0
 25 30  1  0  0  0  0
 26 27  1  0  0  0  0
 28 26  2  0  0  0  0
 30 29  1  0  0  0  0
 31 32  1  0  0  0  0
 32 33  2  0  0  0  0
 35 36  2  0  0  0  0
 36 34  1  0  0  0  0
 36 33  1  0  0  0  0
 37 35  1  0  0  0  0
 37 31  2  0  0  0  0
M  END
>  <MODEL>
8

>  <REMARK>
 VINA RESULT:      -8.4      2.793      5.465
  Name = 
  2 active torsions:
  status: ('A' for Active; 'I' for Inactive)
    1  A    between atoms: C_8  and  C_18
    2  A    between atoms: C_23  and  C_30
                            x       y       z     vdW  Elec       q    Type
                         _______ _______ _______ _____ _____    ______ ____

>  <TORSDO>
F 2

$$$$
=
 OpenBabel11112417233D

 37 42  0  0  1  0  0  0  0  0999 V2000
  192.2920  171.6900  141.5610 C   0  0  0  0  0  0  0  0  0  0  0  0
  189.2720  174.4680  142.0920 C   0  0  0  0  0  0  0  0  0  0  0  0
  190.4870  177.3290  143.2590 C   0  0  0  0  0  2  0  0  0  0  0  0
  190.1440  172.7300  140.6690 C   0  0  0  0  0  0  0  0  0  0  0  0
  189.6150  174.9590  143.3440 C   0  0  0  0  0  0  0  0  0  0  0  0
  190.0340  173.3680  141.8840 C   0  0  0  0  0  0  0  0  0  0  0  0
  189.3940  176.3900  143.7820 C   0  0  2  0  0  3  0  0  0  0  0  0
  189.3600  173.2200  139.6080 C   0  0  0  0  0  3  0  0  0  0  0  0
  190.8160  173.1700  142.9680 C   0  0  0  0  0  0  0  0  0  0  0  0
  193.2900  172.7090  141.0400 C   0  0  0  0  0  1  0  0  0  0  0  0
  187.5790  176.0310  141.3180 O   0  0  0  0  0  0  0  0  0  0  0  0
  188.5140  174.3420  139.8170 C   0  0  0  0  0  3  0  0  0  0  0  0
  191.8600  172.0900  143.0000 C   0  0  0  0  0  2  0  0  0  0  0  0
  192.3380  176.5830  144.8620 C   0  0  1  0  0  3  0  0  0  0  0  0
  191.9020  176.7610  143.4060 C   0  0  0  0  0  2  0  0  0  0  0  0
  188.4580  174.9750  141.0800 C   0  0  0  0  0  0  0  0  0  0  0  0
  190.5820  174.1450  143.8780 N   0  0  0  0  0  0  0  0  0  0  0  0
  191.1050  171.5740  140.5590 C   0  0  0  0  0  2  0  0  0  0  0  0
  188.0110  177.0160  143.5270 C   0  0  1  0  0  3  0  0  0  0  0  0
  192.9880  170.3480  141.6310 C   0  0  0  0  0  1  0  0  0  0  0  0
  191.4170  175.6790  145.6940 C   0  0  0  0  0  2  0  0  0  0  0  0
  191.2780  174.2460  145.1670 C   0  0  0  0  0  2  0  0  0  0  0  0
  187.0390  176.2580  142.6170 C   0  0  0  0  0  2  0  0  0  0  0  0
  196.3880  174.9120  145.1520 O   0  0  0  0  0  0  0  0  0  0  0  0
  195.3630  174.1860  145.2510 C   0  0  0  0  0  0  0  0  0  0  0  0
  193.7640  176.1430  144.9470 C   0  0  0  0  0  0  0  0  0  0  0  0
  194.0500  174.7560  145.1560 N   0  0  0  0  0  2  0  0  0  0  0  0
  194.6960  176.9830  144.8180 O   0  0  0  0  0  0  0  0  0  0  0  0
  194.3840  171.8900  145.5800 C   0  0  0  0  0  1  0  0  0  0  0  0
  195.5220  172.7830  145.4580 N   0  0  0  0  0  2  0  0  0  0  0  0
  188.0620  177.2090  146.0160 C   0  0  0  0  0  3  0  0  0  0  0  0
  187.3540  177.3670  144.8220 C   0  0  0  0  0  0  0  0  0  0  0  0
  186.0360  177.8440  144.8570 C   0  0  0  0  0  3  0  0  0  0  0  0
  184.0580  178.6610  146.1400 C   0  0  0  0  0  1  0  0  0  0  0  0
  186.1630  177.9930  147.2370 N   0  0  0  0  0  0  0  0  0  0  0  0
  185.4540  178.1550  146.0880 C   0  0  0  0  0  0  0  0  0  0  0  0
  187.4430  177.5310  147.2260 C   0  0  0  0  0  3  0  0  0  0  0  0
  1 20  1  0  0  0  0
  1 13  1  0  0  0  0
  2  5  2  0  0  0  0
  3 15  1  0  0  0  0
  4  6  1  0  0  0  0
  5  7  1  0  0  0  0
  5 17  1  0  0  0  0
  6  2  1  0  0  0  0
  6  9  2  0  0  0  0
  7  3  1  6  0  0  0
  8 12  1  0  0  0  0
  8  4  2  0  0  0  0
  9 13  1  0  0  0  0
  9 17  1  0  0  0  0
 10  1  1  0  0  0  0
 11 23  1  0  0  0  0
 12 16  2  0  0  0  0
 14 26  1  6  0  0  0
 14 21  1  0  0  0  0
 15 14  1  0  0  0  0
 16 11  1  0  0  0  0
 16  2  1  0  0  0  0
 17 22  1  0  0  0  0
 18  4  1  0  0  0  0
 18  1  1  0  0  0  0
 19  7  1  0  0  0  0
 19 32  1  1  0  0  0
 22 21  1  0  0  0  0
 23 19  1  0  0  0  0
 24 25  2  0  0  0  0
 25 30  1  0  0  0  0
 26 27  1  0  0  0  0
 27 25  1  0  0  0  0
 28 26  2  0  0  0  0
 30 29  1  0  0  0  0
 31 37  1  0  0  0  0
 32 33  1  0  0  0  0
 32 31  2  0  0  0  0
 33 36  2  0  0  0  0
 36 34  1  0  0  0  0
 36 35  1  0  0  0  0
 37 35  2  0  0  0  0
M  END
>  <MODEL>
9

>  <REMARK>
 VINA RESULT:      -8.4      1.519      1.996
  Name = 
  2 active torsions:
  status: ('A' for Active; 'I' for Inactive)
    1  A    between atoms: C_8  and  C_18
    2  A    between atoms: C_23  and  C_30
                            x       y       z     vdW  Elec       q    Type
                         _______ _______ _______ _____ _____    ______ ____

>  <TORSDO>
F 2

$$$$
