=
 OpenBabel11112417073D

 31 35  0  0  1  0  0  0  0  0999 V2000
  184.9930  178.1620  147.2350 C   0  0  0  0  0  0  0  0  0  0  0  0
  187.4200  175.9460  145.3140 C   0  0  2  0  0  3  0  0  0  0  0  0
  187.4150  176.3800  143.8550 C   0  0  0  0  0  0  0  0  0  0  0  0
  186.3770  177.5670  142.0010 C   0  0  0  0  0  0  0  0  0  0  0  0
  186.8820  177.0060  146.2460 C   0  0  0  0  0  0  0  0  0  0  0  0
  185.8670  178.9990  147.9340 C   0  0  0  0  0  3  0  0  0  0  0  0
  186.3940  177.2020  143.3500 C   0  0  0  0  0  3  0  0  0  0  0  0
  189.7640  176.6690  145.9630 C   0  0  2  0  0  3  0  0  0  0  0  0
  183.6540  178.3150  147.3720 F   0  0  0  0  0  0  0  0  0  0  0  0
  189.4280  175.0210  143.4440 N   0  0  0  0  0  2  0  0  0  0  0  0
  185.3450  178.4110  141.5080 N   0  0  0  0  0  1  0  0  0  0  0  0
  189.1740  177.6500  146.8700 N   0  0  0  0  0  2  0  0  0  0  0  0
  188.8170  175.4730  145.7800 C   0  0  2  0  0  3  0  0  0  0  0  0
  185.4990  177.1670  146.3940 C   0  0  0  0  0  3  0  0  0  0  0  0
  187.3720  177.1030  141.1390 C   0  0  0  0  0  3  0  0  0  0  0  0
  187.7600  177.8510  146.9520 C   0  0  0  0  0  0  0  0  0  0  0  0
  187.2490  178.8400  147.7970 C   0  0  0  0  0  3  0  0  0  0  0  0
  189.3840  174.4550  144.7880 C   0  0  0  0  0  2  0  0  0  0  0  0
  188.3950  175.8870  142.9670 C   0  0  0  0  0  0  0  0  0  0  0  0
  188.3790  176.2640  141.6220 C   0  0  0  0  0  3  0  0  0  0  0  0
  192.2310  176.6850  144.5350 O   0  0  0  0  0  0  0  0  0  0  0  0
  192.2480  176.2670  145.7260 C   0  0  0  0  0  0  0  0  0  0  0  0
  191.0450  176.2230  146.4940 N   0  0  0  0  0  2  0  0  0  0  0  0
  195.5260  176.2460  144.3360 C   0  0  0  0  0  0  0  0  0  0  0  0
  194.5470  176.9460  146.4470 C   0  0  0  0  0  2  0  0  0  0  0  0
  193.7400  173.4770  145.8330 O   0  0  0  0  0  0  0  0  0  0  0  0
  196.2840  176.5630  143.0990 C   0  0  0  0  0  1  0  0  0  0  0  0
  195.2270  177.1960  145.1710 N   0  0  0  0  0  0  0  0  0  0  0  0
  194.1170  174.6550  145.5950 C   0  0  0  0  0  0  0  0  0  0  0  0
  193.5280  175.8050  146.3510 C   0  0  2  0  0  3  0  0  0  0  0  0
  195.0750  174.9080  144.5670 N   0  0  0  0  0  2  0  0  0  0  0  0
  1  9  1  0  0  0  0
  1  6  1  0  0  0  0
  2  3  1  6  0  0  0
  2 13  1  0  0  0  0
  2  5  1  0  0  0  0
  4  7  2  0  0  0  0
  5 14  1  0  0  0  0
  5 16  2  0  0  0  0
  7  3  1  0  0  0  0
  8 23  1  1  0  0  0
  8 12  1  0  0  0  0
 10 18  1  0  0  0  0
 11  4  1  0  0  0  0
 12 16  1  0  0  0  0
 13 18  1  6  0  0  0
 13  8  1  0  0  0  0
 14  1  2  0  0  0  0
 15 20  2  0  0  0  0
 15  4  1  0  0  0  0
 16 17  1  0  0  0  0
 17  6  2  0  0  0  0
 19 10  1  0  0  0  0
 19  3  2  0  0  0  0
 20 19  1  0  0  0  0
 21 22  2  0  0  0  0
 22 23  1  0  0  0  0
 24 31  1  0  0  0  0
 24 28  2  0  0  0  0
 27 24  1  0  0  0  0
 28 25  1  0  0  0  0
 29 26  2  0  0  0  0
 29 30  1  0  0  0  0
 30 22  1  6  0  0  0
 30 25  1  0  0  0  0
 31 29  1  0  0  0  0
M  END
>  <MODEL>
1

>  <REMARK>
 VINA RESULT:      -8.7      0.000      0.000
  Name = 
  2 active torsions:
  status: ('A' for Active; 'I' for Inactive)
    1  A    between atoms: C_5  and  C_30
    2  A    between atoms: C_10  and  N_16
                            x       y       z     vdW  Elec       q    Type
                         _______ _______ _______ _____ _____    ______ ____

>  <TORSDO>
F 2

$$$$
=
 OpenBabel11112417073D

 31 35  0  0  1  0  0  0  0  0999 V2000
  184.7530  177.7940  146.5730 C   0  0  0  0  0  0  0  0  0  0  0  0
  187.0400  176.0150  144.1030 C   0  0  2  0  0  3  0  0  0  0  0  0
  186.7800  176.5810  142.7150 C   0  0  0  0  0  0  0  0  0  0  0  0
  185.3800  177.8290  141.1630 C   0  0  0  0  0  0  0  0  0  0  0  0
  186.5620  176.9260  145.2090 C   0  0  0  0  0  0  0  0  0  0  0  0
  185.6490  178.6430  147.2270 C   0  0  0  0  0  3  0  0  0  0  0  0
  185.6300  177.3420  142.4490 C   0  0  0  0  0  3  0  0  0  0  0  0
  189.3860  176.9000  144.4890 C   0  0  2  0  0  3  0  0  0  0  0  0
  183.4420  177.8020  146.9130 F   0  0  0  0  0  0  0  0  0  0  0  0
  188.8140  175.4700  141.8810 N   0  0  0  0  0  2  0  0  0  0  0  0
  184.2190  178.6100  140.9130 N   0  0  0  0  0  1  0  0  0  0  0  0
  188.8600  177.7290  145.5700 N   0  0  0  0  0  2  0  0  0  0  0  0
  188.5250  175.6390  144.3140 C   0  0  2  0  0  3  0  0  0  0  0  0
  185.2080  176.9350  145.5680 C   0  0  0  0  0  3  0  0  0  0  0  0
  186.2700  177.5470  140.1240 C   0  0  0  0  0  3  0  0  0  0  0  0
  187.4620  177.7820  145.8710 C   0  0  0  0  0  0  0  0  0  0  0  0
  187.0030  178.6340  146.8800 C   0  0  0  0  0  3  0  0  0  0  0  0
  189.0190  174.7790  143.1500 C   0  0  0  0  0  2  0  0  0  0  0  0
  187.6530  176.2710  141.6500 C   0  0  0  0  0  0  0  0  0  0  0  0
  187.4040  176.7680  140.3690 C   0  0  0  0  0  3  0  0  0  0  0  0
  191.6750  177.8300  143.0650 O   0  0  0  0  0  0  0  0  0  0  0  0
  191.8680  177.0450  144.0340 C   0  0  0  0  0  0  0  0  0  0  0  0
  190.7650  176.5340  144.7830 N   0  0  0  0  0  2  0  0  0  0  0  0
  193.1340  173.7720  144.6350 C   0  0  0  0  0  0  0  0  0  0  0  0
  193.8700  175.7030  143.3560 C   0  0  0  0  0  2  0  0  0  0  0  0
  193.3530  176.6600  146.8030 O   0  0  0  0  0  0  0  0  0  0  0  0
  192.7290  172.3430  144.6940 C   0  0  0  0  0  1  0  0  0  0  0  0
  193.3930  174.3210  143.4860 N   0  0  0  0  0  0  0  0  0  0  0  0
  193.2810  175.9690  145.7530 C   0  0  0  0  0  0  0  0  0  0  0  0
  193.2570  176.6320  144.4110 C   0  0  2  0  0  3  0  0  0  0  0  0
  193.1720  174.5480  145.8360 N   0  0  0  0  0  2  0  0  0  0  0  0
  1  9  1  0  0  0  0
  1  6  1  0  0  0  0
  2  3  1  6  0  0  0
  2 13  1  0  0  0  0
  2  5  1  0  0  0  0
  4  7  2  0  0  0  0
  5 14  1  0  0  0  0
  5 16  2  0  0  0  0
  7  3  1  0  0  0  0
  8 23  1  1  0  0  0
  8 12  1  0  0  0  0
 10 18  1  0  0  0  0
 11  4  1  0  0  0  0
 12 16  1  0  0  0  0
 13 18  1  6  0  0  0
 13  8  1  0  0  0  0
 14  1  2  0  0  0  0
 15 20  2  0  0  0  0
 15  4  1  0  0  0  0
 16 17  1  0  0  0  0
 17  6  2  0  0  0  0
 19 10  1  0  0  0  0
 19  3  2  0  0  0  0
 20 19  1  0  0  0  0
 21 22  2  0  0  0  0
 22 23  1  0  0  0  0
 24 27  1  0  0  0  0
 24 31  1  0  0  0  0
 25 28  1  0  0  0  0
 25 30  1  0  0  0  0
 28 24  2  0  0  0  0
 29 31  1  0  0  0  0
 29 26  2  0  0  0  0
 30 22  1  6  0  0  0
 30 29  1  0  0  0  0
M  END
>  <MODEL>
2

>  <REMARK>
 VINA RESULT:      -8.6      1.584      2.120
  Name = 
  2 active torsions:
  status: ('A' for Active; 'I' for Inactive)
    1  A    between atoms: C_5  and  C_30
    2  A    between atoms: C_10  and  N_16
                            x       y       z     vdW  Elec       q    Type
                         _______ _______ _______ _____ _____    ______ ____

>  <TORSDO>
F 2

$$$$
=
 OpenBabel11112417073D

 31 35  0  0  1  0  0  0  0  0999 V2000
  194.4680  176.7560  145.1810 C   0  0  0  0  0  0  0  0  0  0  0  0
  191.0960  176.8930  143.4190 C   0  0  2  0  0  3  0  0  0  0  0  0
  190.9090  175.5990  142.6400 C   0  0  0  0  0  0  0  0  0  0  0  0
  191.8220  173.5780  141.6370 C   0  0  0  0  0  0  0  0  0  0  0  0
  192.1380  176.7800  144.5060 C   0  0  0  0  0  0  0  0  0  0  0  0
  194.0860  176.5250  146.5050 C   0  0  0  0  0  3  0  0  0  0  0  0
  191.9950  174.7470  142.3830 C   0  0  0  0  0  3  0  0  0  0  0  0
  189.3120  176.5810  145.1950 C   0  0  2  0  0  3  0  0  0  0  0  0
  195.7810  176.8550  144.8630 F   0  0  0  0  0  0  0  0  0  0  0  0
  188.5310  176.1480  142.3010 N   0  0  0  0  0  2  0  0  0  0  0  0
  192.9280  172.7180  141.3980 N   0  0  0  0  0  1  0  0  0  0  0  0
  190.3720  176.5140  146.1990 N   0  0  0  0  0  2  0  0  0  0  0  0
  189.7650  177.4280  143.9960 C   0  0  2  0  0  3  0  0  0  0  0  0
  193.4970  176.8850  144.1840 C   0  0  0  0  0  3  0  0  0  0  0  0
  190.5630  173.2560  141.1260 C   0  0  0  0  0  3  0  0  0  0  0  0
  191.7570  176.5480  145.8420 C   0  0  0  0  0  0  0  0  0  0  0  0
  192.7310  176.4260  146.8360 C   0  0  0  0  0  3  0  0  0  0  0  0
  188.6970  177.4670  142.9020 C   0  0  0  0  0  2  0  0  0  0  0  0
  189.6500  175.2830  142.0870 C   0  0  0  0  0  0  0  0  0  0  0  0
  189.4790  174.1080  141.3510 C   0  0  0  0  0  3  0  0  0  0  0  0
  187.8280  175.4170  147.3330 O   0  0  0  0  0  0  0  0  0  0  0  0
  187.4190  176.5170  146.8690 C   0  0  0  0  0  0  0  0  0  0  0  0
  188.1110  177.1490  145.7910 N   0  0  0  0  0  2  0  0  0  0  0  0
  185.2700  178.9140  145.3490 C   0  0  0  0  0  0  0  0  0  0  0  0
  184.9530  176.8560  146.6030 C   0  0  0  0  0  2  0  0  0  0  0  0
  186.9490  179.1610  148.5450 O   0  0  0  0  0  0  0  0  0  0  0  0
  185.0800  179.7100  144.1090 C   0  0  0  0  0  1  0  0  0  0  0  0
  184.8680  177.6780  145.3910 N   0  0  0  0  0  0  0  0  0  0  0  0
  186.3820  178.6580  147.5400 C   0  0  0  0  0  0  0  0  0  0  0  0
  186.2000  177.1750  147.4360 C   0  0  2  0  0  3  0  0  0  0  0  0
  185.9510  179.4930  146.4660 N   0  0  0  0  0  2  0  0  0  0  0  0
  1  6  1  0  0  0  0
  2  3  1  1  0  0  0
  2 13  1  0  0  0  0
  2  5  1  0  0  0  0
  4  7  2  0  0  0  0
  5 16  2  0  0  0  0
  6 17  2  0  0  0  0
  7  3  1  0  0  0  0
  8 23  1  1  0  0  0
  8 12  1  0  0  0  0
  9  1  1  0  0  0  0
 10 18  1  0  0  0  0
 11  4  1  0  0  0  0
 13 18  1  6  0  0  0
 13  8  1  0  0  0  0
 14  5  1  0  0  0  0
 14  1  2  0  0  0  0
 15 20  2  0  0  0  0
 15  4  1  0  0  0  0
 16 12  1  0  0  0  0
 16 17  1  0  0  0  0
 19 10  1  0  0  0  0
 19  3  2  0  0  0  0
 20 19  1  0  0  0  0
 22 21  2  0  0  0  0
 23 22  1  0  0  0  0
 24 28  2  0  0  0  0
 24 31  1  0  0  0  0
 25 30  1  0  0  0  0
 27 24  1  0  0  0  0
 28 25  1  0  0  0  0
 29 26  2  0  0  0  0
 30 22  1  6  0  0  0
 30 29  1  0  0  0  0
 31 29  1  0  0  0  0
M  END
>  <MODEL>
3

>  <REMARK>
 VINA RESULT:      -8.5      3.545      7.170
  Name = 
  2 active torsions:
  status: ('A' for Active; 'I' for Inactive)
    1  A    between atoms: C_5  and  C_30
    2  A    between atoms: C_10  and  N_16
                            x       y       z     vdW  Elec       q    Type
                         _______ _______ _______ _____ _____    ______ ____

>  <TORSDO>
F 2

$$$$
=
 OpenBabel11112417073D

 31 35  0  0  1  0  0  0  0  0999 V2000
  191.4530  172.9420  141.6530 C   0  0  0  0  0  0  0  0  0  0  0  0
  191.0140  174.0920  145.2560 C   0  0  2  0  0  3  0  0  0  0  0  0
  192.1730  175.0120  145.6110 C   0  0  0  0  0  0  0  0  0  0  0  0
  194.4020  175.8820  145.1640 C   0  0  0  0  0  0  0  0  0  0  0  0
  190.8120  173.9470  143.7660 C   0  0  0  0  0  0  0  0  0  0  0  0
  190.4820  173.7010  140.9940 C   0  0  0  0  0  3  0  0  0  0  0  0
  193.3280  175.0600  144.8120 C   0  0  0  0  0  3  0  0  0  0  0  0
  189.1150  175.7740  145.2770 C   0  0  2  0  0  3  0  0  0  0  0  0
  192.2360  172.0900  140.9510 F   0  0  0  0  0  0  0  0  0  0  0  0
  190.9900  175.7130  147.6550 N   0  0  0  0  0  2  0  0  0  0  0  0
  195.5580  175.9310  144.3370 N   0  0  0  0  0  1  0  0  0  0  0  0
  188.9540  175.5580  143.8410 N   0  0  0  0  0  2  0  0  0  0  0  0
  189.6960  174.5170  145.9440 C   0  0  2  0  0  3  0  0  0  0  0  0
  191.6170  173.0630  143.0360 C   0  0  0  0  0  3  0  0  0  0  0  0
  194.3410  176.6530  146.3260 C   0  0  0  0  0  3  0  0  0  0  0  0
  189.8340  174.7090  143.0990 C   0  0  0  0  0  0  0  0  0  0  0  0
  189.6690  174.5800  141.7170 C   0  0  0  0  0  3  0  0  0  0  0  0
  189.9310  174.7330  147.4400 C   0  0  0  0  0  2  0  0  0  0  0  0
  192.1370  175.7670  146.8030 C   0  0  0  0  0  0  0  0  0  0  0  0
  193.2100  176.5940  147.1440 C   0  0  0  0  0  3  0  0  0  0  0  0
  188.6450  177.9300  147.0820 O   0  0  0  0  0  0  0  0  0  0  0  0
  187.6580  177.2120  146.7600 C   0  0  0  0  0  0  0  0  0  0  0  0
  187.8270  176.1100  145.8680 N   0  0  0  0  0  2  0  0  0  0  0  0
  184.8560  178.6750  145.1220 C   0  0  0  0  0  0  0  0  0  0  0  0
  185.2100  176.7370  146.5450 C   0  0  0  0  0  2  0  0  0  0  0  0
  186.3870  179.7080  148.2340 O   0  0  0  0  0  0  0  0  0  0  0  0
  184.4200  179.2620  143.8290 C   0  0  0  0  0  1  0  0  0  0  0  0
  184.8650  177.3840  145.2740 N   0  0  0  0  0  0  0  0  0  0  0  0
  186.0030  178.9680  147.2900 C   0  0  0  0  0  0  0  0  0  0  0  0
  186.2970  177.5000  147.3110 C   0  0  2  0  0  3  0  0  0  0  0  0
  185.3250  179.5320  146.1670 N   0  0  0  0  0  2  0  0  0  0  0  0
  1 14  1  0  0  0  0
  2  5  1  6  0  0  0
  2  3  1  0  0  0  0
  2 13  1  0  0  0  0
  3 19  1  0  0  0  0
  4 15  2  0  0  0  0
  6  1  2  0  0  0  0
  6 17  1  0  0  0  0
  7  4  1  0  0  0  0
  7  3  2  0  0  0  0
  8 23  1  1  0  0  0
  8 13  1  0  0  0  0
  9  1  1  0  0  0  0
 11  4  1  0  0  0  0
 12  8  1  0  0  0  0
 13 18  1  1  0  0  0
 14  5  2  0  0  0  0
 15 20  1  0  0  0  0
 16  5  1  0  0  0  0
 16 12  1  0  0  0  0
 17 16  2  0  0  0  0
 18 10  1  0  0  0  0
 19 20  2  0  0  0  0
 19 10  1  0  0  0  0
 22 21  2  0  0  0  0
 23 22  1  0  0  0  0
 24 28  2  0  0  0  0
 24 31  1  0  0  0  0
 25 30  1  0  0  0  0
 27 24  1  0  0  0  0
 28 25  1  0  0  0  0
 29 30  1  0  0  0  0
 29 26  2  0  0  0  0
 30 22  1  6  0  0  0
 31 29  1  0  0  0  0
M  END
>  <MODEL>
4

>  <REMARK>
 VINA RESULT:      -8.3      3.389      7.860
  Name = 
  2 active torsions:
  status: ('A' for Active; 'I' for Inactive)
    1  A    between atoms: C_5  and  C_30
    2  A    between atoms: C_10  and  N_16
                            x       y       z     vdW  Elec       q    Type
                         _______ _______ _______ _____ _____    ______ ____

>  <TORSDO>
F 2

$$$$
=
 OpenBabel11112417073D

 31 35  0  0  1  0  0  0  0  0999 V2000
  190.0260  171.5630  142.2800 C   0  0  0  0  0  0  0  0  0  0  0  0
  189.6200  174.4600  144.7170 C   0  0  2  0  0  3  0  0  0  0  0  0
  190.9890  174.8090  145.2800 C   0  0  0  0  0  0  0  0  0  0  0  0
  193.3180  174.2370  145.6980 C   0  0  0  0  0  0  0  0  0  0  0  0
  189.6950  173.6740  143.4290 C   0  0  0  0  0  0  0  0  0  0  0  0
  189.8860  172.2090  141.0480 C   0  0  0  0  0  3  0  0  0  0  0  0
  192.0720  173.9250  145.1470 C   0  0  0  0  0  3  0  0  0  0  0  0
  189.1850  176.5430  143.3350 C   0  0  2  0  0  3  0  0  0  0  0  0
  190.2570  170.2300  142.3220 F   0  0  0  0  0  0  0  0  0  0  0  0
  190.0740  176.9000  146.2090 N   0  0  0  0  0  2  0  0  0  0  0  0
  194.4080  173.3380  145.5420 N   0  0  0  0  0  1  0  0  0  0  0  0
  189.2380  175.7150  142.1330 N   0  0  0  0  0  2  0  0  0  0  0  0
  188.7230  175.7080  144.5390 C   0  0  2  0  0  3  0  0  0  0  0  0
  189.9300  172.2940  143.4680 C   0  0  0  0  0  3  0  0  0  0  0  0
  193.4910  175.4300  146.4020 C   0  0  0  0  0  3  0  0  0  0  0  0
  189.5530  174.3200  142.1870 C   0  0  0  0  0  0  0  0  0  0  0  0
  189.6440  173.5850  141.0020 C   0  0  0  0  0  3  0  0  0  0  0  0
  188.7140  176.5350  145.8250 C   0  0  0  0  0  2  0  0  0  0  0  0
  191.1660  175.9950  146.0250 C   0  0  0  0  0  0  0  0  0  0  0  0
  192.4160  176.3070  146.5650 C   0  0  0  0  0  3  0  0  0  0  0  0
  186.4530  176.3180  142.5520 O   0  0  0  0  0  0  0  0  0  0  0  0
  186.9160  177.4780  142.7340 C   0  0  0  0  0  0  0  0  0  0  0  0
  188.2790  177.6620  143.1170 N   0  0  0  0  0  2  0  0  0  0  0  0
  184.4920  178.8430  144.9560 C   0  0  0  0  0  0  0  0  0  0  0  0
  186.3140  179.7400  143.6210 C   0  0  0  0  0  2  0  0  0  0  0  0
  184.0370  177.9120  141.4890 O   0  0  0  0  0  0  0  0  0  0  0  0
  183.8490  178.6250  146.2780 C   0  0  0  0  0  1  0  0  0  0  0  0
  185.6530  179.4250  144.8920 N   0  0  0  0  0  0  0  0  0  0  0  0
  184.5940  178.3060  142.5480 C   0  0  0  0  0  0  0  0  0  0  0  0
  186.0440  178.6810  142.5460 C   0  0  2  0  0  3  0  0  0  0  0  0
  183.8600  178.3530  143.7710 N   0  0  0  0  0  2  0  0  0  0  0  0
  1  9  1  0  0  0  0
  1 14  1  0  0  0  0
  2  5  1  6  0  0  0
  2  3  1  0  0  0  0
  3 19  1  0  0  0  0
  4 15  2  0  0  0  0
  5 14  2  0  0  0  0
  6  1  2  0  0  0  0
  7  3  2  0  0  0  0
  7  4  1  0  0  0  0
  8 23  1  6  0  0  0
  8 13  1  0  0  0  0
 11  4  1  0  0  0  0
 12 16  1  0  0  0  0
 12  8  1  0  0  0  0
 13  2  1  0  0  0  0
 13 18  1  1  0  0  0
 15 20  1  0  0  0  0
 16  5  1  0  0  0  0
 17  6  1  0  0  0  0
 17 16  2  0  0  0  0
 18 10  1  0  0  0  0
 19 10  1  0  0  0  0
 19 20  2  0  0  0  0
 21 22  2  0  0  0  0
 22 23  1  0  0  0  0
 24 27  1  0  0  0  0
 25 28  1  0  0  0  0
 26 29  2  0  0  0  0
 28 24  2  0  0  0  0
 29 31  1  0  0  0  0
 30 29  1  0  0  0  0
 30 22  1  1  0  0  0
 30 25  1  0  0  0  0
 31 24  1  0  0  0  0
M  END
>  <MODEL>
5

>  <REMARK>
 VINA RESULT:      -8.3      3.496      8.071
  Name = 
  2 active torsions:
  status: ('A' for Active; 'I' for Inactive)
    1  A    between atoms: C_5  and  C_30
    2  A    between atoms: C_10  and  N_16
                            x       y       z     vdW  Elec       q    Type
                         _______ _______ _______ _____ _____    ______ ____

>  <TORSDO>
F 2

$$$$
=
 OpenBabel11112417073D

 31 35  0  0  1  0  0  0  0  0999 V2000
  187.0250  177.4960  140.8980 C   0  0  0  0  0  0  0  0  0  0  0  0
  188.4930  177.7960  144.3980 C   0  0  2  0  0  3  0  0  0  0  0  0
  187.3460  177.9160  145.3910 C   0  0  0  0  0  0  0  0  0  0  0  0
  185.0050  178.3670  145.8810 C   0  0  0  0  0  0  0  0  0  0  0  0
  188.0650  177.2140  143.0710 C   0  0  0  0  0  0  0  0  0  0  0  0
  187.2230  176.1400  140.6240 C   0  0  0  0  0  3  0  0  0  0  0  0
  186.0460  178.2250  144.9590 C   0  0  0  0  0  3  0  0  0  0  0  0
  189.3720  175.5040  145.0380 C   0  0  2  0  0  3  0  0  0  0  0  0
  186.4230  178.2910  139.9810 F   0  0  0  0  0  0  0  0  0  0  0  0
  188.9150  177.5230  147.2490 N   0  0  0  0  0  2  0  0  0  0  0  0
  183.6910  178.6660  145.4270 N   0  0  0  0  0  1  0  0  0  0  0  0
  188.9630  175.0170  143.7230 N   0  0  0  0  0  2  0  0  0  0  0  0
  189.6900  177.0060  144.9760 C   0  0  2  0  0  3  0  0  0  0  0  0
  187.4460  178.0330  142.1180 C   0  0  0  0  0  3  0  0  0  0  0  0
  185.2560  178.2170  147.2460 C   0  0  0  0  0  3  0  0  0  0  0  0
  188.2640  175.8490  142.7910 C   0  0  0  0  0  0  0  0  0  0  0  0
  187.8460  175.3180  141.5670 C   0  0  0  0  0  3  0  0  0  0  0  0
  190.0660  177.5570  146.3530 C   0  0  0  0  0  2  0  0  0  0  0  0
  187.5950  177.8030  146.7750 C   0  0  0  0  0  0  0  0  0  0  0  0
  186.5490  177.9360  147.6920 C   0  0  0  0  0  3  0  0  0  0  0  0
  191.8240  175.2510  143.6060 O   0  0  0  0  0  0  0  0  0  0  0  0
  191.7410  174.6800  144.7280 C   0  0  0  0  0  0  0  0  0  0  0  0
  190.5380  174.7580  145.4920 N   0  0  0  0  0  2  0  0  0  0  0  0
  195.2220  175.3490  144.3940 C   0  0  0  0  0  0  0  0  0  0  0  0
  193.7430  174.7600  146.2300 C   0  0  0  0  0  2  0  0  0  0  0  0
  193.4760  172.2760  143.6170 O   0  0  0  0  0  0  0  0  0  0  0  0
  196.1880  176.2880  143.7680 C   0  0  0  0  0  1  0  0  0  0  0  0
  194.6470  175.6670  145.5160 N   0  0  0  0  0  0  0  0  0  0  0  0
  193.7620  173.3690  144.1730 C   0  0  0  0  0  0  0  0  0  0  0  0
  192.9010  173.9060  145.2740 C   0  0  2  0  0  3  0  0  0  0  0  0
  194.8830  174.1310  143.7250 N   0  0  0  0  0  2  0  0  0  0  0  0
  1 14  1  0  0  0  0
  2  5  1  6  0  0  0
  2 13  1  0  0  0  0
  2  3  1  0  0  0  0
  3 19  1  0  0  0  0
  4 15  2  0  0  0  0
  6  1  2  0  0  0  0
  6 17  1  0  0  0  0
  7  3  2  0  0  0  0
  7  4  1  0  0  0  0
  8 23  1  6  0  0  0
  9  1  1  0  0  0  0
 11  4  1  0  0  0  0
 12  8  1  0  0  0  0
 13  8  1  0  0  0  0
 13 18  1  1  0  0  0
 14  5  2  0  0  0  0
 15 20  1  0  0  0  0
 16  5  1  0  0  0  0
 16 12  1  0  0  0  0
 17 16  2  0  0  0  0
 18 10  1  0  0  0  0
 19 10  1  0  0  0  0
 19 20  2  0  0  0  0
 21 22  2  0  0  0  0
 22 23  1  0  0  0  0
 24 28  2  0  0  0  0
 26 29  2  0  0  0  0
 27 24  1  0  0  0  0
 28 25  1  0  0  0  0
 29 30  1  0  0  0  0
 30 22  1  6  0  0  0
 30 25  1  0  0  0  0
 31 29  1  0  0  0  0
 31 24  1  0  0  0  0
M  END
>  <MODEL>
6

>  <REMARK>
 VINA RESULT:      -8.1      2.056      4.118
  Name = 
  2 active torsions:
  status: ('A' for Active; 'I' for Inactive)
    1  A    between atoms: C_5  and  C_30
    2  A    between atoms: C_10  and  N_16
                            x       y       z     vdW  Elec       q    Type
                         _______ _______ _______ _____ _____    ______ ____

>  <TORSDO>
F 2

$$$$
=
 OpenBabel11112417073D

 31 35  0  0  1  0  0  0  0  0999 V2000
  186.1770  178.1780  140.7730 C   0  0  0  0  0  0  0  0  0  0  0  0
  188.6370  177.9140  143.6670 C   0  0  2  0  0  3  0  0  0  0  0  0
  187.8610  177.5580  144.9260 C   0  0  0  0  0  0  0  0  0  0  0  0
  185.7620  177.4000  146.1470 C   0  0  0  0  0  0  0  0  0  0  0  0
  187.8810  177.5960  142.3980 C   0  0  0  0  0  0  0  0  0  0  0  0
  186.4360  176.9960  140.0740 C   0  0  0  0  0  3  0  0  0  0  0  0
  186.4640  177.6950  144.9760 C   0  0  0  0  0  3  0  0  0  0  0  0
  189.9380  175.7590  143.3460 C   0  0  2  0  0  3  0  0  0  0  0  0
  185.2260  179.0330  140.3280 F   0  0  0  0  0  0  0  0  0  0  0  0
  189.9740  177.0520  146.0860 N   0  0  0  0  0  2  0  0  0  0  0  0
  184.3460  177.5290  146.1780 N   0  0  0  0  0  1  0  0  0  0  0  0
  189.1910  175.5320  142.1120 N   0  0  0  0  0  2  0  0  0  0  0  0
  190.0400  177.2640  143.6390 C   0  0  2  0  0  3  0  0  0  0  0  0
  186.8990  178.4780  141.9320 C   0  0  0  0  0  3  0  0  0  0  0  0
  186.4490  176.9780  147.2870 C   0  0  0  0  0  3  0  0  0  0  0  0
  188.1400  176.4060  141.6910 C   0  0  0  0  0  0  0  0  0  0  0  0
  187.4200  176.1140  140.5290 C   0  0  0  0  0  3  0  0  0  0  0  0
  190.7670  177.5310  144.9580 C   0  0  0  0  0  2  0  0  0  0  0  0
  188.5490  177.1680  146.0940 C   0  0  0  0  0  0  0  0  0  0  0  0
  187.8410  176.8640  147.2590 C   0  0  0  0  0  3  0  0  0  0  0  0
  190.5410  172.9830  143.5770 O   0  0  0  0  0  0  0  0  0  0  0  0
  191.4980  173.7720  143.3450 C   0  0  0  0  0  0  0  0  0  0  0  0
  191.2670  175.1750  143.2270 N   0  0  0  0  0  2  0  0  0  0  0  0
  194.4410  174.7330  145.1030 C   0  0  0  0  0  0  0  0  0  0  0  0
  193.4010  172.6220  144.4970 C   0  0  0  0  0  2  0  0  0  0  0  0
  193.9500  174.5980  141.5200 O   0  0  0  0  0  0  0  0  0  0  0  0
  194.9420  175.6730  146.1390 C   0  0  0  0  0  1  0  0  0  0  0  0
  193.8520  173.6310  145.4620 N   0  0  0  0  0  0  0  0  0  0  0  0
  193.8310  174.3270  142.7440 C   0  0  0  0  0  0  0  0  0  0  0  0
  192.8930  173.2490  143.1930 C   0  0  2  0  0  3  0  0  0  0  0  0
  194.5530  175.0790  143.7190 N   0  0  0  0  0  2  0  0  0  0  0  0
  1 14  1  0  0  0  0
  2  5  1  6  0  0  0
  2  3  1  0  0  0  0
  3  7  2  0  0  0  0
  3 19  1  0  0  0  0
  4 11  1  0  0  0  0
  4 15  2  0  0  0  0
  6 17  1  0  0  0  0
  6  1  2  0  0  0  0
  7  4  1  0  0  0  0
  8 23  1  6  0  0  0
  8 13  1  0  0  0  0
  9  1  1  0  0  0  0
 10 19  1  0  0  0  0
 12  8  1  0  0  0  0
 13  2  1  0  0  0  0
 13 18  1  1  0  0  0
 14  5  2  0  0  0  0
 16 12  1  0  0  0  0
 16  5  1  0  0  0  0
 17 16  2  0  0  0  0
 18 10  1  0  0  0  0
 19 20  2  0  0  0  0
 20 15  1  0  0  0  0
 22 21  2  0  0  0  0
 23 22  1  0  0  0  0
 24 28  2  0  0  0  0
 24 27  1  0  0  0  0
 25 28  1  0  0  0  0
 26 29  2  0  0  0  0
 29 30  1  0  0  0  0
 29 31  1  0  0  0  0
 30 22  1  1  0  0  0
 30 25  1  0  0  0  0
 31 24  1  0  0  0  0
M  END
>  <MODEL>
7

>  <REMARK>
 VINA RESULT:      -7.9      2.443      4.538
  Name = 
  2 active torsions:
  status: ('A' for Active; 'I' for Inactive)
    1  A    between atoms: C_5  and  C_30
    2  A    between atoms: C_10  and  N_16
                            x       y       z     vdW  Elec       q    Type
                         _______ _______ _______ _____ _____    ______ ____

>  <TORSDO>
F 2

$$$$
=
 OpenBabel11112417073D

 31 35  0  0  1  0  0  0  0  0999 V2000
  186.5000  177.1230  142.3030 C   0  0  0  0  0  0  0  0  0  0  0  0
  189.2430  174.6850  143.3170 C   0  0  2  0  0  3  0  0  0  0  0  0
  189.4850  173.7260  142.1610 C   0  0  0  0  0  0  0  0  0  0  0  0
  188.7700  172.7040  140.0700 C   0  0  0  0  0  0  0  0  0  0  0  0
  188.5420  175.9540  142.8930 C   0  0  0  0  0  0  0  0  0  0  0  0
  187.2320  178.2880  142.0610 C   0  0  0  0  0  3  0  0  0  0  0  0
  188.5580  173.6120  141.1110 C   0  0  0  0  0  3  0  0  0  0  0  0
  191.4330  175.9650  143.2720 C   0  0  2  0  0  3  0  0  0  0  0  0
  185.1560  177.1210  142.1330 F   0  0  0  0  0  0  0  0  0  0  0  0
  191.5510  172.9390  143.2460 N   0  0  0  0  0  2  0  0  0  0  0  0
  187.8300  172.6100  139.0080 N   0  0  0  0  0  1  0  0  0  0  0  0
  190.6860  177.1630  142.8960 N   0  0  0  0  0  2  0  0  0  0  0  0
  190.5430  175.0150  144.0870 C   0  0  2  0  0  3  0  0  0  0  0  0
  187.1530  175.9590  142.7190 C   0  0  0  0  0  3  0  0  0  0  0  0
  189.9030  171.8880  140.0750 C   0  0  0  0  0  3  0  0  0  0  0  0
  189.2770  177.1300  142.6500 C   0  0  0  0  0  0  0  0  0  0  0  0
  188.6190  178.2940  142.2390 C   0  0  0  0  0  3  0  0  0  0  0  0
  191.2810  173.7240  144.4460 C   0  0  0  0  0  2  0  0  0  0  0  0
  190.6070  172.8710  142.1740 C   0  0  0  0  0  0  0  0  0  0  0  0
  190.8190  171.9720  141.1260 C   0  0  0  0  0  3  0  0  0  0  0  0
  194.1360  175.5770  142.4540 O   0  0  0  0  0  0  0  0  0  0  0  0
  193.9370  176.1300  143.5700 C   0  0  0  0  0  0  0  0  0  0  0  0
  192.6080  176.3460  144.0440 N   0  0  0  0  0  2  0  0  0  0  0  0
  196.2310  174.1240  145.4110 C   0  0  0  0  0  0  0  0  0  0  0  0
  196.4180  176.0080  143.8880 C   0  0  0  0  0  2  0  0  0  0  0  0
  194.2320  176.8820  146.6310 O   0  0  0  0  0  0  0  0  0  0  0  0
  196.5470  172.7150  145.7630 C   0  0  0  0  0  1  0  0  0  0  0  0
  196.6270  174.6080  144.2710 N   0  0  0  0  0  0  0  0  0  0  0  0
  194.9000  176.1580  145.8470 C   0  0  0  0  0  0  0  0  0  0  0  0
  195.0910  176.5660  144.4190 C   0  0  2  0  0  3  0  0  0  0  0  0
  195.4390  174.9160  146.3000 N   0  0  0  0  0  2  0  0  0  0  0  0
  1 14  1  0  0  0  0
  2  3  1  6  0  0  0
  2 13  1  0  0  0  0
  3 19  1  0  0  0  0
  4 15  2  0  0  0  0
  4  7  1  0  0  0  0
  5  2  1  0  0  0  0
  6 17  1  0  0  0  0
  6  1  2  0  0  0  0
  7  3  2  0  0  0  0
  8 23  1  1  0  0  0
  8 13  1  0  0  0  0
  9  1  1  0  0  0  0
 10 18  1  0  0  0  0
 11  4  1  0  0  0  0
 12  8  1  0  0  0  0
 13 18  1  6  0  0  0
 14  5  2  0  0  0  0
 15 20  1  0  0  0  0
 16  5  1  0  0  0  0
 16 12  1  0  0  0  0
 17 16  2  0  0  0  0
 19 10  1  0  0  0  0
 20 19  2  0  0  0  0
 21 22  2  0  0  0  0
 22 23  1  0  0  0  0
 24 27  1  0  0  0  0
 24 31  1  0  0  0  0
 25 28  1  0  0  0  0
 25 30  1  0  0  0  0
 28 24  2  0  0  0  0
 29 31  1  0  0  0  0
 29 26  2  0  0  0  0
 30 22  1  6  0  0  0
 30 29  1  0  0  0  0
M  END
>  <MODEL>
8

>  <REMARK>
 VINA RESULT:      -7.7      3.202      4.130
  Name = 
  2 active torsions:
  status: ('A' for Active; 'I' for Inactive)
    1  A    between atoms: C_5  and  C_30
    2  A    between atoms: C_10  and  N_16
                            x       y       z     vdW  Elec       q    Type
                         _______ _______ _______ _____ _____    ______ ____

>  <TORSDO>
F 2

$$$$
=
 OpenBabel11112417073D

 31 35  0  0  1  0  0  0  0  0999 V2000
  186.1210  178.2070  140.8670 C   0  0  0  0  0  0  0  0  0  0  0  0
  188.6560  177.9350  143.6940 C   0  0  2  0  0  3  0  0  0  0  0  0
  187.9240  177.5040  144.9560 C   0  0  0  0  0  0  0  0  0  0  0  0
  185.8620  177.2190  146.2170 C   0  0  0  0  0  0  0  0  0  0  0  0
  187.8830  177.6330  142.4320 C   0  0  0  0  0  0  0  0  0  0  0  0
  186.4080  177.0620  140.1190 C   0  0  0  0  0  3  0  0  0  0  0  0
  186.5240  177.5840  145.0420 C   0  0  0  0  0  3  0  0  0  0  0  0
  190.0310  175.8460  143.2660 C   0  0  2  0  0  3  0  0  0  0  0  0
  185.1270  179.0390  140.4750 F   0  0  0  0  0  0  0  0  0  0  0  0
  190.0820  177.0390  146.0500 N   0  0  0  0  0  2  0  0  0  0  0  0
  184.4430  177.2910  146.2840 N   0  0  0  0  0  1  0  0  0  0  0  0
  189.2650  175.6350  142.0400 N   0  0  0  0  0  2  0  0  0  0  0  0
  190.0820  177.3430  143.6120 C   0  0  2  0  0  3  0  0  0  0  0  0
  186.8570  178.4930  142.0200 C   0  0  0  0  0  3  0  0  0  0  0  0
  186.5920  176.7840  147.3250 C   0  0  0  0  0  3  0  0  0  0  0  0
  188.1710  176.4820  141.6750 C   0  0  0  0  0  0  0  0  0  0  0  0
  187.4360  176.2030  140.5190 C   0  0  0  0  0  3  0  0  0  0  0  0
  190.8290  177.5900  144.9240 C   0  0  0  0  0  2  0  0  0  0  0  0
  188.6540  177.0990  146.0940 C   0  0  0  0  0  0  0  0  0  0  0  0
  187.9860  176.7250  147.2620 C   0  0  0  0  0  3  0  0  0  0  0  0
  191.1730  173.7260  144.7920 O   0  0  0  0  0  0  0  0  0  0  0  0
  191.8860  174.2470  143.8900 C   0  0  0  0  0  0  0  0  0  0  0  0
  191.3780  175.3200  143.0960 N   0  0  0  0  0  2  0  0  0  0  0  0
  193.1110  170.9050  143.9700 C   0  0  0  0  0  0  0  0  0  0  0  0
  193.3230  172.7890  142.4490 C   0  0  0  0  0  2  0  0  0  0  0  0
  194.4000  173.7760  145.7560 O   0  0  0  0  0  0  0  0  0  0  0  0
  192.6960  169.5030  144.2340 C   0  0  0  0  0  1  0  0  0  0  0  0
  192.8760  171.4380  142.8070 N   0  0  0  0  0  0  0  0  0  0  0  0
  193.8440  173.0900  144.8580 C   0  0  0  0  0  0  0  0  0  0  0  0
  193.2770  173.7530  143.6410 C   0  0  2  0  0  3  0  0  0  0  0  0
  193.7050  171.6780  145.0160 N   0  0  0  0  0  2  0  0  0  0  0  0
  1 14  1  0  0  0  0
  2  5  1  6  0  0  0
  2  3  1  0  0  0  0
  3  7  2  0  0  0  0
  3 19  1  0  0  0  0
  4 11  1  0  0  0  0
  4 15  2  0  0  0  0
  6 17  1  0  0  0  0
  6  1  2  0  0  0  0
  7  4  1  0  0  0  0
  8 23  1  6  0  0  0
  8 13  1  0  0  0  0
  9  1  1  0  0  0  0
 10 19  1  0  0  0  0
 12  8  1  0  0  0  0
 13  2  1  0  0  0  0
 13 18  1  1  0  0  0
 14  5  2  0  0  0  0
 16 12  1  0  0  0  0
 16  5  1  0  0  0  0
 17 16  2  0  0  0  0
 18 10  1  0  0  0  0
 19 20  2  0  0  0  0
 20 15  1  0  0  0  0
 22 21  2  0  0  0  0
 23 22  1  0  0  0  0
 24 27  1  0  0  0  0
 24 31  1  0  0  0  0
 25 28  1  0  0  0  0
 25 30  1  0  0  0  0
 28 24  2  0  0  0  0
 29 31  1  0  0  0  0
 29 26  2  0  0  0  0
 30 22  1  1  0  0  0
 30 29  1  0  0  0  0
M  END
>  <MODEL>
9

>  <REMARK>
 VINA RESULT:      -7.7      2.737      4.849
  Name = 
  2 active torsions:
  status: ('A' for Active; 'I' for Inactive)
    1  A    between atoms: C_5  and  C_30
    2  A    between atoms: C_10  and  N_16
                            x       y       z     vdW  Elec       q    Type
                         _______ _______ _______ _____ _____    ______ ____

>  <TORSDO>
F 2

$$$$
