=
 OpenBabel11112416243D

 30 35  0  0  1  0  0  0  0  0999 V2000
  189.9670  175.7460  143.9320 C   0  0  2  0  0  3  0  0  0  0  0  0
  191.7370  175.0350  145.6290 C   0  0  0  0  0  0  0  0  0  0  0  0
  187.4720  176.6260  146.8320 O   0  0  0  0  0  0  0  0  0  0  0  0
  188.4700  176.1170  143.8990 C   0  0  2  0  0  3  0  0  0  0  0  0
  190.1280  174.5050  143.2900 O   0  0  0  0  0  0  0  0  0  0  0  0
  188.2000  174.8350  140.4440 O   0  0  0  0  0  0  0  0  0  0  0  0
  186.3590  178.1240  142.4620 C   0  0  2  0  0  3  0  0  0  0  0  0
  188.6780  175.1650  141.5200 C   0  0  0  0  0  0  0  0  0  0  0  0
  185.8080  177.4150  143.6770 C   0  0  2  0  0  3  0  0  0  0  0  0
  186.3410  176.9670  146.1190 C   0  0  0  0  0  0  0  0  0  0  0  0
  190.0790  174.7580  141.9090 C   0  0  2  0  0  3  0  0  0  0  0  0
  187.8920  176.0530  142.4490 C   0  0  2  0  0  3  0  0  0  0  0  0
  192.2100  174.9980  146.9020 N   0  0  0  0  0  0  0  0  0  0  0  0
  184.4470  177.8980  143.8540 N   0  0  0  0  0  2  0  0  0  0  0  0
  185.1640  178.2450  141.5640 C   0  0  0  0  0  2  0  0  0  0  0  0
  192.5130  174.4390  144.5930 N   0  0  0  0  0  1  0  0  0  0  0  0
  188.6120  177.1670  146.1850 C   0  0  2  0  0  3  0  0  0  0  0  0
  191.5530  175.5880  147.9320 C   0  0  0  0  0  3  0  0  0  0  0  0
  190.5090  175.6770  145.3450 C   0  0  0  0  0  0  0  0  0  0  0  0
  188.1870  177.4020  144.7230 C   0  0  2  0  0  3  0  0  0  0  0  0
  185.1750  176.7080  146.5130 O   0  0  0  0  0  0  0  0  0  0  0  0
  186.6800  177.7260  144.8900 C   0  0  1  0  0  3  0  0  0  0  0  0
  183.9810  178.2710  142.5180 C   0  0  0  0  0  2  0  0  0  0  0  0
  188.7210  178.3160  141.6430 C   0  0  0  0  0  1  0  0  0  0  0  0
  190.3660  176.2760  147.6970 C   0  0  0  0  0  3  0  0  0  0  0  0
  189.8450  176.3360  146.4030 C   0  0  0  0  0  0  0  0  0  0  0  0
  187.5210  177.3920  141.7830 C   0  0  2  0  0  3  0  0  0  0  0  0
  190.5370  173.5210  141.1510 C   0  0  0  0  0  2  0  0  0  0  0  0
  189.7370  171.4730  142.0540 O   0  0  0  0  0  1  0  0  0  0  0  0
  190.7940  172.3800  142.1160 C   0  0  0  0  0  2  0  0  0  0  0  0
  1  5  1  1  0  0  0
  1 19  1  0  0  0  0
  2 13  1  0  0  0  0
  4  1  1  0  0  0  0
  4 20  1  0  0  0  0
  6  8  2  0  0  0  0
  7  9  1  0  0  0  0
  8 11  1  0  0  0  0
  8 12  1  0  0  0  0
  9 14  1  0  0  0  0
  9 22  1  0  0  0  0
 10 21  2  0  0  0  0
 10  3  1  0  0  0  0
 11  5  1  0  0  0  0
 12  4  1  0  0  0  0
 13 18  2  0  0  0  0
 15  7  1  0  0  0  0
 15 23  1  0  0  0  0
 16  2  1  0  0  0  0
 17 26  1  0  0  0  0
 17  3  1  0  0  0  0
 19  2  2  0  0  0  0
 19 26  1  0  0  0  0
 20 22  1  0  0  0  0
 20 17  1  0  0  0  0
 22 10  1  0  0  0  0
 23 14  1  0  0  0  0
 24 27  1  0  0  0  0
 25 18  1  0  0  0  0
 26 25  2  0  0  0  0
 27 12  1  0  0  0  0
 27  7  1  0  0  0  0
 28 11  1  0  0  0  0
 28 30  1  0  0  0  0
 29 30  1  0  0  0  0
M  END
>  <MODEL>
1

>  <REMARK>
 VINA RESULT:      -8.5      0.000      0.000
  Name = 
  2 active torsions:
  status: ('A' for Active; 'I' for Inactive)
    1  A    between atoms: C_11  and  C_28
    2  A    between atoms: C_28  and  C_30
                            x       y       z     vdW  Elec       q    Type
                         _______ _______ _______ _____ _____    ______ ____

>  <TORSDO>
F 2

$$$$
=
 OpenBabel11112416243D

 30 35  0  0  1  0  0  0  0  0999 V2000
  186.9450  177.2810  143.9060 C   0  0  2  0  0  3  0  0  0  0  0  0
  184.9640  178.2990  142.6550 C   0  0  0  0  0  0  0  0  0  0  0  0
  187.9510  175.2130  140.7250 O   0  0  0  0  0  0  0  0  0  0  0  0
  187.9850  176.1590  143.7180 C   0  0  2  0  0  3  0  0  0  0  0  0
  186.0610  176.8980  144.9300 O   0  0  0  0  0  0  0  0  0  0  0  0
  188.1740  175.6870  147.3780 O   0  0  0  0  0  0  0  0  0  0  0  0
  191.1030  175.4370  144.2730 C   0  0  2  0  0  3  0  0  0  0  0  0
  187.8670  176.1440  146.2870 C   0  0  0  0  0  0  0  0  0  0  0  0
  190.4070  174.4850  143.3290 C   0  0  2  0  0  3  0  0  0  0  0  0
  189.0060  174.4690  141.2120 C   0  0  0  0  0  0  0  0  0  0  0  0
  186.7310  177.1270  146.1440 C   0  0  2  0  0  3  0  0  0  0  0  0
  188.6760  175.7820  145.0680 C   0  0  2  0  0  3  0  0  0  0  0  0
  184.2980  178.5540  141.4980 N   0  0  0  0  0  0  0  0  0  0  0  0
  191.4070  173.5110  142.9160 N   0  0  0  0  0  2  0  0  0  0  0  0
  192.0690  174.5510  145.0030 C   0  0  0  0  0  2  0  0  0  0  0  0
  184.4320  178.8020  143.8770 N   0  0  0  0  0  1  0  0  0  0  0  0
  188.0420  176.5360  141.2270 C   0  0  2  0  0  3  0  0  0  0  0  0
  184.7700  178.1520  140.2910 C   0  0  0  0  0  3  0  0  0  0  0  0
  186.1740  177.5660  142.6320 C   0  0  0  0  0  0  0  0  0  0  0  0
  188.9060  176.4370  142.5000 C   0  0  2  0  0  3  0  0  0  0  0  0
  189.2370  173.2860  140.8520 O   0  0  0  0  0  0  0  0  0  0  0  0
  189.8500  175.2610  142.1400 C   0  0  1  0  0  3  0  0  0  0  0  0
  192.3620  173.4290  144.0210 C   0  0  0  0  0  2  0  0  0  0  0  0
  190.3700  177.6760  145.1310 C   0  0  0  0  0  1  0  0  0  0  0  0
  185.9820  177.4730  140.2110 C   0  0  0  0  0  3  0  0  0  0  0  0
  186.6970  177.1890  141.3760 C   0  0  0  0  0  0  0  0  0  0  0  0
  190.1580  176.1730  145.2290 C   0  0  2  0  0  3  0  0  0  0  0  0
  185.7420  177.0170  147.2960 C   0  0  0  0  0  2  0  0  0  0  0  0
  185.7900  179.3920  147.2220 O   0  0  0  0  0  1  0  0  0  0  0  0
  184.9480  178.3010  147.4290 C   0  0  0  0  0  2  0  0  0  0  0  0
  1 19  1  6  0  0  0
  1  5  1  0  0  0  0
  2 16  1  0  0  0  0
  3 10  1  0  0  0  0
  3 17  1  0  0  0  0
  4  1  1  0  0  0  0
  4 12  1  0  0  0  0
  5 11  1  0  0  0  0
  7 15  1  0  0  0  0
  7 27  1  0  0  0  0
  8  6  2  0  0  0  0
  9  7  1  0  0  0  0
 10 22  1  0  0  0  0
 11  8  1  0  0  0  0
 11 28  1  0  0  0  0
 12 27  1  0  0  0  0
 12  8  1  0  0  0  0
 13  2  2  0  0  0  0
 14  9  1  0  0  0  0
 14 23  1  0  0  0  0
 17 26  1  0  0  0  0
 17 20  1  0  0  0  0
 18 13  1  0  0  0  0
 19  2  1  0  0  0  0
 20  4  1  0  0  0  0
 21 10  2  0  0  0  0
 22 20  1  0  0  0  0
 22  9  1  0  0  0  0
 23 15  1  0  0  0  0
 24 27  1  0  0  0  0
 25 18  2  0  0  0  0
 25 26  1  0  0  0  0
 26 19  2  0  0  0  0
 28 30  1  0  0  0  0
 29 30  1  0  0  0  0
M  END
>  <MODEL>
2

>  <REMARK>
 VINA RESULT:      -8.5      1.716      6.986
  Name = 
  2 active torsions:
  status: ('A' for Active; 'I' for Inactive)
    1  A    between atoms: C_11  and  C_28
    2  A    between atoms: C_28  and  C_30
                            x       y       z     vdW  Elec       q    Type
                         _______ _______ _______ _____ _____    ______ ____

>  <TORSDO>
F 2

$$$$
=
 OpenBabel11112416243D

 30 35  0  0  1  0  0  0  0  0999 V2000
  189.5450  174.9040  144.6590 C   0  0  2  0  0  3  0  0  0  0  0  0
  190.7330  172.8900  143.6320 C   0  0  0  0  0  0  0  0  0  0  0  0
  187.9600  175.8030  141.1820 O   0  0  0  0  0  0  0  0  0  0  0  0
  188.7530  176.1450  144.2010 C   0  0  2  0  0  3  0  0  0  0  0  0
  190.7820  175.3330  145.1710 O   0  0  0  0  0  0  0  0  0  0  0  0
  189.9180  178.0160  147.1660 O   0  0  0  0  0  0  0  0  0  0  0  0
  186.2240  178.0150  145.0120 C   0  0  2  0  0  3  0  0  0  0  0  0
  189.7360  177.1020  146.3750 C   0  0  0  0  0  0  0  0  0  0  0  0
  186.7360  178.2420  143.6090 C   0  0  2  0  0  3  0  0  0  0  0  0
  187.3070  176.9800  141.4820 C   0  0  0  0  0  0  0  0  0  0  0  0
  190.5320  175.8230  146.4640 C   0  0  2  0  0  3  0  0  0  0  0  0
  188.6530  177.2160  145.3340 C   0  0  2  0  0  3  0  0  0  0  0  0
  190.9000  172.0060  142.6140 N   0  0  0  0  0  0  0  0  0  0  0  0
  185.8750  179.2550  143.0170 N   0  0  0  0  0  2  0  0  0  0  0  0
  185.7640  179.3780  145.4350 C   0  0  0  0  0  2  0  0  0  0  0  0
  191.5350  172.7480  144.8010 N   0  0  0  0  0  1  0  0  0  0  0  0
  187.7790  174.8850  142.2480 C   0  0  2  0  0  3  0  0  0  0  0  0
  190.1380  172.0470  141.4920 C   0  0  0  0  0  3  0  0  0  0  0  0
  189.7620  173.9140  143.5320 C   0  0  0  0  0  0  0  0  0  0  0  0
  187.4370  175.7440  143.4810 C   0  0  2  0  0  3  0  0  0  0  0  0
  187.2130  177.9390  140.6720 O   0  0  0  0  0  0  0  0  0  0  0  0
  186.6860  176.9330  142.8280 C   0  0  1  0  0  3  0  0  0  0  0  0
  185.3890  180.0660  144.1330 C   0  0  0  0  0  2  0  0  0  0  0  0
  186.7350  176.1700  146.6320 C   0  0  0  0  0  1  0  0  0  0  0  0
  189.1350  173.0040  141.3670 C   0  0  0  0  0  3  0  0  0  0  0  0
  188.9320  173.9320  142.3890 C   0  0  0  0  0  0  0  0  0  0  0  0
  187.2670  177.4330  145.9720 C   0  0  2  0  0  3  0  0  0  0  0  0
  191.8540  176.0310  147.1900 C   0  0  0  0  0  2  0  0  0  0  0  0
  194.0460  176.8340  146.7470 O   0  0  0  0  0  1  0  0  0  0  0  0
  192.9930  176.1070  146.1940 C   0  0  0  0  0  2  0  0  0  0  0  0
  1 19  1  6  0  0  0
  1  5  1  0  0  0  0
  2 16  1  0  0  0  0
  3 10  1  0  0  0  0
  3 17  1  0  0  0  0
  4  1  1  0  0  0  0
  4 12  1  0  0  0  0
  5 11  1  0  0  0  0
  7 15  1  0  0  0  0
  7 27  1  0  0  0  0
  8 11  1  0  0  0  0
  8  6  2  0  0  0  0
  9  7  1  0  0  0  0
 10 22  1  0  0  0  0
 11 28  1  0  0  0  0
 12 27  1  0  0  0  0
 12  8  1  0  0  0  0
 13  2  2  0  0  0  0
 14  9  1  0  0  0  0
 14 23  1  0  0  0  0
 17 26  1  0  0  0  0
 17 20  1  0  0  0  0
 18 13  1  0  0  0  0
 19  2  1  0  0  0  0
 20  4  1  0  0  0  0
 21 10  2  0  0  0  0
 22 20  1  0  0  0  0
 22  9  1  0  0  0  0
 23 15  1  0  0  0  0
 25 18  2  0  0  0  0
 25 26  1  0  0  0  0
 26 19  2  0  0  0  0
 27 24  1  0  0  0  0
 30 29  1  0  0  0  0
 30 28  1  0  0  0  0
M  END
>  <MODEL>
3

>  <REMARK>
 VINA RESULT:      -8.5      2.002      4.723
  Name = 
  2 active torsions:
  status: ('A' for Active; 'I' for Inactive)
    1  A    between atoms: C_11  and  C_28
    2  A    between atoms: C_28  and  C_30
                            x       y       z     vdW  Elec       q    Type
                         _______ _______ _______ _____ _____    ______ ____

>  <TORSDO>
F 2

$$$$
=
 OpenBabel11112416243D

 30 35  0  0  1  0  0  0  0  0999 V2000
  186.5670  177.1570  143.6460 C   0  0  2  0  0  3  0  0  0  0  0  0
  185.2620  178.4030  145.4540 C   0  0  0  0  0  0  0  0  0  0  0  0
  189.8380  177.3470  145.8080 O   0  0  0  0  0  0  0  0  0  0  0  0
  188.0280  176.8050  143.3000 C   0  0  2  0  0  3  0  0  0  0  0  0
  186.1060  178.0990  142.7080 O   0  0  0  0  0  0  0  0  0  0  0  0
  187.2070  176.8140  139.6980 O   0  0  0  0  0  0  0  0  0  0  0  0
  189.8660  174.4350  142.0530 C   0  0  2  0  0  3  0  0  0  0  0  0
  187.0780  176.8740  140.9120 C   0  0  0  0  0  0  0  0  0  0  0  0
  190.6500  175.5240  142.7490 C   0  0  2  0  0  3  0  0  0  0  0  0
  190.7600  176.7860  144.9490 C   0  0  0  0  0  0  0  0  0  0  0  0
  185.8020  177.3840  141.5380 C   0  0  2  0  0  3  0  0  0  0  0  0
  188.1780  176.3670  141.8080 C   0  0  2  0  0  3  0  0  0  0  0  0
  185.1540  178.8760  146.7230 N   0  0  0  0  0  0  0  0  0  0  0  0
  192.0500  175.1380  142.6680 N   0  0  0  0  0  2  0  0  0  0  0  0
  190.7760  174.0170  140.9370 C   0  0  0  0  0  2  0  0  0  0  0  0
  184.1750  178.6000  144.5540 N   0  0  0  0  0  1  0  0  0  0  0  0
  188.6280  176.6100  145.7400 C   0  0  2  0  0  3  0  0  0  0  0  0
  186.1260  178.6810  147.6490 C   0  0  0  0  0  3  0  0  0  0  0  0
  186.4270  177.7090  145.0510 C   0  0  0  0  0  0  0  0  0  0  0  0
  188.6590  175.8860  144.3800 C   0  0  2  0  0  3  0  0  0  0  0  0
  191.9550  177.1720  144.8760 O   0  0  0  0  0  0  0  0  0  0  0  0
  190.1800  175.6470  144.1950 C   0  0  1  0  0  3  0  0  0  0  0  0
  192.1700  174.3290  141.4550 C   0  0  0  0  0  2  0  0  0  0  0  0
  187.4040  173.9610  142.0730 C   0  0  0  0  0  1  0  0  0  0  0  0
  187.2700  177.9600  147.3170 C   0  0  0  0  0  3  0  0  0  0  0  0
  187.4200  177.4590  146.0230 C   0  0  0  0  0  0  0  0  0  0  0  0
  188.4920  174.8820  141.5430 C   0  0  2  0  0  3  0  0  0  0  0  0
  185.0260  178.2800  140.5840 C   0  0  0  0  0  2  0  0  0  0  0  0
  182.8150  177.6700  139.9600 O   0  0  0  0  0  1  0  0  0  0  0  0
  183.5570  178.2970  140.9590 C   0  0  0  0  0  2  0  0  0  0  0  0
  1  5  1  6  0  0  0
  1 19  1  0  0  0  0
  2 13  1  0  0  0  0
  4  1  1  0  0  0  0
  4 20  1  0  0  0  0
  6  8  2  0  0  0  0
  7  9  1  0  0  0  0
  8 11  1  0  0  0  0
  8 12  1  0  0  0  0
  9 22  1  0  0  0  0
 10  3  1  0  0  0  0
 11  5  1  0  0  0  0
 12  4  1  0  0  0  0
 13 18  2  0  0  0  0
 14  9  1  0  0  0  0
 15 23  1  0  0  0  0
 15  7  1  0  0  0  0
 16  2  1  0  0  0  0
 17  3  1  0  0  0  0
 17 26  1  0  0  0  0
 19  2  2  0  0  0  0
 19 26  1  0  0  0  0
 20 17  1  0  0  0  0
 21 10  2  0  0  0  0
 22 20  1  0  0  0  0
 22 10  1  0  0  0  0
 23 14  1  0  0  0  0
 25 18  1  0  0  0  0
 26 25  2  0  0  0  0
 27 12  1  0  0  0  0
 27  7  1  0  0  0  0
 27 24  1  0  0  0  0
 28 30  1  0  0  0  0
 28 11  1  0  0  0  0
 29 30  1  0  0  0  0
M  END
>  <MODEL>
4

>  <REMARK>
 VINA RESULT:      -8.3      2.262      5.711
  Name = 
  2 active torsions:
  status: ('A' for Active; 'I' for Inactive)
    1  A    between atoms: C_11  and  C_28
    2  A    between atoms: C_28  and  C_30
                            x       y       z     vdW  Elec       q    Type
                         _______ _______ _______ _____ _____    ______ ____

>  <TORSDO>
F 2

$$$$
=
 OpenBabel11112416243D

 30 35  0  0  1  0  0  0  0  0999 V2000
  191.2790  174.8580  144.3050 C   0  0  2  0  0  3  0  0  0  0  0  0
  192.5090  173.6530  142.4190 C   0  0  0  0  0  0  0  0  0  0  0  0
  188.5920  176.1840  141.7700 O   0  0  0  0  0  0  0  0  0  0  0  0
  190.1460  175.8880  144.4820 C   0  0  2  0  0  3  0  0  0  0  0  0
  192.4930  175.4710  144.6630 O   0  0  0  0  0  0  0  0  0  0  0  0
  191.7080  177.1140  147.5970 O   0  0  0  0  0  0  0  0  0  0  0  0
  187.6320  176.6280  146.4010 C   0  0  2  0  0  3  0  0  0  0  0  0
  191.4990  176.4450  146.5950 C   0  0  0  0  0  0  0  0  0  0  0  0
  187.6500  177.3780  145.0900 C   0  0  2  0  0  3  0  0  0  0  0  0
  187.8240  176.9850  142.5880 C   0  0  0  0  0  0  0  0  0  0  0  0
  192.5360  175.4850  146.0670 C   0  0  2  0  0  3  0  0  0  0  0  0
  190.1590  176.5220  145.9100 C   0  0  2  0  0  3  0  0  0  0  0  0
  192.5520  173.1780  141.1470 N   0  0  0  0  0  0  0  0  0  0  0  0
  186.4600  178.2160  145.0800 N   0  0  0  0  0  2  0  0  0  0  0  0
  187.0410  177.6210  147.3570 C   0  0  0  0  0  2  0  0  0  0  0  0
  193.6300  173.4320  143.2710 N   0  0  0  0  0  1  0  0  0  0  0  0
  188.9290  174.9940  142.4640 C   0  0  2  0  0  3  0  0  0  0  0  0
  191.5040  173.3050  140.2950 C   0  0  0  0  0  3  0  0  0  0  0  0
  191.3590  174.3320  142.8860 C   0  0  0  0  0  0  0  0  0  0  0  0
  188.7920  175.3350  143.9600 C   0  0  2  0  0  3  0  0  0  0  0  0
  187.2970  178.0600  142.2000 O   0  0  0  0  0  0  0  0  0  0  0  0
  187.6500  176.3840  143.9330 C   0  0  1  0  0  3  0  0  0  0  0  0
  186.1650  178.5030  146.4840 C   0  0  0  0  0  2  0  0  0  0  0  0
  188.9710  174.6400  147.1360 C   0  0  0  0  0  1  0  0  0  0  0  0
  190.3310  173.9190  140.7220 C   0  0  0  0  0  3  0  0  0  0  0  0
  190.2460  174.4230  142.0210 C   0  0  0  0  0  0  0  0  0  0  0  0
  189.0090  176.1350  146.8580 C   0  0  2  0  0  3  0  0  0  0  0  0
  193.9380  175.8610  146.5260 C   0  0  0  0  0  2  0  0  0  0  0  0
  194.9120  177.9030  145.7970 O   0  0  0  0  0  1  0  0  0  0  0  0
  194.6770  176.5830  145.4160 C   0  0  0  0  0  2  0  0  0  0  0  0
  1 19  1  6  0  0  0
  1  4  1  0  0  0  0
  1  5  1  0  0  0  0
  2 19  1  0  0  0  0
  2 16  1  0  0  0  0
  3 17  1  0  0  0  0
  3 10  1  0  0  0  0
  4 12  1  0  0  0  0
  5 11  1  0  0  0  0
  7 27  1  0  0  0  0
  7 15  1  0  0  0  0
  8  6  2  0  0  0  0
  9  7  1  0  0  0  0
 10 22  1  0  0  0  0
 11 28  1  0  0  0  0
 11  8  1  0  0  0  0
 12  8  1  0  0  0  0
 12 27  1  0  0  0  0
 13  2  2  0  0  0  0
 14  9  1  0  0  0  0
 14 23  1  0  0  0  0
 17 20  1  0  0  0  0
 18 25  2  0  0  0  0
 18 13  1  0  0  0  0
 20  4  1  0  0  0  0
 21 10  2  0  0  0  0
 22 20  1  0  0  0  0
 22  9  1  0  0  0  0
 23 15  1  0  0  0  0
 25 26  1  0  0  0  0
 26 17  1  0  0  0  0
 26 19  2  0  0  0  0
 27 24  1  0  0  0  0
 30 29  1  0  0  0  0
 30 28  1  0  0  0  0
M  END
>  <MODEL>
5

>  <REMARK>
 VINA RESULT:      -8.1      2.341      5.131
  Name = 
  2 active torsions:
  status: ('A' for Active; 'I' for Inactive)
    1  A    between atoms: C_11  and  C_28
    2  A    between atoms: C_28  and  C_30
                            x       y       z     vdW  Elec       q    Type
                         _______ _______ _______ _____ _____    ______ ____

>  <TORSDO>
F 2

$$$$
=
 OpenBabel11112416243D

 30 35  0  0  1  0  0  0  0  0999 V2000
  187.7050  175.9440  144.0910 C   0  0  2  0  0  3  0  0  0  0  0  0
  185.7970  177.4860  144.8000 C   0  0  0  0  0  0  0  0  0  0  0  0
  189.7820  176.9790  147.2570 O   0  0  0  0  0  0  0  0  0  0  0  0
  189.1680  175.6510  144.4790 C   0  0  2  0  0  3  0  0  0  0  0  0
  187.7000  176.5680  142.8310 O   0  0  0  0  0  0  0  0  0  0  0  0
  189.9220  174.6620  141.0000 O   0  0  0  0  0  0  0  0  0  0  0  0
  191.3010  173.2190  144.7810 C   0  0  2  0  0  3  0  0  0  0  0  0
  189.3010  175.0190  141.9910 C   0  0  0  0  0  0  0  0  0  0  0  0
  191.7500  174.5160  145.4120 C   0  0  2  0  0  3  0  0  0  0  0  0
  190.9640  176.3040  147.0350 C   0  0  0  0  0  0  0  0  0  0  0  0
  187.8940  175.5530  141.8800 C   0  0  2  0  0  3  0  0  0  0  0  0
  189.9150  174.8600  143.3580 C   0  0  2  0  0  3  0  0  0  0  0  0
  185.1820  178.2560  145.7360 N   0  0  0  0  0  0  0  0  0  0  0  0
  193.0470  174.2520  146.0160 N   0  0  0  0  0  2  0  0  0  0  0  0
  192.5830  172.6140  144.2910 C   0  0  0  0  0  2  0  0  0  0  0  0
  185.1880  177.3460  143.5200 N   0  0  0  0  0  1  0  0  0  0  0  0
  188.6930  176.1420  146.9050 C   0  0  2  0  0  3  0  0  0  0  0  0
  185.6750  178.3950  146.9920 C   0  0  0  0  0  3  0  0  0  0  0  0
  187.0070  176.8210  145.1110 C   0  0  0  0  0  0  0  0  0  0  0  0
  189.2700  175.1000  145.9270 C   0  0  2  0  0  3  0  0  0  0  0  0
  192.0900  176.7660  147.3530 O   0  0  0  0  0  0  0  0  0  0  0  0
  190.7240  174.9620  146.4490 C   0  0  1  0  0  3  0  0  0  0  0  0
  193.6410  173.1740  145.2260 C   0  0  0  0  0  2  0  0  0  0  0  0
  189.0430  172.5420  143.9250 C   0  0  0  0  0  1  0  0  0  0  0  0
  186.8350  177.7210  147.3620 C   0  0  0  0  0  3  0  0  0  0  0  0
  187.4990  176.9210  146.4310 C   0  0  0  0  0  0  0  0  0  0  0  0
  190.2750  173.3920  143.6560 C   0  0  2  0  0  3  0  0  0  0  0  0
  187.6070  176.1000  140.4890 C   0  0  0  0  0  2  0  0  0  0  0  0
  185.8440  177.6460  140.1010 O   0  0  0  0  0  1  0  0  0  0  0  0
  187.1490  177.5430  140.5780 C   0  0  0  0  0  2  0  0  0  0  0  0
  1  5  1  6  0  0  0
  1  4  1  0  0  0  0
  1 19  1  0  0  0  0
  2 19  2  0  0  0  0
  2 13  1  0  0  0  0
  4 20  1  0  0  0  0
  6  8  2  0  0  0  0
  7  9  1  0  0  0  0
  8 12  1  0  0  0  0
  9 14  1  0  0  0  0
  9 22  1  0  0  0  0
 10  3  1  0  0  0  0
 10 21  2  0  0  0  0
 11  8  1  0  0  0  0
 11  5  1  0  0  0  0
 12 27  1  0  0  0  0
 12  4  1  0  0  0  0
 13 18  2  0  0  0  0
 15  7  1  0  0  0  0
 15 23  1  0  0  0  0
 16  2  1  0  0  0  0
 17  3  1  0  0  0  0
 18 25  1  0  0  0  0
 19 26  1  0  0  0  0
 20 22  1  0  0  0  0
 20 17  1  0  0  0  0
 22 10  1  0  0  0  0
 23 14  1  0  0  0  0
 26 17  1  0  0  0  0
 26 25  2  0  0  0  0
 27 24  1  0  0  0  0
 27  7  1  0  0  0  0
 28 30  1  0  0  0  0
 28 11  1  0  0  0  0
 29 30  1  0  0  0  0
M  END
>  <MODEL>
6

>  <REMARK>
 VINA RESULT:      -7.9      1.946      5.725
  Name = 
  2 active torsions:
  status: ('A' for Active; 'I' for Inactive)
    1  A    between atoms: C_11  and  C_28
    2  A    between atoms: C_28  and  C_30
                            x       y       z     vdW  Elec       q    Type
                         _______ _______ _______ _____ _____    ______ ____

>  <TORSDO>
F 2

$$$$
=
 OpenBabel11112416243D

 30 35  0  0  1  0  0  0  0  0999 V2000
  191.2340  175.5020  142.4530 C   0  0  2  0  0  3  0  0  0  0  0  0
  193.6600  174.9470  141.8800 C   0  0  0  0  0  0  0  0  0  0  0  0
  192.2620  176.4140  146.1300 O   0  0  0  0  0  0  0  0  0  0  0  0
  190.3740  175.8080  143.6960 C   0  0  2  0  0  3  0  0  0  0  0  0
  190.8600  174.2400  141.9580 O   0  0  0  0  0  0  0  0  0  0  0  0
  187.4100  174.3530  142.0380 O   0  0  0  0  0  0  0  0  0  0  0  0
  187.9020  177.6550  144.7090 C   0  0  2  0  0  3  0  0  0  0  0  0
  188.5500  174.7540  142.2220 C   0  0  0  0  0  0  0  0  0  0  0  0
  188.6670  176.9820  145.8240 C   0  0  2  0  0  3  0  0  0  0  0  0
  191.0310  176.6730  146.6960 C   0  0  0  0  0  0  0  0  0  0  0  0
  189.6600  174.4250  141.2530 C   0  0  2  0  0  3  0  0  0  0  0  0
  188.8490  175.6510  143.3950 C   0  0  2  0  0  3  0  0  0  0  0  0
  194.9860  174.9900  142.1730 N   0  0  0  0  0  0  0  0  0  0  0  0
  188.0490  177.4160  147.0680 N   0  0  0  0  0  2  0  0  0  0  0  0
  186.4940  177.6830  145.2270 C   0  0  0  0  0  2  0  0  0  0  0  0
  193.2470  174.3350  140.6610 N   0  0  0  0  0  1  0  0  0  0  0  0
  192.3030  176.9710  144.8270 C   0  0  2  0  0  3  0  0  0  0  0  0
  195.4570  175.6010  143.2890 C   0  0  0  0  0  3  0  0  0  0  0  0
  192.7170  175.5230  142.7640 C   0  0  0  0  0  0  0  0  0  0  0  0
  190.8320  177.1180  144.3930 C   0  0  2  0  0  3  0  0  0  0  0  0
  190.7480  176.3840  147.8880 O   0  0  0  0  0  0  0  0  0  0  0  0
  190.1360  177.3860  145.7520 C   0  0  1  0  0  3  0  0  0  0  0  0
  186.6530  177.7050  146.7380 C   0  0  0  0  0  2  0  0  0  0  0  0
  188.4800  177.9060  142.2830 C   0  0  0  0  0  1  0  0  0  0  0  0
  194.5750  176.2260  144.1650 C   0  0  0  0  0  3  0  0  0  0  0  0
  193.2040  176.2030  143.9010 C   0  0  0  0  0  0  0  0  0  0  0  0
  188.0060  176.9400  143.3580 C   0  0  2  0  0  3  0  0  0  0  0  0
  189.3490  173.1730  140.4450 C   0  0  0  0  0  2  0  0  0  0  0  0
  188.1270  174.2140  138.6930 O   0  0  0  0  0  1  0  0  0  0  0  0
  189.2940  173.5040  138.9660 C   0  0  0  0  0  2  0  0  0  0  0  0
  1  5  1  1  0  0  0
  1 19  1  0  0  0  0
  1  4  1  0  0  0  0
  2 13  2  0  0  0  0
  2 19  1  0  0  0  0
  3 10  1  0  0  0  0
  4 20  1  0  0  0  0
  6  8  2  0  0  0  0
  7 15  1  0  0  0  0
  7  9  1  0  0  0  0
  8 12  1  0  0  0  0
  9 14  1  0  0  0  0
 10 21  2  0  0  0  0
 11  5  1  0  0  0  0
 11  8  1  0  0  0  0
 12  4  1  0  0  0  0
 13 18  1  0  0  0  0
 15 23  1  0  0  0  0
 16  2  1  0  0  0  0
 17  3  1  0  0  0  0
 18 25  2  0  0  0  0
 19 26  2  0  0  0  0
 20 17  1  0  0  0  0
 20 22  1  0  0  0  0
 22  9  1  0  0  0  0
 22 10  1  0  0  0  0
 23 14  1  0  0  0  0
 24 27  1  0  0  0  0
 26 25  1  0  0  0  0
 26 17  1  0  0  0  0
 27 12  1  0  0  0  0
 27  7  1  0  0  0  0
 28 11  1  0  0  0  0
 29 30  1  0  0  0  0
 30 28  1  0  0  0  0
M  END
>  <MODEL>
7

>  <REMARK>
 VINA RESULT:      -7.6      2.430      3.726
  Name = 
  2 active torsions:
  status: ('A' for Active; 'I' for Inactive)
    1  A    between atoms: C_11  and  C_28
    2  A    between atoms: C_28  and  C_30
                            x       y       z     vdW  Elec       q    Type
                         _______ _______ _______ _____ _____    ______ ____

>  <TORSDO>
F 2

$$$$
=
 OpenBabel11112416243D

 30 35  0  0  1  0  0  0  0  0999 V2000
  188.6830  177.4250  145.8640 C   0  0  2  0  0  3  0  0  0  0  0  0
  186.5380  178.3000  146.9380 C   0  0  0  0  0  0  0  0  0  0  0  0
  186.6020  175.5800  143.0950 O   0  0  0  0  0  0  0  0  0  0  0  0
  189.1130  176.4120  144.7840 C   0  0  2  0  0  3  0  0  0  0  0  0
  189.0700  176.9230  147.1190 O   0  0  0  0  0  0  0  0  0  0  0  0
  192.2960  175.8220  146.5660 O   0  0  0  0  0  0  0  0  0  0  0  0
  191.2880  175.9620  142.4130 C   0  0  2  0  0  3  0  0  0  0  0  0
  191.2050  176.2900  146.2750 C   0  0  0  0  0  0  0  0  0  0  0  0
  190.1350  174.9860  142.3880 C   0  0  2  0  0  3  0  0  0  0  0  0
  187.5970  174.9190  142.4060 C   0  0  0  0  0  0  0  0  0  0  0  0
  190.4480  177.1670  147.2420 C   0  0  2  0  0  3  0  0  0  0  0  0
  190.6290  176.0510  144.9030 C   0  0  2  0  0  3  0  0  0  0  0  0
  185.2010  178.5360  146.8900 N   0  0  0  0  0  0  0  0  0  0  0  0
  190.3510  174.1260  141.2340 N   0  0  0  0  0  2  0  0  0  0  0  0
  192.4430  175.1440  141.9170 C   0  0  0  0  0  2  0  0  0  0  0  0
  187.2640  178.7060  148.0940 N   0  0  0  0  0  1  0  0  0  0  0  0
  187.0470  176.8860  143.4220 C   0  0  2  0  0  3  0  0  0  0  0  0
  184.4520  178.2250  145.8020 C   0  0  0  0  0  3  0  0  0  0  0  0
  187.1900  177.6850  145.8430 C   0  0  0  0  0  0  0  0  0  0  0  0
  188.5860  176.8200  143.3820 C   0  0  2  0  0  3  0  0  0  0  0  0
  187.4430  173.7770  141.9020 O   0  0  0  0  0  0  0  0  0  0  0  0
  188.8200  175.7510  142.2840 C   0  0  1  0  0  3  0  0  0  0  0  0
  191.7990  174.0920  141.0290 C   0  0  0  0  0  2  0  0  0  0  0  0
  191.5670  178.0900  143.7110 C   0  0  0  0  0  1  0  0  0  0  0  0
  185.0560  177.6650  144.6800 C   0  0  0  0  0  3  0  0  0  0  0  0
  186.4280  177.4050  144.6890 C   0  0  0  0  0  0  0  0  0  0  0  0
  191.5620  176.5710  143.7930 C   0  0  2  0  0  3  0  0  0  0  0  0
  190.8790  176.9230  148.6810 C   0  0  0  0  0  2  0  0  0  0  0  0
  191.5670  177.9980  150.6860 O   0  0  0  0  0  1  0  0  0  0  0  0
  191.1920  178.2390  149.3650 C   0  0  0  0  0  2  0  0  0  0  0  0
  1 19  1  1  0  0  0
  1  5  1  0  0  0  0
  2 16  1  0  0  0  0
  3 17  1  0  0  0  0
  4 12  1  0  0  0  0
  4  1  1  0  0  0  0
  5 11  1  0  0  0  0
  7 27  1  0  0  0  0
  8  6  2  0  0  0  0
  8 11  1  0  0  0  0
  9  7  1  0  0  0  0
 10  3  1  0  0  0  0
 11 28  1  0  0  0  0
 12  8  1  0  0  0  0
 13  2  1  0  0  0  0
 14  9  1  0  0  0  0
 15  7  1  0  0  0  0
 17 26  1  0  0  0  0
 18 13  2  0  0  0  0
 19  2  2  0  0  0  0
 20 17  1  0  0  0  0
 20  4  1  0  0  0  0
 21 10  2  0  0  0  0
 22  9  1  0  0  0  0
 22 10  1  0  0  0  0
 22 20  1  0  0  0  0
 23 14  1  0  0  0  0
 23 15  1  0  0  0  0
 24 27  1  0  0  0  0
 25 26  2  0  0  0  0
 25 18  1  0  0  0  0
 26 19  1  0  0  0  0
 27 12  1  0  0  0  0
 28 30  1  0  0  0  0
 30 29  1  0  0  0  0
M  END
>  <MODEL>
8

>  <REMARK>
 VINA RESULT:      -7.3      2.394      6.104
  Name = 
  2 active torsions:
  status: ('A' for Active; 'I' for Inactive)
    1  A    between atoms: C_11  and  C_28
    2  A    between atoms: C_28  and  C_30
                            x       y       z     vdW  Elec       q    Type
                         _______ _______ _______ _____ _____    ______ ____

>  <TORSDO>
F 2

$$$$
=
 OpenBabel11112416243D

 30 35  0  0  1  0  0  0  0  0999 V2000
  189.0890  176.7160  145.2270 C   0  0  2  0  0  3  0  0  0  0  0  0
  186.9440  177.7690  146.1280 C   0  0  0  0  0  0  0  0  0  0  0  0
  187.0650  174.9060  142.3910 O   0  0  0  0  0  0  0  0  0  0  0  0
  189.5160  175.6370  144.2120 C   0  0  2  0  0  3  0  0  0  0  0  0
  189.3610  176.2380  146.5210 O   0  0  0  0  0  0  0  0  0  0  0  0
  192.5330  174.9090  146.2160 O   0  0  0  0  0  0  0  0  0  0  0  0
  191.8000  174.9570  142.0040 C   0  0  2  0  0  3  0  0  0  0  0  0
  191.4970  175.4350  145.8380 C   0  0  0  0  0  0  0  0  0  0  0  0
  190.5880  174.0580  141.9360 C   0  0  2  0  0  3  0  0  0  0  0  0
  188.0550  174.1570  141.7920 C   0  0  0  0  0  0  0  0  0  0  0  0
  190.7420  176.3960  146.7240 C   0  0  2  0  0  3  0  0  0  0  0  0
  190.9930  175.1820  144.4410 C   0  0  2  0  0  3  0  0  0  0  0  0
  185.6310  178.0890  145.9860 N   0  0  0  0  0  0  0  0  0  0  0  0
  190.8170  173.1420  140.8290 N   0  0  0  0  0  2  0  0  0  0  0  0
  192.9250  174.0470  141.6110 C   0  0  0  0  0  2  0  0  0  0  0  0
  187.6220  178.1700  147.3150 N   0  0  0  0  0  1  0  0  0  0  0  0
  187.5760  176.1920  142.7030 C   0  0  2  0  0  3  0  0  0  0  0  0
  184.9330  177.7870  144.8620 C   0  0  0  0  0  3  0  0  0  0  0  0
  187.6210  177.0710  145.1000 C   0  0  0  0  0  0  0  0  0  0  0  0
  189.1060  176.0250  142.7660 C   0  0  2  0  0  3  0  0  0  0  0  0
  187.8560  173.0090  141.3170 O   0  0  0  0  0  0  0  0  0  0  0  0
  189.3360  174.9020  141.7210 C   0  0  1  0  0  3  0  0  0  0  0  0
  192.2690  173.0060  140.7200 C   0  0  0  0  0  2  0  0  0  0  0  0
  192.1390  177.1090  143.2440 C   0  0  0  0  0  1  0  0  0  0  0  0
  185.5670  177.1460  143.8020 C   0  0  0  0  0  3  0  0  0  0  0  0
  186.9150  176.7980  143.9080 C   0  0  0  0  0  0  0  0  0  0  0  0
  192.0270  175.5980  143.3770 C   0  0  2  0  0  3  0  0  0  0  0  0
  191.0650  176.1790  148.1960 C   0  0  0  0  0  2  0  0  0  0  0  0
  190.5540  178.4270  148.7730 O   0  0  0  0  0  1  0  0  0  0  0  0
  191.5640  177.4680  148.8190 C   0  0  0  0  0  2  0  0  0  0  0  0
  1 19  1  1  0  0  0
  1  5  1  0  0  0  0
  2 16  1  0  0  0  0
  3 17  1  0  0  0  0
  4 12  1  0  0  0  0
  4  1  1  0  0  0  0
  5 11  1  0  0  0  0
  7 27  1  0  0  0  0
  8  6  2  0  0  0  0
  8 11  1  0  0  0  0
  9  7  1  0  0  0  0
 10  3  1  0  0  0  0
 11 28  1  0  0  0  0
 12  8  1  0  0  0  0
 13  2  1  0  0  0  0
 14  9  1  0  0  0  0
 15  7  1  0  0  0  0
 17 20  1  0  0  0  0
 17 26  1  0  0  0  0
 18 13  2  0  0  0  0
 19  2  2  0  0  0  0
 20  4  1  0  0  0  0
 21 10  2  0  0  0  0
 22 10  1  0  0  0  0
 22  9  1  0  0  0  0
 22 20  1  0  0  0  0
 23 14  1  0  0  0  0
 23 15  1  0  0  0  0
 24 27  1  0  0  0  0
 25 26  2  0  0  0  0
 25 18  1  0  0  0  0
 26 19  1  0  0  0  0
 27 12  1  0  0  0  0
 28 30  1  0  0  0  0
 29 30  1  0  0  0  0
M  END
>  <MODEL>
9

>  <REMARK>
 VINA RESULT:      -7.1      2.143      6.131
  Name = 
  2 active torsions:
  status: ('A' for Active; 'I' for Inactive)
    1  A    between atoms: C_11  and  C_28
    2  A    between atoms: C_28  and  C_30
                            x       y       z     vdW  Elec       q    Type
                         _______ _______ _______ _____ _____    ______ ____

>  <TORSDO>
F 2

$$$$
