=
 OpenBabel11112416253D

 30 35  0  0  1  0  0  0  0  0999 V2000
  189.5760  174.7060  144.4580 C   0  0  2  0  0  3  0  0  0  0  0  0
  190.5660  172.6290  143.3700 C   0  0  0  0  0  0  0  0  0  0  0  0
  187.7560  175.6670  140.9970 O   0  0  0  0  0  0  0  0  0  0  0  0
  188.9070  176.0150  144.0080 C   0  0  2  0  0  3  0  0  0  0  0  0
  190.8700  175.0110  144.9230 O   0  0  0  0  0  0  0  0  0  0  0  0
  190.4710  177.9080  146.7340 O   0  0  0  0  0  0  0  0  0  0  0  0
  186.4800  177.9180  144.9370 C   0  0  2  0  0  3  0  0  0  0  0  0
  190.1030  176.9660  146.0480 C   0  0  0  0  0  0  0  0  0  0  0  0
  186.8610  178.2560  143.5100 C   0  0  2  0  0  3  0  0  0  0  0  0
  187.3430  176.9290  141.3650 C   0  0  0  0  0  0  0  0  0  0  0  0
  190.7240  175.5960  146.1930 C   0  0  2  0  0  3  0  0  0  0  0  0
  188.9530  177.1360  145.0920 C   0  0  2  0  0  3  0  0  0  0  0  0
  190.6450  171.7190  142.3130 C   0  0  0  0  0  3  0  0  0  0  0  0
  185.6740  179.0450  143.0050 C   0  0  0  0  0  2  0  0  0  0  0  0
  185.7710  179.1470  145.4520 C   0  0  0  0  0  2  0  0  0  0  0  0
  191.3930  172.4390  144.4720 O   0  0  0  0  0  1  0  0  0  0  0  0
  187.6710  174.8220  142.1410 C   0  0  2  0  0  3  0  0  0  0  0  0
  189.8060  171.8480  141.2080 C   0  0  0  0  0  3  0  0  0  0  0  0
  189.6590  173.7130  143.3140 C   0  0  0  0  0  0  0  0  0  0  0  0
  187.5390  175.7760  143.3490 C   0  0  2  0  0  3  0  0  0  0  0  0
  187.2570  177.8960  140.5620 O   0  0  0  0  0  0  0  0  0  0  0  0
  187.0720  177.0250  142.7520 N   0  0  0  0  0  0  0  0  0  0  0  0
  185.1270  179.7780  144.2240 C   0  0  0  0  0  2  0  0  0  0  0  0
  187.1780  176.3040  146.7080 C   0  0  0  0  0  1  0  0  0  0  0  0
  188.8710  172.8790  141.1620 C   0  0  0  0  0  3  0  0  0  0  0  0
  188.7820  173.8090  142.2050 C   0  0  0  0  0  0  0  0  0  0  0  0
  187.6370  177.4630  145.8370 C   0  0  2  0  0  3  0  0  0  0  0  0
  192.0560  175.6540  146.8710 C   0  0  0  0  0  3  0  0  0  0  0  0
  194.3970  175.8340  146.8030 O   0  0  0  0  0  1  0  0  0  0  0  0
  193.1670  175.7810  146.1620 C   0  0  0  0  0  3  0  0  0  0  0  0
  1 19  1  6  0  0  0
  1  5  1  0  0  0  0
  2 16  1  0  0  0  0
  3 10  1  0  0  0  0
  3 17  1  0  0  0  0
  4  1  1  0  0  0  0
  4 12  1  0  0  0  0
  5 11  1  0  0  0  0
  7 15  1  0  0  0  0
  7 27  1  0  0  0  0
  8 11  1  0  0  0  0
  8  6  2  0  0  0  0
  9  7  1  0  0  0  0
 10 22  1  0  0  0  0
 11 28  1  0  0  0  0
 12 27  1  0  0  0  0
 12  8  1  0  0  0  0
 13  2  2  0  0  0  0
 14  9  1  0  0  0  0
 14 23  1  0  0  0  0
 17 26  1  0  0  0  0
 17 20  1  0  0  0  0
 18 13  1  0  0  0  0
 19  2  1  0  0  0  0
 20  4  1  0  0  0  0
 21 10  2  0  0  0  0
 22 20  1  0  0  0  0
 22  9  1  0  0  0  0
 23 15  1  0  0  0  0
 25 18  2  0  0  0  0
 25 26  1  0  0  0  0
 26 19  2  0  0  0  0
 27 24  1  0  0  0  0
 30 29  1  0  0  0  0
 30 28  2  0  0  0  0
M  END
>  <MODEL>
1

>  <REMARK>
 VINA RESULT:      -9.1      0.000      0.000
  Name = 
  1 active torsions:
  status: ('A' for Active; 'I' for Inactive)
    1  A    between atoms: C_11  and  C_28
                            x       y       z     vdW  Elec       q    Type
                         _______ _______ _______ _____ _____    ______ ____

>  <TORSDO>
F 1

$$$$
=
 OpenBabel11112416253D

 30 35  0  0  1  0  0  0  0  0999 V2000
  190.1440  174.9900  143.7520 C   0  0  2  0  0  3  0  0  0  0  0  0
  190.8230  173.6930  141.6700 C   0  0  0  0  0  0  0  0  0  0  0  0
  187.2630  176.8670  141.6580 O   0  0  0  0  0  0  0  0  0  0  0  0
  189.3070  176.2330  144.0930 C   0  0  2  0  0  3  0  0  0  0  0  0
  191.5040  175.3150  143.9260 O   0  0  0  0  0  0  0  0  0  0  0  0
  191.5790  177.1840  146.8120 O   0  0  0  0  0  0  0  0  0  0  0  0
  187.2260  177.1840  146.3610 C   0  0  2  0  0  3  0  0  0  0  0  0
  191.0530  176.5260  145.9270 C   0  0  0  0  0  0  0  0  0  0  0  0
  187.1100  178.1020  145.1610 C   0  0  2  0  0  3  0  0  0  0  0  0
  186.9330  177.8000  142.6170 C   0  0  0  0  0  0  0  0  0  0  0  0
  191.7490  175.3350  145.3090 C   0  0  2  0  0  3  0  0  0  0  0  0
  189.6490  176.8450  145.4870 C   0  0  2  0  0  3  0  0  0  0  0  0
  190.5980  173.2840  140.3540 C   0  0  0  0  0  3  0  0  0  0  0  0
  185.7880  178.8030  145.3800 C   0  0  0  0  0  2  0  0  0  0  0  0
  186.6660  177.9790  147.5150 C   0  0  0  0  0  2  0  0  0  0  0  0
  191.9700  173.2430  142.3170 O   0  0  0  0  0  1  0  0  0  0  0  0
  187.5900  175.6480  142.3190 C   0  0  2  0  0  3  0  0  0  0  0  0
  189.4430  173.6770  139.6820 C   0  0  0  0  0  3  0  0  0  0  0  0
  189.8980  174.5400  142.3240 C   0  0  0  0  0  0  0  0  0  0  0  0
  187.8120  176.0300  143.7990 C   0  0  2  0  0  3  0  0  0  0  0  0
  186.5480  178.9690  142.3490 O   0  0  0  0  0  0  0  0  0  0  0  0
  187.1210  177.3110  143.9330 N   0  0  0  0  0  0  0  0  0  0  0  0
  185.6310  178.9080  146.8920 C   0  0  0  0  0  2  0  0  0  0  0  0
  188.5310  175.1640  147.0290 C   0  0  0  0  0  1  0  0  0  0  0  0
  188.4970  174.4680  140.3300 C   0  0  0  0  0  3  0  0  0  0  0  0
  188.7070  174.8980  141.6450 C   0  0  0  0  0  0  0  0  0  0  0  0
  188.6300  176.6290  146.6310 C   0  0  2  0  0  3  0  0  0  0  0  0
  193.2240  175.3610  145.5530 C   0  0  0  0  0  3  0  0  0  0  0  0
  195.4210  175.8140  144.8560 O   0  0  0  0  0  1  0  0  0  0  0  0
  194.0540  175.7950  144.6170 C   0  0  0  0  0  3  0  0  0  0  0  0
  1 19  1  6  0  0  0
  1  5  1  0  0  0  0
  1  4  1  0  0  0  0
  2 16  1  0  0  0  0
  2 19  1  0  0  0  0
  3 17  1  0  0  0  0
  3 10  1  0  0  0  0
  4 12  1  0  0  0  0
  5 11  1  0  0  0  0
  7 27  1  0  0  0  0
  7 15  1  0  0  0  0
  8  6  2  0  0  0  0
  9 14  1  0  0  0  0
  9  7  1  0  0  0  0
 10 22  1  0  0  0  0
 11 28  1  0  0  0  0
 11  8  1  0  0  0  0
 12  8  1  0  0  0  0
 12 27  1  0  0  0  0
 13  2  2  0  0  0  0
 14 23  1  0  0  0  0
 17 20  1  0  0  0  0
 18 25  2  0  0  0  0
 18 13  1  0  0  0  0
 20 22  1  0  0  0  0
 20  4  1  0  0  0  0
 21 10  2  0  0  0  0
 22  9  1  0  0  0  0
 23 15  1  0  0  0  0
 25 26  1  0  0  0  0
 26 17  1  0  0  0  0
 26 19  2  0  0  0  0
 27 24  1  0  0  0  0
 30 29  1  0  0  0  0
 30 28  2  0  0  0  0
M  END
>  <MODEL>
2

>  <REMARK>
 VINA RESULT:      -8.8      1.438      1.746
  Name = 
  1 active torsions:
  status: ('A' for Active; 'I' for Inactive)
    1  A    between atoms: C_11  and  C_28
                            x       y       z     vdW  Elec       q    Type
                         _______ _______ _______ _____ _____    ______ ____

>  <TORSDO>
F 1

$$$$
=
 OpenBabel11112416253D

 30 35  0  0  1  0  0  0  0  0999 V2000
  190.0730  176.0520  143.9750 C   0  0  2  0  0  3  0  0  0  0  0  0
  192.0170  175.6370  145.5650 C   0  0  0  0  0  0  0  0  0  0  0  0
  187.7100  177.0010  147.0940 O   0  0  0  0  0  0  0  0  0  0  0  0
  188.5470  176.2060  144.0640 C   0  0  2  0  0  3  0  0  0  0  0  0
  190.3560  174.8010  143.3930 O   0  0  0  0  0  0  0  0  0  0  0  0
  188.0520  174.4950  140.8570 O   0  0  0  0  0  0  0  0  0  0  0  0
  186.2290  178.0050  142.7320 C   0  0  2  0  0  3  0  0  0  0  0  0
  188.6070  175.0500  141.7940 C   0  0  0  0  0  0  0  0  0  0  0  0
  185.6940  177.3510  143.9910 C   0  0  2  0  0  3  0  0  0  0  0  0
  186.5190  177.0370  146.4020 C   0  0  0  0  0  0  0  0  0  0  0  0
  190.0960  174.9200  142.0170 C   0  0  2  0  0  3  0  0  0  0  0  0
  187.8200  175.9500  142.7080 C   0  0  2  0  0  3  0  0  0  0  0  0
  192.6020  175.7130  146.8310 C   0  0  0  0  0  3  0  0  0  0  0  0
  184.4470  178.1500  144.2990 C   0  0  0  0  0  2  0  0  0  0  0  0
  185.0050  178.3490  141.9200 C   0  0  0  0  0  2  0  0  0  0  0  0
  192.7500  175.0660  144.5300 O   0  0  0  0  0  1  0  0  0  0  0  0
  188.7350  177.4990  146.2390 C   0  0  2  0  0  3  0  0  0  0  0  0
  191.9210  176.3140  147.8870 C   0  0  0  0  0  3  0  0  0  0  0  0
  190.7130  176.1380  145.3490 C   0  0  0  0  0  0  0  0  0  0  0  0
  188.1300  177.4800  144.8180 C   0  0  2  0  0  3  0  0  0  0  0  0
  185.4110  176.7070  146.9030 O   0  0  0  0  0  0  0  0  0  0  0  0
  186.6890  177.4440  145.0560 N   0  0  0  0  0  0  0  0  0  0  0  0
  183.9040  178.5920  142.9460 C   0  0  0  0  0  2  0  0  0  0  0  0
  188.3760  178.0940  141.4620 C   0  0  0  0  0  1  0  0  0  0  0  0
  190.6560  176.8590  147.6780 C   0  0  0  0  0  3  0  0  0  0  0  0
  190.0470  176.7860  146.4200 C   0  0  0  0  0  0  0  0  0  0  0  0
  187.2630  177.1810  141.9530 C   0  0  2  0  0  3  0  0  0  0  0  0
  190.6690  173.7400  141.2980 C   0  0  0  0  0  3  0  0  0  0  0  0
  191.3770  171.5010  141.2500 O   0  0  0  0  0  1  0  0  0  0  0  0
  190.8450  172.5880  141.9280 C   0  0  0  0  0  3  0  0  0  0  0  0
  1  5  1  1  0  0  0
  1  4  1  0  0  0  0
  1 19  1  0  0  0  0
  2 13  1  0  0  0  0
  4 20  1  0  0  0  0
  6  8  2  0  0  0  0
  7  9  1  0  0  0  0
  8 11  1  0  0  0  0
  8 12  1  0  0  0  0
  9 14  1  0  0  0  0
  9 22  1  0  0  0  0
 10 21  2  0  0  0  0
 10  3  1  0  0  0  0
 11  5  1  0  0  0  0
 12  4  1  0  0  0  0
 13 18  2  0  0  0  0
 15  7  1  0  0  0  0
 15 23  1  0  0  0  0
 16  2  1  0  0  0  0
 17 26  1  0  0  0  0
 17  3  1  0  0  0  0
 19  2  2  0  0  0  0
 19 26  1  0  0  0  0
 20 22  1  0  0  0  0
 20 17  1  0  0  0  0
 22 10  1  0  0  0  0
 23 14  1  0  0  0  0
 24 27  1  0  0  0  0
 25 18  1  0  0  0  0
 26 25  2  0  0  0  0
 27 12  1  0  0  0  0
 27  7  1  0  0  0  0
 28 30  2  0  0  0  0
 28 11  1  0  0  0  0
 29 30  1  0  0  0  0
M  END
>  <MODEL>
3

>  <REMARK>
 VINA RESULT:      -8.7      1.795      4.812
  Name = 
  1 active torsions:
  status: ('A' for Active; 'I' for Inactive)
    1  A    between atoms: C_11  and  C_28
                            x       y       z     vdW  Elec       q    Type
                         _______ _______ _______ _____ _____    ______ ____

>  <TORSDO>
F 1

$$$$
=
 OpenBabel11112416253D

 30 35  0  0  1  0  0  0  0  0999 V2000
  186.5380  177.0810  143.9520 C   0  0  2  0  0  3  0  0  0  0  0  0
  185.2830  178.1920  145.8680 C   0  0  0  0  0  0  0  0  0  0  0  0
  189.9920  177.4370  145.9910 O   0  0  0  0  0  0  0  0  0  0  0  0
  187.9950  176.9230  143.4890 C   0  0  2  0  0  3  0  0  0  0  0  0
  185.8950  177.9830  143.0820 O   0  0  0  0  0  0  0  0  0  0  0  0
  187.0340  177.1180  139.9540 O   0  0  0  0  0  0  0  0  0  0  0  0
  189.8730  174.6500  142.1900 C   0  0  2  0  0  3  0  0  0  0  0  0
  186.9440  177.0260  141.1690 C   0  0  0  0  0  0  0  0  0  0  0  0
  190.7440  175.7490  142.7650 C   0  0  2  0  0  3  0  0  0  0  0  0
  190.8360  177.0720  144.9650 C   0  0  0  0  0  0  0  0  0  0  0  0
  185.6410  177.2910  141.8860 C   0  0  2  0  0  3  0  0  0  0  0  0
  188.1270  176.5620  141.9770 C   0  0  2  0  0  3  0  0  0  0  0  0
  185.2250  178.6730  147.1780 C   0  0  0  0  0  3  0  0  0  0  0  0
  192.1110  175.1070  142.8500 C   0  0  0  0  0  2  0  0  0  0  0  0
  190.7440  173.9540  141.1730 C   0  0  0  0  0  2  0  0  0  0  0  0
  184.1510  178.3050  145.0690 O   0  0  0  0  0  1  0  0  0  0  0  0
  188.8000  176.6640  145.8810 C   0  0  2  0  0  3  0  0  0  0  0  0
  186.3220  178.5440  148.0260 C   0  0  0  0  0  3  0  0  0  0  0  0
  186.4700  177.5990  145.3770 C   0  0  0  0  0  0  0  0  0  0  0  0
  188.8270  176.0660  144.4570 C   0  0  2  0  0  3  0  0  0  0  0  0
  191.9950  177.5410  144.8150 O   0  0  0  0  0  0  0  0  0  0  0  0
  190.2350  176.1460  144.0760 N   0  0  0  0  0  0  0  0  0  0  0  0
  192.1680  174.1210  141.6900 C   0  0  0  0  0  2  0  0  0  0  0  0
  187.4410  174.1160  142.0130 C   0  0  0  0  0  1  0  0  0  0  0  0
  187.4800  177.9160  147.5730 C   0  0  0  0  0  3  0  0  0  0  0  0
  187.5650  177.4350  146.2620 C   0  0  0  0  0  0  0  0  0  0  0  0
  188.5240  175.1100  141.6220 C   0  0  2  0  0  3  0  0  0  0  0  0
  184.6910  178.0830  141.0450 C   0  0  0  0  0  3  0  0  0  0  0  0
  182.5200  178.8070  140.5130 O   0  0  0  0  0  1  0  0  0  0  0  0
  183.3910  178.0680  141.3000 C   0  0  0  0  0  3  0  0  0  0  0  0
  1  5  1  6  0  0  0
  1 19  1  0  0  0  0
  2 13  1  0  0  0  0
  4  1  1  0  0  0  0
  4 20  1  0  0  0  0
  6  8  2  0  0  0  0
  7  9  1  0  0  0  0
  8 11  1  0  0  0  0
  8 12  1  0  0  0  0
  9 14  1  0  0  0  0
  9 22  1  0  0  0  0
 10  3  1  0  0  0  0
 11  5  1  0  0  0  0
 12  4  1  0  0  0  0
 13 18  2  0  0  0  0
 15 23  1  0  0  0  0
 15  7  1  0  0  0  0
 16  2  1  0  0  0  0
 17  3  1  0  0  0  0
 17 26  1  0  0  0  0
 19  2  2  0  0  0  0
 19 26  1  0  0  0  0
 20 17  1  0  0  0  0
 21 10  2  0  0  0  0
 22 20  1  0  0  0  0
 22 10  1  0  0  0  0
 23 14  1  0  0  0  0
 25 18  1  0  0  0  0
 26 25  2  0  0  0  0
 27 12  1  0  0  0  0
 27 24  1  0  0  0  0
 27  7  1  0  0  0  0
 28 30  2  0  0  0  0
 28 11  1  0  0  0  0
 29 30  1  0  0  0  0
M  END
>  <MODEL>
4

>  <REMARK>
 VINA RESULT:      -8.7      2.255      7.186
  Name = 
  1 active torsions:
  status: ('A' for Active; 'I' for Inactive)
    1  A    between atoms: C_11  and  C_28
                            x       y       z     vdW  Elec       q    Type
                         _______ _______ _______ _____ _____    ______ ____

>  <TORSDO>
F 1

$$$$
=
 OpenBabel11112416253D

 30 35  0  0  1  0  0  0  0  0999 V2000
  190.6560  175.1460  142.6940 C   0  0  2  0  0  3  0  0  0  0  0  0
  193.1710  174.9980  143.0550 C   0  0  0  0  0  0  0  0  0  0  0  0
  190.3020  177.4120  146.0040 O   0  0  0  0  0  0  0  0  0  0  0  0
  189.4140  175.5450  143.5060 C   0  0  2  0  0  3  0  0  0  0  0  0
  190.6520  173.7460  142.5430 O   0  0  0  0  0  0  0  0  0  0  0  0
  187.3660  172.9620  141.8960 O   0  0  0  0  0  0  0  0  0  0  0  0
  186.6430  177.1230  143.0450 C   0  0  2  0  0  3  0  0  0  0  0  0
  188.3050  173.7070  142.1320 C   0  0  0  0  0  0  0  0  0  0  0  0
  186.9120  177.0100  144.5320 C   0  0  2  0  0  3  0  0  0  0  0  0
  188.9270  177.3930  146.0790 C   0  0  0  0  0  0  0  0  0  0  0  0
  189.6830  173.4390  141.5720 C   0  0  2  0  0  3  0  0  0  0  0  0
  188.0860  174.9650  142.9290 C   0  0  2  0  0  3  0  0  0  0  0  0
  194.3420  175.4010  143.7010 C   0  0  0  0  0  3  0  0  0  0  0  0
  185.9860  178.0410  145.1370 C   0  0  0  0  0  2  0  0  0  0  0  0
  185.1560  177.3550  142.9350 C   0  0  0  0  0  2  0  0  0  0  0  0
  193.2600  174.0150  142.0750 O   0  0  0  0  0  1  0  0  0  0  0  0
  190.6710  177.4420  144.6280 C   0  0  2  0  0  3  0  0  0  0  0  0
  194.3060  176.4120  144.6600 C   0  0  0  0  0  3  0  0  0  0  0  0
  191.9300  175.5870  143.3910 C   0  0  0  0  0  0  0  0  0  0  0  0
  189.3960  177.0430  143.8510 C   0  0  2  0  0  3  0  0  0  0  0  0
  188.2870  177.4140  147.1630 O   0  0  0  0  0  0  0  0  0  0  0  0
  188.3180  177.3010  144.8030 N   0  0  0  0  0  0  0  0  0  0  0  0
  184.7720  178.0850  144.2170 C   0  0  0  0  0  2  0  0  0  0  0  0
  187.7530  176.4680  140.9080 C   0  0  0  0  0  1  0  0  0  0  0  0
  193.0990  177.0380  144.9640 C   0  0  0  0  0  3  0  0  0  0  0  0
  191.9120  176.6430  144.3360 C   0  0  0  0  0  0  0  0  0  0  0  0
  187.1380  175.9440  142.1970 C   0  0  2  0  0  3  0  0  0  0  0  0
  189.8450  172.0170  141.1390 C   0  0  0  0  0  3  0  0  0  0  0  0
  190.5390  169.8080  141.5350 O   0  0  0  0  0  1  0  0  0  0  0  0
  190.3950  171.1250  141.9490 C   0  0  0  0  0  3  0  0  0  0  0  0
  1  5  1  1  0  0  0
  1 19  1  0  0  0  0
  1  4  1  0  0  0  0
  2 19  2  0  0  0  0
  2 13  1  0  0  0  0
  3 10  1  0  0  0  0
  4 20  1  0  0  0  0
  6  8  2  0  0  0  0
  7  9  1  0  0  0  0
  8 12  1  0  0  0  0
  9 22  1  0  0  0  0
  9 14  1  0  0  0  0
 10 21  2  0  0  0  0
 11  8  1  0  0  0  0
 11  5  1  0  0  0  0
 12  4  1  0  0  0  0
 13 18  2  0  0  0  0
 15  7  1  0  0  0  0
 15 23  1  0  0  0  0
 16  2  1  0  0  0  0
 17  3  1  0  0  0  0
 18 25  1  0  0  0  0
 19 26  1  0  0  0  0
 20 17  1  0  0  0  0
 20 22  1  0  0  0  0
 22 10  1  0  0  0  0
 23 14  1  0  0  0  0
 24 27  1  0  0  0  0
 26 17  1  0  0  0  0
 26 25  2  0  0  0  0
 27 12  1  0  0  0  0
 27  7  1  0  0  0  0
 28 11  1  0  0  0  0
 28 30  2  0  0  0  0
 29 30  1  0  0  0  0
M  END
>  <MODEL>
5

>  <REMARK>
 VINA RESULT:      -8.1      2.019      4.876
  Name = 
  1 active torsions:
  status: ('A' for Active; 'I' for Inactive)
    1  A    between atoms: C_11  and  C_28
                            x       y       z     vdW  Elec       q    Type
                         _______ _______ _______ _____ _____    ______ ____

>  <TORSDO>
F 1

$$$$
=
 OpenBabel11112416253D

 30 35  0  0  1  0  0  0  0  0999 V2000
  188.1020  175.6820  144.0820 C   0  0  2  0  0  3  0  0  0  0  0  0
  186.2500  177.2420  144.8670 C   0  0  0  0  0  0  0  0  0  0  0  0
  190.4060  176.8420  147.1730 O   0  0  0  0  0  0  0  0  0  0  0  0
  189.6030  175.4790  144.3430 C   0  0  2  0  0  3  0  0  0  0  0  0
  187.9510  176.2400  142.7970 O   0  0  0  0  0  0  0  0  0  0  0  0
  190.2220  174.5410  140.8510 O   0  0  0  0  0  0  0  0  0  0  0  0
  191.6740  173.0370  144.6960 C   0  0  2  0  0  3  0  0  0  0  0  0
  189.6270  174.8140  141.8830 C   0  0  0  0  0  0  0  0  0  0  0  0
  192.3060  174.3080  145.2260 C   0  0  2  0  0  3  0  0  0  0  0  0
  191.5710  176.2360  146.7560 C   0  0  0  0  0  0  0  0  0  0  0  0
  188.1670  175.2050  141.8720 C   0  0  2  0  0  3  0  0  0  0  0  0
  190.3260  174.6880  143.2100 C   0  0  2  0  0  3  0  0  0  0  0  0
  185.6870  178.0920  145.8210 C   0  0  0  0  0  3  0  0  0  0  0  0
  193.4600  173.8050  146.0640 C   0  0  0  0  0  2  0  0  0  0  0  0
  192.8350  172.1200  144.3970 C   0  0  0  0  0  2  0  0  0  0  0  0
  185.5660  177.0400  143.6730 O   0  0  0  0  0  1  0  0  0  0  0  0
  189.3150  176.0030  146.8090 C   0  0  2  0  0  3  0  0  0  0  0  0
  186.3170  178.2900  147.0480 C   0  0  0  0  0  3  0  0  0  0  0  0
  187.4850  176.6010  145.1200 C   0  0  0  0  0  0  0  0  0  0  0  0
  189.8880  175.0060  145.7780 C   0  0  2  0  0  3  0  0  0  0  0  0
  192.7190  176.7060  146.9740 O   0  0  0  0  0  0  0  0  0  0  0  0
  191.3290  175.0510  146.0180 N   0  0  0  0  0  0  0  0  0  0  0  0
  193.9220  172.5200  145.3880 C   0  0  0  0  0  2  0  0  0  0  0  0
  189.5060  172.3300  143.6830 C   0  0  0  0  0  1  0  0  0  0  0  0
  187.5080  177.6250  147.3330 C   0  0  0  0  0  3  0  0  0  0  0  0
  188.0950  176.7770  146.3870 C   0  0  0  0  0  0  0  0  0  0  0  0
  190.7250  173.2220  143.5050 C   0  0  2  0  0  3  0  0  0  0  0  0
  187.7170  175.6480  140.5160 C   0  0  0  0  0  3  0  0  0  0  0  0
  186.6540  177.1910  139.0990 O   0  0  0  0  0  1  0  0  0  0  0  0
  187.0660  176.7910  140.3620 C   0  0  0  0  0  3  0  0  0  0  0  0
  1  5  1  6  0  0  0
  1  4  1  0  0  0  0
  1 19  1  0  0  0  0
  2 19  2  0  0  0  0
  2 13  1  0  0  0  0
  4 20  1  0  0  0  0
  6  8  2  0  0  0  0
  7  9  1  0  0  0  0
  8 12  1  0  0  0  0
  9 22  1  0  0  0  0
  9 14  1  0  0  0  0
 10 21  2  0  0  0  0
 10  3  1  0  0  0  0
 11  8  1  0  0  0  0
 11  5  1  0  0  0  0
 12 27  1  0  0  0  0
 12  4  1  0  0  0  0
 13 18  2  0  0  0  0
 15  7  1  0  0  0  0
 15 23  1  0  0  0  0
 16  2  1  0  0  0  0
 17  3  1  0  0  0  0
 18 25  1  0  0  0  0
 19 26  1  0  0  0  0
 20 22  1  0  0  0  0
 20 17  1  0  0  0  0
 22 10  1  0  0  0  0
 23 14  1  0  0  0  0
 26 17  1  0  0  0  0
 26 25  2  0  0  0  0
 27 24  1  0  0  0  0
 27  7  1  0  0  0  0
 28 11  1  0  0  0  0
 29 30  1  0  0  0  0
 30 28  2  0  0  0  0
M  END
>  <MODEL>
6

>  <REMARK>
 VINA RESULT:      -8.1      2.028      7.008
  Name = 
  1 active torsions:
  status: ('A' for Active; 'I' for Inactive)
    1  A    between atoms: C_11  and  C_28
                            x       y       z     vdW  Elec       q    Type
                         _______ _______ _______ _____ _____    ______ ____

>  <TORSDO>
F 1

$$$$
=
 OpenBabel11112416253D

 30 35  0  0  1  0  0  0  0  0999 V2000
  187.8090  177.0030  143.7320 C   0  0  2  0  0  3  0  0  0  0  0  0
  186.1520  178.1330  142.1650 C   0  0  0  0  0  0  0  0  0  0  0  0
  188.5720  174.2120  140.9320 O   0  0  0  0  0  0  0  0  0  0  0  0
  188.5320  175.6510  143.8370 C   0  0  2  0  0  3  0  0  0  0  0  0
  186.8140  177.0490  144.7270 O   0  0  0  0  0  0  0  0  0  0  0  0
  188.3070  175.6640  147.4990 O   0  0  0  0  0  0  0  0  0  0  0  0
  191.4410  174.5360  144.6590 C   0  0  2  0  0  3  0  0  0  0  0  0
  188.2530  176.0470  146.3400 C   0  0  0  0  0  0  0  0  0  0  0  0
  190.6930  173.4640  143.8920 C   0  0  2  0  0  3  0  0  0  0  0  0
  189.3100  173.3650  141.7310 C   0  0  0  0  0  0  0  0  0  0  0  0
  187.4660  177.2760  145.9510 C   0  0  2  0  0  3  0  0  0  0  0  0
  189.0470  175.3360  145.2760 C   0  0  2  0  0  3  0  0  0  0  0  0
  185.5700  178.2920  140.9060 C   0  0  0  0  0  3  0  0  0  0  0  0
  191.7830  172.4960  143.4870 C   0  0  0  0  0  2  0  0  0  0  0  0
  192.4950  173.7920  145.4430 C   0  0  0  0  0  2  0  0  0  0  0  0
  185.7010  178.9330  143.2100 O   0  0  0  0  0  1  0  0  0  0  0  0
  188.8580  175.5520  141.3230 C   0  0  2  0  0  3  0  0  0  0  0  0
  186.0190  177.5410  139.8210 C   0  0  0  0  0  3  0  0  0  0  0  0
  187.1800  177.1820  142.3630 C   0  0  0  0  0  0  0  0  0  0  0  0
  189.5470  175.4400  142.7020 C   0  0  2  0  0  3  0  0  0  0  0  0
  189.3150  172.1130  141.6010 O   0  0  0  0  0  0  0  0  0  0  0  0
  190.0240  174.0590  142.7380 N   0  0  0  0  0  0  0  0  0  0  0  0
  192.8180  172.5620  144.6030 C   0  0  0  0  0  2  0  0  0  0  0  0
  191.0560  176.8860  145.4090 C   0  0  0  0  0  1  0  0  0  0  0  0
  187.0660  176.6380  139.9890 C   0  0  0  0  0  3  0  0  0  0  0  0
  187.6570  176.4540  141.2440 C   0  0  0  0  0  0  0  0  0  0  0  0
  190.5690  175.4500  145.5300 C   0  0  2  0  0  3  0  0  0  0  0  0
  186.4570  177.6460  146.9910 C   0  0  0  0  0  3  0  0  0  0  0  0
  184.4410  178.6650  147.6380 O   0  0  0  0  0  1  0  0  0  0  0  0
  185.3700  178.3290  146.6630 C   0  0  0  0  0  3  0  0  0  0  0  0
  1 19  1  6  0  0  0
  1  4  1  0  0  0  0
  1  5  1  0  0  0  0
  2 19  1  0  0  0  0
  2 16  1  0  0  0  0
  3 17  1  0  0  0  0
  3 10  1  0  0  0  0
  4 12  1  0  0  0  0
  5 11  1  0  0  0  0
  7 15  1  0  0  0  0
  7 27  1  0  0  0  0
  8  6  2  0  0  0  0
  9  7  1  0  0  0  0
 10 22  1  0  0  0  0
 11  8  1  0  0  0  0
 11 28  1  0  0  0  0
 12 27  1  0  0  0  0
 12  8  1  0  0  0  0
 13  2  2  0  0  0  0
 14  9  1  0  0  0  0
 14 23  1  0  0  0  0
 17 20  1  0  0  0  0
 18 25  2  0  0  0  0
 18 13  1  0  0  0  0
 20 22  1  0  0  0  0
 20  4  1  0  0  0  0
 21 10  2  0  0  0  0
 22  9  1  0  0  0  0
 23 15  1  0  0  0  0
 24 27  1  0  0  0  0
 25 26  1  0  0  0  0
 26 17  1  0  0  0  0
 26 19  2  0  0  0  0
 30 28  2  0  0  0  0
 30 29  1  0  0  0  0
M  END
>  <MODEL>
7

>  <REMARK>
 VINA RESULT:      -8.1      2.292      5.826
  Name = 
  1 active torsions:
  status: ('A' for Active; 'I' for Inactive)
    1  A    between atoms: C_11  and  C_28
                            x       y       z     vdW  Elec       q    Type
                         _______ _______ _______ _____ _____    ______ ____

>  <TORSDO>
F 1

$$$$
=
 OpenBabel11112416253D

 30 35  0  0  1  0  0  0  0  0999 V2000
  189.0810  177.0760  145.5920 C   0  0  2  0  0  3  0  0  0  0  0  0
  186.8990  178.0060  146.5160 C   0  0  0  0  0  0  0  0  0  0  0  0
  187.0400  175.0620  142.7650 O   0  0  0  0  0  0  0  0  0  0  0  0
  189.5250  175.9450  144.6510 C   0  0  2  0  0  3  0  0  0  0  0  0
  189.4180  176.7090  146.9100 O   0  0  0  0  0  0  0  0  0  0  0  0
  192.5410  175.2950  146.6360 O   0  0  0  0  0  0  0  0  0  0  0  0
  191.7180  175.4610  142.3400 C   0  0  2  0  0  3  0  0  0  0  0  0
  191.5270  175.8400  146.2240 C   0  0  0  0  0  0  0  0  0  0  0  0
  190.6590  174.3800  142.2590 C   0  0  2  0  0  3  0  0  0  0  0  0
  188.0920  174.3030  142.3020 C   0  0  0  0  0  0  0  0  0  0  0  0
  190.8060  176.8840  147.0440 C   0  0  2  0  0  3  0  0  0  0  0  0
  191.0180  175.5330  144.8410 C   0  0  2  0  0  3  0  0  0  0  0  0
  185.5230  178.2230  146.4220 C   0  0  0  0  0  3  0  0  0  0  0  0
  190.8620  173.7910  140.8800 C   0  0  0  0  0  2  0  0  0  0  0  0
  192.9220  174.8800  141.6410 C   0  0  0  0  0  2  0  0  0  0  0  0
  187.5710  178.4860  147.6350 O   0  0  0  0  0  1  0  0  0  0  0  0
  187.5420  176.3470  143.1200 C   0  0  2  0  0  3  0  0  0  0  0  0
  184.8170  177.7960  145.2990 C   0  0  0  0  0  3  0  0  0  0  0  0
  187.5870  177.3190  145.4890 C   0  0  0  0  0  0  0  0  0  0  0  0
  189.0760  176.1820  143.2000 C   0  0  2  0  0  3  0  0  0  0  0  0
  187.9650  173.1290  141.8620 O   0  0  0  0  0  0  0  0  0  0  0  0
  189.3340  174.9740  142.4170 N   0  0  0  0  0  0  0  0  0  0  0  0
  192.3540  173.9240  140.5990 C   0  0  0  0  0  2  0  0  0  0  0  0
  192.1950  177.4850  143.7200 C   0  0  0  0  0  1  0  0  0  0  0  0
  185.4890  177.1640  144.2550 C   0  0  0  0  0  3  0  0  0  0  0  0
  186.8660  176.9260  144.3330 C   0  0  0  0  0  0  0  0  0  0  0  0
  192.0250  175.9740  143.7530 C   0  0  2  0  0  3  0  0  0  0  0  0
  191.1780  176.8170  148.4900 C   0  0  0  0  0  3  0  0  0  0  0  0
  191.5670  177.8400  150.5690 O   0  0  0  0  0  1  0  0  0  0  0  0
  191.2190  177.9160  149.2280 C   0  0  0  0  0  3  0  0  0  0  0  0
  1 19  1  1  0  0  0
  1  5  1  0  0  0  0
  2 16  1  0  0  0  0
  3 17  1  0  0  0  0
  4 12  1  0  0  0  0
  4  1  1  0  0  0  0
  5 11  1  0  0  0  0
  7 27  1  0  0  0  0
  8  6  2  0  0  0  0
  8 11  1  0  0  0  0
  9  7  1  0  0  0  0
  9 22  1  0  0  0  0
 10 22  1  0  0  0  0
 10  3  1  0  0  0  0
 11 28  1  0  0  0  0
 12  8  1  0  0  0  0
 13  2  1  0  0  0  0
 14  9  1  0  0  0  0
 15  7  1  0  0  0  0
 17 20  1  0  0  0  0
 17 26  1  0  0  0  0
 18 13  2  0  0  0  0
 19  2  2  0  0  0  0
 20  4  1  0  0  0  0
 21 10  2  0  0  0  0
 22 20  1  0  0  0  0
 23 14  1  0  0  0  0
 23 15  1  0  0  0  0
 24 27  1  0  0  0  0
 25 26  2  0  0  0  0
 25 18  1  0  0  0  0
 26 19  1  0  0  0  0
 27 12  1  0  0  0  0
 28 30  2  0  0  0  0
 30 29  1  0  0  0  0
M  END
>  <MODEL>
8

>  <REMARK>
 VINA RESULT:      -8.0      2.175      5.392
  Name = 
  1 active torsions:
  status: ('A' for Active; 'I' for Inactive)
    1  A    between atoms: C_11  and  C_28
                            x       y       z     vdW  Elec       q    Type
                         _______ _______ _______ _____ _____    ______ ____

>  <TORSDO>
F 1

$$$$
=
 OpenBabel11112416253D

 30 35  0  0  1  0  0  0  0  0999 V2000
  191.2670  175.3760  142.3980 C   0  0  2  0  0  3  0  0  0  0  0  0
  193.7820  175.3030  142.0120 C   0  0  0  0  0  0  0  0  0  0  0  0
  191.8770  176.1330  146.3060 O   0  0  0  0  0  0  0  0  0  0  0  0
  190.3000  175.3230  143.5910 C   0  0  2  0  0  3  0  0  0  0  0  0
  191.1830  174.1500  141.7090 O   0  0  0  0  0  0  0  0  0  0  0  0
  187.8230  173.4170  141.6690 O   0  0  0  0  0  0  0  0  0  0  0  0
  187.5530  176.7250  144.5230 C   0  0  2  0  0  3  0  0  0  0  0  0
  188.8120  174.0850  141.9330 C   0  0  0  0  0  0  0  0  0  0  0  0
  188.2060  176.0620  145.7190 C   0  0  2  0  0  3  0  0  0  0  0  0
  190.5710  175.9740  146.7170 C   0  0  0  0  0  0  0  0  0  0  0  0
  189.9820  174.1700  140.9800 C   0  0  2  0  0  3  0  0  0  0  0  0
  188.8490  174.9090  143.1920 C   0  0  2  0  0  3  0  0  0  0  0  0
  195.0940  175.5160  142.4420 C   0  0  0  0  0  3  0  0  0  0  0  0
  187.5050  176.6960  146.9000 C   0  0  0  0  0  2  0  0  0  0  0  0
  186.0980  176.8610  144.8990 C   0  0  0  0  0  2  0  0  0  0  0  0
  193.5780  174.7920  140.7350 O   0  0  0  0  0  1  0  0  0  0  0  0
  191.8650  176.7270  145.0110 C   0  0  2  0  0  3  0  0  0  0  0  0
  195.3450  176.0650  143.6980 C   0  0  0  0  0  3  0  0  0  0  0  0
  192.6930  175.6110  142.8600 C   0  0  0  0  0  0  0  0  0  0  0  0
  190.4180  176.5610  144.4950 C   0  0  2  0  0  3  0  0  0  0  0  0
  190.2460  175.5180  147.8450 O   0  0  0  0  0  0  0  0  0  0  0  0
  189.6410  176.3380  145.7130 N   0  0  0  0  0  0  0  0  0  0  0  0
  186.0920  176.9980  146.4170 C   0  0  0  0  0  2  0  0  0  0  0  0
  188.0310  177.0500  142.0950 C   0  0  0  0  0  1  0  0  0  0  0  0
  194.2810  176.4220  144.5240 C   0  0  0  0  0  3  0  0  0  0  0  0
  192.9590  176.2090  144.1180 C   0  0  0  0  0  0  0  0  0  0  0  0
  187.7690  176.0160  143.1790 C   0  0  2  0  0  3  0  0  0  0  0  0
  189.9810  173.0480  139.9910 C   0  0  0  0  0  3  0  0  0  0  0  0
  190.9480  171.1210  139.0600 O   0  0  0  0  0  1  0  0  0  0  0  0
  190.9610  172.1570  139.9820 C   0  0  0  0  0  3  0  0  0  0  0  0
  1  5  1  1  0  0  0
  1 19  1  0  0  0  0
  1  4  1  0  0  0  0
  2 13  2  0  0  0  0
  2 19  1  0  0  0  0
  3 10  1  0  0  0  0
  4 20  1  0  0  0  0
  6  8  2  0  0  0  0
  7 15  1  0  0  0  0
  7  9  1  0  0  0  0
  8 12  1  0  0  0  0
  9 14  1  0  0  0  0
 10 21  2  0  0  0  0
 11  5  1  0  0  0  0
 11  8  1  0  0  0  0
 12  4  1  0  0  0  0
 13 18  1  0  0  0  0
 15 23  1  0  0  0  0
 16  2  1  0  0  0  0
 17  3  1  0  0  0  0
 18 25  2  0  0  0  0
 19 26  2  0  0  0  0
 20 17  1  0  0  0  0
 20 22  1  0  0  0  0
 22  9  1  0  0  0  0
 22 10  1  0  0  0  0
 23 14  1  0  0  0  0
 24 27  1  0  0  0  0
 26 25  1  0  0  0  0
 26 17  1  0  0  0  0
 27 12  1  0  0  0  0
 27  7  1  0  0  0  0
 28 11  1  0  0  0  0
 29 30  1  0  0  0  0
 30 28  2  0  0  0  0
M  END
>  <MODEL>
9

>  <REMARK>
 VINA RESULT:      -7.9      2.576      5.389
  Name = 
  1 active torsions:
  status: ('A' for Active; 'I' for Inactive)
    1  A    between atoms: C_11  and  C_28
                            x       y       z     vdW  Elec       q    Type
                         _______ _______ _______ _____ _____    ______ ____

>  <TORSDO>
F 1

$$$$
