=
 OpenBabel11112417393D

 28 32  0  0  1  0  0  0  0  0999 V2000
  190.5290  175.7030  144.8040 C   0  0  0  0  0  0  0  0  0  0  0  0
  185.6090  176.2730  145.7850 F   0  0  0  0  0  0  0  0  0  0  0  0
  189.0930  174.9160  140.5130 O   0  0  0  0  0  0  0  0  0  0  0  0
  191.4080  178.1520  143.7710 C   0  0  0  0  0  3  0  0  0  0  0  0
  187.3620  176.3150  141.3830 C   0  0  0  0  0  0  0  0  0  0  0  0
  190.0720  174.4680  145.2630 O   0  0  0  0  0  0  0  0  0  0  0  0
  186.5960  177.9630  147.1020 C   0  0  0  0  0  1  0  0  0  0  0  0
  186.1010  177.5690  145.7240 C   0  0  1  0  0  0  0  0  0  0  0  0
  184.6170  178.2520  143.8730 C   0  0  1  0  0  3  0  0  0  0  0  0
  187.2690  177.6850  144.7180 C   0  0  2  0  0  3  0  0  0  0  0  0
  191.1510  173.6480  142.3320 C   0  0  0  0  0  1  0  0  0  0  0  0
  187.4810  175.5000  143.6200 C   0  0  1  0  0  3  0  0  0  0  0  0
  185.6850  178.6640  143.0540 O   0  0  0  0  0  0  0  0  0  0  0  0
  184.9640  178.4980  145.3340 C   0  0  0  0  0  2  0  0  0  0  0  0
  190.1680  173.0160  143.3020 C   0  0  2  0  0  3  0  0  0  0  0  0
  189.5940  176.7050  144.5050 C   0  0  0  0  0  0  0  0  0  0  0  0
  188.3910  175.3180  141.4780 C   0  0  0  0  0  0  0  0  0  0  0  0
  183.3760  179.0410  143.5130 C   0  0  0  0  0  1  0  0  0  0  0  0
  188.6990  173.3500  142.9950 C   0  0  0  0  0  2  0  0  0  0  0  0
  190.0450  177.9260  143.9740 C   0  0  0  0  0  3  0  0  0  0  0  0
  191.8980  175.9330  144.5970 C   0  0  0  0  0  3  0  0  0  0  0  0
  192.3350  177.1570  144.0860 C   0  0  0  0  0  3  0  0  0  0  0  0
  190.5750  173.2370  144.7610 C   0  0  0  0  0  2  0  0  0  0  0  0
  186.6570  176.4220  142.6870 C   0  0  1  0  0  3  0  0  0  0  0  0
  188.4590  174.7790  142.7880 N   0  0  0  0  0  0  0  0  0  0  0  0
  186.8030  177.8220  143.2620 C   0  0  2  0  0  3  0  0  0  0  0  0
  187.0660  176.9570  140.3410 O   0  0  0  0  0  0  0  0  0  0  0  0
  188.1180  176.4130  144.7000 C   0  0  1  0  0  3  0  0  0  0  0  0
  1  6  1  0  0  0  0
  3 17  2  0  0  0  0
  4 20  2  0  0  0  0
  4 22  1  0  0  0  0
  5 17  1  0  0  0  0
  5 24  1  0  0  0  0
  8  2  1  0  0  0  0
  8  7  1  1  0  0  0
  9 18  1  6  0  0  0
  9 14  1  0  0  0  0
 10  8  1  0  0  0  0
 11 15  1  0  0  0  0
 12 28  1  0  0  0  0
 13 26  1  0  0  0  0
 13  9  1  0  0  0  0
 14  8  1  0  0  0  0
 15 23  1  0  0  0  0
 16 28  1  0  0  0  0
 16  1  2  0  0  0  0
 17 25  1  0  0  0  0
 19 15  1  0  0  0  0
 20 16  1  0  0  0  0
 21  1  1  0  0  0  0
 22 21  2  0  0  0  0
 23  6  1  0  0  0  0
 24 26  1  0  0  0  0
 24 12  1  0  0  0  0
 25 19  1  0  0  0  0
 25 12  1  0  0  0  0
 26 10  1  0  0  0  0
 27  5  2  0  0  0  0
 28 10  1  0  0  0  0
M  END
>  <MODEL>
1

>  <REMARK>
 VINA RESULT:      -8.5      0.000      0.000
  Name = 
  0 active torsions:
  status: ('A' for Active; 'I' for Inactive)
                            x       y       z     vdW  Elec       q    Type
                         _______ _______ _______ _____ _____    ______ ____

>  <TORSDO>
F 0

$$$$
=
 OpenBabel11112417393D

 28 32  0  0  1  0  0  0  0  0999 V2000
  191.1080  174.3070  143.0050 C   0  0  0  0  0  0  0  0  0  0  0  0
  187.9270  178.1300  143.8730 F   0  0  0  0  0  0  0  0  0  0  0  0
  193.2020  175.8160  146.8040 O   0  0  0  0  0  0  0  0  0  0  0  0
  190.2580  172.1980  144.6380 C   0  0  0  0  0  3  0  0  0  0  0  0
  190.9440  176.5180  147.1510 C   0  0  0  0  0  0  0  0  0  0  0  0
  191.5630  175.3800  142.2380 O   0  0  0  0  0  0  0  0  0  0  0  0
  186.4830  176.4160  143.1380 C   0  0  0  0  0  1  0  0  0  0  0  0
  187.2430  177.0060  144.3100 C   0  0  1  0  0  0  0  0  0  0  0  0
  187.0030  177.8180  146.6300 C   0  0  1  0  0  3  0  0  0  0  0  0
  188.2090  175.9390  144.8740 C   0  0  2  0  0  3  0  0  0  0  0  0
  194.1470  174.8460  144.0990 C   0  0  0  0  0  1  0  0  0  0  0  0
  190.4540  176.9300  144.8550 C   0  0  1  0  0  3  0  0  0  0  0  0
  187.6130  176.6770  147.1840 O   0  0  0  0  0  0  0  0  0  0  0  0
  186.2410  177.4350  145.3710 C   0  0  0  0  0  2  0  0  0  0  0  0
  193.6600  176.0410  143.3000 C   0  0  2  0  0  3  0  0  0  0  0  0
  190.1010  174.5290  143.9550 C   0  0  0  0  0  0  0  0  0  0  0  0
  192.0950  176.2090  146.3500 C   0  0  0  0  0  0  0  0  0  0  0  0
  186.0410  178.4110  147.6380 C   0  0  0  0  0  1  0  0  0  0  0  0
  192.8970  177.0760  144.1420 C   0  0  0  0  0  2  0  0  0  0  0  0
  189.6910  173.4670  144.7800 C   0  0  0  0  0  3  0  0  0  0  0  0
  191.6770  173.0320  142.8670 C   0  0  0  0  0  3  0  0  0  0  0  0
  191.2490  171.9800  143.6790 C   0  0  0  0  0  3  0  0  0  0  0  0
  192.9450  175.6220  142.0120 C   0  0  0  0  0  2  0  0  0  0  0  0
  189.8780  177.0850  146.2850 C   0  0  1  0  0  3  0  0  0  0  0  0
  191.8520  176.4860  144.9810 N   0  0  0  0  0  0  0  0  0  0  0  0
  188.6350  176.2110  146.3220 C   0  0  2  0  0  3  0  0  0  0  0  0
  190.8710  176.3830  148.4010 O   0  0  0  0  0  0  0  0  0  0  0  0
  189.5340  175.9280  144.1110 C   0  0  1  0  0  3  0  0  0  0  0  0
  1 16  1  0  0  0  0
  2  8  1  0  0  0  0
  4 20  1  0  0  0  0
  5 27  2  0  0  0  0
  6  1  1  0  0  0  0
  8  7  1  6  0  0  0
  8 10  1  0  0  0  0
  8 14  1  0  0  0  0
  9 13  1  0  0  0  0
  9 18  1  1  0  0  0
 10 26  1  0  0  0  0
 12 25  1  0  0  0  0
 12 24  1  0  0  0  0
 14  9  1  0  0  0  0
 15 11  1  0  0  0  0
 15 19  1  0  0  0  0
 16 28  1  0  0  0  0
 16 20  2  0  0  0  0
 17  3  2  0  0  0  0
 17  5  1  0  0  0  0
 19 25  1  0  0  0  0
 21  1  2  0  0  0  0
 21 22  1  0  0  0  0
 22  4  2  0  0  0  0
 23  6  1  0  0  0  0
 23 15  1  0  0  0  0
 24 26  1  0  0  0  0
 24  5  1  0  0  0  0
 25 17  1  0  0  0  0
 26 13  1  0  0  0  0
 28 12  1  0  0  0  0
 28 10  1  0  0  0  0
M  END
>  <MODEL>
2

>  <REMARK>
 VINA RESULT:      -8.3      2.411      4.651
  Name = 
  0 active torsions:
  status: ('A' for Active; 'I' for Inactive)
                            x       y       z     vdW  Elec       q    Type
                         _______ _______ _______ _____ _____    ______ ____

>  <TORSDO>
F 0

$$$$
=
 OpenBabel11112417393D

 28 32  0  0  1  0  0  0  0  0999 V2000
  190.8080  174.8300  142.4510 C   0  0  0  0  0  0  0  0  0  0  0  0
  187.7980  178.8660  142.0760 F   0  0  0  0  0  0  0  0  0  0  0  0
  190.3410  175.4980  146.9710 O   0  0  0  0  0  0  0  0  0  0  0  0
  189.1230  172.6360  142.8760 C   0  0  0  0  0  3  0  0  0  0  0  0
  188.3170  176.4280  146.1040 C   0  0  0  0  0  0  0  0  0  0  0  0
  191.6460  175.9350  142.2980 O   0  0  0  0  0  0  0  0  0  0  0  0
  187.0110  177.4740  140.3410 C   0  0  0  0  0  1  0  0  0  0  0  0
  186.9620  177.7880  141.8240 C   0  0  1  0  0  0  0  0  0  0  0  0
  185.4390  178.2830  143.7030 C   0  0  1  0  0  3  0  0  0  0  0  0
  187.3990  176.5360  142.6190 C   0  0  2  0  0  3  0  0  0  0  0  0
  192.6580  174.8130  145.1520 C   0  0  0  0  0  1  0  0  0  0  0  0
  189.2590  177.2230  144.0640 C   0  0  1  0  0  3  0  0  0  0  0  0
  185.5890  177.0060  144.2740 O   0  0  0  0  0  0  0  0  0  0  0  0
  185.5410  178.1850  142.1890 C   0  0  0  0  0  2  0  0  0  0  0  0
  192.7530  176.1630  144.4640 C   0  0  2  0  0  3  0  0  0  0  0  0
  189.4420  175.0420  142.6840 C   0  0  0  0  0  0  0  0  0  0  0  0
  189.7120  176.0920  146.0550 C   0  0  0  0  0  0  0  0  0  0  0  0
  184.0840  178.8440  144.0790 C   0  0  0  0  0  1  0  0  0  0  0  0
  191.6650  177.1550  144.9040 C   0  0  0  0  0  2  0  0  0  0  0  0
  188.6070  173.9330  142.9110 C   0  0  0  0  0  3  0  0  0  0  0  0
  191.3240  173.5260  142.4190 C   0  0  0  0  0  3  0  0  0  0  0  0
  190.4810  172.4320  142.6270 C   0  0  0  0  0  3  0  0  0  0  0  0
  192.9080  176.0270  142.9460 C   0  0  0  0  0  2  0  0  0  0  0  0
  187.9640  177.2450  144.9150 C   0  0  1  0  0  3  0  0  0  0  0  0
  190.3140  176.5910  144.8720 N   0  0  0  0  0  0  0  0  0  0  0  0
  186.9110  176.5410  144.0730 C   0  0  2  0  0  3  0  0  0  0  0  0
  187.5290  176.1250  147.0400 O   0  0  0  0  0  0  0  0  0  0  0  0
  188.9200  176.4640  142.7550 C   0  0  1  0  0  3  0  0  0  0  0  0
  1 16  1  0  0  0  0
  4 20  1  0  0  0  0
  5 27  2  0  0  0  0
  6  1  1  0  0  0  0
  6 23  1  0  0  0  0
  8  7  1  6  0  0  0
  8  2  1  0  0  0  0
  8 14  1  0  0  0  0
  8 10  1  0  0  0  0
  9 18  1  6  0  0  0
  9 13  1  0  0  0  0
 10 28  1  0  0  0  0
 10 26  1  0  0  0  0
 12 25  1  0  0  0  0
 12 24  1  0  0  0  0
 14  9  1  0  0  0  0
 15 19  1  0  0  0  0
 15 11  1  0  0  0  0
 16 28  1  0  0  0  0
 16 20  2  0  0  0  0
 17  5  1  0  0  0  0
 17  3  2  0  0  0  0
 21  1  2  0  0  0  0
 21 22  1  0  0  0  0
 22  4  2  0  0  0  0
 23 15  1  0  0  0  0
 24  5  1  0  0  0  0
 25 19  1  0  0  0  0
 25 17  1  0  0  0  0
 26 13  1  0  0  0  0
 26 24  1  0  0  0  0
 28 12  1  0  0  0  0
M  END
>  <MODEL>
3

>  <REMARK>
 VINA RESULT:      -8.2      2.004      4.096
  Name = 
  0 active torsions:
  status: ('A' for Active; 'I' for Inactive)
                            x       y       z     vdW  Elec       q    Type
                         _______ _______ _______ _____ _____    ______ ____

>  <TORSDO>
F 0

$$$$
=
 OpenBabel11112417393D

 28 32  0  0  1  0  0  0  0  0999 V2000
  189.3350  176.8730  145.0980 C   0  0  0  0  0  0  0  0  0  0  0  0
  194.2910  176.3190  144.3070 F   0  0  0  0  0  0  0  0  0  0  0  0
  189.0080  172.9310  142.7630 O   0  0  0  0  0  0  0  0  0  0  0  0
  188.7190  175.2910  147.3240 C   0  0  0  0  0  3  0  0  0  0  0  0
  191.1960  172.7820  143.7150 C   0  0  0  0  0  0  0  0  0  0  0  0
  189.6380  177.6120  143.9540 O   0  0  0  0  0  0  0  0  0  0  0  0
  194.2120  177.1500  146.5130 C   0  0  0  0  0  1  0  0  0  0  0  0
  194.1060  175.9270  145.6240 C   0  0  1  0  0  0  0  0  0  0  0  0
  194.9810  173.6450  145.2690 C   0  0  1  0  0  3  0  0  0  0  0  0
  192.7220  175.2720  145.8300 C   0  0  2  0  0  3  0  0  0  0  0  0
  187.4710  175.5360  142.7630 C   0  0  0  0  0  1  0  0  0  0  0  0
  191.6710  175.1150  143.6180 C   0  0  1  0  0  3  0  0  0  0  0  0
  193.8160  173.0290  145.7630 O   0  0  0  0  0  0  0  0  0  0  0  0
  195.2170  174.9590  145.9980 C   0  0  0  0  0  2  0  0  0  0  0  0
  188.5600  176.3880  142.1360 C   0  0  2  0  0  3  0  0  0  0  0  0
  190.3090  176.0130  145.6270 C   0  0  0  0  0  0  0  0  0  0  0  0
  190.0680  173.4800  143.1640 C   0  0  0  0  0  0  0  0  0  0  0  0
  196.1660  172.7280  145.4900 C   0  0  0  0  0  1  0  0  0  0  0  0
  189.8710  175.6250  141.8870 C   0  0  0  0  0  2  0  0  0  0  0  0
  189.9840  175.2120  146.7370 C   0  0  0  0  0  3  0  0  0  0  0  0
  188.0650  176.9470  145.6890 C   0  0  0  0  0  3  0  0  0  0  0  0
  187.7610  176.1610  146.8010 C   0  0  0  0  0  3  0  0  0  0  0  0
  188.7350  177.7250  142.8620 C   0  0  0  0  0  2  0  0  0  0  0  0
  192.3080  173.7400  143.9390 C   0  0  1  0  0  3  0  0  0  0  0  0
  190.3350  174.8690  143.0510 N   0  0  0  0  0  0  0  0  0  0  0  0
  192.6800  173.7960  145.4120 C   0  0  2  0  0  3  0  0  0  0  0  0
  191.2510  171.5410  143.9210 O   0  0  0  0  0  0  0  0  0  0  0  0
  191.6590  175.9220  144.9430 C   0  0  1  0  0  3  0  0  0  0  0  0
  1 16  2  0  0  0  0
  1 21  1  0  0  0  0
  2  8  1  0  0  0  0
  3 17  2  0  0  0  0
  5 27  2  0  0  0  0
  5 24  1  0  0  0  0
  6  1  1  0  0  0  0
  8 10  1  0  0  0  0
  8 14  1  0  0  0  0
  8  7  1  1  0  0  0
  9 18  1  1  0  0  0
  9 13  1  0  0  0  0
  9 14  1  0  0  0  0
 12 24  1  0  0  0  0
 12 28  1  0  0  0  0
 15 11  1  0  0  0  0
 15 23  1  0  0  0  0
 16 20  1  0  0  0  0
 17  5  1  0  0  0  0
 19 15  1  0  0  0  0
 19 25  1  0  0  0  0
 20  4  2  0  0  0  0
 21 22  2  0  0  0  0
 22  4  1  0  0  0  0
 23  6  1  0  0  0  0
 24 26  1  0  0  0  0
 25 17  1  0  0  0  0
 25 12  1  0  0  0  0
 26 13  1  0  0  0  0
 26 10  1  0  0  0  0
 28 16  1  0  0  0  0
 28 10  1  0  0  0  0
M  END
>  <MODEL>
4

>  <REMARK>
 VINA RESULT:      -8.1      2.968      6.589
  Name = 
  0 active torsions:
  status: ('A' for Active; 'I' for Inactive)
                            x       y       z     vdW  Elec       q    Type
                         _______ _______ _______ _____ _____    ______ ____

>  <TORSDO>
F 0

$$$$
=
 OpenBabel11112417393D

 28 32  0  0  1  0  0  0  0  0999 V2000
  192.1890  174.1260  143.9340 C   0  0  0  0  0  0  0  0  0  0  0  0
  187.9620  175.7420  146.1720 F   0  0  0  0  0  0  0  0  0  0  0  0
  189.4440  173.4540  140.3130 O   0  0  0  0  0  0  0  0  0  0  0  0
  193.1630  176.2910  142.4510 C   0  0  0  0  0  3  0  0  0  0  0  0
  188.3310  175.2180  141.4780 C   0  0  0  0  0  0  0  0  0  0  0  0
  191.6660  173.0330  144.6270 O   0  0  0  0  0  0  0  0  0  0  0  0
  189.5830  177.2510  146.9840 C   0  0  0  0  0  1  0  0  0  0  0  0
  188.6440  176.9040  145.8450 C   0  0  1  0  0  0  0  0  0  0  0  0
  186.8370  177.7920  144.4160 C   0  0  1  0  0  3  0  0  0  0  0  0
  189.4680  176.7300  144.5480 C   0  0  2  0  0  3  0  0  0  0  0  0
  191.6730  171.8750  141.6130 C   0  0  0  0  0  1  0  0  0  0  0  0
  188.9450  174.5000  143.6660 C   0  0  1  0  0  3  0  0  0  0  0  0
  187.6760  177.9370  143.2960 O   0  0  0  0  0  0  0  0  0  0  0  0
  187.6340  178.0290  145.6900 C   0  0  0  0  0  2  0  0  0  0  0  0
  190.9170  171.5040  142.8760 C   0  0  2  0  0  3  0  0  0  0  0  0
  191.4080  175.2830  143.8040 C   0  0  0  0  0  0  0  0  0  0  0  0
  189.1400  174.0360  141.3870 C   0  0  0  0  0  0  0  0  0  0  0  0
  185.7120  178.8020  144.3330 C   0  0  0  0  0  1  0  0  0  0  0  0
  189.5100  172.1190  142.9550 C   0  0  0  0  0  2  0  0  0  0  0  0
  191.9010  176.3590  143.0450 C   0  0  0  0  0  3  0  0  0  0  0  0
  193.4550  174.0590  143.3340 C   0  0  0  0  0  3  0  0  0  0  0  0
  193.9410  175.1410  142.5980 C   0  0  0  0  0  3  0  0  0  0  0  0
  191.7660  171.7030  144.1350 C   0  0  0  0  0  2  0  0  0  0  0  0
  188.0690  175.5280  142.9070 C   0  0  1  0  0  3  0  0  0  0  0  0
  189.4870  173.5560  142.6760 N   0  0  0  0  0  0  0  0  0  0  0  0
  188.6320  176.8930  143.2720 C   0  0  2  0  0  3  0  0  0  0  0  0
  187.8670  175.8580  140.4980 O   0  0  0  0  0  0  0  0  0  0  0  0
  190.0260  175.3120  144.4280 C   0  0  1  0  0  3  0  0  0  0  0  0
  1  6  1  0  0  0  0
  3 17  2  0  0  0  0
  4 22  2  0  0  0  0
  4 20  1  0  0  0  0
  5 24  1  0  0  0  0
  8  2  1  0  0  0  0
  8  7  1  1  0  0  0
  9 18  1  6  0  0  0
  9 14  1  0  0  0  0
 10  8  1  0  0  0  0
 11 15  1  0  0  0  0
 12 28  1  0  0  0  0
 13  9  1  0  0  0  0
 14  8  1  0  0  0  0
 15 19  1  0  0  0  0
 15 23  1  0  0  0  0
 16  1  1  0  0  0  0
 16 28  1  0  0  0  0
 17  5  1  0  0  0  0
 17 25  1  0  0  0  0
 20 16  2  0  0  0  0
 21  1  2  0  0  0  0
 22 21  1  0  0  0  0
 23  6  1  0  0  0  0
 24 26  1  0  0  0  0
 24 12  1  0  0  0  0
 25 19  1  0  0  0  0
 25 12  1  0  0  0  0
 26 13  1  0  0  0  0
 26 10  1  0  0  0  0
 27  5  2  0  0  0  0
 28 10  1  0  0  0  0
M  END
>  <MODEL>
5

>  <REMARK>
 VINA RESULT:      -7.4      1.696      2.232
  Name = 
  0 active torsions:
  status: ('A' for Active; 'I' for Inactive)
                            x       y       z     vdW  Elec       q    Type
                         _______ _______ _______ _____ _____    ______ ____

>  <TORSDO>
F 0

$$$$
=
 OpenBabel11112417393D

 28 32  0  0  1  0  0  0  0  0999 V2000
  187.1250  176.7270  143.7510 C   0  0  0  0  0  0  0  0  0  0  0  0
  189.3160  172.2730  144.6750 F   0  0  0  0  0  0  0  0  0  0  0  0
  189.6910  178.1800  147.2730 O   0  0  0  0  0  0  0  0  0  0  0  0
  188.9360  178.1780  142.1850 C   0  0  0  0  0  3  0  0  0  0  0  0
  190.9760  176.3520  146.4230 C   0  0  0  0  0  0  0  0  0  0  0  0
  186.2530  176.0220  144.5810 O   0  0  0  0  0  0  0  0  0  0  0  0
  189.2440  172.3320  142.3190 C   0  0  0  0  0  1  0  0  0  0  0  0
  189.9890  172.7650  143.5660 C   0  0  1  0  0  0  0  0  0  0  0  0
  192.2000  172.7610  144.6640 C   0  0  1  0  0  3  0  0  0  0  0  0
  190.0730  174.3080  143.5930 C   0  0  2  0  0  3  0  0  0  0  0  0
  186.8290  178.6250  146.4020 C   0  0  0  0  0  1  0  0  0  0  0  0
  189.1130  175.0360  145.7310 C   0  0  1  0  0  3  0  0  0  0  0  0
  192.4260  174.1250  144.4070 O   0  0  0  0  0  0  0  0  0  0  0  0
  191.3800  172.1530  143.5370 C   0  0  0  0  0  2  0  0  0  0  0  0
  186.3290  177.2240  146.7050 C   0  0  2  0  0  3  0  0  0  0  0  0
  188.4170  176.2230  143.5390 C   0  0  0  0  0  0  0  0  0  0  0  0
  189.7570  177.0550  146.7090 C   0  0  0  0  0  0  0  0  0  0  0  0
  193.5290  172.0420  144.7620 C   0  0  0  0  0  1  0  0  0  0  0  0
  187.4300  176.2700  147.1940 C   0  0  0  0  0  2  0  0  0  0  0  0
  189.3230  176.9660  142.7630 C   0  0  0  0  0  3  0  0  0  0  0  0
  186.7410  177.9460  143.1720 C   0  0  0  0  0  3  0  0  0  0  0  0
  187.6440  178.6660  142.3870 C   0  0  0  0  0  3  0  0  0  0  0  0
  185.4630  176.6640  145.5730 C   0  0  0  0  0  2  0  0  0  0  0  0
  190.6540  175.0040  145.8890 C   0  0  1  0  0  3  0  0  0  0  0  0
  188.6250  176.2790  146.3500 N   0  0  0  0  0  0  0  0  0  0  0  0
  191.2050  174.8380  144.4820 C   0  0  2  0  0  3  0  0  0  0  0  0
  192.1360  176.7890  146.6450 O   0  0  0  0  0  0  0  0  0  0  0  0
  188.8180  174.9240  144.2130 C   0  0  1  0  0  3  0  0  0  0  0  0
  1  6  1  0  0  0  0
  4 22  2  0  0  0  0
  4 20  1  0  0  0  0
  5 27  2  0  0  0  0
  5 17  1  0  0  0  0
  6 23  1  0  0  0  0
  8  7  1  6  0  0  0
  8 10  1  0  0  0  0
  8  2  1  0  0  0  0
  9 18  1  6  0  0  0
 10 28  1  0  0  0  0
 10 26  1  0  0  0  0
 11 15  1  0  0  0  0
 12 24  1  0  0  0  0
 12 25  1  0  0  0  0
 13 26  1  0  0  0  0
 13  9  1  0  0  0  0
 14  8  1  0  0  0  0
 14  9  1  0  0  0  0
 15 19  1  0  0  0  0
 16  1  1  0  0  0  0
 16 28  1  0  0  0  0
 17  3  2  0  0  0  0
 20 16  2  0  0  0  0
 21  1  2  0  0  0  0
 22 21  1  0  0  0  0
 23 15  1  0  0  0  0
 24  5  1  0  0  0  0
 25 17  1  0  0  0  0
 25 19  1  0  0  0  0
 26 24  1  0  0  0  0
 28 12  1  0  0  0  0
M  END
>  <MODEL>
6

>  <REMARK>
 VINA RESULT:      -7.2      2.513      6.274
  Name = 
  0 active torsions:
  status: ('A' for Active; 'I' for Inactive)
                            x       y       z     vdW  Elec       q    Type
                         _______ _______ _______ _____ _____    ______ ____

>  <TORSDO>
F 0

$$$$
=
 OpenBabel11112417393D

 28 32  0  0  1  0  0  0  0  0999 V2000
  194.1240  173.9920  145.0080 C   0  0  0  0  0  0  0  0  0  0  0  0
  189.8040  174.9860  147.4240 F   0  0  0  0  0  0  0  0  0  0  0  0
  191.3530  172.7330  141.5680 O   0  0  0  0  0  0  0  0  0  0  0  0
  194.6530  176.2240  143.4050 C   0  0  0  0  0  3  0  0  0  0  0  0
  190.0220  174.3380  142.7360 C   0  0  0  0  0  0  0  0  0  0  0  0
  193.8240  172.8580  145.7630 O   0  0  0  0  0  0  0  0  0  0  0  0
  191.1910  176.7710  148.0960 C   0  0  0  0  0  1  0  0  0  0  0  0
  190.2680  176.2300  147.0220 C   0  0  1  0  0  0  0  0  0  0  0  0
  188.2700  176.7520  145.6680 C   0  0  1  0  0  3  0  0  0  0  0  0
  191.0440  176.1400  145.6880 C   0  0  2  0  0  3  0  0  0  0  0  0
  193.8730  171.5940  142.7920 C   0  0  0  0  0  1  0  0  0  0  0  0
  190.8540  173.8210  144.9090 C   0  0  1  0  0  3  0  0  0  0  0  0
  189.0180  176.9860  144.4990 O   0  0  0  0  0  0  0  0  0  0  0  0
  189.0790  177.1670  146.8880 C   0  0  0  0  0  2  0  0  0  0  0  0
  193.2520  171.1560  144.1070 C   0  0  2  0  0  3  0  0  0  0  0  0
  193.1570  175.0000  144.8840 C   0  0  0  0  0  0  0  0  0  0  0  0
  191.0100  173.3010  142.6390 C   0  0  0  0  0  0  0  0  0  0  0  0
  186.9910  177.5600  145.6160 C   0  0  0  0  0  1  0  0  0  0  0  0
  191.7680  171.5360  144.2440 C   0  0  0  0  0  2  0  0  0  0  0  0
  193.4270  176.1100  144.0650 C   0  0  0  0  0  3  0  0  0  0  0  0
  195.3520  174.1070  144.3410 C   0  0  0  0  0  3  0  0  0  0  0  0
  195.6160  175.2240  143.5450 C   0  0  0  0  0  3  0  0  0  0  0  0
  194.1170  171.5430  145.3100 C   0  0  0  0  0  2  0  0  0  0  0  0
  189.7830  174.6600  144.1670 C   0  0  1  0  0  3  0  0  0  0  0  0
  191.4940  172.9370  143.9210 N   0  0  0  0  0  0  0  0  0  0  0  0
  190.1300  176.1120  144.4560 C   0  0  2  0  0  3  0  0  0  0  0  0
  189.4110  174.8540  141.7630 O   0  0  0  0  0  0  0  0  0  0  0  0
  191.8220  174.8280  145.5830 C   0  0  1  0  0  3  0  0  0  0  0  0
  1  6  1  0  0  0  0
  3 17  2  0  0  0  0
  4 22  2  0  0  0  0
  4 20  1  0  0  0  0
  5 24  1  0  0  0  0
  8  2  1  0  0  0  0
  8  7  1  1  0  0  0
  9 18  1  6  0  0  0
  9 14  1  0  0  0  0
 10  8  1  0  0  0  0
 11 15  1  0  0  0  0
 12 28  1  0  0  0  0
 13  9  1  0  0  0  0
 14  8  1  0  0  0  0
 15 19  1  0  0  0  0
 15 23  1  0  0  0  0
 16  1  1  0  0  0  0
 16 28  1  0  0  0  0
 17  5  1  0  0  0  0
 17 25  1  0  0  0  0
 20 16  2  0  0  0  0
 21  1  2  0  0  0  0
 22 21  1  0  0  0  0
 23  6  1  0  0  0  0
 24 26  1  0  0  0  0
 24 12  1  0  0  0  0
 25 19  1  0  0  0  0
 25 12  1  0  0  0  0
 26 13  1  0  0  0  0
 26 10  1  0  0  0  0
 27  5  2  0  0  0  0
 28 10  1  0  0  0  0
M  END
>  <MODEL>
7

>  <REMARK>
 VINA RESULT:      -7.2      2.688      4.000
  Name = 
  0 active torsions:
  status: ('A' for Active; 'I' for Inactive)
                            x       y       z     vdW  Elec       q    Type
                         _______ _______ _______ _____ _____    ______ ____

>  <TORSDO>
F 0

$$$$
=
 OpenBabel11112417393D

 28 32  0  0  1  0  0  0  0  0999 V2000
  192.1140  173.8960  142.5770 C   0  0  0  0  0  0  0  0  0  0  0  0
  188.7180  177.4970  143.5690 F   0  0  0  0  0  0  0  0  0  0  0  0
  194.0570  175.3190  146.4880 O   0  0  0  0  0  0  0  0  0  0  0  0
  191.3500  171.6650  144.0850 C   0  0  0  0  0  3  0  0  0  0  0  0
  191.7590  175.8830  146.8240 C   0  0  0  0  0  0  0  0  0  0  0  0
  192.5240  175.0300  141.8740 O   0  0  0  0  0  0  0  0  0  0  0  0
  187.3810  175.7490  142.7210 C   0  0  0  0  0  1  0  0  0  0  0  0
  188.0870  176.3180  143.9360 C   0  0  1  0  0  0  0  0  0  0  0  0
  187.7630  176.9970  146.2880 C   0  0  1  0  0  3  0  0  0  0  0  0
  189.0990  175.2760  144.4650 C   0  0  2  0  0  3  0  0  0  0  0  0
  195.1000  174.5390  143.7580 C   0  0  0  0  0  1  0  0  0  0  0  0
  191.2870  176.3840  144.5420 C   0  0  1  0  0  3  0  0  0  0  0  0
  188.4230  175.8630  146.7960 O   0  0  0  0  0  0  0  0  0  0  0  0
  187.0450  176.6390  144.9960 C   0  0  0  0  0  2  0  0  0  0  0  0
  194.5640  175.7460  143.0100 C   0  0  2  0  0  3  0  0  0  0  0  0
  191.0800  174.0170  143.5160 C   0  0  0  0  0  0  0  0  0  0  0  0
  192.9380  175.6760  146.0320 C   0  0  0  0  0  0  0  0  0  0  0  0
  186.7530  177.4860  147.3040 C   0  0  0  0  0  1  0  0  0  0  0  0
  193.7310  176.6950  143.8860 C   0  0  0  0  0  2  0  0  0  0  0  0
  190.7140  172.8940  144.2780 C   0  0  0  0  0  3  0  0  0  0  0  0
  192.7540  172.6620  142.3870 C   0  0  0  0  0  3  0  0  0  0  0  0
  192.3680  171.5490  143.1370 C   0  0  0  0  0  3  0  0  0  0  0  0
  193.8950  175.3550  141.6890 C   0  0  0  0  0  2  0  0  0  0  0  0
  190.6790  176.4360  145.9660 C   0  0  1  0  0  3  0  0  0  0  0  0
  192.7050  176.0090  144.6730 N   0  0  0  0  0  0  0  0  0  0  0  0
  189.4840  175.4960  145.9340 C   0  0  2  0  0  3  0  0  0  0  0  0
  191.6710  175.6800  148.0640 O   0  0  0  0  0  0  0  0  0  0  0  0
  190.4360  175.3730  143.7300 C   0  0  1  0  0  3  0  0  0  0  0  0
  1 16  1  0  0  0  0
  2  8  1  0  0  0  0
  4 20  1  0  0  0  0
  5 27  2  0  0  0  0
  6  1  1  0  0  0  0
  8  7  1  6  0  0  0
  8 10  1  0  0  0  0
  8 14  1  0  0  0  0
  9 13  1  0  0  0  0
  9 18  1  1  0  0  0
 10 26  1  0  0  0  0
 12 25  1  0  0  0  0
 12 24  1  0  0  0  0
 14  9  1  0  0  0  0
 15 11  1  0  0  0  0
 15 19  1  0  0  0  0
 16 28  1  0  0  0  0
 16 20  2  0  0  0  0
 17  3  2  0  0  0  0
 17  5  1  0  0  0  0
 19 25  1  0  0  0  0
 21  1  2  0  0  0  0
 21 22  1  0  0  0  0
 22  4  2  0  0  0  0
 23  6  1  0  0  0  0
 23 15  1  0  0  0  0
 24  5  1  0  0  0  0
 25 17  1  0  0  0  0
 26 24  1  0  0  0  0
 26 13  1  0  0  0  0
 28 10  1  0  0  0  0
 28 12  1  0  0  0  0
M  END
>  <MODEL>
8

>  <REMARK>
 VINA RESULT:      -7.2      2.686      5.112
  Name = 
  0 active torsions:
  status: ('A' for Active; 'I' for Inactive)
                            x       y       z     vdW  Elec       q    Type
                         _______ _______ _______ _____ _____    ______ ____

>  <TORSDO>
F 0

$$$$
=
 OpenBabel11112417393D

 28 32  0  0  1  0  0  0  0  0999 V2000
  190.5010  176.0150  145.1030 C   0  0  0  0  0  0  0  0  0  0  0  0
  192.6930  173.3100  141.4460 F   0  0  0  0  0  0  0  0  0  0  0  0
  186.6960  175.4290  142.5970 O   0  0  0  0  0  0  0  0  0  0  0  0
  189.3160  174.1660  146.8390 C   0  0  0  0  0  3  0  0  0  0  0  0
  187.9930  173.5080  142.0150 C   0  0  0  0  0  0  0  0  0  0  0  0
  191.0410  176.9330  144.2030 O   0  0  0  0  0  0  0  0  0  0  0  0
  193.7450  172.4930  143.3930 C   0  0  0  0  0  1  0  0  0  0  0  0
  192.5300  172.4110  142.4900 C   0  0  1  0  0  0  0  0  0  0  0  0
  191.1210  170.8580  141.1870 C   0  0  1  0  0  3  0  0  0  0  0  0
  191.2640  172.7290  143.3180 C   0  0  2  0  0  3  0  0  0  0  0  0
  187.9220  177.7580  144.0870 C   0  0  0  0  0  1  0  0  0  0  0  0
  190.1160  174.5780  142.1840 C   0  0  1  0  0  3  0  0  0  0  0  0
  190.0660  170.8970  142.1180 O   0  0  0  0  0  0  0  0  0  0  0  0
  192.4510  171.0090  141.9090 C   0  0  0  0  0  2  0  0  0  0  0  0
  189.0970  177.9720  143.1500 C   0  0  2  0  0  3  0  0  0  0  0  0
  190.4610  174.6590  144.7480 C   0  0  0  0  0  0  0  0  0  0  0  0
  187.8120  174.8770  142.4080 C   0  0  0  0  0  0  0  0  0  0  0  0
  191.0950  169.5320  140.4560 C   0  0  0  0  0  1  0  0  0  0  0  0
  189.1740  176.9400  142.0140 C   0  0  0  0  0  2  0  0  0  0  0  0
  189.8510  173.7410  145.6200 C   0  0  0  0  0  3  0  0  0  0  0  0
  189.9600  176.4390  146.3260 C   0  0  0  0  0  3  0  0  0  0  0  0
  189.3740  175.5150  147.1930 C   0  0  0  0  0  3  0  0  0  0  0  0
  190.4110  178.1740  143.9110 C   0  0  0  0  0  2  0  0  0  0  0  0
  189.4330  173.2570  141.7490 C   0  0  1  0  0  3  0  0  0  0  0  0
  189.0560  175.5560  142.4750 N   0  0  0  0  0  0  0  0  0  0  0  0
  189.9740  172.1900  142.6870 C   0  0  2  0  0  3  0  0  0  0  0  0
  187.0680  172.6670  141.8640 O   0  0  0  0  0  0  0  0  0  0  0  0
  191.0150  174.2360  143.4010 C   0  0  1  0  0  3  0  0  0  0  0  0
  1 21  1  0  0  0  0
  2  8  1  0  0  0  0
  4 22  1  0  0  0  0
  5 17  1  0  0  0  0
  6  1  1  0  0  0  0
  8 10  1  0  0  0  0
  8  7  1  1  0  0  0
  9 18  1  1  0  0  0
  9 14  1  0  0  0  0
  9 13  1  0  0  0  0
 10 28  1  0  0  0  0
 12 25  1  0  0  0  0
 12 28  1  0  0  0  0
 13 26  1  0  0  0  0
 14  8  1  0  0  0  0
 15 23  1  0  0  0  0
 15 11  1  0  0  0  0
 16  1  2  0  0  0  0
 16 20  1  0  0  0  0
 17 25  1  0  0  0  0
 17  3  2  0  0  0  0
 19 25  1  0  0  0  0
 19 15  1  0  0  0  0
 20  4  2  0  0  0  0
 21 22  2  0  0  0  0
 23  6  1  0  0  0  0
 24  5  1  0  0  0  0
 24 12  1  0  0  0  0
 24 26  1  0  0  0  0
 26 10  1  0  0  0  0
 27  5  2  0  0  0  0
 28 16  1  0  0  0  0
M  END
>  <MODEL>
9

>  <REMARK>
 VINA RESULT:      -7.0      2.758      6.198
  Name = 
  0 active torsions:
  status: ('A' for Active; 'I' for Inactive)
                            x       y       z     vdW  Elec       q    Type
                         _______ _______ _______ _____ _____    ______ ____

>  <TORSDO>
F 0

$$$$
