=
 OpenBabel11112416153D

 30 35  0  0  1  0  0  0  0  0999 V2000
  188.3370  175.8300  143.5750 C   0  0  0  0  0  0  0  0  0  0  0  0
  186.0760  176.8030  143.9530 C   0  0  0  0  0  0  0  0  0  0  0  0
  189.8330  177.3350  147.2580 C   0  0  0  0  0  2  0  0  0  0  0  0
  189.6570  175.6390  144.0080 C   0  0  0  0  0  0  0  0  0  0  0  0
  187.9820  175.1510  142.2950 C   0  0  0  0  0  2  0  0  0  0  0  0
  190.2220  172.2790  143.0410 C   0  0  0  0  0  1  0  0  0  0  0  0
  192.5840  176.1710  143.5730 C   0  0  1  0  0  3  0  0  0  0  0  0
  189.8800  173.6460  142.4610 C   0  0  1  0  0  3  0  0  0  0  0  0
  192.5450  176.6020  145.0260 C   0  0  2  0  0  3  0  0  0  0  0  0
  191.2270  176.6900  147.1530 C   0  0  1  0  0  3  0  0  0  0  0  0
  188.4110  173.7580  142.3660 N   0  0  0  0  0  0  0  0  0  0  0  0
  190.4960  174.7110  143.2900 N   0  0  0  0  0  0  0  0  0  0  0  0
  185.2080  177.5290  144.7760 C   0  0  0  0  0  3  0  0  0  0  0  0
  193.8040  176.0240  145.5760 C   0  0  0  0  0  2  0  0  0  0  0  0
  193.9380  176.1340  143.1830 O   0  0  0  0  0  0  0  0  0  0  0  0
  185.5890  176.3210  142.7830 F   0  0  0  0  0  0  0  0  0  0  0  0
  189.1770  176.9250  145.9900 C   0  0  0  0  0  0  0  0  0  0  0  0
  185.6490  178.0470  145.9930 C   0  0  0  0  0  3  0  0  0  0  0  0
  187.4160  176.5870  144.3500 C   0  0  0  0  0  0  0  0  0  0  0  0
  190.0650  176.2510  145.2000 C   0  0  0  0  0  0  0  0  0  0  0  0
  191.3230  175.5320  148.1310 C   0  0  0  0  0  1  0  0  0  0  0  0
  191.3600  176.1890  145.7820 N   0  0  0  0  0  0  0  0  0  0  0  0
  194.7090  176.0130  144.3620 C   0  0  0  0  0  2  0  0  0  0  0  0
  192.6550  173.8330  143.0680 O   0  0  0  0  0  0  0  0  0  0  0  0
  186.9660  177.8470  146.4020 C   0  0  0  0  0  3  0  0  0  0  0  0
  187.8520  177.1280  145.5940 C   0  0  0  0  0  0  0  0  0  0  0  0
  191.9310  174.8380  143.3090 C   0  0  0  0  0  0  0  0  0  0  0  0
  188.0110  173.1430  141.1100 C   0  0  0  0  0  2  0  0  0  0  0  0
  188.5570  172.7190  138.5920 C   0  0  0  0  0  1  0  0  0  0  0  0
  188.6170  174.1390  139.7180 S   0  0  0  0  0  0  0  0  0  0  0  0
  1  4  2  0  0  0  0
  1 19  1  0  0  0  0
  2 19  2  0  0  0  0
  2 13  1  0  0  0  0
  4 20  1  0  0  0  0
  5 11  1  0  0  0  0
  5  1  1  0  0  0  0
  7 15  1  1  0  0  0
  7  9  1  0  0  0  0
  8  6  1  1  0  0  0
  8 12  1  0  0  0  0
  9 14  1  1  0  0  0
  9 22  1  0  0  0  0
 10  3  1  0  0  0  0
 10 21  1  1  0  0  0
 11  8  1  0  0  0  0
 12 27  1  0  0  0  0
 12  4  1  0  0  0  0
 13 18  2  0  0  0  0
 15 23  1  0  0  0  0
 16  2  1  0  0  0  0
 17  3  1  0  0  0  0
 18 25  1  0  0  0  0
 19 26  1  0  0  0  0
 20 22  1  0  0  0  0
 20 17  2  0  0  0  0
 22 10  1  0  0  0  0
 23 14  1  0  0  0  0
 24 27  2  0  0  0  0
 26 17  1  0  0  0  0
 26 25  2  0  0  0  0
 27  7  1  0  0  0  0
 28 11  1  0  0  0  0
 29 30  1  0  0  0  0
 30 28  1  0  0  0  0
M  END
>  <MODEL>
1

>  <REMARK>
 VINA RESULT:      -8.4      0.000      0.000
  Name = 
  2 active torsions:
  status: ('A' for Active; 'I' for Inactive)
    1  A    between atoms: N_11  and  C_28
    2  A    between atoms: C_28  and  S_30
                            x       y       z     vdW  Elec       q    Type
                         _______ _______ _______ _____ _____    ______ ____

>  <TORSDO>
F 2

$$$$
=
 OpenBabel11112416153D

 30 35  0  0  1  0  0  0  0  0999 V2000
  187.8440  177.0890  142.6990 C   0  0  0  0  0  0  0  0  0  0  0  0
  185.9030  178.6400  142.8770 C   0  0  0  0  0  0  0  0  0  0  0  0
  188.4340  177.0060  146.9080 C   0  0  0  0  0  2  0  0  0  0  0  0
  188.8670  176.3590  143.3200 C   0  0  0  0  0  0  0  0  0  0  0  0
  187.7510  176.9210  141.2200 C   0  0  0  0  0  2  0  0  0  0  0  0
  188.8370  173.3710  141.4190 C   0  0  0  0  0  1  0  0  0  0  0  0
  191.8160  175.9600  143.7490 C   0  0  1  0  0  3  0  0  0  0  0  0
  189.0530  174.8730  141.2780 C   0  0  1  0  0  3  0  0  0  0  0  0
  191.4320  175.9930  145.2160 C   0  0  2  0  0  3  0  0  0  0  0  0
  189.5790  175.9760  146.8990 C   0  0  1  0  0  3  0  0  0  0  0  0
  187.7670  175.4960  140.9050 N   0  0  0  0  0  0  0  0  0  0  0  0
  189.6250  175.4170  142.5330 N   0  0  0  0  0  0  0  0  0  0  0  0
  185.0340  179.3810  143.6840 C   0  0  0  0  0  3  0  0  0  0  0  0
  192.2650  174.9030  145.7990 C   0  0  0  0  0  2  0  0  0  0  0  0
  193.1680  175.5680  143.6790 O   0  0  0  0  0  0  0  0  0  0  0  0
  185.7050  178.6660  141.5360 F   0  0  0  0  0  0  0  0  0  0  0  0
  188.1300  177.1800  145.4640 C   0  0  0  0  0  0  0  0  0  0  0  0
  185.1860  179.3900  145.0700 C   0  0  0  0  0  3  0  0  0  0  0  0
  186.9500  177.8890  143.4620 C   0  0  0  0  0  0  0  0  0  0  0  0
  189.0200  176.4700  144.7080 C   0  0  0  0  0  0  0  0  0  0  0  0
  189.0660  174.6460  147.4200 C   0  0  0  0  0  1  0  0  0  0  0  0
  190.0060  175.8270  145.5050 N   0  0  0  0  0  0  0  0  0  0  0  0
  193.4710  174.8960  144.8850 C   0  0  0  0  0  2  0  0  0  0  0  0
  191.4480  173.9480  142.5080 O   0  0  0  0  0  0  0  0  0  0  0  0
  186.2110  178.6580  145.6670 C   0  0  0  0  0  3  0  0  0  0  0  0
  187.0940  177.9130  144.8780 C   0  0  0  0  0  0  0  0  0  0  0  0
  190.9640  175.0410  142.9100 C   0  0  0  0  0  0  0  0  0  0  0  0
  187.6410  175.3950  139.4590 C   0  0  0  0  0  2  0  0  0  0  0  0
  186.5670  176.0480  137.1700 C   0  0  0  0  0  1  0  0  0  0  0  0
  186.6230  176.7630  138.8350 S   0  0  0  0  0  0  0  0  0  0  0  0
  1  4  2  0  0  0  0
  1 19  1  0  0  0  0
  2 19  2  0  0  0  0
  2 13  1  0  0  0  0
  4 20  1  0  0  0  0
  5  1  1  0  0  0  0
  7 27  1  6  0  0  0
  7  9  1  0  0  0  0
  8  6  1  1  0  0  0
  8 12  1  0  0  0  0
  9 22  1  0  0  0  0
  9 14  1  1  0  0  0
 10  3  1  0  0  0  0
 10 21  1  6  0  0  0
 11  5  1  0  0  0  0
 11  8  1  0  0  0  0
 12 27  1  0  0  0  0
 12  4  1  0  0  0  0
 13 18  2  0  0  0  0
 15  7  1  0  0  0  0
 15 23  1  0  0  0  0
 16  2  1  0  0  0  0
 17  3  1  0  0  0  0
 18 25  1  0  0  0  0
 19 26  1  0  0  0  0
 20 17  2  0  0  0  0
 20 22  1  0  0  0  0
 22 10  1  0  0  0  0
 23 14  1  0  0  0  0
 24 27  2  0  0  0  0
 26 17  1  0  0  0  0
 26 25  2  0  0  0  0
 28 11  1  0  0  0  0
 29 30  1  0  0  0  0
 30 28  1  0  0  0  0
M  END
>  <MODEL>
2

>  <REMARK>
 VINA RESULT:      -8.3      1.858      1.976
  Name = 
  2 active torsions:
  status: ('A' for Active; 'I' for Inactive)
    1  A    between atoms: N_11  and  C_28
    2  A    between atoms: C_28  and  S_30
                            x       y       z     vdW  Elec       q    Type
                         _______ _______ _______ _____ _____    ______ ____

>  <TORSDO>
F 2

$$$$
=
 OpenBabel11112416153D

 30 35  0  0  1  0  0  0  0  0999 V2000
  188.2140  175.9760  142.0290 C   0  0  0  0  0  0  0  0  0  0  0  0
  186.5810  176.9770  140.4360 C   0  0  0  0  0  0  0  0  0  0  0  0
  186.6680  178.1720  145.3240 C   0  0  0  0  0  2  0  0  0  0  0  0
  188.7340  175.8870  143.3280 C   0  0  0  0  0  0  0  0  0  0  0  0
  188.8390  175.0630  141.0290 C   0  0  0  0  0  2  0  0  0  0  0  0
  189.3670  172.4120  143.5820 C   0  0  0  0  0  1  0  0  0  0  0  0
  191.0500  176.3610  145.1850 C   0  0  1  0  0  3  0  0  0  0  0  0
  189.7570  173.6390  142.7680 C   0  0  1  0  0  3  0  0  0  0  0  0
  190.0050  177.0600  146.0320 C   0  0  2  0  0  3  0  0  0  0  0  0
  187.5740  177.5350  146.3940 C   0  0  1  0  0  3  0  0  0  0  0  0
  188.8790  173.7130  141.5840 N   0  0  0  0  0  0  0  0  0  0  0  0
  189.6920  174.8490  143.6230 N   0  0  0  0  0  0  0  0  0  0  0  0
  185.5000  177.8350  140.2130 C   0  0  0  0  0  3  0  0  0  0  0  0
  190.3460  176.6120  147.4130 C   0  0  0  0  0  2  0  0  0  0  0  0
  192.2230  176.2670  145.9600 O   0  0  0  0  0  0  0  0  0  0  0  0
  187.0650  176.2750  139.3810 F   0  0  0  0  0  0  0  0  0  0  0  0
  187.1230  177.5210  144.0690 C   0  0  0  0  0  0  0  0  0  0  0  0
  184.9570  178.5810  141.2590 C   0  0  0  0  0  3  0  0  0  0  0  0
  187.1380  176.8560  141.7310 C   0  0  0  0  0  0  0  0  0  0  0  0
  188.2010  176.7190  144.3200 C   0  0  0  0  0  0  0  0  0  0  0  0
  186.7550  176.5860  147.2490 C   0  0  0  0  0  1  0  0  0  0  0  0
  188.6100  176.7840  145.6800 N   0  0  0  0  0  0  0  0  0  0  0  0
  191.8390  176.3810  147.3160 C   0  0  0  0  0  2  0  0  0  0  0  0
  191.1550  173.9710  145.2260 O   0  0  0  0  0  0  0  0  0  0  0  0
  185.4910  178.4780  142.5430 C   0  0  0  0  0  3  0  0  0  0  0  0
  186.5750  177.6280  142.7870 C   0  0  0  0  0  0  0  0  0  0  0  0
  190.6370  174.9940  144.7010 C   0  0  0  0  0  0  0  0  0  0  0  0
  189.4650  172.8660  140.5570 C   0  0  0  0  0  2  0  0  0  0  0  0
  189.8720  173.2110  138.0010 C   0  0  0  0  0  1  0  0  0  0  0  0
  188.4330  172.9110  139.0630 S   0  0  0  0  0  0  0  0  0  0  0  0
  1  4  1  0  0  0  0
  2 19  1  0  0  0  0
  3 10  1  0  0  0  0
  4 12  1  0  0  0  0
  4 20  2  0  0  0  0
  5 11  1  0  0  0  0
  5  1  1  0  0  0  0
  7 27  1  1  0  0  0
  7 15  1  0  0  0  0
  7  9  1  0  0  0  0
  8  6  1  1  0  0  0
  8 12  1  0  0  0  0
  9 14  1  1  0  0  0
 10 21  1  1  0  0  0
 11  8  1  0  0  0  0
 12 27  1  0  0  0  0
 13  2  2  0  0  0  0
 13 18  1  0  0  0  0
 15 23  1  0  0  0  0
 16  2  1  0  0  0  0
 17 20  1  0  0  0  0
 17  3  1  0  0  0  0
 18 25  2  0  0  0  0
 19  1  2  0  0  0  0
 19 26  1  0  0  0  0
 20 22  1  0  0  0  0
 22  9  1  0  0  0  0
 22 10  1  0  0  0  0
 23 14  1  0  0  0  0
 25 26  1  0  0  0  0
 26 17  2  0  0  0  0
 27 24  2  0  0  0  0
 28 11  1  0  0  0  0
 29 30  1  0  0  0  0
 30 28  1  0  0  0  0
M  END
>  <MODEL>
3

>  <REMARK>
 VINA RESULT:      -8.1      1.915      2.942
  Name = 
  2 active torsions:
  status: ('A' for Active; 'I' for Inactive)
    1  A    between atoms: N_11  and  C_28
    2  A    between atoms: C_28  and  S_30
                            x       y       z     vdW  Elec       q    Type
                         _______ _______ _______ _____ _____    ______ ____

>  <TORSDO>
F 2

$$$$
=
 OpenBabel11112416153D

 30 35  0  0  1  0  0  0  0  0999 V2000
  186.7990  177.8420  143.8380 C   0  0  0  0  0  0  0  0  0  0  0  0
  184.7610  178.8020  144.8990 C   0  0  0  0  0  0  0  0  0  0  0  0
  188.2920  176.3740  147.5370 C   0  0  0  0  0  2  0  0  0  0  0  0
  188.0170  177.1590  143.9620 C   0  0  0  0  0  0  0  0  0  0  0  0
  186.4100  178.2010  142.4440 C   0  0  0  0  0  2  0  0  0  0  0  0
  187.9590  175.1110  141.0730 C   0  0  0  0  0  1  0  0  0  0  0  0
  191.0150  177.2330  143.7480 C   0  0  1  0  0  3  0  0  0  0  0  0
  187.9450  176.5740  141.4990 C   0  0  1  0  0  3  0  0  0  0  0  0
  190.9570  176.6600  145.1510 C   0  0  2  0  0  3  0  0  0  0  0  0
  189.5300  175.6680  146.9540 C   0  0  1  0  0  3  0  0  0  0  0  0
  186.5400  177.0180  141.5980 N   0  0  0  0  0  0  0  0  0  0  0  0
  188.7010  176.7350  142.7640 N   0  0  0  0  0  0  0  0  0  0  0  0
  184.0000  179.0140  146.0540 C   0  0  0  0  0  3  0  0  0  0  0  0
  192.0280  175.6230  145.1290 C   0  0  0  0  0  2  0  0  0  0  0  0
  192.3580  177.1720  143.3270 O   0  0  0  0  0  0  0  0  0  0  0  0
  184.2750  179.2680  143.7220 F   0  0  0  0  0  0  0  0  0  0  0  0
  187.6630  176.9900  146.3410 C   0  0  0  0  0  0  0  0  0  0  0  0
  184.4450  178.5560  147.2930 C   0  0  0  0  0  3  0  0  0  0  0  0
  185.9960  178.1180  144.9790 C   0  0  0  0  0  0  0  0  0  0  0  0
  188.4510  176.7930  145.2430 C   0  0  0  0  0  0  0  0  0  0  0  0
  189.3160  174.1660  146.9850 C   0  0  0  0  0  1  0  0  0  0  0  0
  189.6600  176.1180  145.5650 N   0  0  0  0  0  0  0  0  0  0  0  0
  192.9990  176.1880  144.1130 C   0  0  0  0  0  2  0  0  0  0  0  0
  190.6470  175.7700  141.8910 O   0  0  0  0  0  0  0  0  0  0  0  0
  185.6610  177.8800  147.3930 C   0  0  0  0  0  3  0  0  0  0  0  0
  186.4400  177.6610  146.2530 C   0  0  0  0  0  0  0  0  0  0  0  0
  190.1260  176.5250  142.7570 C   0  0  0  0  0  0  0  0  0  0  0  0
  186.1180  177.4190  140.2650 C   0  0  0  0  0  2  0  0  0  0  0  0
  183.5120  177.5410  140.1380 C   0  0  0  0  0  1  0  0  0  0  0  0
  184.8620  178.7250  140.3870 S   0  0  0  0  0  0  0  0  0  0  0  0
  1  4  2  0  0  0  0
  1 19  1  0  0  0  0
  2 19  2  0  0  0  0
  2 13  1  0  0  0  0
  4 20  1  0  0  0  0
  5  1  1  0  0  0  0
  7 27  1  6  0  0  0
  7  9  1  0  0  0  0
  8  6  1  1  0  0  0
  8 11  1  0  0  0  0
  8 12  1  0  0  0  0
  9 14  1  6  0  0  0
  9 22  1  0  0  0  0
 10 21  1  6  0  0  0
 10  3  1  0  0  0  0
 11  5  1  0  0  0  0
 12  4  1  0  0  0  0
 13 18  2  0  0  0  0
 15  7  1  0  0  0  0
 15 23  1  0  0  0  0
 16  2  1  0  0  0  0
 17  3  1  0  0  0  0
 18 25  1  0  0  0  0
 19 26  1  0  0  0  0
 20 22  1  0  0  0  0
 20 17  2  0  0  0  0
 22 10  1  0  0  0  0
 23 14  1  0  0  0  0
 24 27  2  0  0  0  0
 26 17  1  0  0  0  0
 26 25  2  0  0  0  0
 27 12  1  0  0  0  0
 28 30  1  0  0  0  0
 28 11  1  0  0  0  0
 29 30  1  0  0  0  0
M  END
>  <MODEL>
4

>  <REMARK>
 VINA RESULT:      -8.0      2.351      3.036
  Name = 
  2 active torsions:
  status: ('A' for Active; 'I' for Inactive)
    1  A    between atoms: N_11  and  C_28
    2  A    between atoms: C_28  and  S_30
                            x       y       z     vdW  Elec       q    Type
                         _______ _______ _______ _____ _____    ______ ____

>  <TORSDO>
F 2

$$$$
=
 OpenBabel11112416153D

 30 35  0  0  1  0  0  0  0  0999 V2000
  188.2490  175.8620  142.3240 C   0  0  0  0  0  0  0  0  0  0  0  0
  186.3140  177.3650  141.8790 C   0  0  0  0  0  0  0  0  0  0  0  0
  188.4760  177.0140  146.4100 C   0  0  0  0  0  2  0  0  0  0  0  0
  189.2090  175.3610  143.2150 C   0  0  0  0  0  0  0  0  0  0  0  0
  188.2820  175.2700  140.9550 C   0  0  0  0  0  2  0  0  0  0  0  0
  189.3160  171.9500  142.2690 C   0  0  0  0  0  1  0  0  0  0  0  0
  192.1060  175.1530  143.9890 C   0  0  1  0  0  3  0  0  0  0  0  0
  189.5560  173.3500  141.7160 C   0  0  1  0  0  3  0  0  0  0  0  0
  191.5990  175.6040  145.3450 C   0  0  2  0  0  3  0  0  0  0  0  0
  189.6080  176.0450  146.7980 C   0  0  1  0  0  3  0  0  0  0  0  0
  188.3130  173.8160  141.0710 N   0  0  0  0  0  0  0  0  0  0  0  0
  190.0240  174.2440  142.8030 N   0  0  0  0  0  0  0  0  0  0  0  0
  185.3850  178.2940  142.3600 C   0  0  0  0  0  3  0  0  0  0  0  0
  192.3690  174.7440  146.2880 C   0  0  0  0  0  2  0  0  0  0  0  0
  193.4560  174.7800  144.1500 O   0  0  0  0  0  0  0  0  0  0  0  0
  186.2310  176.9980  140.5760 F   0  0  0  0  0  0  0  0  0  0  0  0
  188.2980  176.7570  144.9580 C   0  0  0  0  0  0  0  0  0  0  0  0
  185.4170  178.7080  143.6910 C   0  0  0  0  0  3  0  0  0  0  0  0
  187.3000  176.8340  142.7430 C   0  0  0  0  0  0  0  0  0  0  0  0
  189.2430  175.8730  144.5190 C   0  0  0  0  0  0  0  0  0  0  0  0
  189.0410  174.9160  147.6380 C   0  0  0  0  0  1  0  0  0  0  0  0
  190.1510  175.5050  145.5480 N   0  0  0  0  0  0  0  0  0  0  0  0
  193.6490  174.4920  145.5200 C   0  0  0  0  0  2  0  0  0  0  0  0
  191.8290  172.8610  143.3600 O   0  0  0  0  0  0  0  0  0  0  0  0
  186.3820  178.1980  144.5590 C   0  0  0  0  0  3  0  0  0  0  0  0
  187.3220  177.2710  144.0990 C   0  0  0  0  0  0  0  0  0  0  0  0
  191.3220  174.0160  143.3840 C   0  0  0  0  0  0  0  0  0  0  0  0
  188.3100  173.2970  139.7120 C   0  0  0  0  0  2  0  0  0  0  0  0
  189.3250  173.7910  137.3570 C   0  0  0  0  0  1  0  0  0  0  0  0
  189.9790  173.4160  139.0060 S   0  0  0  0  0  0  0  0  0  0  0  0
  1 19  2  0  0  0  0
  1  4  1  0  0  0  0
  2 13  2  0  0  0  0
  2 19  1  0  0  0  0
  3 10  1  0  0  0  0
  4 20  2  0  0  0  0
  5 11  1  0  0  0  0
  5  1  1  0  0  0  0
  7 27  1  1  0  0  0
  7 15  1  0  0  0  0
  7  9  1  0  0  0  0
  8  6  1  1  0  0  0
  8 12  1  0  0  0  0
  9 22  1  0  0  0  0
  9 14  1  1  0  0  0
 10 21  1  1  0  0  0
 11  8  1  0  0  0  0
 12  4  1  0  0  0  0
 12 27  1  0  0  0  0
 13 18  1  0  0  0  0
 15 23  1  0  0  0  0
 16  2  1  0  0  0  0
 17  3  1  0  0  0  0
 18 25  2  0  0  0  0
 19 26  1  0  0  0  0
 20 17  1  0  0  0  0
 20 22  1  0  0  0  0
 22 10  1  0  0  0  0
 23 14  1  0  0  0  0
 24 27  2  0  0  0  0
 26 25  1  0  0  0  0
 26 17  2  0  0  0  0
 28 11  1  0  0  0  0
 29 30  1  0  0  0  0
 30 28  1  0  0  0  0
M  END
>  <MODEL>
5

>  <REMARK>
 VINA RESULT:      -7.9      1.473      1.673
  Name = 
  2 active torsions:
  status: ('A' for Active; 'I' for Inactive)
    1  A    between atoms: N_11  and  C_28
    2  A    between atoms: C_28  and  S_30
                            x       y       z     vdW  Elec       q    Type
                         _______ _______ _______ _____ _____    ______ ____

>  <TORSDO>
F 2

$$$$
=
 OpenBabel11112416153D

 30 35  0  0  1  0  0  0  0  0999 V2000
  189.3180  176.4630  145.1340 C   0  0  0  0  0  0  0  0  0  0  0  0
  188.1090  177.5940  146.9960 C   0  0  0  0  0  0  0  0  0  0  0  0
  186.0910  177.0160  142.4220 C   0  0  0  0  0  2  0  0  0  0  0  0
  189.3380  176.0090  143.8080 C   0  0  0  0  0  0  0  0  0  0  0  0
  190.5790  176.2480  145.9000 C   0  0  0  0  0  2  0  0  0  0  0  0
  192.6670  176.7680  142.8680 C   0  0  0  0  0  1  0  0  0  0  0  0
  189.4210  173.6760  141.9140 C   0  0  1  0  0  3  0  0  0  0  0  0
  191.8680  175.9390  143.8660 C   0  0  1  0  0  3  0  0  0  0  0  0
  188.2240  174.3630  141.2870 C   0  0  2  0  0  3  0  0  0  0  0  0
  186.7980  176.4190  141.1920 C   0  0  1  0  0  3  0  0  0  0  0  0
  191.7030  176.7290  145.1020 N   0  0  0  0  0  0  0  0  0  0  0  0
  190.5810  175.5250  143.2580 N   0  0  0  0  0  0  0  0  0  0  0  0
  186.9670  178.2610  147.4500 C   0  0  0  0  0  3  0  0  0  0  0  0
  188.4830  174.2120  139.8270 C   0  0  0  0  0  2  0  0  0  0  0  0
  189.7980  172.6250  141.0540 O   0  0  0  0  0  0  0  0  0  0  0  0
  189.1360  177.4270  147.8650 F   0  0  0  0  0  0  0  0  0  0  0  0
  187.1020  176.8580  143.4990 C   0  0  0  0  0  0  0  0  0  0  0  0
  185.8790  178.4660  146.6020 C   0  0  0  0  0  3  0  0  0  0  0  0
  188.1720  177.1180  145.6650 C   0  0  0  0  0  0  0  0  0  0  0  0
  188.1860  176.1720  143.0280 C   0  0  0  0  0  0  0  0  0  0  0  0
  187.1740  177.5350  140.2340 C   0  0  0  0  0  1  0  0  0  0  0  0
  188.0130  175.7590  141.6790 N   0  0  0  0  0  0  0  0  0  0  0  0
  189.2790  172.9250  139.7740 C   0  0  0  0  0  2  0  0  0  0  0  0
  191.6110  174.5040  141.4210 O   0  0  0  0  0  0  0  0  0  0  0  0
  185.9200  178.0040  145.2870 C   0  0  0  0  0  3  0  0  0  0  0  0
  187.0510  177.3310  144.8130 C   0  0  0  0  0  0  0  0  0  0  0  0
  190.5940  174.5890  142.1630 C   0  0  0  0  0  0  0  0  0  0  0  0
  192.8950  176.5240  145.9100 C   0  0  0  0  0  2  0  0  0  0  0  0
  195.0330  175.0270  145.8300 C   0  0  0  0  0  1  0  0  0  0  0  0
  193.2530  174.7480  146.0370 S   0  0  0  0  0  0  0  0  0  0  0  0
  1 19  1  0  0  0  0
  1  5  1  0  0  0  0
  2 13  1  0  0  0  0
  2 16  1  0  0  0  0
  3 17  1  0  0  0  0
  4  1  2  0  0  0  0
  7 15  1  6  0  0  0
  7 27  1  0  0  0  0
  8  6  1  6  0  0  0
  8 11  1  0  0  0  0
  9 14  1  6  0  0  0
  9 22  1  0  0  0  0
  9  7  1  0  0  0  0
 10 21  1  6  0  0  0
 10 22  1  0  0  0  0
 10  3  1  0  0  0  0
 11  5  1  0  0  0  0
 11 28  1  0  0  0  0
 12  4  1  0  0  0  0
 12  8  1  0  0  0  0
 17 26  1  0  0  0  0
 18 13  2  0  0  0  0
 19  2  2  0  0  0  0
 20 17  2  0  0  0  0
 20  4  1  0  0  0  0
 22 20  1  0  0  0  0
 23 14  1  0  0  0  0
 23 15  1  0  0  0  0
 24 27  2  0  0  0  0
 25 18  1  0  0  0  0
 26 25  2  0  0  0  0
 26 19  1  0  0  0  0
 27 12  1  0  0  0  0
 28 30  1  0  0  0  0
 29 30  1  0  0  0  0
M  END
>  <MODEL>
6

>  <REMARK>
 VINA RESULT:      -7.6      2.341      5.251
  Name = 
  2 active torsions:
  status: ('A' for Active; 'I' for Inactive)
    1  A    between atoms: N_11  and  C_28
    2  A    between atoms: C_28  and  S_30
                            x       y       z     vdW  Elec       q    Type
                         _______ _______ _______ _____ _____    ______ ____

>  <TORSDO>
F 2

$$$$
=
 OpenBabel11112416153D

 30 35  0  0  1  0  0  0  0  0999 V2000
  188.3360  174.8300  142.8840 C   0  0  0  0  0  0  0  0  0  0  0  0
  189.7630  172.8760  142.2940 C   0  0  0  0  0  0  0  0  0  0  0  0
  189.9510  175.0930  146.8070 C   0  0  0  0  0  2  0  0  0  0  0  0
  187.9230  175.7830  143.8260 C   0  0  0  0  0  0  0  0  0  0  0  0
  187.7100  174.9550  141.5360 C   0  0  0  0  0  2  0  0  0  0  0  0
  187.5810  178.6620  141.7920 C   0  0  0  0  0  1  0  0  0  0  0  0
  185.7230  176.8550  145.5710 C   0  0  1  0  0  3  0  0  0  0  0  0
  187.0370  177.2490  141.9600 C   0  0  1  0  0  3  0  0  0  0  0  0
  186.7710  176.7510  146.6610 C   0  0  2  0  0  3  0  0  0  0  0  0
  189.1790  176.3590  147.2250 C   0  0  1  0  0  3  0  0  0  0  0  0
  187.8160  176.3420  141.0940 N   0  0  0  0  0  0  0  0  0  0  0  0
  187.0730  176.8650  143.3920 N   0  0  0  0  0  0  0  0  0  0  0  0
  190.7560  171.9630  142.6660 C   0  0  0  0  0  3  0  0  0  0  0  0
  186.5710  178.0100  147.4340 C   0  0  0  0  0  2  0  0  0  0  0  0
  184.6220  177.5470  146.1140 O   0  0  0  0  0  0  0  0  0  0  0  0
  189.2570  172.7890  141.0390 F   0  0  0  0  0  0  0  0  0  0  0  0
  189.4550  174.8380  145.4310 C   0  0  0  0  0  0  0  0  0  0  0  0
  191.3160  172.0040  143.9420 C   0  0  0  0  0  3  0  0  0  0  0  0
  189.3160  173.8540  143.2130 C   0  0  0  0  0  0  0  0  0  0  0  0
  188.4640  175.7250  145.1170 C   0  0  0  0  0  0  0  0  0  0  0  0
  190.1310  177.5410  147.2640 C   0  0  0  0  0  1  0  0  0  0  0  0
  188.1530  176.5870  146.2030 N   0  0  0  0  0  0  0  0  0  0  0  0
  185.0960  178.2840  147.2230 C   0  0  0  0  0  2  0  0  0  0  0  0
  185.8060  178.7150  144.0680 O   0  0  0  0  0  0  0  0  0  0  0  0
  190.8890  172.9590  144.8640 C   0  0  0  0  0  3  0  0  0  0  0  0
  189.8950  173.8790  144.5140 C   0  0  0  0  0  0  0  0  0  0  0  0
  186.2030  177.5430  144.3190 C   0  0  0  0  0  0  0  0  0  0  0  0
  187.2230  176.3960  139.7670 C   0  0  0  0  0  2  0  0  0  0  0  0
  187.0670  175.6670  137.2640 C   0  0  0  0  0  1  0  0  0  0  0  0
  187.8160  174.9970  138.7730 S   0  0  0  0  0  0  0  0  0  0  0  0
  1 19  2  0  0  0  0
  1  4  1  0  0  0  0
  2 13  2  0  0  0  0
  2 19  1  0  0  0  0
  3 10  1  0  0  0  0
  4 20  2  0  0  0  0
  5  1  1  0  0  0  0
  7 27  1  6  0  0  0
  7 15  1  0  0  0  0
  7  9  1  0  0  0  0
  8  6  1  1  0  0  0
  8 12  1  0  0  0  0
  9 14  1  6  0  0  0
 10 21  1  6  0  0  0
 11  5  1  0  0  0  0
 11  8  1  0  0  0  0
 12  4  1  0  0  0  0
 12 27  1  0  0  0  0
 13 18  1  0  0  0  0
 15 23  1  0  0  0  0
 16  2  1  0  0  0  0
 17  3  1  0  0  0  0
 18 25  2  0  0  0  0
 19 26  1  0  0  0  0
 20 17  1  0  0  0  0
 20 22  1  0  0  0  0
 22  9  1  0  0  0  0
 22 10  1  0  0  0  0
 23 14  1  0  0  0  0
 24 27  2  0  0  0  0
 26 25  1  0  0  0  0
 26 17  2  0  0  0  0
 28 11  1  0  0  0  0
 29 30  1  0  0  0  0
 30 28  1  0  0  0  0
M  END
>  <MODEL>
7

>  <REMARK>
 VINA RESULT:      -7.0      3.281      5.464
  Name = 
  2 active torsions:
  status: ('A' for Active; 'I' for Inactive)
    1  A    between atoms: N_11  and  C_28
    2  A    between atoms: C_28  and  S_30
                            x       y       z     vdW  Elec       q    Type
                         _______ _______ _______ _____ _____    ______ ____

>  <TORSDO>
F 2

$$$$
=
 OpenBabel11112416153D

 30 35  0  0  1  0  0  0  0  0999 V2000
  191.8890  175.0560  144.4840 C   0  0  0  0  0  0  0  0  0  0  0  0
  192.0480  175.8560  146.8370 C   0  0  0  0  0  0  0  0  0  0  0  0
  188.2030  177.0680  143.8260 C   0  0  0  0  0  2  0  0  0  0  0  0
  191.1870  175.0030  143.2710 C   0  0  0  0  0  0  0  0  0  0  0  0
  193.2040  174.3530  144.4880 C   0  0  0  0  0  2  0  0  0  0  0  0
  193.8330  175.2240  140.9290 C   0  0  0  0  0  1  0  0  0  0  0  0
  189.6670  173.3460  141.2750 C   0  0  1  0  0  3  0  0  0  0  0  0
  193.3130  174.3490  142.0630 C   0  0  1  0  0  3  0  0  0  0  0  0
  188.6230  174.4350  141.4250 C   0  0  2  0  0  3  0  0  0  0  0  0
  188.0710  176.7010  142.3360 C   0  0  1  0  0  3  0  0  0  0  0  0
  193.9670  174.7730  143.3170 N   0  0  0  0  0  0  0  0  0  0  0  0
  191.8340  174.4270  142.1180 N   0  0  0  0  0  0  0  0  0  0  0  0
  191.5060  176.6070  147.8850 C   0  0  0  0  0  3  0  0  0  0  0  0
  188.1650  174.6490  140.0220 C   0  0  0  0  0  2  0  0  0  0  0  0
  189.2650  172.5250  140.2030 O   0  0  0  0  0  0  0  0  0  0  0  0
  193.2270  175.2220  147.0530 F   0  0  0  0  0  0  0  0  0  0  0  0
  189.4600  176.3870  144.2290 C   0  0  0  0  0  0  0  0  0  0  0  0
  190.2980  177.2840  147.7220 C   0  0  0  0  0  3  0  0  0  0  0  0
  191.3730  175.7750  145.5970 C   0  0  0  0  0  0  0  0  0  0  0  0
  189.9390  175.6360  143.1930 C   0  0  0  0  0  0  0  0  0  0  0  0
  188.3490  177.9270  141.4870 C   0  0  0  0  0  1  0  0  0  0  0  0
  189.0790  175.6730  142.0620 N   0  0  0  0  0  0  0  0  0  0  0  0
  188.3820  173.2840  139.4030 C   0  0  0  0  0  2  0  0  0  0  0  0
  191.5720  173.7620  139.8880 O   0  0  0  0  0  0  0  0  0  0  0  0
  189.6150  177.2170  146.5090 C   0  0  0  0  0  3  0  0  0  0  0  0
  190.1370  176.4680  145.4490 C   0  0  0  0  0  0  0  0  0  0  0  0
  191.0640  173.8620  141.0390 C   0  0  0  0  0  0  0  0  0  0  0  0
  195.2460  174.0840  143.3930 C   0  0  0  0  0  2  0  0  0  0  0  0
  196.4250  176.4110  143.5040 C   0  0  0  0  0  1  0  0  0  0  0  0
  196.3370  174.9420  144.5640 S   0  0  0  0  0  0  0  0  0  0  0  0
  1  5  1  0  0  0  0
  1 19  1  0  0  0  0
  2 16  1  0  0  0  0
  2 13  1  0  0  0  0
  3 17  1  0  0  0  0
  4  1  2  0  0  0  0
  7 15  1  6  0  0  0
  7  9  1  0  0  0  0
  8  6  1  6  0  0  0
  8 12  1  0  0  0  0
  8 11  1  0  0  0  0
  9 14  1  6  0  0  0
  9 22  1  0  0  0  0
 10 21  1  6  0  0  0
 10  3  1  0  0  0  0
 11 28  1  0  0  0  0
 11  5  1  0  0  0  0
 12  4  1  0  0  0  0
 17 26  1  0  0  0  0
 18 13  2  0  0  0  0
 19  2  2  0  0  0  0
 20  4  1  0  0  0  0
 20 17  2  0  0  0  0
 22 10  1  0  0  0  0
 22 20  1  0  0  0  0
 23 14  1  0  0  0  0
 23 15  1  0  0  0  0
 24 27  2  0  0  0  0
 25 18  1  0  0  0  0
 26 19  1  0  0  0  0
 26 25  2  0  0  0  0
 27  7  1  0  0  0  0
 27 12  1  0  0  0  0
 28 30  1  0  0  0  0
 29 30  1  0  0  0  0
M  END
>  <MODEL>
8

>  <REMARK>
 VINA RESULT:      -7.0      3.086      5.723
  Name = 
  2 active torsions:
  status: ('A' for Active; 'I' for Inactive)
    1  A    between atoms: N_11  and  C_28
    2  A    between atoms: C_28  and  S_30
                            x       y       z     vdW  Elec       q    Type
                         _______ _______ _______ _____ _____    ______ ____

>  <TORSDO>
F 2

$$$$
=
 OpenBabel11112416153D

 30 35  0  0  1  0  0  0  0  0999 V2000
  191.0530  176.1450  143.9920 C   0  0  0  0  0  0  0  0  0  0  0  0
  189.7470  177.0490  145.9100 C   0  0  0  0  0  0  0  0  0  0  0  0
  194.5660  175.6650  146.3380 C   0  0  0  0  0  2  0  0  0  0  0  0
  192.2630  175.6550  143.4790 C   0  0  0  0  0  0  0  0  0  0  0  0
  189.9130  176.1590  143.0310 C   0  0  0  0  0  2  0  0  0  0  0  0
  191.1140  173.0640  141.3560 C   0  0  0  0  0  1  0  0  0  0  0  0
  194.5830  176.0470  141.6090 C   0  0  1  0  0  3  0  0  0  0  0  0
  191.0140  174.5710  141.5620 C   0  0  1  0  0  3  0  0  0  0  0  0
  195.4090  175.7730  142.8520 C   0  0  2  0  0  3  0  0  0  0  0  0
  195.4190  175.0090  145.2360 C   0  0  1  0  0  3  0  0  0  0  0  0
  189.8240  174.8520  142.3870 N   0  0  0  0  0  0  0  0  0  0  0  0
  192.2740  175.0790  142.1560 N   0  0  0  0  0  0  0  0  0  0  0  0
  189.6950  177.4010  147.2630 C   0  0  0  0  0  3  0  0  0  0  0  0
  196.4960  174.8920  142.3380 C   0  0  0  0  0  2  0  0  0  0  0  0
  195.4700  176.0630  140.5140 O   0  0  0  0  0  0  0  0  0  0  0  0
  188.6210  177.2000  145.1700 F   0  0  0  0  0  0  0  0  0  0  0  0
  193.2800  175.9390  145.6470 C   0  0  0  0  0  0  0  0  0  0  0  0
  190.8200  177.2660  148.0760 C   0  0  0  0  0  3  0  0  0  0  0  0
  190.9470  176.5510  145.3510 C   0  0  0  0  0  0  0  0  0  0  0  0
  193.3810  175.6170  144.3230 C   0  0  0  0  0  0  0  0  0  0  0  0
  195.5850  173.5310  145.5380 C   0  0  0  0  0  1  0  0  0  0  0  0
  194.6860  175.1750  143.9770 N   0  0  0  0  0  0  0  0  0  0  0  0
  196.6260  175.3480  140.9000 C   0  0  0  0  0  2  0  0  0  0  0  0
  193.6070  174.1980  140.4450 O   0  0  0  0  0  0  0  0  0  0  0  0
  192.0130  176.7780  147.5450 C   0  0  0  0  0  3  0  0  0  0  0  0
  192.0880  176.4240  146.1940 C   0  0  0  0  0  0  0  0  0  0  0  0
  193.4800  175.0480  141.3700 C   0  0  0  0  0  0  0  0  0  0  0  0
  188.6800  174.9150  141.4910 C   0  0  0  0  0  2  0  0  0  0  0  0
  187.0790  176.8060  140.6670 C   0  0  0  0  0  1  0  0  0  0  0  0
  187.3760  175.9390  142.2310 S   0  0  0  0  0  0  0  0  0  0  0  0
  1 19  1  0  0  0  0
  2 13  1  0  0  0  0
  4  1  2  0  0  0  0
  4 20  1  0  0  0  0
  5  1  1  0  0  0  0
  7 15  1  6  0  0  0
  7  9  1  0  0  0  0
  8  6  1  1  0  0  0
  8 12  1  0  0  0  0
  8 11  1  0  0  0  0
  9 14  1  6  0  0  0
  9 22  1  0  0  0  0
 10 21  1  1  0  0  0
 10  3  1  0  0  0  0
 11  5  1  0  0  0  0
 12  4  1  0  0  0  0
 13 18  2  0  0  0  0
 15 23  1  0  0  0  0
 16  2  1  0  0  0  0
 17 26  1  0  0  0  0
 17  3  1  0  0  0  0
 19  2  2  0  0  0  0
 19 26  1  0  0  0  0
 20 17  2  0  0  0  0
 22 20  1  0  0  0  0
 22 10  1  0  0  0  0
 23 14  1  0  0  0  0
 24 27  2  0  0  0  0
 25 18  1  0  0  0  0
 26 25  2  0  0  0  0
 27  7  1  0  0  0  0
 27 12  1  0  0  0  0
 28 30  1  0  0  0  0
 28 11  1  0  0  0  0
 29 30  1  0  0  0  0
M  END
>  <MODEL>
9

>  <REMARK>
 VINA RESULT:      -7.0      2.403      3.781
  Name = 
  2 active torsions:
  status: ('A' for Active; 'I' for Inactive)
    1  A    between atoms: N_11  and  C_28
    2  A    between atoms: C_28  and  S_30
                            x       y       z     vdW  Elec       q    Type
                         _______ _______ _______ _____ _____    ______ ____

>  <TORSDO>
F 2

$$$$
