=
 OpenBabel11112417203D

 37 42  0  0  1  0  0  0  0  0999 V2000
  192.1010  171.9520  142.1190 C   0  0  0  0  0  0  0  0  0  0  0  0
  188.9920  174.7170  141.9720 C   0  0  0  0  0  0  0  0  0  0  0  0
  189.5580  177.5130  143.9780 C   0  0  0  0  0  2  0  0  0  0  0  0
  190.2220  173.0220  140.7590 C   0  0  0  0  0  0  0  0  0  0  0  0
  188.9830  175.1460  143.3020 C   0  0  0  0  0  0  0  0  0  0  0  0
  189.8840  173.6960  141.9130 C   0  0  0  0  0  0  0  0  0  0  0  0
  188.4390  176.4720  143.8100 C   0  0  2  0  0  3  0  0  0  0  0  0
  189.5640  173.4020  139.5760 C   0  0  0  0  0  3  0  0  0  0  0  0
  190.3790  173.4690  143.1490 C   0  0  0  0  0  0  0  0  0  0  0  0
  193.2170  172.9520  141.8670 C   0  0  0  0  0  1  0  0  0  0  0  0
  187.1350  175.9440  140.8980 N   0  0  0  0  0  2  0  0  0  0  0  0
  188.5870  174.4300  139.6140 C   0  0  0  0  0  3  0  0  0  0  0  0
  191.3430  172.3490  143.4150 C   0  0  0  0  0  2  0  0  0  0  0  0
  190.4980  176.7320  146.0280 C   0  0  1  0  0  3  0  0  0  0  0  0
  190.7540  176.9620  144.6100 N   0  0  0  0  0  2  0  0  0  0  0  0
  188.2730  175.0870  140.8280 C   0  0  0  0  0  0  0  0  0  0  0  0
  189.8290  174.3380  144.0270 N   0  0  0  0  0  0  0  0  0  0  0  0
  191.1900  171.8710  140.8590 C   0  0  0  0  0  2  0  0  0  0  0  0
  187.3090  177.1420  143.0080 C   0  0  1  0  0  3  0  0  0  0  0  0
  192.7320  170.5930  142.3370 C   0  0  0  0  0  1  0  0  0  0  0  0
  189.6110  175.5020  146.2560 C   0  0  0  0  0  2  0  0  0  0  0  0
  190.0660  174.2680  145.4760 C   0  0  0  0  0  2  0  0  0  0  0  0
  186.4570  176.2170  142.1560 C   0  0  0  0  0  2  0  0  0  0  0  0
  185.7610  179.0720  143.3560 C   0  0  0  0  0  3  0  0  0  0  0  0
  186.4450  177.9790  143.8980 C   0  0  0  0  0  0  0  0  0  0  0  0
  186.3100  177.6830  145.2640 C   0  0  0  0  0  3  0  0  0  0  0  0
  185.3600  178.1630  147.5240 C   0  0  0  0  0  1  0  0  0  0  0  0
  184.8200  179.5710  145.5320 C   0  0  0  0  0  3  0  0  0  0  0  0
  185.4990  178.4780  146.0780 C   0  0  0  0  0  0  0  0  0  0  0  0
  184.9500  179.8680  144.1720 C   0  0  0  0  0  3  0  0  0  0  0  0
  191.7850  176.6130  146.7760 C   0  0  0  0  0  0  0  0  0  0  0  0
  193.0060  176.4770  146.0470 N   0  0  0  0  0  2  0  0  0  0  0  0
  191.7960  176.6490  148.0360 O   0  0  0  0  0  0  0  0  0  0  0  0
  194.9740  177.5670  146.7010 O   0  0  0  0  0  1  0  0  0  0  0  0
  194.3030  176.3410  146.6970 C   0  0  2  0  0  3  0  0  0  0  0  0
  194.2970  174.1000  145.5410 C   0  0  0  0  0  1  0  0  0  0  0  0
  195.1410  175.2800  145.9950 C   0  0  0  0  0  2  0  0  0  0  0  0
  1 20  1  0  0  0  0
  1 13  1  0  0  0  0
  2  5  2  0  0  0  0
  3 15  1  0  0  0  0
  4 18  1  0  0  0  0
  4  6  1  0  0  0  0
  5  7  1  0  0  0  0
  5 17  1  0  0  0  0
  6  2  1  0  0  0  0
  6  9  2  0  0  0  0
  7  3  1  6  0  0  0
  8 12  1  0  0  0  0
  8  4  2  0  0  0  0
  9 13  1  0  0  0  0
  9 17  1  0  0  0  0
 10  1  1  0  0  0  0
 11 23  1  0  0  0  0
 12 16  2  0  0  0  0
 14 21  1  0  0  0  0
 14 31  1  1  0  0  0
 15 14  1  0  0  0  0
 16 11  1  0  0  0  0
 16  2  1  0  0  0  0
 17 22  1  0  0  0  0
 18  1  1  0  0  0  0
 19  7  1  0  0  0  0
 19 25  1  1  0  0  0
 22 21  1  0  0  0  0
 23 19  1  0  0  0  0
 24 25  2  0  0  0  0
 24 30  1  0  0  0  0
 25 26  1  0  0  0  0
 26 29  2  0  0  0  0
 28 29  1  0  0  0  0
 29 27  1  0  0  0  0
 30 28  2  0  0  0  0
 31 33  2  0  0  0  0
 32 35  1  0  0  0  0
 32 31  1  0  0  0  0
 35 34  1  6  0  0  0
 36 37  1  0  0  0  0
 37 35  1  0  0  0  0
M  END
>  <MODEL>
1

>  <REMARK>
 VINA RESULT:      -8.5      0.000      0.000
  Name = 
  4 active torsions:
  status: ('A' for Active; 'I' for Inactive)
    1  A    between atoms: C_4  and  N_12
    2  A    between atoms: C_4  and  C_37
    3  A    between atoms: C_8  and  C_18
    4  A    between atoms: C_23  and  C_30
                            x       y       z     vdW  Elec       q    Type
                         _______ _______ _______ _____ _____    ______ ____

>  <TORSDO>
F 4

$$$$
=
 OpenBabel11112417203D

 37 42  0  0  1  0  0  0  0  0999 V2000
  194.2870  175.8000  142.6480 C   0  0  0  0  0  0  0  0  0  0  0  0
  191.3210  176.6410  145.4460 C   0  0  0  0  0  0  0  0  0  0  0  0
  188.1500  175.6140  144.4230 C   0  0  0  0  0  2  0  0  0  0  0  0
  193.6520  176.0880  145.1060 C   0  0  0  0  0  0  0  0  0  0  0  0
  190.2690  176.9820  144.5930 C   0  0  0  0  0  0  0  0  0  0  0  0
  192.4100  176.4750  144.6530 C   0  0  0  0  0  0  0  0  0  0  0  0
  188.7880  176.9180  144.9300 C   0  0  2  0  0  3  0  0  0  0  0  0
  193.8010  175.8910  146.4910 C   0  0  0  0  0  3  0  0  0  0  0  0
  192.0680  176.7370  143.3730 C   0  0  0  0  0  0  0  0  0  0  0  0
  193.9040  174.3440  142.4420 C   0  0  0  0  0  1  0  0  0  0  0  0
  190.4150  176.9510  147.7250 N   0  0  0  0  0  2  0  0  0  0  0  0
  192.6950  176.1080  147.3540 C   0  0  0  0  0  3  0  0  0  0  0  0
  193.0830  176.7030  142.2680 C   0  0  0  0  0  2  0  0  0  0  0  0
  187.9410  176.1680  142.1110 C   0  0  1  0  0  3  0  0  0  0  0  0
  188.5720  175.2660  143.0680 N   0  0  0  0  0  2  0  0  0  0  0  0
  191.4410  176.5110  146.8370 C   0  0  0  0  0  0  0  0  0  0  0  0
  190.7580  177.0680  143.3100 N   0  0  0  0  0  0  0  0  0  0  0  0
  194.7820  175.9980  144.1120 C   0  0  0  0  0  2  0  0  0  0  0  0
  188.3760  177.0830  146.4040 C   0  0  1  0  0  3  0  0  0  0  0  0
  195.4340  176.1190  141.7130 C   0  0  0  0  0  1  0  0  0  0  0  0
  188.5820  177.5610  142.1300 C   0  0  0  0  0  2  0  0  0  0  0  0
  190.1100  177.5310  142.0740 C   0  0  0  0  0  2  0  0  0  0  0  0
  189.3510  177.8420  147.2880 C   0  0  0  0  0  2  0  0  0  0  0  0
  186.3070  177.5590  147.7210 C   0  0  0  0  0  3  0  0  0  0  0  0
  187.0040  177.6700  146.5140 C   0  0  0  0  0  0  0  0  0  0  0  0
  186.4090  178.3290  145.4260 C   0  0  0  0  0  3  0  0  0  0  0  0
  184.4970  179.5650  144.3960 C   0  0  0  0  0  1  0  0  0  0  0  0
  184.4330  178.7540  146.7580 C   0  0  0  0  0  3  0  0  0  0  0  0
  185.1260  178.8690  145.5500 C   0  0  0  0  0  0  0  0  0  0  0  0
  185.0230  178.1000  147.8440 C   0  0  0  0  0  3  0  0  0  0  0  0
  187.9770  175.5780  140.7400 C   0  0  0  0  0  0  0  0  0  0  0  0
  188.6620  174.3420  140.5300 N   0  0  0  0  0  2  0  0  0  0  0  0
  187.3950  176.1560  139.7810 O   0  0  0  0  0  0  0  0  0  0  0  0
  187.9810  172.5430  139.1920 O   0  0  0  0  0  1  0  0  0  0  0  0
  188.7580  173.7050  139.2220 C   0  0  2  0  0  3  0  0  0  0  0  0
  191.0980  173.4440  140.1260 C   0  0  0  0  0  1  0  0  0  0  0  0
  190.2100  173.3820  138.8930 C   0  0  0  0  0  2  0  0  0  0  0  0
  1 18  1  0  0  0  0
  2 16  1  0  0  0  0
  4  8  2  0  0  0  0
  5  7  1  0  0  0  0
  5  2  2  0  0  0  0
  6  4  1  0  0  0  0
  6  2  1  0  0  0  0
  7  3  1  1  0  0  0
  7 19  1  0  0  0  0
  8 12  1  0  0  0  0
  9  6  2  0  0  0  0
 10  1  1  0  0  0  0
 13  1  1  0  0  0  0
 13  9  1  0  0  0  0
 14 31  1  6  0  0  0
 14 21  1  0  0  0  0
 14 15  1  0  0  0  0
 15  3  1  0  0  0  0
 16 12  2  0  0  0  0
 16 11  1  0  0  0  0
 17  9  1  0  0  0  0
 17  5  1  0  0  0  0
 18  4  1  0  0  0  0
 19 25  1  6  0  0  0
 19 23  1  0  0  0  0
 20  1  1  0  0  0  0
 22 21  1  0  0  0  0
 22 17  1  0  0  0  0
 23 11  1  0  0  0  0
 24 30  1  0  0  0  0
 25 24  2  0  0  0  0
 26 29  2  0  0  0  0
 26 25  1  0  0  0  0
 27 29  1  0  0  0  0
 28 30  2  0  0  0  0
 29 28  1  0  0  0  0
 32 31  1  0  0  0  0
 33 31  2  0  0  0  0
 35 34  1  1  0  0  0
 35 32  1  0  0  0  0
 37 35  1  0  0  0  0
 37 36  1  0  0  0  0
M  END
>  <MODEL>
2

>  <REMARK>
 VINA RESULT:      -8.4      2.905      5.757
  Name = 
  4 active torsions:
  status: ('A' for Active; 'I' for Inactive)
    1  A    between atoms: C_4  and  N_12
    2  A    between atoms: C_4  and  C_37
    3  A    between atoms: C_8  and  C_18
    4  A    between atoms: C_23  and  C_30
                            x       y       z     vdW  Elec       q    Type
                         _______ _______ _______ _____ _____    ______ ____

>  <TORSDO>
F 4

$$$$
=
 OpenBabel11112417203D

 37 42  0  0  1  0  0  0  0  0999 V2000
  190.0150  172.6980  138.5210 C   0  0  0  0  0  0  0  0  0  0  0  0
  187.6610  175.6790  140.2270 C   0  0  0  0  0  0  0  0  0  0  0  0
  189.2630  177.3600  142.8280 C   0  0  0  0  0  2  0  0  0  0  0  0
  188.1850  174.4530  138.2080 C   0  0  0  0  0  0  0  0  0  0  0  0
  188.0320  175.5480  141.5670 C   0  0  0  0  0  0  0  0  0  0  0  0
  188.2620  174.6560  139.5690 C   0  0  0  0  0  0  0  0  0  0  0  0
  187.9270  176.6250  142.6350 C   0  0  2  0  0  3  0  0  0  0  0  0
  187.3940  175.3490  137.4670 C   0  0  0  0  0  3  0  0  0  0  0  0
  188.9440  173.8990  140.4550 C   0  0  0  0  0  0  0  0  0  0  0  0
  191.2500  173.5630  138.3260 C   0  0  0  0  0  1  0  0  0  0  0  0
  185.9480  177.4600  140.2170 N   0  0  0  0  0  2  0  0  0  0  0  0
  186.7090  176.3980  138.1330 C   0  0  0  0  0  3  0  0  0  0  0  0
  189.6610  172.6500  140.0330 C   0  0  0  0  0  2  0  0  0  0  0  0
  190.4140  175.7210  144.1250 C   0  0  1  0  0  3  0  0  0  0  0  0
  190.4080  176.4550  142.8640 N   0  0  0  0  0  2  0  0  0  0  0  0
  186.8190  176.5590  139.5350 C   0  0  0  0  0  0  0  0  0  0  0  0
  188.8060  174.4160  141.6970 N   0  0  0  0  0  0  0  0  0  0  0  0
  188.8630  173.2400  137.6240 C   0  0  0  0  0  2  0  0  0  0  0  0
  186.8350  177.6990  142.4690 C   0  0  1  0  0  3  0  0  0  0  0  0
  190.3510  171.2940  138.0680 C   0  0  0  0  0  1  0  0  0  0  0  0
  189.3390  174.6280  144.1560 C   0  0  0  0  0  2  0  0  0  0  0  0
  189.3240  173.7520  142.9020 C   0  0  0  0  0  2  0  0  0  0  0  0
  185.6330  177.3030  141.6290 C   0  0  0  0  0  2  0  0  0  0  0  0
  185.8000  179.4860  143.8740 C   0  0  0  0  0  3  0  0  0  0  0  0
  186.3940  178.2220  143.8000 C   0  0  0  0  0  0  0  0  0  0  0  0
  186.5680  177.4670  144.9700 C   0  0  0  0  0  3  0  0  0  0  0  0
  186.3360  177.1740  147.4400 C   0  0  0  0  0  1  0  0  0  0  0  0
  185.5580  179.2400  146.2710 C   0  0  0  0  0  3  0  0  0  0  0  0
  186.1500  177.9760  146.2030 C   0  0  0  0  0  0  0  0  0  0  0  0
  185.3820  179.9960  145.1080 C   0  0  0  0  0  3  0  0  0  0  0  0
  191.7690  175.1510  144.3890 C   0  0  0  0  0  0  0  0  0  0  0  0
  192.8910  175.6550  143.6640 N   0  0  0  0  0  2  0  0  0  0  0  0
  191.9230  174.2450  145.2530 O   0  0  0  0  0  0  0  0  0  0  0  0
  194.8940  175.8550  144.8620 O   0  0  0  0  0  1  0  0  0  0  0  0
  194.2440  175.1460  143.8480 C   0  0  2  0  0  3  0  0  0  0  0  0
  194.3130  176.0930  141.5120 C   0  0  0  0  0  1  0  0  0  0  0  0
  195.0300  175.2400  142.5460 C   0  0  0  0  0  2  0  0  0  0  0  0
  1 13  1  0  0  0  0
  2  5  2  0  0  0  0
  3 15  1  0  0  0  0
  4  6  1  0  0  0  0
  5 17  1  0  0  0  0
  5  7  1  0  0  0  0
  6  2  1  0  0  0  0
  6  9  2  0  0  0  0
  7  3  1  6  0  0  0
  8 12  1  0  0  0  0
  8  4  2  0  0  0  0
  9 17  1  0  0  0  0
 10  1  1  0  0  0  0
 11 23  1  0  0  0  0
 12 16  2  0  0  0  0
 13  9  1  0  0  0  0
 14 21  1  0  0  0  0
 14 31  1  6  0  0  0
 15 14  1  0  0  0  0
 16 11  1  0  0  0  0
 16  2  1  0  0  0  0
 17 22  1  0  0  0  0
 18  4  1  0  0  0  0
 18  1  1  0  0  0  0
 19  7  1  0  0  0  0
 19 25  1  1  0  0  0
 20  1  1  0  0  0  0
 22 21  1  0  0  0  0
 23 19  1  0  0  0  0
 24 30  1  0  0  0  0
 25 24  2  0  0  0  0
 25 26  1  0  0  0  0
 26 29  2  0  0  0  0
 29 28  1  0  0  0  0
 29 27  1  0  0  0  0
 30 28  2  0  0  0  0
 31 33  2  0  0  0  0
 32 35  1  0  0  0  0
 32 31  1  0  0  0  0
 35 34  1  1  0  0  0
 36 37  1  0  0  0  0
 37 35  1  0  0  0  0
M  END
>  <MODEL>
3

>  <REMARK>
 VINA RESULT:      -8.0      1.992      2.749
  Name = 
  4 active torsions:
  status: ('A' for Active; 'I' for Inactive)
    1  A    between atoms: C_4  and  N_12
    2  A    between atoms: C_4  and  C_37
    3  A    between atoms: C_8  and  C_18
    4  A    between atoms: C_23  and  C_30
                            x       y       z     vdW  Elec       q    Type
                         _______ _______ _______ _____ _____    ______ ____

>  <TORSDO>
F 4

$$$$
=
 OpenBabel11112417203D

 37 42  0  0  1  0  0  0  0  0999 V2000
  195.5040  174.3750  142.6960 C   0  0  0  0  0  0  0  0  0  0  0  0
  192.3700  175.7710  145.0550 C   0  0  0  0  0  0  0  0  0  0  0  0
  189.4390  173.9230  144.6620 C   0  0  0  0  0  2  0  0  0  0  0  0
  194.7680  175.5120  144.8620 C   0  0  0  0  0  0  0  0  0  0  0  0
  191.2980  175.5680  144.1830 C   0  0  0  0  0  0  0  0  0  0  0  0
  193.4900  175.4810  144.3470 C   0  0  0  0  0  0  0  0  0  0  0  0
  189.8390  175.4050  144.5800 C   0  0  2  0  0  3  0  0  0  0  0  0
  194.9120  175.9110  146.2030 C   0  0  0  0  0  3  0  0  0  0  0  0
  193.1430  175.1500  143.0840 C   0  0  0  0  0  0  0  0  0  0  0  0
  195.3720  172.9160  143.1020 C   0  0  0  0  0  1  0  0  0  0  0  0
  191.3670  176.8130  147.0590 N   0  0  0  0  0  2  0  0  0  0  0  0
  193.7640  176.2730  146.9550 C   0  0  0  0  0  3  0  0  0  0  0  0
  194.1770  174.8430  142.0400 C   0  0  0  0  0  2  0  0  0  0  0  0
  189.2000  173.4660  142.3310 C   0  0  1  0  0  3  0  0  0  0  0  0
  189.9470  173.1360  143.5400 N   0  0  0  0  0  2  0  0  0  0  0  0
  192.4740  176.2270  146.3750 C   0  0  0  0  0  0  0  0  0  0  0  0
  191.7980  175.2120  142.9510 N   0  0  0  0  0  0  0  0  0  0  0  0
  195.9220  175.2170  143.9380 C   0  0  0  0  0  2  0  0  0  0  0  0
  189.3690  176.0760  145.8840 C   0  0  1  0  0  3  0  0  0  0  0  0
  196.6050  174.4740  141.6630 C   0  0  0  0  0  1  0  0  0  0  0  0
  189.6010  174.8350  141.7670 C   0  0  0  0  0  2  0  0  0  0  0  0
  191.1140  175.0320  141.6620 C   0  0  0  0  0  2  0  0  0  0  0  0
  190.1820  177.2710  146.3500 C   0  0  0  0  0  2  0  0  0  0  0  0
  187.1610  176.4640  146.9860 C   0  0  0  0  0  3  0  0  0  0  0  0
  187.9160  176.4280  145.8100 C   0  0  0  0  0  0  0  0  0  0  0  0
  187.3030  176.7210  144.5810 C   0  0  0  0  0  3  0  0  0  0  0  0
  185.2980  177.3550  143.2330 C   0  0  0  0  0  1  0  0  0  0  0  0
  185.1940  177.0790  145.7130 C   0  0  0  0  0  3  0  0  0  0  0  0
  185.9450  177.0460  144.5350 C   0  0  0  0  0  0  0  0  0  0  0  0
  185.8010  176.7890  146.9390 C   0  0  0  0  0  3  0  0  0  0  0  0
  189.3680  172.3920  141.3070 C   0  0  0  0  0  0  0  0  0  0  0  0
  190.3000  171.3370  141.5490 N   0  0  0  0  0  2  0  0  0  0  0  0
  188.6820  172.4070  140.2490 O   0  0  0  0  0  0  0  0  0  0  0  0
  190.7120  169.0470  141.2730 O   0  0  0  0  0  1  0  0  0  0  0  0
  190.5360  170.2590  140.5980 C   0  0  2  0  0  3  0  0  0  0  0  0
  192.7580  171.4430  140.4650 C   0  0  0  0  0  1  0  0  0  0  0  0
  191.7530  170.5670  139.7350 C   0  0  0  0  0  2  0  0  0  0  0  0
  1 10  1  0  0  0  0
  1 18  1  0  0  0  0
  2 16  1  0  0  0  0
  4  8  2  0  0  0  0
  5  7  1  0  0  0  0
  5  2  2  0  0  0  0
  6  4  1  0  0  0  0
  6  2  1  0  0  0  0
  7  3  1  1  0  0  0
  7 19  1  0  0  0  0
  8 12  1  0  0  0  0
  9  6  2  0  0  0  0
 13  1  1  0  0  0  0
 13  9  1  0  0  0  0
 14 31  1  6  0  0  0
 14 15  1  0  0  0  0
 15  3  1  0  0  0  0
 16 12  2  0  0  0  0
 16 11  1  0  0  0  0
 17  9  1  0  0  0  0
 17  5  1  0  0  0  0
 18  4  1  0  0  0  0
 19 25  1  6  0  0  0
 19 23  1  0  0  0  0
 20  1  1  0  0  0  0
 21 14  1  0  0  0  0
 22 21  1  0  0  0  0
 22 17  1  0  0  0  0
 23 11  1  0  0  0  0
 25 24  2  0  0  0  0
 26 25  1  0  0  0  0
 27 29  1  0  0  0  0
 28 30  2  0  0  0  0
 29 26  2  0  0  0  0
 29 28  1  0  0  0  0
 30 24  1  0  0  0  0
 31 32  1  0  0  0  0
 33 31  2  0  0  0  0
 35 34  1  1  0  0  0
 35 32  1  0  0  0  0
 37 36  1  0  0  0  0
 37 35  1  0  0  0  0
M  END
>  <MODEL>
4

>  <REMARK>
 VINA RESULT:      -8.0      2.928      5.763
  Name = 
  4 active torsions:
  status: ('A' for Active; 'I' for Inactive)
    1  A    between atoms: C_4  and  N_12
    2  A    between atoms: C_4  and  C_37
    3  A    between atoms: C_8  and  C_18
    4  A    between atoms: C_23  and  C_30
                            x       y       z     vdW  Elec       q    Type
                         _______ _______ _______ _____ _____    ______ ____

>  <TORSDO>
F 4

$$$$
=
 OpenBabel11112417203D

 37 42  0  0  1  0  0  0  0  0999 V2000
  195.8590  173.8370  143.6060 C   0  0  0  0  0  0  0  0  0  0  0  0
  192.3560  175.7050  144.8600 C   0  0  0  0  0  0  0  0  0  0  0  0
  189.4930  173.8390  144.1690 C   0  0  0  0  0  2  0  0  0  0  0  0
  194.7190  175.3940  145.2800 C   0  0  0  0  0  0  0  0  0  0  0  0
  191.4970  175.3390  143.8210 C   0  0  0  0  0  0  0  0  0  0  0  0
  193.5890  175.2690  144.5000 C   0  0  0  0  0  0  0  0  0  0  0  0
  189.9800  175.2700  143.8950 C   0  0  2  0  0  3  0  0  0  0  0  0
  194.5790  176.0540  146.5140 C   0  0  0  0  0  3  0  0  0  0  0  0
  193.5170  174.6940  143.2800 C   0  0  0  0  0  0  0  0  0  0  0  0
  195.5610  172.4920  144.2460 C   0  0  0  0  0  1  0  0  0  0  0  0
  190.9870  177.1380  146.3370 N   0  0  0  0  0  2  0  0  0  0  0  0
  193.3130  176.5690  146.8960 C   0  0  0  0  0  3  0  0  0  0  0  0
  194.7400  174.1740  142.5830 C   0  0  0  0  0  2  0  0  0  0  0  0
  189.7580  172.9230  141.9810 C   0  0  1  0  0  3  0  0  0  0  0  0
  190.1960  172.8380  143.3700 N   0  0  0  0  0  2  0  0  0  0  0  0
  192.1860  176.4180  146.0540 C   0  0  0  0  0  0  0  0  0  0  0  0
  192.2420  174.7380  142.8310 N   0  0  0  0  0  0  0  0  0  0  0  0
  196.0320  174.9100  144.7230 C   0  0  0  0  0  2  0  0  0  0  0  0
  189.2660  176.1950  144.8990 C   0  0  1  0  0  3  0  0  0  0  0  0
  197.1680  173.7170  142.8550 C   0  0  0  0  0  1  0  0  0  0  0  0
  190.3490  174.1470  141.2690 C   0  0  0  0  0  2  0  0  0  0  0  0
  191.8550  174.3070  141.4800 C   0  0  0  0  0  2  0  0  0  0  0  0
  190.0180  177.4530  145.2980 C   0  0  0  0  0  2  0  0  0  0  0  0
  187.5590  176.3340  143.0800 C   0  0  0  0  0  3  0  0  0  0  0  0
  187.8880  176.5360  144.4250 C   0  0  0  0  0  0  0  0  0  0  0  0
  186.9260  177.0530  145.3050 C   0  0  0  0  0  3  0  0  0  0  0  0
  184.6280  177.9150  145.7750 C   0  0  0  0  0  1  0  0  0  0  0  0
  185.3220  177.1640  143.4960 C   0  0  0  0  0  3  0  0  0  0  0  0
  185.6450  177.3660  144.8410 C   0  0  0  0  0  0  0  0  0  0  0  0
  186.2780  176.6480  142.6150 C   0  0  0  0  0  3  0  0  0  0  0  0
  190.0930  171.6640  141.2520 C   0  0  0  0  0  0  0  0  0  0  0  0
  190.0920  171.6620  139.8240 N   0  0  0  0  0  2  0  0  0  0  0  0
  190.3910  170.6170  141.8910 O   0  0  0  0  0  0  0  0  0  0  0  0
  191.7740  170.3450  138.8620 O   0  0  0  0  0  1  0  0  0  0  0  0
  190.3930  170.4740  139.0350 C   0  0  2  0  0  3  0  0  0  0  0  0
  190.5690  170.0030  136.5640 C   0  0  0  0  0  1  0  0  0  0  0  0
  189.6920  170.5410  137.6840 C   0  0  0  0  0  2  0  0  0  0  0  0
  1 10  1  0  0  0  0
  1 18  1  0  0  0  0
  2 16  1  0  0  0  0
  4  8  2  0  0  0  0
  5  7  1  0  0  0  0
  5  2  2  0  0  0  0
  6  2  1  0  0  0  0
  6  4  1  0  0  0  0
  7  3  1  1  0  0  0
  7 19  1  0  0  0  0
  8 12  1  0  0  0  0
  9  6  2  0  0  0  0
 13  9  1  0  0  0  0
 13  1  1  0  0  0  0
 14 31  1  6  0  0  0
 14 15  1  0  0  0  0
 15  3  1  0  0  0  0
 16 11  1  0  0  0  0
 16 12  2  0  0  0  0
 17  9  1  0  0  0  0
 17  5  1  0  0  0  0
 18  4  1  0  0  0  0
 19 25  1  6  0  0  0
 19 23  1  0  0  0  0
 20  1  1  0  0  0  0
 21 22  1  0  0  0  0
 21 14  1  0  0  0  0
 22 17  1  0  0  0  0
 23 11  1  0  0  0  0
 24 25  1  0  0  0  0
 25 26  2  0  0  0  0
 28 29  2  0  0  0  0
 29 26  1  0  0  0  0
 29 27  1  0  0  0  0
 30 24  2  0  0  0  0
 30 28  1  0  0  0  0
 31 33  2  0  0  0  0
 32 31  1  0  0  0  0
 35 34  1  6  0  0  0
 35 32  1  0  0  0  0
 36 37  1  0  0  0  0
 37 35  1  0  0  0  0
M  END
>  <MODEL>
5

>  <REMARK>
 VINA RESULT:      -7.8      3.087      6.046
  Name = 
  4 active torsions:
  status: ('A' for Active; 'I' for Inactive)
    1  A    between atoms: C_4  and  N_12
    2  A    between atoms: C_4  and  C_37
    3  A    between atoms: C_8  and  C_18
    4  A    between atoms: C_23  and  C_30
                            x       y       z     vdW  Elec       q    Type
                         _______ _______ _______ _____ _____    ______ ____

>  <TORSDO>
F 4

$$$$
=
 OpenBabel11112417203D

 37 42  0  0  1  0  0  0  0  0999 V2000
  192.5290  172.2730  140.4300 C   0  0  0  0  0  0  0  0  0  0  0  0
  189.2850  174.5670  141.6740 C   0  0  0  0  0  0  0  0  0  0  0  0
  190.1840  177.1210  143.8710 C   0  0  0  0  0  2  0  0  0  0  0  0
  190.2280  173.2400  139.8840 C   0  0  0  0  0  0  0  0  0  0  0  0
  189.6500  174.8090  143.0000 C   0  0  0  0  0  0  0  0  0  0  0  0
  190.2050  173.6990  141.1830 C   0  0  0  0  0  0  0  0  0  0  0  0
  189.1710  175.9650  143.8640 C   0  0  2  0  0  3  0  0  0  0  0  0
  189.2010  173.6770  139.0280 C   0  0  0  0  0  3  0  0  0  0  0  0
  191.0800  173.3810  142.1620 C   0  0  0  0  0  0  0  0  0  0  0  0
  193.4120  173.4450  140.0360 C   0  0  0  0  0  1  0  0  0  0  0  0
  187.0790  175.6520  141.4170 N   0  0  0  0  0  2  0  0  0  0  0  0
  188.1930  174.5430  139.5250 C   0  0  0  0  0  3  0  0  0  0  0  0
  192.1790  172.3830  141.9390 C   0  0  0  0  0  2  0  0  0  0  0  0
  191.7840  176.2140  145.3910 C   0  0  1  0  0  3  0  0  0  0  0  0
  191.5630  176.6660  144.0210 N   0  0  0  0  0  2  0  0  0  0  0  0
  188.2140  174.9810  140.8710 C   0  0  0  0  0  0  0  0  0  0  0  0
  190.7520  174.0390  143.2970 N   0  0  0  0  0  0  0  0  0  0  0  0
  191.2810  172.2340  139.4970 C   0  0  0  0  0  2  0  0  0  0  0  0
  187.7890  176.5710  143.5540 C   0  0  1  0  0  3  0  0  0  0  0  0
  193.3200  171.0000  140.2190 C   0  0  0  0  0  1  0  0  0  0  0  0
  191.1320  174.8520  145.6570 C   0  0  0  0  0  2  0  0  0  0  0  0
  191.4340  173.8100  144.5790 C   0  0  0  0  0  2  0  0  0  0  0  0
  186.8040  175.6570  142.8460 C   0  0  0  0  0  2  0  0  0  0  0  0
  187.8430  177.0320  146.0090 C   0  0  0  0  0  3  0  0  0  0  0  0
  187.1720  177.1510  144.7880 C   0  0  0  0  0  0  0  0  0  0  0  0
  185.9330  177.8100  144.7370 C   0  0  0  0  0  3  0  0  0  0  0  0
  184.0620  179.0390  145.8460 C   0  0  0  0  0  1  0  0  0  0  0  0
  186.0480  178.2200  147.1200 C   0  0  0  0  0  3  0  0  0  0  0  0
  185.3740  178.3430  145.9020 C   0  0  0  0  0  0  0  0  0  0  0  0
  187.2830  177.5650  147.1750 C   0  0  0  0  0  3  0  0  0  0  0  0
  193.2460  176.1790  145.6970 C   0  0  0  0  0  0  0  0  0  0  0  0
  194.1540  175.6930  144.7070 N   0  0  0  0  0  2  0  0  0  0  0  0
  193.6750  176.5900  146.8090 O   0  0  0  0  0  0  0  0  0  0  0  0
  196.2730  176.3670  143.9690 O   0  0  0  0  0  1  0  0  0  0  0  0
  195.5920  175.6110  144.9280 C   0  0  2  0  0  3  0  0  0  0  0  0
  196.8360  173.7790  146.1350 C   0  0  0  0  0  1  0  0  0  0  0  0
  196.0550  174.1600  144.8880 C   0  0  0  0  0  2  0  0  0  0  0  0
  1 13  1  0  0  0  0
  2  5  2  0  0  0  0
  3 15  1  0  0  0  0
  4  6  1  0  0  0  0
  5 17  1  0  0  0  0
  5  7  1  0  0  0  0
  6  2  1  0  0  0  0
  6  9  2  0  0  0  0
  7  3  1  6  0  0  0
  8 12  1  0  0  0  0
  8  4  2  0  0  0  0
  9 17  1  0  0  0  0
 10  1  1  0  0  0  0
 11 23  1  0  0  0  0
 12 16  2  0  0  0  0
 13  9  1  0  0  0  0
 14 21  1  0  0  0  0
 14 31  1  6  0  0  0
 15 14  1  0  0  0  0
 16 11  1  0  0  0  0
 16  2  1  0  0  0  0
 17 22  1  0  0  0  0
 18  4  1  0  0  0  0
 18  1  1  0  0  0  0
 19  7  1  0  0  0  0
 19 25  1  1  0  0  0
 20  1  1  0  0  0  0
 22 21  1  0  0  0  0
 23 19  1  0  0  0  0
 24 30  1  0  0  0  0
 25 24  2  0  0  0  0
 26 25  1  0  0  0  0
 26 29  2  0  0  0  0
 27 29  1  0  0  0  0
 28 30  2  0  0  0  0
 29 28  1  0  0  0  0
 31 33  2  0  0  0  0
 32 35  1  0  0  0  0
 32 31  1  0  0  0  0
 35 34  1  6  0  0  0
 37 35  1  0  0  0  0
 37 36  1  0  0  0  0
M  END
>  <MODEL>
6

>  <REMARK>
 VINA RESULT:      -7.8      1.368      1.822
  Name = 
  4 active torsions:
  status: ('A' for Active; 'I' for Inactive)
    1  A    between atoms: C_4  and  N_12
    2  A    between atoms: C_4  and  C_37
    3  A    between atoms: C_8  and  C_18
    4  A    between atoms: C_23  and  C_30
                            x       y       z     vdW  Elec       q    Type
                         _______ _______ _______ _____ _____    ______ ____

>  <TORSDO>
F 4

$$$$
=
 OpenBabel11112417203D

 37 42  0  0  1  0  0  0  0  0999 V2000
  185.7710  177.9100  145.9460 C   0  0  0  0  0  0  0  0  0  0  0  0
  189.7320  176.9890  146.8390 C   0  0  0  0  0  0  0  0  0  0  0  0
  191.6280  176.2380  144.0110 C   0  0  0  0  0  2  0  0  0  0  0  0
  187.7820  178.2700  147.4810 C   0  0  0  0  0  0  0  0  0  0  0  0
  189.9670  175.9830  145.8990 C   0  0  0  0  0  0  0  0  0  0  0  0
  188.4110  177.2870  146.7470 C   0  0  0  0  0  0  0  0  0  0  0  0
  191.3250  175.5630  145.3580 C   0  0  2  0  0  3  0  0  0  0  0  0
  188.5620  178.9780  148.4120 C   0  0  0  0  0  3  0  0  0  0  0  0
  187.8390  176.4830  145.8260 C   0  0  0  0  0  0  0  0  0  0  0  0
  186.0840  178.9200  144.8550 C   0  0  0  0  0  1  0  0  0  0  0  0
  191.8350  177.1580  148.1250 N   0  0  0  0  0  2  0  0  0  0  0  0
  189.9340  178.6530  148.5700 C   0  0  0  0  0  3  0  0  0  0  0  0
  186.3640  176.5310  145.5490 C   0  0  0  0  0  2  0  0  0  0  0  0
  190.2730  174.8790  142.5920 C   0  0  1  0  0  3  0  0  0  0  0  0
  190.4840  176.2300  143.1020 N   0  0  0  0  0  2  0  0  0  0  0  0
  190.5310  177.6310  147.7940 C   0  0  0  0  0  0  0  0  0  0  0  0
  188.7720  175.6580  145.2990 N   0  0  0  0  0  0  0  0  0  0  0  0
  186.2950  178.4500  147.3100 C   0  0  0  0  0  2  0  0  0  0  0  0
  192.5550  175.7730  146.2600 C   0  0  1  0  0  3  0  0  0  0  0  0
  184.2660  177.7720  146.0360 C   0  0  0  0  0  1  0  0  0  0  0  0
  189.6500  173.9600  143.6500 C   0  0  0  0  0  2  0  0  0  0  0  0
  188.4430  174.5760  144.3590 C   0  0  0  0  0  2  0  0  0  0  0  0
  192.2860  175.8250  147.7540 C   0  0  0  0  0  2  0  0  0  0  0  0
  194.9620  175.1540  145.9990 C   0  0  0  0  0  3  0  0  0  0  0  0
  193.6190  174.7650  145.9550 C   0  0  0  0  0  0  0  0  0  0  0  0
  193.2900  173.4400  145.6280 C   0  0  0  0  0  3  0  0  0  0  0  0
  193.9480  171.1140  144.9970 C   0  0  0  0  0  1  0  0  0  0  0  0
  195.6400  172.9100  145.3880 C   0  0  0  0  0  3  0  0  0  0  0  0
  194.2990  172.5150  145.3450 C   0  0  0  0  0  0  0  0  0  0  0  0
  195.9720  174.2290  145.7150 C   0  0  0  0  0  3  0  0  0  0  0  0
  189.4390  174.9170  141.3530 C   0  0  0  0  0  0  0  0  0  0  0  0
  189.6280  173.9130  140.3550 N   0  0  0  0  0  2  0  0  0  0  0  0
  188.5670  175.8150  141.1980 O   0  0  0  0  0  0  0  0  0  0  0  0
  187.9720  172.8100  139.1170 O   0  0  0  0  0  1  0  0  0  0  0  0
  188.8680  173.8830  139.1120 C   0  0  2  0  0  3  0  0  0  0  0  0
  189.1360  174.2340  136.6290 C   0  0  0  0  0  1  0  0  0  0  0  0
  189.8070  173.7850  137.9170 C   0  0  0  0  0  2  0  0  0  0  0  0
  1 20  1  0  0  0  0
  1 18  1  0  0  0  0
  2 16  1  0  0  0  0
  4  8  2  0  0  0  0
  5  2  2  0  0  0  0
  6  2  1  0  0  0  0
  6  4  1  0  0  0  0
  7  3  1  6  0  0  0
  7  5  1  0  0  0  0
  7 19  1  0  0  0  0
  8 12  1  0  0  0  0
  9  6  2  0  0  0  0
 10  1  1  0  0  0  0
 13  9  1  0  0  0  0
 13  1  1  0  0  0  0
 14 31  1  6  0  0  0
 14 15  1  0  0  0  0
 14 21  1  0  0  0  0
 15  3  1  0  0  0  0
 16 11  1  0  0  0  0
 16 12  2  0  0  0  0
 17  9  1  0  0  0  0
 17  5  1  0  0  0  0
 18  4  1  0  0  0  0
 19 25  1  1  0  0  0
 19 23  1  0  0  0  0
 21 22  1  0  0  0  0
 22 17  1  0  0  0  0
 23 11  1  0  0  0  0
 25 24  1  0  0  0  0
 26 25  2  0  0  0  0
 27 29  1  0  0  0  0
 28 30  1  0  0  0  0
 29 28  2  0  0  0  0
 29 26  1  0  0  0  0
 30 24  2  0  0  0  0
 32 31  1  0  0  0  0
 33 31  2  0  0  0  0
 35 34  1  1  0  0  0
 35 32  1  0  0  0  0
 36 37  1  0  0  0  0
 37 35  1  0  0  0  0
M  END
>  <MODEL>
7

>  <REMARK>
 VINA RESULT:      -7.2      2.794      8.271
  Name = 
  4 active torsions:
  status: ('A' for Active; 'I' for Inactive)
    1  A    between atoms: C_4  and  N_12
    2  A    between atoms: C_4  and  C_37
    3  A    between atoms: C_8  and  C_18
    4  A    between atoms: C_23  and  C_30
                            x       y       z     vdW  Elec       q    Type
                         _______ _______ _______ _____ _____    ______ ____

>  <TORSDO>
F 4

$$$$
=
 OpenBabel11112417203D

 37 42  0  0  1  0  0  0  0  0999 V2000
  186.8920  177.0700  142.4620 C   0  0  0  0  0  0  0  0  0  0  0  0
  190.2150  175.4350  144.3630 C   0  0  0  0  0  0  0  0  0  0  0  0
  192.3210  173.7090  142.1840 C   0  0  0  0  0  2  0  0  0  0  0  0
  188.6060  177.2420  144.3490 C   0  0  0  0  0  0  0  0  0  0  0  0
  190.3350  174.2350  143.6580 C   0  0  0  0  0  0  0  0  0  0  0  0
  189.0670  176.0130  143.9290 C   0  0  0  0  0  0  0  0  0  0  0  0
  191.6020  173.4070  143.5090 C   0  0  2  0  0  3  0  0  0  0  0  0
  189.3650  177.9160  145.3210 C   0  0  0  0  0  3  0  0  0  0  0  0
  188.4760  175.2000  143.0270 C   0  0  0  0  0  0  0  0  0  0  0  0
  187.6640  177.7390  141.3370 C   0  0  0  0  0  1  0  0  0  0  0  0
  192.0110  175.3550  146.0590 N   0  0  0  0  0  2  0  0  0  0  0  0
  190.5430  177.3150  145.8350 C   0  0  0  0  0  3  0  0  0  0  0  0
  187.1480  175.5390  142.4160 C   0  0  0  0  0  2  0  0  0  0  0  0
  190.9300  172.4550  140.7040 C   0  0  1  0  0  3  0  0  0  0  0  0
  191.4050  173.7910  141.0490 N   0  0  0  0  0  2  0  0  0  0  0  0
  190.9690  176.0470  145.3730 C   0  0  0  0  0  0  0  0  0  0  0  0
  189.2280  174.0890  142.8530 N   0  0  0  0  0  0  0  0  0  0  0  0
  187.2830  177.7310  143.8170 C   0  0  0  0  0  2  0  0  0  0  0  0
  192.6550  173.4950  144.6290 C   0  0  1  0  0  3  0  0  0  0  0  0
  185.4170  177.3120  142.2240 C   0  0  0  0  0  1  0  0  0  0  0  0
  189.8960  171.9380  141.7120 C   0  0  0  0  0  2  0  0  0  0  0  0
  188.7950  172.9510  142.0300 C   0  0  0  0  0  2  0  0  0  0  0  0
  192.1410  173.9070  145.9980 C   0  0  0  0  0  2  0  0  0  0  0  0
  192.8740  171.0350  144.2560 C   0  0  0  0  0  3  0  0  0  0  0  0
  193.4400  172.2250  144.7250 C   0  0  0  0  0  0  0  0  0  0  0  0
  194.7310  172.2100  145.2760 C   0  0  0  0  0  3  0  0  0  0  0  0
  196.8120  170.9980  145.9430 C   0  0  0  0  0  1  0  0  0  0  0  0
  194.8750  169.8240  144.8890 C   0  0  0  0  0  3  0  0  0  0  0  0
  195.4460  171.0110  145.3580 C   0  0  0  0  0  0  0  0  0  0  0  0
  193.5900  169.8350  144.3380 C   0  0  0  0  0  3  0  0  0  0  0  0
  190.3820  172.4410  139.3160 C   0  0  0  0  0  0  0  0  0  0  0  0
  190.1040  173.6800  138.6620 N   0  0  0  0  0  2  0  0  0  0  0  0
  190.1810  171.3470  138.7200 O   0  0  0  0  0  0  0  0  0  0  0  0
  190.4620  174.3850  136.4560 O   0  0  0  0  0  1  0  0  0  0  0  0
  189.5550  173.7560  137.3140 C   0  0  2  0  0  3  0  0  0  0  0  0
  187.8170  174.9140  138.7280 C   0  0  0  0  0  1  0  0  0  0  0  0
  188.2270  174.5040  137.3230 C   0  0  0  0  0  2  0  0  0  0  0  0
  1 18  1  0  0  0  0
  2 16  1  0  0  0  0
  4  8  2  0  0  0  0
  5  2  2  0  0  0  0
  6  4  1  0  0  0  0
  6  2  1  0  0  0  0
  7  3  1  6  0  0  0
  7  5  1  0  0  0  0
  7 19  1  0  0  0  0
  8 12  1  0  0  0  0
  9  6  2  0  0  0  0
 10  1  1  0  0  0  0
 13  1  1  0  0  0  0
 13  9  1  0  0  0  0
 14 31  1  6  0  0  0
 14 15  1  0  0  0  0
 14 21  1  0  0  0  0
 15  3  1  0  0  0  0
 16 12  2  0  0  0  0
 16 11  1  0  0  0  0
 17  9  1  0  0  0  0
 17  5  1  0  0  0  0
 18  4  1  0  0  0  0
 19 25  1  1  0  0  0
 19 23  1  0  0  0  0
 20  1  1  0  0  0  0
 21 22  1  0  0  0  0
 22 17  1  0  0  0  0
 23 11  1  0  0  0  0
 24 30  2  0  0  0  0
 24 25  1  0  0  0  0
 25 26  2  0  0  0  0
 26 29  1  0  0  0  0
 28 29  2  0  0  0  0
 29 27  1  0  0  0  0
 30 28  1  0  0  0  0
 32 31  1  0  0  0  0
 33 31  2  0  0  0  0
 35 34  1  6  0  0  0
 35 37  1  0  0  0  0
 35 32  1  0  0  0  0
 37 36  1  0  0  0  0
M  END
>  <MODEL>
8

>  <REMARK>
 VINA RESULT:      -7.2      3.248      8.286
  Name = 
  4 active torsions:
  status: ('A' for Active; 'I' for Inactive)
    1  A    between atoms: C_4  and  N_12
    2  A    between atoms: C_4  and  C_37
    3  A    between atoms: C_8  and  C_18
    4  A    between atoms: C_23  and  C_30
                            x       y       z     vdW  Elec       q    Type
                         _______ _______ _______ _____ _____    ______ ____

>  <TORSDO>
F 4

$$$$
=
 OpenBabel11112417203D

 37 42  0  0  1  0  0  0  0  0999 V2000
  187.3710  176.9310  142.6150 C   0  0  0  0  0  0  0  0  0  0  0  0
  190.6690  175.8660  144.9210 C   0  0  0  0  0  0  0  0  0  0  0  0
  193.4540  175.0110  143.0060 C   0  0  0  0  0  2  0  0  0  0  0  0
  188.6730  177.2280  144.7930 C   0  0  0  0  0  0  0  0  0  0  0  0
  191.1990  174.8410  144.1340 C   0  0  0  0  0  0  0  0  0  0  0  0
  189.4920  176.2140  144.3440 C   0  0  0  0  0  0  0  0  0  0  0  0
  192.6420  174.3630  144.1380 C   0  0  2  0  0  3  0  0  0  0  0  0
  189.0760  177.9160  145.9510 C   0  0  0  0  0  3  0  0  0  0  0  0
  189.2740  175.4230  143.2710 C   0  0  0  0  0  0  0  0  0  0  0  0
  188.1100  177.9160  141.7250 C   0  0  0  0  0  1  0  0  0  0  0  0
  192.1430  175.9670  146.9020 N   0  0  0  0  0  2  0  0  0  0  0  0
  190.2760  177.5400  146.6100 C   0  0  0  0  0  3  0  0  0  0  0  0
  188.0130  175.5260  142.4630 C   0  0  0  0  0  2  0  0  0  0  0  0
  192.6750  173.6910  141.1770 C   0  0  1  0  0  3  0  0  0  0  0  0
  192.7340  175.0380  141.7350 N   0  0  0  0  0  2  0  0  0  0  0  0
  191.0770  176.4870  146.1090 C   0  0  0  0  0  0  0  0  0  0  0  0
  190.3030  174.5560  143.1280 N   0  0  0  0  0  0  0  0  0  0  0  0
  187.3670  177.4640  144.0790 C   0  0  0  0  0  2  0  0  0  0  0  0
  193.4530  174.5340  145.4360 C   0  0  1  0  0  3  0  0  0  0  0  0
  185.9370  176.8520  142.1350 C   0  0  0  0  0  1  0  0  0  0  0  0
  191.6650  172.8080  141.9200 C   0  0  0  0  0  2  0  0  0  0  0  0
  190.3060  173.4780  142.1290 C   0  0  0  0  0  2  0  0  0  0  0  0
  192.6460  174.6140  146.7210 C   0  0  0  0  0  2  0  0  0  0  0  0
  195.8390  173.8690  145.7630 C   0  0  0  0  0  3  0  0  0  0  0  0
  194.5120  173.4830  145.5470 C   0  0  0  0  0  0  0  0  0  0  0  0
  194.1940  172.1200  145.4380 C   0  0  0  0  0  3  0  0  0  0  0  0
  194.8610  169.7120  145.4260 C   0  0  0  0  0  1  0  0  0  0  0  0
  196.5240  171.5460  145.7570 C   0  0  0  0  0  3  0  0  0  0  0  0
  195.2000  171.1540  145.5430 C   0  0  0  0  0  0  0  0  0  0  0  0
  196.8450  172.9030  145.8670 C   0  0  0  0  0  3  0  0  0  0  0  0
  192.3680  173.7470  139.7160 C   0  0  0  0  0  0  0  0  0  0  0  0
  191.3420  172.9060  139.1860 N   0  0  0  0  0  2  0  0  0  0  0  0
  192.9950  174.5410  138.9630 O   0  0  0  0  0  0  0  0  0  0  0  0
  189.9540  173.7920  137.5200 O   0  0  0  0  0  1  0  0  0  0  0  0
  190.9890  172.8870  137.7720 C   0  0  2  0  0  3  0  0  0  0  0  0
  189.6920  171.5010  136.1120 C   0  0  0  0  0  1  0  0  0  0  0  0
  190.5830  171.4830  137.3440 C   0  0  0  0  0  2  0  0  0  0  0  0
  1 18  1  0  0  0  0
  2 16  1  0  0  0  0
  4  8  2  0  0  0  0
  5  7  1  0  0  0  0
  5  2  2  0  0  0  0
  6  4  1  0  0  0  0
  6  2  1  0  0  0  0
  7  3  1  6  0  0  0
  7 19  1  0  0  0  0
  8 12  1  0  0  0  0
  9  6  2  0  0  0  0
 10  1  1  0  0  0  0
 13  1  1  0  0  0  0
 13  9  1  0  0  0  0
 14 31  1  6  0  0  0
 14 15  1  0  0  0  0
 14 21  1  0  0  0  0
 15  3  1  0  0  0  0
 16 12  2  0  0  0  0
 16 11  1  0  0  0  0
 17  9  1  0  0  0  0
 17  5  1  0  0  0  0
 18  4  1  0  0  0  0
 19 25  1  1  0  0  0
 19 23  1  0  0  0  0
 20  1  1  0  0  0  0
 21 22  1  0  0  0  0
 22 17  1  0  0  0  0
 23 11  1  0  0  0  0
 24 30  1  0  0  0  0
 25 24  2  0  0  0  0
 26 29  2  0  0  0  0
 26 25  1  0  0  0  0
 27 29  1  0  0  0  0
 28 30  2  0  0  0  0
 29 28  1  0  0  0  0
 32 31  1  0  0  0  0
 33 31  2  0  0  0  0
 35 34  1  1  0  0  0
 35 32  1  0  0  0  0
 36 37  1  0  0  0  0
 37 35  1  0  0  0  0
M  END
>  <MODEL>
9

>  <REMARK>
 VINA RESULT:      -7.1      3.144      8.213
  Name = 
  4 active torsions:
  status: ('A' for Active; 'I' for Inactive)
    1  A    between atoms: C_4  and  N_12
    2  A    between atoms: C_4  and  C_37
    3  A    between atoms: C_8  and  C_18
    4  A    between atoms: C_23  and  C_30
                            x       y       z     vdW  Elec       q    Type
                         _______ _______ _______ _____ _____    ______ ____

>  <TORSDO>
F 4

$$$$
