=
 OpenBabel11112416373D

 32 37  0  0  1  0  0  0  0  0999 V2000
  192.4750  175.6890  142.7310 C   0  0  0  0  0  2  0  0  0  0  0  0
  187.7060  176.9830  143.7540 C   0  0  1  0  0  3  0  0  0  0  0  0
  186.7460  178.7060  148.2750 C   0  0  0  0  0  2  0  0  0  0  0  0
  185.8470  179.6360  147.4560 C   0  0  0  0  0  2  0  0  0  0  0  0
  186.0260  177.5500  141.9040 C   0  0  0  0  0  0  0  0  0  0  0  0
  184.7330  177.9320  141.5360 C   0  0  0  0  0  0  0  0  0  0  0  0
  189.5470  175.2810  143.4780 N   0  0  2  0  0  0  0  0  0  0  0  0
  189.2290  176.4630  145.6730 C   0  0  0  0  0  2  0  0  0  0  0  0
  182.5580  178.5670  141.8700 N   0  0  0  0  0  0  0  0  0  0  0  0
  191.4320  175.5070  145.0670 C   0  0  0  0  0  2  0  0  0  0  0  0
  187.2760  177.5300  147.4450 C   0  0  0  0  0  2  0  0  0  0  0  0
  187.7640  176.6960  145.2540 C   0  0  1  0  0  3  0  0  0  0  0  0
  187.1230  177.7830  146.0060 N   0  0  1  0  0  0  0  0  0  0  0  0
  185.3570  177.8070  144.2550 C   0  0  0  0  0  0  0  0  0  0  0  0
  182.7080  178.5380  140.4210 C   0  0  0  0  0  3  0  0  0  0  0  0
  191.5670  174.6670  142.4330 O   0  0  0  0  0  0  0  0  0  0  0  0
  190.1710  176.1620  144.4960 C   0  0  1  0  0  3  0  0  0  0  0  0
  184.1700  178.1070  140.1620 C   0  0  0  0  0  3  0  0  0  0  0  0
  190.3480  175.3300  142.2530 C   0  0  0  0  0  2  0  0  0  0  0  0
  192.6890  175.8130  144.2450 C   0  0  1  0  0  3  0  0  0  0  0  0
  184.9210  178.8420  146.5310 C   0  0  0  0  0  2  0  0  0  0  0  0
  185.6720  177.7470  145.7360 C   0  0  2  0  0  3  0  0  0  0  0  0
  184.0600  178.1650  143.8370 C   0  0  0  0  0  3  0  0  0  0  0  0
  188.1960  175.7070  143.0640 C   0  0  0  0  0  2  0  0  0  0  0  0
  187.0490  177.3240  140.8360 C   0  0  0  0  0  1  0  0  0  0  0  0
  181.3350  178.9330  142.5680 C   0  0  0  0  0  1  0  0  0  0  0  0
  186.3290  177.4170  143.2880 C   0  0  0  0  0  0  0  0  0  0  0  0
  183.7820  178.2080  142.4730 C   0  0  0  0  0  0  0  0  0  0  0  0
  193.7650  174.9270  144.6690 N   0  0  0  0  0  2  0  0  0  0  0  0
  194.8550  175.3760  145.4800 C   0  0  0  0  0  0  0  0  0  0  0  0
  194.8880  176.5590  145.9180 O   0  0  0  0  0  0  0  0  0  0  0  0
  195.9570  174.4350  145.8180 C   0  0  0  0  0  1  0  0  0  0  0  0
  1 20  1  0  0  0  0
  2 24  1  6  0  0  0
  2 12  1  0  0  0  0
  4  3  1  0  0  0  0
  5 27  1  0  0  0  0
  6  5  2  0  0  0  0
  6 28  1  0  0  0  0
  7 19  1  6  0  0  0
  7 17  1  0  0  0  0
  9 28  1  0  0  0  0
  9 26  1  0  0  0  0
 11  3  1  0  0  0  0
 12  8  1  1  0  0  0
 12 13  1  0  0  0  0
 13 11  1  1  0  0  0
 14 22  1  0  0  0  0
 15  9  1  0  0  0  0
 16  1  1  0  0  0  0
 17 10  1  1  0  0  0
 17  8  1  0  0  0  0
 18 15  2  0  0  0  0
 18  6  1  0  0  0  0
 19 16  1  0  0  0  0
 20 29  1  1  0  0  0
 20 10  1  0  0  0  0
 21  4  1  0  0  0  0
 22 13  1  0  0  0  0
 22 21  1  1  0  0  0
 23 14  1  0  0  0  0
 24  7  1  0  0  0  0
 25  5  1  0  0  0  0
 27  2  1  0  0  0  0
 27 14  2  0  0  0  0
 28 23  2  0  0  0  0
 29 30  1  0  0  0  0
 30 32  1  0  0  0  0
 30 31  2  0  0  0  0
M  END
>  <MODEL>
1

>  <REMARK>
 VINA RESULT:      -9.1      0.000      0.000
  Name = 
  1 active torsions:
  status: ('A' for Active; 'I' for Inactive)
    1  A    between atoms: C_20  and  N_29
                            x       y       z     vdW  Elec       q    Type
                         _______ _______ _______ _____ _____    ______ ____

>  <TORSDO>
F 1

$$$$
=
 OpenBabel11112416373D

 32 37  0  0  1  0  0  0  0  0999 V2000
  190.0030  173.7120  138.2380 C   0  0  0  0  0  2  0  0  0  0  0  0
  188.7280  175.2630  142.8670 C   0  0  1  0  0  3  0  0  0  0  0  0
  192.2160  175.1010  146.3520 C   0  0  0  0  0  2  0  0  0  0  0  0
  191.5460  176.4250  146.7280 C   0  0  0  0  0  2  0  0  0  0  0  0
  186.7360  176.8220  143.2760 C   0  0  0  0  0  0  0  0  0  0  0  0
  185.9390  177.5370  144.1750 C   0  0  0  0  0  0  0  0  0  0  0  0
  188.7820  173.5400  141.0270 N   0  0  2  0  0  0  0  0  0  0  0  0
  190.7050  173.7450  142.6310 C   0  0  0  0  0  2  0  0  0  0  0  0
  185.2820  178.3400  146.2170 N   0  0  0  0  0  0  0  0  0  0  0  0
  191.0430  172.7630  140.3820 C   0  0  0  0  0  2  0  0  0  0  0  0
  191.3920  174.3010  145.3350 C   0  0  0  0  0  2  0  0  0  0  0  0
  189.7140  174.3770  143.6270 C   0  0  1  0  0  3  0  0  0  0  0  0
  190.3840  175.1490  144.6840 N   0  0  1  0  0  0  0  0  0  0  0  0
  188.1790  176.1960  145.1650 C   0  0  0  0  0  0  0  0  0  0  0  0
  184.3070  178.8860  145.2820 C   0  0  0  0  0  3  0  0  0  0  0  0
  188.8530  173.0760  138.7180 O   0  0  0  0  0  0  0  0  0  0  0  0
  190.2360  173.8000  141.1680 C   0  0  1  0  0  3  0  0  0  0  0  0
  184.7220  178.3580  143.8900 C   0  0  0  0  0  3  0  0  0  0  0  0
  188.3530  173.9520  139.6880 C   0  0  0  0  0  2  0  0  0  0  0  0
  191.2630  173.1600  138.9180 C   0  0  1  0  0  3  0  0  0  0  0  0
  190.0340  176.2560  146.8970 C   0  0  0  0  0  2  0  0  0  0  0  0
  189.3900  175.4760  145.7250 C   0  0  2  0  0  3  0  0  0  0  0  0
  187.3340  176.9110  146.0360 C   0  0  0  0  0  3  0  0  0  0  0  0
  187.9390  174.3230  141.9510 C   0  0  0  0  0  2  0  0  0  0  0  0
  186.4210  176.8860  141.8150 C   0  0  0  0  0  1  0  0  0  0  0  0
  185.2840  178.5890  147.6500 C   0  0  0  0  0  1  0  0  0  0  0  0
  187.8390  176.0790  143.7850 C   0  0  0  0  0  0  0  0  0  0  0  0
  186.2210  177.5590  145.5080 C   0  0  0  0  0  0  0  0  0  0  0  0
  191.7630  172.0080  138.1790 N   0  0  0  0  0  2  0  0  0  0  0  0
  192.7540  172.1250  137.1540 C   0  0  0  0  0  0  0  0  0  0  0  0
  193.2870  173.2400  136.8960 O   0  0  0  0  0  0  0  0  0  0  0  0
  193.1690  170.9160  136.3910 C   0  0  0  0  0  1  0  0  0  0  0  0
  1 16  1  0  0  0  0
  1 20  1  0  0  0  0
  2 24  1  1  0  0  0
  2 12  1  0  0  0  0
  2 27  1  0  0  0  0
  3  4  1  0  0  0  0
  4 21  1  0  0  0  0
  5 27  2  0  0  0  0
  5  6  1  0  0  0  0
  6 28  2  0  0  0  0
  7 19  1  6  0  0  0
  7 17  1  0  0  0  0
  7 24  1  0  0  0  0
  9 26  1  0  0  0  0
 11  3  1  0  0  0  0
 12  8  1  6  0  0  0
 12 13  1  0  0  0  0
 13 11  1  1  0  0  0
 13 22  1  0  0  0  0
 14 22  1  0  0  0  0
 14 23  2  0  0  0  0
 15  9  1  0  0  0  0
 16 19  1  0  0  0  0
 17 10  1  6  0  0  0
 17  8  1  0  0  0  0
 18  6  1  0  0  0  0
 18 15  2  0  0  0  0
 20 29  1  6  0  0  0
 20 10  1  0  0  0  0
 22 21  1  1  0  0  0
 25  5  1  0  0  0  0
 27 14  1  0  0  0  0
 28 23  1  0  0  0  0
 28  9  1  0  0  0  0
 30 29  1  0  0  0  0
 31 30  2  0  0  0  0
 32 30  1  0  0  0  0
M  END
>  <MODEL>
2

>  <REMARK>
 VINA RESULT:      -8.5      3.127      5.316
  Name = 
  1 active torsions:
  status: ('A' for Active; 'I' for Inactive)
    1  A    between atoms: C_20  and  N_29
                            x       y       z     vdW  Elec       q    Type
                         _______ _______ _______ _____ _____    ______ ____

>  <TORSDO>
F 1

$$$$
=
 OpenBabel11112416373D

 32 37  0  0  1  0  0  0  0  0999 V2000
  185.8400  179.1040  143.7630 C   0  0  0  0  0  2  0  0  0  0  0  0
  189.5400  175.6750  143.6460 C   0  0  1  0  0  3  0  0  0  0  0  0
  189.5690  172.4990  139.8700 C   0  0  0  0  0  2  0  0  0  0  0  0
  191.0730  172.7620  139.9890 C   0  0  0  0  0  2  0  0  0  0  0  0
  191.7450  176.0120  144.9080 C   0  0  0  0  0  0  0  0  0  0  0  0
  193.0100  175.5320  145.2590 C   0  0  0  0  0  0  0  0  0  0  0  0
  187.3220  176.5360  144.4790 N   0  0  2  0  0  0  0  0  0  0  0  0
  187.4480  175.2020  142.3540 C   0  0  0  0  0  2  0  0  0  0  0  0
  194.7760  174.0730  145.2550 N   0  0  0  0  0  0  0  0  0  0  0  0
  185.5660  176.7640  142.7480 C   0  0  0  0  0  2  0  0  0  0  0  0
  188.7870  173.0440  141.0730 C   0  0  0  0  0  2  0  0  0  0  0  0
  188.7580  174.5970  142.8950 C   0  0  1  0  0  3  0  0  0  0  0  0
  189.5910  174.0060  141.8380 N   0  0  1  0  0  0  0  0  0  0  0  0
  191.4800  174.0470  143.4560 C   0  0  0  0  0  0  0  0  0  0  0  0
  195.1990  175.1520  146.1380 C   0  0  0  0  0  3  0  0  0  0  0  0
  185.9430  178.3850  144.9590 O   0  0  0  0  0  0  0  0  0  0  0  0
  187.0550  176.5310  143.0200 C   0  0  1  0  0  3  0  0  0  0  0  0
  194.0230  176.1560  146.1640 C   0  0  0  0  0  3  0  0  0  0  0  0
  187.2620  177.9160  144.9680 C   0  0  0  0  0  2  0  0  0  0  0  0
  185.2000  178.2490  142.6610 C   0  0  1  0  0  3  0  0  0  0  0  0
  191.5660  172.5320  141.4200 C   0  0  0  0  0  2  0  0  0  0  0  0
  190.6690  173.2230  142.4760 C   0  0  2  0  0  3  0  0  0  0  0  0
  192.7530  173.5920  143.8550 C   0  0  0  0  0  3  0  0  0  0  0  0
  188.6720  176.0640  144.8450 C   0  0  0  0  0  2  0  0  0  0  0  0
  191.3020  177.3420  145.4280 C   0  0  0  0  0  1  0  0  0  0  0  0
  195.5820  172.9080  144.9280 C   0  0  0  0  0  1  0  0  0  0  0  0
  190.9330  175.2230  144.0450 C   0  0  0  0  0  0  0  0  0  0  0  0
  193.4830  174.3530  144.7630 C   0  0  0  0  0  0  0  0  0  0  0  0
  183.7500  178.3880  142.7040 N   0  0  0  0  0  2  0  0  0  0  0  0
  182.9350  178.2910  141.5320 C   0  0  0  0  0  0  0  0  0  0  0  0
  183.4450  178.0110  140.4120 O   0  0  0  0  0  0  0  0  0  0  0  0
  181.4670  178.5130  141.6380 C   0  0  0  0  0  1  0  0  0  0  0  0
  1 16  1  0  0  0  0
  2 27  1  0  0  0  0
  2 24  1  1  0  0  0
  3  4  1  0  0  0  0
  3 11  1  0  0  0  0
  4 21  1  0  0  0  0
  5  6  1  0  0  0  0
  5 25  1  0  0  0  0
  6 18  1  0  0  0  0
  7 24  1  6  0  0  0
  7 19  1  0  0  0  0
  9 15  1  0  0  0  0
 10 17  1  0  0  0  0
 12  8  1  6  0  0  0
 12  2  1  0  0  0  0
 13 11  1  6  0  0  0
 13 22  1  0  0  0  0
 13 12  1  0  0  0  0
 14 23  2  0  0  0  0
 14 27  1  0  0  0  0
 15 18  2  0  0  0  0
 16 19  1  0  0  0  0
 17  8  1  1  0  0  0
 17  7  1  0  0  0  0
 20 29  1  1  0  0  0
 20 10  1  0  0  0  0
 20  1  1  0  0  0  0
 22 21  1  6  0  0  0
 22 14  1  0  0  0  0
 23 28  1  0  0  0  0
 26  9  1  0  0  0  0
 27  5  2  0  0  0  0
 28  9  1  0  0  0  0
 28  6  2  0  0  0  0
 30 32  1  0  0  0  0
 30 29  1  0  0  0  0
 31 30  2  0  0  0  0
M  END
>  <MODEL>
3

>  <REMARK>
 VINA RESULT:      -8.3      2.716      9.221
  Name = 
  1 active torsions:
  status: ('A' for Active; 'I' for Inactive)
    1  A    between atoms: C_20  and  N_29
                            x       y       z     vdW  Elec       q    Type
                         _______ _______ _______ _____ _____    ______ ____

>  <TORSDO>
F 1

$$$$
=
 OpenBabel11112416373D

 32 37  0  0  1  0  0  0  0  0999 V2000
  192.3970  172.8010  140.2750 C   0  0  0  0  0  2  0  0  0  0  0  0
  189.2900  175.1490  143.4840 C   0  0  1  0  0  3  0  0  0  0  0  0
  191.1100  176.3970  147.8960 C   0  0  0  0  0  2  0  0  0  0  0  0
  190.2610  177.6390  147.6140 C   0  0  0  0  0  2  0  0  0  0  0  0
  187.2020  176.4000  142.6830 C   0  0  0  0  0  0  0  0  0  0  0  0
  186.0680  177.1590  142.9900 C   0  0  0  0  0  0  0  0  0  0  0  0
  190.1820  173.0790  142.3540 N   0  0  2  0  0  0  0  0  0  0  0  0
  191.2930  173.9750  144.4220 C   0  0  0  0  0  2  0  0  0  0  0  0
  184.6040  178.2920  144.3380 N   0  0  0  0  0  0  0  0  0  0  0  0
  192.5590  172.5680  142.8240 C   0  0  0  0  0  2  0  0  0  0  0  0
  190.8120  175.2540  146.9160 C   0  0  0  0  0  2  0  0  0  0  0  0
  189.9490  174.6440  144.7680 C   0  0  1  0  0  3  0  0  0  0  0  0
  190.0920  175.7430  145.7330 N   0  0  1  0  0  0  0  0  0  0  0  0
  187.8140  176.4840  145.0620 C   0  0  0  0  0  0  0  0  0  0  0  0
  184.0470  178.4320  142.9990 C   0  0  0  0  0  3  0  0  0  0  0  0
  191.1940  172.1090  140.4600 O   0  0  0  0  0  0  0  0  0  0  0  0
  191.4410  173.6070  142.9360 C   0  0  1  0  0  3  0  0  0  0  0  0
  185.0140  177.6720  142.0620 C   0  0  0  0  0  3  0  0  0  0  0  0
  190.2940  173.0890  140.8930 C   0  0  0  0  0  2  0  0  0  0  0  0
  193.3160  172.6450  141.4930 C   0  0  1  0  0  3  0  0  0  0  0  0
  188.8210  177.2600  147.2600 C   0  0  0  0  0  2  0  0  0  0  0  0
  188.7470  176.1310  146.2030 C   0  0  2  0  0  3  0  0  0  0  0  0
  186.6480  177.2290  145.3270 C   0  0  0  0  0  3  0  0  0  0  0  0
  188.9930  173.9010  142.6470 C   0  0  0  0  0  2  0  0  0  0  0  0
  187.4890  176.0670  141.2540 C   0  0  0  0  0  1  0  0  0  0  0  0
  184.0200  178.8640  145.5410 C   0  0  0  0  0  1  0  0  0  0  0  0
  188.0580  175.9940  143.7460 C   0  0  0  0  0  0  0  0  0  0  0  0
  185.7960  177.5380  144.2700 C   0  0  0  0  0  0  0  0  0  0  0  0
  194.1420  171.4550  141.3430 N   0  0  0  0  0  2  0  0  0  0  0  0
  195.5330  171.4380  141.6780 C   0  0  0  0  0  0  0  0  0  0  0  0
  196.0860  172.4530  142.1860 O   0  0  0  0  0  0  0  0  0  0  0  0
  196.3340  170.2080  141.4340 C   0  0  0  0  0  1  0  0  0  0  0  0
  1 16  1  0  0  0  0
  1 20  1  0  0  0  0
  2 24  1  6  0  0  0
  2 27  1  0  0  0  0
  2 12  1  0  0  0  0
  4  3  1  0  0  0  0
  5  6  2  0  0  0  0
  5 27  1  0  0  0  0
  6 28  1  0  0  0  0
  7 19  1  6  0  0  0
  7 24  1  0  0  0  0
  7 17  1  0  0  0  0
  9 26  1  0  0  0  0
 11  3  1  0  0  0  0
 12  8  1  6  0  0  0
 12 13  1  0  0  0  0
 13 22  1  0  0  0  0
 13 11  1  1  0  0  0
 14 23  1  0  0  0  0
 14 22  1  0  0  0  0
 15  9  1  0  0  0  0
 16 19  1  0  0  0  0
 17 10  1  1  0  0  0
 17  8  1  0  0  0  0
 18  6  1  0  0  0  0
 18 15  2  0  0  0  0
 20 29  1  6  0  0  0
 20 10  1  0  0  0  0
 21  4  1  0  0  0  0
 22 21  1  1  0  0  0
 25  5  1  0  0  0  0
 27 14  2  0  0  0  0
 28  9  1  0  0  0  0
 28 23  2  0  0  0  0
 29 30  1  0  0  0  0
 30 31  2  0  0  0  0
 32 30  1  0  0  0  0
M  END
>  <MODEL>
4

>  <REMARK>
 VINA RESULT:      -7.9      2.697      3.649
  Name = 
  1 active torsions:
  status: ('A' for Active; 'I' for Inactive)
    1  A    between atoms: C_20  and  N_29
                            x       y       z     vdW  Elec       q    Type
                         _______ _______ _______ _____ _____    ______ ____

>  <TORSDO>
F 1

$$$$
=
 OpenBabel11112416373D

 32 37  0  0  1  0  0  0  0  0999 V2000
  188.4360  177.5420  146.4640 C   0  0  0  0  0  2  0  0  0  0  0  0
  191.7170  174.5290  144.0940 C   0  0  1  0  0  3  0  0  0  0  0  0
  190.8830  173.5760  139.3270 C   0  0  0  0  0  2  0  0  0  0  0  0
  192.4070  173.7200  139.2910 C   0  0  0  0  0  2  0  0  0  0  0  0
  194.1030  174.1720  144.9590 C   0  0  0  0  0  0  0  0  0  0  0  0
  195.3510  173.5590  144.8140 C   0  0  0  0  0  0  0  0  0  0  0  0
  189.7400  174.9210  145.6090 N   0  0  2  0  0  0  0  0  0  0  0  0
  189.4240  174.7790  143.1200 C   0  0  0  0  0  2  0  0  0  0  0  0
  196.9410  172.2510  143.8120 N   0  0  0  0  0  0  0  0  0  0  0  0
  187.7850  175.9910  144.5290 C   0  0  0  0  0  2  0  0  0  0  0  0
  190.3410  173.4850  140.7590 C   0  0  0  0  0  2  0  0  0  0  0  0
  190.7310  173.9640  143.0730 C   0  0  1  0  0  3  0  0  0  0  0  0
  191.3390  173.9420  141.7350 N   0  0  1  0  0  0  0  0  0  0  0  0
  193.4360  173.1600  142.8210 C   0  0  0  0  0  0  0  0  0  0  0  0
  197.5940  172.7610  145.0110 C   0  0  0  0  0  3  0  0  0  0  0  0
  188.6370  176.3330  147.1390 O   0  0  0  0  0  0  0  0  0  0  0  0
  189.2660  175.6270  144.3930 C   0  0  1  0  0  3  0  0  0  0  0  0
  196.5410  173.6480  145.7140 C   0  0  0  0  0  3  0  0  0  0  0  0
  189.8890  175.8930  146.6940 C   0  0  0  0  0  2  0  0  0  0  0  0
  187.5610  177.3400  145.2210 C   0  0  1  0  0  3  0  0  0  0  0  0
  193.0750  172.8180  140.3320 C   0  0  0  0  0  2  0  0  0  0  0  0
  192.4130  172.9280  141.7260 C   0  0  2  0  0  3  0  0  0  0  0  0
  194.7000  172.5450  142.7280 C   0  0  0  0  0  3  0  0  0  0  0  0
  191.0740  174.3060  145.4660 C   0  0  0  0  0  2  0  0  0  0  0  0
  193.8750  175.0930  146.1150 C   0  0  0  0  0  1  0  0  0  0  0  0
  197.5710  171.3740  142.8370 C   0  0  0  0  0  1  0  0  0  0  0  0
  193.1000  173.9150  143.9820 C   0  0  0  0  0  0  0  0  0  0  0  0
  195.6260  172.7590  143.7450 C   0  0  0  0  0  0  0  0  0  0  0  0
  186.1540  177.4670  145.5760 N   0  0  0  0  0  2  0  0  0  0  0  0
  185.4120  178.6710  145.3540 C   0  0  0  0  0  0  0  0  0  0  0  0
  185.9420  179.6570  144.7730 O   0  0  0  0  0  0  0  0  0  0  0  0
  183.9970  178.7560  145.8060 C   0  0  0  0  0  1  0  0  0  0  0  0
  1 16  1  0  0  0  0
  2 24  1  1  0  0  0
  3 11  1  0  0  0  0
  4  3  1  0  0  0  0
  4 21  1  0  0  0  0
  5 25  1  0  0  0  0
  6  5  1  0  0  0  0
  6 18  1  0  0  0  0
  7 24  1  6  0  0  0
  7 19  1  0  0  0  0
  9 15  1  0  0  0  0
 10 20  1  0  0  0  0
 12  8  1  6  0  0  0
 12  2  1  0  0  0  0
 13 11  1  6  0  0  0
 13 12  1  0  0  0  0
 14 27  1  0  0  0  0
 15 18  2  0  0  0  0
 17  8  1  6  0  0  0
 17 10  1  0  0  0  0
 17  7  1  0  0  0  0
 19 16  1  0  0  0  0
 20 29  1  1  0  0  0
 20  1  1  0  0  0  0
 22 21  1  6  0  0  0
 22 13  1  0  0  0  0
 22 14  1  0  0  0  0
 23 14  2  0  0  0  0
 23 28  1  0  0  0  0
 26  9  1  0  0  0  0
 27  2  1  0  0  0  0
 27  5  2  0  0  0  0
 28  9  1  0  0  0  0
 28  6  2  0  0  0  0
 30 29  1  0  0  0  0
 30 32  1  0  0  0  0
 31 30  2  0  0  0  0
M  END
>  <MODEL>
5

>  <REMARK>
 VINA RESULT:      -7.3      3.086      9.783
  Name = 
  1 active torsions:
  status: ('A' for Active; 'I' for Inactive)
    1  A    between atoms: C_20  and  N_29
                            x       y       z     vdW  Elec       q    Type
                         _______ _______ _______ _____ _____    ______ ____

>  <TORSDO>
F 1

$$$$
=
 OpenBabel11112416373D

 32 37  0  0  1  0  0  0  0  0999 V2000
  186.0940  176.4830  143.8110 C   0  0  0  0  0  2  0  0  0  0  0  0
  189.9080  173.6860  142.0530 C   0  0  1  0  0  3  0  0  0  0  0  0
  193.4690  172.4520  145.2360 C   0  0  0  0  0  2  0  0  0  0  0  0
  193.3650  171.1400  144.4540 C   0  0  0  0  0  2  0  0  0  0  0  0
  189.6820  172.2560  139.9380 C   0  0  0  0  0  0  0  0  0  0  0  0
  190.2580  171.3690  139.0240 C   0  0  0  0  0  0  0  0  0  0  0  0
  188.7150  175.8840  142.3720 N   0  0  2  0  0  0  0  0  0  0  0  0
  190.2840  175.0240  144.1360 C   0  0  0  0  0  2  0  0  0  0  0  0
  191.8970  170.0320  138.1470 N   0  0  0  0  0  0  0  0  0  0  0  0
  188.4860  176.6240  144.7240 C   0  0  0  0  0  2  0  0  0  0  0  0
  192.7090  173.5970  144.5540 C   0  0  0  0  0  2  0  0  0  0  0  0
  190.9680  174.2020  143.0250 C   0  0  1  0  0  3  0  0  0  0  0  0
  191.7640  173.0850  143.5530 N   0  0  1  0  0  0  0  0  0  0  0  0
  191.7550  172.1360  141.2530 C   0  0  0  0  0  0  0  0  0  0  0  0
  190.7810  169.8900  137.2220 C   0  0  0  0  0  3  0  0  0  0  0  0
  186.6810  177.0350  142.6670 O   0  0  0  0  0  0  0  0  0  0  0  0
  188.8540  175.4680  143.7890 C   0  0  1  0  0  3  0  0  0  0  0  0
  189.6550  170.7870  137.7860 C   0  0  0  0  0  3  0  0  0  0  0  0
  187.2910  175.9480  142.0330 C   0  0  0  0  0  2  0  0  0  0  0  0
  186.9880  176.6830  145.0410 C   0  0  1  0  0  3  0  0  0  0  0  0
  193.4870  171.3790  142.9480 C   0  0  0  0  0  2  0  0  0  0  0  0
  192.5860  172.5380  142.4560 C   0  0  2  0  0  3  0  0  0  0  0  0
  192.3020  171.2620  140.2940 C   0  0  0  0  0  3  0  0  0  0  0  0
  189.2910  174.9290  141.4060 C   0  0  0  0  0  2  0  0  0  0  0  0
  188.2600  172.6780  139.7450 C   0  0  0  0  0  1  0  0  0  0  0  0
  193.1750  169.3510  138.0120 C   0  0  0  0  0  1  0  0  0  0  0  0
  190.4650  172.7050  141.0390 C   0  0  0  0  0  0  0  0  0  0  0  0
  191.5300  170.9090  139.1900 C   0  0  0  0  0  0  0  0  0  0  0  0
  186.6840  177.9590  145.6740 N   0  0  0  0  0  2  0  0  0  0  0  0
  186.2260  178.0560  147.0270 C   0  0  0  0  0  0  0  0  0  0  0  0
  186.1320  177.0260  147.7510 O   0  0  0  0  0  0  0  0  0  0  0  0
  185.8660  179.3870  147.5880 C   0  0  0  0  0  1  0  0  0  0  0  0
  1 20  1  0  0  0  0
  2 24  1  6  0  0  0
  2 12  1  0  0  0  0
  4  3  1  0  0  0  0
  5 27  1  0  0  0  0
  6 28  1  0  0  0  0
  6  5  2  0  0  0  0
  7 24  1  6  0  0  0
  7 17  1  0  0  0  0
  9 28  1  0  0  0  0
 10 20  1  0  0  0  0
 11  3  1  0  0  0  0
 12 13  1  0  0  0  0
 12  8  1  1  0  0  0
 13 11  1  1  0  0  0
 14 22  1  0  0  0  0
 15 18  2  0  0  0  0
 15  9  1  0  0  0  0
 16  1  1  0  0  0  0
 17  8  1  6  0  0  0
 17 10  1  0  0  0  0
 18  6  1  0  0  0  0
 19  7  1  0  0  0  0
 19 16  1  0  0  0  0
 20 29  1  6  0  0  0
 21  4  1  0  0  0  0
 22 21  1  1  0  0  0
 22 13  1  0  0  0  0
 23 14  1  0  0  0  0
 25  5  1  0  0  0  0
 26  9  1  0  0  0  0
 27 14  2  0  0  0  0
 27  2  1  0  0  0  0
 28 23  2  0  0  0  0
 29 30  1  0  0  0  0
 30 32  1  0  0  0  0
 30 31  2  0  0  0  0
M  END
>  <MODEL>
6

>  <REMARK>
 VINA RESULT:      -7.1      4.105      8.462
  Name = 
  1 active torsions:
  status: ('A' for Active; 'I' for Inactive)
    1  A    between atoms: C_20  and  N_29
                            x       y       z     vdW  Elec       q    Type
                         _______ _______ _______ _____ _____    ______ ____

>  <TORSDO>
F 1

$$$$
=
 OpenBabel11112416373D

 32 37  0  0  1  0  0  0  0  0999 V2000
  186.3550  175.8160  143.4710 C   0  0  0  0  0  2  0  0  0  0  0  0
  191.2800  174.8580  142.9290 C   0  0  1  0  0  3  0  0  0  0  0  0
  194.3290  176.6500  146.3680 C   0  0  0  0  0  2  0  0  0  0  0  0
  194.9820  175.2840  146.1400 C   0  0  0  0  0  2  0  0  0  0  0  0
  192.1350  172.9010  141.5120 C   0  0  0  0  0  0  0  0  0  0  0  0
  193.2130  172.1700  141.0050 C   0  0  0  0  0  0  0  0  0  0  0  0
  189.1850  176.1510  142.3830 N   0  0  2  0  0  0  0  0  0  0  0  0
  190.6030  176.8030  144.3530 C   0  0  0  0  0  2  0  0  0  0  0  0
  195.4140  171.6090  140.7120 N   0  0  0  0  0  0  0  0  0  0  0  0
  188.2000  177.4030  144.2790 C   0  0  0  0  0  2  0  0  0  0  0  0
  193.2800  176.9780  145.2970 C   0  0  0  0  0  2  0  0  0  0  0  0
  191.7820  176.1130  143.6410 C   0  0  1  0  0  3  0  0  0  0  0  0
  192.8800  175.7740  144.5580 N   0  0  1  0  0  0  0  0  0  0  0  0
  193.7420  174.2520  142.7890 C   0  0  0  0  0  0  0  0  0  0  0  0
  194.6830  170.6440  139.9010 C   0  0  0  0  0  3  0  0  0  0  0  0
  186.8360  176.1770  142.2070 O   0  0  0  0  0  0  0  0  0  0  0  0
  189.2220  176.3450  143.8540 C   0  0  1  0  0  3  0  0  0  0  0  0
  193.1880  170.9990  140.0760 C   0  0  0  0  0  3  0  0  0  0  0  0
  187.9810  175.3920  142.0350 C   0  0  0  0  0  2  0  0  0  0  0  0
  186.8080  176.8200  144.5390 C   0  0  1  0  0  3  0  0  0  0  0  0
  195.2690  175.0460  144.6560 C   0  0  0  0  0  2  0  0  0  0  0  0
  194.0540  175.3780  143.7550 C   0  0  2  0  0  3  0  0  0  0  0  0
  194.7990  173.5020  142.2360 C   0  0  0  0  0  3  0  0  0  0  0  0
  190.3040  175.3470  141.8550 C   0  0  0  0  0  2  0  0  0  0  0  0
  190.7430  172.4800  141.1630 C   0  0  0  0  0  1  0  0  0  0  0  0
  196.8610  171.6420  140.8530 C   0  0  0  0  0  1  0  0  0  0  0  0
  192.4030  174.0080  142.3660 C   0  0  0  0  0  0  0  0  0  0  0  0
  194.4980  172.4780  141.3420 C   0  0  0  0  0  0  0  0  0  0  0  0
  185.8440  177.9070  144.6400 N   0  0  0  0  0  2  0  0  0  0  0  0
  184.8170  177.9340  145.6360 C   0  0  0  0  0  0  0  0  0  0  0  0
  184.7510  177.0330  146.5180 O   0  0  0  0  0  0  0  0  0  0  0  0
  183.8220  179.0410  145.6380 C   0  0  0  0  0  1  0  0  0  0  0  0
  1 20  1  0  0  0  0
  2 24  1  6  0  0  0
  2 12  1  0  0  0  0
  4  3  1  0  0  0  0
  5 27  1  0  0  0  0
  6 28  1  0  0  0  0
  6  5  2  0  0  0  0
  7 24  1  1  0  0  0
  7 17  1  0  0  0  0
  9 26  1  0  0  0  0
  9 28  1  0  0  0  0
 10 20  1  0  0  0  0
 11  3  1  0  0  0  0
 12  8  1  1  0  0  0
 12 13  1  0  0  0  0
 13 11  1  6  0  0  0
 14 22  1  0  0  0  0
 15 18  2  0  0  0  0
 15  9  1  0  0  0  0
 16  1  1  0  0  0  0
 17 10  1  6  0  0  0
 17  8  1  0  0  0  0
 18  6  1  0  0  0  0
 19 16  1  0  0  0  0
 19  7  1  0  0  0  0
 20 29  1  6  0  0  0
 21  4  1  0  0  0  0
 22 13  1  0  0  0  0
 22 21  1  1  0  0  0
 23 14  1  0  0  0  0
 25  5  1  0  0  0  0
 27 14  2  0  0  0  0
 27  2  1  0  0  0  0
 28 23  2  0  0  0  0
 29 30  1  0  0  0  0
 30 32  1  0  0  0  0
 30 31  2  0  0  0  0
M  END
>  <MODEL>
7

>  <REMARK>
 VINA RESULT:      -7.1      3.173      8.925
  Name = 
  1 active torsions:
  status: ('A' for Active; 'I' for Inactive)
    1  A    between atoms: C_20  and  N_29
                            x       y       z     vdW  Elec       q    Type
                         _______ _______ _______ _____ _____    ______ ____

>  <TORSDO>
F 1

$$$$
=
 OpenBabel11112416373D

 32 37  0  0  1  0  0  0  0  0999 V2000
  189.1240  177.9170  145.5600 C   0  0  0  0  0  2  0  0  0  0  0  0
  191.5930  173.7730  144.0770 C   0  0  1  0  0  3  0  0  0  0  0  0
  190.2660  171.7630  139.7730 C   0  0  0  0  0  2  0  0  0  0  0  0
  191.7830  171.5780  139.6790 C   0  0  0  0  0  2  0  0  0  0  0  0
  193.9190  173.1840  144.9770 C   0  0  0  0  0  0  0  0  0  0  0  0
  195.0130  172.3130  144.9910 C   0  0  0  0  0  0  0  0  0  0  0  0
  189.8370  174.9530  145.4490 N   0  0  2  0  0  0  0  0  0  0  0  0
  189.3300  174.2140  143.1010 C   0  0  0  0  0  2  0  0  0  0  0  0
  196.2500  170.4880  144.3720 N   0  0  0  0  0  0  0  0  0  0  0  0
  188.0550  176.0680  144.1390 C   0  0  0  0  0  2  0  0  0  0  0  0
  189.8160  172.1730  141.1810 C   0  0  0  0  0  2  0  0  0  0  0  0
  190.4490  173.1670  143.2660 C   0  0  1  0  0  3  0  0  0  0  0  0
  190.9480  172.6620  141.9790 N   0  0  1  0  0  0  0  0  0  0  0  0
  192.9250  171.7910  143.2120 C   0  0  0  0  0  0  0  0  0  0  0  0
  197.0690  171.1570  145.3740 C   0  0  0  0  0  3  0  0  0  0  0  0
  189.1350  176.9190  146.5410 O   0  0  0  0  0  0  0  0  0  0  0  0
  189.4260  175.3870  144.0910 C   0  0  1  0  0  3  0  0  0  0  0  0
  196.2570  172.3970  145.8170 C   0  0  0  0  0  3  0  0  0  0  0  0
  190.2450  176.1300  146.2200 C   0  0  0  0  0  2  0  0  0  0  0  0
  188.1430  177.5690  144.4320 C   0  0  1  0  0  3  0  0  0  0  0  0
  192.3350  170.8730  140.9200 C   0  0  0  0  0  2  0  0  0  0  0  0
  191.8040  171.4870  142.2380 C   0  0  2  0  0  3  0  0  0  0  0  0
  194.0380  170.9300  143.2780 C   0  0  0  0  0  3  0  0  0  0  0  0
  191.0150  174.0640  145.4650 C   0  0  0  0  0  2  0  0  0  0  0  0
  193.9530  174.4080  145.8340 C   0  0  0  0  0  1  0  0  0  0  0  0
  196.6300  169.2720  143.6700 C   0  0  0  0  0  1  0  0  0  0  0  0
  192.8210  172.8830  144.1230 C   0  0  0  0  0  0  0  0  0  0  0  0
  195.0550  171.2160  144.1840 C   0  0  0  0  0  0  0  0  0  0  0  0
  186.8150  178.0720  144.7560 N   0  0  0  0  0  2  0  0  0  0  0  0
  186.0210  178.8040  143.8180 C   0  0  0  0  0  0  0  0  0  0  0  0
  186.4230  178.9850  142.6350 O   0  0  0  0  0  0  0  0  0  0  0  0
  184.7010  179.3490  144.2380 C   0  0  0  0  0  1  0  0  0  0  0  0
  1 16  1  0  0  0  0
  2 27  1  0  0  0  0
  2 24  1  1  0  0  0
  3 11  1  0  0  0  0
  4  3  1  0  0  0  0
  4 21  1  0  0  0  0
  5  6  1  0  0  0  0
  5 25  1  0  0  0  0
  6 18  1  0  0  0  0
  7 24  1  6  0  0  0
  7 19  1  0  0  0  0
  9 15  1  0  0  0  0
 10 20  1  0  0  0  0
 12  8  1  6  0  0  0
 12  2  1  0  0  0  0
 13 11  1  6  0  0  0
 13 22  1  0  0  0  0
 13 12  1  0  0  0  0
 14 23  2  0  0  0  0
 14 27  1  0  0  0  0
 15 18  2  0  0  0  0
 17  8  1  6  0  0  0
 17 10  1  0  0  0  0
 17  7  1  0  0  0  0
 19 16  1  0  0  0  0
 20 29  1  1  0  0  0
 20  1  1  0  0  0  0
 22 21  1  6  0  0  0
 22 14  1  0  0  0  0
 23 28  1  0  0  0  0
 26  9  1  0  0  0  0
 27  5  2  0  0  0  0
 28  9  1  0  0  0  0
 28  6  2  0  0  0  0
 30 32  1  0  0  0  0
 30 29  1  0  0  0  0
 31 30  2  0  0  0  0
M  END
>  <MODEL>
8

>  <REMARK>
 VINA RESULT:      -7.1      3.352      9.902
  Name = 
  1 active torsions:
  status: ('A' for Active; 'I' for Inactive)
    1  A    between atoms: C_20  and  N_29
                            x       y       z     vdW  Elec       q    Type
                         _______ _______ _______ _____ _____    ______ ____

>  <TORSDO>
F 1

$$$$
=
 OpenBabel11112416373D

 32 37  0  0  1  0  0  0  0  0999 V2000
  194.2150  171.9170  145.7620 C   0  0  0  0  0  2  0  0  0  0  0  0
  190.5990  174.1940  143.0790 C   0  0  1  0  0  3  0  0  0  0  0  0
  189.6160  172.3770  138.6000 C   0  0  0  0  0  2  0  0  0  0  0  0
  188.1910  172.6970  139.0590 C   0  0  0  0  0  2  0  0  0  0  0  0
  188.7840  175.6260  144.1860 C   0  0  0  0  0  0  0  0  0  0  0  0
  187.6470  176.4280  144.0570 C   0  0  0  0  0  0  0  0  0  0  0  0
  192.9570  174.0280  143.9560 N   0  0  2  0  0  0  0  0  0  0  0  0
  192.2980  172.8250  141.8520 C   0  0  0  0  0  2  0  0  0  0  0  0
  185.9350  177.4790  142.9570 N   0  0  0  0  0  0  0  0  0  0  0  0
  194.2210  172.0380  143.2010 C   0  0  0  0  0  2  0  0  0  0  0  0
  190.6760  172.9940  139.5210 C   0  0  0  0  0  2  0  0  0  0  0  0
  191.1650  173.8590  141.7000 C   0  0  1  0  0  3  0  0  0  0  0  0
  190.0920  173.4000  140.8060 N   0  0  1  0  0  0  0  0  0  0  0  0
  188.6710  175.2010  141.7670 C   0  0  0  0  0  0  0  0  0  0  0  0
  185.7490  177.8490  144.3550 C   0  0  0  0  0  3  0  0  0  0  0  0
  194.4150  173.2980  145.6570 O   0  0  0  0  0  0  0  0  0  0  0  0
  192.8480  172.7110  143.2830 C   0  0  1  0  0  3  0  0  0  0  0  0
  186.8950  177.1550  145.1260 C   0  0  0  0  0  3  0  0  0  0  0  0
  193.1410  173.8130  145.3940 C   0  0  0  0  0  2  0  0  0  0  0  0
  194.5560  171.2090  144.4450 C   0  0  1  0  0  3  0  0  0  0  0  0
  188.0740  174.1460  139.5370 C   0  0  0  0  0  2  0  0  0  0  0  0
  189.2090  174.5450  140.5110 C   0  0  2  0  0  3  0  0  0  0  0  0
  187.5390  176.0360  141.6830 C   0  0  0  0  0  3  0  0  0  0  0  0
  191.7420  174.8590  143.8510 C   0  0  0  0  0  2  0  0  0  0  0  0
  189.3450  175.3730  145.5490 C   0  0  0  0  0  1  0  0  0  0  0  0
  185.0700  177.9040  141.8680 C   0  0  0  0  0  1  0  0  0  0  0  0
  189.3510  175.0550  143.0120 C   0  0  0  0  0  0  0  0  0  0  0  0
  187.0630  176.6380  142.8430 C   0  0  0  0  0  0  0  0  0  0  0  0
  195.9700  170.8590  144.4210 N   0  0  0  0  0  2  0  0  0  0  0  0
  196.4760  169.6630  145.0230 C   0  0  0  0  0  0  0  0  0  0  0  0
  195.6930  168.8240  145.5480 O   0  0  0  0  0  0  0  0  0  0  0  0
  197.9410  169.4030  145.0220 C   0  0  0  0  0  1  0  0  0  0  0  0
  2 24  1  1  0  0  0
  3  4  1  0  0  0  0
  3 11  1  0  0  0  0
  4 21  1  0  0  0  0
  5 25  1  0  0  0  0
  6  5  1  0  0  0  0
  6 18  1  0  0  0  0
  7 24  1  1  0  0  0
  7 19  1  0  0  0  0
  9 15  1  0  0  0  0
 10 17  1  0  0  0  0
 10 20  1  0  0  0  0
 12  8  1  1  0  0  0
 12  2  1  0  0  0  0
 13 11  1  6  0  0  0
 13 12  1  0  0  0  0
 14 27  1  0  0  0  0
 15 18  2  0  0  0  0
 16  1  1  0  0  0  0
 17  8  1  6  0  0  0
 17  7  1  0  0  0  0
 19 16  1  0  0  0  0
 20 29  1  1  0  0  0
 20  1  1  0  0  0  0
 22 21  1  6  0  0  0
 22 13  1  0  0  0  0
 22 14  1  0  0  0  0
 23 14  2  0  0  0  0
 23 28  1  0  0  0  0
 26  9  1  0  0  0  0
 27  2  1  0  0  0  0
 27  5  2  0  0  0  0
 28  9  1  0  0  0  0
 28  6  2  0  0  0  0
 29 30  1  0  0  0  0
 30 31  2  0  0  0  0
 32 30  1  0  0  0  0
M  END
>  <MODEL>
9

>  <REMARK>
 VINA RESULT:      -7.0      3.201      6.044
  Name = 
  1 active torsions:
  status: ('A' for Active; 'I' for Inactive)
    1  A    between atoms: C_20  and  N_29
                            x       y       z     vdW  Elec       q    Type
                         _______ _______ _______ _____ _____    ______ ____

>  <TORSDO>
F 1

$$$$
