=
 OpenBabel11112416233D

 30 35  0  0  1  0  0  0  0  0999 V2000
  186.6540  177.5920  143.9220 C   0  0  2  0  0  3  0  0  0  0  0  0
  184.8380  178.3480  145.4680 C   0  0  1  0  0  3  0  0  0  0  0  0
  188.6790  176.1500  147.2450 O   0  0  0  0  0  0  0  0  0  0  0  0
  188.0920  177.0690  143.7250 C   0  0  2  0  0  3  0  0  0  0  0  0
  186.1770  178.2160  142.6190 C   0  0  0  0  0  2  0  0  0  0  0  0
  187.7990  175.9200  140.3790 O   0  0  0  0  0  0  0  0  0  0  0  0
  190.6970  175.9410  142.8880 C   0  0  1  0  0  3  0  0  0  0  0  0
  187.3880  176.3180  141.4610 C   0  0  0  0  0  0  0  0  0  0  0  0
  191.0120  175.8140  144.3760 C   0  0  2  0  0  3  0  0  0  0  0  0
  189.7850  175.5930  146.6160 C   0  0  0  0  0  0  0  0  0  0  0  0
  186.1140  177.1420  141.5260 C   0  0  2  0  0  3  0  0  0  0  0  0
  188.0580  175.8800  142.7510 C   0  0  1  0  0  3  0  0  0  0  0  0
  184.4650  178.6480  146.9110 C   0  0  0  0  0  2  0  0  0  0  0  0
  191.7920  174.5220  144.5010 C   0  0  0  0  0  2  0  0  0  0  0  0
  191.8980  175.3180  142.1910 C   0  0  0  0  0  2  0  0  0  0  0  0
  184.1510  179.2230  144.6270 O   0  0  0  0  0  1  0  0  0  0  0  0
  187.8220  176.6350  146.2260 C   0  0  2  0  0  3  0  0  0  0  0  0
  185.1890  177.7450  147.7910 N   0  0  0  0  0  2  0  0  0  0  0  0
  186.3540  178.4400  145.2000 C   0  0  1  0  0  3  0  0  0  0  0  0
  188.7730  176.8290  145.0730 C   0  0  1  0  0  3  0  0  0  0  0  0
  190.7010  174.9970  147.2420 O   0  0  0  0  0  0  0  0  0  0  0  0
  189.8050  175.8160  145.2070 N   0  0  0  0  0  0  0  0  0  0  0  0
  192.5710  174.4010  143.2040 C   0  0  0  0  0  2  0  0  0  0  0  0
  189.4350  174.0910  142.0770 O   0  0  0  0  0  0  0  0  0  0  0  0
  186.5700  178.2010  147.8070 C   0  0  0  0  0  2  0  0  0  0  0  0
  187.2270  178.0140  146.4370 C   0  0  1  0  0  3  0  0  0  0  0  0
  189.4070  175.2340  142.5140 C   0  0  0  0  0  0  0  0  0  0  0  0
  185.8330  177.7690  140.2430 N   0  0  0  0  0  2  0  0  0  0  0  0
  183.4140  177.8830  140.2450 C   0  0  0  0  0  1  0  0  0  0  0  0
  184.6990  178.6570  140.4400 C   0  0  0  0  0  2  0  0  0  0  0  0
  1  5  1  6  0  0  0
  1 19  1  0  0  0  0
  2 16  1  6  0  0  0
  2 13  1  0  0  0  0
  4  1  1  0  0  0  0
  4 20  1  0  0  0  0
  6  8  2  0  0  0  0
  7  9  1  0  0  0  0
  8 11  1  0  0  0  0
  8 12  1  0  0  0  0
  9 14  1  0  0  0  0
  9 22  1  0  0  0  0
 10 21  2  0  0  0  0
 10  3  1  0  0  0  0
 11  5  1  0  0  0  0
 12  4  1  0  0  0  0
 13 18  1  0  0  0  0
 15  7  1  0  0  0  0
 15 23  1  0  0  0  0
 17 26  1  0  0  0  0
 17  3  1  0  0  0  0
 18 25  1  0  0  0  0
 19  2  1  0  0  0  0
 19 26  1  0  0  0  0
 20 22  1  0  0  0  0
 20 17  1  0  0  0  0
 22 10  1  0  0  0  0
 23 14  1  0  0  0  0
 24 27  2  0  0  0  0
 26 25  1  0  0  0  0
 27 12  1  0  0  0  0
 27  7  1  0  0  0  0
 28 30  1  0  0  0  0
 28 11  1  0  0  0  0
 29 30  1  0  0  0  0
M  END
>  <MODEL>
1

>  <REMARK>
 VINA RESULT:      -8.2      0.000      0.000
  Name = 
  2 active torsions:
  status: ('A' for Active; 'I' for Inactive)
    1  A    between atoms: C_11  and  N_28
    2  A    between atoms: N_28  and  C_30
                            x       y       z     vdW  Elec       q    Type
                         _______ _______ _______ _____ _____    ______ ____

>  <TORSDO>
F 2

$$$$
=
 OpenBabel11112416233D

 30 35  0  0  1  0  0  0  0  0999 V2000
  189.1210  175.2660  143.7320 C   0  0  2  0  0  3  0  0  0  0  0  0
  191.2000  174.4180  144.8360 C   0  0  1  0  0  3  0  0  0  0  0  0
  188.3450  177.4290  147.1880 O   0  0  0  0  0  0  0  0  0  0  0  0
  187.7640  175.9920  143.8450 C   0  0  2  0  0  3  0  0  0  0  0  0
  189.1170  174.4130  142.4720 C   0  0  0  0  0  2  0  0  0  0  0  0
  187.2110  176.6490  140.4000 O   0  0  0  0  0  0  0  0  0  0  0  0
  185.1900  177.4230  143.5630 C   0  0  1  0  0  3  0  0  0  0  0  0
  187.8670  176.3260  141.3820 C   0  0  0  0  0  0  0  0  0  0  0  0
  185.3390  177.7860  145.0380 C   0  0  2  0  0  3  0  0  0  0  0  0
  187.1820  178.0780  146.7960 C   0  0  0  0  0  0  0  0  0  0  0  0
  188.9930  175.3170  141.2390 C   0  0  2  0  0  3  0  0  0  0  0  0
  187.6600  177.0280  142.7130 C   0  0  1  0  0  3  0  0  0  0  0  0
  191.9360  174.2430  146.1550 C   0  0  0  0  0  2  0  0  0  0  0  0
  184.7960  179.1950  145.1510 C   0  0  0  0  0  2  0  0  0  0  0  0
  183.9250  178.1460  143.1210 C   0  0  0  0  0  2  0  0  0  0  0  0
  191.4980  173.3420  143.9990 O   0  0  0  0  0  1  0  0  0  0  0  0
  188.8020  176.6840  146.0720 C   0  0  2  0  0  3  0  0  0  0  0  0
  191.6170  175.3560  147.0330 N   0  0  0  0  0  2  0  0  0  0  0  0
  189.6720  174.5460  145.0050 C   0  0  1  0  0  3  0  0  0  0  0  0
  187.5400  176.5080  145.2660 C   0  0  1  0  0  3  0  0  0  0  0  0
  186.5690  178.8920  147.5370 O   0  0  0  0  0  0  0  0  0  0  0  0
  186.7250  177.6870  145.5010 N   0  0  0  0  0  0  0  0  0  0  0  0
  183.6950  179.2810  144.1100 C   0  0  0  0  0  2  0  0  0  0  0  0
  186.3800  178.9220  142.1460 O   0  0  0  0  0  0  0  0  0  0  0  0
  190.2550  175.1420  147.4960 C   0  0  0  0  0  2  0  0  0  0  0  0
  189.2570  175.2620  146.3420 C   0  0  1  0  0  3  0  0  0  0  0  0
  186.3920  177.8540  142.7430 C   0  0  0  0  0  0  0  0  0  0  0  0
  188.8080  174.4960  140.0510 N   0  0  0  0  0  2  0  0  0  0  0  0
  189.1600  172.2050  139.3470 C   0  0  0  0  0  1  0  0  0  0  0  0
  188.7590  173.1120  140.4900 C   0  0  0  0  0  2  0  0  0  0  0  0
  1  5  1  6  0  0  0
  1  4  1  0  0  0  0
  1 19  1  0  0  0  0
  2 16  1  6  0  0  0
  2 19  1  0  0  0  0
  2 13  1  0  0  0  0
  4 20  1  0  0  0  0
  6  8  2  0  0  0  0
  7  9  1  0  0  0  0
  8 12  1  0  0  0  0
  9 14  1  0  0  0  0
  9 22  1  0  0  0  0
 10  3  1  0  0  0  0
 10 21  2  0  0  0  0
 11  8  1  0  0  0  0
 11  5  1  0  0  0  0
 12 27  1  0  0  0  0
 12  4  1  0  0  0  0
 13 18  1  0  0  0  0
 15  7  1  0  0  0  0
 15 23  1  0  0  0  0
 17 26  1  0  0  0  0
 17  3  1  0  0  0  0
 18 25  1  0  0  0  0
 19 26  1  0  0  0  0
 20 22  1  0  0  0  0
 20 17  1  0  0  0  0
 22 10  1  0  0  0  0
 23 14  1  0  0  0  0
 24 27  2  0  0  0  0
 26 25  1  0  0  0  0
 27  7  1  0  0  0  0
 28 30  1  0  0  0  0
 28 11  1  0  0  0  0
 29 30  1  0  0  0  0
M  END
>  <MODEL>
2

>  <REMARK>
 VINA RESULT:      -8.0      2.064      5.600
  Name = 
  2 active torsions:
  status: ('A' for Active; 'I' for Inactive)
    1  A    between atoms: C_11  and  N_28
    2  A    between atoms: N_28  and  C_30
                            x       y       z     vdW  Elec       q    Type
                         _______ _______ _______ _____ _____    ______ ____

>  <TORSDO>
F 2

$$$$
=
 OpenBabel11112416233D

 30 35  0  0  1  0  0  0  0  0999 V2000
  187.9320  176.3370  142.7320 C   0  0  2  0  0  3  0  0  0  0  0  0
  185.5850  177.2000  142.7870 C   0  0  1  0  0  3  0  0  0  0  0  0
  188.3450  177.6410  146.6510 O   0  0  0  0  0  0  0  0  0  0  0  0
  189.3330  176.2690  143.3760 C   0  0  2  0  0  3  0  0  0  0  0  0
  188.0510  175.9700  141.2610 C   0  0  0  0  0  2  0  0  0  0  0  0
  190.6090  173.4680  141.6080 O   0  0  0  0  0  0  0  0  0  0  0  0
  192.0910  175.7440  144.3110 C   0  0  1  0  0  3  0  0  0  0  0  0
  189.7420  174.2370  142.0010 C   0  0  0  0  0  0  0  0  0  0  0  0
  191.7210  176.5500  145.5540 C   0  0  2  0  0  3  0  0  0  0  0  0
  189.6410  177.2090  146.9010 C   0  0  0  0  0  0  0  0  0  0  0  0
  188.5310  174.5190  141.1290 C   0  0  2  0  0  3  0  0  0  0  0  0
  189.7920  174.8020  143.4100 C   0  0  1  0  0  3  0  0  0  0  0  0
  184.5970  178.1000  143.5130 C   0  0  0  0  0  2  0  0  0  0  0  0
  192.4270  175.8510  146.6970 C   0  0  0  0  0  2  0  0  0  0  0  0
  193.5060  175.2530  144.5850 C   0  0  0  0  0  2  0  0  0  0  0  0
  185.2990  177.2140  141.4220 O   0  0  0  0  0  1  0  0  0  0  0  0
  188.0050  177.2010  145.3470 C   0  0  2  0  0  3  0  0  0  0  0  0
  184.9000  178.0970  144.9340 N   0  0  0  0  0  2  0  0  0  0  0  0
  187.0560  177.5980  143.0220 C   0  0  1  0  0  3  0  0  0  0  0  0
  189.3570  177.0240  144.7060 C   0  0  1  0  0  3  0  0  0  0  0  0
  190.2140  177.3680  148.0110 O   0  0  0  0  0  0  0  0  0  0  0  0
  190.2730  176.6260  145.7610 N   0  0  0  0  0  0  0  0  0  0  0  0
  193.7050  175.2950  146.0940 C   0  0  0  0  0  2  0  0  0  0  0  0
  191.4120  173.4690  144.4820 O   0  0  0  0  0  0  0  0  0  0  0  0
  186.1080  178.8910  145.1020 C   0  0  0  0  0  2  0  0  0  0  0  0
  187.3110  178.2070  144.4490 C   0  0  1  0  0  3  0  0  0  0  0  0
  191.1370  174.5880  144.0730 C   0  0  0  0  0  0  0  0  0  0  0  0
  188.8170  174.2270  139.7320 N   0  0  0  0  0  2  0  0  0  0  0  0
  189.1050  172.0240  138.7680 C   0  0  0  0  0  1  0  0  0  0  0  0
  188.1290  172.9900  139.4040 C   0  0  0  0  0  2  0  0  0  0  0  0
  1  5  1  6  0  0  0
  1 19  1  0  0  0  0
  1  4  1  0  0  0  0
  2 16  1  6  0  0  0
  2 19  1  0  0  0  0
  2 13  1  0  0  0  0
  3 10  1  0  0  0  0
  4 12  1  0  0  0  0
  4 20  1  0  0  0  0
  6  8  2  0  0  0  0
  7 15  1  0  0  0  0
  7  9  1  0  0  0  0
  8 12  1  0  0  0  0
  9 22  1  0  0  0  0
  9 14  1  0  0  0  0
 10 21  2  0  0  0  0
 11  5  1  0  0  0  0
 11  8  1  0  0  0  0
 12 27  1  0  0  0  0
 13 18  1  0  0  0  0
 15 23  1  0  0  0  0
 17  3  1  0  0  0  0
 18 25  1  0  0  0  0
 19 26  1  0  0  0  0
 20 17  1  0  0  0  0
 20 22  1  0  0  0  0
 22 10  1  0  0  0  0
 23 14  1  0  0  0  0
 26 25  1  0  0  0  0
 26 17  1  0  0  0  0
 27  7  1  0  0  0  0
 27 24  2  0  0  0  0
 28 11  1  0  0  0  0
 29 30  1  0  0  0  0
 30 28  1  0  0  0  0
M  END
>  <MODEL>
3

>  <REMARK>
 VINA RESULT:      -7.9      2.165      3.274
  Name = 
  2 active torsions:
  status: ('A' for Active; 'I' for Inactive)
    1  A    between atoms: C_11  and  N_28
    2  A    between atoms: N_28  and  C_30
                            x       y       z     vdW  Elec       q    Type
                         _______ _______ _______ _____ _____    ______ ____

>  <TORSDO>
F 2

$$$$
=
 OpenBabel11112416233D

 30 35  0  0  1  0  0  0  0  0999 V2000
  187.7520  176.5180  144.9970 C   0  0  2  0  0  3  0  0  0  0  0  0
  186.4510  178.4840  145.8320 C   0  0  1  0  0  3  0  0  0  0  0  0
  186.4570  177.4740  141.1710 O   0  0  0  0  0  0  0  0  0  0  0  0
  188.0740  175.5320  143.8530 C   0  0  2  0  0  3  0  0  0  0  0  0
  188.1710  175.8900  146.3170 C   0  0  0  0  0  2  0  0  0  0  0  0
  191.1110  174.2020  145.1210 O   0  0  0  0  0  0  0  0  0  0  0  0
  189.0980  173.5310  141.9290 C   0  0  1  0  0  3  0  0  0  0  0  0
  190.1800  174.9940  145.0630 C   0  0  0  0  0  0  0  0  0  0  0  0
  188.2060  174.2110  140.8930 C   0  0  2  0  0  3  0  0  0  0  0  0
  187.1250  176.4930  140.4510 C   0  0  0  0  0  0  0  0  0  0  0  0
  189.6900  175.6770  146.3270 C   0  0  2  0  0  3  0  0  0  0  0  0
  189.6010  175.4070  143.7210 C   0  0  1  0  0  3  0  0  0  0  0  0
  185.3590  179.4920  145.5110 C   0  0  0  0  0  2  0  0  0  0  0  0
  189.0000  174.1660  139.6050 C   0  0  0  0  0  2  0  0  0  0  0  0
  189.8460  172.4640  141.1430 C   0  0  0  0  0  2  0  0  0  0  0  0
  186.4150  178.1910  147.1960 O   0  0  0  0  0  1  0  0  0  0  0  0
  186.8540  177.3390  142.5250 C   0  0  2  0  0  3  0  0  0  0  0  0
  185.3860  179.7910  144.0890 N   0  0  0  0  0  2  0  0  0  0  0  0
  186.3390  177.1840  145.0100 C   0  0  1  0  0  3  0  0  0  0  0  0
  187.3060  175.9020  142.5840 C   0  0  1  0  0  3  0  0  0  0  0  0
  187.0520  176.3950  139.1970 O   0  0  0  0  0  0  0  0  0  0  0  0
  187.8470  175.5790  141.2760 N   0  0  0  0  0  0  0  0  0  0  0  0
  189.8070  172.8820  139.6790 C   0  0  0  0  0  2  0  0  0  0  0  0
  191.1950  174.6340  142.1690 O   0  0  0  0  0  0  0  0  0  0  0  0
  184.8360  178.6270  143.4100 C   0  0  0  0  0  2  0  0  0  0  0  0
  185.7550  177.4140  143.5680 C   0  0  1  0  0  3  0  0  0  0  0  0
  190.0540  174.5070  142.5910 C   0  0  0  0  0  0  0  0  0  0  0  0
  190.0660  174.9160  147.5100 N   0  0  0  0  0  2  0  0  0  0  0  0
  191.1910  176.9980  148.0230 C   0  0  0  0  0  1  0  0  0  0  0  0
  191.3030  175.4890  148.0130 C   0  0  0  0  0  2  0  0  0  0  0  0
  1 19  1  0  0  0  0
  1  5  1  1  0  0  0
  2 16  1  1  0  0  0
  3 17  1  0  0  0  0
  4  1  1  0  0  0  0
  5 11  1  0  0  0  0
  7 27  1  0  0  0  0
  8  6  2  0  0  0  0
  8 11  1  0  0  0  0
  9 22  1  0  0  0  0
  9  7  1  0  0  0  0
 10  3  1  0  0  0  0
 10 22  1  0  0  0  0
 11 28  1  0  0  0  0
 12  4  1  0  0  0  0
 12  8  1  0  0  0  0
 13  2  1  0  0  0  0
 14 23  1  0  0  0  0
 14  9  1  0  0  0  0
 15  7  1  0  0  0  0
 17 20  1  0  0  0  0
 17 26  1  0  0  0  0
 18 13  1  0  0  0  0
 19  2  1  0  0  0  0
 20  4  1  0  0  0  0
 21 10  2  0  0  0  0
 22 20  1  0  0  0  0
 23 15  1  0  0  0  0
 24 27  2  0  0  0  0
 25 26  1  0  0  0  0
 25 18  1  0  0  0  0
 26 19  1  0  0  0  0
 27 12  1  0  0  0  0
 28 30  1  0  0  0  0
 30 29  1  0  0  0  0
M  END
>  <MODEL>
4

>  <REMARK>
 VINA RESULT:      -7.9      2.069      5.260
  Name = 
  2 active torsions:
  status: ('A' for Active; 'I' for Inactive)
    1  A    between atoms: C_11  and  N_28
    2  A    between atoms: N_28  and  C_30
                            x       y       z     vdW  Elec       q    Type
                         _______ _______ _______ _____ _____    ______ ____

>  <TORSDO>
F 2

$$$$
=
 OpenBabel11112416233D

 30 35  0  0  1  0  0  0  0  0999 V2000
  190.1300  175.2470  143.7430 C   0  0  2  0  0  3  0  0  0  0  0  0
  192.5580  174.6620  143.5990 C   0  0  1  0  0  3  0  0  0  0  0  0
  190.9740  177.2490  147.2790 O   0  0  0  0  0  0  0  0  0  0  0  0
  188.9460  175.7900  144.5700 C   0  0  2  0  0  3  0  0  0  0  0  0
  189.5830  174.4160  142.5910 C   0  0  0  0  0  2  0  0  0  0  0  0
  186.6700  176.4110  141.9180 O   0  0  0  0  0  0  0  0  0  0  0  0
  186.4440  176.8790  145.7150 C   0  0  1  0  0  3  0  0  0  0  0  0
  187.7600  176.1640  142.4160 C   0  0  0  0  0  0  0  0  0  0  0  0
  187.2770  177.2400  146.9440 C   0  0  2  0  0  3  0  0  0  0  0  0
  189.7110  177.7480  147.5670 C   0  0  0  0  0  0  0  0  0  0  0  0
  188.7600  175.3110  141.6560 C   0  0  2  0  0  3  0  0  0  0  0  0
  188.1780  176.8170  143.7220 C   0  0  1  0  0  3  0  0  0  0  0  0
  193.8720  174.5680  144.3590 C   0  0  0  0  0  2  0  0  0  0  0  0
  186.7180  178.5650  147.4180 C   0  0  0  0  0  2  0  0  0  0  0  0
  185.0610  177.4370  146.0170 C   0  0  0  0  0  2  0  0  0  0  0  0
  192.5070  173.6440  142.6460 O   0  0  0  0  0  1  0  0  0  0  0  0
  190.8840  176.5830  146.0310 C   0  0  2  0  0  3  0  0  0  0  0  0
  193.9220  175.6200  145.3610 N   0  0  0  0  0  2  0  0  0  0  0  0
  191.3200  174.5890  144.5150 C   0  0  1  0  0  3  0  0  0  0  0  0
  189.4150  176.2550  145.9490 C   0  0  1  0  0  3  0  0  0  0  0  0
  189.4720  178.4650  148.5740 O   0  0  0  0  0  0  0  0  0  0  0  0
  188.7090  177.3160  146.6470 N   0  0  0  0  0  0  0  0  0  0  0  0
  185.2410  178.5210  147.0720 C   0  0  0  0  0  2  0  0  0  0  0  0
  186.5940  178.5360  144.0120 O   0  0  0  0  0  0  0  0  0  0  0  0
  193.0090  175.2250  146.4220 C   0  0  0  0  0  2  0  0  0  0  0  0
  191.5600  175.2290  145.9300 C   0  0  1  0  0  3  0  0  0  0  0  0
  187.0180  177.4720  144.4410 C   0  0  0  0  0  0  0  0  0  0  0  0
  188.0920  174.4870  140.6590 N   0  0  0  0  0  2  0  0  0  0  0  0
  188.4190  172.5360  139.2630 C   0  0  0  0  0  1  0  0  0  0  0  0
  188.8910  173.2860  140.4890 C   0  0  0  0  0  2  0  0  0  0  0  0
  1  5  1  6  0  0  0
  1 19  1  0  0  0  0
  1  4  1  0  0  0  0
  2 16  1  6  0  0  0
  2 13  1  0  0  0  0
  2 19  1  0  0  0  0
  3 10  1  0  0  0  0
  4 20  1  0  0  0  0
  6  8  2  0  0  0  0
  7 15  1  0  0  0  0
  7  9  1  0  0  0  0
  8 12  1  0  0  0  0
  9 14  1  0  0  0  0
 10 21  2  0  0  0  0
 11  8  1  0  0  0  0
 11  5  1  0  0  0  0
 12 27  1  0  0  0  0
 12  4  1  0  0  0  0
 13 18  1  0  0  0  0
 15 23  1  0  0  0  0
 17  3  1  0  0  0  0
 18 25  1  0  0  0  0
 19 26  1  0  0  0  0
 20 17  1  0  0  0  0
 20 22  1  0  0  0  0
 22  9  1  0  0  0  0
 22 10  1  0  0  0  0
 23 14  1  0  0  0  0
 24 27  2  0  0  0  0
 26 17  1  0  0  0  0
 26 25  1  0  0  0  0
 27  7  1  0  0  0  0
 28 11  1  0  0  0  0
 29 30  1  0  0  0  0
 30 28  1  0  0  0  0
M  END
>  <MODEL>
5

>  <REMARK>
 VINA RESULT:      -7.8      2.162      5.835
  Name = 
  2 active torsions:
  status: ('A' for Active; 'I' for Inactive)
    1  A    between atoms: C_11  and  N_28
    2  A    between atoms: N_28  and  C_30
                            x       y       z     vdW  Elec       q    Type
                         _______ _______ _______ _____ _____    ______ ____

>  <TORSDO>
F 2

$$$$
=
 OpenBabel11112416233D

 30 35  0  0  1  0  0  0  0  0999 V2000
  188.4810  175.9310  144.2890 C   0  0  2  0  0  3  0  0  0  0  0  0
  187.1580  178.0460  144.4800 C   0  0  1  0  0  3  0  0  0  0  0  0
  187.4920  175.8520  140.2580 O   0  0  0  0  0  0  0  0  0  0  0  0
  188.8680  174.6810  143.4700 C   0  0  2  0  0  3  0  0  0  0  0  0
  188.7880  175.6710  145.7560 C   0  0  0  0  0  2  0  0  0  0  0  0
  191.7770  173.7330  145.2700 O   0  0  0  0  0  0  0  0  0  0  0  0
  189.9940  172.2470  142.2200 C   0  0  1  0  0  3  0  0  0  0  0  0
  190.8670  174.4800  144.9370 C   0  0  0  0  0  0  0  0  0  0  0  0
  189.1950  172.6320  140.9770 C   0  0  2  0  0  3  0  0  0  0  0  0
  188.1930  174.7170  139.8720 C   0  0  0  0  0  0  0  0  0  0  0  0
  190.2980  175.4700  145.9380 C   0  0  2  0  0  3  0  0  0  0  0  0
  190.3980  174.5280  143.4930 C   0  0  1  0  0  3  0  0  0  0  0  0
  186.1130  178.9330  143.8230 C   0  0  0  0  0  2  0  0  0  0  0  0
  190.0820  172.2520  139.8090 C   0  0  0  0  0  2  0  0  0  0  0  0
  190.7790  171.0130  141.7990 C   0  0  0  0  0  2  0  0  0  0  0  0
  187.0160  178.1190  145.8660 O   0  0  0  0  0  1  0  0  0  0  0  0
  187.7850  176.0760  141.6270 C   0  0  2  0  0  3  0  0  0  0  0  0
  186.2510  178.8500  142.3790 N   0  0  0  0  0  2  0  0  0  0  0  0
  187.0830  176.5760  144.0190 C   0  0  1  0  0  3  0  0  0  0  0  0
  188.2030  174.7050  142.0940 C   0  0  1  0  0  3  0  0  0  0  0  0
  188.2120  174.2940  138.6860 O   0  0  0  0  0  0  0  0  0  0  0  0
  188.8340  174.0510  140.9600 N   0  0  0  0  0  0  0  0  0  0  0  0
  190.8560  171.0330  140.2780 C   0  0  0  0  0  2  0  0  0  0  0  0
  192.0880  173.3770  142.3240 O   0  0  0  0  0  0  0  0  0  0  0  0
  185.7310  177.5480  141.9880 C   0  0  0  0  0  2  0  0  0  0  0  0
  186.6130  176.4200  142.5270 C   0  0  1  0  0  3  0  0  0  0  0  0
  190.9160  173.3640  142.6750 C   0  0  0  0  0  0  0  0  0  0  0  0
  190.5700  175.0450  147.3030 N   0  0  0  0  0  2  0  0  0  0  0  0
  192.4570  176.5630  147.2850 C   0  0  0  0  0  1  0  0  0  0  0  0
  191.1760  176.1720  147.9900 C   0  0  0  0  0  2  0  0  0  0  0  0
  1  5  1  1  0  0  0
  2 16  1  1  0  0  0
  3 17  1  0  0  0  0
  4 12  1  0  0  0  0
  4  1  1  0  0  0  0
  5 11  1  0  0  0  0
  7 27  1  0  0  0  0
  8  6  2  0  0  0  0
  8 11  1  0  0  0  0
  9  7  1  0  0  0  0
 10  3  1  0  0  0  0
 10 22  1  0  0  0  0
 11 28  1  0  0  0  0
 12  8  1  0  0  0  0
 13  2  1  0  0  0  0
 14 23  1  0  0  0  0
 14  9  1  0  0  0  0
 15  7  1  0  0  0  0
 17 20  1  0  0  0  0
 17 26  1  0  0  0  0
 18 13  1  0  0  0  0
 19  1  1  0  0  0  0
 19  2  1  0  0  0  0
 20  4  1  0  0  0  0
 21 10  2  0  0  0  0
 22  9  1  0  0  0  0
 22 20  1  0  0  0  0
 23 15  1  0  0  0  0
 24 27  2  0  0  0  0
 25 18  1  0  0  0  0
 25 26  1  0  0  0  0
 26 19  1  0  0  0  0
 27 12  1  0  0  0  0
 28 30  1  0  0  0  0
 29 30  1  0  0  0  0
M  END
>  <MODEL>
6

>  <REMARK>
 VINA RESULT:      -7.6      2.427      5.643
  Name = 
  2 active torsions:
  status: ('A' for Active; 'I' for Inactive)
    1  A    between atoms: C_11  and  N_28
    2  A    between atoms: N_28  and  C_30
                            x       y       z     vdW  Elec       q    Type
                         _______ _______ _______ _____ _____    ______ ____

>  <TORSDO>
F 2

$$$$
=
 OpenBabel11112416233D

 30 35  0  0  1  0  0  0  0  0999 V2000
  189.8180  175.2180  143.7250 C   0  0  2  0  0  3  0  0  0  0  0  0
  190.2050  173.9860  141.5830 C   0  0  1  0  0  3  0  0  0  0  0  0
  186.0870  176.2950  142.2600 O   0  0  0  0  0  0  0  0  0  0  0  0
  188.9820  176.2290  144.5390 C   0  0  2  0  0  3  0  0  0  0  0  0
  191.1970  175.1020  144.3570 C   0  0  0  0  0  2  0  0  0  0  0  0
  190.1700  175.4260  147.7860 O   0  0  0  0  0  0  0  0  0  0  0  0
  187.6120  177.9720  146.4990 C   0  0  1  0  0  3  0  0  0  0  0  0
  190.0070  175.2540  146.5860 C   0  0  0  0  0  0  0  0  0  0  0  0
  186.5500  178.1850  145.4230 C   0  0  2  0  0  3  0  0  0  0  0  0
  185.6040  176.9980  143.3560 C   0  0  0  0  0  0  0  0  0  0  0  0
  191.0680  174.5330  145.7750 C   0  0  2  0  0  3  0  0  0  0  0  0
  188.6910  175.6290  145.9250 C   0  0  1  0  0  3  0  0  0  0  0  0
  189.7490  173.8010  140.1440 C   0  0  0  0  0  2  0  0  0  0  0  0
  185.2380  178.2480  146.1760 C   0  0  0  0  0  2  0  0  0  0  0  0
  187.0820  178.7270  147.7090 C   0  0  0  0  0  2  0  0  0  0  0  0
  191.5860  173.8060  141.6520 O   0  0  0  0  0  1  0  0  0  0  0  0
  187.3560  175.7780  142.6240 C   0  0  2  0  0  3  0  0  0  0  0  0
  188.3110  174.0000  140.0670 N   0  0  0  0  0  2  0  0  0  0  0  0
  189.8220  175.3600  142.1690 C   0  0  1  0  0  3  0  0  0  0  0  0
  187.7740  176.7080  143.7350 C   0  0  1  0  0  3  0  0  0  0  0  0
  184.4560  177.5140  143.3870 O   0  0  0  0  0  0  0  0  0  0  0  0
  186.5580  177.1260  144.4110 N   0  0  0  0  0  0  0  0  0  0  0  0
  185.5780  178.8750  147.5160 C   0  0  0  0  0  2  0  0  0  0  0  0
  187.2380  175.9790  147.7460 O   0  0  0  0  0  0  0  0  0  0  0  0
  188.0830  175.4310  140.2020 C   0  0  0  0  0  2  0  0  0  0  0  0
  188.4670  175.9190  141.6010 C   0  0  1  0  0  3  0  0  0  0  0  0
  187.8260  176.5020  146.8090 C   0  0  0  0  0  0  0  0  0  0  0  0
  192.3610  174.5900  146.4410 N   0  0  0  0  0  2  0  0  0  0  0  0
  194.5270  175.6710  146.3560 C   0  0  0  0  0  1  0  0  0  0  0  0
  193.1040  175.6850  145.8410 C   0  0  0  0  0  2  0  0  0  0  0  0
  1  5  1  1  0  0  0
  1  4  1  0  0  0  0
  2 16  1  6  0  0  0
  2 19  1  0  0  0  0
  3 17  1  0  0  0  0
  3 10  1  0  0  0  0
  4 12  1  0  0  0  0
  5 11  1  0  0  0  0
  7 27  1  0  0  0  0
  7 15  1  0  0  0  0
  8  6  2  0  0  0  0
  9 14  1  0  0  0  0
  9  7  1  0  0  0  0
 10 21  2  0  0  0  0
 10 22  1  0  0  0  0
 11 28  1  0  0  0  0
 11  8  1  0  0  0  0
 12  8  1  0  0  0  0
 12 27  1  0  0  0  0
 13  2  1  0  0  0  0
 14 23  1  0  0  0  0
 17 20  1  0  0  0  0
 18 13  1  0  0  0  0
 18 25  1  0  0  0  0
 19  1  1  0  0  0  0
 20 22  1  0  0  0  0
 20  4  1  0  0  0  0
 22  9  1  0  0  0  0
 23 15  1  0  0  0  0
 25 26  1  0  0  0  0
 26 19  1  0  0  0  0
 26 17  1  0  0  0  0
 27 24  2  0  0  0  0
 30 29  1  0  0  0  0
 30 28  1  0  0  0  0
M  END
>  <MODEL>
7

>  <REMARK>
 VINA RESULT:      -7.6      1.942      7.121
  Name = 
  2 active torsions:
  status: ('A' for Active; 'I' for Inactive)
    1  A    between atoms: C_11  and  N_28
    2  A    between atoms: N_28  and  C_30
                            x       y       z     vdW  Elec       q    Type
                         _______ _______ _______ _____ _____    ______ ____

>  <TORSDO>
F 2

$$$$
=
 OpenBabel11112416233D

 30 35  0  0  1  0  0  0  0  0999 V2000
  187.8020  176.7460  143.9110 C   0  0  2  0  0  3  0  0  0  0  0  0
  185.5450  177.2090  144.8840 C   0  0  1  0  0  3  0  0  0  0  0  0
  189.3570  177.0560  147.7460 O   0  0  0  0  0  0  0  0  0  0  0  0
  189.3360  176.7240  144.0760 C   0  0  2  0  0  3  0  0  0  0  0  0
  187.4700  176.7870  142.4260 C   0  0  0  0  0  2  0  0  0  0  0  0
  190.1550  174.6860  141.2880 O   0  0  0  0  0  0  0  0  0  0  0  0
  192.2750  176.3940  143.9850 C   0  0  1  0  0  3  0  0  0  0  0  0
  189.4120  175.1930  142.1170 C   0  0  0  0  0  0  0  0  0  0  0  0
  192.2700  176.7920  145.4590 C   0  0  2  0  0  3  0  0  0  0  0  0
  190.6890  176.7720  147.4780 C   0  0  0  0  0  0  0  0  0  0  0  0
  187.9720  175.5050  141.7500 C   0  0  2  0  0  3  0  0  0  0  0  0
  189.8730  175.3820  143.5530 C   0  0  1  0  0  3  0  0  0  0  0  0
  184.7850  177.7390  146.0900 C   0  0  0  0  0  2  0  0  0  0  0  0
  193.3440  175.9380  146.0990 C   0  0  0  0  0  2  0  0  0  0  0  0
  193.7310  176.0640  143.6870 C   0  0  0  0  0  2  0  0  0  0  0  0
  184.8400  177.5280  143.7240 O   0  0  0  0  0  1  0  0  0  0  0  0
  188.6480  176.9170  146.5270 C   0  0  2  0  0  3  0  0  0  0  0  0
  185.5230  177.4190  147.3010 N   0  0  0  0  0  2  0  0  0  0  0  0
  186.9870  177.7480  144.7900 C   0  0  1  0  0  3  0  0  0  0  0  0
  189.7350  177.1110  145.5010 C   0  0  1  0  0  3  0  0  0  0  0  0
  191.5740  176.7260  148.3730 O   0  0  0  0  0  0  0  0  0  0  0  0
  190.9610  176.5980  146.0870 N   0  0  0  0  0  0  0  0  0  0  0  0
  194.3970  175.7500  145.0210 C   0  0  0  0  0  2  0  0  0  0  0  0
  191.8280  174.0750  143.6820 O   0  0  0  0  0  0  0  0  0  0  0  0
  186.6700  178.3140  147.3350 C   0  0  0  0  0  2  0  0  0  0  0  0
  187.6430  178.0050  146.1950 C   0  0  1  0  0  3  0  0  0  0  0  0
  191.3680  175.2080  143.7100 C   0  0  0  0  0  0  0  0  0  0  0  0
  187.8170  175.6240  140.3080 N   0  0  0  0  0  2  0  0  0  0  0  0
  186.5060  176.8110  138.6530 C   0  0  0  0  0  1  0  0  0  0  0  0
  187.0720  176.8460  140.0560 C   0  0  0  0  0  2  0  0  0  0  0  0
  1  5  1  6  0  0  0
  1  4  1  0  0  0  0
  1 19  1  0  0  0  0
  2 16  1  6  0  0  0
  2 13  1  0  0  0  0
  4 20  1  0  0  0  0
  6  8  2  0  0  0  0
  7  9  1  0  0  0  0
  8 12  1  0  0  0  0
  9 22  1  0  0  0  0
  9 14  1  0  0  0  0
 10  3  1  0  0  0  0
 10 21  2  0  0  0  0
 11  8  1  0  0  0  0
 11  5  1  0  0  0  0
 12 27  1  0  0  0  0
 12  4  1  0  0  0  0
 13 18  1  0  0  0  0
 15  7  1  0  0  0  0
 15 23  1  0  0  0  0
 17  3  1  0  0  0  0
 18 25  1  0  0  0  0
 19  2  1  0  0  0  0
 19 26  1  0  0  0  0
 20 22  1  0  0  0  0
 20 17  1  0  0  0  0
 22 10  1  0  0  0  0
 23 14  1  0  0  0  0
 24 27  2  0  0  0  0
 26 17  1  0  0  0  0
 26 25  1  0  0  0  0
 27  7  1  0  0  0  0
 28 11  1  0  0  0  0
 29 30  1  0  0  0  0
 30 28  1  0  0  0  0
M  END
>  <MODEL>
8

>  <REMARK>
 VINA RESULT:      -7.6      1.675      2.077
  Name = 
  2 active torsions:
  status: ('A' for Active; 'I' for Inactive)
    1  A    between atoms: C_11  and  N_28
    2  A    between atoms: N_28  and  C_30
                            x       y       z     vdW  Elec       q    Type
                         _______ _______ _______ _____ _____    ______ ____

>  <TORSDO>
F 2

$$$$
=
 OpenBabel11112416233D

 30 35  0  0  1  0  0  0  0  0999 V2000
  189.0330  174.2300  142.1670 C   0  0  2  0  0  3  0  0  0  0  0  0
  189.3240  172.6520  140.2480 C   0  0  1  0  0  3  0  0  0  0  0  0
  192.5350  172.6870  143.7740 O   0  0  0  0  0  0  0  0  0  0  0  0
  189.4360  174.6730  143.5890 C   0  0  2  0  0  3  0  0  0  0  0  0
  187.6500  174.7830  141.8560 C   0  0  0  0  0  2  0  0  0  0  0  0
  188.0040  177.9210  143.5730 O   0  0  0  0  0  0  0  0  0  0  0  0
  189.9770  175.9510  146.2030 C   0  0  1  0  0  3  0  0  0  0  0  0
  188.3930  176.8720  143.0760 C   0  0  0  0  0  0  0  0  0  0  0  0
  191.1020  174.9320  146.3610 C   0  0  2  0  0  3  0  0  0  0  0  0
  192.6380  173.4830  144.9070 C   0  0  0  0  0  0  0  0  0  0  0  0
  187.6990  176.3160  141.8460 C   0  0  2  0  0  3  0  0  0  0  0  0
  189.6520  176.1950  143.5910 C   0  0  1  0  0  3  0  0  0  0  0  0
  190.0330  171.4030  139.7490 C   0  0  0  0  0  2  0  0  0  0  0  0
  192.2160  175.6850  147.0570 C   0  0  0  0  0  2  0  0  0  0  0  0
  190.0940  176.8390  147.4340 C   0  0  0  0  0  2  0  0  0  0  0  0
  188.0450  172.7040  139.6940 O   0  0  0  0  0  1  0  0  0  0  0  0
  191.4050  173.1400  143.0480 C   0  0  2  0  0  3  0  0  0  0  0  0
  191.3620  171.3400  140.3340 N   0  0  0  0  0  2  0  0  0  0  0  0
  189.2370  172.7280  141.7850 C   0  0  1  0  0  3  0  0  0  0  0  0
  190.5880  173.8190  144.1190 C   0  0  1  0  0  3  0  0  0  0  0  0
  193.5920  173.3910  145.7240 O   0  0  0  0  0  0  0  0  0  0  0  0
  191.5300  174.3670  145.0790 N   0  0  0  0  0  0  0  0  0  0  0  0
  191.5170  176.6900  147.9540 C   0  0  0  0  0  2  0  0  0  0  0  0
  190.6580  177.8480  144.9350 O   0  0  0  0  0  0  0  0  0  0  0  0
  191.1840  170.9660  141.7280 C   0  0  0  0  0  2  0  0  0  0  0  0
  190.4710  172.0740  142.5070 C   0  0  1  0  0  3  0  0  0  0  0  0
  190.1090  176.7550  144.9220 C   0  0  0  0  0  0  0  0  0  0  0  0
  186.3480  176.8440  141.7270 N   0  0  0  0  0  2  0  0  0  0  0  0
  184.9600  178.3050  140.3850 C   0  0  0  0  0  1  0  0  0  0  0  0
  186.2830  177.5760  140.4740 C   0  0  0  0  0  2  0  0  0  0  0  0
  1  5  1  1  0  0  0
  1  4  1  0  0  0  0
  2 16  1  6  0  0  0
  2 19  1  0  0  0  0
  3 10  1  0  0  0  0
  4 12  1  0  0  0  0
  4 20  1  0  0  0  0
  7  9  1  0  0  0  0
  7 15  1  0  0  0  0
  8  6  2  0  0  0  0
  8 12  1  0  0  0  0
  9 14  1  0  0  0  0
 10 22  1  0  0  0  0
 10 21  2  0  0  0  0
 11  5  1  0  0  0  0
 11  8  1  0  0  0  0
 12 27  1  0  0  0  0
 13  2  1  0  0  0  0
 13 18  1  0  0  0  0
 14 23  1  0  0  0  0
 15 23  1  0  0  0  0
 17  3  1  0  0  0  0
 17 20  1  0  0  0  0
 18 25  1  0  0  0  0
 19  1  1  0  0  0  0
 19 26  1  0  0  0  0
 20 22  1  0  0  0  0
 22  9  1  0  0  0  0
 25 26  1  0  0  0  0
 26 17  1  0  0  0  0
 27 24  2  0  0  0  0
 27  7  1  0  0  0  0
 28 11  1  0  0  0  0
 29 30  1  0  0  0  0
 30 28  1  0  0  0  0
M  END
>  <MODEL>
9

>  <REMARK>
 VINA RESULT:      -7.2      2.822      5.692
  Name = 
  2 active torsions:
  status: ('A' for Active; 'I' for Inactive)
    1  A    between atoms: C_11  and  N_28
    2  A    between atoms: N_28  and  C_30
                            x       y       z     vdW  Elec       q    Type
                         _______ _______ _______ _____ _____    ______ ____

>  <TORSDO>
F 2

$$$$
