=
 OpenBabel11112416143D

 30 35  0  0  1  0  0  0  0  0999 V2000
  186.5840  177.7410  143.8040 C   0  0  0  0  0  0  0  0  0  0  0  0
  184.7240  178.7640  145.1230 C   0  0  0  0  0  0  0  0  0  0  0  0
  188.3180  175.9700  147.2760 C   0  0  0  0  0  2  0  0  0  0  0  0
  187.7560  176.9490  143.7930 C   0  0  0  0  0  0  0  0  0  0  0  0
  186.1400  178.3780  142.5160 C   0  0  0  0  0  2  0  0  0  0  0  0
  187.7580  176.0350  140.2240 O   0  0  0  0  0  0  0  0  0  0  0  0
  190.6480  177.2380  143.4040 C   0  0  1  0  0  3  0  0  0  0  0  0
  187.4850  176.6380  141.2970 C   0  0  0  0  0  0  0  0  0  0  0  0
  190.7390  176.4200  144.6920 C   0  0  2  0  0  3  0  0  0  0  0  0
  189.4950  175.2910  146.5460 C   0  0  1  0  0  3  0  0  0  0  0  0
  186.3370  177.4940  141.3730 N   0  0  0  0  0  0  0  0  0  0  0  0
  188.3340  176.3980  142.5130 C   0  0  1  0  0  3  0  0  0  0  0  0
  184.0860  178.9450  146.3540 C   0  0  0  0  0  3  0  0  0  0  0  0
  191.8620  175.4330  144.4850 C   0  0  0  0  0  2  0  0  0  0  0  0
  192.1030  177.3600  142.9800 C   0  0  0  0  0  2  0  0  0  0  0  0
  184.1630  179.3440  144.0320 F   0  0  0  0  0  0  0  0  0  0  0  0
  187.5930  176.6560  146.1750 C   0  0  0  0  0  0  0  0  0  0  0  0
  184.6000  178.3680  147.5140 C   0  0  0  0  0  3  0  0  0  0  0  0
  185.9040  177.9860  145.0370 C   0  0  0  0  0  0  0  0  0  0  0  0
  188.2620  176.4840  145.0030 C   0  0  0  0  0  0  0  0  0  0  0  0
  189.2830  173.7890  146.5270 C   0  0  0  0  0  1  0  0  0  0  0  0
  189.4980  175.8070  145.1750 N   0  0  0  0  0  0  0  0  0  0  0  0
  192.8430  176.1660  143.5810 C   0  0  0  0  0  2  0  0  0  0  0  0
  190.3940  175.4140  141.8090 O   0  0  0  0  0  1  0  0  0  0  0  0
  185.7610  177.6000  147.4560 C   0  0  0  0  0  3  0  0  0  0  0  0
  186.4160  177.4050  146.2360 C   0  0  0  0  0  0  0  0  0  0  0  0
  189.8290  176.6130  142.2540 C   0  0  2  0  0  3  0  0  0  0  0  0
  185.4590  177.6440  140.2220 C   0  0  0  0  0  2  0  0  0  0  0  0
  183.3000  178.0700  140.3720 C   0  0  0  0  0  1  0  0  0  0  0  0
  184.5520  178.6790  140.4530 O   0  0  0  0  0  0  0  0  0  0  0  0
  1 19  1  0  0  0  0
  2 13  1  0  0  0  0
  4  1  2  0  0  0  0
  4 20  1  0  0  0  0
  5  1  1  0  0  0  0
  6  8  2  0  0  0  0
  7 15  1  6  0  0  0
  7  9  1  0  0  0  0
  8 11  1  0  0  0  0
  9 14  1  6  0  0  0
  9 22  1  0  0  0  0
 10 21  1  6  0  0  0
 10  3  1  0  0  0  0
 11  5  1  0  0  0  0
 12  8  1  6  0  0  0
 12  4  1  0  0  0  0
 13 18  2  0  0  0  0
 15 23  1  0  0  0  0
 16  2  1  0  0  0  0
 17 26  1  0  0  0  0
 17  3  1  0  0  0  0
 19  2  2  0  0  0  0
 19 26  1  0  0  0  0
 20 22  1  0  0  0  0
 20 17  2  0  0  0  0
 22 10  1  0  0  0  0
 23 14  1  0  0  0  0
 25 18  1  0  0  0  0
 26 25  2  0  0  0  0
 27 24  1  1  0  0  0
 27 12  1  0  0  0  0
 27  7  1  0  0  0  0
 28 30  1  0  0  0  0
 28 11  1  0  0  0  0
 29 30  1  0  0  0  0
M  END
>  <MODEL>
1

>  <REMARK>
 VINA RESULT:      -8.8      0.000      0.000
  Name = 
  2 active torsions:
  status: ('A' for Active; 'I' for Inactive)
    1  A    between atoms: N_11  and  C_28
    2  A    between atoms: C_28  and  O_30
                            x       y       z     vdW  Elec       q    Type
                         _______ _______ _______ _____ _____    ______ ____

>  <TORSDO>
F 2

$$$$
=
 OpenBabel11112416143D

 30 35  0  0  1  0  0  0  0  0999 V2000
  187.7920  176.6360  145.7480 C   0  0  0  0  0  0  0  0  0  0  0  0
  186.0030  177.7040  147.1280 C   0  0  0  0  0  0  0  0  0  0  0  0
  185.6570  177.3190  142.1200 C   0  0  0  0  0  2  0  0  0  0  0  0
  188.2590  176.2590  144.4670 C   0  0  0  0  0  0  0  0  0  0  0  0
  188.6100  176.2460  146.9490 C   0  0  0  0  0  2  0  0  0  0  0  0
  191.8400  175.9400  145.2660 O   0  0  0  0  0  0  0  0  0  0  0  0
  188.7130  173.8390  142.8740 C   0  0  1  0  0  3  0  0  0  0  0  0
  190.5920  176.0330  145.4160 C   0  0  0  0  0  0  0  0  0  0  0  0
  187.9480  174.6020  141.7940 C   0  0  2  0  0  3  0  0  0  0  0  0
  186.7100  176.6900  141.1850 C   0  0  1  0  0  3  0  0  0  0  0  0
  190.0410  176.3680  146.6970 N   0  0  0  0  0  0  0  0  0  0  0  0
  189.6920  175.8570  144.2270 C   0  0  1  0  0  3  0  0  0  0  0  0
  184.7750  178.3700  147.1920 C   0  0  0  0  0  3  0  0  0  0  0  0
  188.6720  174.3350  140.4960 C   0  0  0  0  0  2  0  0  0  0  0  0
  189.1560  172.5790  142.1470 C   0  0  0  0  0  2  0  0  0  0  0  0
  186.6620  177.4860  148.2940 F   0  0  0  0  0  0  0  0  0  0  0  0
  186.2630  177.1550  143.4660 C   0  0  0  0  0  0  0  0  0  0  0  0
  184.0500  178.6380  146.0320 C   0  0  0  0  0  3  0  0  0  0  0  0
  186.5300  177.2930  145.8790 C   0  0  0  0  0  0  0  0  0  0  0  0
  187.4360  176.4750  143.3650 C   0  0  0  0  0  0  0  0  0  0  0  0
  187.3890  177.7790  140.3770 C   0  0  0  0  0  1  0  0  0  0  0  0
  187.6930  176.0240  142.0430 N   0  0  0  0  0  0  0  0  0  0  0  0
  189.2250  172.9250  140.6600 C   0  0  0  0  0  2  0  0  0  0  0  0
  190.9350  174.7680  142.5000 O   0  0  0  0  0  1  0  0  0  0  0  0
  184.5450  178.2410  144.7920 C   0  0  0  0  0  3  0  0  0  0  0  0
  185.7720  177.5750  144.7040 C   0  0  0  0  0  0  0  0  0  0  0  0
  189.9490  174.5500  143.4670 C   0  0  2  0  0  3  0  0  0  0  0  0
  190.9220  176.6390  147.8240 C   0  0  0  0  0  2  0  0  0  0  0  0
  191.4790  178.0070  149.4630 C   0  0  0  0  0  1  0  0  0  0  0  0
  190.5960  177.8710  148.3920 O   0  0  0  0  0  0  0  0  0  0  0  0
  1 19  1  0  0  0  0
  1  5  1  0  0  0  0
  2 13  1  0  0  0  0
  2 16  1  0  0  0  0
  3 17  1  0  0  0  0
  4  1  2  0  0  0  0
  6  8  2  0  0  0  0
  7 15  1  6  0  0  0
  7 27  1  0  0  0  0
  8 11  1  0  0  0  0
  9 14  1  6  0  0  0
  9 22  1  0  0  0  0
  9  7  1  0  0  0  0
 10 21  1  1  0  0  0
 10 22  1  0  0  0  0
 10  3  1  0  0  0  0
 11  5  1  0  0  0  0
 11 28  1  0  0  0  0
 12  4  1  1  0  0  0
 12  8  1  0  0  0  0
 14 23  1  0  0  0  0
 17 26  1  0  0  0  0
 18 13  2  0  0  0  0
 19  2  2  0  0  0  0
 20 17  2  0  0  0  0
 20  4  1  0  0  0  0
 22 20  1  0  0  0  0
 23 15  1  0  0  0  0
 25 18  1  0  0  0  0
 26 25  2  0  0  0  0
 26 19  1  0  0  0  0
 27 24  1  6  0  0  0
 27 12  1  0  0  0  0
 28 30  1  0  0  0  0
 30 29  1  0  0  0  0
M  END
>  <MODEL>
2

>  <REMARK>
 VINA RESULT:      -8.7      2.514      5.281
  Name = 
  2 active torsions:
  status: ('A' for Active; 'I' for Inactive)
    1  A    between atoms: N_11  and  C_28
    2  A    between atoms: C_28  and  O_30
                            x       y       z     vdW  Elec       q    Type
                         _______ _______ _______ _____ _____    ______ ____

>  <TORSDO>
F 2

$$$$
=
 OpenBabel11112416143D

 30 35  0  0  1  0  0  0  0  0999 V2000
  187.7800  176.2400  142.5140 C   0  0  0  0  0  0  0  0  0  0  0  0
  185.5910  177.4340  142.3350 C   0  0  0  0  0  0  0  0  0  0  0  0
  187.8590  176.6400  146.7600 C   0  0  0  0  0  2  0  0  0  0  0  0
  188.8170  175.7480  143.3400 C   0  0  0  0  0  0  0  0  0  0  0  0
  187.9310  176.1090  141.0230 C   0  0  0  0  0  2  0  0  0  0  0  0
  190.2370  173.2730  141.0110 O   0  0  0  0  0  0  0  0  0  0  0  0
  191.6240  176.3030  143.9790 C   0  0  1  0  0  3  0  0  0  0  0  0
  189.5770  174.2550  141.4460 C   0  0  0  0  0  0  0  0  0  0  0  0
  191.1430  176.2180  145.4270 C   0  0  2  0  0  3  0  0  0  0  0  0
  189.1990  175.9070  146.9720 C   0  0  1  0  0  3  0  0  0  0  0  0
  188.5380  174.8370  140.6460 N   0  0  0  0  0  0  0  0  0  0  0  0
  189.8410  174.7640  142.8330 C   0  0  1  0  0  3  0  0  0  0  0  0
  184.5140  178.0640  142.9660 C   0  0  0  0  0  3  0  0  0  0  0  0
  192.2070  175.4560  146.1800 C   0  0  0  0  0  2  0  0  0  0  0  0
  193.1290  176.4540  144.1320 C   0  0  0  0  0  2  0  0  0  0  0  0
  185.5530  177.3270  140.9830 F   0  0  0  0  0  0  0  0  0  0  0  0
  187.6800  176.5910  145.2860 C   0  0  0  0  0  0  0  0  0  0  0  0
  184.4820  178.1990  144.3530 C   0  0  0  0  0  3  0  0  0  0  0  0
  186.6670  176.9200  143.0990 C   0  0  0  0  0  0  0  0  0  0  0  0
  188.7620  176.0030  144.7080 C   0  0  0  0  0  0  0  0  0  0  0  0
  188.9460  174.5620  147.6260 C   0  0  0  0  0  1  0  0  0  0  0  0
  189.7870  175.7070  145.6440 N   0  0  0  0  0  0  0  0  0  0  0  0
  193.5040  175.8290  145.4760 C   0  0  0  0  0  2  0  0  0  0  0  0
  191.9630  173.9280  143.5480 O   0  0  0  0  0  1  0  0  0  0  0  0
  185.5290  177.7040  145.1270 C   0  0  0  0  0  3  0  0  0  0  0  0
  186.6160  177.0690  144.5170 C   0  0  0  0  0  0  0  0  0  0  0  0
  191.3200  175.0810  143.0850 C   0  0  2  0  0  3  0  0  0  0  0  0
  188.2150  174.2760  139.3430 C   0  0  0  0  0  2  0  0  0  0  0  0
  187.8390  174.8630  137.2510 C   0  0  0  0  0  1  0  0  0  0  0  0
  187.5610  175.2320  138.5660 O   0  0  0  0  0  0  0  0  0  0  0  0
  1 19  2  0  0  0  0
  1  4  1  0  0  0  0
  2 13  2  0  0  0  0
  2 19  1  0  0  0  0
  3 10  1  0  0  0  0
  4 20  2  0  0  0  0
  5  1  1  0  0  0  0
  6  8  2  0  0  0  0
  7 15  1  1  0  0  0
  7  9  1  0  0  0  0
  9 22  1  0  0  0  0
  9 14  1  1  0  0  0
 10 21  1  6  0  0  0
 11  5  1  0  0  0  0
 11  8  1  0  0  0  0
 12  8  1  6  0  0  0
 12 27  1  0  0  0  0
 12  4  1  0  0  0  0
 13 18  1  0  0  0  0
 15 23  1  0  0  0  0
 16  2  1  0  0  0  0
 17  3  1  0  0  0  0
 18 25  2  0  0  0  0
 19 26  1  0  0  0  0
 20 17  1  0  0  0  0
 20 22  1  0  0  0  0
 22 10  1  0  0  0  0
 23 14  1  0  0  0  0
 26 25  1  0  0  0  0
 26 17  2  0  0  0  0
 27 24  1  1  0  0  0
 27  7  1  0  0  0  0
 28 11  1  0  0  0  0
 29 30  1  0  0  0  0
 30 28  1  0  0  0  0
M  END
>  <MODEL>
3

>  <REMARK>
 VINA RESULT:      -8.6      1.943      2.822
  Name = 
  2 active torsions:
  status: ('A' for Active; 'I' for Inactive)
    1  A    between atoms: N_11  and  C_28
    2  A    between atoms: C_28  and  O_30
                            x       y       z     vdW  Elec       q    Type
                         _______ _______ _______ _____ _____    ______ ____

>  <TORSDO>
F 2

$$$$
=
 OpenBabel11112416143D

 30 35  0  0  1  0  0  0  0  0999 V2000
  188.0880  175.2730  142.8180 C   0  0  0  0  0  0  0  0  0  0  0  0
  189.3190  173.2210  142.0940 C   0  0  0  0  0  0  0  0  0  0  0  0
  189.8840  175.2080  146.6870 C   0  0  0  0  0  2  0  0  0  0  0  0
  187.8290  176.2250  143.8320 C   0  0  0  0  0  0  0  0  0  0  0  0
  187.3110  175.3680  141.5340 C   0  0  0  0  0  2  0  0  0  0  0  0
  186.4990  178.9280  141.7120 O   0  0  0  0  0  0  0  0  0  0  0  0
  185.6770  177.0180  145.6600 C   0  0  1  0  0  3  0  0  0  0  0  0
  186.8730  177.7820  142.0840 C   0  0  0  0  0  0  0  0  0  0  0  0
  186.7780  176.9660  146.7190 C   0  0  2  0  0  3  0  0  0  0  0  0
  189.1800  176.4730  147.2200 C   0  0  1  0  0  3  0  0  0  0  0  0
  187.1140  176.7510  141.1170 N   0  0  0  0  0  0  0  0  0  0  0  0
  187.1300  177.5290  143.5420 C   0  0  1  0  0  3  0  0  0  0  0  0
  190.2480  172.2170  142.3820 C   0  0  0  0  0  3  0  0  0  0  0  0
  186.5620  178.1660  147.6090 C   0  0  0  0  0  2  0  0  0  0  0  0
  184.4890  177.5620  146.4360 C   0  0  0  0  0  2  0  0  0  0  0  0
  188.7500  173.2190  140.8630 F   0  0  0  0  0  0  0  0  0  0  0  0
  189.3490  175.0830  145.3070 C   0  0  0  0  0  0  0  0  0  0  0  0
  190.8800  172.1660  143.6240 C   0  0  0  0  0  3  0  0  0  0  0  0
  189.0070  174.2060  143.0640 C   0  0  0  0  0  0  0  0  0  0  0  0
  188.4250  176.0550  145.0790 C   0  0  0  0  0  0  0  0  0  0  0  0
  190.1860  177.6000  147.3460 C   0  0  0  0  0  1  0  0  0  0  0  0
  188.1550  176.8320  146.2350 N   0  0  0  0  0  0  0  0  0  0  0  0
  185.0530  178.3680  147.6050 C   0  0  0  0  0  2  0  0  0  0  0  0
  186.0750  179.2640  144.8020 O   0  0  0  0  0  1  0  0  0  0  0  0
  190.5880  173.1210  144.5950 C   0  0  0  0  0  3  0  0  0  0  0  0
  189.6620  174.1360  144.3290 C   0  0  0  0  0  0  0  0  0  0  0  0
  185.9480  177.9200  144.4370 C   0  0  2  0  0  3  0  0  0  0  0  0
  186.9630  177.0310  139.6960 C   0  0  0  0  0  2  0  0  0  0  0  0
  186.7150  176.1760  137.6780 C   0  0  0  0  0  1  0  0  0  0  0  0
  187.1590  175.8610  138.9620 O   0  0  0  0  0  0  0  0  0  0  0  0
  1 19  2  0  0  0  0
  1  4  1  0  0  0  0
  2 13  2  0  0  0  0
  2 19  1  0  0  0  0
  3 10  1  0  0  0  0
  4 20  2  0  0  0  0
  5  1  1  0  0  0  0
  6  8  2  0  0  0  0
  7 15  1  1  0  0  0
  7  9  1  0  0  0  0
  9 14  1  6  0  0  0
 10 21  1  6  0  0  0
 11  5  1  0  0  0  0
 11  8  1  0  0  0  0
 12  8  1  6  0  0  0
 12  4  1  0  0  0  0
 12 27  1  0  0  0  0
 13 18  1  0  0  0  0
 15 23  1  0  0  0  0
 16  2  1  0  0  0  0
 17  3  1  0  0  0  0
 18 25  2  0  0  0  0
 19 26  1  0  0  0  0
 20 17  1  0  0  0  0
 20 22  1  0  0  0  0
 22  9  1  0  0  0  0
 22 10  1  0  0  0  0
 23 14  1  0  0  0  0
 26 25  1  0  0  0  0
 26 17  2  0  0  0  0
 27 24  1  1  0  0  0
 27  7  1  0  0  0  0
 28 11  1  0  0  0  0
 29 30  1  0  0  0  0
 30 28  1  0  0  0  0
M  END
>  <MODEL>
4

>  <REMARK>
 VINA RESULT:      -8.4      2.534      5.328
  Name = 
  2 active torsions:
  status: ('A' for Active; 'I' for Inactive)
    1  A    between atoms: N_11  and  C_28
    2  A    between atoms: C_28  and  O_30
                            x       y       z     vdW  Elec       q    Type
                         _______ _______ _______ _____ _____    ______ ____

>  <TORSDO>
F 2

$$$$
=
 OpenBabel11112416143D

 30 35  0  0  1  0  0  0  0  0999 V2000
  188.1150  175.8380  142.0350 C   0  0  0  0  0  0  0  0  0  0  0  0
  186.6030  176.9630  140.3930 C   0  0  0  0  0  0  0  0  0  0  0  0
  186.6400  178.1840  145.2790 C   0  0  0  0  0  2  0  0  0  0  0  0
  188.5620  175.7180  143.3720 C   0  0  0  0  0  0  0  0  0  0  0  0
  188.7920  175.0090  140.9790 C   0  0  0  0  0  2  0  0  0  0  0  0
  190.0170  172.3410  143.1570 O   0  0  0  0  0  0  0  0  0  0  0  0
  190.9300  176.3010  145.0010 C   0  0  1  0  0  3  0  0  0  0  0  0
  189.5460  173.4580  142.8090 C   0  0  0  0  0  0  0  0  0  0  0  0
  189.9190  176.9440  145.9490 C   0  0  2  0  0  3  0  0  0  0  0  0
  187.5250  177.5410  146.3660 C   0  0  1  0  0  3  0  0  0  0  0  0
  189.1120  173.6690  141.4590 N   0  0  0  0  0  0  0  0  0  0  0  0
  189.3800  174.5400  143.8370 C   0  0  1  0  0  3  0  0  0  0  0  0
  185.5910  177.8940  140.1380 C   0  0  0  0  0  3  0  0  0  0  0  0
  190.3420  176.5510  147.3440 C   0  0  0  0  0  2  0  0  0  0  0  0
  192.2310  176.3960  145.7800 C   0  0  0  0  0  2  0  0  0  0  0  0
  187.0670  176.2350  139.3470 F   0  0  0  0  0  0  0  0  0  0  0  0
  187.0440  177.4600  144.0460 C   0  0  0  0  0  0  0  0  0  0  0  0
  185.0590  178.6680  141.1680 C   0  0  0  0  0  3  0  0  0  0  0  0
  187.1030  176.7920  141.7080 C   0  0  0  0  0  0  0  0  0  0  0  0
  188.0520  176.5910  144.3300 C   0  0  0  0  0  0  0  0  0  0  0  0
  186.6670  176.6860  147.2800 C   0  0  0  0  0  1  0  0  0  0  0  0
  188.5010  176.6970  145.6720 N   0  0  0  0  0  0  0  0  0  0  0  0
  191.8590  176.4530  147.2610 C   0  0  0  0  0  2  0  0  0  0  0  0
  190.7240  173.9860  145.7340 O   0  0  0  0  0  1  0  0  0  0  0  0
  185.5360  178.5210  142.4690 C   0  0  0  0  0  3  0  0  0  0  0  0
  186.5470  177.5960  142.7480 C   0  0  0  0  0  0  0  0  0  0  0  0
  190.6660  174.8280  144.6180 C   0  0  2  0  0  3  0  0  0  0  0  0
  189.1790  172.5850  140.4900 C   0  0  0  0  0  2  0  0  0  0  0  0
  188.8680  172.6130  138.3070 C   0  0  0  0  0  1  0  0  0  0  0  0
  188.1930  172.7590  139.5180 O   0  0  0  0  0  0  0  0  0  0  0  0
  1  4  1  0  0  0  0
  2 19  1  0  0  0  0
  3 10  1  0  0  0  0
  4 12  1  0  0  0  0
  4 20  2  0  0  0  0
  5 11  1  0  0  0  0
  5  1  1  0  0  0  0
  7 15  1  1  0  0  0
  7  9  1  0  0  0  0
  8  6  2  0  0  0  0
  9 14  1  1  0  0  0
 10 21  1  1  0  0  0
 11  8  1  0  0  0  0
 12  8  1  6  0  0  0
 12 27  1  0  0  0  0
 13  2  2  0  0  0  0
 13 18  1  0  0  0  0
 15 23  1  0  0  0  0
 16  2  1  0  0  0  0
 17 20  1  0  0  0  0
 17  3  1  0  0  0  0
 18 25  2  0  0  0  0
 19  1  2  0  0  0  0
 19 26  1  0  0  0  0
 20 22  1  0  0  0  0
 22  9  1  0  0  0  0
 22 10  1  0  0  0  0
 23 14  1  0  0  0  0
 25 26  1  0  0  0  0
 26 17  2  0  0  0  0
 27  7  1  0  0  0  0
 27 24  1  1  0  0  0
 28 11  1  0  0  0  0
 29 30  1  0  0  0  0
 30 28  1  0  0  0  0
M  END
>  <MODEL>
5

>  <REMARK>
 VINA RESULT:      -8.3      2.587      4.378
  Name = 
  2 active torsions:
  status: ('A' for Active; 'I' for Inactive)
    1  A    between atoms: N_11  and  C_28
    2  A    between atoms: C_28  and  O_30
                            x       y       z     vdW  Elec       q    Type
                         _______ _______ _______ _____ _____    ______ ____

>  <TORSDO>
F 2

$$$$
=
 OpenBabel11112416143D

 30 35  0  0  1  0  0  0  0  0999 V2000
  188.5670  175.7190  143.2070 C   0  0  0  0  0  0  0  0  0  0  0  0
  186.3640  176.8940  143.3210 C   0  0  0  0  0  0  0  0  0  0  0  0
  189.7780  177.2320  147.0080 C   0  0  0  0  0  2  0  0  0  0  0  0
  189.8090  175.4300  143.8210 C   0  0  0  0  0  0  0  0  0  0  0  0
  188.3150  175.1900  141.8220 C   0  0  0  0  0  2  0  0  0  0  0  0
  190.6470  172.3780  141.9360 O   0  0  0  0  0  0  0  0  0  0  0  0
  192.6590  176.0410  143.5000 C   0  0  1  0  0  3  0  0  0  0  0  0
  190.0890  173.4620  142.2570 C   0  0  0  0  0  0  0  0  0  0  0  0
  192.5920  176.3610  144.9930 C   0  0  2  0  0  3  0  0  0  0  0  0
  191.1550  176.5370  147.0330 C   0  0  1  0  0  3  0  0  0  0  0  0
  188.8490  173.8440  141.6460 N   0  0  0  0  0  0  0  0  0  0  0  0
  190.6980  174.3130  143.3340 C   0  0  1  0  0  3  0  0  0  0  0  0
  185.4740  177.7050  144.0310 C   0  0  0  0  0  3  0  0  0  0  0  0
  193.8510  175.7920  145.6020 C   0  0  0  0  0  2  0  0  0  0  0  0
  194.1410  176.1770  143.1920 C   0  0  0  0  0  2  0  0  0  0  0  0
  185.9660  176.4310  142.1090 F   0  0  0  0  0  0  0  0  0  0  0  0
  189.2080  176.7980  145.7060 C   0  0  0  0  0  0  0  0  0  0  0  0
  185.8130  178.2050  145.2870 C   0  0  0  0  0  3  0  0  0  0  0  0
  187.6270  176.5660  143.8720 C   0  0  0  0  0  0  0  0  0  0  0  0
  190.1160  176.0410  145.0330 C   0  0  0  0  0  0  0  0  0  0  0  0
  191.1440  175.4250  148.0650 C   0  0  0  0  0  1  0  0  0  0  0  0
  191.3680  175.9720  145.6980 N   0  0  0  0  0  0  0  0  0  0  0  0
  194.8920  175.9210  144.4990 C   0  0  0  0  0  2  0  0  0  0  0  0
  192.9670  173.6270  143.6390 O   0  0  0  0  0  1  0  0  0  0  0  0
  187.0500  177.9000  145.8490 C   0  0  0  0  0  3  0  0  0  0  0  0
  187.9570  177.0900  145.1580 C   0  0  0  0  0  0  0  0  0  0  0  0
  192.1750  174.6360  143.0810 C   0  0  2  0  0  3  0  0  0  0  0  0
  188.2090  172.9670  140.6770 C   0  0  0  0  0  2  0  0  0  0  0  0
  188.8330  172.5830  138.5960 C   0  0  0  0  0  1  0  0  0  0  0  0
  188.2500  173.5520  139.4110 O   0  0  0  0  0  0  0  0  0  0  0  0
  1  4  2  0  0  0  0
  1 19  1  0  0  0  0
  2 19  2  0  0  0  0
  2 13  1  0  0  0  0
  3 10  1  0  0  0  0
  4 20  1  0  0  0  0
  5  1  1  0  0  0  0
  6  8  2  0  0  0  0
  7 15  1  1  0  0  0
  7  9  1  0  0  0  0
  9 14  1  1  0  0  0
  9 22  1  0  0  0  0
 10 21  1  1  0  0  0
 11  5  1  0  0  0  0
 11  8  1  0  0  0  0
 12  8  1  6  0  0  0
 12  4  1  0  0  0  0
 13 18  2  0  0  0  0
 15 23  1  0  0  0  0
 16  2  1  0  0  0  0
 17  3  1  0  0  0  0
 18 25  1  0  0  0  0
 19 26  1  0  0  0  0
 20 22  1  0  0  0  0
 20 17  2  0  0  0  0
 22 10  1  0  0  0  0
 23 14  1  0  0  0  0
 26 17  1  0  0  0  0
 26 25  2  0  0  0  0
 27 12  1  0  0  0  0
 27  7  1  0  0  0  0
 27 24  1  1  0  0  0
 28 11  1  0  0  0  0
 29 30  1  0  0  0  0
 30 28  1  0  0  0  0
M  END
>  <MODEL>
6

>  <REMARK>
 VINA RESULT:      -8.1      2.452      3.500
  Name = 
  2 active torsions:
  status: ('A' for Active; 'I' for Inactive)
    1  A    between atoms: N_11  and  C_28
    2  A    between atoms: C_28  and  O_30
                            x       y       z     vdW  Elec       q    Type
                         _______ _______ _______ _____ _____    ______ ____

>  <TORSDO>
F 2

$$$$
=
 OpenBabel11112416143D

 30 35  0  0  1  0  0  0  0  0999 V2000
  189.4010  176.5260  145.1370 C   0  0  0  0  0  0  0  0  0  0  0  0
  188.1770  177.6370  147.0120 C   0  0  0  0  0  0  0  0  0  0  0  0
  186.1390  177.0710  142.4420 C   0  0  0  0  0  2  0  0  0  0  0  0
  189.4050  176.1040  143.7870 C   0  0  0  0  0  0  0  0  0  0  0  0
  190.5870  176.1830  145.9970 C   0  0  0  0  0  2  0  0  0  0  0  0
  193.0480  175.8270  143.3170 O   0  0  0  0  0  0  0  0  0  0  0  0
  189.3230  173.6300  142.2150 C   0  0  1  0  0  3  0  0  0  0  0  0
  191.9250  175.9210  143.8840 C   0  0  0  0  0  0  0  0  0  0  0  0
  188.2220  174.3510  141.4390 C   0  0  2  0  0  3  0  0  0  0  0  0
  186.8170  176.4110  141.2240 C   0  0  1  0  0  3  0  0  0  0  0  0
  191.8430  176.3010  145.2640 N   0  0  0  0  0  0  0  0  0  0  0  0
  190.6750  175.6990  143.0820 C   0  0  1  0  0  3  0  0  0  0  0  0
  187.0350  178.3010  147.4720 C   0  0  0  0  0  3  0  0  0  0  0  0
  188.4610  174.0400  139.9810 C   0  0  0  0  0  2  0  0  0  0  0  0
  189.5090  172.3470  141.4220 C   0  0  0  0  0  2  0  0  0  0  0  0
  189.1990  177.4640  147.8870 F   0  0  0  0  0  0  0  0  0  0  0  0
  187.1730  176.9570  143.5030 C   0  0  0  0  0  0  0  0  0  0  0  0
  185.9520  178.5240  146.6240 C   0  0  0  0  0  3  0  0  0  0  0  0
  188.2500  177.1830  145.6720 C   0  0  0  0  0  0  0  0  0  0  0  0
  188.2510  176.2770  143.0280 C   0  0  0  0  0  0  0  0  0  0  0  0
  187.1620  177.4730  140.1970 C   0  0  0  0  0  1  0  0  0  0  0  0
  188.0460  175.7800  141.7140 N   0  0  0  0  0  0  0  0  0  0  0  0
  189.0580  172.6390  139.9910 C   0  0  0  0  0  2  0  0  0  0  0  0
  191.2670  174.5530  141.0700 O   0  0  0  0  0  1  0  0  0  0  0  0
  185.9980  178.0850  145.3020 C   0  0  0  0  0  3  0  0  0  0  0  0
  187.1300  177.4200  144.8200 C   0  0  0  0  0  0  0  0  0  0  0  0
  190.6760  174.3670  142.3240 C   0  0  2  0  0  3  0  0  0  0  0  0
  193.0520  176.6150  146.0100 C   0  0  0  0  0  2  0  0  0  0  0  0
  194.9300  175.4750  146.2080 C   0  0  0  0  0  1  0  0  0  0  0  0
  193.5820  175.4480  146.5630 O   0  0  0  0  0  0  0  0  0  0  0  0
  1 19  1  0  0  0  0
  1  5  1  0  0  0  0
  2 13  1  0  0  0  0
  2 16  1  0  0  0  0
  3 17  1  0  0  0  0
  4  1  2  0  0  0  0
  6  8  2  0  0  0  0
  7 15  1  6  0  0  0
  7 27  1  0  0  0  0
  8 11  1  0  0  0  0
  9 14  1  6  0  0  0
  9 22  1  0  0  0  0
  9  7  1  0  0  0  0
 10 21  1  6  0  0  0
 10 22  1  0  0  0  0
 10  3  1  0  0  0  0
 11  5  1  0  0  0  0
 11 28  1  0  0  0  0
 12  4  1  1  0  0  0
 12  8  1  0  0  0  0
 14 23  1  0  0  0  0
 17 26  1  0  0  0  0
 18 13  2  0  0  0  0
 19  2  2  0  0  0  0
 20 17  2  0  0  0  0
 20  4  1  0  0  0  0
 22 20  1  0  0  0  0
 23 15  1  0  0  0  0
 25 18  1  0  0  0  0
 26 25  2  0  0  0  0
 26 19  1  0  0  0  0
 27 24  1  6  0  0  0
 27 12  1  0  0  0  0
 28 30  1  0  0  0  0
 29 30  1  0  0  0  0
M  END
>  <MODEL>
7

>  <REMARK>
 VINA RESULT:      -7.6      2.626      5.647
  Name = 
  2 active torsions:
  status: ('A' for Active; 'I' for Inactive)
    1  A    between atoms: N_11  and  C_28
    2  A    between atoms: C_28  and  O_30
                            x       y       z     vdW  Elec       q    Type
                         _______ _______ _______ _____ _____    ______ ____

>  <TORSDO>
F 2

$$$$
=
 OpenBabel11112416143D

 30 35  0  0  1  0  0  0  0  0999 V2000
  189.1930  174.9880  141.8840 C   0  0  0  0  0  0  0  0  0  0  0  0
  189.2080  173.6850  139.7510 C   0  0  0  0  0  0  0  0  0  0  0  0
  193.2630  174.0200  142.7180 C   0  0  0  0  0  2  0  0  0  0  0  0
  189.8990  175.4320  143.0260 C   0  0  0  0  0  0  0  0  0  0  0  0
  187.7330  175.3310  141.7680 C   0  0  0  0  0  2  0  0  0  0  0  0
  187.7520  178.2910  143.9120 O   0  0  0  0  0  0  0  0  0  0  0  0
  189.9750  174.9850  145.9240 C   0  0  1  0  0  3  0  0  0  0  0  0
  188.1420  177.2160  143.3810 C   0  0  0  0  0  0  0  0  0  0  0  0
  191.4790  174.8390  145.6990 C   0  0  2  0  0  3  0  0  0  0  0  0
  193.3540  174.8060  144.0420 C   0  0  1  0  0  3  0  0  0  0  0  0
  187.4510  176.6800  142.2450 N   0  0  0  0  0  0  0  0  0  0  0  0
  189.3780  176.5420  143.9040 C   0  0  1  0  0  3  0  0  0  0  0  0
  189.9110  172.9040  138.8280 C   0  0  0  0  0  3  0  0  0  0  0  0
  192.1480  175.5610  146.8430 C   0  0  0  0  0  2  0  0  0  0  0  0
  189.8520  174.9160  147.4370 C   0  0  0  0  0  2  0  0  0  0  0  0
  187.9120  173.9730  139.4730 F   0  0  0  0  0  0  0  0  0  0  0  0
  191.8630  174.2570  142.2830 C   0  0  0  0  0  0  0  0  0  0  0  0
  191.2500  172.5790  139.0430 C   0  0  0  0  0  3  0  0  0  0  0  0
  189.8500  174.1610  140.9200 C   0  0  0  0  0  0  0  0  0  0  0  0
  191.2050  174.9900  143.2210 C   0  0  0  0  0  0  0  0  0  0  0  0
  194.2310  176.0280  143.8480 C   0  0  0  0  0  1  0  0  0  0  0  0
  191.9910  175.2240  144.3800 N   0  0  0  0  0  0  0  0  0  0  0  0
  191.1910  175.3750  148.0130 C   0  0  0  0  0  2  0  0  0  0  0  0
  189.8440  177.4130  146.0800 O   0  0  0  0  0  1  0  0  0  0  0  0
  191.9030  173.0330  140.1870 C   0  0  0  0  0  3  0  0  0  0  0  0
  191.2200  173.8170  141.1230 C   0  0  0  0  0  0  0  0  0  0  0  0
  189.3320  176.2940  145.4160 C   0  0  2  0  0  3  0  0  0  0  0  0
  186.3150  177.3910  141.6760 C   0  0  0  0  0  2  0  0  0  0  0  0
  184.3780  178.2880  142.2320 C   0  0  0  0  0  1  0  0  0  0  0  0
  185.1810  177.1710  142.4600 O   0  0  0  0  0  0  0  0  0  0  0  0
  1  4  1  0  0  0  0
  2 19  1  0  0  0  0
  3 10  1  0  0  0  0
  4 20  2  0  0  0  0
  5  1  1  0  0  0  0
  5 11  1  0  0  0  0
  7 15  1  1  0  0  0
  8 12  1  0  0  0  0
  8  6  2  0  0  0  0
  9  7  1  0  0  0  0
  9 14  1  1  0  0  0
 10 21  1  6  0  0  0
 10 22  1  0  0  0  0
 11  8  1  0  0  0  0
 12  4  1  6  0  0  0
 12 27  1  0  0  0  0
 13 18  1  0  0  0  0
 13  2  2  0  0  0  0
 14 23  1  0  0  0  0
 15 23  1  0  0  0  0
 16  2  1  0  0  0  0
 17  3  1  0  0  0  0
 17 20  1  0  0  0  0
 18 25  2  0  0  0  0
 19 26  1  0  0  0  0
 19  1  2  0  0  0  0
 20 22  1  0  0  0  0
 22  9  1  0  0  0  0
 25 26  1  0  0  0  0
 26 17  2  0  0  0  0
 27  7  1  0  0  0  0
 27 24  1  1  0  0  0
 28 11  1  0  0  0  0
 28 30  1  0  0  0  0
 29 30  1  0  0  0  0
M  END
>  <MODEL>
8

>  <REMARK>
 VINA RESULT:      -7.5      3.048      5.754
  Name = 
  2 active torsions:
  status: ('A' for Active; 'I' for Inactive)
    1  A    between atoms: N_11  and  C_28
    2  A    between atoms: C_28  and  O_30
                            x       y       z     vdW  Elec       q    Type
                         _______ _______ _______ _____ _____    ______ ____

>  <TORSDO>
F 2

$$$$
=
 OpenBabel11112416143D

 30 35  0  0  1  0  0  0  0  0999 V2000
  189.5260  175.3090  142.6890 C   0  0  0  0  0  0  0  0  0  0  0  0
  187.4740  176.6490  142.1950 C   0  0  0  0  0  0  0  0  0  0  0  0
  190.0750  177.2030  146.4710 C   0  0  0  0  0  2  0  0  0  0  0  0
  190.5800  175.0100  143.5830 C   0  0  0  0  0  0  0  0  0  0  0  0
  189.5110  174.6270  141.3480 C   0  0  0  0  0  2  0  0  0  0  0  0
  191.4780  171.6880  142.2690 O   0  0  0  0  0  0  0  0  0  0  0  0
  193.4820  175.3610  143.8200 C   0  0  1  0  0  3  0  0  0  0  0  0
  190.9770  172.8420  142.3420 C   0  0  0  0  0  0  0  0  0  0  0  0
  193.1420  175.8750  145.2180 C   0  0  2  0  0  3  0  0  0  0  0  0
  191.3410  176.4170  146.8690 C   0  0  1  0  0  3  0  0  0  0  0  0
  189.9330  173.2340  141.4400 N   0  0  0  0  0  0  0  0  0  0  0  0
  191.4340  173.7770  143.4250 C   0  0  1  0  0  3  0  0  0  0  0  0
  186.5430  177.6090  142.6020 C   0  0  0  0  0  3  0  0  0  0  0  0
  194.1860  175.2970  146.1440 C   0  0  0  0  0  2  0  0  0  0  0  0
  195.0020  175.3470  143.8260 C   0  0  0  0  0  2  0  0  0  0  0  0
  187.2890  176.0660  140.9840 F   0  0  0  0  0  0  0  0  0  0  0  0
  189.7440  176.6500  145.1330 C   0  0  0  0  0  0  0  0  0  0  0  0
  186.6650  178.2390  143.8390 C   0  0  0  0  0  3  0  0  0  0  0  0
  188.5590  176.3020  143.0370 C   0  0  0  0  0  0  0  0  0  0  0  0
  190.6910  175.7470  144.7580 C   0  0  0  0  0  0  0  0  0  0  0  0
  191.0080  175.4500  147.9890 C   0  0  0  0  0  1  0  0  0  0  0  0
  191.7660  175.6710  145.6820 N   0  0  0  0  0  0  0  0  0  0  0  0
  195.4390  175.2050  145.2840 C   0  0  0  0  0  2  0  0  0  0  0  0
  193.5120  172.9700  144.2860 O   0  0  0  0  0  1  0  0  0  0  0  0
  187.7240  177.9170  144.6850 C   0  0  0  0  0  3  0  0  0  0  0  0
  188.6680  176.9600  144.2990 C   0  0  0  0  0  0  0  0  0  0  0  0
  192.9560  173.9540  143.4620 C   0  0  2  0  0  3  0  0  0  0  0  0
  189.4220  172.2900  140.4580 C   0  0  0  0  0  2  0  0  0  0  0  0
  190.3950  171.0690  138.9000 C   0  0  0  0  0  1  0  0  0  0  0  0
  190.1600  172.3900  139.2780 O   0  0  0  0  0  0  0  0  0  0  0  0
  1 19  2  0  0  0  0
  1  4  1  0  0  0  0
  2 13  2  0  0  0  0
  2 19  1  0  0  0  0
  3 10  1  0  0  0  0
  4 20  2  0  0  0  0
  5 11  1  0  0  0  0
  5  1  1  0  0  0  0
  6  8  2  0  0  0  0
  7 15  1  1  0  0  0
  7  9  1  0  0  0  0
  9 22  1  0  0  0  0
  9 14  1  1  0  0  0
 10 21  1  1  0  0  0
 11  8  1  0  0  0  0
 12  8  1  6  0  0  0
 12 27  1  0  0  0  0
 12  4  1  0  0  0  0
 13 18  1  0  0  0  0
 15 23  1  0  0  0  0
 16  2  1  0  0  0  0
 17  3  1  0  0  0  0
 18 25  2  0  0  0  0
 19 26  1  0  0  0  0
 20 17  1  0  0  0  0
 20 22  1  0  0  0  0
 22 10  1  0  0  0  0
 23 14  1  0  0  0  0
 26 25  1  0  0  0  0
 26 17  2  0  0  0  0
 27  7  1  0  0  0  0
 27 24  1  1  0  0  0
 28 11  1  0  0  0  0
 29 30  1  0  0  0  0
 30 28  1  0  0  0  0
M  END
>  <MODEL>
9

>  <REMARK>
 VINA RESULT:      -7.4      3.121      4.604
  Name = 
  2 active torsions:
  status: ('A' for Active; 'I' for Inactive)
    1  A    between atoms: N_11  and  C_28
    2  A    between atoms: C_28  and  O_30
                            x       y       z     vdW  Elec       q    Type
                         _______ _______ _______ _____ _____    ______ ____

>  <TORSDO>
F 2

$$$$
