=
 OpenBabel11112416333D

 32 38  0  0  1  0  0  0  0  0999 V2000
  185.0290  177.7150  146.4540 C   0  0  1  0  0  3  0  0  0  0  0  0
  189.7290  175.7660  145.0350 C   0  0  0  0  0  0  0  0  0  0  0  0
  188.5560  173.2340  140.9390 C   0  0  0  0  0  3  0  0  0  0  0  0
  189.8940  172.8760  140.7670 C   0  0  0  0  0  3  0  0  0  0  0  0
  192.1070  175.7810  145.9420 C   0  0  0  0  0  0  0  0  0  0  0  0
  193.3800  175.5150  145.6340 C   0  0  0  0  0  0  0  0  0  0  0  0
  187.9800  177.2790  146.0130 C   0  0  1  0  0  3  0  0  0  0  0  0
  187.4660  176.0640  143.9230 C   0  0  0  0  0  2  0  0  0  0  0  0
  195.1720  174.6320  144.5190 C   0  0  2  0  0  3  0  0  0  0  0  0
  185.5350  177.0730  145.1610 C   0  0  2  0  0  3  0  0  0  0  0  0
  188.1860  174.0570  142.0040 C   0  0  0  0  0  3  0  0  0  0  0  0
  188.7730  175.3970  144.0020 N   0  0  0  0  0  0  0  0  0  0  0  0
  189.1500  174.5340  142.9110 C   0  0  0  0  0  0  0  0  0  0  0  0
  191.4920  174.6750  143.6950 C   0  0  0  0  0  0  0  0  0  0  0  0
  195.6460  175.1690  145.8170 N   0  0  0  0  0  0  0  0  0  0  0  0
  186.0150  177.5940  147.6360 C   0  0  0  0  0  2  0  0  0  0  0  0
  186.9300  176.4280  145.2970 C   0  0  2  0  0  3  0  0  0  0  0  0
  194.5000  175.6690  146.4690 N   0  0  0  0  0  0  0  0  0  0  0  0
  187.4810  177.9090  147.3170 C   0  0  0  0  0  2  0  0  0  0  0  0
  185.5280  178.5900  145.3120 C   0  0  1  0  0  3  0  0  0  0  0  0
  190.8580  173.3440  141.6610 C   0  0  0  0  0  3  0  0  0  0  0  0
  190.4930  174.1710  142.7370 C   0  0  0  0  0  0  0  0  0  0  0  0
  192.7970  174.4350  143.4910 C   0  0  0  0  0  3  0  0  0  0  0  0
  189.2040  176.4260  146.2850 C   0  0  0  0  0  2  0  0  0  0  0  0
  191.8190  176.3620  147.2910 C   0  0  0  0  0  1  0  0  0  0  0  0
  195.9140  175.3160  143.3850 C   0  0  0  0  0  1  0  0  0  0  0  0
  191.0460  175.4340  144.9170 C   0  0  0  0  0  0  0  0  0  0  0  0
  193.7500  174.9240  144.4300 N   0  0  0  0  0  0  0  0  0  0  0  0
  184.4160  179.1260  144.6090 O   0  0  0  0  0  0  0  0  0  0  0  0
  184.1510  178.8050  143.2760 C   0  0  0  0  0  0  0  0  0  0  0  0
  185.2470  178.6670  142.2710 C   0  0  0  0  0  1  0  0  0  0  0  0
  182.9610  178.6250  142.9110 O   0  0  0  0  0  0  0  0  0  0  0  0
  1 16  1  1  0  0  0
  2 24  1  0  0  0  0
  3 11  1  0  0  0  0
  4  3  2  0  0  0  0
  4 21  1  0  0  0  0
  5 25  1  0  0  0  0
  6  5  2  0  0  0  0
  6 18  1  0  0  0  0
  7 24  1  1  0  0  0
  7 19  1  0  0  0  0
  8 12  1  0  0  0  0
  8 17  1  0  0  0  0
  9 26  1  6  0  0  0
  9 15  1  0  0  0  0
 10 17  1  0  0  0  0
 10 20  1  0  0  0  0
 10  1  1  0  0  0  0
 11 13  2  0  0  0  0
 12  2  1  0  0  0  0
 13 12  1  0  0  0  0
 14 27  1  0  0  0  0
 15 18  2  0  0  0  0
 17  7  1  0  0  0  0
 19 16  1  0  0  0  0
 20  1  1  0  0  0  0
 21 22  2  0  0  0  0
 22 13  1  0  0  0  0
 22 14  1  0  0  0  0
 23 14  2  0  0  0  0
 23 28  1  0  0  0  0
 27  2  2  0  0  0  0
 27  5  1  0  0  0  0
 28  9  1  0  0  0  0
 28  6  1  0  0  0  0
 29 20  1  0  0  0  0
 30 29  1  0  0  0  0
 31 30  1  0  0  0  0
 32 30  2  0  0  0  0
M  END
>  <MODEL>
1

>  <REMARK>
 VINA RESULT:      -8.9      0.000      0.000
  Name = 
  2 active torsions:
  status: ('A' for Active; 'I' for Inactive)
    1  A    between atoms: C_20  and  O_29
    2  A    between atoms: O_29  and  C_30
                            x       y       z     vdW  Elec       q    Type
                         _______ _______ _______ _____ _____    ______ ____

>  <TORSDO>
F 2

$$$$
=
 OpenBabel11112416333D

 32 38  0  0  1  0  0  0  0  0999 V2000
  185.8770  179.0490  143.6800 C   0  0  1  0  0  3  0  0  0  0  0  0
  189.1430  175.0150  142.6960 C   0  0  0  0  0  0  0  0  0  0  0  0
  192.3340  175.3810  146.4710 C   0  0  0  0  0  3  0  0  0  0  0  0
  193.0170  174.2540  146.0130 C   0  0  0  0  0  3  0  0  0  0  0  0
  189.4270  173.2400  140.8940 C   0  0  0  0  0  0  0  0  0  0  0  0
  190.0470  172.0940  140.5990 C   0  0  0  0  0  0  0  0  0  0  0  0
  187.0700  176.4300  142.7790 C   0  0  1  0  0  3  0  0  0  0  0  0
  188.6450  176.5180  144.6810 C   0  0  0  0  0  2  0  0  0  0  0  0
  191.5740  170.3950  140.7180 C   0  0  2  0  0  3  0  0  0  0  0  0
  186.9350  178.3440  144.5300 C   0  0  2  0  0  3  0  0  0  0  0  0
  191.1970  175.8280  145.7960 C   0  0  0  0  0  3  0  0  0  0  0  0
  189.5460  175.6040  143.9650 N   0  0  0  0  0  0  0  0  0  0  0  0
  190.7280  175.1530  144.6540 C   0  0  0  0  0  0  0  0  0  0  0  0
  190.9180  173.3270  142.9960 C   0  0  0  0  0  0  0  0  0  0  0  0
  190.8350  170.2720  139.4380 N   0  0  0  0  0  0  0  0  0  0  0  0
  185.9010  178.6400  142.1910 C   0  0  0  0  0  2  0  0  0  0  0  0
  187.8200  177.3660  143.7290 C   0  0  2  0  0  3  0  0  0  0  0  0
  189.9340  171.3570  139.4070 N   0  0  0  0  0  0  0  0  0  0  0  0
  186.0220  177.1370  141.9140 C   0  0  0  0  0  2  0  0  0  0  0  0
  185.4710  177.9280  144.6280 C   0  0  1  0  0  3  0  0  0  0  0  0
  192.5610  173.5770  144.8810 C   0  0  0  0  0  3  0  0  0  0  0  0
  191.4180  174.0230  144.1950 C   0  0  0  0  0  0  0  0  0  0  0  0
  191.4940  172.1810  142.5990 C   0  0  0  0  0  3  0  0  0  0  0  0
  188.0750  175.7170  141.8950 C   0  0  0  0  0  2  0  0  0  0  0  0
  188.4610  173.7930  139.8940 C   0  0  0  0  0  1  0  0  0  0  0  0
  191.4010  169.1240  141.5280 C   0  0  0  0  0  1  0  0  0  0  0  0
  189.7840  173.9180  142.2020 C   0  0  0  0  0  0  0  0  0  0  0  0
  191.0020  171.5240  141.4340 N   0  0  0  0  0  0  0  0  0  0  0  0
  184.9030  178.4880  145.8030 O   0  0  0  0  0  0  0  0  0  0  0  0
  185.5560  178.4550  147.0370 C   0  0  0  0  0  0  0  0  0  0  0  0
  185.9880  177.1680  147.6580 C   0  0  0  0  0  1  0  0  0  0  0  0
  185.7870  179.5340  147.6410 O   0  0  0  0  0  0  0  0  0  0  0  0
  1 16  1  6  0  0  0
  1 10  1  0  0  0  0
  1 20  1  0  0  0  0
  2 12  1  0  0  0  0
  4  3  1  0  0  0  0
  5 27  1  0  0  0  0
  6  5  2  0  0  0  0
  6 28  1  0  0  0  0
  7 24  1  6  0  0  0
  7 17  1  0  0  0  0
  9 28  1  0  0  0  0
  9 26  1  1  0  0  0
 10 20  1  0  0  0  0
 11  3  2  0  0  0  0
 12 13  1  0  0  0  0
 12  8  1  0  0  0  0
 13 11  1  0  0  0  0
 14 22  1  0  0  0  0
 15  9  1  0  0  0  0
 17 10  1  0  0  0  0
 17  8  1  0  0  0  0
 18 15  2  0  0  0  0
 18  6  1  0  0  0  0
 19 16  1  0  0  0  0
 19  7  1  0  0  0  0
 20 29  1  0  0  0  0
 21  4  2  0  0  0  0
 22 13  2  0  0  0  0
 22 21  1  0  0  0  0
 23 14  2  0  0  0  0
 24  2  1  0  0  0  0
 25  5  1  0  0  0  0
 27  2  2  0  0  0  0
 27 14  1  0  0  0  0
 28 23  1  0  0  0  0
 29 30  1  0  0  0  0
 30 32  2  0  0  0  0
 30 31  1  0  0  0  0
M  END
>  <MODEL>
2

>  <REMARK>
 VINA RESULT:      -8.6      2.434      5.114
  Name = 
  2 active torsions:
  status: ('A' for Active; 'I' for Inactive)
    1  A    between atoms: C_20  and  O_29
    2  A    between atoms: O_29  and  C_30
                            x       y       z     vdW  Elec       q    Type
                         _______ _______ _______ _____ _____    ______ ____

>  <TORSDO>
F 2

$$$$
=
 OpenBabel11112416333D

 32 38  0  0  1  0  0  0  0  0999 V2000
  186.6180  178.3340  143.2590 C   0  0  1  0  0  3  0  0  0  0  0  0
  190.2410  174.5060  143.5990 C   0  0  0  0  0  0  0  0  0  0  0  0
  193.6550  176.6270  146.4980 C   0  0  0  0  0  3  0  0  0  0  0  0
  194.4260  175.4650  146.4550 C   0  0  0  0  0  3  0  0  0  0  0  0
  190.5850  172.1720  142.6430 C   0  0  0  0  0  0  0  0  0  0  0  0
  191.3080  171.0550  142.7630 C   0  0  0  0  0  0  0  0  0  0  0  0
  188.0310  175.6720  143.3530 C   0  0  1  0  0  3  0  0  0  0  0  0
  189.7300  176.6520  144.8560 C   0  0  0  0  0  2  0  0  0  0  0  0
  193.0270  169.6720  143.3710 C   0  0  2  0  0  3  0  0  0  0  0  0
  187.8140  178.1220  144.1890 C   0  0  2  0  0  3  0  0  0  0  0  0
  192.4240  176.6720  145.8410 C   0  0  0  0  0  3  0  0  0  0  0  0
  190.6710  175.5920  144.4660 N   0  0  0  0  0  0  0  0  0  0  0  0
  191.9490  175.5540  145.1320 C   0  0  0  0  0  0  0  0  0  0  0  0
  192.2180  173.2260  144.3380 C   0  0  0  0  0  0  0  0  0  0  0  0
  192.2080  168.9790  142.3470 N   0  0  0  0  0  0  0  0  0  0  0  0
  186.5710  177.3520  142.0690 C   0  0  0  0  0  2  0  0  0  0  0  0
  188.7400  176.9690  143.7490 C   0  0  2  0  0  3  0  0  0  0  0  0
  191.1890  169.8860  141.9910 N   0  0  0  0  0  0  0  0  0  0  0  0
  186.8440  175.8810  142.4080 C   0  0  0  0  0  2  0  0  0  0  0  0
  186.4200  177.6780  144.6200 C   0  0  1  0  0  3  0  0  0  0  0  0
  193.9640  174.3500  145.7540 C   0  0  0  0  0  3  0  0  0  0  0  0
  192.7270  174.3890  145.0870 C   0  0  0  0  0  0  0  0  0  0  0  0
  192.8890  172.0640  144.3700 C   0  0  0  0  0  3  0  0  0  0  0  0
  189.0390  174.7340  142.7170 C   0  0  0  0  0  2  0  0  0  0  0  0
  189.4860  172.1910  141.6280 C   0  0  0  0  0  1  0  0  0  0  0  0
  193.0670  168.8390  144.6390 C   0  0  0  0  0  1  0  0  0  0  0  0
  190.9630  173.3520  143.5160 C   0  0  0  0  0  0  0  0  0  0  0  0
  192.3860  170.9510  143.6360 N   0  0  0  0  0  0  0  0  0  0  0  0
  185.8850  178.6290  145.5290 O   0  0  0  0  0  0  0  0  0  0  0  0
  185.9790  178.4730  146.9130 C   0  0  0  0  0  0  0  0  0  0  0  0
  186.1820  177.1320  147.5370 C   0  0  0  0  0  1  0  0  0  0  0  0
  185.8910  179.4850  147.6540 O   0  0  0  0  0  0  0  0  0  0  0  0
  1 16  1  6  0  0  0
  1 10  1  0  0  0  0
  1 20  1  0  0  0  0
  2 12  1  0  0  0  0
  4  3  1  0  0  0  0
  5  6  2  0  0  0  0
  5 27  1  0  0  0  0
  6 28  1  0  0  0  0
  7 19  1  6  0  0  0
  7 17  1  0  0  0  0
  9 28  1  0  0  0  0
  9 26  1  1  0  0  0
 10 20  1  0  0  0  0
 11  3  2  0  0  0  0
 12  8  1  0  0  0  0
 12 13  1  0  0  0  0
 13 11  1  0  0  0  0
 14 23  2  0  0  0  0
 14 22  1  0  0  0  0
 15  9  1  0  0  0  0
 16 19  1  0  0  0  0
 17 10  1  0  0  0  0
 17  8  1  0  0  0  0
 18 15  2  0  0  0  0
 18  6  1  0  0  0  0
 20 29  1  0  0  0  0
 21  4  2  0  0  0  0
 22 13  2  0  0  0  0
 22 21  1  0  0  0  0
 24  7  1  0  0  0  0
 24  2  1  0  0  0  0
 25  5  1  0  0  0  0
 27  2  2  0  0  0  0
 27 14  1  0  0  0  0
 28 23  1  0  0  0  0
 29 30  1  0  0  0  0
 30 31  1  0  0  0  0
 30 32  2  0  0  0  0
M  END
>  <MODEL>
3

>  <REMARK>
 VINA RESULT:      -8.3      2.635      4.957
  Name = 
  2 active torsions:
  status: ('A' for Active; 'I' for Inactive)
    1  A    between atoms: C_20  and  O_29
    2  A    between atoms: O_29  and  C_30
                            x       y       z     vdW  Elec       q    Type
                         _______ _______ _______ _____ _____    ______ ____

>  <TORSDO>
F 2

$$$$
=
 OpenBabel11112416333D

 32 38  0  0  1  0  0  0  0  0999 V2000
  185.4900  177.2050  144.5750 C   0  0  1  0  0  3  0  0  0  0  0  0
  190.3380  175.7010  143.1130 C   0  0  0  0  0  0  0  0  0  0  0  0
  189.3280  172.5760  139.4020 C   0  0  0  0  0  3  0  0  0  0  0  0
  190.6920  172.3700  139.1930 C   0  0  0  0  0  3  0  0  0  0  0  0
  192.7310  176.1200  143.8730 C   0  0  0  0  0  0  0  0  0  0  0  0
  194.0120  175.9790  143.5230 C   0  0  0  0  0  0  0  0  0  0  0  0
  188.4510  177.0910  144.0150 C   0  0  1  0  0  3  0  0  0  0  0  0
  188.0090  175.5830  142.1080 C   0  0  0  0  0  2  0  0  0  0  0  0
  195.8550  175.2010  142.4120 C   0  0  2  0  0  3  0  0  0  0  0  0
  186.0190  176.4830  143.3350 C   0  0  2  0  0  3  0  0  0  0  0  0
  188.9010  173.4680  140.3870 C   0  0  0  0  0  3  0  0  0  0  0  0
  189.3950  175.0970  142.1840 N   0  0  0  0  0  0  0  0  0  0  0  0
  189.8330  174.1650  141.1770 C   0  0  0  0  0  0  0  0  0  0  0  0
  192.1680  174.6880  141.8040 C   0  0  0  0  0  0  0  0  0  0  0  0
  196.3110  175.9420  143.6120 N   0  0  0  0  0  0  0  0  0  0  0  0
  186.5330  177.3490  145.7040 C   0  0  0  0  0  2  0  0  0  0  0  0
  187.4900  176.0370  143.4610 C   0  0  2  0  0  3  0  0  0  0  0  0
  195.1380  176.3700  144.2690 N   0  0  0  0  0  0  0  0  0  0  0  0
  187.9310  177.8040  145.2670 C   0  0  0  0  0  2  0  0  0  0  0  0
  185.8210  177.9950  143.3150 C   0  0  1  0  0  3  0  0  0  0  0  0
  191.6260  173.0560  139.9710 C   0  0  0  0  0  3  0  0  0  0  0  0
  191.2030  173.9540  140.9670 C   0  0  0  0  0  0  0  0  0  0  0  0
  193.4830  174.5890  141.5520 C   0  0  0  0  0  3  0  0  0  0  0  0
  189.7850  176.4350  144.3090 C   0  0  0  0  0  2  0  0  0  0  0  0
  192.4280  176.8160  145.1620 C   0  0  0  0  0  1  0  0  0  0  0  0
  196.4510  175.8320  141.1670 C   0  0  0  0  0  1  0  0  0  0  0  0
  191.6810  175.5240  142.9560 C   0  0  0  0  0  0  0  0  0  0  0  0
  194.4040  175.3010  142.3740 N   0  0  0  0  0  0  0  0  0  0  0  0
  184.6200  178.3010  142.6220 O   0  0  0  0  0  0  0  0  0  0  0  0
  184.5390  178.2930  141.2280 C   0  0  0  0  0  0  0  0  0  0  0  0
  183.2250  178.2870  140.5200 C   0  0  0  0  0  1  0  0  0  0  0  0
  185.5990  178.2910  140.5500 O   0  0  0  0  0  0  0  0  0  0  0  0
  1 16  1  1  0  0  0
  2 24  1  0  0  0  0
  3 11  1  0  0  0  0
  4  3  2  0  0  0  0
  4 21  1  0  0  0  0
  5 25  1  0  0  0  0
  6  5  2  0  0  0  0
  6 18  1  0  0  0  0
  7 24  1  1  0  0  0
  7 19  1  0  0  0  0
  8 12  1  0  0  0  0
  8 17  1  0  0  0  0
  9 26  1  6  0  0  0
  9 15  1  0  0  0  0
 10 17  1  0  0  0  0
 10  1  1  0  0  0  0
 11 13  2  0  0  0  0
 12  2  1  0  0  0  0
 13 12  1  0  0  0  0
 14 27  1  0  0  0  0
 15 18  2  0  0  0  0
 17  7  1  0  0  0  0
 19 16  1  0  0  0  0
 20 10  1  0  0  0  0
 20  1  1  0  0  0  0
 21 22  2  0  0  0  0
 22 13  1  0  0  0  0
 22 14  1  0  0  0  0
 23 14  2  0  0  0  0
 23 28  1  0  0  0  0
 27  2  2  0  0  0  0
 27  5  1  0  0  0  0
 28  9  1  0  0  0  0
 28  6  1  0  0  0  0
 29 20  1  0  0  0  0
 30 29  1  0  0  0  0
 31 30  1  0  0  0  0
 32 30  2  0  0  0  0
M  END
>  <MODEL>
4

>  <REMARK>
 VINA RESULT:      -8.3      1.718      2.163
  Name = 
  2 active torsions:
  status: ('A' for Active; 'I' for Inactive)
    1  A    between atoms: C_20  and  O_29
    2  A    between atoms: O_29  and  C_30
                            x       y       z     vdW  Elec       q    Type
                         _______ _______ _______ _____ _____    ______ ____

>  <TORSDO>
F 2

$$$$
=
 OpenBabel11112416333D

 32 38  0  0  1  0  0  0  0  0999 V2000
  187.0810  176.8910  145.9630 C   0  0  1  0  0  3  0  0  0  0  0  0
  191.6020  175.6180  143.5470 C   0  0  0  0  0  0  0  0  0  0  0  0
  189.9900  172.6220  139.9440 C   0  0  0  0  0  3  0  0  0  0  0  0
  191.2950  172.4720  139.4730 C   0  0  0  0  0  3  0  0  0  0  0  0
  194.0840  176.0860  143.8650 C   0  0  0  0  0  0  0  0  0  0  0  0
  195.2800  176.0040  143.2750 C   0  0  0  0  0  0  0  0  0  0  0  0
  189.8840  176.9020  144.8530 C   0  0  1  0  0  3  0  0  0  0  0  0
  189.1290  175.4630  142.9920 C   0  0  0  0  0  2  0  0  0  0  0  0
  196.8980  175.3370  141.8010 C   0  0  2  0  0  3  0  0  0  0  0  0
  187.3840  176.2410  144.6130 C   0  0  2  0  0  3  0  0  0  0  0  0
  189.7340  173.4550  141.0330 C   0  0  0  0  0  3  0  0  0  0  0  0
  190.5160  175.0220  142.7840 N   0  0  0  0  0  0  0  0  0  0  0  0
  190.7800  174.1490  141.6680 C   0  0  0  0  0  0  0  0  0  0  0  0
  193.1780  174.7250  141.8710 C   0  0  0  0  0  0  0  0  0  0  0  0
  197.5540  176.0420  142.9300 N   0  0  0  0  0  0  0  0  0  0  0  0
  188.3140  177.0220  146.8830 C   0  0  0  0  0  2  0  0  0  0  0  0
  188.8640  175.8410  144.4390 C   0  0  2  0  0  3  0  0  0  0  0  0
  196.5160  176.4000  143.8150 N   0  0  0  0  0  0  0  0  0  0  0  0
  189.5920  177.5430  146.2140 C   0  0  0  0  0  2  0  0  0  0  0  0
  187.1480  177.7450  144.7030 C   0  0  1  0  0  3  0  0  0  0  0  0
  192.3410  173.1560  140.0950 C   0  0  0  0  0  3  0  0  0  0  0  0
  192.0910  173.9940  141.1950 C   0  0  0  0  0  0  0  0  0  0  0  0
  194.4240  174.6820  141.3730 C   0  0  0  0  0  3  0  0  0  0  0  0
  191.2670  176.2810  144.8600 C   0  0  0  0  0  2  0  0  0  0  0  0
  194.0120  176.7150  145.2200 C   0  0  0  0  0  1  0  0  0  0  0  0
  197.2330  176.0410  140.4990 C   0  0  0  0  0  1  0  0  0  0  0  0
  192.8950  175.4940  143.1330 C   0  0  0  0  0  0  0  0  0  0  0  0
  195.4650  175.3890  142.0410 N   0  0  0  0  0  0  0  0  0  0  0  0
  185.8290  178.0390  144.2640 O   0  0  0  0  0  0  0  0  0  0  0  0
  185.1110  179.1380  144.7420 C   0  0  0  0  0  0  0  0  0  0  0  0
  184.0790  178.9920  145.8100 C   0  0  0  0  0  1  0  0  0  0  0  0
  185.3390  180.2780  144.2630 O   0  0  0  0  0  0  0  0  0  0  0  0
  1 16  1  1  0  0  0
  2 24  1  0  0  0  0
  3 11  1  0  0  0  0
  4  3  2  0  0  0  0
  4 21  1  0  0  0  0
  5 25  1  0  0  0  0
  6 18  1  0  0  0  0
  6  5  2  0  0  0  0
  7 24  1  1  0  0  0
  7 19  1  0  0  0  0
  8 17  1  0  0  0  0
  9 26  1  6  0  0  0
  9 28  1  0  0  0  0
  9 15  1  0  0  0  0
 10 20  1  0  0  0  0
 10  1  1  0  0  0  0
 11 13  2  0  0  0  0
 12  8  1  0  0  0  0
 12  2  1  0  0  0  0
 13 12  1  0  0  0  0
 14 27  1  0  0  0  0
 15 18  2  0  0  0  0
 17 10  1  0  0  0  0
 17  7  1  0  0  0  0
 19 16  1  0  0  0  0
 20  1  1  0  0  0  0
 21 22  2  0  0  0  0
 22 13  1  0  0  0  0
 22 14  1  0  0  0  0
 23 14  2  0  0  0  0
 23 28  1  0  0  0  0
 27  2  2  0  0  0  0
 27  5  1  0  0  0  0
 28  6  1  0  0  0  0
 29 20  1  0  0  0  0
 29 30  1  0  0  0  0
 30 31  1  0  0  0  0
 32 30  2  0  0  0  0
M  END
>  <MODEL>
5

>  <REMARK>
 VINA RESULT:      -8.1      1.741      2.581
  Name = 
  2 active torsions:
  status: ('A' for Active; 'I' for Inactive)
    1  A    between atoms: C_20  and  O_29
    2  A    between atoms: O_29  and  C_30
                            x       y       z     vdW  Elec       q    Type
                         _______ _______ _______ _____ _____    ______ ____

>  <TORSDO>
F 2

$$$$
=
 OpenBabel11112416333D

 32 38  0  0  1  0  0  0  0  0999 V2000
  194.8070  173.3120  141.5380 C   0  0  1  0  0  3  0  0  0  0  0  0
  190.4700  175.7150  143.3580 C   0  0  0  0  0  0  0  0  0  0  0  0
  191.8170  176.8090  148.0000 C   0  0  0  0  0  3  0  0  0  0  0  0
  190.5850  177.4250  148.2210 C   0  0  0  0  0  3  0  0  0  0  0  0
  188.1390  176.2630  142.4950 C   0  0  0  0  0  0  0  0  0  0  0  0
  187.0430  176.9880  142.7380 C   0  0  0  0  0  0  0  0  0  0  0  0
  192.2480  174.8870  141.7900 C   0  0  1  0  0  3  0  0  0  0  0  0
  192.8940  175.5250  144.0890 C   0  0  0  0  0  2  0  0  0  0  0  0
  185.5220  178.2460  143.8950 C   0  0  2  0  0  3  0  0  0  0  0  0
  194.5440  174.1720  142.7740 C   0  0  2  0  0  3  0  0  0  0  0  0
  192.1110  176.2700  146.7470 C   0  0  0  0  0  3  0  0  0  0  0  0
  191.4830  175.7950  144.3990 N   0  0  0  0  0  0  0  0  0  0  0  0
  191.1760  176.3380  145.6980 C   0  0  0  0  0  0  0  0  0  0  0  0
  188.9650  177.0170  144.8180 C   0  0  0  0  0  0  0  0  0  0  0  0
  184.9020  177.8200  142.6170 N   0  0  0  0  0  0  0  0  0  0  0  0
  193.5270  172.9010  140.7800 C   0  0  0  0  0  2  0  0  0  0  0  0
  193.0470  174.4550  143.0220 C   0  0  2  0  0  3  0  0  0  0  0  0
  185.8690  177.0270  141.9650 N   0  0  0  0  0  0  0  0  0  0  0  0
  192.4980  174.0160  140.5550 C   0  0  0  0  0  2  0  0  0  0  0  0
  195.1010  174.8060  141.5050 C   0  0  1  0  0  3  0  0  0  0  0  0
  189.6490  177.4990  147.1880 C   0  0  0  0  0  3  0  0  0  0  0  0
  189.9370  176.9550  145.9240 C   0  0  0  0  0  0  0  0  0  0  0  0
  187.8180  177.6960  144.9730 C   0  0  0  0  0  3  0  0  0  0  0  0
  190.7720  174.8850  142.1350 C   0  0  0  0  0  2  0  0  0  0  0  0
  188.1740  175.4420  141.2450 C   0  0  0  0  0  1  0  0  0  0  0  0
  185.5280  179.7610  143.9760 C   0  0  0  0  0  1  0  0  0  0  0  0
  189.2470  176.2950  143.5280 C   0  0  0  0  0  0  0  0  0  0  0  0
  186.8860  177.7420  143.8960 N   0  0  0  0  0  0  0  0  0  0  0  0
  196.4970  175.0160  141.6590 O   0  0  0  0  0  0  0  0  0  0  0  0
  197.0440  175.5790  142.8140 C   0  0  0  0  0  0  0  0  0  0  0  0
  197.9390  174.7960  143.7170 C   0  0  0  0  0  1  0  0  0  0  0  0
  196.7770  176.7740  143.1030 O   0  0  0  0  0  0  0  0  0  0  0  0
  1 16  1  6  0  0  0
  1 10  1  0  0  0  0
  2 27  2  0  0  0  0
  2 12  1  0  0  0  0
  3  4  1  0  0  0  0
  5  6  2  0  0  0  0
  5 27  1  0  0  0  0
  6 28  1  0  0  0  0
  7 19  1  6  0  0  0
  7 24  1  0  0  0  0
  7 17  1  0  0  0  0
  8 12  1  0  0  0  0
  9 28  1  0  0  0  0
  9 26  1  6  0  0  0
 10 17  1  0  0  0  0
 11  3  2  0  0  0  0
 12 13  1  0  0  0  0
 13 22  2  0  0  0  0
 13 11  1  0  0  0  0
 14 23  2  0  0  0  0
 14 22  1  0  0  0  0
 15  9  1  0  0  0  0
 17  8  1  0  0  0  0
 18 15  2  0  0  0  0
 18  6  1  0  0  0  0
 19 16  1  0  0  0  0
 20  1  1  0  0  0  0
 20 29  1  0  0  0  0
 20 10  1  0  0  0  0
 21  4  2  0  0  0  0
 22 21  1  0  0  0  0
 24  2  1  0  0  0  0
 25  5  1  0  0  0  0
 27 14  1  0  0  0  0
 28 23  1  0  0  0  0
 29 30  1  0  0  0  0
 30 32  2  0  0  0  0
 30 31  1  0  0  0  0
M  END
>  <MODEL>
6

>  <REMARK>
 VINA RESULT:      -8.0      3.866      8.694
  Name = 
  2 active torsions:
  status: ('A' for Active; 'I' for Inactive)
    1  A    between atoms: C_20  and  O_29
    2  A    between atoms: O_29  and  C_30
                            x       y       z     vdW  Elec       q    Type
                         _______ _______ _______ _____ _____    ______ ____

>  <TORSDO>
F 2

$$$$
=
 OpenBabel11112416333D

 32 38  0  0  1  0  0  0  0  0999 V2000
  186.5960  177.0150  145.0260 C   0  0  1  0  0  3  0  0  0  0  0  0
  191.3640  174.9840  144.0050 C   0  0  0  0  0  0  0  0  0  0  0  0
  190.5710  172.7300  139.6630 C   0  0  0  0  0  3  0  0  0  0  0  0
  191.9090  172.3360  139.6140 C   0  0  0  0  0  3  0  0  0  0  0  0
  193.6280  174.8640  145.1620 C   0  0  0  0  0  0  0  0  0  0  0  0
  194.9180  174.5700  144.9760 C   0  0  0  0  0  0  0  0  0  0  0  0
  189.5640  176.5010  144.8780 C   0  0  1  0  0  3  0  0  0  0  0  0
  189.2450  175.4250  142.6770 C   0  0  0  0  0  2  0  0  0  0  0  0
  196.7950  173.6890  144.0090 C   0  0  2  0  0  3  0  0  0  0  0  0
  187.2210  176.4300  143.7590 C   0  0  2  0  0  3  0  0  0  0  0  0
  190.1120  173.5050  140.7290 C   0  0  0  0  0  3  0  0  0  0  0  0
  190.5160  174.7080  142.8550 N   0  0  0  0  0  0  0  0  0  0  0  0
  190.9850  173.8950  141.7610 C   0  0  0  0  0  0  0  0  0  0  0  0
  193.2300  173.9090  142.8000 C   0  0  0  0  0  0  0  0  0  0  0  0
  197.1400  174.1350  145.3810 N   0  0  0  0  0  0  0  0  0  0  0  0
  187.4430  176.7940  146.2980 C   0  0  0  0  0  2  0  0  0  0  0  0
  188.5730  175.7290  144.0040 C   0  0  2  0  0  3  0  0  0  0  0  0
  195.9450  174.6380  145.9350 N   0  0  0  0  0  0  0  0  0  0  0  0
  188.9440  177.0730  146.1570 C   0  0  0  0  0  2  0  0  0  0  0  0
  187.2420  177.9360  143.9980 C   0  0  1  0  0  3  0  0  0  0  0  0
  192.7830  172.7170  140.6330 C   0  0  0  0  0  3  0  0  0  0  0  0
  192.3270  173.4950  141.7110 C   0  0  0  0  0  0  0  0  0  0  0  0
  194.5420  173.6340  142.7220 C   0  0  0  0  0  3  0  0  0  0  0  0
  190.7250  175.5910  145.2290 C   0  0  0  0  0  2  0  0  0  0  0  0
  193.2110  175.3780  146.5030 C   0  0  0  0  0  1  0  0  0  0  0  0
  197.6760  174.4080  143.0040 C   0  0  0  0  0  1  0  0  0  0  0  0
  192.6760  174.6130  144.0090 C   0  0  0  0  0  0  0  0  0  0  0  0
  195.4000  174.0360  143.7860 N   0  0  0  0  0  0  0  0  0  0  0  0
  186.2300  178.5490  143.2140 O   0  0  0  0  0  0  0  0  0  0  0  0
  185.2270  179.3430  143.7770 C   0  0  0  0  0  0  0  0  0  0  0  0
  183.8060  178.8880  143.8270 C   0  0  0  0  0  1  0  0  0  0  0  0
  185.5280  180.4670  144.2540 O   0  0  0  0  0  0  0  0  0  0  0  0
  1 16  1  1  0  0  0
  2 27  2  0  0  0  0
  2 24  1  0  0  0  0
  3 11  1  0  0  0  0
  4  3  2  0  0  0  0
  4 21  1  0  0  0  0
  5 25  1  0  0  0  0
  6  5  2  0  0  0  0
  6 18  1  0  0  0  0
  7 24  1  1  0  0  0
  7 19  1  0  0  0  0
  8 12  1  0  0  0  0
  8 17  1  0  0  0  0
  9 26  1  6  0  0  0
  9 15  1  0  0  0  0
 10 20  1  0  0  0  0
 10 17  1  0  0  0  0
 10  1  1  0  0  0  0
 11 13  2  0  0  0  0
 12  2  1  0  0  0  0
 13 12  1  0  0  0  0
 14 27  1  0  0  0  0
 15 18  2  0  0  0  0
 17  7  1  0  0  0  0
 19 16  1  0  0  0  0
 20  1  1  0  0  0  0
 21 22  2  0  0  0  0
 22 13  1  0  0  0  0
 22 14  1  0  0  0  0
 23 14  2  0  0  0  0
 23 28  1  0  0  0  0
 27  5  1  0  0  0  0
 28  9  1  0  0  0  0
 28  6  1  0  0  0  0
 29 30  1  0  0  0  0
 29 20  1  0  0  0  0
 30 31  1  0  0  0  0
 30 32  2  0  0  0  0
M  END
>  <MODEL>
7

>  <REMARK>
 VINA RESULT:      -8.0      1.454      2.166
  Name = 
  2 active torsions:
  status: ('A' for Active; 'I' for Inactive)
    1  A    between atoms: C_20  and  O_29
    2  A    between atoms: O_29  and  C_30
                            x       y       z     vdW  Elec       q    Type
                         _______ _______ _______ _____ _____    ______ ____

>  <TORSDO>
F 2

$$$$
=
 OpenBabel11112416333D

 32 38  0  0  1  0  0  0  0  0999 V2000
  185.8810  178.9700  143.9040 C   0  0  1  0  0  3  0  0  0  0  0  0
  188.6850  175.0820  141.6850 C   0  0  0  0  0  0  0  0  0  0  0  0
  191.8430  173.9350  145.3290 C   0  0  0  0  0  3  0  0  0  0  0  0
  192.4020  172.9290  144.5390 C   0  0  0  0  0  3  0  0  0  0  0  0
  188.7920  173.9120  139.4270 C   0  0  0  0  0  0  0  0  0  0  0  0
  189.2830  172.8460  138.7890 C   0  0  0  0  0  0  0  0  0  0  0  0
  186.7830  176.6280  142.2330 C   0  0  1  0  0  3  0  0  0  0  0  0
  188.3310  175.9630  144.0410 C   0  0  0  0  0  2  0  0  0  0  0  0
  190.6070  171.0310  138.3590 C   0  0  2  0  0  3  0  0  0  0  0  0
  186.8400  177.9280  144.4810 C   0  0  2  0  0  3  0  0  0  0  0  0
  190.7730  174.6880  144.8430 C   0  0  0  0  0  3  0  0  0  0  0  0
  189.1340  175.2120  143.0640 N   0  0  0  0  0  0  0  0  0  0  0  0
  190.2480  174.4460  143.5610 C   0  0  0  0  0  0  0  0  0  0  0  0
  190.2540  173.1950  141.4270 C   0  0  0  0  0  0  0  0  0  0  0  0
  189.8770  171.3820  137.1170 N   0  0  0  0  0  0  0  0  0  0  0  0
  185.8790  179.0290  142.3610 C   0  0  0  0  0  2  0  0  0  0  0  0
  187.6200  177.1450  143.4050 C   0  0  2  0  0  3  0  0  0  0  0  0
  189.1050  172.5200  137.4330 N   0  0  0  0  0  0  0  0  0  0  0  0
  185.8340  177.6750  141.6420 C   0  0  0  0  0  2  0  0  0  0  0  0
  185.3380  177.6680  144.4800 C   0  0  1  0  0  3  0  0  0  0  0  0
  191.8880  172.6800  143.2660 C   0  0  0  0  0  3  0  0  0  0  0  0
  190.8120  173.4370  142.7690 C   0  0  0  0  0  0  0  0  0  0  0  0
  190.7020  172.1650  140.6910 C   0  0  0  0  0  3  0  0  0  0  0  0
  187.7130  176.1070  141.1550 C   0  0  0  0  0  2  0  0  0  0  0  0
  187.9090  174.8450  138.6610 C   0  0  0  0  0  1  0  0  0  0  0  0
  190.2810  169.6020  138.7530 C   0  0  0  0  0  1  0  0  0  0  0  0
  189.2050  174.1200  140.8710 C   0  0  0  0  0  0  0  0  0  0  0  0
  190.1560  171.9480  139.3930 N   0  0  0  0  0  0  0  0  0  0  0  0
  184.8200  177.9080  145.7810 O   0  0  0  0  0  0  0  0  0  0  0  0
  185.6470  178.0910  146.8910 C   0  0  0  0  0  0  0  0  0  0  0  0
  186.3960  176.9530  147.5030 C   0  0  0  0  0  1  0  0  0  0  0  0
  185.7660  179.2400  147.3890 O   0  0  0  0  0  0  0  0  0  0  0  0
  1 16  1  6  0  0  0
  1 20  1  0  0  0  0
  1 10  1  0  0  0  0
  2 12  1  0  0  0  0
  4  3  2  0  0  0  0
  5 27  1  0  0  0  0
  6 28  1  0  0  0  0
  6  5  2  0  0  0  0
  7 24  1  6  0  0  0
  7 17  1  0  0  0  0
  9 26  1  1  0  0  0
  9 28  1  0  0  0  0
 11  3  1  0  0  0  0
 12 13  1  0  0  0  0
 12  8  1  0  0  0  0
 13 11  2  0  0  0  0
 14 22  1  0  0  0  0
 15 18  2  0  0  0  0
 15  9  1  0  0  0  0
 17  8  1  0  0  0  0
 17 10  1  0  0  0  0
 18  6  1  0  0  0  0
 19  7  1  0  0  0  0
 19 16  1  0  0  0  0
 20 10  1  0  0  0  0
 20 29  1  0  0  0  0
 21  4  1  0  0  0  0
 22 21  2  0  0  0  0
 22 13  1  0  0  0  0
 23 14  2  0  0  0  0
 24  2  1  0  0  0  0
 25  5  1  0  0  0  0
 27 14  1  0  0  0  0
 27  2  2  0  0  0  0
 28 23  1  0  0  0  0
 29 30  1  0  0  0  0
 30 32  2  0  0  0  0
 30 31  1  0  0  0  0
M  END
>  <MODEL>
8

>  <REMARK>
 VINA RESULT:      -7.9      2.751      5.617
  Name = 
  2 active torsions:
  status: ('A' for Active; 'I' for Inactive)
    1  A    between atoms: C_20  and  O_29
    2  A    between atoms: O_29  and  C_30
                            x       y       z     vdW  Elec       q    Type
                         _______ _______ _______ _____ _____    ______ ____

>  <TORSDO>
F 2

$$$$
=
 OpenBabel11112416333D

 32 38  0  0  1  0  0  0  0  0999 V2000
  191.9240  171.9740  141.6080 C   0  0  1  0  0  3  0  0  0  0  0  0
  188.6500  175.6660  143.4920 C   0  0  0  0  0  0  0  0  0  0  0  0
  186.3980  177.1990  139.3520 C   0  0  0  0  0  3  0  0  0  0  0  0
  185.6180  178.0860  140.0950 C   0  0  0  0  0  3  0  0  0  0  0  0
  188.1350  176.7280  145.7470 C   0  0  0  0  0  0  0  0  0  0  0  0
  187.2600  177.4970  146.4010 C   0  0  0  0  0  0  0  0  0  0  0  0
  190.0830  173.6080  143.3480 C   0  0  1  0  0  3  0  0  0  0  0  0
  188.8740  174.3580  141.3270 C   0  0  0  0  0  2  0  0  0  0  0  0
  185.5650  178.9960  146.7430 C   0  0  2  0  0  3  0  0  0  0  0  0
  190.7170  172.6920  141.0020 C   0  0  2  0  0  3  0  0  0  0  0  0
  187.3080  176.3620  139.9990 C   0  0  0  0  0  3  0  0  0  0  0  0
  188.3780  175.5260  142.0700 N   0  0  0  0  0  0  0  0  0  0  0  0
  187.4500  176.4000  141.3980 C   0  0  0  0  0  0  0  0  0  0  0  0
  186.8280  177.3260  143.6060 C   0  0  0  0  0  0  0  0  0  0  0  0
  186.2780  178.7940  148.0280 N   0  0  0  0  0  0  0  0  0  0  0  0
  192.4000  172.5760  142.9470 C   0  0  0  0  0  2  0  0  0  0  0  0
  190.2180  173.8810  141.8490 C   0  0  2  0  0  3  0  0  0  0  0  0
  187.3240  177.8890  147.7500 N   0  0  0  0  0  0  0  0  0  0  0  0
  191.2970  172.9040  143.9610 C   0  0  0  0  0  2  0  0  0  0  0  0
  190.5440  171.3310  141.6680 C   0  0  1  0  0  3  0  0  0  0  0  0
  185.7510  178.1330  141.4840 C   0  0  0  0  0  3  0  0  0  0  0  0
  186.6670  177.2940  142.1420 C   0  0  0  0  0  0  0  0  0  0  0  0
  186.0160  178.0920  144.3520 C   0  0  0  0  0  3  0  0  0  0  0  0
  189.8280  174.9190  144.0670 C   0  0  0  0  0  2  0  0  0  0  0  0
  189.2840  176.1610  146.5190 C   0  0  0  0  0  1  0  0  0  0  0  0
  184.1020  178.6320  146.9110 C   0  0  0  0  0  1  0  0  0  0  0  0
  187.9210  176.5240  144.2610 C   0  0  0  0  0  0  0  0  0  0  0  0
  186.1880  178.1170  145.7660 N   0  0  0  0  0  0  0  0  0  0  0  0
  190.4470  170.3290  140.6660 O   0  0  0  0  0  0  0  0  0  0  0  0
  191.2080  169.1580  140.7070 C   0  0  0  0  0  0  0  0  0  0  0  0
  191.0710  168.1750  141.8220 C   0  0  0  0  0  1  0  0  0  0  0  0
  192.0280  168.9250  139.7820 O   0  0  0  0  0  0  0  0  0  0  0  0
  1 20  1  0  0  0  0
  1 16  1  1  0  0  0
  2 24  1  0  0  0  0
  2 27  2  0  0  0  0
  3 11  2  0  0  0  0
  3  4  1  0  0  0  0
  4 21  2  0  0  0  0
  5  6  2  0  0  0  0
  5 25  1  0  0  0  0
  6 18  1  0  0  0  0
  7 19  1  1  0  0  0
  7 24  1  0  0  0  0
  8 17  1  0  0  0  0
  8 12  1  0  0  0  0
  9 26  1  1  0  0  0
  9 15  1  0  0  0  0
 10  1  1  0  0  0  0
 10 20  1  0  0  0  0
 10 17  1  0  0  0  0
 11 13  1  0  0  0  0
 12  2  1  0  0  0  0
 13 12  1  0  0  0  0
 13 22  2  0  0  0  0
 14 27  1  0  0  0  0
 14 23  2  0  0  0  0
 16 19  1  0  0  0  0
 17  7  1  0  0  0  0
 18 15  2  0  0  0  0
 21 22  1  0  0  0  0
 22 14  1  0  0  0  0
 23 28  1  0  0  0  0
 27  5  1  0  0  0  0
 28  6  1  0  0  0  0
 28  9  1  0  0  0  0
 29 30  1  0  0  0  0
 29 20  1  0  0  0  0
 30 31  1  0  0  0  0
 32 30  2  0  0  0  0
M  END
>  <MODEL>
9

>  <REMARK>
 VINA RESULT:      -7.8      4.038      7.760
  Name = 
  2 active torsions:
  status: ('A' for Active; 'I' for Inactive)
    1  A    between atoms: C_20  and  O_29
    2  A    between atoms: O_29  and  C_30
                            x       y       z     vdW  Elec       q    Type
                         _______ _______ _______ _____ _____    ______ ____

>  <TORSDO>
F 2

$$$$
