=
 OpenBabel11112416563D

 31 35  0  0  0  0  0  0  0  0999 V2000
  185.2370  177.9220  140.9870 C   0  0  0  0  0  0  0  0  0  0  0  0
  187.2270  177.4390  144.1510 C   0  0  0  0  0  0  0  0  0  0  0  0
  186.3710  177.8070  145.2370 C   0  0  0  0  0  0  0  0  0  0  0  0
  184.2420  178.6040  146.1380 C   0  0  0  0  0  0  0  0  0  0  0  0
  186.8500  177.4790  142.7720 C   0  0  0  0  0  0  0  0  0  0  0  0
  186.1700  177.5350  140.0270 C   0  0  0  0  0  3  0  0  0  0  0  0
  185.0500  178.2530  145.0540 C   0  0  0  0  0  3  0  0  0  0  0  0
  189.4510  176.6220  143.4700 C   0  0  0  0  0  0  0  0  0  0  0  0
  183.8810  178.3650  140.5690 C   0  0  0  0  0  1  0  0  0  0  0  0
  188.1520  177.2910  146.8040 C   0  0  0  0  0  3  0  0  0  0  0  0
  182.9420  179.0400  145.9210 O   0  0  0  0  0  1  0  0  0  0  0  0
  189.0590  176.6710  142.1340 C   0  0  0  0  0  3  0  0  0  0  0  0
  188.5470  177.0010  144.4750 C   0  0  0  0  0  0  0  0  0  0  0  0
  185.5750  177.8940  142.3410 C   0  0  0  0  0  3  0  0  0  0  0  0
  184.7400  178.5160  147.4360 C   0  0  0  0  0  3  0  0  0  0  0  0
  187.7840  177.0900  141.7780 C   0  0  0  0  0  0  0  0  0  0  0  0
  187.4420  177.1200  140.4230 C   0  0  0  0  0  3  0  0  0  0  0  0
  188.9540  176.9450  145.7710 N   0  0  0  0  0  0  0  0  0  0  0  0
  186.8570  177.7250  146.5660 C   0  0  0  0  0  0  0  0  0  0  0  0
  186.0470  178.0770  147.6510 C   0  0  0  0  0  3  0  0  0  0  0  0
  191.8610  178.2560  143.8770 O   0  0  0  0  0  0  0  0  0  0  0  0
  191.9360  177.0090  144.0320 C   0  0  0  0  0  0  0  0  0  0  0  0
  190.7720  176.1890  143.8400 N   0  0  0  0  0  2  0  0  0  0  0  0
  195.6930  175.1430  144.9850 C   0  0  0  0  0  0  0  0  0  0  0  0
  194.1200  176.0390  143.3880 C   0  0  0  0  0  3  0  0  0  0  0  0
  192.5620  176.4160  147.1440 Cl  0  0  0  0  0  0  0  0  0  0  0  0
  196.9110  174.5410  145.2650 O   0  0  0  0  0  1  0  0  0  0  0  0
  195.3460  175.4340  143.6670 C   0  0  0  0  0  3  0  0  0  0  0  0
  193.5830  176.0670  145.7550 C   0  0  0  0  0  0  0  0  0  0  0  0
  193.2190  176.3660  144.4160 C   0  0  0  0  0  0  0  0  0  0  0  0
  194.8150  175.4590  146.0210 C   0  0  0  0  0  3  0  0  0  0  0  0
  1 14  1  0  0  0  0
  2 13  2  0  0  0  0
  2  3  1  0  0  0  0
  3 19  1  0  0  0  0
  4 15  2  0  0  0  0
  5  2  1  0  0  0  0
  6 17  1  0  0  0  0
  6  1  2  0  0  0  0
  7  3  2  0  0  0  0
  7  4  1  0  0  0  0
  8 23  1  0  0  0  0
  8 13  1  0  0  0  0
  9  1  1  0  0  0  0
 11  4  1  0  0  0  0
 12  8  2  0  0  0  0
 13 18  1  0  0  0  0
 14  5  2  0  0  0  0
 15 20  1  0  0  0  0
 16 12  1  0  0  0  0
 16  5  1  0  0  0  0
 17 16  2  0  0  0  0
 18 10  2  0  0  0  0
 19 10  1  0  0  0  0
 19 20  2  0  0  0  0
 21 22  2  0  0  0  0
 22 30  1  0  0  0  0
 23 22  1  0  0  0  0
 24 27  1  0  0  0  0
 24 31  1  0  0  0  0
 25 28  1  0  0  0  0
 25 30  2  0  0  0  0
 28 24  2  0  0  0  0
 29 31  2  0  0  0  0
 29 26  1  0  0  0  0
 30 29  1  0  0  0  0
M  END
>  <MODEL>
1

>  <REMARK>
 VINA RESULT:      -9.4      0.000      0.000
  Name = 
  2 active torsions:
  status: ('A' for Active; 'I' for Inactive)
    1  A    between atoms: C_5  and  C_30
    2  A    between atoms: C_10  and  N_16
                            x       y       z     vdW  Elec       q    Type
                         _______ _______ _______ _____ _____    ______ ____

>  <TORSDO>
F 2

$$$$
=
 OpenBabel11112416563D

 31 35  0  0  0  0  0  0  0  0999 V2000
  185.1190  178.0200  146.8730 C   0  0  0  0  0  0  0  0  0  0  0  0
  187.1880  177.7920  143.7320 C   0  0  0  0  0  0  0  0  0  0  0  0
  186.2810  177.8990  142.6310 C   0  0  0  0  0  0  0  0  0  0  0  0
  184.0350  178.1600  141.6980 C   0  0  0  0  0  0  0  0  0  0  0  0
  186.8020  177.8330  145.1090 C   0  0  0  0  0  0  0  0  0  0  0  0
  186.1070  177.9040  147.8500 C   0  0  0  0  0  3  0  0  0  0  0  0
  184.8920  178.0580  142.7960 C   0  0  0  0  0  3  0  0  0  0  0  0
  189.5320  177.5210  144.4460 C   0  0  0  0  0  0  0  0  0  0  0  0
  183.6970  178.1820  147.2730 C   0  0  0  0  0  1  0  0  0  0  0  0
  188.1420  177.6910  141.0860 C   0  0  0  0  0  3  0  0  0  0  0  0
  182.6700  178.3160  141.8960 O   0  0  0  0  0  1  0  0  0  0  0  0
  189.1290  177.5640  145.7800 C   0  0  0  0  0  3  0  0  0  0  0  0
  188.5740  177.6340  143.4270 C   0  0  0  0  0  0  0  0  0  0  0  0
  185.4650  177.9840  145.5220 C   0  0  0  0  0  3  0  0  0  0  0  0
  184.5500  178.1050  140.4040 C   0  0  0  0  0  3  0  0  0  0  0  0
  187.7910  177.7160  146.1180 C   0  0  0  0  0  0  0  0  0  0  0  0
  187.4410  177.7520  147.4710 C   0  0  0  0  0  3  0  0  0  0  0  0
  188.9920  177.5900  142.1330 N   0  0  0  0  0  0  0  0  0  0  0  0
  186.7820  177.8460  141.3060 C   0  0  0  0  0  0  0  0  0  0  0  0
  185.9220  177.9480  140.2080 C   0  0  0  0  0  3  0  0  0  0  0  0
  191.1920  175.1000  144.6120 O   0  0  0  0  0  0  0  0  0  0  0  0
  191.7090  176.1660  144.1860 C   0  0  0  0  0  0  0  0  0  0  0  0
  190.9180  177.3630  144.0950 N   0  0  0  0  0  2  0  0  0  0  0  0
  195.7900  176.2620  142.8300 C   0  0  0  0  0  0  0  0  0  0  0  0
  193.4230  176.0490  142.4050 C   0  0  0  0  0  3  0  0  0  0  0  0
  194.0100  176.6100  146.4070 Cl  0  0  0  0  0  0  0  0  0  0  0  0
  197.0970  176.2890  142.3670 O   0  0  0  0  0  1  0  0  0  0  0  0
  194.7370  176.0760  141.9370 C   0  0  0  0  0  3  0  0  0  0  0  0
  194.2140  176.3980  144.6730 C   0  0  0  0  0  0  0  0  0  0  0  0
  193.1340  176.2070  143.7710 C   0  0  0  0  0  0  0  0  0  0  0  0
  195.5270  176.4220  144.1910 C   0  0  0  0  0  3  0  0  0  0  0  0
  1  9  1  0  0  0  0
  1  6  1  0  0  0  0
  2  5  1  0  0  0  0
  3  7  2  0  0  0  0
  3  2  1  0  0  0  0
  4 11  1  0  0  0  0
  4  7  1  0  0  0  0
  5 14  1  0  0  0  0
  5 16  2  0  0  0  0
  8 12  2  0  0  0  0
 10 19  1  0  0  0  0
 10 18  2  0  0  0  0
 12 16  1  0  0  0  0
 13  2  2  0  0  0  0
 13  8  1  0  0  0  0
 14  1  2  0  0  0  0
 15  4  2  0  0  0  0
 16 17  1  0  0  0  0
 17  6  2  0  0  0  0
 18 13  1  0  0  0  0
 19  3  1  0  0  0  0
 20 15  1  0  0  0  0
 20 19  2  0  0  0  0
 22 21  2  0  0  0  0
 23 22  1  0  0  0  0
 23  8  1  0  0  0  0
 24 31  1  0  0  0  0
 25 30  2  0  0  0  0
 27 24  1  0  0  0  0
 28 25  1  0  0  0  0
 28 24  2  0  0  0  0
 29 26  1  0  0  0  0
 30 22  1  0  0  0  0
 30 29  1  0  0  0  0
 31 29  2  0  0  0  0
M  END
>  <MODEL>
2

>  <REMARK>
 VINA RESULT:      -9.1      1.576      4.084
  Name = 
  2 active torsions:
  status: ('A' for Active; 'I' for Inactive)
    1  A    between atoms: C_5  and  C_30
    2  A    between atoms: C_10  and  N_16
                            x       y       z     vdW  Elec       q    Type
                         _______ _______ _______ _____ _____    ______ ____

>  <TORSDO>
F 2

$$$$
=
 OpenBabel11112416563D

 31 35  0  0  0  0  0  0  0  0999 V2000
  185.0760  178.0020  146.2100 C   0  0  0  0  0  0  0  0  0  0  0  0
  187.4930  176.4410  143.7750 C   0  0  0  0  0  0  0  0  0  0  0  0
  187.0220  176.7620  142.4630 C   0  0  0  0  0  0  0  0  0  0  0  0
  185.4310  177.8190  140.9350 C   0  0  0  0  0  0  0  0  0  0  0  0
  186.8540  176.8490  144.9890 C   0  0  0  0  0  0  0  0  0  0  0  0
  185.6420  177.6200  147.4260 C   0  0  0  0  0  3  0  0  0  0  0  0
  185.8620  177.5240  142.2310 C   0  0  0  0  0  3  0  0  0  0  0  0
  189.2150  175.3010  145.1210 C   0  0  0  0  0  0  0  0  0  0  0  0
  183.8330  178.8160  146.1930 C   0  0  0  0  0  1  0  0  0  0  0  0
  188.8910  175.5470  141.5030 C   0  0  0  0  0  3  0  0  0  0  0  0
  184.2820  178.5740  140.7420 O   0  0  0  0  0  1  0  0  0  0  0  0
  188.5730  175.7100  146.2880 C   0  0  0  0  0  3  0  0  0  0  0  0
  188.6840  175.6610  143.8720 C   0  0  0  0  0  0  0  0  0  0  0  0
  185.6760  177.6190  145.0090 C   0  0  0  0  0  3  0  0  0  0  0  0
  186.1540  177.3560  139.8380 C   0  0  0  0  0  3  0  0  0  0  0  0
  187.4130  176.4710  146.2370 C   0  0  0  0  0  0  0  0  0  0  0  0
  186.8090  176.8550  147.4370 C   0  0  0  0  0  3  0  0  0  0  0  0
  189.3290  175.2480  142.7480 N   0  0  0  0  0  0  0  0  0  0  0  0
  187.7410  176.3020  141.3320 C   0  0  0  0  0  0  0  0  0  0  0  0
  187.3080  176.5980  140.0350 C   0  0  0  0  0  3  0  0  0  0  0  0
  192.0050  176.2140  144.9590 O   0  0  0  0  0  0  0  0  0  0  0  0
  191.7730  174.9840  145.0910 C   0  0  0  0  0  0  0  0  0  0  0  0
  190.4170  174.5130  145.1730 N   0  0  0  0  0  2  0  0  0  0  0  0
  194.8970  172.0310  145.2420 C   0  0  0  0  0  0  0  0  0  0  0  0
  192.6400  172.6990  144.7030 C   0  0  0  0  0  3  0  0  0  0  0  0
  194.6300  175.8930  146.2870 Cl  0  0  0  0  0  0  0  0  0  0  0  0
  195.8880  171.0600  145.2790 O   0  0  0  0  0  1  0  0  0  0  0  0
  193.6350  171.7210  144.7400 C   0  0  0  0  0  3  0  0  0  0  0  0
  194.1750  174.3090  145.6740 C   0  0  0  0  0  0  0  0  0  0  0  0
  192.8860  174.0030  145.1660 C   0  0  0  0  0  0  0  0  0  0  0  0
  195.1630  173.3190  145.7060 C   0  0  0  0  0  3  0  0  0  0  0  0
  1  6  1  0  0  0  0
  2 13  2  0  0  0  0
  2  5  1  0  0  0  0
  3  2  1  0  0  0  0
  4  7  1  0  0  0  0
  5 14  1  0  0  0  0
  5 16  2  0  0  0  0
  6 17  2  0  0  0  0
  7  3  2  0  0  0  0
  8 23  1  0  0  0  0
  8 12  2  0  0  0  0
  9  1  1  0  0  0  0
 10 18  2  0  0  0  0
 11  4  1  0  0  0  0
 13  8  1  0  0  0  0
 14  1  2  0  0  0  0
 15 20  1  0  0  0  0
 15  4  2  0  0  0  0
 16 12  1  0  0  0  0
 16 17  1  0  0  0  0
 18 13  1  0  0  0  0
 19 10  1  0  0  0  0
 19  3  1  0  0  0  0
 20 19  2  0  0  0  0
 21 22  2  0  0  0  0
 22 30  1  0  0  0  0
 22 23  1  0  0  0  0
 24 27  1  0  0  0  0
 24 31  1  0  0  0  0
 25 28  1  0  0  0  0
 25 30  2  0  0  0  0
 28 24  2  0  0  0  0
 29 31  2  0  0  0  0
 29 26  1  0  0  0  0
 30 29  1  0  0  0  0
M  END
>  <MODEL>
3

>  <REMARK>
 VINA RESULT:      -9.0      2.101      4.355
  Name = 
  2 active torsions:
  status: ('A' for Active; 'I' for Inactive)
    1  A    between atoms: C_5  and  C_30
    2  A    between atoms: C_10  and  N_16
                            x       y       z     vdW  Elec       q    Type
                         _______ _______ _______ _____ _____    ______ ____

>  <TORSDO>
F 2

$$$$
=
 OpenBabel11112416563D

 31 35  0  0  0  0  0  0  0  0999 V2000
  185.2210  177.9730  141.1240 C   0  0  0  0  0  0  0  0  0  0  0  0
  187.4160  177.5440  144.1580 C   0  0  0  0  0  0  0  0  0  0  0  0
  186.6060  177.8440  145.2990 C   0  0  0  0  0  0  0  0  0  0  0  0
  184.4920  178.5050  146.3360 C   0  0  0  0  0  0  0  0  0  0  0  0
  186.9570  177.5880  142.8030 C   0  0  0  0  0  0  0  0  0  0  0  0
  186.1160  177.6560  140.1030 C   0  0  0  0  0  3  0  0  0  0  0  0
  185.2540  178.2200  145.2010 C   0  0  0  0  0  3  0  0  0  0  0  0
  189.6370  176.8650  143.3330 C   0  0  0  0  0  0  0  0  0  0  0  0
  183.8210  178.3470  140.7940 C   0  0  0  0  0  1  0  0  0  0  0  0
  188.5010  177.4000  146.7500 C   0  0  0  0  0  3  0  0  0  0  0  0
  183.1600  178.8730  146.2040 O   0  0  0  0  0  1  0  0  0  0  0  0
  189.1660  176.9160  142.0230 C   0  0  0  0  0  3  0  0  0  0  0  0
  188.7740  177.1750  144.3960 C   0  0  0  0  0  0  0  0  0  0  0  0
  185.6390  177.9390  142.4550 C   0  0  0  0  0  3  0  0  0  0  0  0
  185.0700  178.4220  147.6020 C   0  0  0  0  0  3  0  0  0  0  0  0
  187.8510  177.2700  141.7490 C   0  0  0  0  0  0  0  0  0  0  0  0
  187.4290  177.3060  140.4170 C   0  0  0  0  0  3  0  0  0  0  0  0
  189.2590  177.1180  145.6650 N   0  0  0  0  0  0  0  0  0  0  0  0
  187.1720  177.7650  146.5950 C   0  0  0  0  0  0  0  0  0  0  0  0
  186.4090  178.0520  147.7320 C   0  0  0  0  0  3  0  0  0  0  0  0
  190.7620  174.1770  143.7190 O   0  0  0  0  0  0  0  0  0  0  0  0
  191.5250  175.1740  143.8030 C   0  0  0  0  0  0  0  0  0  0  0  0
  190.9990  176.4990  143.6170 N   0  0  0  0  0  2  0  0  0  0  0  0
  195.6790  174.6590  144.7940 C   0  0  0  0  0  0  0  0  0  0  0  0
  193.3500  174.7620  145.4220 C   0  0  0  0  0  3  0  0  0  0  0  0
  193.6690  175.3640  141.3960 Cl  0  0  0  0  0  0  0  0  0  0  0  0
  197.0110  174.4890  145.1400 O   0  0  0  0  0  1  0  0  0  0  0  0
  194.6890  174.5910  145.7730 C   0  0  0  0  0  3  0  0  0  0  0  0
  193.9870  175.0700  143.1010 C   0  0  0  0  0  0  0  0  0  0  0  0
  192.9720  175.0040  144.0910 C   0  0  0  0  0  0  0  0  0  0  0  0
  195.3270  174.8970  143.4660 C   0  0  0  0  0  3  0  0  0  0  0  0
  1 14  1  0  0  0  0
  2 13  2  0  0  0  0
  2  3  1  0  0  0  0
  3 19  1  0  0  0  0
  4 15  2  0  0  0  0
  5  2  1  0  0  0  0
  6 17  1  0  0  0  0
  6  1  2  0  0  0  0
  7  3  2  0  0  0  0
  7  4  1  0  0  0  0
  8 23  1  0  0  0  0
  8 13  1  0  0  0  0
  9  1  1  0  0  0  0
 11  4  1  0  0  0  0
 12  8  2  0  0  0  0
 13 18  1  0  0  0  0
 14  5  2  0  0  0  0
 15 20  1  0  0  0  0
 16 12  1  0  0  0  0
 16  5  1  0  0  0  0
 17 16  2  0  0  0  0
 18 10  2  0  0  0  0
 19 10  1  0  0  0  0
 19 20  2  0  0  0  0
 21 22  2  0  0  0  0
 22 30  1  0  0  0  0
 23 22  1  0  0  0  0
 24 27  1  0  0  0  0
 24 28  1  0  0  0  0
 25 28  2  0  0  0  0
 26 29  1  0  0  0  0
 29 31  1  0  0  0  0
 29 30  2  0  0  0  0
 30 25  1  0  0  0  0
 31 24  2  0  0  0  0
M  END
>  <MODEL>
4

>  <REMARK>
 VINA RESULT:      -8.8      1.448      1.687
  Name = 
  2 active torsions:
  status: ('A' for Active; 'I' for Inactive)
    1  A    between atoms: C_5  and  C_30
    2  A    between atoms: C_10  and  N_16
                            x       y       z     vdW  Elec       q    Type
                         _______ _______ _______ _____ _____    ______ ____

>  <TORSDO>
F 2

$$$$
=
 OpenBabel11112416563D

 31 35  0  0  0  0  0  0  0  0999 V2000
  191.3110  176.7900  147.4900 C   0  0  0  0  0  0  0  0  0  0  0  0
  188.7590  176.3290  144.7560 C   0  0  0  0  0  0  0  0  0  0  0  0
  187.5440  176.9250  145.2200 C   0  0  0  0  0  0  0  0  0  0  0  0
  186.2240  178.1150  146.9000 C   0  0  0  0  0  0  0  0  0  0  0  0
  189.9800  176.2900  145.5000 C   0  0  0  0  0  0  0  0  0  0  0  0
  192.4250  176.1760  146.9180 C   0  0  0  0  0  3  0  0  0  0  0  0
  187.4260  177.5430  146.4790 C   0  0  0  0  0  3  0  0  0  0  0  0
  189.8930  175.1280  142.9250 C   0  0  0  0  0  0  0  0  0  0  0  0
  191.4070  177.3870  148.8480 C   0  0  0  0  0  1  0  0  0  0  0  0
  186.4550  176.3070  143.1400 C   0  0  0  0  0  3  0  0  0  0  0  0
  186.1420  178.7170  148.1480 O   0  0  0  0  0  1  0  0  0  0  0  0
  191.0690  175.1030  143.6720 C   0  0  0  0  0  3  0  0  0  0  0  0
  188.7440  175.7350  143.4570 C   0  0  0  0  0  0  0  0  0  0  0  0
  190.1060  176.8440  146.7880 C   0  0  0  0  0  3  0  0  0  0  0  0
  185.1070  178.0820  146.0680 C   0  0  0  0  0  3  0  0  0  0  0  0
  191.1250  175.6700  144.9380 C   0  0  0  0  0  0  0  0  0  0  0  0
  192.3300  175.6170  145.6440 C   0  0  0  0  0  3  0  0  0  0  0  0
  187.6080  175.7460  142.7090 N   0  0  0  0  0  0  0  0  0  0  0  0
  186.3950  176.9030  144.3900 C   0  0  0  0  0  0  0  0  0  0  0  0
  185.1910  177.4760  144.8140 C   0  0  0  0  0  3  0  0  0  0  0  0
  188.9310  172.4570  142.1630 O   0  0  0  0  0  0  0  0  0  0  0  0
  189.3590  173.2290  141.2660 C   0  0  0  0  0  0  0  0  0  0  0  0
  189.8340  174.5410  141.6140 N   0  0  0  0  0  2  0  0  0  0  0  0
  189.3370  172.1350  137.1070 C   0  0  0  0  0  0  0  0  0  0  0  0
  188.7530  173.6390  138.9020 C   0  0  0  0  0  3  0  0  0  0  0  0
  190.8180  170.4700  140.4410 Cl  0  0  0  0  0  0  0  0  0  0  0  0
  189.3160  171.8050  135.7590 O   0  0  0  0  0  1  0  0  0  0  0  0
  188.7310  173.3090  137.5470 C   0  0  0  0  0  3  0  0  0  0  0  0
  189.9960  171.6110  139.3850 C   0  0  0  0  0  0  0  0  0  0  0  0
  189.3800  172.8050  139.8440 C   0  0  0  0  0  0  0  0  0  0  0  0
  189.9660  171.2920  138.0230 C   0  0  0  0  0  3  0  0  0  0  0  0
  1  9  1  0  0  0  0
  2  3  1  0  0  0  0
  2  5  1  0  0  0  0
  3  7  2  0  0  0  0
  4 11  1  0  0  0  0
  5 14  1  0  0  0  0
  6  1  1  0  0  0  0
  7  4  1  0  0  0  0
  8 13  1  0  0  0  0
  8 12  2  0  0  0  0
 10 19  1  0  0  0  0
 12 16  1  0  0  0  0
 13  2  2  0  0  0  0
 14  1  2  0  0  0  0
 15  4  2  0  0  0  0
 16  5  2  0  0  0  0
 16 17  1  0  0  0  0
 17  6  2  0  0  0  0
 18 10  2  0  0  0  0
 18 13  1  0  0  0  0
 19 20  2  0  0  0  0
 19  3  1  0  0  0  0
 20 15  1  0  0  0  0
 22 23  1  0  0  0  0
 22 21  2  0  0  0  0
 23  8  1  0  0  0  0
 24 28  2  0  0  0  0
 24 31  1  0  0  0  0
 25 30  2  0  0  0  0
 27 24  1  0  0  0  0
 28 25  1  0  0  0  0
 29 30  1  0  0  0  0
 29 26  1  0  0  0  0
 30 22  1  0  0  0  0
 31 29  2  0  0  0  0
M  END
>  <MODEL>
5

>  <REMARK>
 VINA RESULT:      -8.4      4.119      6.542
  Name = 
  2 active torsions:
  status: ('A' for Active; 'I' for Inactive)
    1  A    between atoms: C_5  and  C_30
    2  A    between atoms: C_10  and  N_16
                            x       y       z     vdW  Elec       q    Type
                         _______ _______ _______ _____ _____    ______ ____

>  <TORSDO>
F 2

$$$$
=
 OpenBabel11112416563D

 31 35  0  0  0  0  0  0  0  0999 V2000
  185.7750  178.1590  146.8720 C   0  0  0  0  0  0  0  0  0  0  0  0
  186.9420  177.6430  143.3260 C   0  0  0  0  0  0  0  0  0  0  0  0
  185.8070  177.8620  142.4820 C   0  0  0  0  0  0  0  0  0  0  0  0
  183.4510  178.4090  142.1270 C   0  0  0  0  0  0  0  0  0  0  0  0
  186.9230  177.7420  144.7530 C   0  0  0  0  0  0  0  0  0  0  0  0
  186.9550  177.9200  147.5760 C   0  0  0  0  0  3  0  0  0  0  0  0
  184.5370  178.2020  142.9810 C   0  0  0  0  0  3  0  0  0  0  0  0
  189.3370  177.0710  143.4460 C   0  0  0  0  0  0  0  0  0  0  0  0
  184.5310  178.5090  147.6060 C   0  0  0  0  0  1  0  0  0  0  0  0
  187.1790  177.4020  140.5330 C   0  0  0  0  0  3  0  0  0  0  0  0
  182.2100  178.7450  142.6530 O   0  0  0  0  0  1  0  0  0  0  0  0
  189.2910  177.1740  144.8340 C   0  0  0  0  0  3  0  0  0  0  0  0
  188.1750  177.3030  142.6920 C   0  0  0  0  0  0  0  0  0  0  0  0
  185.7630  178.0700  145.4800 C   0  0  0  0  0  3  0  0  0  0  0  0
  183.6120  178.2790  140.7490 C   0  0  0  0  0  3  0  0  0  0  0  0
  188.1120  177.5020  145.4890 C   0  0  0  0  0  0  0  0  0  0  0  0
  188.1200  177.5920  146.8840 C   0  0  0  0  0  3  0  0  0  0  0  0
  188.2460  177.1970  141.3390 N   0  0  0  0  0  0  0  0  0  0  0  0
  185.9490  177.7360  141.0780 C   0  0  0  0  0  0  0  0  0  0  0  0
  184.8600  177.9430  140.2240 C   0  0  0  0  0  3  0  0  0  0  0  0
  190.9120  174.5980  143.6550 O   0  0  0  0  0  0  0  0  0  0  0  0
  191.3120  175.5120  142.8880 C   0  0  0  0  0  0  0  0  0  0  0  0
  190.5590  176.7300  142.7670 N   0  0  0  0  0  2  0  0  0  0  0  0
  194.9970  175.1440  140.7010 C   0  0  0  0  0  0  0  0  0  0  0  0
  193.7020  176.0420  142.5290 C   0  0  0  0  0  3  0  0  0  0  0  0
  191.3140  173.6150  140.2750 Cl  0  0  0  0  0  0  0  0  0  0  0  0
  196.1980  175.0420  140.0130 O   0  0  0  0  0  1  0  0  0  0  0  0
  194.9110  175.9420  141.8400 C   0  0  0  0  0  3  0  0  0  0  0  0
  192.6570  174.5390  140.9360 C   0  0  0  0  0  0  0  0  0  0  0  0
  192.5580  175.3500  142.0970 C   0  0  0  0  0  0  0  0  0  0  0  0
  193.8750  174.4470  140.2530 C   0  0  0  0  0  3  0  0  0  0  0  0
  1  6  1  0  0  0  0
  1  9  1  0  0  0  0
  2  5  1  0  0  0  0
  3  7  2  0  0  0  0
  3  2  1  0  0  0  0
  4 11  1  0  0  0  0
  4  7  1  0  0  0  0
  5 14  1  0  0  0  0
  5 16  2  0  0  0  0
  8 12  2  0  0  0  0
 10 19  1  0  0  0  0
 10 18  2  0  0  0  0
 12 16  1  0  0  0  0
 13  2  2  0  0  0  0
 13  8  1  0  0  0  0
 14  1  2  0  0  0  0
 15  4  2  0  0  0  0
 16 17  1  0  0  0  0
 17  6  2  0  0  0  0
 18 13  1  0  0  0  0
 19  3  1  0  0  0  0
 20 15  1  0  0  0  0
 20 19  2  0  0  0  0
 22 21  2  0  0  0  0
 23 22  1  0  0  0  0
 23  8  1  0  0  0  0
 24 28  1  0  0  0  0
 26 29  1  0  0  0  0
 27 24  1  0  0  0  0
 28 25  2  0  0  0  0
 29 30  2  0  0  0  0
 30 25  1  0  0  0  0
 30 22  1  0  0  0  0
 31 24  2  0  0  0  0
 31 29  1  0  0  0  0
M  END
>  <MODEL>
6

>  <REMARK>
 VINA RESULT:      -8.4      2.430      4.602
  Name = 
  2 active torsions:
  status: ('A' for Active; 'I' for Inactive)
    1  A    between atoms: C_5  and  C_30
    2  A    between atoms: C_10  and  N_16
                            x       y       z     vdW  Elec       q    Type
                         _______ _______ _______ _____ _____    ______ ____

>  <TORSDO>
F 2

$$$$
=
 OpenBabel11112416563D

 31 35  0  0  0  0  0  0  0  0999 V2000
  195.1130  174.4730  145.7630 C   0  0  0  0  0  0  0  0  0  0  0  0
  191.7110  173.8490  144.2650 C   0  0  0  0  0  0  0  0  0  0  0  0
  191.7620  172.5580  143.6500 C   0  0  0  0  0  0  0  0  0  0  0  0
  192.9270  170.4940  143.0480 C   0  0  0  0  0  0  0  0  0  0  0  0
  192.8060  174.4640  144.9510 C   0  0  0  0  0  0  0  0  0  0  0  0
  194.9290  175.7390  146.3180 C   0  0  0  0  0  3  0  0  0  0  0  0
  192.9140  171.7500  143.6580 C   0  0  0  0  0  3  0  0  0  0  0  0
  190.3430  175.8390  144.7620 C   0  0  0  0  0  0  0  0  0  0  0  0
  196.4270  173.7910  145.8890 C   0  0  0  0  0  1  0  0  0  0  0  0
  189.4470  172.8040  142.9620 C   0  0  0  0  0  3  0  0  0  0  0  0
  194.0810  169.7230  143.0750 O   0  0  0  0  0  1  0  0  0  0  0  0
  191.4250  176.4160  145.4230 C   0  0  0  0  0  3  0  0  0  0  0  0
  190.4790  174.5660  144.1860 C   0  0  0  0  0  0  0  0  0  0  0  0
  194.0640  173.8470  145.0880 C   0  0  0  0  0  3  0  0  0  0  0  0
  191.7830  170.0150  142.4130 C   0  0  0  0  0  3  0  0  0  0  0  0
  192.6400  175.7510  145.5230 C   0  0  0  0  0  0  0  0  0  0  0  0
  193.6940  176.3760  146.1970 C   0  0  0  0  0  3  0  0  0  0  0  0
  189.4090  174.0240  143.5450 N   0  0  0  0  0  0  0  0  0  0  0  0
  190.6100  172.0500  142.9990 C   0  0  0  0  0  0  0  0  0  0  0  0
  190.6250  170.7920  142.3880 C   0  0  0  0  0  3  0  0  0  0  0  0
  188.1030  175.8440  146.6650 O   0  0  0  0  0  0  0  0  0  0  0  0
  188.0030  176.5130  145.6040 C   0  0  0  0  0  0  0  0  0  0  0  0
  189.0850  176.5270  144.6580 N   0  0  0  0  0  2  0  0  0  0  0  0
  184.4430  178.7120  144.6090 C   0  0  0  0  0  0  0  0  0  0  0  0
  186.1800  177.1320  144.0490 C   0  0  0  0  0  3  0  0  0  0  0  0
  186.8010  178.5010  147.8460 Cl  0  0  0  0  0  0  0  0  0  0  0  0
  183.2940  179.4100  144.2630 O   0  0  0  0  0  1  0  0  0  0  0  0
  185.0260  177.8330  143.6980 C   0  0  0  0  0  3  0  0  0  0  0  0
  186.1730  178.1930  146.2320 C   0  0  0  0  0  0  0  0  0  0  0  0
  186.7750  177.2960  145.3120 C   0  0  0  0  0  0  0  0  0  0  0  0
  185.0160  178.8900  145.8680 C   0  0  0  0  0  3  0  0  0  0  0  0
  1  9  1  0  0  0  0
  1  6  1  0  0  0  0
  2  5  1  0  0  0  0
  3  7  2  0  0  0  0
  3  2  1  0  0  0  0
  4 11  1  0  0  0  0
  4  7  1  0  0  0  0
  5 14  1  0  0  0  0
  5 16  2  0  0  0  0
  8 12  2  0  0  0  0
 10 19  1  0  0  0  0
 10 18  2  0  0  0  0
 12 16  1  0  0  0  0
 13  2  2  0  0  0  0
 13  8  1  0  0  0  0
 14  1  2  0  0  0  0
 15  4  2  0  0  0  0
 16 17  1  0  0  0  0
 17  6  2  0  0  0  0
 18 13  1  0  0  0  0
 19  3  1  0  0  0  0
 20 15  1  0  0  0  0
 20 19  2  0  0  0  0
 22 21  2  0  0  0  0
 23  8  1  0  0  0  0
 23 22  1  0  0  0  0
 24 31  1  0  0  0  0
 25 30  2  0  0  0  0
 27 24  1  0  0  0  0
 28 25  1  0  0  0  0
 28 24  2  0  0  0  0
 29 26  1  0  0  0  0
 30 22  1  0  0  0  0
 30 29  1  0  0  0  0
 31 29  2  0  0  0  0
M  END
>  <MODEL>
7

>  <REMARK>
 VINA RESULT:      -8.2      3.303      8.973
  Name = 
  2 active torsions:
  status: ('A' for Active; 'I' for Inactive)
    1  A    between atoms: C_5  and  C_30
    2  A    between atoms: C_10  and  N_16
                            x       y       z     vdW  Elec       q    Type
                         _______ _______ _______ _____ _____    ______ ____

>  <TORSDO>
F 2

$$$$
=
 OpenBabel11112416563D

 31 35  0  0  0  0  0  0  0  0999 V2000
  191.6760  173.6050  141.9280 C   0  0  0  0  0  0  0  0  0  0  0  0
  189.3560  175.7420  143.9910 C   0  0  0  0  0  0  0  0  0  0  0  0
  190.0530  176.0620  145.1990 C   0  0  0  0  0  0  0  0  0  0  0  0
  192.0110  175.9470  146.6600 C   0  0  0  0  0  0  0  0  0  0  0  0
  189.8910  174.9420  142.9330 C   0  0  0  0  0  0  0  0  0  0  0  0
  190.8870  173.3690  140.8030 C   0  0  0  0  0  3  0  0  0  0  0  0
  191.3590  175.6140  145.4700 C   0  0  0  0  0  3  0  0  0  0  0  0
  187.2790  175.9940  142.6870 C   0  0  0  0  0  0  0  0  0  0  0  0
  193.0440  173.0300  142.0100 C   0  0  0  0  0  1  0  0  0  0  0  0
  188.1320  177.3340  145.9620 C   0  0  0  0  0  3  0  0  0  0  0  0
  193.3000  175.4890  146.8960 O   0  0  0  0  0  1  0  0  0  0  0  0
  187.8240  175.2120  141.6710 C   0  0  0  0  0  3  0  0  0  0  0  0
  188.0340  176.2600  143.8400 C   0  0  0  0  0  0  0  0  0  0  0  0
  191.1810  174.3810  142.9780 C   0  0  0  0  0  3  0  0  0  0  0  0
  191.3680  176.7380  147.6100 C   0  0  0  0  0  3  0  0  0  0  0  0
  189.1050  174.6890  141.7790 C   0  0  0  0  0  0  0  0  0  0  0  0
  189.6040  173.9110  140.7300 C   0  0  0  0  0  3  0  0  0  0  0  0
  187.4800  177.0260  144.8180 N   0  0  0  0  0  0  0  0  0  0  0  0
  189.4190  176.8660  146.1780 C   0  0  0  0  0  0  0  0  0  0  0  0
  190.0730  177.1970  147.3700 C   0  0  0  0  0  3  0  0  0  0  0  0
  186.4130  178.4320  141.2900 O   0  0  0  0  0  0  0  0  0  0  0  0
  185.5530  177.7320  141.8860 C   0  0  0  0  0  0  0  0  0  0  0  0
  185.9510  176.5350  142.5750 N   0  0  0  0  0  2  0  0  0  0  0  0
  181.3960  178.8270  141.7300 C   0  0  0  0  0  0  0  0  0  0  0  0
  183.3990  177.9700  140.6900 C   0  0  0  0  0  3  0  0  0  0  0  0
  184.2130  178.8940  144.5840 Cl  0  0  0  0  0  0  0  0  0  0  0  0
  180.0540  179.1720  141.6540 O   0  0  0  0  0  1  0  0  0  0  0  0
  182.0500  178.3170  140.6100 C   0  0  0  0  0  3  0  0  0  0  0  0
  183.4450  178.6440  143.0220 C   0  0  0  0  0  0  0  0  0  0  0  0
  184.1210  178.1250  141.8860 C   0  0  0  0  0  0  0  0  0  0  0  0
  182.0920  178.9890  142.9280 C   0  0  0  0  0  3  0  0  0  0  0  0
  1  9  1  0  0  0  0
  1 14  1  0  0  0  0
  2  3  1  0  0  0  0
  3  7  2  0  0  0  0
  3 19  1  0  0  0  0
  4 11  1  0  0  0  0
  4 15  2  0  0  0  0
  5 14  2  0  0  0  0
  5  2  1  0  0  0  0
  6  1  2  0  0  0  0
  7  4  1  0  0  0  0
  8 13  1  0  0  0  0
 10 19  1  0  0  0  0
 12 16  1  0  0  0  0
 12  8  2  0  0  0  0
 13  2  2  0  0  0  0
 13 18  1  0  0  0  0
 16  5  1  0  0  0  0
 17  6  1  0  0  0  0
 17 16  2  0  0  0  0
 18 10  2  0  0  0  0
 19 20  2  0  0  0  0
 20 15  1  0  0  0  0
 21 22  2  0  0  0  0
 22 23  1  0  0  0  0
 23  8  1  0  0  0  0
 24 31  1  0  0  0  0
 25 30  2  0  0  0  0
 27 24  1  0  0  0  0
 28 25  1  0  0  0  0
 28 24  2  0  0  0  0
 29 26  1  0  0  0  0
 30 22  1  0  0  0  0
 30 29  1  0  0  0  0
 31 29  2  0  0  0  0
M  END
>  <MODEL>
8

>  <REMARK>
 VINA RESULT:      -7.9      3.178      8.219
  Name = 
  2 active torsions:
  status: ('A' for Active; 'I' for Inactive)
    1  A    between atoms: C_5  and  C_30
    2  A    between atoms: C_10  and  N_16
                            x       y       z     vdW  Elec       q    Type
                         _______ _______ _______ _____ _____    ______ ____

>  <TORSDO>
F 2

$$$$
=
 OpenBabel11112416563D

 31 35  0  0  0  0  0  0  0  0999 V2000
  192.2220  175.5840  145.8830 C   0  0  0  0  0  0  0  0  0  0  0  0
  189.8950  175.0230  142.9720 C   0  0  0  0  0  0  0  0  0  0  0  0
  190.5830  174.1700  142.0520 C   0  0  0  0  0  0  0  0  0  0  0  0
  192.5250  172.8540  141.3620 C   0  0  0  0  0  0  0  0  0  0  0  0
  190.4350  175.4780  144.2160 C   0  0  0  0  0  0  0  0  0  0  0  0
  191.4430  176.4140  146.6880 C   0  0  0  0  0  3  0  0  0  0  0  0
  191.8830  173.6850  142.2830 C   0  0  0  0  0  3  0  0  0  0  0  0
  187.8320  176.2810  143.4630 C   0  0  0  0  0  0  0  0  0  0  0  0
  193.5860  175.1900  146.3230 C   0  0  0  0  0  1  0  0  0  0  0  0
  188.6610  174.2330  140.5700 C   0  0  0  0  0  3  0  0  0  0  0  0
  193.8080  172.3930  141.6210 O   0  0  0  0  0  1  0  0  0  0  0  0
  188.3820  176.7110  144.6680 C   0  0  0  0  0  3  0  0  0  0  0  0
  188.5770  175.4440  142.6170 C   0  0  0  0  0  0  0  0  0  0  0  0
  191.7220  175.1240  144.6640 C   0  0  0  0  0  3  0  0  0  0  0  0
  191.8770  172.4870  140.1840 C   0  0  0  0  0  3  0  0  0  0  0  0
  189.6600  176.3230  145.0500 C   0  0  0  0  0  0  0  0  0  0  0  0
  190.1640  176.7830  146.2710 C   0  0  0  0  0  3  0  0  0  0  0  0
  188.0180  175.0390  141.4460 N   0  0  0  0  0  0  0  0  0  0  0  0
  189.9430  173.7840  140.8480 C   0  0  0  0  0  0  0  0  0  0  0  0
  190.5870  172.9520  139.9260 C   0  0  0  0  0  3  0  0  0  0  0  0
  187.0050  178.7540  142.1040 O   0  0  0  0  0  0  0  0  0  0  0  0
  186.1300  177.9000  142.4030 C   0  0  0  0  0  0  0  0  0  0  0  0
  186.5090  176.6830  143.0660 N   0  0  0  0  0  2  0  0  0  0  0  0
  182.0200  178.5340  141.3010 C   0  0  0  0  0  0  0  0  0  0  0  0
  184.3000  177.9710  140.7380 C   0  0  0  0  0  3  0  0  0  0  0  0
  184.0690  178.7360  144.7430 Cl  0  0  0  0  0  0  0  0  0  0  0  0
  180.7010  178.7320  140.9200 O   0  0  0  0  0  1  0  0  0  0  0  0
  182.9740  178.1700  140.3520 C   0  0  0  0  0  3  0  0  0  0  0  0
  183.7200  178.5000  143.0350 C   0  0  0  0  0  0  0  0  0  0  0  0
  184.6990  178.1310  142.0760 C   0  0  0  0  0  0  0  0  0  0  0  0
  182.3940  178.6970  142.6350 C   0  0  0  0  0  3  0  0  0  0  0  0
  1  9  1  0  0  0  0
  1  6  1  0  0  0  0
  2  5  1  0  0  0  0
  3  7  2  0  0  0  0
  3  2  1  0  0  0  0
  4 11  1  0  0  0  0
  4  7  1  0  0  0  0
  5 14  1  0  0  0  0
  5 16  2  0  0  0  0
  8 12  2  0  0  0  0
 10 19  1  0  0  0  0
 10 18  2  0  0  0  0
 12 16  1  0  0  0  0
 13  2  2  0  0  0  0
 13  8  1  0  0  0  0
 14  1  2  0  0  0  0
 15  4  2  0  0  0  0
 16 17  1  0  0  0  0
 17  6  2  0  0  0  0
 18 13  1  0  0  0  0
 19  3  1  0  0  0  0
 20 15  1  0  0  0  0
 20 19  2  0  0  0  0
 21 22  2  0  0  0  0
 22 23  1  0  0  0  0
 23  8  1  0  0  0  0
 24 31  1  0  0  0  0
 25 30  2  0  0  0  0
 27 24  1  0  0  0  0
 28 25  1  0  0  0  0
 28 24  2  0  0  0  0
 29 26  1  0  0  0  0
 30 22  1  0  0  0  0
 30 29  1  0  0  0  0
 31 29  2  0  0  0  0
M  END
>  <MODEL>
9

>  <REMARK>
 VINA RESULT:      -7.8      3.350      9.100
  Name = 
  2 active torsions:
  status: ('A' for Active; 'I' for Inactive)
    1  A    between atoms: C_5  and  C_30
    2  A    between atoms: C_10  and  N_16
                            x       y       z     vdW  Elec       q    Type
                         _______ _______ _______ _____ _____    ______ ____

>  <TORSDO>
F 2

$$$$
