=
 OpenBabel11112417493D

 34 40  0  0  1  0  0  0  0  0999 V2000
  189.3250  174.6590  142.8390 C   0  0  2  0  0  3  0  0  0  0  0  0
  191.0810  172.9040  143.1410 C   0  0  0  0  0  2  0  0  0  0  0  0
  184.7830  178.2250  145.0630 C   0  0  1  0  0  3  0  0  0  0  0  0
  187.6030  176.5190  142.6610 C   0  0  0  0  0  0  0  0  0  0  0  0
  187.3020  178.1120  144.5900 C   0  0  1  0  0  3  0  0  0  0  0  0
  186.1210  176.4330  145.8890 O   0  0  0  0  0  1  0  0  0  0  0  0
  183.9450  178.5070  146.1420 O   0  0  0  0  0  1  0  0  0  0  0  0
  184.8270  178.8240  142.9250 C   0  0  0  0  0  2  0  0  0  0  0  0
  190.3440  174.0990  145.1370 C   0  0  2  0  0  3  0  0  0  0  0  0
  192.8860  175.1710  146.8500 C   0  0  0  0  0  2  0  0  0  0  0  0
  188.6850  177.6300  145.0290 C   0  0  0  0  0  2  0  0  0  0  0  0
  186.2420  178.6360  142.3840 C   0  0  0  0  0  2  0  0  0  0  0  0
  190.2200  175.6290  145.3030 C   0  0  1  0  0  3  0  0  0  0  0  0
  191.9340  172.4500  144.3010 C   0  0  0  0  0  2  0  0  0  0  0  0
  186.9950  177.7000  143.2190 N   0  0  0  0  0  0  0  0  0  0  0  0
  184.8670  179.3440  144.2260 O   0  0  0  0  0  0  0  0  0  0  0  0
  192.8950  174.4970  145.4810 C   0  0  2  0  0  3  0  0  0  0  0  0
  188.3020  175.5290  143.5770 C   0  0  2  0  0  3  0  0  0  0  0  0
  186.1610  177.7940  145.5790 C   0  0  2  0  0  3  0  0  0  0  0  0
  188.8100  176.1060  144.9240 C   0  0  2  0  0  3  0  0  0  0  0  0
  188.2000  175.1170  140.6650 C   0  0  0  0  0  2  0  0  0  0  0  0
  191.9950  176.4020  146.8670 C   0  0  0  0  0  2  0  0  0  0  0  0
  187.5040  176.2670  141.3450 C   0  0  0  0  0  3  0  0  0  0  0  0
  190.5300  176.0240  146.7400 C   0  0  0  0  0  2  0  0  0  0  0  0
  191.7330  173.4810  145.4050 C   0  0  1  0  0  3  0  0  0  0  0  0
  188.6260  174.0250  141.6430 C   0  0  0  0  0  2  0  0  0  0  0  0
  189.8790  173.5770  143.7670 C   0  0  1  0  0  3  0  0  0  0  0  0
  194.2500  173.8200  145.3040 C   0  0  0  0  0  2  0  0  0  0  0  0
  195.3620  174.7310  145.7950 C   0  0  0  0  0  2  0  0  0  0  0  0
  197.2560  172.1150  144.6950 C   0  0  0  0  0  3  0  0  0  0  0  0
  197.6070  174.2230  145.0990 O   0  0  0  0  0  0  0  0  0  0  0  0
  196.6170  173.9210  146.0660 C   0  0  2  0  0  3  0  0  0  0  0  0
  197.9410  173.1410  144.3310 N   0  0  0  0  0  0  0  0  0  0  0  0
  196.3320  172.4420  145.8210 C   0  0  0  0  0  2  0  0  0  0  0  0
  1 26  1  6  0  0  0
  1 18  1  0  0  0  0
  1 27  1  0  0  0  0
  2 27  1  0  0  0  0
  2 14  1  0  0  0  0
  3 19  1  0  0  0  0
  3  7  1  1  0  0  0
  4 15  1  0  0  0  0
  4 18  1  0  0  0  0
  5 11  1  1  0  0  0
  5 19  1  0  0  0  0
  8 16  1  0  0  0  0
  9 13  1  0  0  0  0
  9 25  1  0  0  0  0
 10 22  1  0  0  0  0
 12  8  1  0  0  0  0
 12 15  1  0  0  0  0
 13 24  1  0  0  0  0
 14 25  1  0  0  0  0
 15  5  1  0  0  0  0
 16  3  1  0  0  0  0
 17 10  1  0  0  0  0
 18 20  1  0  0  0  0
 19  6  1  0  0  0  0
 20 11  1  0  0  0  0
 20 13  1  0  0  0  0
 21 23  1  0  0  0  0
 21 26  1  0  0  0  0
 23  4  2  0  0  0  0
 24 22  1  0  0  0  0
 25 17  1  0  0  0  0
 27  9  1  0  0  0  0
 28 17  1  0  0  0  0
 28 29  1  0  0  0  0
 29 32  1  0  0  0  0
 30 34  1  0  0  0  0
 31 32  1  0  0  0  0
 33 30  2  0  0  0  0
 33 31  1  0  0  0  0
 34 32  1  0  0  0  0
M  END
>  <MODEL>
1

>  <REMARK>
 VINA RESULT:      -9.2      0.000      0.000
  Name = 
  3 active torsions:
  status: ('A' for Active; 'I' for Inactive)
    1  A    between atoms: C_17  and  C_28
    2  A    between atoms: C_28  and  C_29
    3  A    between atoms: C_29  and  C_32
                            x       y       z     vdW  Elec       q    Type
                         _______ _______ _______ _____ _____    ______ ____

>  <TORSDO>
F 3

$$$$
=
 OpenBabel11112417493D

 34 40  0  0  1  0  0  0  0  0999 V2000
  189.1110  174.8390  142.7400 C   0  0  2  0  0  3  0  0  0  0  0  0
  190.8570  173.0470  142.7640 C   0  0  0  0  0  2  0  0  0  0  0  0
  184.8180  178.2650  145.5900 C   0  0  1  0  0  3  0  0  0  0  0  0
  187.4120  176.7250  142.8450 C   0  0  0  0  0  0  0  0  0  0  0  0
  187.2900  178.1650  144.9090 C   0  0  1  0  0  3  0  0  0  0  0  0
  186.1880  176.4010  146.1650 O   0  0  0  0  0  1  0  0  0  0  0  0
  184.0730  178.4700  146.7510 O   0  0  0  0  0  1  0  0  0  0  0  0
  184.7030  179.0300  143.5080 C   0  0  0  0  0  2  0  0  0  0  0  0
  190.2990  174.0890  144.9000 C   0  0  2  0  0  3  0  0  0  0  0  0
  192.9860  174.9980  146.4810 C   0  0  0  0  0  2  0  0  0  0  0  0
  188.6950  177.6350  145.1970 C   0  0  0  0  0  2  0  0  0  0  0  0
  186.0680  178.8700  142.8430 C   0  0  0  0  0  2  0  0  0  0  0  0
  190.2130  175.6030  145.1920 C   0  0  1  0  0  3  0  0  0  0  0  0
  191.7910  172.4950  143.8140 C   0  0  0  0  0  2  0  0  0  0  0  0
  186.8690  177.8640  143.5400 N   0  0  0  0  0  0  0  0  0  0  0  0
  184.8540  179.4460  144.8380 O   0  0  0  0  0  0  0  0  0  0  0  0
  192.8750  174.4330  145.0680 C   0  0  2  0  0  3  0  0  0  0  0  0
  188.1640  175.6580  143.6230 C   0  0  2  0  0  3  0  0  0  0  0  0
  186.2250  177.7820  145.9590 C   0  0  2  0  0  3  0  0  0  0  0  0
  188.7870  176.1230  144.9650 C   0  0  2  0  0  3  0  0  0  0  0  0
  187.8260  175.4770  140.7050 C   0  0  0  0  0  2  0  0  0  0  0  0
  192.1190  176.2330  146.6650 C   0  0  0  0  0  2  0  0  0  0  0  0
  187.2050  176.5770  141.5260 C   0  0  0  0  0  3  0  0  0  0  0  0
  190.6430  175.8810  146.6260 C   0  0  0  0  0  2  0  0  0  0  0  0
  191.6950  173.4380  145.0070 C   0  0  1  0  0  3  0  0  0  0  0  0
  188.3090  174.3080  141.5580 C   0  0  0  0  0  2  0  0  0  0  0  0
  189.7190  173.6810  143.5350 C   0  0  1  0  0  3  0  0  0  0  0  0
  194.2010  173.7580  144.7310 C   0  0  0  0  0  2  0  0  0  0  0  0
  194.6910  174.2120  143.3660 C   0  0  0  0  0  2  0  0  0  0  0  0
  196.8880  176.8050  143.0720 C   0  0  0  0  0  3  0  0  0  0  0  0
  195.1000  176.1590  142.0160 O   0  0  0  0  0  0  0  0  0  0  0  0
  194.8110  175.7240  143.3330 C   0  0  2  0  0  3  0  0  0  0  0  0
  196.3150  176.7800  141.9210 N   0  0  0  0  0  0  0  0  0  0  0  0
  196.0460  176.1560  144.1200 C   0  0  0  0  0  2  0  0  0  0  0  0
  1 26  1  6  0  0  0
  1 27  1  0  0  0  0
  1 18  1  0  0  0  0
  2 27  1  0  0  0  0
  2 14  1  0  0  0  0
  3 19  1  0  0  0  0
  3  7  1  1  0  0  0
  4 15  1  0  0  0  0
  4 18  1  0  0  0  0
  5 11  1  1  0  0  0
  5 19  1  0  0  0  0
  8 16  1  0  0  0  0
  9 25  1  0  0  0  0
  9 13  1  0  0  0  0
 10 22  1  0  0  0  0
 12  8  1  0  0  0  0
 12 15  1  0  0  0  0
 13 24  1  0  0  0  0
 14 25  1  0  0  0  0
 15  5  1  0  0  0  0
 16  3  1  0  0  0  0
 17 10  1  0  0  0  0
 18 20  1  0  0  0  0
 19  6  1  0  0  0  0
 20 13  1  0  0  0  0
 20 11  1  0  0  0  0
 21 23  1  0  0  0  0
 21 26  1  0  0  0  0
 23  4  2  0  0  0  0
 24 22  1  0  0  0  0
 25 17  1  0  0  0  0
 27  9  1  0  0  0  0
 28 17  1  0  0  0  0
 29 28  1  0  0  0  0
 30 34  1  0  0  0  0
 31 32  1  0  0  0  0
 32 29  1  0  0  0  0
 32 34  1  0  0  0  0
 33 31  1  0  0  0  0
 33 30  2  0  0  0  0
M  END
>  <MODEL>
2

>  <REMARK>
 VINA RESULT:      -9.1      1.503      1.783
  Name = 
  3 active torsions:
  status: ('A' for Active; 'I' for Inactive)
    1  A    between atoms: C_17  and  C_28
    2  A    between atoms: C_28  and  C_29
    3  A    between atoms: C_29  and  C_32
                            x       y       z     vdW  Elec       q    Type
                         _______ _______ _______ _____ _____    ______ ____

>  <TORSDO>
F 3

$$$$
=
 OpenBabel11112417493D

 34 40  0  0  1  0  0  0  0  0999 V2000
  191.9180  176.1140  145.8990 C   0  0  2  0  0  3  0  0  0  0  0  0
  189.8840  177.3000  146.7430 C   0  0  0  0  0  2  0  0  0  0  0  0
  194.7220  171.0650  143.6780 C   0  0  1  0  0  3  0  0  0  0  0  0
  193.8980  174.8630  144.9130 C   0  0  0  0  0  0  0  0  0  0  0  0
  193.5160  173.2330  143.0290 C   0  0  1  0  0  3  0  0  0  0  0  0
  192.5650  171.5900  144.5450 O   0  0  0  0  0  1  0  0  0  0  0  0
  194.6200  169.7010  143.4020 O   0  0  0  0  0  1  0  0  0  0  0  0
  196.4020  172.5140  143.7730 C   0  0  0  0  0  2  0  0  0  0  0  0
  189.5280  175.3300  145.3460 C   0  0  2  0  0  3  0  0  0  0  0  0
  187.3900  175.9570  142.9840 C   0  0  0  0  0  2  0  0  0  0  0  0
  192.1930  173.9750  142.8360 C   0  0  0  0  0  2  0  0  0  0  0  0
  195.8510  173.9270  143.6020 C   0  0  0  0  0  2  0  0  0  0  0  0
  190.1930  175.0330  143.9850 C   0  0  1  0  0  3  0  0  0  0  0  0
  188.4010  177.1620  146.4960 C   0  0  0  0  0  2  0  0  0  0  0  0
  194.4230  173.9670  143.9150 N   0  0  0  0  0  0  0  0  0  0  0  0
  195.7480  171.6270  142.9080 O   0  0  0  0  0  0  0  0  0  0  0  0
  187.9910  176.9360  143.9890 C   0  0  2  0  0  3  0  0  0  0  0  0
  192.4220  174.8110  145.2690 C   0  0  2  0  0  3  0  0  0  0  0  0
  193.3740  171.7470  143.4180 C   0  0  2  0  0  3  0  0  0  0  0  0
  191.4900  174.2320  144.1740 C   0  0  2  0  0  3  0  0  0  0  0  0
  194.2410  176.7430  146.5430 C   0  0  0  0  0  2  0  0  0  0  0  0
  188.4650  175.2190  142.2030 C   0  0  0  0  0  2  0  0  0  0  0  0
  194.7200  175.7010  145.5660 C   0  0  0  0  0  3  0  0  0  0  0  0
  189.2320  174.2580  143.0940 C   0  0  0  0  0  2  0  0  0  0  0  0
  188.2530  176.2010  145.3230 C   0  0  1  0  0  3  0  0  0  0  0  0
  192.8360  176.4560  147.0670 C   0  0  0  0  0  2  0  0  0  0  0  0
  190.4770  175.9540  146.3840 C   0  0  1  0  0  3  0  0  0  0  0  0
  187.0060  178.0880  144.1630 C   0  0  0  0  0  2  0  0  0  0  0  0
  185.5840  177.5590  144.2370 C   0  0  0  0  0  2  0  0  0  0  0  0
  185.0740  178.3640  147.5130 C   0  0  0  0  0  3  0  0  0  0  0  0
  185.5550  179.4660  145.7010 O   0  0  0  0  0  0  0  0  0  0  0  0
  184.7590  178.4170  145.1790 C   0  0  2  0  0  3  0  0  0  0  0  0
  185.7050  179.3880  147.0590 N   0  0  0  0  0  0  0  0  0  0  0  0
  184.3940  177.6070  146.4200 C   0  0  0  0  0  2  0  0  0  0  0  0
  1 27  1  0  0  0  0
  1 26  1  1  0  0  0
  3  7  1  6  0  0  0
  4 18  1  0  0  0  0
  4 23  2  0  0  0  0
  5 11  1  1  0  0  0
  5 19  1  0  0  0  0
  5 15  1  0  0  0  0
  9 27  1  0  0  0  0
 10 17  1  0  0  0  0
 11 20  1  0  0  0  0
 12  8  1  0  0  0  0
 12 15  1  0  0  0  0
 13 20  1  0  0  0  0
 13  9  1  0  0  0  0
 14  2  1  0  0  0  0
 15  4  1  0  0  0  0
 16  3  1  0  0  0  0
 16  8  1  0  0  0  0
 17 28  1  0  0  0  0
 17 25  1  0  0  0  0
 18  1  1  0  0  0  0
 19  3  1  0  0  0  0
 19  6  1  0  0  0  0
 20 18  1  0  0  0  0
 21 26  1  0  0  0  0
 22 10  1  0  0  0  0
 22 24  1  0  0  0  0
 23 21  1  0  0  0  0
 24 13  1  0  0  0  0
 25  9  1  0  0  0  0
 25 14  1  0  0  0  0
 27  2  1  0  0  0  0
 28 29  1  0  0  0  0
 29 32  1  0  0  0  0
 31 33  1  0  0  0  0
 32 31  1  0  0  0  0
 32 34  1  0  0  0  0
 33 30  2  0  0  0  0
 34 30  1  0  0  0  0
M  END
>  <MODEL>
3

>  <REMARK>
 VINA RESULT:      -9.0      2.266      9.003
  Name = 
  3 active torsions:
  status: ('A' for Active; 'I' for Inactive)
    1  A    between atoms: C_17  and  C_28
    2  A    between atoms: C_28  and  C_29
    3  A    between atoms: C_29  and  C_32
                            x       y       z     vdW  Elec       q    Type
                         _______ _______ _______ _____ _____    ______ ____

>  <TORSDO>
F 3

$$$$
=
 OpenBabel11112417493D

 34 40  0  0  1  0  0  0  0  0999 V2000
  189.7680  174.1480  142.6790 C   0  0  2  0  0  3  0  0  0  0  0  0
  187.4800  175.1300  142.4380 C   0  0  0  0  0  2  0  0  0  0  0  0
  195.8450  174.7390  143.6860 C   0  0  1  0  0  3  0  0  0  0  0  0
  192.1070  173.2320  143.0630 C   0  0  0  0  0  0  0  0  0  0  0  0
  193.5800  174.2980  144.8080 C   0  0  1  0  0  3  0  0  0  0  0  0
  194.0020  176.2210  143.3840 O   0  0  0  0  0  1  0  0  0  0  0  0
  196.9220  175.6130  143.8380 O   0  0  0  0  0  1  0  0  0  0  0  0
  195.6470  172.5510  143.3660 C   0  0  0  0  0  2  0  0  0  0  0  0
  189.1320  176.4380  143.6700 C   0  0  2  0  0  3  0  0  0  0  0  0
  187.9180  177.4620  146.5030 C   0  0  0  0  0  2  0  0  0  0  0  0
  192.2760  174.8670  145.3670 C   0  0  0  0  0  2  0  0  0  0  0  0
  194.2530  172.1080  143.8000 C   0  0  0  0  0  2  0  0  0  0  0  0
  190.0430  175.9340  144.8100 C   0  0  1  0  0  3  0  0  0  0  0  0
  186.7900  176.3510  142.9960 C   0  0  0  0  0  2  0  0  0  0  0  0
  193.3320  173.2450  143.8210 N   0  0  0  0  0  0  0  0  0  0  0  0
  196.1580  173.5010  144.2610 O   0  0  0  0  0  0  0  0  0  0  0  0
  187.2750  176.5150  145.4950 C   0  0  2  0  0  3  0  0  0  0  0  0
  191.2220  174.4670  143.0440 C   0  0  2  0  0  3  0  0  0  0  0  0
  194.5880  175.3560  144.3100 C   0  0  2  0  0  3  0  0  0  0  0  0
  191.3800  175.4220  144.2550 C   0  0  2  0  0  3  0  0  0  0  0  0
  190.4690  172.0160  141.5990 C   0  0  0  0  0  2  0  0  0  0  0  0
  189.2880  176.9720  146.9440 C   0  0  0  0  0  2  0  0  0  0  0  0
  191.7770  172.1540  142.3310 C   0  0  0  0  0  3  0  0  0  0  0  0
  190.2940  177.0550  145.8100 C   0  0  0  0  0  2  0  0  0  0  0  0
  187.7170  176.9110  144.0680 C   0  0  1  0  0  3  0  0  0  0  0  0
  189.7740  173.3560  141.3770 C   0  0  0  0  0  2  0  0  0  0  0  0
  188.9600  175.4360  142.5160 C   0  0  1  0  0  3  0  0  0  0  0  0
  185.7620  176.6120  145.6650 C   0  0  0  0  0  2  0  0  0  0  0  0
  185.4100  177.7450  146.6140 C   0  0  0  0  0  2  0  0  0  0  0  0
  185.3880  179.8280  143.9120 C   0  0  0  0  0  3  0  0  0  0  0  0
  184.0800  178.2690  144.6810 O   0  0  0  0  0  0  0  0  0  0  0  0
  184.6040  178.8040  145.8840 C   0  0  2  0  0  3  0  0  0  0  0  0
  184.5670  178.9000  143.5680 N   0  0  0  0  0  0  0  0  0  0  0  0
  185.5370  179.9090  145.3960 C   0  0  0  0  0  2  0  0  0  0  0  0
  1 26  1  6  0  0  0
  1 18  1  0  0  0  0
  2 27  1  0  0  0  0
  2 14  1  0  0  0  0
  3  7  1  1  0  0  0
  3 16  1  0  0  0  0
  3 19  1  0  0  0  0
  4 15  1  0  0  0  0
  5 11  1  6  0  0  0
  6 19  1  0  0  0  0
  8 12  1  0  0  0  0
  8 16  1  0  0  0  0
  9 25  1  0  0  0  0
  9 13  1  0  0  0  0
 10 22  1  0  0  0  0
 12 15  1  0  0  0  0
 13 24  1  0  0  0  0
 14 25  1  0  0  0  0
 15  5  1  0  0  0  0
 17 28  1  0  0  0  0
 17 10  1  0  0  0  0
 18  4  1  0  0  0  0
 18 20  1  0  0  0  0
 19  5  1  0  0  0  0
 20 13  1  0  0  0  0
 20 11  1  0  0  0  0
 21 23  1  0  0  0  0
 23  4  2  0  0  0  0
 24 22  1  0  0  0  0
 25 17  1  0  0  0  0
 26 21  1  0  0  0  0
 27  1  1  0  0  0  0
 27  9  1  0  0  0  0
 28 29  1  0  0  0  0
 30 34  1  0  0  0  0
 31 32  1  0  0  0  0
 32 29  1  0  0  0  0
 33 30  2  0  0  0  0
 33 31  1  0  0  0  0
 34 32  1  0  0  0  0
M  END
>  <MODEL>
4

>  <REMARK>
 VINA RESULT:      -8.8      1.867      8.498
  Name = 
  3 active torsions:
  status: ('A' for Active; 'I' for Inactive)
    1  A    between atoms: C_17  and  C_28
    2  A    between atoms: C_28  and  C_29
    3  A    between atoms: C_29  and  C_32
                            x       y       z     vdW  Elec       q    Type
                         _______ _______ _______ _____ _____    ______ ____

>  <TORSDO>
F 3

$$$$
=
 OpenBabel11112417493D

 34 40  0  0  1  0  0  0  0  0999 V2000
  192.5770  176.2470  145.7130 C   0  0  2  0  0  3  0  0  0  0  0  0
  190.6610  176.3820  147.3160 C   0  0  0  0  0  2  0  0  0  0  0  0
  195.5410  173.5060  141.0230 C   0  0  1  0  0  3  0  0  0  0  0  0
  194.4140  176.0970  143.9640 C   0  0  0  0  0  0  0  0  0  0  0  0
  193.8430  175.3300  141.6330 C   0  0  1  0  0  3  0  0  0  0  0  0
  193.6310  173.0230  142.3640 O   0  0  0  0  0  1  0  0  0  0  0  0
  195.6110  172.4000  140.1760 O   0  0  0  0  0  1  0  0  0  0  0  0
  196.9030  175.1940  141.4980 C   0  0  0  0  0  2  0  0  0  0  0  0
  190.3020  175.1290  145.2520 C   0  0  2  0  0  3  0  0  0  0  0  0
  187.5410  176.0420  143.8080 C   0  0  0  0  0  2  0  0  0  0  0  0
  192.4060  175.6910  142.0120 C   0  0  0  0  0  2  0  0  0  0  0  0
  196.0860  176.3460  142.0790 C   0  0  0  0  0  2  0  0  0  0  0  0
  190.6270  175.6020  143.8180 C   0  0  1  0  0  3  0  0  0  0  0  0
  189.2140  175.9530  147.2720 C   0  0  0  0  0  2  0  0  0  0  0  0
  194.8070  175.8610  142.5980 N   0  0  0  0  0  0  0  0  0  0  0  0
  196.2110  174.5900  140.4400 O   0  0  0  0  0  0  0  0  0  0  0  0
  188.2030  176.6550  145.0380 C   0  0  2  0  0  3  0  0  0  0  0  0
  193.1180  175.5020  144.4870 C   0  0  2  0  0  3  0  0  0  0  0  0
  194.0740  173.8370  141.3200 C   0  0  2  0  0  3  0  0  0  0  0  0
  192.0470  175.1830  143.4120 C   0  0  2  0  0  3  0  0  0  0  0  0
  194.8380  177.1730  146.1930 C   0  0  0  0  0  2  0  0  0  0  0  0
  188.4840  176.0080  142.6160 C   0  0  0  0  0  2  0  0  0  0  0  0
  195.2190  176.7910  144.7880 C   0  0  0  0  0  3  0  0  0  0  0  0
  189.6160  175.0210  142.8370 C   0  0  0  0  0  2  0  0  0  0  0  0
  188.9340  175.5480  145.8300 C   0  0  1  0  0  3  0  0  0  0  0  0
  193.6950  176.3260  146.7450 C   0  0  0  0  0  2  0  0  0  0  0  0
  191.3650  175.5150  146.2940 C   0  0  1  0  0  3  0  0  0  0  0  0
  187.1120  177.3200  145.8710 C   0  0  0  0  0  2  0  0  0  0  0  0
  185.7460  176.7900  145.4690 C   0  0  0  0  0  2  0  0  0  0  0  0
  185.5600  179.8110  143.8950 C   0  0  0  0  0  3  0  0  0  0  0  0
  184.5040  177.9160  143.7460 O   0  0  0  0  0  0  0  0  0  0  0  0
  184.8210  177.9440  145.1270 C   0  0  2  0  0  3  0  0  0  0  0  0
  184.9550  179.0230  143.0790 N   0  0  0  0  0  0  0  0  0  0  0  0
  185.5720  179.2640  145.2840 C   0  0  0  0  0  2  0  0  0  0  0  0
  1 27  1  0  0  0  0
  1 26  1  1  0  0  0
  3  7  1  6  0  0  0
  3 19  1  0  0  0  0
  4 18  1  0  0  0  0
  4 23  2  0  0  0  0
  5 11  1  1  0  0  0
  5 15  1  0  0  0  0
  8 12  1  0  0  0  0
  9 25  1  0  0  0  0
  9 27  1  0  0  0  0
 10 17  1  0  0  0  0
 11 20  1  0  0  0  0
 12 15  1  0  0  0  0
 13  9  1  0  0  0  0
 14  2  1  0  0  0  0
 15  4  1  0  0  0  0
 16  3  1  0  0  0  0
 16  8  1  0  0  0  0
 17 25  1  0  0  0  0
 17 28  1  0  0  0  0
 18  1  1  0  0  0  0
 19  5  1  0  0  0  0
 19  6  1  0  0  0  0
 20 13  1  0  0  0  0
 20 18  1  0  0  0  0
 21 26  1  0  0  0  0
 22 24  1  0  0  0  0
 22 10  1  0  0  0  0
 23 21  1  0  0  0  0
 24 13  1  0  0  0  0
 25 14  1  0  0  0  0
 27  2  1  0  0  0  0
 29 28  1  0  0  0  0
 30 34  1  0  0  0  0
 31 32  1  0  0  0  0
 32 34  1  0  0  0  0
 32 29  1  0  0  0  0
 33 31  1  0  0  0  0
 33 30  2  0  0  0  0
M  END
>  <MODEL>
5

>  <REMARK>
 VINA RESULT:      -8.6      2.708      8.914
  Name = 
  3 active torsions:
  status: ('A' for Active; 'I' for Inactive)
    1  A    between atoms: C_17  and  C_28
    2  A    between atoms: C_28  and  C_29
    3  A    between atoms: C_29  and  C_32
                            x       y       z     vdW  Elec       q    Type
                         _______ _______ _______ _____ _____    ______ ____

>  <TORSDO>
F 3

$$$$
=
 OpenBabel11112417493D

 34 40  0  0  1  0  0  0  0  0999 V2000
  191.6220  176.1670  146.0570 C   0  0  2  0  0  3  0  0  0  0  0  0
  189.4810  177.2410  146.7790 C   0  0  0  0  0  2  0  0  0  0  0  0
  194.8000  171.3070  143.9190 C   0  0  1  0  0  3  0  0  0  0  0  0
  193.7220  175.0300  145.1880 C   0  0  0  0  0  0  0  0  0  0  0  0
  193.5500  173.4420  143.2390 C   0  0  1  0  0  3  0  0  0  0  0  0
  192.5640  171.7160  144.6360 O   0  0  0  0  0  1  0  0  0  0  0  0
  194.7780  169.9490  143.5990 O   0  0  0  0  0  1  0  0  0  0  0  0
  196.4030  172.8220  144.1760 C   0  0  0  0  0  2  0  0  0  0  0  0
  189.3150  175.3000  145.3080 C   0  0  2  0  0  3  0  0  0  0  0  0
  187.3300  175.9060  142.8110 C   0  0  0  0  0  2  0  0  0  0  0  0
  192.2130  174.1320  142.9680 C   0  0  0  0  0  2  0  0  0  0  0  0
  195.8050  174.2150  144.0010 C   0  0  0  0  0  2  0  0  0  0  0  0
  190.0910  175.0710  143.9920 C   0  0  1  0  0  3  0  0  0  0  0  0
  188.0280  177.0470  146.4190 C   0  0  0  0  0  2  0  0  0  0  0  0
  194.3570  174.1860  144.2080 N   0  0  0  0  0  0  0  0  0  0  0  0
  195.8540  171.9340  143.2410 O   0  0  0  0  0  0  0  0  0  0  0  0
  187.8120  176.8780  143.8830 C   0  0  2  0  0  3  0  0  0  0  0  0
  192.2270  174.9050  145.4320 C   0  0  2  0  0  3  0  0  0  0  0  0
  193.4460  171.9400  143.5770 C   0  0  2  0  0  3  0  0  0  0  0  0
  191.4040  174.3200  144.2560 C   0  0  2  0  0  3  0  0  0  0  0  0
  193.8610  176.8730  146.8880 C   0  0  0  0  0  2  0  0  0  0  0  0
  188.4900  175.2360  142.0930 C   0  0  0  0  0  2  0  0  0  0  0  0
  194.4560  175.8820  145.9220 C   0  0  0  0  0  3  0  0  0  0  0  0
  189.2320  174.2830  143.0120 C   0  0  0  0  0  2  0  0  0  0  0  0
  188.0090  176.1160  145.2130 C   0  0  1  0  0  3  0  0  0  0  0  0
  192.4360  176.5120  147.2980 C   0  0  0  0  0  2  0  0  0  0  0  0
  190.1570  175.9320  146.4290 C   0  0  1  0  0  3  0  0  0  0  0  0
  186.7680  177.9830  144.0140 C   0  0  0  0  0  2  0  0  0  0  0  0
  185.4310  177.5120  143.4650 C   0  0  0  0  0  2  0  0  0  0  0  0
  183.6150  178.1340  140.6450 C   0  0  0  0  0  3  0  0  0  0  0  0
  183.3890  178.5680  142.7640 O   0  0  0  0  0  0  0  0  0  0  0  0
  184.7980  178.6070  142.6260 C   0  0  2  0  0  3  0  0  0  0  0  0
  182.7520  178.2910  141.5850 N   0  0  0  0  0  0  0  0  0  0  0  0
  185.0110  178.3040  141.1460 C   0  0  0  0  0  2  0  0  0  0  0  0
  1 27  1  0  0  0  0
  1 26  1  1  0  0  0
  3  7  1  6  0  0  0
  4 18  1  0  0  0  0
  4 23  2  0  0  0  0
  5 11  1  1  0  0  0
  5 19  1  0  0  0  0
  5 15  1  0  0  0  0
  9 27  1  0  0  0  0
 10 17  1  0  0  0  0
 11 20  1  0  0  0  0
 12  8  1  0  0  0  0
 12 15  1  0  0  0  0
 13 20  1  0  0  0  0
 13  9  1  0  0  0  0
 14  2  1  0  0  0  0
 15  4  1  0  0  0  0
 16  3  1  0  0  0  0
 16  8  1  0  0  0  0
 17 28  1  0  0  0  0
 17 25  1  0  0  0  0
 18  1  1  0  0  0  0
 19  3  1  0  0  0  0
 19  6  1  0  0  0  0
 20 18  1  0  0  0  0
 21 26  1  0  0  0  0
 22 10  1  0  0  0  0
 22 24  1  0  0  0  0
 23 21  1  0  0  0  0
 24 13  1  0  0  0  0
 25  9  1  0  0  0  0
 25 14  1  0  0  0  0
 27  2  1  0  0  0  0
 29 28  1  0  0  0  0
 30 34  1  0  0  0  0
 30 33  2  0  0  0  0
 32 31  1  0  0  0  0
 32 29  1  0  0  0  0
 33 31  1  0  0  0  0
 34 32  1  0  0  0  0
M  END
>  <MODEL>
6

>  <REMARK>
 VINA RESULT:      -8.6      2.252      9.297
  Name = 
  3 active torsions:
  status: ('A' for Active; 'I' for Inactive)
    1  A    between atoms: C_17  and  C_28
    2  A    between atoms: C_28  and  C_29
    3  A    between atoms: C_29  and  C_32
                            x       y       z     vdW  Elec       q    Type
                         _______ _______ _______ _____ _____    ______ ____

>  <TORSDO>
F 3

$$$$
=
 OpenBabel11112417493D

 34 40  0  0  1  0  0  0  0  0999 V2000
  187.7450  176.1460  142.2320 C   0  0  2  0  0  3  0  0  0  0  0  0
  186.3140  177.1320  140.4320 C   0  0  0  0  0  2  0  0  0  0  0  0
  191.0350  176.6790  147.4450 C   0  0  1  0  0  3  0  0  0  0  0  0
  189.0990  175.2130  144.1690 C   0  0  0  0  0  0  0  0  0  0  0  0
  188.7210  176.1190  146.4900 C   0  0  1  0  0  3  0  0  0  0  0  0
  189.9120  178.1700  145.9640 O   0  0  0  0  0  1  0  0  0  0  0  0
  191.5810  177.5410  148.3970 O   0  0  0  0  0  1  0  0  0  0  0  0
  191.3020  174.5290  146.9560 C   0  0  0  0  0  2  0  0  0  0  0  0
  186.4160  178.3290  142.5570 C   0  0  2  0  0  3  0  0  0  0  0  0
  183.4360  179.0720  143.6110 C   0  0  0  0  0  2  0  0  0  0  0  0
  187.3910  176.6230  145.9300 C   0  0  0  0  0  2  0  0  0  0  0  0
  190.0790  174.0380  146.1860 C   0  0  0  0  0  2  0  0  0  0  0  0
  186.2240  177.7250  143.9650 C   0  0  1  0  0  3  0  0  0  0  0  0
  185.3490  178.2900  140.3650 C   0  0  0  0  0  2  0  0  0  0  0  0
  189.3610  175.1620  145.5850 N   0  0  0  0  0  0  0  0  0  0  0  0
  190.9140  175.3940  147.9890 O   0  0  0  0  0  0  0  0  0  0  0  0
  183.8180  178.2200  142.4040 C   0  0  2  0  0  3  0  0  0  0  0  0
  188.4280  176.4390  143.5730 C   0  0  2  0  0  3  0  0  0  0  0  0
  189.6850  177.2250  146.9670 C   0  0  2  0  0  3  0  0  0  0  0  0
  187.5690  177.2760  144.5550 C   0  0  2  0  0  3  0  0  0  0  0  0
  189.1710  174.1310  141.9040 C   0  0  0  0  0  2  0  0  0  0  0  0
  184.0670  178.5510  144.8920 C   0  0  0  0  0  2  0  0  0  0  0  0
  189.4980  174.2070  143.3720 C   0  0  0  0  0  3  0  0  0  0  0  0
  185.5720  178.7480  144.8860 C   0  0  0  0  0  2  0  0  0  0  0  0
  185.1380  178.7520  141.8020 C   0  0  1  0  0  3  0  0  0  0  0  0
  188.7690  175.4820  141.3190 C   0  0  0  0  0  2  0  0  0  0  0  0
  187.2270  177.4390  141.6000 C   0  0  1  0  0  3  0  0  0  0  0  0
  182.6710  178.2910  141.4020 C   0  0  0  0  0  2  0  0  0  0  0  0
  181.4490  178.9260  142.0440 C   0  0  0  0  0  2  0  0  0  0  0  0
  178.1350  179.4130  141.3960 C   0  0  0  0  0  3  0  0  0  0  0  0
  179.8620  178.7640  140.2450 O   0  0  0  0  0  0  0  0  0  0  0  0
  180.1860  178.2610  141.5290 C   0  0  2  0  0  3  0  0  0  0  0  0
  178.6630  179.4230  140.2230 N   0  0  0  0  0  0  0  0  0  0  0  0
  178.9960  178.6950  142.3820 C   0  0  0  0  0  2  0  0  0  0  0  0
  1 26  1  6  0  0  0
  1 18  1  0  0  0  0
  2 27  1  0  0  0  0
  3 16  1  0  0  0  0
  3  7  1  1  0  0  0
  4 15  1  0  0  0  0
  5 11  1  6  0  0  0
  5 19  1  0  0  0  0
  6 19  1  0  0  0  0
  8 16  1  0  0  0  0
  9 13  1  0  0  0  0
 10 22  1  0  0  0  0
 12  8  1  0  0  0  0
 13 20  1  0  0  0  0
 13 24  1  0  0  0  0
 14  2  1  0  0  0  0
 14 25  1  0  0  0  0
 15 12  1  0  0  0  0
 15  5  1  0  0  0  0
 17 10  1  0  0  0  0
 18  4  1  0  0  0  0
 18 20  1  0  0  0  0
 19  3  1  0  0  0  0
 20 11  1  0  0  0  0
 21 23  1  0  0  0  0
 23  4  2  0  0  0  0
 24 22  1  0  0  0  0
 25 17  1  0  0  0  0
 25  9  1  0  0  0  0
 26 21  1  0  0  0  0
 27  1  1  0  0  0  0
 27  9  1  0  0  0  0
 28 29  1  0  0  0  0
 28 17  1  0  0  0  0
 30 34  1  0  0  0  0
 31 32  1  0  0  0  0
 32 29  1  0  0  0  0
 32 34  1  0  0  0  0
 33 31  1  0  0  0  0
 33 30  2  0  0  0  0
M  END
>  <MODEL>
7

>  <REMARK>
 VINA RESULT:      -8.6      3.492      9.873
  Name = 
  3 active torsions:
  status: ('A' for Active; 'I' for Inactive)
    1  A    between atoms: C_17  and  C_28
    2  A    between atoms: C_28  and  C_29
    3  A    between atoms: C_29  and  C_32
                            x       y       z     vdW  Elec       q    Type
                         _______ _______ _______ _____ _____    ______ ____

>  <TORSDO>
F 3

$$$$
=
 OpenBabel11112417493D

 34 40  0  0  1  0  0  0  0  0999 V2000
  190.1680  176.4790  145.8690 C   0  0  2  0  0  3  0  0  0  0  0  0
  192.4940  175.9190  146.5990 C   0  0  0  0  0  2  0  0  0  0  0  0
  186.0670  177.9430  141.4720 C   0  0  1  0  0  3  0  0  0  0  0  0
  187.8180  176.9330  145.0140 C   0  0  0  0  0  0  0  0  0  0  0  0
  187.1150  176.0010  142.7810 C   0  0  1  0  0  3  0  0  0  0  0  0
  188.4310  177.6590  141.5910 O   0  0  0  0  0  1  0  0  0  0  0  0
  185.8660  178.3020  140.1390 O   0  0  0  0  0  1  0  0  0  0  0  0
  184.8000  177.9460  143.2960 C   0  0  0  0  0  2  0  0  0  0  0  0
  191.9420  175.5500  144.2500 C   0  0  2  0  0  3  0  0  0  0  0  0
  192.8590  172.5840  143.2980 C   0  0  0  0  0  2  0  0  0  0  0  0
  188.2920  175.0430  142.9620 C   0  0  0  0  0  2  0  0  0  0  0  0
  185.3860  176.9690  144.3110 C   0  0  0  0  0  2  0  0  0  0  0  0
  190.7080  174.8030  143.6990 C   0  0  1  0  0  3  0  0  0  0  0  0
  193.6800  175.2620  145.9360 C   0  0  0  0  0  2  0  0  0  0  0  0
  186.7970  176.7080  144.0240 N   0  0  0  0  0  0  0  0  0  0  0  0
  184.8840  177.4140  142.0020 O   0  0  0  0  0  0  0  0  0  0  0  0
  192.8970  173.1700  144.7060 C   0  0  2  0  0  3  0  0  0  0  0  0
  189.2790  176.7330  144.6470 C   0  0  2  0  0  3  0  0  0  0  0  0
  187.2300  176.9480  141.5690 C   0  0  2  0  0  3  0  0  0  0  0  0
  189.5440  175.7750  143.4570 C   0  0  2  0  0  3  0  0  0  0  0  0
  188.4750  177.5300  147.3640 C   0  0  0  0  0  2  0  0  0  0  0  0
  191.4670  172.6560  142.6930 C   0  0  0  0  0  2  0  0  0  0  0  0
  187.4850  177.3730  146.2400 C   0  0  0  0  0  3  0  0  0  0  0  0
  191.0660  174.0910  142.4010 C   0  0  0  0  0  2  0  0  0  0  0  0
  193.1690  174.6880  144.6200 C   0  0  1  0  0  3  0  0  0  0  0  0
  189.9180  177.5990  146.8720 C   0  0  0  0  0  2  0  0  0  0  0  0
  191.6420  176.4450  145.4640 C   0  0  1  0  0  3  0  0  0  0  0  0
  193.9890  172.4430  145.4840 C   0  0  0  0  0  2  0  0  0  0  0  0
  194.8850  171.6670  144.5340 C   0  0  0  0  0  2  0  0  0  0  0  0
  197.1730  174.1660  144.9250 C   0  0  0  0  0  3  0  0  0  0  0  0
  196.4680  172.5050  146.1380 O   0  0  0  0  0  0  0  0  0  0  0  0
  196.3420  171.9630  144.8340 C   0  0  2  0  0  3  0  0  0  0  0  0
  196.9550  173.7840  146.1330 N   0  0  0  0  0  0  0  0  0  0  0  0
  196.8270  173.1000  143.9380 C   0  0  0  0  0  2  0  0  0  0  0  0
  1 26  1  1  0  0  0
  3  7  1  6  0  0  0
  3 19  1  0  0  0  0
  3 16  1  0  0  0  0
  4 23  2  0  0  0  0
  5 11  1  1  0  0  0
  5 15  1  0  0  0  0
  8 12  1  0  0  0  0
  9 25  1  0  0  0  0
  9 27  1  0  0  0  0
 10 17  1  0  0  0  0
 11 20  1  0  0  0  0
 13  9  1  0  0  0  0
 14  2  1  0  0  0  0
 15 12  1  0  0  0  0
 15  4  1  0  0  0  0
 16  8  1  0  0  0  0
 17 28  1  0  0  0  0
 18  4  1  0  0  0  0
 18  1  1  0  0  0  0
 19  6  1  0  0  0  0
 19  5  1  0  0  0  0
 20 13  1  0  0  0  0
 20 18  1  0  0  0  0
 22 10  1  0  0  0  0
 23 21  1  0  0  0  0
 24 22  1  0  0  0  0
 24 13  1  0  0  0  0
 25 17  1  0  0  0  0
 25 14  1  0  0  0  0
 26 21  1  0  0  0  0
 27  1  1  0  0  0  0
 27  2  1  0  0  0  0
 29 32  1  0  0  0  0
 29 28  1  0  0  0  0
 30 33  2  0  0  0  0
 32 31  1  0  0  0  0
 33 31  1  0  0  0  0
 34 32  1  0  0  0  0
 34 30  1  0  0  0  0
M  END
>  <MODEL>
8

>  <REMARK>
 VINA RESULT:      -8.5      1.803      3.660
  Name = 
  3 active torsions:
  status: ('A' for Active; 'I' for Inactive)
    1  A    between atoms: C_17  and  C_28
    2  A    between atoms: C_28  and  C_29
    3  A    between atoms: C_29  and  C_32
                            x       y       z     vdW  Elec       q    Type
                         _______ _______ _______ _____ _____    ______ ____

>  <TORSDO>
F 3

$$$$
=
 OpenBabel11112417493D

 34 40  0  0  1  0  0  0  0  0999 V2000
  190.9180  173.2690  143.1600 C   0  0  2  0  0  3  0  0  0  0  0  0
  188.5650  173.5830  142.3690 C   0  0  0  0  0  2  0  0  0  0  0  0
  196.7780  175.1940  143.6460 C   0  0  1  0  0  3  0  0  0  0  0  0
  193.3000  173.0990  144.0270 C   0  0  0  0  0  0  0  0  0  0  0  0
  194.4860  175.1840  144.7980 C   0  0  1  0  0  3  0  0  0  0  0  0
  194.8170  175.9320  142.5100 O   0  0  0  0  0  1  0  0  0  0  0  0
  197.7340  176.1310  143.2520 O   0  0  0  0  0  1  0  0  0  0  0  0
  196.8530  173.2380  144.6940 C   0  0  0  0  0  2  0  0  0  0  0  0
  189.9470  175.5840  142.5850 C   0  0  2  0  0  3  0  0  0  0  0  0
  188.3810  177.8980  144.2400 C   0  0  0  0  0  2  0  0  0  0  0  0
  193.0830  175.7820  144.9010 C   0  0  0  0  0  2  0  0  0  0  0  0
  195.4830  172.9450  145.3000 C   0  0  0  0  0  2  0  0  0  0  0  0
  190.8030  175.9860  143.8050 C   0  0  1  0  0  3  0  0  0  0  0  0
  187.6980  174.7850  142.0840 C   0  0  0  0  0  2  0  0  0  0  0  0
  194.4440  173.7300  144.6340 N   0  0  0  0  0  0  0  0  0  0  0  0
  197.1750  174.5930  144.8480 O   0  0  0  0  0  0  0  0  0  0  0  0
  187.9380  176.4590  143.9930 C   0  0  2  0  0  3  0  0  0  0  0  0
  192.2890  173.9440  143.2700 C   0  0  2  0  0  3  0  0  0  0  0  0
  195.4100  175.8740  143.7730 C   0  0  2  0  0  3  0  0  0  0  0  0
  192.2320  175.4400  143.6720 C   0  0  2  0  0  3  0  0  0  0  0  0
  191.9430  171.0360  143.5690 C   0  0  0  0  0  2  0  0  0  0  0  0
  189.7520  177.9620  144.8940 C   0  0  0  0  0  2  0  0  0  0  0  0
  193.1580  171.7640  144.0810 C   0  0  0  0  0  3  0  0  0  0  0  0
  190.8400  177.5020  143.9400 C   0  0  0  0  0  2  0  0  0  0  0  0
  188.4580  175.9940  142.6150 C   0  0  1  0  0  3  0  0  0  0  0  0
  191.1260  171.8720  142.5870 C   0  0  0  0  0  2  0  0  0  0  0  0
  189.9900  174.0830  142.2560 C   0  0  1  0  0  3  0  0  0  0  0  0
  186.4150  176.4220  144.0640 C   0  0  0  0  0  2  0  0  0  0  0  0
  185.8530  177.8340  144.0680 C   0  0  0  0  0  2  0  0  0  0  0  0
  185.8520  177.5640  147.4690 C   0  0  0  0  0  3  0  0  0  0  0  0
  185.5300  179.1710  146.0400 O   0  0  0  0  0  0  0  0  0  0  0  0
  185.0250  178.0600  145.3200 C   0  0  2  0  0  3  0  0  0  0  0  0
  185.9960  178.8280  147.2800 N   0  0  0  0  0  0  0  0  0  0  0  0
  185.2320  176.8970  146.2860 C   0  0  0  0  0  2  0  0  0  0  0  0
  1 26  1  6  0  0  0
  1 18  1  0  0  0  0
  3  7  1  1  0  0  0
  3 19  1  0  0  0  0
  3 16  1  0  0  0  0
  4 23  2  0  0  0  0
  4 15  1  0  0  0  0
  5 11  1  6  0  0  0
  6 19  1  0  0  0  0
  8 16  1  0  0  0  0
  8 12  1  0  0  0  0
  9 25  1  0  0  0  0
  9 13  1  0  0  0  0
 10 22  1  0  0  0  0
 13 24  1  0  0  0  0
 14  2  1  0  0  0  0
 14 25  1  0  0  0  0
 15  5  1  0  0  0  0
 15 12  1  0  0  0  0
 17 28  1  0  0  0  0
 17 10  1  0  0  0  0
 18 20  1  0  0  0  0
 18  4  1  0  0  0  0
 19  5  1  0  0  0  0
 20 13  1  0  0  0  0
 20 11  1  0  0  0  0
 21 23  1  0  0  0  0
 24 22  1  0  0  0  0
 25 17  1  0  0  0  0
 26 21  1  0  0  0  0
 27  2  1  0  0  0  0
 27  9  1  0  0  0  0
 27  1  1  0  0  0  0
 28 29  1  0  0  0  0
 29 32  1  0  0  0  0
 31 33  1  0  0  0  0
 32 31  1  0  0  0  0
 32 34  1  0  0  0  0
 33 30  2  0  0  0  0
 34 30  1  0  0  0  0
M  END
>  <MODEL>
9

>  <REMARK>
 VINA RESULT:      -8.5      1.902      8.610
  Name = 
  3 active torsions:
  status: ('A' for Active; 'I' for Inactive)
    1  A    between atoms: C_17  and  C_28
    2  A    between atoms: C_28  and  C_29
    3  A    between atoms: C_29  and  C_32
                            x       y       z     vdW  Elec       q    Type
                         _______ _______ _______ _____ _____    ______ ____

>  <TORSDO>
F 3

$$$$
