=
 OpenBabel11112417543D

 34 41  0  0  1  0  0  0  0  0999 V2000
  189.3160  175.7240  142.9060 C   0  0  0  0  0  0  0  0  0  0  0  0
  191.4120  174.8390  142.0520 C   0  0  0  0  0  3  0  0  0  0  0  0
  185.9090  179.1810  147.1350 C   0  0  2  0  0  3  0  0  0  0  0  0
  187.3090  176.6420  143.9810 C   0  0  0  0  0  0  0  0  0  0  0  0
  187.4480  177.5350  146.1920 C   0  0  0  0  0  0  0  0  0  0  0  0
  187.5370  178.8570  148.4650 C   0  0  0  0  0  2  0  0  0  0  0  0
  186.4380  179.9120  148.3490 C   0  0  0  0  0  2  0  0  0  0  0  0
  184.3820  177.4830  146.1440 C   0  0  0  0  0  2  0  0  0  0  0  0
  191.3990  175.6970  144.0720 C   0  0  0  0  0  0  0  0  0  0  0  0
  193.8970  175.9830  145.9380 C   0  0  0  0  0  2  0  0  0  0  0  0
  188.8040  177.2050  146.2550 C   0  0  0  0  0  3  0  0  0  0  0  0
  185.2780  177.6550  144.8990 C   0  0  0  0  0  2  0  0  0  0  0  0
  190.8270  176.2910  145.2210 C   0  0  0  0  0  0  0  0  0  0  0  0
  192.7000  174.6970  142.5440 C   0  0  0  0  0  3  0  0  0  0  0  0
  186.6980  177.2320  145.0640 N   0  0  0  0  0  0  0  0  0  0  0  0
  184.4770  178.6820  147.1130 C   0  0  0  0  0  2  0  0  0  0  0  0
  193.8290  175.2120  144.7040 N   0  0  0  0  0  0  0  0  0  0  0  0
  188.6880  176.3240  144.0190 C   0  0  0  0  0  0  0  0  0  0  0  0
  186.7890  178.0110  147.4510 C   0  0  1  0  0  3  0  0  0  0  0  0
  189.4490  176.6110  145.1710 C   0  0  0  0  0  0  0  0  0  0  0  0
  187.2100  175.7430  141.7100 C   0  0  0  0  0  3  0  0  0  0  0  0
  192.6960  175.7030  146.8090 C   0  0  0  0  0  2  0  0  0  0  0  0
  186.5870  176.3390  142.8090 C   0  0  0  0  0  3  0  0  0  0  0  0
  191.6240  176.6980  146.4320 C   0  0  0  0  0  2  0  0  0  0  0  0
  192.6930  175.2470  143.8180 C   0  0  0  0  0  0  0  0  0  0  0  0
  188.5690  175.4350  141.7570 C   0  0  0  0  0  3  0  0  0  0  0  0
  190.6430  175.4360  142.9860 N   0  0  0  0  0  0  0  0  0  0  0  0
  194.8730  174.3930  144.4110 O   0  0  0  0  0  0  0  0  0  0  0  0
  196.0120  175.0420  144.9040 C   0  0  0  0  0  2  0  0  0  0  0  0
  195.8500  175.3080  141.6710 O   0  0  0  0  0  0  0  0  0  0  0  0
  196.7420  176.7700  143.2950 C   0  0  0  0  0  2  0  0  0  0  0  0
  196.9620  175.3600  143.7620 C   0  0  2  0  0  3  0  0  0  0  0  0
  196.3220  176.6150  141.8530 C   0  0  0  0  0  2  0  0  0  0  0  0
  196.5990  174.5210  142.5580 C   0  0  0  0  0  2  0  0  0  0  0  0
  1 27  1  0  0  0  0
  1 18  1  0  0  0  0
  2 14  2  0  0  0  0
  2 27  1  0  0  0  0
  3 16  1  1  0  0  0
  3 19  1  0  0  0  0
  3  7  1  0  0  0  0
  4 18  2  0  0  0  0
  4 15  1  0  0  0  0
  5 11  2  0  0  0  0
  5 19  1  0  0  0  0
  7  6  1  0  0  0  0
  8 16  1  0  0  0  0
  9 13  1  0  0  0  0
 10 22  1  0  0  0  0
 12 15  1  0  0  0  0
 12  8  1  0  0  0  0
 13 24  1  0  0  0  0
 14 25  1  0  0  0  0
 15  5  1  0  0  0  0
 17 10  1  0  0  0  0
 18 20  1  0  0  0  0
 19  6  1  1  0  0  0
 20 13  2  0  0  0  0
 20 11  1  0  0  0  0
 21 26  1  0  0  0  0
 21 23  2  0  0  0  0
 23  4  1  0  0  0  0
 24 22  1  0  0  0  0
 25  9  2  0  0  0  0
 25 17  1  0  0  0  0
 26  1  2  0  0  0  0
 27  9  1  0  0  0  0
 28 17  1  0  0  0  0
 28 29  1  0  0  0  0
 30 33  1  0  0  0  0
 30 34  1  0  0  0  0
 31 32  1  0  0  0  0
 32 29  1  1  0  0  0
 33 31  1  0  0  0  0
 34 32  1  0  0  0  0
M  END
>  <MODEL>
1

>  <REMARK>
 VINA RESULT:      -8.9      0.000      0.000
  Name = 
  3 active torsions:
  status: ('A' for Active; 'I' for Inactive)
    1  A    between atoms: N_17  and  O_28
    2  A    between atoms: O_28  and  C_29
    3  A    between atoms: C_29  and  C_32
                            x       y       z     vdW  Elec       q    Type
                         _______ _______ _______ _____ _____    ______ ____

>  <TORSDO>
F 3

$$$$
=
 OpenBabel11112417543D

 34 41  0  0  1  0  0  0  0  0999 V2000
  189.7320  174.1560  143.6700 C   0  0  0  0  0  0  0  0  0  0  0  0
  189.1690  175.8030  145.3660 C   0  0  0  0  0  3  0  0  0  0  0  0
  190.1560  172.2200  137.5450 C   0  0  2  0  0  3  0  0  0  0  0  0
  190.1480  172.6070  141.8130 C   0  0  0  0  0  0  0  0  0  0  0  0
  189.2570  173.0810  139.6470 C   0  0  0  0  0  0  0  0  0  0  0  0
  188.6370  173.6580  137.1560 C   0  0  0  0  0  2  0  0  0  0  0  0
  189.7240  172.9890  136.3160 C   0  0  0  0  0  2  0  0  0  0  0  0
  190.0070  170.1850  138.9710 C   0  0  0  0  0  2  0  0  0  0  0  0
  188.4190  176.1200  143.3280 C   0  0  0  0  0  0  0  0  0  0  0  0
  186.7540  178.5930  142.3710 C   0  0  0  0  0  2  0  0  0  0  0  0
  188.6500  174.2400  140.1360 C   0  0  0  0  0  3  0  0  0  0  0  0
  190.7420  171.0650  140.0050 C   0  0  0  0  0  2  0  0  0  0  0  0
  188.2050  175.8060  141.9650 C   0  0  0  0  0  0  0  0  0  0  0  0
  188.4230  176.9710  145.4020 C   0  0  0  0  0  3  0  0  0  0  0  0
  189.9850  172.2540  140.4920 N   0  0  0  0  0  0  0  0  0  0  0  0
  190.1740  170.7040  137.5260 C   0  0  0  0  0  2  0  0  0  0  0  0
  187.0590  178.2430  143.7520 N   0  0  0  0  0  0  0  0  0  0  0  0
  189.5610  173.7910  142.3170 C   0  0  0  0  0  0  0  0  0  0  0  0
  188.9090  172.6470  138.2560 C   0  0  1  0  0  3  0  0  0  0  0  0
  188.8020  174.6230  141.4680 C   0  0  0  0  0  0  0  0  0  0  0  0
  191.0640  172.1660  144.0350 C   0  0  0  0  0  3  0  0  0  0  0  0
  186.2700  177.3830  141.6080 C   0  0  0  0  0  2  0  0  0  0  0  0
  190.8990  171.8050  142.6960 C   0  0  0  0  0  3  0  0  0  0  0  0
  187.4830  176.7140  141.0060 C   0  0  0  0  0  2  0  0  0  0  0  0
  187.9560  177.1750  144.1110 C   0  0  0  0  0  0  0  0  0  0  0  0
  190.4830  173.3360  144.5230 C   0  0  0  0  0  3  0  0  0  0  0  0
  189.1500  175.3030  144.1130 N   0  0  0  0  0  0  0  0  0  0  0  0
  186.4240  178.9350  144.7340 O   0  0  0  0  0  0  0  0  0  0  0  0
  185.0960  178.4920  144.7110 C   0  0  0  0  0  2  0  0  0  0  0  0
  185.8930  176.7890  147.3590 O   0  0  0  0  0  0  0  0  0  0  0  0
  185.4530  179.0910  147.0810 C   0  0  0  0  0  2  0  0  0  0  0  0
  184.5780  178.3290  146.1290 C   0  0  2  0  0  3  0  0  0  0  0  0
  186.0010  178.0290  148.0040 C   0  0  0  0  0  2  0  0  0  0  0  0
  184.7430  176.8900  146.5620 C   0  0  0  0  0  2  0  0  0  0  0  0
  1 27  1  0  0  0  0
  1 26  1  0  0  0  0
  2 14  2  0  0  0  0
  3  7  1  6  0  0  0
  3 19  1  0  0  0  0
  4 18  1  0  0  0  0
  4 23  2  0  0  0  0
  5 11  2  0  0  0  0
  5 15  1  0  0  0  0
  7  6  1  0  0  0  0
  8 12  1  0  0  0  0
  9 25  2  0  0  0  0
  9 27  1  0  0  0  0
 10 17  1  0  0  0  0
 11 20  1  0  0  0  0
 12 15  1  0  0  0  0
 13  9  1  0  0  0  0
 15  4  1  0  0  0  0
 16  3  1  0  0  0  0
 16  8  1  0  0  0  0
 17 25  1  0  0  0  0
 17 28  1  0  0  0  0
 18  1  2  0  0  0  0
 19  6  1  6  0  0  0
 19  5  1  0  0  0  0
 20 13  2  0  0  0  0
 20 18  1  0  0  0  0
 21 26  2  0  0  0  0
 22 10  1  0  0  0  0
 23 21  1  0  0  0  0
 24 22  1  0  0  0  0
 24 13  1  0  0  0  0
 25 14  1  0  0  0  0
 27  2  1  0  0  0  0
 29 28  1  0  0  0  0
 30 33  1  0  0  0  0
 31 33  1  0  0  0  0
 32 29  1  6  0  0  0
 32 34  1  0  0  0  0
 32 31  1  0  0  0  0
 34 30  1  0  0  0  0
M  END
>  <MODEL>
2

>  <REMARK>
 VINA RESULT:      -8.5      4.019      8.919
  Name = 
  3 active torsions:
  status: ('A' for Active; 'I' for Inactive)
    1  A    between atoms: N_17  and  O_28
    2  A    between atoms: O_28  and  C_29
    3  A    between atoms: C_29  and  C_32
                            x       y       z     vdW  Elec       q    Type
                         _______ _______ _______ _____ _____    ______ ____

>  <TORSDO>
F 3

$$$$
=
 OpenBabel11112417543D

 34 41  0  0  1  0  0  0  0  0999 V2000
  189.4220  175.7200  142.9790 C   0  0  0  0  0  0  0  0  0  0  0  0
  191.5420  174.8370  142.1870 C   0  0  0  0  0  3  0  0  0  0  0  0
  185.8890  179.1800  147.1020 C   0  0  2  0  0  3  0  0  0  0  0  0
  187.3830  176.6360  143.9950 C   0  0  0  0  0  0  0  0  0  0  0  0
  187.4580  177.5340  146.2070 C   0  0  0  0  0  0  0  0  0  0  0  0
  187.4800  178.8620  148.4790 C   0  0  0  0  0  2  0  0  0  0  0  0
  186.3830  179.9140  148.3290 C   0  0  0  0  0  2  0  0  0  0  0  0
  184.3940  177.4770  146.0720 C   0  0  0  0  0  2  0  0  0  0  0  0
  191.4710  175.7000  144.2040 C   0  0  0  0  0  0  0  0  0  0  0  0
  193.9140  175.9950  146.1390 C   0  0  0  0  0  2  0  0  0  0  0  0
  188.8120  177.2070  146.3090 C   0  0  0  0  0  3  0  0  0  0  0  0
  185.3250  177.6480  144.8520 C   0  0  0  0  0  2  0  0  0  0  0  0
  190.8650  176.2950  145.3350 C   0  0  0  0  0  0  0  0  0  0  0  0
  192.8160  174.7000  142.7150 C   0  0  0  0  0  3  0  0  0  0  0  0
  186.7410  177.2270  145.0590 N   0  0  0  0  0  0  0  0  0  0  0  0
  184.4600  178.6780  147.0410 C   0  0  0  0  0  2  0  0  0  0  0  0
  193.8830  175.2220  144.9050 N   0  0  0  0  0  0  0  0  0  0  0  0
  188.7610  176.3220  144.0720 C   0  0  0  0  0  0  0  0  0  0  0  0
  186.7630  178.0120  147.4450 C   0  0  1  0  0  3  0  0  0  0  0  0
  189.4880  176.6120  145.2450 C   0  0  0  0  0  0  0  0  0  0  0  0
  187.3500  175.7320  141.7240 C   0  0  0  0  0  3  0  0  0  0  0  0
  192.6900  175.7150  146.9760 C   0  0  0  0  0  2  0  0  0  0  0  0
  186.6950  176.3290  142.8040 C   0  0  0  0  0  3  0  0  0  0  0  0
  191.6270  176.7060  146.5670 C   0  0  0  0  0  2  0  0  0  0  0  0
  192.7720  175.2520  143.9880 C   0  0  0  0  0  0  0  0  0  0  0  0
  188.7080  175.4260  141.8100 C   0  0  0  0  0  3  0  0  0  0  0  0
  190.7470  175.4350  143.0970 N   0  0  0  0  0  0  0  0  0  0  0  0
  194.9360  174.4040  144.6440 O   0  0  0  0  0  0  0  0  0  0  0  0
  194.8310  173.3480  145.5590 C   0  0  0  0  0  2  0  0  0  0  0  0
  196.7030  170.8240  146.3760 O   0  0  0  0  0  0  0  0  0  0  0  0
  194.5260  170.8970  145.4680 C   0  0  0  0  0  2  0  0  0  0  0  0
  195.3030  172.0560  144.9160 C   0  0  2  0  0  3  0  0  0  0  0  0
  195.5760  170.0310  146.1200 C   0  0  0  0  0  2  0  0  0  0  0  0
  196.7250  171.7730  145.3440 C   0  0  0  0  0  2  0  0  0  0  0  0
  1 27  1  0  0  0  0
  1 18  1  0  0  0  0
  2 14  2  0  0  0  0
  2 27  1  0  0  0  0
  3 16  1  1  0  0  0
  3 19  1  0  0  0  0
  3  7  1  0  0  0  0
  4 18  2  0  0  0  0
  4 15  1  0  0  0  0
  5 11  2  0  0  0  0
  5 19  1  0  0  0  0
  7  6  1  0  0  0  0
  8 16  1  0  0  0  0
  9 13  1  0  0  0  0
 10 22  1  0  0  0  0
 12 15  1  0  0  0  0
 12  8  1  0  0  0  0
 13 24  1  0  0  0  0
 14 25  1  0  0  0  0
 15  5  1  0  0  0  0
 17 10  1  0  0  0  0
 18 20  1  0  0  0  0
 19  6  1  1  0  0  0
 20 13  2  0  0  0  0
 20 11  1  0  0  0  0
 21 26  1  0  0  0  0
 21 23  2  0  0  0  0
 23  4  1  0  0  0  0
 24 22  1  0  0  0  0
 25  9  2  0  0  0  0
 25 17  1  0  0  0  0
 26  1  2  0  0  0  0
 27  9  1  0  0  0  0
 28 17  1  0  0  0  0
 28 29  1  0  0  0  0
 31 33  1  0  0  0  0
 32 34  1  0  0  0  0
 32 31  1  0  0  0  0
 32 29  1  1  0  0  0
 33 30  1  0  0  0  0
 34 30  1  0  0  0  0
M  END
>  <MODEL>
3

>  <REMARK>
 VINA RESULT:      -8.5      1.649      2.331
  Name = 
  3 active torsions:
  status: ('A' for Active; 'I' for Inactive)
    1  A    between atoms: N_17  and  O_28
    2  A    between atoms: O_28  and  C_29
    3  A    between atoms: C_29  and  C_32
                            x       y       z     vdW  Elec       q    Type
                         _______ _______ _______ _____ _____    ______ ____

>  <TORSDO>
F 3

$$$$
=
 OpenBabel11112417543D

 34 41  0  0  1  0  0  0  0  0999 V2000
  192.0170  176.3990  145.6730 C   0  0  0  0  0  0  0  0  0  0  0  0
  189.9490  177.0550  146.7670 C   0  0  0  0  0  3  0  0  0  0  0  0
  195.4820  175.0220  140.4250 C   0  0  2  0  0  3  0  0  0  0  0  0
  193.9710  175.6630  144.3830 C   0  0  0  0  0  0  0  0  0  0  0  0
  193.7080  174.9950  142.1050 C   0  0  0  0  0  0  0  0  0  0  0  0
  193.6150  174.5730  139.5090 C   0  0  0  0  0  2  0  0  0  0  0  0
  194.9920  174.9890  138.9940 C   0  0  0  0  0  2  0  0  0  0  0  0
  196.5520  173.8760  142.3590 C   0  0  0  0  0  2  0  0  0  0  0  0
  189.8520  176.4250  144.6670 C   0  0  0  0  0  0  0  0  0  0  0  0
  187.2680  176.3950  142.8990 C   0  0  0  0  0  2  0  0  0  0  0  0
  192.3310  175.2150  142.1840 C   0  0  0  0  0  3  0  0  0  0  0  0
  196.0070  175.0810  143.1540 C   0  0  0  0  0  2  0  0  0  0  0  0
  190.3550  175.9350  143.4400 C   0  0  0  0  0  0  0  0  0  0  0  0
  188.6130  177.1240  146.4010 C   0  0  0  0  0  3  0  0  0  0  0  0
  194.5220  175.1970  143.2110 N   0  0  0  0  0  0  0  0  0  0  0  0
  196.6600  174.1650  140.8450 C   0  0  0  0  0  2  0  0  0  0  0  0
  187.3200  176.5790  144.3430 N   0  0  0  0  0  0  0  0  0  0  0  0
  192.5810  175.9160  144.4730 C   0  0  0  0  0  0  0  0  0  0  0  0
  194.2340  174.3240  140.8730 C   0  0  1  0  0  3  0  0  0  0  0  0
  191.7480  175.6920  143.3580 C   0  0  0  0  0  0  0  0  0  0  0  0
  194.2060  176.3770  146.7080 C   0  0  0  0  0  3  0  0  0  0  0  0
  188.1330  175.2310  142.4780 C   0  0  0  0  0  2  0  0  0  0  0  0
  194.7670  175.9020  145.5210 C   0  0  0  0  0  3  0  0  0  0  0  0
  189.5150  175.7730  142.2010 C   0  0  0  0  0  2  0  0  0  0  0  0
  188.5540  176.7320  145.0710 C   0  0  0  0  0  0  0  0  0  0  0  0
  192.8360  176.6240  146.7870 C   0  0  0  0  0  3  0  0  0  0  0  0
  190.6760  176.6290  145.7150 N   0  0  0  0  0  0  0  0  0  0  0  0
  186.1460  176.5590  145.0260 O   0  0  0  0  0  0  0  0  0  0  0  0
  185.3190  177.4900  144.3850 C   0  0  0  0  0  2  0  0  0  0  0  0
  185.4110  177.9110  147.6040 O   0  0  0  0  0  0  0  0  0  0  0  0
  185.5430  179.4750  145.8400 C   0  0  0  0  0  2  0  0  0  0  0  0
  184.6270  178.3650  145.4150 C   0  0  2  0  0  3  0  0  0  0  0  0
  185.7290  179.2470  147.3210 C   0  0  0  0  0  2  0  0  0  0  0  0
  184.4090  177.5710  146.6830 C   0  0  0  0  0  2  0  0  0  0  0  0
  1 27  1  0  0  0  0
  1 26  1  0  0  0  0
  3  7  1  6  0  0  0
  3 16  1  0  0  0  0
  3 19  1  0  0  0  0
  4 18  1  0  0  0  0
  4 23  2  0  0  0  0
  5 11  2  0  0  0  0
  5 15  1  0  0  0  0
  7  6  1  0  0  0  0
  8 12  1  0  0  0  0
  9 25  2  0  0  0  0
  9 27  1  0  0  0  0
 10 17  1  0  0  0  0
 11 20  1  0  0  0  0
 12 15  1  0  0  0  0
 13  9  1  0  0  0  0
 14  2  2  0  0  0  0
 15  4  1  0  0  0  0
 16  8  1  0  0  0  0
 17 28  1  0  0  0  0
 17 25  1  0  0  0  0
 18  1  2  0  0  0  0
 19  6  1  6  0  0  0
 19  5  1  0  0  0  0
 20 13  2  0  0  0  0
 20 18  1  0  0  0  0
 21 26  2  0  0  0  0
 22 10  1  0  0  0  0
 23 21  1  0  0  0  0
 24 22  1  0  0  0  0
 24 13  1  0  0  0  0
 25 14  1  0  0  0  0
 27  2  1  0  0  0  0
 29 28  1  0  0  0  0
 31 33  1  0  0  0  0
 32 29  1  6  0  0  0
 32 31  1  0  0  0  0
 32 34  1  0  0  0  0
 33 30  1  0  0  0  0
 34 30  1  0  0  0  0
M  END
>  <MODEL>
4

>  <REMARK>
 VINA RESULT:      -8.3      2.780      9.047
  Name = 
  3 active torsions:
  status: ('A' for Active; 'I' for Inactive)
    1  A    between atoms: N_17  and  O_28
    2  A    between atoms: O_28  and  C_29
    3  A    between atoms: C_29  and  C_32
                            x       y       z     vdW  Elec       q    Type
                         _______ _______ _______ _____ _____    ______ ____

>  <TORSDO>
F 3

$$$$
=
 OpenBabel11112417543D

 34 41  0  0  1  0  0  0  0  0999 V2000
  191.2420  174.8610  144.8100 C   0  0  0  0  0  0  0  0  0  0  0  0
  190.3240  176.8630  145.8340 C   0  0  0  0  0  3  0  0  0  0  0  0
  191.8390  170.7550  139.8870 C   0  0  2  0  0  3  0  0  0  0  0  0
  191.9820  172.8410  143.6270 C   0  0  0  0  0  0  0  0  0  0  0  0
  190.8570  172.1510  141.6350 C   0  0  0  0  0  0  0  0  0  0  0  0
  189.9410  171.4850  139.2600 C   0  0  0  0  0  2  0  0  0  0  0  0
  191.1230  170.8210  138.5550 C   0  0  0  0  0  2  0  0  0  0  0  0
  192.3880  169.5150  141.9740 C   0  0  0  0  0  2  0  0  0  0  0  0
  189.3890  176.1230  143.9920 C   0  0  0  0  0  0  0  0  0  0  0  0
  187.0100  177.4940  142.4860 C   0  0  0  0  0  2  0  0  0  0  0  0
  189.9660  173.2210  141.7510 C   0  0  0  0  0  3  0  0  0  0  0  0
  192.8920  170.8930  142.4550 C   0  0  0  0  0  2  0  0  0  0  0  0
  189.1930  175.2370  142.9070 C   0  0  0  0  0  0  0  0  0  0  0  0
  189.2700  177.7210  145.5600 C   0  0  0  0  0  3  0  0  0  0  0  0
  191.8490  171.9500  142.5850 N   0  0  0  0  0  0  0  0  0  0  0  0
  192.3020  169.4200  140.4350 C   0  0  0  0  0  2  0  0  0  0  0  0
  187.4900  177.8270  143.8200 N   0  0  0  0  0  0  0  0  0  0  0  0
  191.1030  173.9440  143.7450 C   0  0  0  0  0  0  0  0  0  0  0  0
  190.5670  171.1150  140.5930 C   0  0  1  0  0  3  0  0  0  0  0  0
  190.0810  174.1400  142.7930 C   0  0  0  0  0  0  0  0  0  0  0  0
  193.1240  173.5900  145.6530 C   0  0  0  0  0  3  0  0  0  0  0  0
  186.8590  176.0000  142.3300 C   0  0  0  0  0  2  0  0  0  0  0  0
  192.9890  172.6840  144.5990 C   0  0  0  0  0  3  0  0  0  0  0  0
  188.1760  175.4640  141.8200 C   0  0  0  0  0  2  0  0  0  0  0  0
  188.6840  177.2570  144.3900 C   0  0  0  0  0  0  0  0  0  0  0  0
  192.2540  174.6740  145.7610 C   0  0  0  0  0  3  0  0  0  0  0  0
  190.3760  175.9070  144.8850 N   0  0  0  0  0  0  0  0  0  0  0  0
  186.7420  178.6810  144.5660 O   0  0  0  0  0  0  0  0  0  0  0  0
  185.4290  178.1980  144.4920 C   0  0  0  0  0  2  0  0  0  0  0  0
  186.3200  176.7990  147.2840 O   0  0  0  0  0  0  0  0  0  0  0  0
  185.5380  178.9800  146.8330 C   0  0  0  0  0  2  0  0  0  0  0  0
  184.8570  178.0330  145.8890 C   0  0  2  0  0  3  0  0  0  0  0  0
  186.1900  178.0740  147.8510 C   0  0  0  0  0  2  0  0  0  0  0  0
  185.2210  176.6670  146.4230 C   0  0  0  0  0  2  0  0  0  0  0  0
  1 27  1  0  0  0  0
  1 26  1  0  0  0  0
  3  7  1  6  0  0  0
  3 16  1  0  0  0  0
  3 19  1  0  0  0  0
  4 18  1  0  0  0  0
  4 23  2  0  0  0  0
  5 11  2  0  0  0  0
  5 15  1  0  0  0  0
  7  6  1  0  0  0  0
  8 12  1  0  0  0  0
  9 25  2  0  0  0  0
  9 27  1  0  0  0  0
 10 17  1  0  0  0  0
 11 20  1  0  0  0  0
 12 15  1  0  0  0  0
 13  9  1  0  0  0  0
 14  2  2  0  0  0  0
 15  4  1  0  0  0  0
 16  8  1  0  0  0  0
 17 25  1  0  0  0  0
 17 28  1  0  0  0  0
 18  1  2  0  0  0  0
 19  6  1  6  0  0  0
 19  5  1  0  0  0  0
 20 13  2  0  0  0  0
 20 18  1  0  0  0  0
 21 26  2  0  0  0  0
 22 10  1  0  0  0  0
 23 21  1  0  0  0  0
 24 22  1  0  0  0  0
 24 13  1  0  0  0  0
 25 14  1  0  0  0  0
 27  2  1  0  0  0  0
 29 28  1  0  0  0  0
 30 33  1  0  0  0  0
 31 33  1  0  0  0  0
 32 29  1  6  0  0  0
 32 34  1  0  0  0  0
 32 31  1  0  0  0  0
 34 30  1  0  0  0  0
M  END
>  <MODEL>
5

>  <REMARK>
 VINA RESULT:      -8.1      3.447      8.807
  Name = 
  3 active torsions:
  status: ('A' for Active; 'I' for Inactive)
    1  A    between atoms: N_17  and  O_28
    2  A    between atoms: O_28  and  C_29
    3  A    between atoms: C_29  and  C_32
                            x       y       z     vdW  Elec       q    Type
                         _______ _______ _______ _____ _____    ______ ____

>  <TORSDO>
F 3

$$$$
=
 OpenBabel11112417543D

 34 41  0  0  1  0  0  0  0  0999 V2000
  188.7530  176.2600  146.4900 C   0  0  0  0  0  0  0  0  0  0  0  0
  190.7840  175.5340  147.6080 C   0  0  0  0  0  3  0  0  0  0  0  0
  185.3230  177.5260  141.1910 C   0  0  2  0  0  3  0  0  0  0  0  0
  186.8380  177.0440  145.1700 C   0  0  0  0  0  0  0  0  0  0  0  0
  187.1160  177.5400  142.8500 C   0  0  0  0  0  0  0  0  0  0  0  0
  187.2050  177.7820  140.2310 C   0  0  0  0  0  2  0  0  0  0  0  0
  185.7950  177.4300  139.7570 C   0  0  0  0  0  2  0  0  0  0  0  0
  184.3600  178.8700  143.0520 C   0  0  0  0  0  2  0  0  0  0  0  0
  190.8970  176.0160  145.4700 C   0  0  0  0  0  0  0  0  0  0  0  0
  193.4540  175.7480  143.6820 C   0  0  0  0  0  2  0  0  0  0  0  0
  188.4760  177.2300  142.9330 C   0  0  0  0  0  3  0  0  0  0  0  0
  184.8310  177.6850  143.9220 C   0  0  0  0  0  2  0  0  0  0  0  0
  190.4130  176.4570  144.2170 C   0  0  0  0  0  0  0  0  0  0  0  0
  192.1060  175.3480  147.2370 C   0  0  0  0  0  3  0  0  0  0  0  0
  186.3050  177.4690  143.9740 N   0  0  0  0  0  0  0  0  0  0  0  0
  184.2130  178.4900  141.5620 C   0  0  0  0  0  2  0  0  0  0  0  0
  193.4080  175.6630  145.1360 N   0  0  0  0  0  0  0  0  0  0  0  0
  188.2070  176.7010  145.2650 C   0  0  0  0  0  0  0  0  0  0  0  0
  186.6220  178.1630  141.5810 C   0  0  1  0  0  3  0  0  0  0  0  0
  189.0400  176.7920  144.1310 C   0  0  0  0  0  0  0  0  0  0  0  0
  186.5830  176.5040  147.5400 C   0  0  0  0  0  3  0  0  0  0  0  0
  192.6660  176.9380  143.1920 C   0  0  0  0  0  2  0  0  0  0  0  0
  186.0420  176.9380  146.3280 C   0  0  0  0  0  3  0  0  0  0  0  0
  191.2460  176.4780  142.9630 C   0  0  0  0  0  2  0  0  0  0  0  0
  192.1760  175.6460  145.8820 C   0  0  0  0  0  0  0  0  0  0  0  0
  187.9340  176.1670  147.6230 C   0  0  0  0  0  3  0  0  0  0  0  0
  190.0740  175.9400  146.5360 N   0  0  0  0  0  0  0  0  0  0  0  0
  194.5890  175.6460  145.8060 O   0  0  0  0  0  0  0  0  0  0  0  0
  195.4290  174.7990  145.0710 C   0  0  0  0  0  2  0  0  0  0  0  0
  196.2520  171.7840  144.1870 O   0  0  0  0  0  0  0  0  0  0  0  0
  196.8660  173.0580  146.0760 C   0  0  0  0  0  2  0  0  0  0  0  0
  195.4580  173.4200  145.7060 C   0  0  2  0  0  3  0  0  0  0  0  0
  197.1520  171.8210  145.2600 C   0  0  0  0  0  2  0  0  0  0  0  0
  195.0800  172.3840  144.6720 C   0  0  0  0  0  2  0  0  0  0  0  0
  1 27  1  0  0  0  0
  1 26  1  0  0  0  0
  3  7  1  6  0  0  0
  3 16  1  0  0  0  0
  3 19  1  0  0  0  0
  4 18  1  0  0  0  0
  4 23  2  0  0  0  0
  5 11  2  0  0  0  0
  5 15  1  0  0  0  0
  7  6  1  0  0  0  0
  8 12  1  0  0  0  0
  9 25  2  0  0  0  0
  9 27  1  0  0  0  0
 10 17  1  0  0  0  0
 11 20  1  0  0  0  0
 12 15  1  0  0  0  0
 13  9  1  0  0  0  0
 14  2  2  0  0  0  0
 15  4  1  0  0  0  0
 16  8  1  0  0  0  0
 17 28  1  0  0  0  0
 17 25  1  0  0  0  0
 18  1  2  0  0  0  0
 19  6  1  6  0  0  0
 19  5  1  0  0  0  0
 20 13  2  0  0  0  0
 20 18  1  0  0  0  0
 21 26  2  0  0  0  0
 22 10  1  0  0  0  0
 23 21  1  0  0  0  0
 24 22  1  0  0  0  0
 24 13  1  0  0  0  0
 25 14  1  0  0  0  0
 27  2  1  0  0  0  0
 29 28  1  0  0  0  0
 30 34  1  0  0  0  0
 30 33  1  0  0  0  0
 32 29  1  6  0  0  0
 32 31  1  0  0  0  0
 33 31  1  0  0  0  0
 34 32  1  0  0  0  0
M  END
>  <MODEL>
6

>  <REMARK>
 VINA RESULT:      -8.1      2.047      4.205
  Name = 
  3 active torsions:
  status: ('A' for Active; 'I' for Inactive)
    1  A    between atoms: N_17  and  O_28
    2  A    between atoms: O_28  and  C_29
    3  A    between atoms: C_29  and  C_32
                            x       y       z     vdW  Elec       q    Type
                         _______ _______ _______ _____ _____    ______ ____

>  <TORSDO>
F 3

$$$$
=
 OpenBabel11112417543D

 34 41  0  0  1  0  0  0  0  0999 V2000
  189.8110  174.6920  142.1000 C   0  0  0  0  0  0  0  0  0  0  0  0
  187.4370  175.1630  142.3120 C   0  0  0  0  0  3  0  0  0  0  0  0
  195.7170  174.0260  144.5740 C   0  0  2  0  0  3  0  0  0  0  0  0
  192.2400  174.3400  142.0890 C   0  0  0  0  0  0  0  0  0  0  0  0
  193.5410  174.9710  143.9910 C   0  0  0  0  0  0  0  0  0  0  0  0
  195.0280  175.2930  146.1380 C   0  0  0  0  0  2  0  0  0  0  0  0
  196.1310  174.2420  146.0130 C   0  0  0  0  0  2  0  0  0  0  0  0
  195.9680  174.5750  142.1580 C   0  0  0  0  0  2  0  0  0  0  0  0
  188.7480  175.6870  143.9920 C   0  0  0  0  0  0  0  0  0  0  0  0
  187.8060  176.9060  146.7180 C   0  0  0  0  0  2  0  0  0  0  0  0
  192.3960  175.4500  144.6320 C   0  0  0  0  0  3  0  0  0  0  0  0
  194.6310  173.8150  142.0230 C   0  0  0  0  0  2  0  0  0  0  0  0
  189.9770  175.8260  144.6780 C   0  0  0  0  0  0  0  0  0  0  0  0
  186.6240  175.7390  143.2760 C   0  0  0  0  0  3  0  0  0  0  0  0
  193.4640  174.4380  142.7120 N   0  0  0  0  0  0  0  0  0  0  0  0
  196.7250  174.2170  143.4570 C   0  0  0  0  0  2  0  0  0  0  0  0
  187.0010  176.7700  145.5120 N   0  0  0  0  0  0  0  0  0  0  0  0
  191.0670  174.7970  142.7360 C   0  0  0  0  0  0  0  0  0  0  0  0
  194.8660  175.2570  144.6290 C   0  0  1  0  0  3  0  0  0  0  0  0
  191.1440  175.3590  144.0270 C   0  0  0  0  0  0  0  0  0  0  0  0
  190.8750  173.6840  140.1710 C   0  0  0  0  0  3  0  0  0  0  0  0
  189.1610  177.4870  146.3920 C   0  0  0  0  0  2  0  0  0  0  0  0
  192.1180  173.7850  140.8000 C   0  0  0  0  0  3  0  0  0  0  0  0
  190.0870  176.3320  146.0920 C   0  0  0  0  0  2  0  0  0  0  0  0
  187.4530  176.0630  144.3410 C   0  0  0  0  0  0  0  0  0  0  0  0
  189.7250  174.1370  140.8170 C   0  0  0  0  0  3  0  0  0  0  0  0
  188.7090  175.1440  142.7580 N   0  0  0  0  0  0  0  0  0  0  0  0
  185.7880  177.3830  145.4890 O   0  0  0  0  0  0  0  0  0  0  0  0
  186.0590  178.7570  145.5180 C   0  0  0  0  0  2  0  0  0  0  0  0
  185.3740  178.3930  142.3630 O   0  0  0  0  0  0  0  0  0  0  0  0
  183.9550  178.7120  144.2220 C   0  0  0  0  0  2  0  0  0  0  0  0
  185.2260  179.4720  144.4680 C   0  0  2  0  0  3  0  0  0  0  0  0
  184.0320  178.3340  142.7620 C   0  0  0  0  0  2  0  0  0  0  0  0
  185.9410  179.4170  143.1370 C   0  0  0  0  0  2  0  0  0  0  0  0
  1 18  1  0  0  0  0
  1 27  1  0  0  0  0
  2 27  1  0  0  0  0
  2 14  2  0  0  0  0
  3 16  1  6  0  0  0
  3 19  1  0  0  0  0
  3  7  1  0  0  0  0
  4 15  1  0  0  0  0
  4 18  2  0  0  0  0
  5 19  1  0  0  0  0
  5 11  2  0  0  0  0
  7  6  1  0  0  0  0
  8 16  1  0  0  0  0
  9 25  2  0  0  0  0
  9 13  1  0  0  0  0
 12  8  1  0  0  0  0
 12 15  1  0  0  0  0
 13 24  1  0  0  0  0
 14 25  1  0  0  0  0
 15  5  1  0  0  0  0
 17 10  1  0  0  0  0
 18 20  1  0  0  0  0
 19  6  1  1  0  0  0
 20 11  1  0  0  0  0
 20 13  2  0  0  0  0
 21 23  2  0  0  0  0
 21 26  1  0  0  0  0
 22 10  1  0  0  0  0
 23  4  1  0  0  0  0
 24 22  1  0  0  0  0
 25 17  1  0  0  0  0
 26  1  2  0  0  0  0
 27  9  1  0  0  0  0
 28 17  1  0  0  0  0
 28 29  1  0  0  0  0
 30 33  1  0  0  0  0
 30 34  1  0  0  0  0
 31 32  1  0  0  0  0
 32 29  1  1  0  0  0
 33 31  1  0  0  0  0
 34 32  1  0  0  0  0
M  END
>  <MODEL>
7

>  <REMARK>
 VINA RESULT:      -8.0      2.920      8.141
  Name = 
  3 active torsions:
  status: ('A' for Active; 'I' for Inactive)
    1  A    between atoms: N_17  and  O_28
    2  A    between atoms: O_28  and  C_29
    3  A    between atoms: C_29  and  C_32
                            x       y       z     vdW  Elec       q    Type
                         _______ _______ _______ _____ _____    ______ ____

>  <TORSDO>
F 3

$$$$
=
 OpenBabel11112417543D

 34 41  0  0  1  0  0  0  0  0999 V2000
  190.7090  172.9970  143.7210 C   0  0  0  0  0  0  0  0  0  0  0  0
  190.5630  174.1540  145.8530 C   0  0  0  0  0  3  0  0  0  0  0  0
  189.8500  172.6930  137.3480 C   0  0  2  0  0  3  0  0  0  0  0  0
  190.6840  171.9750  141.4900 C   0  0  0  0  0  0  0  0  0  0  0  0
  189.4150  172.9840  139.7340 C   0  0  0  0  0  0  0  0  0  0  0  0
  188.3540  174.1770  137.6430 C   0  0  0  0  0  2  0  0  0  0  0  0
  189.2250  173.7480  136.4630 C   0  0  0  0  0  2  0  0  0  0  0  0
  189.8820  170.3600  138.2180 C   0  0  0  0  0  2  0  0  0  0  0  0
  189.4500  174.9790  144.1510 C   0  0  0  0  0  0  0  0  0  0  0  0
  187.7510  177.6090  144.1970 C   0  0  0  0  0  2  0  0  0  0  0  0
  188.9700  173.9780  140.6090 C   0  0  0  0  0  3  0  0  0  0  0  0
  190.8430  170.9490  139.2720 C   0  0  0  0  0  2  0  0  0  0  0  0
  188.9620  175.0230  142.8240 C   0  0  0  0  0  0  0  0  0  0  0  0
  189.8950  175.2710  146.3290 C   0  0  0  0  0  3  0  0  0  0  0  0
  190.2530  171.9720  140.1820 N   0  0  0  0  0  0  0  0  0  0  0  0
  189.7910  171.2320  136.9460 C   0  0  0  0  0  2  0  0  0  0  0  0
  188.2990  176.9190  145.3560 N   0  0  0  0  0  0  0  0  0  0  0  0
  190.2620  172.9900  142.3820 C   0  0  0  0  0  0  0  0  0  0  0  0
  188.7850  172.9200  138.3770 C   0  0  1  0  0  3  0  0  0  0  0  0
  189.3950  174.0080  141.9370 C   0  0  0  0  0  0  0  0  0  0  0  0
  191.9900  170.9840  143.3010 C   0  0  0  0  0  3  0  0  0  0  0  0
  187.0720  176.6330  143.2660 C   0  0  0  0  0  2  0  0  0  0  0  0
  191.5520  170.9780  141.9760 C   0  0  0  0  0  3  0  0  0  0  0  0
  188.1120  176.1440  142.2870 C   0  0  0  0  0  2  0  0  0  0  0  0
  189.1970  175.7970  145.2500 C   0  0  0  0  0  0  0  0  0  0  0  0
  191.5700  171.9890  144.1730 C   0  0  0  0  0  3  0  0  0  0  0  0
  190.2790  173.9910  144.5450 N   0  0  0  0  0  0  0  0  0  0  0  0
  187.9010  177.3340  146.5870 O   0  0  0  0  0  0  0  0  0  0  0  0
  186.7820  176.5540  146.9050 C   0  0  0  0  0  2  0  0  0  0  0  0
  185.6110  179.4800  146.1210 O   0  0  0  0  0  0  0  0  0  0  0  0
  184.5320  177.3910  146.3190 C   0  0  0  0  0  2  0  0  0  0  0  0
  185.6320  177.4470  147.3370 C   0  0  2  0  0  3  0  0  0  0  0  0
  184.4130  178.8140  145.8300 C   0  0  0  0  0  2  0  0  0  0  0  0
  186.0790  178.8910  147.3050 C   0  0  0  0  0  2  0  0  0  0  0  0
  1 26  1  0  0  0  0
  1 27  1  0  0  0  0
  2 14  2  0  0  0  0
  3  7  1  6  0  0  0
  3 19  1  0  0  0  0
  4 23  2  0  0  0  0
  4 18  1  0  0  0  0
  5 15  1  0  0  0  0
  5 11  2  0  0  0  0
  7  6  1  0  0  0  0
  8 12  1  0  0  0  0
  9 27  1  0  0  0  0
  9 25  2  0  0  0  0
 10 17  1  0  0  0  0
 11 20  1  0  0  0  0
 12 15  1  0  0  0  0
 13  9  1  0  0  0  0
 15  4  1  0  0  0  0
 16  3  1  0  0  0  0
 16  8  1  0  0  0  0
 17 28  1  0  0  0  0
 18  1  2  0  0  0  0
 19  6  1  6  0  0  0
 19  5  1  0  0  0  0
 20 18  1  0  0  0  0
 20 13  2  0  0  0  0
 21 26  2  0  0  0  0
 22 10  1  0  0  0  0
 23 21  1  0  0  0  0
 24 13  1  0  0  0  0
 24 22  1  0  0  0  0
 25 17  1  0  0  0  0
 25 14  1  0  0  0  0
 27  2  1  0  0  0  0
 28 29  1  0  0  0  0
 30 34  1  0  0  0  0
 31 32  1  0  0  0  0
 32 29  1  6  0  0  0
 33 30  1  0  0  0  0
 33 31  1  0  0  0  0
 34 32  1  0  0  0  0
M  END
>  <MODEL>
8

>  <REMARK>
 VINA RESULT:      -8.0      3.838      8.668
  Name = 
  3 active torsions:
  status: ('A' for Active; 'I' for Inactive)
    1  A    between atoms: N_17  and  O_28
    2  A    between atoms: O_28  and  C_29
    3  A    between atoms: C_29  and  C_32
                            x       y       z     vdW  Elec       q    Type
                         _______ _______ _______ _____ _____    ______ ____

>  <TORSDO>
F 3

$$$$
=
 OpenBabel11112417543D

 34 41  0  0  1  0  0  0  0  0999 V2000
  189.4160  174.4030  144.7300 C   0  0  0  0  0  0  0  0  0  0  0  0
  190.9060  172.5680  144.1660 C   0  0  0  0  0  3  0  0  0  0  0  0
  184.4410  178.2830  143.4500 C   0  0  2  0  0  3  0  0  0  0  0  0
  187.8650  176.2750  145.0640 C   0  0  0  0  0  0  0  0  0  0  0  0
  186.5520  177.0730  143.2340 C   0  0  0  0  0  0  0  0  0  0  0  0
  184.8080  177.8110  141.4080 C   0  0  0  0  0  2  0  0  0  0  0  0
  183.5910  178.2910  142.1980 C   0  0  0  0  0  2  0  0  0  0  0  0
  185.9410  179.4780  145.0370 C   0  0  0  0  0  2  0  0  0  0  0  0
  189.6360  173.3930  142.5780 C   0  0  0  0  0  0  0  0  0  0  0  0
  189.4940  172.3350  139.6340 C   0  0  0  0  0  2  0  0  0  0  0  0
  187.1490  176.1400  142.3820 C   0  0  0  0  0  3  0  0  0  0  0  0
  186.2520  178.0540  145.5460 C   0  0  0  0  0  2  0  0  0  0  0  0
  188.6900  174.2750  142.0060 C   0  0  0  0  0  0  0  0  0  0  0  0
  191.2120  171.8590  143.0150 C   0  0  0  0  0  3  0  0  0  0  0  0
  186.9280  177.1540  144.5680 N   0  0  0  0  0  0  0  0  0  0  0  0
  184.6070  179.5520  144.2630 C   0  0  0  0  0  2  0  0  0  0  0  0
  190.4870  171.9660  140.6340 N   0  0  0  0  0  0  0  0  0  0  0  0
  188.4590  175.3070  144.2200 C   0  0  0  0  0  0  0  0  0  0  0  0
  185.6750  178.1180  142.6160 C   0  0  1  0  0  3  0  0  0  0  0  0
  188.0960  175.2360  142.8600 C   0  0  0  0  0  0  0  0  0  0  0  0
  189.2040  175.4170  146.9190 C   0  0  0  0  0  3  0  0  0  0  0  0
  189.3020  173.8320  139.6000 C   0  0  0  0  0  2  0  0  0  0  0  0
  188.2560  176.3110  146.4170 C   0  0  0  0  0  3  0  0  0  0  0  0
  188.2070  174.1700  140.5840 C   0  0  0  0  0  2  0  0  0  0  0  0
  190.4030  172.3770  142.0120 C   0  0  0  0  0  0  0  0  0  0  0  0
  189.7840  174.4660  146.0800 C   0  0  0  0  0  3  0  0  0  0  0  0
  189.9620  173.4880  143.8830 N   0  0  0  0  0  0  0  0  0  0  0  0
  191.5590  171.2390  140.2230 O   0  0  0  0  0  0  0  0  0  0  0  0
  191.0590  169.9650  139.9230 C   0  0  0  0  0  2  0  0  0  0  0  0
  190.2510  170.3090  136.7960 O   0  0  0  0  0  0  0  0  0  0  0  0
  192.3120  170.6320  137.9000 C   0  0  0  0  0  2  0  0  0  0  0  0
  191.5900  169.5040  138.5770 C   0  0  2  0  0  3  0  0  0  0  0  0
  191.5320  170.8530  136.6270 C   0  0  0  0  0  2  0  0  0  0  0  0
  190.4300  169.2120  137.6530 C   0  0  0  0  0  2  0  0  0  0  0  0
  1 26  1  0  0  0  0
  3  7  1  6  0  0  0
  3 16  1  0  0  0  0
  4 23  2  0  0  0  0
  5 15  1  0  0  0  0
  6  7  1  0  0  0  0
  8 12  1  0  0  0  0
  9 27  1  0  0  0  0
 10 17  1  0  0  0  0
 11 20  1  0  0  0  0
 11  5  2  0  0  0  0
 13  9  1  0  0  0  0
 13 20  2  0  0  0  0
 14  2  2  0  0  0  0
 15  4  1  0  0  0  0
 15 12  1  0  0  0  0
 16  8  1  0  0  0  0
 17 25  1  0  0  0  0
 18  1  2  0  0  0  0
 18  4  1  0  0  0  0
 19  6  1  6  0  0  0
 19  5  1  0  0  0  0
 19  3  1  0  0  0  0
 20 18  1  0  0  0  0
 22 10  1  0  0  0  0
 22 24  1  0  0  0  0
 23 21  1  0  0  0  0
 24 13  1  0  0  0  0
 25  9  2  0  0  0  0
 25 14  1  0  0  0  0
 26 21  2  0  0  0  0
 27  2  1  0  0  0  0
 27  1  1  0  0  0  0
 28 17  1  0  0  0  0
 29 28  1  0  0  0  0
 30 34  1  0  0  0  0
 31 32  1  0  0  0  0
 32 29  1  1  0  0  0
 33 30  1  0  0  0  0
 33 31  1  0  0  0  0
 34 32  1  0  0  0  0
M  END
>  <MODEL>
9

>  <REMARK>
 VINA RESULT:      -7.9      3.666      5.754
  Name = 
  3 active torsions:
  status: ('A' for Active; 'I' for Inactive)
    1  A    between atoms: N_17  and  O_28
    2  A    between atoms: O_28  and  C_29
    3  A    between atoms: C_29  and  C_32
                            x       y       z     vdW  Elec       q    Type
                         _______ _______ _______ _____ _____    ______ ____

>  <TORSDO>
F 3

$$$$
