=
 OpenBabel11112417003D

 31 35  0  0  1  0  0  0  0  0999 V2000
  190.3000  176.0020  146.7640 C   0  0  0  0  0  0  0  0  0  0  0  0
  187.8730  176.5510  143.9450 N   0  0  0  0  0  0  0  0  0  0  0  0
  187.1720  177.7690  144.3820 C   0  0  2  0  0  3  0  0  0  0  0  0
  189.7620  172.4930  141.0420 O   0  0  0  0  0  0  0  0  0  0  0  0
  188.8540  173.0770  140.3940 C   0  0  0  0  0  0  0  0  0  0  0  0
  185.6390  178.8140  146.0050 C   0  0  2  0  0  3  0  0  0  0  0  0
  188.9410  176.0080  144.7480 C   0  0  0  0  0  0  0  0  0  0  0  0
  191.0280  174.9160  146.2740 C   0  0  0  0  0  3  0  0  0  0  0  0
  186.2620  177.4930  145.5750 C   0  0  0  0  0  2  0  0  0  0  0  0
  188.4540  174.8460  142.1980 C   0  0  0  0  0  0  0  0  0  0  0  0
  190.6010  176.5270  147.9760 F   0  0  0  0  0  0  0  0  0  0  0  0
  186.8220  178.2910  141.8120 C   0  0  0  0  0  2  0  0  0  0  0  0
  184.8220  178.6090  147.2620 C   0  0  0  0  0  1  0  0  0  0  0  0
  189.3750  174.3690  142.9820 N   0  0  0  0  0  0  0  0  0  0  0  0
  187.6330  176.0550  142.5800 C   0  0  2  0  0  3  0  0  0  0  0  0
  188.1880  174.2280  140.9330 N   0  0  0  0  0  2  0  0  0  0  0  0
  189.2610  176.5470  146.0050 C   0  0  0  0  0  3  0  0  0  0  0  0
  184.7410  179.3630  144.8950 C   0  0  0  0  0  2  0  0  0  0  0  0
  189.6790  174.9220  144.2610 C   0  0  0  0  0  0  0  0  0  0  0  0
  190.7170  174.3770  145.0230 C   0  0  0  0  0  3  0  0  0  0  0  0
  187.8730  177.1990  141.6060 C   0  0  0  0  0  2  0  0  0  0  0  0
  186.4150  178.4620  143.2530 C   0  0  0  0  0  0  0  0  0  0  0  0
  185.3490  179.2350  143.5180 C   0  0  0  0  0  3  0  0  0  0  0  0
  190.7150  172.7410  137.1120 C   0  0  1  0  0  3  0  0  0  0  0  0
  189.3170  171.3310  138.6480 C   0  0  0  0  0  2  0  0  0  0  0  0
  187.8170  174.7660  138.3120 O   0  0  0  0  0  1  0  0  0  0  0  0
  192.1340  173.1210  136.7460 C   0  0  0  0  0  1  0  0  0  0  0  0
  190.7400  171.7230  138.2480 C   0  0  0  0  0  2  0  0  0  0  0  0
  188.5190  173.6230  137.9280 C   0  0  2  0  0  3  0  0  0  0  0  0
  188.4810  172.5560  139.0350 C   0  0  2  0  0  3  0  0  0  0  0  0
  189.9500  173.9900  137.5370 C   0  0  0  0  0  2  0  0  0  0  0  0
  1 11  1  0  0  0  0
  2  3  1  0  0  0  0
  2  7  1  0  0  0  0
  3  9  1  1  0  0  0
  5 16  1  0  0  0  0
  5  4  2  0  0  0  0
  6 13  1  1  0  0  0
  7 17  1  0  0  0  0
  8  1  1  0  0  0  0
  9  6  1  0  0  0  0
 10 15  1  0  0  0  0
 10 14  2  0  0  0  0
 12 22  1  0  0  0  0
 14 19  1  0  0  0  0
 15 21  1  6  0  0  0
 15  2  1  0  0  0  0
 16 10  1  0  0  0  0
 17  1  2  0  0  0  0
 18  6  1  0  0  0  0
 19  7  2  0  0  0  0
 19 20  1  0  0  0  0
 20  8  2  0  0  0  0
 21 12  1  0  0  0  0
 22 23  2  0  0  0  0
 22  3  1  0  0  0  0
 23 18  1  0  0  0  0
 24 27  1  1  0  0  0
 24 31  1  0  0  0  0
 24 28  1  0  0  0  0
 25 30  1  0  0  0  0
 28 25  1  0  0  0  0
 29 26  1  1  0  0  0
 29 30  1  0  0  0  0
 30  5  1  1  0  0  0
 31 29  1  0  0  0  0
M  END
>  <MODEL>
1

>  <REMARK>
 VINA RESULT:      -9.3      0.000      0.000
  Name = 
  1 active torsions:
  status: ('A' for Active; 'I' for Inactive)
    1  A    between atoms: C_5  and  C_30
                            x       y       z     vdW  Elec       q    Type
                         _______ _______ _______ _____ _____    ______ ____

>  <TORSDO>
F 1

$$$$
=
 OpenBabel11112417003D

 31 35  0  0  1  0  0  0  0  0999 V2000
  190.7400  176.8910  147.3120 C   0  0  0  0  0  0  0  0  0  0  0  0
  188.5070  176.8610  144.2880 N   0  0  0  0  0  0  0  0  0  0  0  0
  187.5310  177.9110  144.6200 C   0  0  2  0  0  3  0  0  0  0  0  0
  191.4470  173.2380  141.7000 O   0  0  0  0  0  0  0  0  0  0  0  0
  190.4970  173.6040  140.9590 C   0  0  0  0  0  0  0  0  0  0  0  0
  185.6790  178.6400  146.0740 C   0  0  2  0  0  3  0  0  0  0  0  0
  189.5900  176.5710  145.1940 C   0  0  0  0  0  0  0  0  0  0  0  0
  191.7190  175.9730  146.9230 C   0  0  0  0  0  3  0  0  0  0  0  0
  186.5990  177.4720  145.7450 C   0  0  0  0  0  2  0  0  0  0  0  0
  189.5810  175.2830  142.6580 C   0  0  0  0  0  0  0  0  0  0  0  0
  190.8180  177.4910  148.5250 F   0  0  0  0  0  0  0  0  0  0  0  0
  187.3050  178.2970  142.0130 C   0  0  0  0  0  2  0  0  0  0  0  0
  184.8160  178.2910  147.2680 C   0  0  0  0  0  1  0  0  0  0  0  0
  190.5100  175.0260  143.5310 N   0  0  0  0  0  0  0  0  0  0  0  0
  188.4950  176.2990  142.9270 C   0  0  2  0  0  3  0  0  0  0  0  0
  189.5610  174.5990  141.3990 N   0  0  0  0  0  2  0  0  0  0  0  0
  189.6800  177.1890  146.4520 C   0  0  0  0  0  3  0  0  0  0  0  0
  184.7860  178.9650  144.8750 C   0  0  0  0  0  2  0  0  0  0  0  0
  190.5790  175.6560  144.8090 C   0  0  0  0  0  0  0  0  0  0  0  0
  191.6370  175.3570  145.6720 C   0  0  0  0  0  3  0  0  0  0  0  0
  188.5750  177.4490  141.9330 C   0  0  0  0  0  2  0  0  0  0  0  0
  186.7480  178.4070  143.4090 C   0  0  0  0  0  0  0  0  0  0  0  0
  185.5250  178.9420  143.5580 C   0  0  0  0  0  3  0  0  0  0  0  0
  191.9130  170.4910  139.3310 C   0  0  1  0  0  3  0  0  0  0  0  0
  189.6910  171.6140  139.6560 C   0  0  0  0  0  2  0  0  0  0  0  0
  192.3250  174.1660  138.8130 O   0  0  0  0  0  1  0  0  0  0  0  0
  192.8460  169.4350  139.8830 C   0  0  0  0  0  1  0  0  0  0  0  0
  190.6480  170.5430  140.1820 C   0  0  0  0  0  2  0  0  0  0  0  0
  191.6800  172.9280  138.8070 C   0  0  2  0  0  3  0  0  0  0  0  0
  190.3610  172.9900  139.5950 C   0  0  2  0  0  3  0  0  0  0  0  0
  192.6150  171.8450  139.3430 C   0  0  0  0  0  2  0  0  0  0  0  0
  1 11  1  0  0  0  0
  2  3  1  0  0  0  0
  2  7  1  0  0  0  0
  3  9  1  1  0  0  0
  5 16  1  0  0  0  0
  5  4  2  0  0  0  0
  6 13  1  1  0  0  0
  7 17  1  0  0  0  0
  8  1  1  0  0  0  0
  9  6  1  0  0  0  0
 10 15  1  0  0  0  0
 10 14  2  0  0  0  0
 12 22  1  0  0  0  0
 14 19  1  0  0  0  0
 15 21  1  6  0  0  0
 15  2  1  0  0  0  0
 16 10  1  0  0  0  0
 17  1  2  0  0  0  0
 18  6  1  0  0  0  0
 19  7  2  0  0  0  0
 19 20  1  0  0  0  0
 20  8  2  0  0  0  0
 21 12  1  0  0  0  0
 22 23  2  0  0  0  0
 22  3  1  0  0  0  0
 23 18  1  0  0  0  0
 24 31  1  0  0  0  0
 24 27  1  1  0  0  0
 24 28  1  0  0  0  0
 25 28  1  0  0  0  0
 29 26  1  1  0  0  0
 29 31  1  0  0  0  0
 29 30  1  0  0  0  0
 30 25  1  0  0  0  0
 30  5  1  1  0  0  0
M  END
>  <MODEL>
2

>  <REMARK>
 VINA RESULT:      -8.9      1.529      1.964
  Name = 
  1 active torsions:
  status: ('A' for Active; 'I' for Inactive)
    1  A    between atoms: C_5  and  C_30
                            x       y       z     vdW  Elec       q    Type
                         _______ _______ _______ _____ _____    ______ ____

>  <TORSDO>
F 1

$$$$
=
 OpenBabel11112417003D

 31 35  0  0  1  0  0  0  0  0999 V2000
  190.5580  177.6870  148.0290 C   0  0  0  0  0  0  0  0  0  0  0  0
  188.8870  176.8300  144.7710 N   0  0  0  0  0  0  0  0  0  0  0  0
  187.8220  177.8420  144.7000 C   0  0  2  0  0  3  0  0  0  0  0  0
  192.3950  172.9960  143.5610 O   0  0  0  0  0  0  0  0  0  0  0  0
  191.5730  173.1170  142.6140 C   0  0  0  0  0  0  0  0  0  0  0  0
  185.7140  178.7080  145.6400 C   0  0  2  0  0  3  0  0  0  0  0  0
  189.8090  176.8300  145.8800 C   0  0  0  0  0  0  0  0  0  0  0  0
  191.6300  176.7920  148.0160 C   0  0  0  0  0  3  0  0  0  0  0  0
  186.7290  177.5770  145.7320 C   0  0  0  0  0  2  0  0  0  0  0  0
  190.3000  175.0370  143.7280 C   0  0  0  0  0  0  0  0  0  0  0  0
  190.3960  178.5350  149.0730 F   0  0  0  0  0  0  0  0  0  0  0  0
  188.0350  177.6460  142.0710 C   0  0  0  0  0  2  0  0  0  0  0  0
  184.6740  178.5500  146.7290 C   0  0  0  0  0  1  0  0  0  0  0  0
  191.0730  175.0490  144.7730 N   0  0  0  0  0  0  0  0  0  0  0  0
  189.1380  175.9930  143.5860 C   0  0  2  0  0  3  0  0  0  0  0  0
  190.5300  174.1010  142.6670 N   0  0  0  0  0  2  0  0  0  0  0  0
  189.6500  177.7070  146.9660 C   0  0  0  0  0  3  0  0  0  0  0  0
  185.0290  178.6960  144.2720 C   0  0  0  0  0  2  0  0  0  0  0  0
  190.8900  175.9400  145.8720 C   0  0  0  0  0  0  0  0  0  0  0  0
  191.7950  175.9200  146.9370 C   0  0  0  0  0  3  0  0  0  0  0  0
  189.3360  176.9080  142.3860 C   0  0  0  0  0  2  0  0  0  0  0  0
  187.2390  178.0030  143.3000 C   0  0  0  0  0  0  0  0  0  0  0  0
  185.9860  178.4540  143.1290 C   0  0  0  0  0  3  0  0  0  0  0  0
  189.7410  172.8640  139.3090 C   0  0  1  0  0  3  0  0  0  0  0  0
  192.0980  172.9990  140.1610 C   0  0  0  0  0  2  0  0  0  0  0  0
  190.0660  170.6860  142.3250 O   0  0  0  0  0  1  0  0  0  0  0  0
  188.5840  173.6740  138.7650 C   0  0  0  0  0  1  0  0  0  0  0  0
  190.9180  173.7910  139.5960 C   0  0  0  0  0  2  0  0  0  0  0  0
  190.4670  171.3430  141.1600 C   0  0  2  0  0  3  0  0  0  0  0  0
  191.7040  172.2180  141.4180 C   0  0  2  0  0  3  0  0  0  0  0  0
  189.3050  172.1510  140.5850 C   0  0  0  0  0  2  0  0  0  0  0  0
  1 11  1  0  0  0  0
  2  7  1  0  0  0  0
  3  2  1  0  0  0  0
  3  9  1  1  0  0  0
  5 16  1  0  0  0  0
  5  4  2  0  0  0  0
  6  9  1  0  0  0  0
  6 13  1  1  0  0  0
  7 17  1  0  0  0  0
  8  1  1  0  0  0  0
 10 14  2  0  0  0  0
 12 21  1  0  0  0  0
 12 22  1  0  0  0  0
 14 19  1  0  0  0  0
 15 21  1  6  0  0  0
 15 10  1  0  0  0  0
 15  2  1  0  0  0  0
 16 10  1  0  0  0  0
 17  1  2  0  0  0  0
 18  6  1  0  0  0  0
 19  7  2  0  0  0  0
 19 20  1  0  0  0  0
 20  8  2  0  0  0  0
 22  3  1  0  0  0  0
 23 22  2  0  0  0  0
 23 18  1  0  0  0  0
 24 27  1  1  0  0  0
 24 28  1  0  0  0  0
 24 31  1  0  0  0  0
 25 30  1  0  0  0  0
 28 25  1  0  0  0  0
 29 30  1  0  0  0  0
 29 26  1  1  0  0  0
 30  5  1  1  0  0  0
 31 29  1  0  0  0  0
M  END
>  <MODEL>
3

>  <REMARK>
 VINA RESULT:      -8.8      1.868      2.683
  Name = 
  1 active torsions:
  status: ('A' for Active; 'I' for Inactive)
    1  A    between atoms: C_5  and  C_30
                            x       y       z     vdW  Elec       q    Type
                         _______ _______ _______ _____ _____    ______ ____

>  <TORSDO>
F 1

$$$$
=
 OpenBabel11112417003D

 31 35  0  0  1  0  0  0  0  0999 V2000
  194.9460  175.5020  145.2240 C   0  0  0  0  0  0  0  0  0  0  0  0
  191.5940  174.1650  144.1710 N   0  0  0  0  0  0  0  0  0  0  0  0
  191.9750  173.0420  143.2990 C   0  0  2  0  0  3  0  0  0  0  0  0
  188.8640  177.5410  147.2730 O   0  0  0  0  0  0  0  0  0  0  0  0
  188.0560  176.7670  146.6930 C   0  0  0  0  0  0  0  0  0  0  0  0
  193.0140  172.3140  141.1860 C   0  0  2  0  0  3  0  0  0  0  0  0
  192.6130  174.9440  144.8290 C   0  0  0  0  0  0  0  0  0  0  0  0
  194.5600  176.4870  146.1360 C   0  0  0  0  0  3  0  0  0  0  0  0
  192.5810  173.5340  141.9880 C   0  0  0  0  0  2  0  0  0  0  0  0
  189.8960  175.4480  145.5010 C   0  0  0  0  0  0  0  0  0  0  0  0
  196.2610  175.2940  144.9690 F   0  0  0  0  0  0  0  0  0  0  0  0
  189.6960  171.9160  144.0290 C   0  0  0  0  0  2  0  0  0  0  0  0
  193.7310  172.7580  139.9280 C   0  0  0  0  0  1  0  0  0  0  0  0
  190.8530  176.1490  146.0310 N   0  0  0  0  0  0  0  0  0  0  0  0
  190.1770  174.3140  144.5430 C   0  0  2  0  0  3  0  0  0  0  0  0
  188.5270  175.7360  145.8130 N   0  0  0  0  0  2  0  0  0  0  0  0
  193.9780  174.7340  144.5730 C   0  0  0  0  0  3  0  0  0  0  0  0
  191.7960  171.4680  140.8090 C   0  0  0  0  0  2  0  0  0  0  0  0
  192.2340  175.9290  145.7500 C   0  0  0  0  0  0  0  0  0  0  0  0
  193.2040  176.6990  146.3990 C   0  0  0  0  0  3  0  0  0  0  0  0
  189.6910  172.9900  145.1170 C   0  0  0  0  0  2  0  0  0  0  0  0
  190.8340  172.0610  143.0520 C   0  0  0  0  0  0  0  0  0  0  0  0
  190.8080  171.3080  141.9400 C   0  0  0  0  0  3  0  0  0  0  0  0
  185.3320  178.8250  145.0520 C   0  0  1  0  0  3  0  0  0  0  0  0
  185.7480  176.4510  145.7540 C   0  0  0  0  0  2  0  0  0  0  0  0
  186.9930  178.8240  148.3960 O   0  0  0  0  0  1  0  0  0  0  0  0
  185.4000  179.7900  143.8880 C   0  0  0  0  0  1  0  0  0  0  0  0
  185.7920  177.4450  144.5930 C   0  0  0  0  0  2  0  0  0  0  0  0
  186.1820  178.3580  147.3600 C   0  0  2  0  0  3  0  0  0  0  0  0
  186.5850  176.9340  146.9430 C   0  0  2  0  0  3  0  0  0  0  0  0
  186.2230  179.3310  146.1820 C   0  0  0  0  0  2  0  0  0  0  0  0
  1  8  1  0  0  0  0
  2 15  1  0  0  0  0
  2  7  1  0  0  0  0
  3  9  1  6  0  0  0
  3  2  1  0  0  0  0
  5  4  2  0  0  0  0
  6 13  1  6  0  0  0
  6  9  1  0  0  0  0
  7 19  2  0  0  0  0
  8 20  2  0  0  0  0
 10 16  1  0  0  0  0
 10 14  2  0  0  0  0
 11  1  1  0  0  0  0
 12 21  1  0  0  0  0
 15 21  1  1  0  0  0
 15 10  1  0  0  0  0
 16  5  1  0  0  0  0
 17  7  1  0  0  0  0
 17  1  2  0  0  0  0
 18  6  1  0  0  0  0
 18 23  1  0  0  0  0
 19 14  1  0  0  0  0
 19 20  1  0  0  0  0
 22  3  1  0  0  0  0
 22 12  1  0  0  0  0
 23 22  2  0  0  0  0
 24 27  1  6  0  0  0
 24 31  1  0  0  0  0
 25 30  1  0  0  0  0
 28 24  1  0  0  0  0
 28 25  1  0  0  0  0
 29 26  1  1  0  0  0
 30  5  1  6  0  0  0
 30 29  1  0  0  0  0
 31 29  1  0  0  0  0
M  END
>  <MODEL>
4

>  <REMARK>
 VINA RESULT:      -8.7      3.618      8.077
  Name = 
  1 active torsions:
  status: ('A' for Active; 'I' for Inactive)
    1  A    between atoms: C_5  and  C_30
                            x       y       z     vdW  Elec       q    Type
                         _______ _______ _______ _____ _____    ______ ____

>  <TORSDO>
F 1

$$$$
=
 OpenBabel11112417003D

 31 35  0  0  1  0  0  0  0  0999 V2000
  188.4680  173.1540  139.9290 C   0  0  0  0  0  0  0  0  0  0  0  0
  189.1120  175.9200  142.3930 N   0  0  0  0  0  0  0  0  0  0  0  0
  187.7580  176.4530  142.6110 C   0  0  2  0  0  3  0  0  0  0  0  0
  194.3080  174.7980  142.8500 O   0  0  0  0  0  0  0  0  0  0  0  0
  194.0190  175.7440  143.6300 C   0  0  0  0  0  0  0  0  0  0  0  0
  185.8180  177.6440  141.6670 C   0  0  2  0  0  3  0  0  0  0  0  0
  189.3090  174.7910  141.5180 C   0  0  0  0  0  0  0  0  0  0  0  0
  189.7420  172.5920  139.8280 C   0  0  0  0  0  3  0  0  0  0  0  0
  187.2440  177.1950  141.3810 C   0  0  0  0  0  2  0  0  0  0  0  0
  191.5370  175.7360  143.0120 C   0  0  0  0  0  0  0  0  0  0  0  0
  187.4410  172.6380  139.2100 F   0  0  0  0  0  0  0  0  0  0  0  0
  188.5940  177.1370  145.0260 C   0  0  0  0  0  2  0  0  0  0  0  0
  185.2250  178.2810  140.4280 C   0  0  0  0  0  1  0  0  0  0  0  0
  191.6670  174.7490  142.1750 N   0  0  0  0  0  0  0  0  0  0  0  0
  190.2010  176.3960  143.2610 C   0  0  2  0  0  3  0  0  0  0  0  0
  192.6740  176.2330  143.7290 N   0  0  0  0  0  2  0  0  0  0  0  0
  188.2500  174.2480  140.7700 C   0  0  0  0  0  3  0  0  0  0  0  0
  185.7990  178.6510  142.8180 C   0  0  0  0  0  2  0  0  0  0  0  0
  190.5830  174.2180  141.4150 C   0  0  0  0  0  0  0  0  0  0  0  0
  190.7990  173.1240  140.5720 C   0  0  0  0  0  3  0  0  0  0  0  0
  189.7730  176.2150  144.7100 C   0  0  0  0  0  2  0  0  0  0  0  0
  187.6470  177.3120  143.8670 C   0  0  0  0  0  0  0  0  0  0  0  0
  186.7050  178.2640  143.9630 C   0  0  0  0  0  3  0  0  0  0  0  0
  197.2980  174.4480  145.0150 C   0  0  1  0  0  3  0  0  0  0  0  0
  196.4390  176.4150  143.7120 C   0  0  0  0  0  2  0  0  0  0  0  0
  194.0570  175.5610  146.4980 O   0  0  0  0  0  1  0  0  0  0  0  0
  197.9410  173.0830  144.8950 C   0  0  0  0  0  1  0  0  0  0  0  0
  197.1010  175.0390  143.6220 C   0  0  0  0  0  2  0  0  0  0  0  0
  195.2830  175.6820  145.8410 C   0  0  2  0  0  3  0  0  0  0  0  0
  195.1070  176.3520  144.4680 C   0  0  2  0  0  3  0  0  0  0  0  0
  195.9560  174.3150  145.7280 C   0  0  0  0  0  2  0  0  0  0  0  0
  1 17  1  0  0  0  0
  2  3  1  0  0  0  0
  2 15  1  0  0  0  0
  3  9  1  6  0  0  0
  3 22  1  0  0  0  0
  4  5  2  0  0  0  0
  5 16  1  0  0  0  0
  6 13  1  6  0  0  0
  6 18  1  0  0  0  0
  7  2  1  0  0  0  0
  8  1  2  0  0  0  0
  8 20  1  0  0  0  0
  9  6  1  0  0  0  0
 10 15  1  0  0  0  0
 10 16  1  0  0  0  0
 11  1  1  0  0  0  0
 14 10  2  0  0  0  0
 15 21  1  1  0  0  0
 17  7  2  0  0  0  0
 18 23  1  0  0  0  0
 19  7  1  0  0  0  0
 19 14  1  0  0  0  0
 20 19  2  0  0  0  0
 21 12  1  0  0  0  0
 22 23  2  0  0  0  0
 22 12  1  0  0  0  0
 24 27  1  6  0  0  0
 24 31  1  0  0  0  0
 25 30  1  0  0  0  0
 28 25  1  0  0  0  0
 28 24  1  0  0  0  0
 29 26  1  6  0  0  0
 30  5  1  6  0  0  0
 30 29  1  0  0  0  0
 31 29  1  0  0  0  0
M  END
>  <MODEL>
5

>  <REMARK>
 VINA RESULT:      -8.5      4.025      6.607
  Name = 
  1 active torsions:
  status: ('A' for Active; 'I' for Inactive)
    1  A    between atoms: C_5  and  C_30
                            x       y       z     vdW  Elec       q    Type
                         _______ _______ _______ _____ _____    ______ ____

>  <TORSDO>
F 1

$$$$
=
 OpenBabel11112417003D

 31 35  0  0  1  0  0  0  0  0999 V2000
  194.5390  175.4010  146.0140 C   0  0  0  0  0  0  0  0  0  0  0  0
  192.5120  175.3860  142.8470 N   0  0  0  0  0  0  0  0  0  0  0  0
  193.3730  174.6110  141.9400 C   0  0  2  0  0  3  0  0  0  0  0  0
  188.3660  177.9130  145.0570 O   0  0  0  0  0  0  0  0  0  0  0  0
  188.0850  177.6260  143.8630 C   0  0  0  0  0  0  0  0  0  0  0  0
  195.4860  174.4940  140.6760 C   0  0  2  0  0  3  0  0  0  0  0  0
  192.9150  175.5990  144.2150 C   0  0  0  0  0  0  0  0  0  0  0  0
  193.6550  176.0380  146.8870 C   0  0  0  0  0  3  0  0  0  0  0  0
  194.6220  175.3940  141.5490 C   0  0  0  0  0  2  0  0  0  0  0  0
  190.3150  176.4470  143.4350 C   0  0  0  0  0  0  0  0  0  0  0  0
  195.7550  174.9970  146.4570 F   0  0  0  0  0  0  0  0  0  0  0  0
  191.1440  173.8680  140.7240 C   0  0  0  0  0  2  0  0  0  0  0  0
  196.7950  175.1890  140.3640 C   0  0  0  0  0  1  0  0  0  0  0  0
  190.7470  176.6530  144.6440 N   0  0  0  0  0  0  0  0  0  0  0  0
  191.1470  175.7170  142.4060 C   0  0  2  0  0  3  0  0  0  0  0  0
  189.0200  176.9140  143.0390 N   0  0  0  0  0  2  0  0  0  0  0  0
  194.1720  175.1820  144.6830 C   0  0  0  0  0  3  0  0  0  0  0  0
  194.7580  174.1630  139.3720 C   0  0  0  0  0  2  0  0  0  0  0  0
  192.0320  176.2320  145.0990 C   0  0  0  0  0  0  0  0  0  0  0  0
  192.4020  176.4530  146.4290 C   0  0  0  0  0  3  0  0  0  0  0  0
  190.4590  174.4310  141.9710 C   0  0  0  0  0  2  0  0  0  0  0  0
  192.6340  174.0910  140.7110 C   0  0  0  0  0  0  0  0  0  0  0  0
  193.2980  173.8340  139.5720 C   0  0  0  0  0  3  0  0  0  0  0  0
  184.7110  178.3400  145.4300 C   0  0  1  0  0  3  0  0  0  0  0  0
  186.3170  179.4100  143.8240 C   0  0  0  0  0  2  0  0  0  0  0  0
  186.0610  175.7190  143.1380 O   0  0  0  0  0  1  0  0  0  0  0  0
  184.2730  178.2910  146.8780 C   0  0  0  0  0  1  0  0  0  0  0  0
  185.8440  179.3500  145.2770 C   0  0  0  0  0  2  0  0  0  0  0  0
  185.6410  176.9880  143.5390 C   0  0  2  0  0  3  0  0  0  0  0  0
  186.7480  178.0310  143.3130 C   0  0  2  0  0  3  0  0  0  0  0  0
  185.1760  176.9540  144.9940 C   0  0  0  0  0  2  0  0  0  0  0  0
  1 11  1  0  0  0  0
  1  8  1  0  0  0  0
  2  7  1  0  0  0  0
  3  9  1  6  0  0  0
  3  2  1  0  0  0  0
  5  4  2  0  0  0  0
  6 13  1  6  0  0  0
  6  9  1  0  0  0  0
  7 17  1  0  0  0  0
  7 19  2  0  0  0  0
 10 14  2  0  0  0  0
 12 21  1  0  0  0  0
 14 19  1  0  0  0  0
 15 21  1  1  0  0  0
 15  2  1  0  0  0  0
 15 10  1  0  0  0  0
 16 10  1  0  0  0  0
 16  5  1  0  0  0  0
 17  1  2  0  0  0  0
 18 23  1  0  0  0  0
 18  6  1  0  0  0  0
 19 20  1  0  0  0  0
 20  8  2  0  0  0  0
 22 12  1  0  0  0  0
 22  3  1  0  0  0  0
 23 22  2  0  0  0  0
 24 27  1  1  0  0  0
 25 28  1  0  0  0  0
 28 24  1  0  0  0  0
 29 26  1  1  0  0  0
 29 31  1  0  0  0  0
 30 29  1  0  0  0  0
 30 25  1  0  0  0  0
 30  5  1  1  0  0  0
 31 24  1  0  0  0  0
M  END
>  <MODEL>
6

>  <REMARK>
 VINA RESULT:      -8.5      3.404      7.869
  Name = 
  1 active torsions:
  status: ('A' for Active; 'I' for Inactive)
    1  A    between atoms: C_5  and  C_30
                            x       y       z     vdW  Elec       q    Type
                         _______ _______ _______ _____ _____    ______ ____

>  <TORSDO>
F 1

$$$$
=
 OpenBabel11112417003D

 31 35  0  0  1  0  0  0  0  0999 V2000
  185.3930  178.3250  146.9580 C   0  0  0  0  0  0  0  0  0  0  0  0
  186.6980  177.2760  143.5920 N   0  0  0  0  0  0  0  0  0  0  0  0
  185.8310  178.0380  142.6790 C   0  0  2  0  0  3  0  0  0  0  0  0
  190.6580  174.3420  145.6350 O   0  0  0  0  0  0  0  0  0  0  0  0
  190.7380  174.3250  144.3780 C   0  0  0  0  0  0  0  0  0  0  0  0
  183.5650  178.3880  141.7750 C   0  0  2  0  0  3  0  0  0  0  0  0
  186.5490  177.4240  145.0180 C   0  0  0  0  0  0  0  0  0  0  0  0
  186.3010  177.6820  147.8020 C   0  0  0  0  0  3  0  0  0  0  0  0
  184.4040  177.4990  142.6820 C   0  0  0  0  0  2  0  0  0  0  0  0
  188.7300  175.8760  144.0500 C   0  0  0  0  0  0  0  0  0  0  0  0
  184.3910  179.0710  147.4840 F   0  0  0  0  0  0  0  0  0  0  0  0
  187.8650  178.0090  140.9880 C   0  0  0  0  0  2  0  0  0  0  0  0
  182.1140  177.9620  141.8430 C   0  0  0  0  0  1  0  0  0  0  0  0
  188.5220  176.0070  145.3270 N   0  0  0  0  0  0  0  0  0  0  0  0
  187.8580  176.5650  143.0270 C   0  0  2  0  0  3  0  0  0  0  0  0
  189.8060  175.0590  143.5710 N   0  0  0  0  0  2  0  0  0  0  0  0
  185.5150  178.1970  145.5720 C   0  0  0  0  0  3  0  0  0  0  0  0
  184.0610  178.2910  140.3310 C   0  0  0  0  0  2  0  0  0  0  0  0
  187.4600  176.7880  145.8720 C   0  0  0  0  0  0  0  0  0  0  0  0
  187.3340  176.9150  147.2580 C   0  0  0  0  0  3  0  0  0  0  0  0
  188.6710  177.5540  142.2050 C   0  0  0  0  0  2  0  0  0  0  0  0
  186.3880  178.1320  141.2620 C   0  0  0  0  0  0  0  0  0  0  0  0
  185.5670  178.3120  140.2150 C   0  0  0  0  0  3  0  0  0  0  0  0
  194.4910  174.1540  144.8600 C   0  0  1  0  0  3  0  0  0  0  0  0
  192.5270  172.5970  144.7300 C   0  0  0  0  0  2  0  0  0  0  0  0
  192.2270  175.2870  142.1150 O   0  0  0  0  0  1  0  0  0  0  0  0
  195.3930  174.9160  145.8080 C   0  0  0  0  0  1  0  0  0  0  0  0
  193.4620  173.3650  145.6640 C   0  0  0  0  0  2  0  0  0  0  0  0
  192.8620  174.3880  142.9740 C   0  0  2  0  0  3  0  0  0  0  0  0
  191.8350  173.5300  143.7300 C   0  0  2  0  0  3  0  0  0  0  0  0
  193.7930  175.1380  143.9260 C   0  0  0  0  0  2  0  0  0  0  0  0
  1 11  1  0  0  0  0
  1  8  1  0  0  0  0
  2  7  1  0  0  0  0
  3  9  1  6  0  0  0
  3  2  1  0  0  0  0
  5  4  2  0  0  0  0
  6 13  1  6  0  0  0
  6  9  1  0  0  0  0
  7 17  1  0  0  0  0
  7 19  2  0  0  0  0
 10 14  2  0  0  0  0
 12 22  1  0  0  0  0
 12 21  1  0  0  0  0
 14 19  1  0  0  0  0
 15 21  1  1  0  0  0
 15  2  1  0  0  0  0
 15 10  1  0  0  0  0
 16 10  1  0  0  0  0
 16  5  1  0  0  0  0
 17  1  2  0  0  0  0
 18  6  1  0  0  0  0
 19 20  1  0  0  0  0
 20  8  2  0  0  0  0
 22  3  1  0  0  0  0
 23 18  1  0  0  0  0
 23 22  2  0  0  0  0
 24 28  1  0  0  0  0
 24 27  1  1  0  0  0
 25 28  1  0  0  0  0
 29 26  1  1  0  0  0
 29 30  1  0  0  0  0
 29 31  1  0  0  0  0
 30  5  1  1  0  0  0
 30 25  1  0  0  0  0
 31 24  1  0  0  0  0
M  END
>  <MODEL>
7

>  <REMARK>
 VINA RESULT:      -8.5      3.627      5.119
  Name = 
  1 active torsions:
  status: ('A' for Active; 'I' for Inactive)
    1  A    between atoms: C_5  and  C_30
                            x       y       z     vdW  Elec       q    Type
                         _______ _______ _______ _____ _____    ______ ____

>  <TORSDO>
F 1

$$$$
=
 OpenBabel11112417003D

 31 35  0  0  1  0  0  0  0  0999 V2000
  190.6230  172.5930  140.5080 C   0  0  0  0  0  0  0  0  0  0  0  0
  190.6240  175.4410  142.9630 N   0  0  0  0  0  0  0  0  0  0  0  0
  191.9700  175.3370  143.5480 C   0  0  2  0  0  3  0  0  0  0  0  0
  185.7960  177.1820  141.5040 O   0  0  0  0  0  0  0  0  0  0  0  0
  186.2670  177.9560  142.3790 C   0  0  0  0  0  0  0  0  0  0  0  0
  193.5350  174.0380  144.9400 C   0  0  2  0  0  3  0  0  0  0  0  0
  190.2190  174.5300  141.9210 C   0  0  0  0  0  0  0  0  0  0  0  0
  189.3860  172.7840  139.8880 C   0  0  0  0  0  3  0  0  0  0  0  0
  192.0980  174.1070  144.4420 C   0  0  0  0  0  2  0  0  0  0  0  0
  188.4760  176.6790  142.5780 C   0  0  0  0  0  0  0  0  0  0  0  0
  191.4190  171.5650  140.1300 F   0  0  0  0  0  0  0  0  0  0  0  0
  191.8270  177.9510  143.9290 C   0  0  0  0  0  2  0  0  0  0  0  0
  193.7390  172.7650  145.7340 C   0  0  0  0  0  1  0  0  0  0  0  0
  188.1420  175.8030  141.6760 N   0  0  0  0  0  0  0  0  0  0  0  0
  189.8100  176.6250  143.2840 C   0  0  2  0  0  3  0  0  0  0  0  0
  187.5730  177.7350  142.9310 N   0  0  0  0  0  2  0  0  0  0  0  0
  191.0380  173.4620  141.5210 C   0  0  0  0  0  3  0  0  0  0  0  0
  193.8500  175.2470  145.8220 C   0  0  0  0  0  2  0  0  0  0  0  0
  188.9830  174.7180  141.2900 C   0  0  0  0  0  0  0  0  0  0  0  0
  188.5670  173.8460  140.2790 C   0  0  0  0  0  3  0  0  0  0  0  0
  190.6320  177.8690  142.9790 C   0  0  0  0  0  2  0  0  0  0  0  0
  192.4060  176.6030  144.2780 C   0  0  0  0  0  0  0  0  0  0  0  0
  193.3120  176.5450  145.2670 C   0  0  0  0  0  3  0  0  0  0  0  0
  184.7060  178.9380  145.6880 C   0  0  1  0  0  3  0  0  0  0  0  0
  186.1630  179.9450  143.9090 C   0  0  0  0  0  2  0  0  0  0  0  0
  183.3930  177.9410  142.3370 O   0  0  0  0  0  1  0  0  0  0  0  0
  184.7140  178.2270  147.0250 C   0  0  0  0  0  1  0  0  0  0  0  0
  186.1400  179.2400  145.2660 C   0  0  0  0  0  2  0  0  0  0  0  0
  184.0230  178.7470  143.2870 C   0  0  2  0  0  3  0  0  0  0  0  0
  185.4420  179.1260  142.8340 C   0  0  2  0  0  3  0  0  0  0  0  0
  184.0230  178.0540  144.6490 C   0  0  0  0  0  2  0  0  0  0  0  0
  1 17  1  0  0  0  0
  2 15  1  0  0  0  0
  2  3  1  0  0  0  0
  3 22  1  0  0  0  0
  3  9  1  1  0  0  0
  4  5  2  0  0  0  0
  5 16  1  0  0  0  0
  6 13  1  1  0  0  0
  6 18  1  0  0  0  0
  7  2  1  0  0  0  0
  8 20  1  0  0  0  0
  8  1  2  0  0  0  0
  9  6  1  0  0  0  0
 10 16  1  0  0  0  0
 10 15  1  0  0  0  0
 11  1  1  0  0  0  0
 12 22  1  0  0  0  0
 14 10  2  0  0  0  0
 15 21  1  6  0  0  0
 17  7  2  0  0  0  0
 19 14  1  0  0  0  0
 19  7  1  0  0  0  0
 20 19  2  0  0  0  0
 21 12  1  0  0  0  0
 22 23  2  0  0  0  0
 23 18  1  0  0  0  0
 24 27  1  1  0  0  0
 25 28  1  0  0  0  0
 28 24  1  0  0  0  0
 29 26  1  6  0  0  0
 29 31  1  0  0  0  0
 30  5  1  1  0  0  0
 30 29  1  0  0  0  0
 30 25  1  0  0  0  0
 31 24  1  0  0  0  0
M  END
>  <MODEL>
8

>  <REMARK>
 VINA RESULT:      -8.3      2.922      7.571
  Name = 
  1 active torsions:
  status: ('A' for Active; 'I' for Inactive)
    1  A    between atoms: C_5  and  C_30
                            x       y       z     vdW  Elec       q    Type
                         _______ _______ _______ _____ _____    ______ ____

>  <TORSDO>
F 1

$$$$
=
 OpenBabel11112417003D

 31 35  0  0  1  0  0  0  0  0999 V2000
  191.8060  169.8920  142.2260 C   0  0  0  0  0  0  0  0  0  0  0  0
  193.0190  172.8500  144.2050 N   0  0  0  0  0  0  0  0  0  0  0  0
  194.4310  172.5040  144.4340 C   0  0  2  0  0  3  0  0  0  0  0  0
  188.3900  175.4730  143.8140 O   0  0  0  0  0  0  0  0  0  0  0  0
  189.2200  176.1910  144.4310 C   0  0  0  0  0  0  0  0  0  0  0  0
  196.0490  171.0070  145.5360 C   0  0  2  0  0  3  0  0  0  0  0  0
  192.1790  171.9720  143.4290 C   0  0  0  0  0  0  0  0  0  0  0  0
  190.5040  170.2960  141.9240 C   0  0  0  0  0  3  0  0  0  0  0  0
  194.5700  171.3460  145.4180 C   0  0  0  0  0  2  0  0  0  0  0  0
  191.1190  174.4890  144.2230 C   0  0  0  0  0  0  0  0  0  0  0  0
  192.2590  168.6900  141.7950 F   0  0  0  0  0  0  0  0  0  0  0  0
  194.8900  175.1080  144.4930 C   0  0  0  0  0  2  0  0  0  0  0  0
  196.2250  169.7840  146.4120 C   0  0  0  0  0  1  0  0  0  0  0  0
  190.3910  173.6390  143.5600 N   0  0  0  0  0  0  0  0  0  0  0  0
  192.5620  174.2020  144.5650 C   0  0  2  0  0  3  0  0  0  0  0  0
  190.5630  175.7370  144.6540 N   0  0  0  0  0  2  0  0  0  0  0  0
  192.6410  170.7250  142.9760 C   0  0  0  0  0  3  0  0  0  0  0  0
  196.8160  172.1840  146.1420 C   0  0  0  0  0  2  0  0  0  0  0  0
  190.8730  172.3720  143.1170 C   0  0  0  0  0  0  0  0  0  0  0  0
  190.0390  171.5360  142.3690 C   0  0  0  0  0  3  0  0  0  0  0  0
  193.4850  175.2130  143.8990 C   0  0  0  0  0  2  0  0  0  0  0  0
  195.2810  173.6980  144.8550 C   0  0  0  0  0  0  0  0  0  0  0  0
  196.3980  173.5210  145.5780 C   0  0  0  0  0  3  0  0  0  0  0  0
  186.0870  177.4880  146.1180 C   0  0  1  0  0  3  0  0  0  0  0  0
  188.5760  177.5520  146.4410 C   0  0  0  0  0  2  0  0  0  0  0  0
  187.7250  178.0320  142.8070 O   0  0  0  0  0  1  0  0  0  0  0  0
  184.8160  176.7660  146.5130 C   0  0  0  0  0  1  0  0  0  0  0  0
  187.2750  176.8510  146.8340 C   0  0  0  0  0  2  0  0  0  0  0  0
  187.5600  178.1070  144.1910 C   0  0  2  0  0  3  0  0  0  0  0  0
  188.7880  177.5420  144.9240 C   0  0  2  0  0  3  0  0  0  0  0  0
  186.2710  177.4000  144.6060 C   0  0  0  0  0  2  0  0  0  0  0  0
  1 17  1  0  0  0  0
  2  3  1  0  0  0  0
  2 15  1  0  0  0  0
  3 22  1  0  0  0  0
  3  9  1  1  0  0  0
  4  5  2  0  0  0  0
  5 16  1  0  0  0  0
  6 18  1  0  0  0  0
  6 13  1  1  0  0  0
  7  2  1  0  0  0  0
  8  1  2  0  0  0  0
  8 20  1  0  0  0  0
  9  6  1  0  0  0  0
 10 15  1  0  0  0  0
 10 16  1  0  0  0  0
 11  1  1  0  0  0  0
 12 22  1  0  0  0  0
 14 10  2  0  0  0  0
 15 21  1  6  0  0  0
 17  7  2  0  0  0  0
 19  7  1  0  0  0  0
 19 14  1  0  0  0  0
 20 19  2  0  0  0  0
 21 12  1  0  0  0  0
 22 23  2  0  0  0  0
 23 18  1  0  0  0  0
 24 27  1  6  0  0  0
 24 28  1  0  0  0  0
 25 28  1  0  0  0  0
 29 26  1  6  0  0  0
 29 31  1  0  0  0  0
 29 30  1  0  0  0  0
 30  5  1  6  0  0  0
 30 25  1  0  0  0  0
 31 24  1  0  0  0  0
M  END
>  <MODEL>
9

>  <REMARK>
 VINA RESULT:      -8.3      4.136      8.684
  Name = 
  1 active torsions:
  status: ('A' for Active; 'I' for Inactive)
    1  A    between atoms: C_5  and  C_30
                            x       y       z     vdW  Elec       q    Type
                         _______ _______ _______ _____ _____    ______ ____

>  <TORSDO>
F 1

$$$$
