=
 OpenBabel11112416203D

 30 35  0  0  1  0  0  0  0  0999 V2000
  186.6690  177.2450  143.6550 C   0  0  1  0  0  3  0  0  0  0  0  0
  184.4790  178.2700  142.8950 C   0  0  0  0  0  0  0  0  0  0  0  0
  187.4000  175.9830  139.6250 N   0  0  0  0  0  2  0  0  0  0  0  0
  187.9760  176.5220  143.2300 C   0  0  1  0  0  3  0  0  0  0  0  0
  186.9570  178.1220  144.8640 C   0  0  0  0  0  2  0  0  0  0  0  0
  188.6770  175.3610  146.6550 O   0  0  0  0  0  0  0  0  0  0  0  0
  188.8280  173.3660  143.4200 C   0  0  1  0  0  3  0  0  0  0  0  0
  188.2220  176.0600  145.7060 C   0  0  0  0  0  0  0  0  0  0  0  0
  188.6860  173.4580  141.8940 C   0  0  2  0  0  3  0  0  0  0  0  0
  188.3180  174.9360  139.8940 C   0  0  0  0  0  0  0  0  0  0  0  0
  187.4340  177.2750  146.0040 C   0  0  0  0  0  0  0  0  0  0  0  0
  188.4610  175.6640  144.3380 N   0  0  0  0  0  0  0  0  0  0  0  0
  183.5260  178.3250  141.8730 O   0  0  0  0  0  0  0  0  0  0  0  0
  189.7890  172.5840  141.3340 C   0  0  0  0  0  2  0  0  0  0  0  0
  189.6710  172.1320  143.7030 C   0  0  0  0  0  2  0  0  0  0  0  0
  184.1100  178.4120  144.0900 O   0  0  0  0  0  0  0  0  0  0  0  0
  187.3470  176.7400  140.8590 C   0  0  2  0  0  3  0  0  0  0  0  0
  183.9140  178.4560  140.5090 C   0  0  0  0  0  2  0  0  0  0  0  0
  185.9390  178.0630  142.5490 C   0  0  2  0  0  3  0  0  0  0  0  0
  187.6630  175.7460  141.9530 C   0  0  1  0  0  3  0  0  0  0  0  0
  188.7470  174.1700  138.9910 O   0  0  0  0  0  0  0  0  0  0  0  0
  188.7440  174.8770  141.3260 C   0  0  1  0  0  3  0  0  0  0  0  0
  189.9780  171.4940  142.3620 C   0  0  0  0  0  2  0  0  0  0  0  0
  190.7590  175.0930  143.5700 C   0  0  0  0  0  1  0  0  0  0  0  0
  185.1270  177.6220  140.2220 C   0  0  0  0  0  3  0  0  0  0  0  0
  186.0590  177.4280  141.1690 C   0  0  0  0  0  0  0  0  0  0  0  0
  189.4330  174.5860  144.1310 C   0  0  2  0  0  3  0  0  0  0  0  0
  187.2030  177.6330  147.2700 C   0  0  0  0  0  3  0  0  0  0  0  0
  184.9540  178.5670  147.5770 C   0  0  0  0  0  1  0  0  0  0  0  0
  186.4390  178.8580  147.6450 C   0  0  0  0  0  2  0  0  0  0  0  0
  1  5  1  1  0  0  0
  2 16  2  0  0  0  0
  3 10  1  0  0  0  0
  4  1  1  0  0  0  0
  4 12  1  1  0  0  0
  5 11  1  0  0  0  0
  7 15  1  6  0  0  0
  7 27  1  0  0  0  0
  8 11  1  0  0  0  0
  8  6  2  0  0  0  0
  9 14  1  6  0  0  0
  9  7  1  0  0  0  0
 10 22  1  0  0  0  0
 11 28  2  0  0  0  0
 12  8  1  0  0  0  0
 13  2  1  0  0  0  0
 14 23  1  0  0  0  0
 17  3  1  6  0  0  0
 17 26  1  0  0  0  0
 17 20  1  0  0  0  0
 18 13  1  0  0  0  0
 19 26  1  6  0  0  0
 19  2  1  0  0  0  0
 19  1  1  0  0  0  0
 20  4  1  0  0  0  0
 21 10  2  0  0  0  0
 22  9  1  0  0  0  0
 22 20  1  0  0  0  0
 23 15  1  0  0  0  0
 24 27  1  0  0  0  0
 25 18  1  0  0  0  0
 25 26  2  0  0  0  0
 27 12  1  0  0  0  0
 28 30  1  0  0  0  0
 29 30  1  0  0  0  0
M  END
>  <MODEL>
1

>  <REMARK>
 VINA RESULT:      -8.8      0.000      0.000
  Name = 
  1 active torsions:
  status: ('A' for Active; 'I' for Inactive)
    1  A    between atoms: C_28  and  C_30
                            x       y       z     vdW  Elec       q    Type
                         _______ _______ _______ _____ _____    ______ ____

>  <TORSDO>
F 1

$$$$
=
 OpenBabel11112416203D

 30 35  0  0  1  0  0  0  0  0999 V2000
  188.5390  175.8320  142.5310 C   0  0  1  0  0  3  0  0  0  0  0  0
  186.7300  177.4870  141.8890 C   0  0  0  0  0  0  0  0  0  0  0  0
  188.6010  177.5270  146.4660 N   0  0  0  0  0  2  0  0  0  0  0  0
  189.4380  175.2720  143.6670 C   0  0  1  0  0  3  0  0  0  0  0  0
  188.2200  174.7110  141.5520 C   0  0  0  0  0  2  0  0  0  0  0  0
  191.7860  173.7020  141.3020 O   0  0  0  0  0  0  0  0  0  0  0  0
  192.5920  175.8190  144.3580 C   0  0  1  0  0  3  0  0  0  0  0  0
  190.7190  174.1890  141.7720 C   0  0  0  0  0  0  0  0  0  0  0  0
  191.9790  176.5580  145.5560 C   0  0  2  0  0  3  0  0  0  0  0  0
  189.8990  177.1110  146.8560 C   0  0  0  0  0  0  0  0  0  0  0  0
  189.4880  174.1840  140.9530 C   0  0  0  0  0  0  0  0  0  0  0  0
  190.7070  174.7590  143.0990 N   0  0  0  0  0  0  0  0  0  0  0  0
  186.0740  178.6710  142.2400 O   0  0  0  0  0  0  0  0  0  0  0  0
  192.9100  176.2840  146.7180 C   0  0  0  0  0  2  0  0  0  0  0  0
  194.0410  175.5340  144.7210 C   0  0  0  0  0  2  0  0  0  0  0  0
  186.8760  177.2020  140.6710 O   0  0  0  0  0  0  0  0  0  0  0  0
  188.2980  176.7180  145.3030 C   0  0  2  0  0  3  0  0  0  0  0  0
  185.6330  178.9010  143.5760 C   0  0  0  0  0  2  0  0  0  0  0  0
  187.2350  176.5570  142.9730 C   0  0  2  0  0  3  0  0  0  0  0  0
  189.6370  176.4010  144.6760 C   0  0  1  0  0  3  0  0  0  0  0  0
  190.4260  177.4790  147.9390 O   0  0  0  0  0  0  0  0  0  0  0  0
  190.5350  176.1710  145.8820 C   0  0  1  0  0  3  0  0  0  0  0  0
  194.2770  176.1370  146.0920 C   0  0  0  0  0  2  0  0  0  0  0  0
  191.6500  173.4940  145.0250 C   0  0  0  0  0  1  0  0  0  0  0  0
  186.6490  178.4020  144.5610 C   0  0  0  0  0  3  0  0  0  0  0  0
  187.4000  177.3260  144.2780 C   0  0  0  0  0  0  0  0  0  0  0  0
  191.8980  174.5190  143.9220 C   0  0  2  0  0  3  0  0  0  0  0  0
  189.5040  173.6690  139.7200 C   0  0  0  0  0  3  0  0  0  0  0  0
  188.6470  174.1160  137.4640 C   0  0  0  0  0  1  0  0  0  0  0  0
  188.2950  173.6080  138.8470 C   0  0  0  0  0  2  0  0  0  0  0  0
  1  5  1  6  0  0  0
  1 19  1  0  0  0  0
  1  4  1  0  0  0  0
  2 13  1  0  0  0  0
  3 10  1  0  0  0  0
  4 12  1  6  0  0  0
  4 20  1  0  0  0  0
  6  8  2  0  0  0  0
  7 15  1  1  0  0  0
  7  9  1  0  0  0  0
  8 12  1  0  0  0  0
  9 22  1  0  0  0  0
  9 14  1  1  0  0  0
 10 21  2  0  0  0  0
 11  5  1  0  0  0  0
 11  8  1  0  0  0  0
 12 27  1  0  0  0  0
 13 18  1  0  0  0  0
 15 23  1  0  0  0  0
 16  2  2  0  0  0  0
 17 26  1  6  0  0  0
 17  3  1  0  0  0  0
 18 25  1  0  0  0  0
 19  2  1  6  0  0  0
 19 26  1  0  0  0  0
 20 17  1  0  0  0  0
 20 22  1  0  0  0  0
 22 10  1  0  0  0  0
 23 14  1  0  0  0  0
 26 25  2  0  0  0  0
 27  7  1  0  0  0  0
 27 24  1  0  0  0  0
 28 11  2  0  0  0  0
 29 30  1  0  0  0  0
 30 28  1  0  0  0  0
M  END
>  <MODEL>
2

>  <REMARK>
 VINA RESULT:      -8.7      2.353      5.822
  Name = 
  1 active torsions:
  status: ('A' for Active; 'I' for Inactive)
    1  A    between atoms: C_28  and  C_30
                            x       y       z     vdW  Elec       q    Type
                         _______ _______ _______ _____ _____    ______ ____

>  <TORSDO>
F 1

$$$$
=
 OpenBabel11112416203D

 30 35  0  0  1  0  0  0  0  0999 V2000
  188.0260  175.8180  142.1220 C   0  0  1  0  0  3  0  0  0  0  0  0
  186.4830  177.2230  140.6840 C   0  0  0  0  0  0  0  0  0  0  0  0
  186.4040  177.7200  145.6030 N   0  0  0  0  0  2  0  0  0  0  0  0
  188.4510  175.4240  143.5630 C   0  0  1  0  0  3  0  0  0  0  0  0
  188.2080  174.6160  141.2050 C   0  0  0  0  0  2  0  0  0  0  0  0
  191.6570  174.0000  142.4370 O   0  0  0  0  0  0  0  0  0  0  0  0
  191.0270  176.3570  145.3570 C   0  0  1  0  0  3  0  0  0  0  0  0
  190.4550  174.3900  142.4150 C   0  0  0  0  0  0  0  0  0  0  0  0
  189.9360  177.0860  146.1530 C   0  0  2  0  0  3  0  0  0  0  0  0
  187.4760  177.4730  146.4980 C   0  0  0  0  0  0  0  0  0  0  0  0
  189.6470  174.2030  141.1900 C   0  0  0  0  0  0  0  0  0  0  0  0
  189.8790  175.0260  143.5760 N   0  0  0  0  0  0  0  0  0  0  0  0
  185.6470  178.3430  140.6440 O   0  0  0  0  0  0  0  0  0  0  0  0
  190.3580  176.9820  147.6030 C   0  0  0  0  0  2  0  0  0  0  0  0
  192.2370  176.2560  146.2720 C   0  0  0  0  0  2  0  0  0  0  0  0
  187.1160  176.8910  139.6480 O   0  0  0  0  0  0  0  0  0  0  0  0
  186.6480  176.8200  144.4940 C   0  0  2  0  0  3  0  0  0  0  0  0
  184.7020  178.5940  141.6810 C   0  0  0  0  0  2  0  0  0  0  0  0
  186.5970  176.4150  141.9600 C   0  0  2  0  0  3  0  0  0  0  0  0
  188.1460  176.6210  144.4610 C   0  0  1  0  0  3  0  0  0  0  0  0
  187.5060  177.9560  147.6610 O   0  0  0  0  0  0  0  0  0  0  0  0
  188.5170  176.5580  145.9350 C   0  0  1  0  0  3  0  0  0  0  0  0
  191.8680  176.9550  147.5660 C   0  0  0  0  0  2  0  0  0  0  0  0
  190.0940  173.9810  145.8250 C   0  0  0  0  0  1  0  0  0  0  0  0
  185.2880  178.2660  143.0220 C   0  0  0  0  0  3  0  0  0  0  0  0
  186.1750  177.2670  143.1510 C   0  0  0  0  0  0  0  0  0  0  0  0
  190.6680  174.9660  144.8110 C   0  0  2  0  0  3  0  0  0  0  0  0
  190.1860  173.6270  140.1120 C   0  0  0  0  0  3  0  0  0  0  0  0
  189.2800  171.8940  138.6290 C   0  0  0  0  0  1  0  0  0  0  0  0
  189.4250  173.3840  138.8510 C   0  0  0  0  0  2  0  0  0  0  0  0
  1  5  1  6  0  0  0
  1  4  1  0  0  0  0
  3 10  1  0  0  0  0
  4 12  1  6  0  0  0
  4 20  1  0  0  0  0
  7  9  1  0  0  0  0
  7 15  1  1  0  0  0
  8  6  2  0  0  0  0
  8 12  1  0  0  0  0
  9 14  1  1  0  0  0
 10 21  2  0  0  0  0
 11  5  1  0  0  0  0
 11  8  1  0  0  0  0
 12 27  1  0  0  0  0
 13  2  1  0  0  0  0
 13 18  1  0  0  0  0
 15 23  1  0  0  0  0
 16  2  2  0  0  0  0
 17 26  1  6  0  0  0
 17  3  1  0  0  0  0
 18 25  1  0  0  0  0
 19  2  1  6  0  0  0
 19  1  1  0  0  0  0
 19 26  1  0  0  0  0
 20 17  1  0  0  0  0
 20 22  1  0  0  0  0
 22  9  1  0  0  0  0
 22 10  1  0  0  0  0
 23 14  1  0  0  0  0
 25 26  2  0  0  0  0
 27  7  1  0  0  0  0
 27 24  1  0  0  0  0
 28 11  2  0  0  0  0
 29 30  1  0  0  0  0
 30 28  1  0  0  0  0
M  END
>  <MODEL>
3

>  <REMARK>
 VINA RESULT:      -8.4      2.156      5.653
  Name = 
  1 active torsions:
  status: ('A' for Active; 'I' for Inactive)
    1  A    between atoms: C_28  and  C_30
                            x       y       z     vdW  Elec       q    Type
                         _______ _______ _______ _____ _____    ______ ____

>  <TORSDO>
F 1

$$$$
=
 OpenBabel11112416203D

 30 35  0  0  1  0  0  0  0  0999 V2000
  188.9600  176.6410  145.4880 C   0  0  1  0  0  3  0  0  0  0  0  0
  186.7060  177.6660  146.0280 C   0  0  0  0  0  0  0  0  0  0  0  0
  187.4420  175.4950  141.6470 N   0  0  0  0  0  2  0  0  0  0  0  0
  189.8410  175.9420  144.4160 C   0  0  1  0  0  3  0  0  0  0  0  0
  189.8500  177.4890  146.3860 C   0  0  0  0  0  2  0  0  0  0  0  0
  192.2390  174.6950  146.9190 O   0  0  0  0  0  0  0  0  0  0  0  0
  190.6430  172.7900  144.0400 C   0  0  1  0  0  3  0  0  0  0  0  0
  191.3550  175.4160  146.3740 C   0  0  0  0  0  0  0  0  0  0  0  0
  189.7180  172.9220  142.8220 C   0  0  2  0  0  3  0  0  0  0  0  0
  188.3570  174.4500  141.3610 C   0  0  0  0  0  0  0  0  0  0  0  0
  190.8520  176.6150  147.0760 C   0  0  0  0  0  0  0  0  0  0  0  0
  190.8320  175.0590  145.0760 N   0  0  0  0  0  0  0  0  0  0  0  0
  185.3570  177.7410  145.6670 O   0  0  0  0  0  0  0  0  0  0  0  0
  190.3510  172.0740  141.7400 C   0  0  0  0  0  2  0  0  0  0  0  0
  191.5000  171.5570  143.8000 C   0  0  0  0  0  2  0  0  0  0  0  0
  187.0260  177.7730  147.2420 O   0  0  0  0  0  0  0  0  0  0  0  0
  188.0550  176.2180  142.7430 C   0  0  2  0  0  3  0  0  0  0  0  0
  184.9670  177.9120  144.3080 C   0  0  0  0  0  2  0  0  0  0  0  0
  187.7620  177.4820  144.9580 C   0  0  2  0  0  3  0  0  0  0  0  0
  188.8940  175.1980  143.4770 C   0  0  1  0  0  3  0  0  0  0  0  0
  188.2390  173.7120  140.3470 O   0  0  0  0  0  0  0  0  0  0  0  0
  189.4760  174.3560  142.3490 C   0  0  1  0  0  3  0  0  0  0  0  0
  191.0480  170.9580  142.4820 C   0  0  0  0  0  2  0  0  0  0  0  0
  192.3730  174.5300  143.1940 C   0  0  0  0  0  1  0  0  0  0  0  0
  185.8400  177.0970  143.4000 C   0  0  0  0  0  3  0  0  0  0  0  0
  187.1300  176.8860  143.7060 C   0  0  0  0  0  0  0  0  0  0  0  0
  191.5410  173.9960  144.3570 C   0  0  2  0  0  3  0  0  0  0  0  0
  191.3270  176.9360  148.2830 C   0  0  0  0  0  3  0  0  0  0  0  0
  191.5920  178.1890  150.3770 C   0  0  0  0  0  1  0  0  0  0  0  0
  190.8850  178.1440  149.0390 C   0  0  0  0  0  2  0  0  0  0  0  0
  1  5  1  6  0  0  0
  2 16  2  0  0  0  0
  4 12  1  1  0  0  0
  4  1  1  0  0  0  0
  5 11  1  0  0  0  0
  7 15  1  6  0  0  0
  7 27  1  0  0  0  0
  8  6  2  0  0  0  0
  8 11  1  0  0  0  0
  9 14  1  6  0  0  0
  9  7  1  0  0  0  0
 10  3  1  0  0  0  0
 10 22  1  0  0  0  0
 11 28  2  0  0  0  0
 12  8  1  0  0  0  0
 13  2  1  0  0  0  0
 14 23  1  0  0  0  0
 17  3  1  6  0  0  0
 17 20  1  0  0  0  0
 17 26  1  0  0  0  0
 18 13  1  0  0  0  0
 19 26  1  6  0  0  0
 19  1  1  0  0  0  0
 19  2  1  0  0  0  0
 20  4  1  0  0  0  0
 21 10  2  0  0  0  0
 22  9  1  0  0  0  0
 22 20  1  0  0  0  0
 23 15  1  0  0  0  0
 24 27  1  0  0  0  0
 25 26  2  0  0  0  0
 25 18  1  0  0  0  0
 27 12  1  0  0  0  0
 28 30  1  0  0  0  0
 30 29  1  0  0  0  0
M  END
>  <MODEL>
4

>  <REMARK>
 VINA RESULT:      -8.4      2.247      3.148
  Name = 
  1 active torsions:
  status: ('A' for Active; 'I' for Inactive)
    1  A    between atoms: C_28  and  C_30
                            x       y       z     vdW  Elec       q    Type
                         _______ _______ _______ _____ _____    ______ ____

>  <TORSDO>
F 1

$$$$
=
 OpenBabel11112416203D

 30 35  0  0  1  0  0  0  0  0999 V2000
  186.4260  177.4580  143.9130 C   0  0  1  0  0  3  0  0  0  0  0  0
  185.4590  179.2080  145.4700 C   0  0  0  0  0  0  0  0  0  0  0  0
  188.5630  175.7840  147.2290 N   0  0  0  0  0  2  0  0  0  0  0  0
  187.2990  176.1800  143.7840 C   0  0  1  0  0  3  0  0  0  0  0  0
  185.3280  177.4170  142.8600 C   0  0  0  0  0  2  0  0  0  0  0  0
  187.7400  176.6110  140.1520 O   0  0  0  0  0  0  0  0  0  0  0  0
  190.3870  175.8010  142.7610 C   0  0  1  0  0  3  0  0  0  0  0  0
  187.2340  176.6950  141.3070 C   0  0  0  0  0  0  0  0  0  0  0  0
  190.6150  175.4970  144.2480 C   0  0  2  0  0  3  0  0  0  0  0  0
  189.5810  175.1100  146.5070 C   0  0  0  0  0  0  0  0  0  0  0  0
  185.9390  177.3830  141.4920 C   0  0  0  0  0  0  0  0  0  0  0  0
  187.9270  176.1320  142.4420 N   0  0  0  0  0  0  0  0  0  0  0  0
  185.5670  179.8230  146.7210 O   0  0  0  0  0  0  0  0  0  0  0  0
  191.6530  174.3950  144.2800 C   0  0  0  0  0  2  0  0  0  0  0  0
  191.5790  175.2250  142.0140 C   0  0  0  0  0  2  0  0  0  0  0  0
  185.0420  179.8770  144.4890 O   0  0  0  0  0  0  0  0  0  0  0  0
  187.5570  176.0900  146.2320 C   0  0  2  0  0  3  0  0  0  0  0  0
  185.7550  179.0550  147.9070 C   0  0  0  0  0  2  0  0  0  0  0  0
  185.8220  177.7450  145.3190 C   0  0  2  0  0  3  0  0  0  0  0  0
  188.3110  176.2140  144.9280 C   0  0  1  0  0  3  0  0  0  0  0  0
  190.5470  174.5400  147.0800 O   0  0  0  0  0  0  0  0  0  0  0  0
  189.3570  175.1120  145.0280 C   0  0  1  0  0  3  0  0  0  0  0  0
  192.5070  174.6330  143.0570 C   0  0  0  0  0  2  0  0  0  0  0  0
  188.7860  173.7960  142.3670 C   0  0  0  0  0  1  0  0  0  0  0  0
  186.7010  177.9190  147.6560 C   0  0  0  0  0  3  0  0  0  0  0  0
  186.7430  177.3200  146.4550 C   0  0  0  0  0  0  0  0  0  0  0  0
  189.0810  175.2770  142.1430 C   0  0  2  0  0  3  0  0  0  0  0  0
  185.3050  177.9150  140.4430 C   0  0  0  0  0  3  0  0  0  0  0  0
  182.8850  177.6460  140.1380 C   0  0  0  0  0  1  0  0  0  0  0  0
  183.9840  178.6010  140.5500 C   0  0  0  0  0  2  0  0  0  0  0  0
  1  5  1  6  0  0  0
  1 19  1  0  0  0  0
  2 13  1  0  0  0  0
  4 12  1  6  0  0  0
  4  1  1  0  0  0  0
  4 20  1  0  0  0  0
  6  8  2  0  0  0  0
  7 15  1  6  0  0  0
  7  9  1  0  0  0  0
  8 11  1  0  0  0  0
  8 12  1  0  0  0  0
  9 14  1  6  0  0  0
  9 22  1  0  0  0  0
 10 21  2  0  0  0  0
 10  3  1  0  0  0  0
 11  5  1  0  0  0  0
 13 18  1  0  0  0  0
 15 23  1  0  0  0  0
 16  2  2  0  0  0  0
 17 26  1  1  0  0  0
 17  3  1  0  0  0  0
 19  2  1  6  0  0  0
 19 26  1  0  0  0  0
 20 22  1  0  0  0  0
 20 17  1  0  0  0  0
 22 10  1  0  0  0  0
 23 14  1  0  0  0  0
 25 18  1  0  0  0  0
 26 25  2  0  0  0  0
 27 24  1  0  0  0  0
 27 12  1  0  0  0  0
 27  7  1  0  0  0  0
 28 30  1  0  0  0  0
 28 11  2  0  0  0  0
 29 30  1  0  0  0  0
M  END
>  <MODEL>
5

>  <REMARK>
 VINA RESULT:      -8.4      1.590      5.066
  Name = 
  1 active torsions:
  status: ('A' for Active; 'I' for Inactive)
    1  A    between atoms: C_28  and  C_30
                            x       y       z     vdW  Elec       q    Type
                         _______ _______ _______ _____ _____    ______ ____

>  <TORSDO>
F 1

$$$$
=
 OpenBabel11112416203D

 30 35  0  0  1  0  0  0  0  0999 V2000
  187.7320  175.6380  141.6600 C   0  0  1  0  0  3  0  0  0  0  0  0
  188.7610  173.3370  141.3990 C   0  0  0  0  0  0  0  0  0  0  0  0
  189.0070  175.6700  145.7510 N   0  0  0  0  0  2  0  0  0  0  0  0
  187.5140  176.8610  142.5930 C   0  0  1  0  0  3  0  0  0  0  0  0
  187.8160  176.1230  140.2200 C   0  0  0  0  0  2  0  0  0  0  0  0
  184.7320  178.1630  140.5600 O   0  0  0  0  0  0  0  0  0  0  0  0
  184.8980  177.7710  144.3400 C   0  0  1  0  0  3  0  0  0  0  0  0
  185.7860  177.5410  140.8740 C   0  0  0  0  0  0  0  0  0  0  0  0
  185.8060  177.3650  145.5090 C   0  0  2  0  0  3  0  0  0  0  0  0
  188.0940  176.6340  146.2500 C   0  0  0  0  0  0  0  0  0  0  0  0
  186.5370  176.8020  139.8370 C   0  0  0  0  0  0  0  0  0  0  0  0
  186.2440  177.5420  142.2440 N   0  0  0  0  0  0  0  0  0  0  0  0
  189.2700  172.2200  142.0670 O   0  0  0  0  0  0  0  0  0  0  0  0
  185.5160  178.3630  146.6100 C   0  0  0  0  0  2  0  0  0  0  0  0
  183.8150  178.6660  144.9230 C   0  0  0  0  0  2  0  0  0  0  0  0
  188.1750  173.1810  140.2950 O   0  0  0  0  0  0  0  0  0  0  0  0
  188.9410  175.8240  144.3120 C   0  0  2  0  0  3  0  0  0  0  0  0
  190.1780  172.3620  143.1560 C   0  0  0  0  0  2  0  0  0  0  0  0
  188.9410  174.7170  141.9970 C   0  0  2  0  0  3  0  0  0  0  0  0
  187.5480  176.3380  144.0280 C   0  0  1  0  0  3  0  0  0  0  0  0
  188.0100  176.9090  147.4770 O   0  0  0  0  0  0  0  0  0  0  0  0
  187.2980  177.3050  145.1770 C   0  0  1  0  0  3  0  0  0  0  0  0
  184.0660  178.7420  146.4160 C   0  0  0  0  0  2  0  0  0  0  0  0
  186.4490  179.6770  143.5060 C   0  0  0  0  0  1  0  0  0  0  0  0
  189.7810  173.5170  144.0270 C   0  0  0  0  0  3  0  0  0  0  0  0
  189.1960  174.6020  143.4950 C   0  0  0  0  0  0  0  0  0  0  0  0
  185.5760  178.4760  143.1550 C   0  0  2  0  0  3  0  0  0  0  0  0
  186.1040  176.7910  138.5740 C   0  0  0  0  0  3  0  0  0  0  0  0
  185.9400  176.0410  136.2420 C   0  0  0  0  0  1  0  0  0  0  0  0
  186.8240  176.0890  137.4710 C   0  0  0  0  0  2  0  0  0  0  0  0
  1  5  1  6  0  0  0
  1 19  1  0  0  0  0
  1  4  1  0  0  0  0
  2 13  1  0  0  0  0
  3 10  1  0  0  0  0
  4 12  1  6  0  0  0
  4 20  1  0  0  0  0
  6  8  2  0  0  0  0
  7 15  1  1  0  0  0
  7  9  1  0  0  0  0
  8 12  1  0  0  0  0
  9 14  1  1  0  0  0
 10 21  2  0  0  0  0
 11  5  1  0  0  0  0
 11  8  1  0  0  0  0
 12 27  1  0  0  0  0
 13 18  1  0  0  0  0
 15 23  1  0  0  0  0
 16  2  2  0  0  0  0
 17 26  1  6  0  0  0
 17  3  1  0  0  0  0
 18 25  1  0  0  0  0
 19  2  1  1  0  0  0
 19 26  1  0  0  0  0
 20 17  1  0  0  0  0
 20 22  1  0  0  0  0
 22  9  1  0  0  0  0
 22 10  1  0  0  0  0
 23 14  1  0  0  0  0
 26 25  2  0  0  0  0
 27 24  1  0  0  0  0
 27  7  1  0  0  0  0
 28 11  2  0  0  0  0
 29 30  1  0  0  0  0
 30 28  1  0  0  0  0
M  END
>  <MODEL>
6

>  <REMARK>
 VINA RESULT:      -8.1      1.801      6.996
  Name = 
  1 active torsions:
  status: ('A' for Active; 'I' for Inactive)
    1  A    between atoms: C_28  and  C_30
                            x       y       z     vdW  Elec       q    Type
                         _______ _______ _______ _____ _____    ______ ____

>  <TORSDO>
F 1

$$$$
=
 OpenBabel11112416203D

 30 35  0  0  1  0  0  0  0  0999 V2000
  189.1250  175.1910  142.7020 C   0  0  1  0  0  3  0  0  0  0  0  0
  187.2650  176.8800  142.3660 C   0  0  0  0  0  0  0  0  0  0  0  0
  189.8240  176.8370  146.5970 N   0  0  0  0  0  2  0  0  0  0  0  0
  190.1800  174.6050  143.6790 C   0  0  1  0  0  3  0  0  0  0  0  0
  188.6400  174.0870  141.7740 C   0  0  0  0  0  2  0  0  0  0  0  0
  192.1070  173.0310  140.9630 O   0  0  0  0  0  0  0  0  0  0  0  0
  193.4120  175.0980  143.8770 C   0  0  1  0  0  3  0  0  0  0  0  0
  191.1340  173.5270  141.5980 C   0  0  0  0  0  0  0  0  0  0  0  0
  193.0040  175.8310  145.1630 C   0  0  2  0  0  3  0  0  0  0  0  0
  191.1610  176.3970  146.7760 C   0  0  0  0  0  0  0  0  0  0  0  0
  189.7910  173.5500  140.9800 C   0  0  0  0  0  0  0  0  0  0  0  0
  191.3380  174.0800  142.9160 N   0  0  0  0  0  0  0  0  0  0  0  0
  186.6900  178.0680  142.8270 O   0  0  0  0  0  0  0  0  0  0  0  0
  194.1000  175.5290  146.1630 C   0  0  0  0  0  2  0  0  0  0  0  0
  194.8950  174.7880  144.0080 C   0  0  0  0  0  2  0  0  0  0  0  0
  187.2160  176.6080  141.1370 O   0  0  0  0  0  0  0  0  0  0  0  0
  189.3320  176.0460  145.4870 C   0  0  2  0  0  3  0  0  0  0  0  0
  186.4660  178.2880  144.2170 C   0  0  0  0  0  2  0  0  0  0  0  0
  187.9170  175.9290  143.3490 C   0  0  2  0  0  3  0  0  0  0  0  0
  190.5510  175.7180  144.6570 C   0  0  1  0  0  3  0  0  0  0  0  0
  191.8550  176.7440  147.7680 O   0  0  0  0  0  0  0  0  0  0  0  0
  191.6230  175.4600  145.7060 C   0  0  1  0  0  3  0  0  0  0  0  0
  195.3500  175.3710  145.3310 C   0  0  0  0  0  2  0  0  0  0  0  0
  192.5480  172.7790  144.6590 C   0  0  0  0  0  1  0  0  0  0  0  0
  187.6140  177.7630  145.0270 C   0  0  0  0  0  3  0  0  0  0  0  0
  188.2950  176.6800  144.6200 C   0  0  0  0  0  0  0  0  0  0  0  0
  192.6380  173.8140  143.5410 C   0  0  2  0  0  3  0  0  0  0  0  0
  189.6070  173.0500  139.7550 C   0  0  0  0  0  3  0  0  0  0  0  0
  188.1850  174.1600  138.0900 C   0  0  0  0  0  1  0  0  0  0  0  0
  188.2770  173.0170  139.0790 C   0  0  0  0  0  2  0  0  0  0  0  0
  1  5  1  1  0  0  0
  1 19  1  0  0  0  0
  1  4  1  0  0  0  0
  2 13  1  0  0  0  0
  3 10  1  0  0  0  0
  4 12  1  6  0  0  0
  4 20  1  0  0  0  0
  6  8  2  0  0  0  0
  7 15  1  1  0  0  0
  7  9  1  0  0  0  0
  8 12  1  0  0  0  0
  9 22  1  0  0  0  0
  9 14  1  1  0  0  0
 10 21  2  0  0  0  0
 11  8  1  0  0  0  0
 11  5  1  0  0  0  0
 12 27  1  0  0  0  0
 13 18  1  0  0  0  0
 15 23  1  0  0  0  0
 16  2  2  0  0  0  0
 17 26  1  6  0  0  0
 17  3  1  0  0  0  0
 18 25  1  0  0  0  0
 19  2  1  6  0  0  0
 19 26  1  0  0  0  0
 20 17  1  0  0  0  0
 20 22  1  0  0  0  0
 22 10  1  0  0  0  0
 23 14  1  0  0  0  0
 26 25  2  0  0  0  0
 27  7  1  0  0  0  0
 27 24  1  0  0  0  0
 28 11  2  0  0  0  0
 29 30  1  0  0  0  0
 30 28  1  0  0  0  0
M  END
>  <MODEL>
7

>  <REMARK>
 VINA RESULT:      -8.0      2.599      6.092
  Name = 
  1 active torsions:
  status: ('A' for Active; 'I' for Inactive)
    1  A    between atoms: C_28  and  C_30
                            x       y       z     vdW  Elec       q    Type
                         _______ _______ _______ _____ _____    ______ ____

>  <TORSDO>
F 1

$$$$
=
 OpenBabel11112416203D

 30 35  0  0  1  0  0  0  0  0999 V2000
  190.4340  174.6920  143.5220 C   0  0  1  0  0  3  0  0  0  0  0  0
  192.3230  173.0650  143.9780 C   0  0  0  0  0  0  0  0  0  0  0  0
  191.4760  176.8020  147.1030 N   0  0  0  0  0  2  0  0  0  0  0  0
  189.7100  175.9920  143.9650 C   0  0  1  0  0  3  0  0  0  0  0  0
  190.3500  174.5700  142.0070 C   0  0  0  0  0  2  0  0  0  0  0  0
  186.6920  175.2130  142.0000 O   0  0  0  0  0  0  0  0  0  0  0  0
  186.9060  176.4190  145.6020 C   0  0  1  0  0  3  0  0  0  0  0  0
  187.9000  175.2230  142.3720 C   0  0  0  0  0  0  0  0  0  0  0  0
  187.8690  176.8850  146.7020 C   0  0  2  0  0  3  0  0  0  0  0  0
  190.2350  177.4490  147.3370 C   0  0  0  0  0  0  0  0  0  0  0  0
  188.9160  174.4940  141.5830 C   0  0  0  0  0  0  0  0  0  0  0  0
  188.2820  175.9340  143.5700 N   0  0  0  0  0  0  0  0  0  0  0  0
  193.2280  172.5870  144.9320 O   0  0  0  0  0  0  0  0  0  0  0  0
  187.1660  178.0350  147.3920 C   0  0  0  0  0  2  0  0  0  0  0  0
  185.5360  176.9750  145.9610 C   0  0  0  0  0  2  0  0  0  0  0  0
  191.8820  172.2780  143.0990 O   0  0  0  0  0  0  0  0  0  0  0  0
  191.3910  176.3460  145.7300 C   0  0  2  0  0  3  0  0  0  0  0  0
  193.9680  173.4810  145.7580 C   0  0  0  0  0  2  0  0  0  0  0  0
  191.9050  174.5210  144.0010 C   0  0  2  0  0  3  0  0  0  0  0  0
  189.9170  176.1260  145.4730 C   0  0  1  0  0  3  0  0  0  0  0  0
  190.0140  178.1220  148.3770 O   0  0  0  0  0  0  0  0  0  0  0  0
  189.2620  177.2840  146.2130 C   0  0  1  0  0  3  0  0  0  0  0  0
  185.6950  177.7160  147.2750 C   0  0  0  0  0  2  0  0  0  0  0  0
  187.5600  178.2890  143.9260 C   0  0  0  0  0  1  0  0  0  0  0  0
  193.1100  174.6320  146.1940 C   0  0  0  0  0  3  0  0  0  0  0  0
  192.1460  175.1050  145.3880 C   0  0  0  0  0  0  0  0  0  0  0  0
  187.2650  176.8100  144.1600 C   0  0  2  0  0  3  0  0  0  0  0  0
  188.5590  173.8260  140.4830 C   0  0  0  0  0  3  0  0  0  0  0  0
  189.4870  173.6470  138.2180 C   0  0  0  0  0  1  0  0  0  0  0  0
  189.5310  173.0880  139.6240 C   0  0  0  0  0  2  0  0  0  0  0  0
  1  5  1  6  0  0  0
  1  4  1  0  0  0  0
  1 19  1  0  0  0  0
  2 13  1  0  0  0  0
  3 10  1  0  0  0  0
  4 12  1  1  0  0  0
  4 20  1  0  0  0  0
  6  8  2  0  0  0  0
  7 15  1  1  0  0  0
  7  9  1  0  0  0  0
  8 12  1  0  0  0  0
  9 14  1  6  0  0  0
 10 21  2  0  0  0  0
 11  5  1  0  0  0  0
 11  8  1  0  0  0  0
 12 27  1  0  0  0  0
 13 18  1  0  0  0  0
 15 23  1  0  0  0  0
 16  2  2  0  0  0  0
 17 26  1  1  0  0  0
 17  3  1  0  0  0  0
 18 25  1  0  0  0  0
 19  2  1  1  0  0  0
 19 26  1  0  0  0  0
 20 17  1  0  0  0  0
 20 22  1  0  0  0  0
 22  9  1  0  0  0  0
 22 10  1  0  0  0  0
 23 14  1  0  0  0  0
 24 27  1  0  0  0  0
 26 25  2  0  0  0  0
 27  7  1  0  0  0  0
 28 11  2  0  0  0  0
 29 30  1  0  0  0  0
 30 28  1  0  0  0  0
M  END
>  <MODEL>
8

>  <REMARK>
 VINA RESULT:      -7.8      2.571      7.614
  Name = 
  1 active torsions:
  status: ('A' for Active; 'I' for Inactive)
    1  A    between atoms: C_28  and  C_30
                            x       y       z     vdW  Elec       q    Type
                         _______ _______ _______ _____ _____    ______ ____

>  <TORSDO>
F 1

$$$$
=
 OpenBabel11112416203D

 30 35  0  0  1  0  0  0  0  0999 V2000
  188.3200  177.2750  144.9680 C   0  0  1  0  0  3  0  0  0  0  0  0
  186.1780  178.3500  145.7940 C   0  0  0  0  0  0  0  0  0  0  0  0
  186.6310  177.0930  141.0330 N   0  0  0  0  0  2  0  0  0  0  0  0
  189.1130  176.7460  143.7420 C   0  0  1  0  0  3  0  0  0  0  0  0
  189.2990  177.8370  145.9880 C   0  0  0  0  0  2  0  0  0  0  0  0
  191.4370  174.8040  145.8410 O   0  0  0  0  0  0  0  0  0  0  0  0
  189.6210  173.6860  142.6900 C   0  0  1  0  0  3  0  0  0  0  0  0
  190.6110  175.6940  145.4900 C   0  0  0  0  0  0  0  0  0  0  0  0
  188.6880  174.1490  141.5630 C   0  0  2  0  0  3  0  0  0  0  0  0
  187.4430  176.0580  140.5020 C   0  0  0  0  0  0  0  0  0  0  0  0
  190.2310  176.7580  146.4450 C   0  0  0  0  0  0  0  0  0  0  0  0
  190.0330  175.6630  144.1670 N   0  0  0  0  0  0  0  0  0  0  0  0
  184.8350  178.6110  145.5070 O   0  0  0  0  0  0  0  0  0  0  0  0
  189.2220  173.4960  140.3050 C   0  0  0  0  0  2  0  0  0  0  0  0
  190.3590  172.4640  142.1680 C   0  0  0  0  0  2  0  0  0  0  0  0
  186.5290  178.1720  146.9900 O   0  0  0  0  0  0  0  0  0  0  0  0
  187.3270  177.5160  142.2320 C   0  0  2  0  0  3  0  0  0  0  0  0
  184.4350  179.0960  144.2280 C   0  0  0  0  0  2  0  0  0  0  0  0
  187.1920  178.3060  144.6690 C   0  0  2  0  0  3  0  0  0  0  0  0
  188.0860  176.2970  142.7050 C   0  0  1  0  0  3  0  0  0  0  0  0
  187.2400  175.5620  139.3620 O   0  0  0  0  0  0  0  0  0  0  0  0
  188.5670  175.6660  141.4070 C   0  0  1  0  0  3  0  0  0  0  0  0
  189.8300  172.1950  140.7720 C   0  0  0  0  0  2  0  0  0  0  0  0
  191.4840  175.4130  142.1600 C   0  0  0  0  0  1  0  0  0  0  0  0
  185.2140  178.4200  143.1390 C   0  0  0  0  0  3  0  0  0  0  0  0
  186.4850  178.0420  143.3460 C   0  0  0  0  0  0  0  0  0  0  0  0
  190.6300  174.7190  143.2170 C   0  0  2  0  0  3  0  0  0  0  0  0
  190.7570  176.7770  147.6730 C   0  0  0  0  0  3  0  0  0  0  0  0
  191.5660  177.9230  149.6860 C   0  0  0  0  0  1  0  0  0  0  0  0
  190.4390  177.8320  148.6790 C   0  0  0  0  0  2  0  0  0  0  0  0
  1  5  1  1  0  0  0
  2 16  2  0  0  0  0
  4 12  1  1  0  0  0
  4  1  1  0  0  0  0
  5 11  1  0  0  0  0
  7 15  1  6  0  0  0
  7 27  1  0  0  0  0
  8  6  2  0  0  0  0
  8 11  1  0  0  0  0
  9 14  1  6  0  0  0
  9  7  1  0  0  0  0
 10  3  1  0  0  0  0
 10 22  1  0  0  0  0
 11 28  2  0  0  0  0
 12  8  1  0  0  0  0
 13  2  1  0  0  0  0
 14 23  1  0  0  0  0
 17  3  1  6  0  0  0
 17 20  1  0  0  0  0
 17 26  1  0  0  0  0
 18 13  1  0  0  0  0
 19 26  1  6  0  0  0
 19  1  1  0  0  0  0
 19  2  1  0  0  0  0
 20  4  1  0  0  0  0
 21 10  2  0  0  0  0
 22  9  1  0  0  0  0
 22 20  1  0  0  0  0
 23 15  1  0  0  0  0
 24 27  1  0  0  0  0
 25 26  2  0  0  0  0
 25 18  1  0  0  0  0
 27 12  1  0  0  0  0
 28 30  1  0  0  0  0
 30 29  1  0  0  0  0
M  END
>  <MODEL>
9

>  <REMARK>
 VINA RESULT:      -7.7      1.975      2.731
  Name = 
  1 active torsions:
  status: ('A' for Active; 'I' for Inactive)
    1  A    between atoms: C_28  and  C_30
                            x       y       z     vdW  Elec       q    Type
                         _______ _______ _______ _____ _____    ______ ____

>  <TORSDO>
F 1

$$$$
