=
 OpenBabel11112417203D

 37 43  0  0  1  0  0  0  0  0999 V2000
  189.1980  172.8800  139.0160 C   0  0  0  0  0  0  0  0  0  0  0  0
  187.7910  176.2340  141.1010 C   0  0  0  0  0  0  0  0  0  0  0  0
  187.9060  175.7850  144.9710 O   0  0  0  0  0  0  0  0  0  0  0  0
  187.8600  175.0790  138.9840 C   0  0  0  0  0  0  0  0  0  0  0  0
  188.3660  176.0260  142.4600 C   0  0  1  0  0  3  0  0  0  0  0  0
  188.3230  175.2900  140.2780 C   0  0  0  0  0  0  0  0  0  0  0  0
  187.3830  176.1820  143.6890 C   0  0  2  0  0  3  0  0  0  0  0  0
  186.9130  175.9780  138.4700 C   0  0  0  0  0  3  0  0  0  0  0  0
  189.2890  174.4460  140.9910 C   0  0  2  0  0  3  0  0  0  0  0  0
  190.6250  173.1740  138.5870 C   0  0  0  0  0  1  0  0  0  0  0  0
  186.3940  178.3210  141.4240 C   0  0  0  0  0  2  0  0  0  0  0  0
  186.4480  177.0430  139.2710 C   0  0  0  0  0  3  0  0  0  0  0  0
  189.0740  172.9990  140.5520 C   0  0  0  0  0  2  0  0  0  0  0  0
  190.1410  175.1260  145.9340 C   0  0  1  0  0  3  0  0  0  0  0  0
  189.3020  175.8700  144.9330 C   0  0  1  0  0  3  0  0  0  0  0  0
  186.8790  177.1750  140.6050 C   0  0  0  0  0  0  0  0  0  0  0  0
  188.9680  174.6670  142.4020 N   0  0  1  0  0  0  0  0  0  0  0  0
  188.2330  173.8180  138.2490 C   0  0  0  0  0  2  0  0  0  0  0  0
  186.7830  177.5990  143.7800 C   0  0  1  0  0  3  0  0  0  0  0  0
  188.8780  171.4530  138.6240 C   0  0  0  0  0  1  0  0  0  0  0  0
  189.7110  174.4350  144.6410 C   0  0  1  0  0  3  0  0  0  0  0  0
  190.1870  174.6290  143.2160 C   0  0  0  0  0  2  0  0  0  0  0  0
  185.7350  177.8400  142.7010 C   0  0  0  0  0  2  0  0  0  0  0  0
  184.8110  177.6880  145.3170 C   0  0  0  0  0  3  0  0  0  0  0  0
  186.1820  177.8930  145.1240 C   0  0  0  0  0  0  0  0  0  0  0  0
  186.9660  178.3780  146.1830 C   0  0  0  0  0  3  0  0  0  0  0  0
  187.2140  179.1670  148.5390 C   0  0  0  0  0  1  0  0  0  0  0  0
  185.0100  178.4460  147.6080 C   0  0  0  0  0  3  0  0  0  0  0  0
  186.3800  178.6530  147.4210 C   0  0  0  0  0  0  0  0  0  0  0  0
  184.2270  177.9650  146.5560 C   0  0  0  0  0  3  0  0  0  0  0  0
  194.4320  176.0380  145.7150 O   0  0  0  0  0  0  0  0  0  0  0  0
  194.0160  174.8530  145.8130 C   0  0  0  0  0  0  0  0  0  0  0  0
  191.5690  175.5610  145.8570 C   0  0  0  0  0  0  0  0  0  0  0  0
  192.6110  174.5760  145.8860 N   0  0  0  0  0  2  0  0  0  0  0  0
  191.8450  176.7900  145.8070 O   0  0  0  0  0  0  0  0  0  0  0  0
  196.3410  174.0520  145.8410 C   0  0  0  0  0  1  0  0  0  0  0  0
  194.9430  173.8110  145.8470 O   0  0  0  0  0  0  0  0  0  0  0  0
  1 13  1  0  0  0  0
  4  6  1  0  0  0  0
  5  2  1  6  0  0  0
  5  7  1  0  0  0  0
  6  9  1  0  0  0  0
  6  2  2  0  0  0  0
  7 19  1  0  0  0  0
  7  3  1  1  0  0  0
  8  4  2  0  0  0  0
  8 12  1  0  0  0  0
  9 13  1  6  0  0  0
  9 17  1  0  0  0  0
 10  1  1  0  0  0  0
 11 23  1  0  0  0  0
 12 16  2  0  0  0  0
 14 33  1  6  0  0  0
 15  3  1  1  0  0  0
 15 14  1  0  0  0  0
 16  2  1  0  0  0  0
 16 11  1  0  0  0  0
 17  5  1  0  0  0  0
 17 22  1  1  0  0  0
 18  4  1  0  0  0  0
 18  1  1  0  0  0  0
 19 25  1  1  0  0  0
 20  1  1  0  0  0  0
 21 22  1  6  0  0  0
 21 15  1  0  0  0  0
 21 14  1  0  0  0  0
 23 19  1  0  0  0  0
 24 30  1  0  0  0  0
 25 24  2  0  0  0  0
 25 26  1  0  0  0  0
 26 29  2  0  0  0  0
 29 28  1  0  0  0  0
 29 27  1  0  0  0  0
 30 28  2  0  0  0  0
 31 32  2  0  0  0  0
 32 37  1  0  0  0  0
 32 34  1  0  0  0  0
 33 34  1  0  0  0  0
 35 33  2  0  0  0  0
 36 37  1  0  0  0  0
M  END
>  <MODEL>
1

>  <REMARK>
 VINA RESULT:      -8.4      0.000      0.000
  Name = 
  3 active torsions:
  status: ('A' for Active; 'I' for Inactive)
    1  A    between atoms: C_4  and  O_37
    2  A    between atoms: C_8  and  C_18
    3  A    between atoms: C_23  and  C_30
                            x       y       z     vdW  Elec       q    Type
                         _______ _______ _______ _____ _____    ______ ____

>  <TORSDO>
F 3

$$$$
=
 OpenBabel11112417203D

 37 43  0  0  1  0  0  0  0  0999 V2000
  190.8260  170.4260  139.4820 C   0  0  0  0  0  0  0  0  0  0  0  0
  189.4130  174.0980  140.9300 C   0  0  0  0  0  0  0  0  0  0  0  0
  189.8710  174.4990  144.7800 O   0  0  0  0  0  0  0  0  0  0  0  0
  189.3720  172.5170  139.1080 C   0  0  0  0  0  0  0  0  0  0  0  0
  190.1090  174.2090  142.2440 C   0  0  1  0  0  3  0  0  0  0  0  0
  189.9270  173.0180  140.2800 C   0  0  0  0  0  0  0  0  0  0  0  0
  189.2230  174.5910  143.4960 C   0  0  2  0  0  3  0  0  0  0  0  0
  188.3380  173.2490  138.5050 C   0  0  0  0  0  3  0  0  0  0  0  0
  190.9930  172.3840  141.0630 C   0  0  2  0  0  3  0  0  0  0  0  0
  192.1950  170.6720  138.8710 C   0  0  0  0  0  1  0  0  0  0  0  0
  187.9350  176.1540  140.9310 C   0  0  0  0  0  2  0  0  0  0  0  0
  187.8820  174.4440  139.1010 C   0  0  0  0  0  3  0  0  0  0  0  0
  190.8220  170.8690  140.9620 C   0  0  0  0  0  2  0  0  0  0  0  0
  192.2100  174.1440  145.6510 C   0  0  1  0  0  3  0  0  0  0  0  0
  191.2520  174.6240  144.5960 C   0  0  1  0  0  3  0  0  0  0  0  0
  188.4140  174.8770  140.3320 C   0  0  0  0  0  0  0  0  0  0  0  0
  190.7770  172.8920  142.4190 N   0  0  1  0  0  0  0  0  0  0  0  0
  189.7510  171.1410  138.6260 C   0  0  0  0  0  2  0  0  0  0  0  0
  188.5560  175.9720  143.3400 C   0  0  1  0  0  3  0  0  0  0  0  0
  190.5530  168.9370  139.4330 C   0  0  0  0  0  1  0  0  0  0  0  0
  191.7140  173.1760  144.5790 C   0  0  1  0  0  3  0  0  0  0  0  0
  192.0590  173.0740  143.1080 C   0  0  0  0  0  2  0  0  0  0  0  0
  187.4110  175.9360  142.3350 C   0  0  0  0  0  2  0  0  0  0  0  0
  188.9700  177.0410  145.5640 C   0  0  0  0  0  3  0  0  0  0  0  0
  188.0520  176.5270  144.6410 C   0  0  0  0  0  0  0  0  0  0  0  0
  186.6830  176.5270  144.9520 C   0  0  0  0  0  3  0  0  0  0  0  0
  184.7910  177.0370  146.5000 C   0  0  0  0  0  1  0  0  0  0  0  0
  187.1620  177.5520  147.0920 C   0  0  0  0  0  3  0  0  0  0  0  0
  186.2410  177.0380  146.1750 C   0  0  0  0  0  0  0  0  0  0  0  0
  188.5260  177.5510  146.7870 C   0  0  0  0  0  3  0  0  0  0  0  0
  196.4190  175.1720  144.9340 O   0  0  0  0  0  0  0  0  0  0  0  0
  196.0950  174.1180  145.5400 C   0  0  0  0  0  0  0  0  0  0  0  0
  193.6010  174.6030  145.3530 C   0  0  0  0  0  0  0  0  0  0  0  0
  194.7140  173.8010  145.7670 N   0  0  0  0  0  2  0  0  0  0  0  0
  193.7830  175.7090  144.7750 O   0  0  0  0  0  0  0  0  0  0  0  0
  196.9860  171.8490  145.8630 C   0  0  0  0  0  1  0  0  0  0  0  0
  197.0980  173.2580  145.9870 O   0  0  0  0  0  0  0  0  0  0  0  0
  1 13  1  0  0  0  0
  4  6  1  0  0  0  0
  5  2  1  6  0  0  0
  5 17  1  0  0  0  0
  5  7  1  0  0  0  0
  6  2  2  0  0  0  0
  6  9  1  0  0  0  0
  7  3  1  1  0  0  0
  8 12  1  0  0  0  0
  8  4  2  0  0  0  0
  9 13  1  1  0  0  0
  9 17  1  0  0  0  0
 10  1  1  0  0  0  0
 11 23  1  0  0  0  0
 12 16  2  0  0  0  0
 14 33  1  6  0  0  0
 15  3  1  1  0  0  0
 15 14  1  0  0  0  0
 16  2  1  0  0  0  0
 16 11  1  0  0  0  0
 17 22  1  6  0  0  0
 18  4  1  0  0  0  0
 18  1  1  0  0  0  0
 19  7  1  0  0  0  0
 19 25  1  1  0  0  0
 20  1  1  0  0  0  0
 21 22  1  6  0  0  0
 21 15  1  0  0  0  0
 21 14  1  0  0  0  0
 23 19  1  0  0  0  0
 24 30  1  0  0  0  0
 25 26  1  0  0  0  0
 25 24  2  0  0  0  0
 26 29  2  0  0  0  0
 29 27  1  0  0  0  0
 29 28  1  0  0  0  0
 30 28  2  0  0  0  0
 31 32  2  0  0  0  0
 32 34  1  0  0  0  0
 32 37  1  0  0  0  0
 33 34  1  0  0  0  0
 35 33  2  0  0  0  0
 36 37  1  0  0  0  0
M  END
>  <MODEL>
2

>  <REMARK>
 VINA RESULT:      -8.2      1.703      2.735
  Name = 
  3 active torsions:
  status: ('A' for Active; 'I' for Inactive)
    1  A    between atoms: C_4  and  O_37
    2  A    between atoms: C_8  and  C_18
    3  A    between atoms: C_23  and  C_30
                            x       y       z     vdW  Elec       q    Type
                         _______ _______ _______ _____ _____    ______ ____

>  <TORSDO>
F 3

$$$$
=
 OpenBabel11112417203D

 37 43  0  0  1  0  0  0  0  0999 V2000
  195.2600  175.9250  143.1510 C   0  0  0  0  0  0  0  0  0  0  0  0
  191.7110  175.7390  145.3750 C   0  0  0  0  0  0  0  0  0  0  0  0
  188.5710  176.8190  143.3330 O   0  0  0  0  0  0  0  0  0  0  0  0
  194.1210  175.8010  145.4570 C   0  0  0  0  0  0  0  0  0  0  0  0
  190.6690  175.7150  144.3090 C   0  0  1  0  0  3  0  0  0  0  0  0
  192.9240  175.6250  144.7700 C   0  0  0  0  0  0  0  0  0  0  0  0
  189.4570  176.7170  144.4650 C   0  0  2  0  0  3  0  0  0  0  0  0
  194.0630  175.9530  146.8500 C   0  0  0  0  0  3  0  0  0  0  0  0
  192.7830  175.4760  143.3180 C   0  0  2  0  0  3  0  0  0  0  0  0
  195.5880  174.5130  142.6970 C   0  0  0  0  0  1  0  0  0  0  0  0
  190.3140  175.8090  147.4860 C   0  0  0  0  0  2  0  0  0  0  0  0
  192.8150  175.9420  147.5080 C   0  0  0  0  0  3  0  0  0  0  0  0
  193.8570  176.3280  142.6440 C   0  0  0  0  0  2  0  0  0  0  0  0
  188.2110  175.6090  141.1510 C   0  0  1  0  0  3  0  0  0  0  0  0
  188.6590  175.6400  142.5860 C   0  0  1  0  0  3  0  0  0  0  0  0
  191.6190  175.8430  146.7700 C   0  0  0  0  0  0  0  0  0  0  0  0
  191.4250  175.9540  143.0500 N   0  0  1  0  0  0  0  0  0  0  0  0
  195.4020  176.0080  144.6920 C   0  0  0  0  0  2  0  0  0  0  0  0
  188.6440  176.4530  145.7480 C   0  0  1  0  0  3  0  0  0  0  0  0
  196.2750  176.8620  142.5320 C   0  0  0  0  0  1  0  0  0  0  0  0
  189.6420  176.0180  141.4890 C   0  0  1  0  0  3  0  0  0  0  0  0
  190.8200  175.1890  141.9550 C   0  0  0  0  0  2  0  0  0  0  0  0
  189.3930  176.9070  146.9950 C   0  0  0  0  0  2  0  0  0  0  0  0
  186.2560  176.5490  146.4890 C   0  0  0  0  0  3  0  0  0  0  0  0
  187.2890  177.1010  145.7240 C   0  0  0  0  0  0  0  0  0  0  0  0
  187.0400  178.2390  144.9410 C   0  0  0  0  0  3  0  0  0  0  0  0
  185.5080  180.0220  144.0960 C   0  0  0  0  0  1  0  0  0  0  0  0
  184.7390  178.2610  145.6930 C   0  0  0  0  0  3  0  0  0  0  0  0
  185.7680  178.8170  144.9270 C   0  0  0  0  0  0  0  0  0  0  0  0
  184.9830  177.1280  146.4730 C   0  0  0  0  0  3  0  0  0  0  0  0
  188.2000  171.6160  139.3200 O   0  0  0  0  0  0  0  0  0  0  0  0
  188.5200  172.6400  138.6620 C   0  0  0  0  0  0  0  0  0  0  0  0
  188.1640  174.2040  140.6400 C   0  0  0  0  0  0  0  0  0  0  0  0
  188.5150  173.9360  139.2770 N   0  0  0  0  0  2  0  0  0  0  0  0
  187.7790  173.2760  141.4020 O   0  0  0  0  0  0  0  0  0  0  0  0
  189.4930  173.5540  136.5960 C   0  0  0  0  0  1  0  0  0  0  0  0
  188.8840  172.4980  137.3220 O   0  0  0  0  0  0  0  0  0  0  0  0
  1 18  1  0  0  0  0
  2 16  1  0  0  0  0
  4  8  2  0  0  0  0
  5  7  1  0  0  0  0
  5  2  1  1  0  0  0
  6  2  2  0  0  0  0
  6  4  1  0  0  0  0
  7  3  1  6  0  0  0
  7 19  1  0  0  0  0
  8 12  1  0  0  0  0
  9 13  1  6  0  0  0
  9  6  1  0  0  0  0
 10  1  1  0  0  0  0
 13  1  1  0  0  0  0
 14 33  1  6  0  0  0
 14 21  1  0  0  0  0
 14 15  1  0  0  0  0
 15  3  1  1  0  0  0
 16 11  1  0  0  0  0
 16 12  2  0  0  0  0
 17 22  1  6  0  0  0
 17  9  1  0  0  0  0
 17  5  1  0  0  0  0
 18  4  1  0  0  0  0
 19 25  1  6  0  0  0
 19 23  1  0  0  0  0
 20  1  1  0  0  0  0
 21 22  1  6  0  0  0
 21 15  1  0  0  0  0
 23 11  1  0  0  0  0
 25 24  2  0  0  0  0
 26 25  1  0  0  0  0
 27 29  1  0  0  0  0
 28 30  2  0  0  0  0
 29 26  2  0  0  0  0
 29 28  1  0  0  0  0
 30 24  1  0  0  0  0
 32 34  1  0  0  0  0
 32 31  2  0  0  0  0
 33 35  2  0  0  0  0
 34 33  1  0  0  0  0
 36 37  1  0  0  0  0
 37 32  1  0  0  0  0
M  END
>  <MODEL>
3

>  <REMARK>
 VINA RESULT:      -8.0      2.735      6.590
  Name = 
  3 active torsions:
  status: ('A' for Active; 'I' for Inactive)
    1  A    between atoms: C_4  and  O_37
    2  A    between atoms: C_8  and  C_18
    3  A    between atoms: C_23  and  C_30
                            x       y       z     vdW  Elec       q    Type
                         _______ _______ _______ _____ _____    ______ ____

>  <TORSDO>
F 3

$$$$
=
 OpenBabel11112417203D

 37 43  0  0  1  0  0  0  0  0999 V2000
  189.5980  175.7120  145.9370 C   0  0  0  0  0  0  0  0  0  0  0  0
  193.5430  174.4280  145.3290 C   0  0  0  0  0  0  0  0  0  0  0  0
  193.8230  170.5860  144.7300 O   0  0  0  0  0  0  0  0  0  0  0  0
  192.1180  176.1910  146.1560 C   0  0  0  0  0  0  0  0  0  0  0  0
  193.3470  173.1050  144.6700 C   0  0  1  0  0  3  0  0  0  0  0  0
  192.3240  175.0270  145.4230 C   0  0  0  0  0  0  0  0  0  0  0  0
  194.1710  171.8850  145.2460 C   0  0  2  0  0  3  0  0  0  0  0  0
  193.2430  176.8410  146.6870 C   0  0  0  0  0  3  0  0  0  0  0  0
  191.2770  174.2000  144.8150 C   0  0  2  0  0  3  0  0  0  0  0  0
  189.1040  176.3040  144.6280 C   0  0  0  0  0  1  0  0  0  0  0  0
  196.0600  174.5320  145.5860 C   0  0  0  0  0  2  0  0  0  0  0  0
  194.5300  176.2980  146.4860 C   0  0  0  0  0  3  0  0  0  0  0  0
  190.0460  174.2490  145.7180 C   0  0  0  0  0  2  0  0  0  0  0  0
  192.3850  169.6570  142.8790 C   0  0  1  0  0  3  0  0  0  0  0  0
  193.2350  170.7470  143.4700 C   0  0  1  0  0  3  0  0  0  0  0  0
  194.6900  175.0740  145.8080 C   0  0  0  0  0  0  0  0  0  0  0  0
  191.8810  172.8680  144.7470 N   0  0  1  0  0  0  0  0  0  0  0  0
  190.7180  176.6150  146.5130 C   0  0  0  0  0  2  0  0  0  0  0  0
  195.6930  172.1050  145.1370 C   0  0  1  0  0  3  0  0  0  0  0  0
  188.4430  175.7130  146.9150 C   0  0  0  0  0  1  0  0  0  0  0  0
  191.7490  170.7020  143.7920 C   0  0  1  0  0  3  0  0  0  0  0  0
  191.4280  172.1620  143.5440 C   0  0  0  0  0  2  0  0  0  0  0  0
  196.1900  173.1300  146.1470 C   0  0  0  0  0  2  0  0  0  0  0  0
  197.2120  170.3470  144.2090 C   0  0  0  0  0  3  0  0  0  0  0  0
  196.4790  170.8350  145.2960 C   0  0  0  0  0  0  0  0  0  0  0  0
  196.4790  170.1260  146.5070 C   0  0  0  0  0  3  0  0  0  0  0  0
  197.2080  168.1930  147.9110 C   0  0  0  0  0  1  0  0  0  0  0  0
  197.9410  168.4580  145.5370 C   0  0  0  0  0  3  0  0  0  0  0  0
  197.2100  168.9410  146.6260 C   0  0  0  0  0  0  0  0  0  0  0  0
  197.9410  169.1600  144.3290 C   0  0  0  0  0  3  0  0  0  0  0  0
  191.8220  170.6630  138.6400 O   0  0  0  0  0  0  0  0  0  0  0  0
  192.8600  171.0060  139.2640 C   0  0  0  0  0  0  0  0  0  0  0  0
  192.0780  169.9440  141.4440 C   0  0  0  0  0  0  0  0  0  0  0  0
  193.0240  170.6700  140.6490 N   0  0  0  0  0  2  0  0  0  0  0  0
  190.9740  169.5790  140.9570 O   0  0  0  0  0  0  0  0  0  0  0  0
  194.2510  173.0160  138.9940 C   0  0  0  0  0  1  0  0  0  0  0  0
  193.8530  171.7160  138.5890 O   0  0  0  0  0  0  0  0  0  0  0  0
  1 18  1  0  0  0  0
  1 20  1  0  0  0  0
  2  6  2  0  0  0  0
  2 16  1  0  0  0  0
  4 18  1  0  0  0  0
  4  8  2  0  0  0  0
  5 17  1  0  0  0  0
  5  7  1  0  0  0  0
  5  2  1  1  0  0  0
  6  4  1  0  0  0  0
  7  3  1  6  0  0  0
  9  6  1  0  0  0  0
  9 13  1  1  0  0  0
 10  1  1  0  0  0  0
 11 16  1  0  0  0  0
 11 23  1  0  0  0  0
 12  8  1  0  0  0  0
 13  1  1  0  0  0  0
 14 33  1  6  0  0  0
 14 15  1  0  0  0  0
 14 21  1  0  0  0  0
 15 21  1  0  0  0  0
 15  3  1  1  0  0  0
 16 12  2  0  0  0  0
 17 22  1  6  0  0  0
 17  9  1  0  0  0  0
 19  7  1  0  0  0  0
 19 25  1  1  0  0  0
 19 23  1  0  0  0  0
 21 22  1  6  0  0  0
 24 30  2  0  0  0  0
 24 25  1  0  0  0  0
 25 26  2  0  0  0  0
 26 29  1  0  0  0  0
 28 29  2  0  0  0  0
 29 27  1  0  0  0  0
 30 28  1  0  0  0  0
 31 32  2  0  0  0  0
 32 34  1  0  0  0  0
 34 33  1  0  0  0  0
 35 33  2  0  0  0  0
 37 36  1  0  0  0  0
 37 32  1  0  0  0  0
M  END
>  <MODEL>
4

>  <REMARK>
 VINA RESULT:      -7.9      4.108      9.602
  Name = 
  3 active torsions:
  status: ('A' for Active; 'I' for Inactive)
    1  A    between atoms: C_4  and  O_37
    2  A    between atoms: C_8  and  C_18
    3  A    between atoms: C_23  and  C_30
                            x       y       z     vdW  Elec       q    Type
                         _______ _______ _______ _____ _____    ______ ____

>  <TORSDO>
F 3

$$$$
=
 OpenBabel11112417203D

 37 43  0  0  1  0  0  0  0  0999 V2000
  186.4470  177.5790  143.4650 C   0  0  0  0  0  0  0  0  0  0  0  0
  190.1810  175.6740  143.5640 C   0  0  0  0  0  0  0  0  0  0  0  0
  190.2020  172.2590  141.6850 O   0  0  0  0  0  0  0  0  0  0  0  0
  188.7730  177.3690  144.5480 C   0  0  0  0  0  0  0  0  0  0  0  0
  190.0730  174.7080  142.4340 C   0  0  1  0  0  3  0  0  0  0  0  0
  189.0830  176.4780  143.5260 C   0  0  0  0  0  0  0  0  0  0  0  0
  190.4980  173.2130  142.7230 C   0  0  2  0  0  3  0  0  0  0  0  0
  189.7110  177.5410  145.5770 C   0  0  0  0  0  3  0  0  0  0  0  0
  188.2220  176.1500  142.3850 C   0  0  2  0  0  3  0  0  0  0  0  0
  186.5090  178.6490  142.3890 C   0  0  0  0  0  1  0  0  0  0  0  0
  192.4470  175.1070  144.5400 C   0  0  0  0  0  2  0  0  0  0  0  0
  190.9160  176.8060  145.5610 C   0  0  0  0  0  3  0  0  0  0  0  0
  186.7700  176.1970  142.8540 C   0  0  0  0  0  2  0  0  0  0  0  0
  189.3970  172.3150  139.2970 C   0  0  1  0  0  3  0  0  0  0  0  0
  190.1100  172.9380  140.4650 C   0  0  1  0  0  3  0  0  0  0  0  0
  191.1580  175.8530  144.5520 C   0  0  0  0  0  0  0  0  0  0  0  0
  188.6530  174.8050  142.0000 N   0  0  1  0  0  0  0  0  0  0  0  0
  187.3950  177.9720  144.6270 C   0  0  0  0  0  2  0  0  0  0  0  0
  191.9790  173.0980  143.1370 C   0  0  1  0  0  3  0  0  0  0  0  0
  185.0330  177.5410  144.0050 C   0  0  0  0  0  1  0  0  0  0  0  0
  188.6100  173.1390  140.3130 C   0  0  1  0  0  3  0  0  0  0  0  0
  188.5660  174.6350  140.5460 C   0  0  0  0  0  2  0  0  0  0  0  0
  192.2120  173.6100  144.5530 C   0  0  0  0  0  2  0  0  0  0  0  0
  192.2670  170.7940  144.0700 C   0  0  0  0  0  3  0  0  0  0  0  0
  192.5080  171.6960  143.0280 C   0  0  0  0  0  0  0  0  0  0  0  0
  193.2460  171.2820  141.9080 C   0  0  0  0  0  3  0  0  0  0  0  0
  194.5170  169.5400  140.6480 C   0  0  0  0  0  1  0  0  0  0  0  0
  193.4930  169.0780  142.8790 C   0  0  0  0  0  3  0  0  0  0  0  0
  193.7370  169.9750  141.8350 C   0  0  0  0  0  0  0  0  0  0  0  0
  192.7590  169.4880  143.9960 C   0  0  0  0  0  3  0  0  0  0  0  0
  190.4600  174.6900  135.7570 O   0  0  0  0  0  0  0  0  0  0  0  0
  191.2640  174.5410  136.7140 C   0  0  0  0  0  0  0  0  0  0  0  0
  189.6400  173.1000  138.0470 C   0  0  0  0  0  0  0  0  0  0  0  0
  190.8970  173.7630  137.8630 N   0  0  0  0  0  2  0  0  0  0  0  0
  188.7250  173.2040  137.1870 O   0  0  0  0  0  0  0  0  0  0  0  0
  192.7170  176.3970  136.0130 C   0  0  0  0  0  1  0  0  0  0  0  0
  192.5220  175.1400  136.6420 O   0  0  0  0  0  0  0  0  0  0  0  0
  1 20  1  0  0  0  0
  1 18  1  0  0  0  0
  2 16  1  0  0  0  0
  4 18  1  0  0  0  0
  4  8  2  0  0  0  0
  5  7  1  0  0  0  0
  5  2  1  1  0  0  0
  6  2  2  0  0  0  0
  6  4  1  0  0  0  0
  7  3  1  6  0  0  0
  7 19  1  0  0  0  0
  9 13  1  1  0  0  0
  9  6  1  0  0  0  0
 10  1  1  0  0  0  0
 11 16  1  0  0  0  0
 11 23  1  0  0  0  0
 12  8  1  0  0  0  0
 13  1  1  0  0  0  0
 14 33  1  6  0  0  0
 14 21  1  0  0  0  0
 14 15  1  0  0  0  0
 15  3  1  1  0  0  0
 16 12  2  0  0  0  0
 17 22  1  6  0  0  0
 17  9  1  0  0  0  0
 17  5  1  0  0  0  0
 19 25  1  1  0  0  0
 19 23  1  0  0  0  0
 21 15  1  0  0  0  0
 21 22  1  6  0  0  0
 25 24  2  0  0  0  0
 26 25  1  0  0  0  0
 27 29  1  0  0  0  0
 28 30  2  0  0  0  0
 29 26  2  0  0  0  0
 29 28  1  0  0  0  0
 30 24  1  0  0  0  0
 31 32  2  0  0  0  0
 32 34  1  0  0  0  0
 34 33  1  0  0  0  0
 35 33  2  0  0  0  0
 36 37  1  0  0  0  0
 37 32  1  0  0  0  0
M  END
>  <MODEL>
5

>  <REMARK>
 VINA RESULT:      -7.9      3.890      8.181
  Name = 
  3 active torsions:
  status: ('A' for Active; 'I' for Inactive)
    1  A    between atoms: C_4  and  O_37
    2  A    between atoms: C_8  and  C_18
    3  A    between atoms: C_23  and  C_30
                            x       y       z     vdW  Elec       q    Type
                         _______ _______ _______ _____ _____    ______ ____

>  <TORSDO>
F 3

$$$$
=
 OpenBabel11112417203D

 37 43  0  0  1  0  0  0  0  0999 V2000
  187.2540  176.8910  143.7810 C   0  0  0  0  0  0  0  0  0  0  0  0
  191.1850  176.0680  144.9830 C   0  0  0  0  0  0  0  0  0  0  0  0
  192.7300  172.9930  143.1510 O   0  0  0  0  0  0  0  0  0  0  0  0
  189.1280  177.2110  145.5160 C   0  0  0  0  0  0  0  0  0  0  0  0
  191.6900  175.2270  143.8600 C   0  0  1  0  0  3  0  0  0  0  0  0
  189.9620  176.5450  144.6240 C   0  0  0  0  0  0  0  0  0  0  0  0
  192.4270  173.8820  144.2430 C   0  0  2  0  0  3  0  0  0  0  0  0
  189.6400  177.5250  146.7840 C   0  0  0  0  0  3  0  0  0  0  0  0
  189.5980  176.1120  143.2710 C   0  0  2  0  0  3  0  0  0  0  0  0
  187.3110  178.0400  142.7890 C   0  0  0  0  0  1  0  0  0  0  0  0
  193.1390  176.0410  146.5930 C   0  0  0  0  0  2  0  0  0  0  0  0
  190.9570  177.1500  147.1240 C   0  0  0  0  0  3  0  0  0  0  0  0
  188.1230  175.7160  143.2770 C   0  0  0  0  0  2  0  0  0  0  0  0
  192.6640  173.0690  140.6320 C   0  0  1  0  0  3  0  0  0  0  0  0
  192.8000  173.7400  141.9700 C   0  0  1  0  0  3  0  0  0  0  0  0
  191.7430  176.4050  146.2230 C   0  0  0  0  0  0  0  0  0  0  0  0
  190.4900  174.9790  143.0160 N   0  0  1  0  0  0  0  0  0  0  0  0
  187.6730  177.4060  145.1810 C   0  0  0  0  0  2  0  0  0  0  0  0
  193.6940  174.1320  145.0870 C   0  0  1  0  0  3  0  0  0  0  0  0
  185.8180  176.4160  143.8640 C   0  0  0  0  0  1  0  0  0  0  0  0
  191.4160  173.5430  141.3730 C   0  0  1  0  0  3  0  0  0  0  0  0
  190.8770  174.9400  141.6030 C   0  0  0  0  0  2  0  0  0  0  0  0
  193.3520  174.5430  146.5130 C   0  0  0  0  0  2  0  0  0  0  0  0
  195.8610  173.0290  144.4970 C   0  0  0  0  0  3  0  0  0  0  0  0
  194.6130  172.9440  145.1230 C   0  0  0  0  0  0  0  0  0  0  0  0
  194.2360  171.7510  145.7610 C   0  0  0  0  0  3  0  0  0  0  0  0
  194.7040  169.3960  146.4480 C   0  0  0  0  0  1  0  0  0  0  0  0
  196.3520  170.7480  145.1450 C   0  0  0  0  0  3  0  0  0  0  0  0
  195.1050  170.6570  145.7710 C   0  0  0  0  0  0  0  0  0  0  0  0
  196.7290  171.9330  144.5080 C   0  0  0  0  0  3  0  0  0  0  0  0
  193.4410  175.6680  137.1770 O   0  0  0  0  0  0  0  0  0  0  0  0
  192.5970  174.7360  137.1210 C   0  0  0  0  0  0  0  0  0  0  0  0
  193.0190  174.0120  139.5270 C   0  0  0  0  0  0  0  0  0  0  0  0
  192.3590  173.8960  138.2600 N   0  0  0  0  0  2  0  0  0  0  0  0
  193.9210  174.8740  139.7080 O   0  0  0  0  0  0  0  0  0  0  0  0
  191.2320  175.5940  135.2640 C   0  0  0  0  0  1  0  0  0  0  0  0
  191.8910  174.5320  135.9350 O   0  0  0  0  0  0  0  0  0  0  0  0
  1 20  1  0  0  0  0
  1 18  1  0  0  0  0
  2 16  1  0  0  0  0
  4  8  2  0  0  0  0
  5  7  1  0  0  0  0
  5  2  1  1  0  0  0
  6  2  2  0  0  0  0
  6  4  1  0  0  0  0
  7  3  1  6  0  0  0
  7 19  1  0  0  0  0
  8 12  1  0  0  0  0
  9 13  1  1  0  0  0
  9  6  1  0  0  0  0
 10  1  1  0  0  0  0
 13  1  1  0  0  0  0
 14 33  1  6  0  0  0
 14 21  1  0  0  0  0
 14 15  1  0  0  0  0
 15  3  1  1  0  0  0
 16 11  1  0  0  0  0
 16 12  2  0  0  0  0
 17 22  1  6  0  0  0
 17  9  1  0  0  0  0
 17  5  1  0  0  0  0
 18  4  1  0  0  0  0
 19 25  1  1  0  0  0
 19 23  1  0  0  0  0
 21 22  1  6  0  0  0
 21 15  1  0  0  0  0
 23 11  1  0  0  0  0
 24 30  2  0  0  0  0
 24 25  1  0  0  0  0
 25 26  2  0  0  0  0
 26 29  1  0  0  0  0
 28 29  2  0  0  0  0
 29 27  1  0  0  0  0
 30 28  1  0  0  0  0
 32 31  2  0  0  0  0
 32 34  1  0  0  0  0
 33 35  2  0  0  0  0
 34 33  1  0  0  0  0
 36 37  1  0  0  0  0
 37 32  1  0  0  0  0
M  END
>  <MODEL>
6

>  <REMARK>
 VINA RESULT:      -7.7      3.399      8.249
  Name = 
  3 active torsions:
  status: ('A' for Active; 'I' for Inactive)
    1  A    between atoms: C_4  and  O_37
    2  A    between atoms: C_8  and  C_18
    3  A    between atoms: C_23  and  C_30
                            x       y       z     vdW  Elec       q    Type
                         _______ _______ _______ _____ _____    ______ ____

>  <TORSDO>
F 3

$$$$
=
 OpenBabel11112417203D

 37 43  0  0  1  0  0  0  0  0999 V2000
  186.3530  177.6590  143.6360 C   0  0  0  0  0  0  0  0  0  0  0  0
  190.0920  175.7650  143.7410 C   0  0  0  0  0  0  0  0  0  0  0  0
  190.2110  172.5040  141.6080 O   0  0  0  0  0  0  0  0  0  0  0  0
  188.6350  177.3740  144.7940 C   0  0  0  0  0  0  0  0  0  0  0  0
  190.0360  174.8880  142.5370 C   0  0  1  0  0  3  0  0  0  0  0  0
  188.9920  176.5660  143.7200 C   0  0  0  0  0  0  0  0  0  0  0  0
  190.4590  173.3760  142.7280 C   0  0  2  0  0  3  0  0  0  0  0  0
  189.5290  177.4690  145.8710 C   0  0  0  0  0  3  0  0  0  0  0  0
  188.1800  176.3230  142.5230 C   0  0  2  0  0  3  0  0  0  0  0  0
  186.4520  178.8090  142.6480 C   0  0  0  0  0  1  0  0  0  0  0  0
  192.3200  175.1310  144.7630 C   0  0  0  0  0  2  0  0  0  0  0  0
  190.7380  176.7420  145.8480 C   0  0  0  0  0  3  0  0  0  0  0  0
  186.7090  176.3300  142.9340 C   0  0  0  0  0  2  0  0  0  0  0  0
  189.5040  172.7410  139.2000 C   0  0  1  0  0  3  0  0  0  0  0  0
  190.1640  173.2740  140.4410 C   0  0  1  0  0  3  0  0  0  0  0  0
  191.0270  175.8710  144.7790 C   0  0  0  0  0  0  0  0  0  0  0  0
  188.6350  175.0130  142.0540 N   0  0  1  0  0  0  0  0  0  0  0  0
  187.2510  177.9650  144.8620 C   0  0  0  0  0  2  0  0  0  0  0  0
  191.9230  173.2350  143.1930 C   0  0  1  0  0  3  0  0  0  0  0  0
  184.9190  177.5750  144.1120 C   0  0  0  0  0  1  0  0  0  0  0  0
  188.6710  173.4820  140.2440 C   0  0  1  0  0  3  0  0  0  0  0  0
  188.6080  174.9560  140.5890 C   0  0  0  0  0  2  0  0  0  0  0  0
  192.0940  173.6370  144.6510 C   0  0  0  0  0  2  0  0  0  0  0  0
  192.1900  170.8680  143.9580 C   0  0  0  0  0  3  0  0  0  0  0  0
  192.4640  171.8470  142.9980 C   0  0  0  0  0  0  0  0  0  0  0  0
  193.2480  171.5220  141.8790 C   0  0  0  0  0  3  0  0  0  0  0  0
  194.5780  169.8860  140.5420 C   0  0  0  0  0  1  0  0  0  0  0  0
  193.4710  169.2510  142.6890 C   0  0  0  0  0  3  0  0  0  0  0  0
  193.7490  170.2260  141.7270 C   0  0  0  0  0  0  0  0  0  0  0  0
  192.6920  169.5720  143.8040 C   0  0  0  0  0  3  0  0  0  0  0  0
  189.9790  175.3430  135.6930 O   0  0  0  0  0  0  0  0  0  0  0  0
  188.8450  174.9420  136.0650 C   0  0  0  0  0  0  0  0  0  0  0  0
  189.7930  173.6210  138.0260 C   0  0  0  0  0  0  0  0  0  0  0  0
  188.7110  174.0910  137.2120 N   0  0  0  0  0  2  0  0  0  0  0  0
  190.9860  173.9090  137.7410 O   0  0  0  0  0  0  0  0  0  0  0  0
  186.9090  176.4290  135.7660 C   0  0  0  0  0  1  0  0  0  0  0  0
  187.7170  175.3410  135.3470 O   0  0  0  0  0  0  0  0  0  0  0  0
  1 20  1  0  0  0  0
  1 18  1  0  0  0  0
  2 16  1  0  0  0  0
  4 18  1  0  0  0  0
  4  8  2  0  0  0  0
  5  7  1  0  0  0  0
  5  2  1  1  0  0  0
  6  2  2  0  0  0  0
  6  4  1  0  0  0  0
  7  3  1  6  0  0  0
  7 19  1  0  0  0  0
  9 13  1  1  0  0  0
  9  6  1  0  0  0  0
 10  1  1  0  0  0  0
 11 16  1  0  0  0  0
 12  8  1  0  0  0  0
 13  1  1  0  0  0  0
 14 33  1  6  0  0  0
 14 21  1  0  0  0  0
 14 15  1  0  0  0  0
 15  3  1  1  0  0  0
 16 12  2  0  0  0  0
 17 22  1  6  0  0  0
 17  9  1  0  0  0  0
 17  5  1  0  0  0  0
 19 25  1  1  0  0  0
 19 23  1  0  0  0  0
 21 15  1  0  0  0  0
 21 22  1  6  0  0  0
 23 11  1  0  0  0  0
 25 24  2  0  0  0  0
 26 25  1  0  0  0  0
 27 29  1  0  0  0  0
 28 30  2  0  0  0  0
 29 26  2  0  0  0  0
 29 28  1  0  0  0  0
 30 24  1  0  0  0  0
 31 32  2  0  0  0  0
 32 34  1  0  0  0  0
 34 33  1  0  0  0  0
 35 33  2  0  0  0  0
 37 36  1  0  0  0  0
 37 32  1  0  0  0  0
M  END
>  <MODEL>
7

>  <REMARK>
 VINA RESULT:      -7.7      3.805      8.481
  Name = 
  3 active torsions:
  status: ('A' for Active; 'I' for Inactive)
    1  A    between atoms: C_4  and  O_37
    2  A    between atoms: C_8  and  C_18
    3  A    between atoms: C_23  and  C_30
                            x       y       z     vdW  Elec       q    Type
                         _______ _______ _______ _____ _____    ______ ____

>  <TORSDO>
F 3

$$$$
=
 OpenBabel11112417203D

 37 43  0  0  1  0  0  0  0  0999 V2000
  196.2810  175.4950  143.5670 C   0  0  0  0  0  0  0  0  0  0  0  0
  192.3620  175.7240  145.0400 C   0  0  0  0  0  0  0  0  0  0  0  0
  189.6710  175.7570  142.2200 O   0  0  0  0  0  0  0  0  0  0  0  0
  194.7040  176.0390  145.5280 C   0  0  0  0  0  0  0  0  0  0  0  0
  191.5590  175.2460  143.8780 C   0  0  1  0  0  3  0  0  0  0  0  0
  193.6760  175.5310  144.7410 C   0  0  0  0  0  0  0  0  0  0  0  0
  190.3120  176.1220  143.4570 C   0  0  2  0  0  3  0  0  0  0  0  0
  194.3620  176.6400  146.7480 C   0  0  0  0  0  3  0  0  0  0  0  0
  193.8350  174.8940  143.4290 C   0  0  2  0  0  3  0  0  0  0  0  0
  196.7330  174.0510  143.6950 C   0  0  0  0  0  1  0  0  0  0  0  0
  190.5660  176.3600  146.7080 C   0  0  0  0  0  2  0  0  0  0  0  0
  193.0070  176.7310  147.1330 C   0  0  0  0  0  3  0  0  0  0  0  0
  194.9980  175.5710  142.7080 C   0  0  0  0  0  2  0  0  0  0  0  0
  189.7930  173.8600  140.5640 C   0  0  1  0  0  3  0  0  0  0  0  0
  189.9410  174.4100  141.9550 C   0  0  1  0  0  3  0  0  0  0  0  0
  191.9880  176.2780  146.2710 C   0  0  0  0  0  0  0  0  0  0  0  0
  192.5470  175.1230  142.7730 N   0  0  1  0  0  0  0  0  0  0  0  0
  196.1070  176.1010  144.9820 C   0  0  0  0  0  2  0  0  0  0  0  0
  189.2650  176.2250  144.5840 C   0  0  1  0  0  3  0  0  0  0  0  0
  197.3740  176.2650  142.8560 C   0  0  0  0  0  1  0  0  0  0  0  0
  191.1140  174.4930  140.9920 C   0  0  1  0  0  3  0  0  0  0  0  0
  192.1970  173.9830  141.9200 C   0  0  0  0  0  2  0  0  0  0  0  0
  189.7330  177.1380  145.7100 C   0  0  0  0  0  2  0  0  0  0  0  0
  187.1480  175.8380  143.3080 C   0  0  0  0  0  3  0  0  0  0  0  0
  187.9250  176.6960  144.0930 C   0  0  0  0  0  0  0  0  0  0  0  0
  187.4480  177.9800  144.3980 C   0  0  0  0  0  3  0  0  0  0  0  0
  185.7010  179.7580  144.2450 C   0  0  0  0  0  1  0  0  0  0  0  0
  185.4300  177.5360  143.1360 C   0  0  0  0  0  3  0  0  0  0  0  0
  186.2030  178.3980  143.9200 C   0  0  0  0  0  0  0  0  0  0  0  0
  185.9030  176.2580  142.8300 C   0  0  0  0  0  3  0  0  0  0  0  0
  190.2190  169.5000  140.2340 O   0  0  0  0  0  0  0  0  0  0  0  0
  190.5130  170.2640  139.2770 C   0  0  0  0  0  0  0  0  0  0  0  0
  189.8890  172.3670  140.5710 C   0  0  0  0  0  0  0  0  0  0  0  0
  190.3650  171.6850  139.4040 N   0  0  0  0  0  2  0  0  0  0  0  0
  189.5160  171.7230  141.5870 O   0  0  0  0  0  0  0  0  0  0  0  0
  190.3990  170.0040  136.8340 C   0  0  0  0  0  1  0  0  0  0  0  0
  190.9910  169.7080  138.0900 O   0  0  0  0  0  0  0  0  0  0  0  0
  1 10  1  0  0  0  0
  1 18  1  0  0  0  0
  2 16  1  0  0  0  0
  4  8  2  0  0  0  0
  5  2  1  1  0  0  0
  6  2  2  0  0  0  0
  6  4  1  0  0  0  0
  7  3  1  6  0  0  0
  7  5  1  0  0  0  0
  7 19  1  0  0  0  0
  8 12  1  0  0  0  0
  9 13  1  6  0  0  0
  9  6  1  0  0  0  0
 13  1  1  0  0  0  0
 14 33  1  1  0  0  0
 14 21  1  0  0  0  0
 14 15  1  0  0  0  0
 15  3  1  6  0  0  0
 16 11  1  0  0  0  0
 16 12  2  0  0  0  0
 17 22  1  6  0  0  0
 17  9  1  0  0  0  0
 17  5  1  0  0  0  0
 18  4  1  0  0  0  0
 19 25  1  6  0  0  0
 19 23  1  0  0  0  0
 20  1  1  0  0  0  0
 21 22  1  1  0  0  0
 21 15  1  0  0  0  0
 23 11  1  0  0  0  0
 24 25  1  0  0  0  0
 25 26  2  0  0  0  0
 28 29  2  0  0  0  0
 29 27  1  0  0  0  0
 29 26  1  0  0  0  0
 30 28  1  0  0  0  0
 30 24  2  0  0  0  0
 32 34  1  0  0  0  0
 32 31  2  0  0  0  0
 33 35  2  0  0  0  0
 34 33  1  0  0  0  0
 36 37  1  0  0  0  0
 37 32  1  0  0  0  0
M  END
>  <MODEL>
8

>  <REMARK>
 VINA RESULT:      -7.7      3.031      6.839
  Name = 
  3 active torsions:
  status: ('A' for Active; 'I' for Inactive)
    1  A    between atoms: C_4  and  O_37
    2  A    between atoms: C_8  and  C_18
    3  A    between atoms: C_23  and  C_30
                            x       y       z     vdW  Elec       q    Type
                         _______ _______ _______ _____ _____    ______ ____

>  <TORSDO>
F 3

$$$$
=
 OpenBabel11112417203D

 37 43  0  0  1  0  0  0  0  0999 V2000
  188.4120  176.8080  145.9830 C   0  0  0  0  0  0  0  0  0  0  0  0
  192.0180  174.8330  145.1590 C   0  0  0  0  0  0  0  0  0  0  0  0
  191.5060  171.3870  143.4110 O   0  0  0  0  0  0  0  0  0  0  0  0
  190.9360  176.5720  146.4350 C   0  0  0  0  0  0  0  0  0  0  0  0
  191.6090  173.8500  144.1160 C   0  0  1  0  0  3  0  0  0  0  0  0
  190.9590  175.6580  145.3870 C   0  0  0  0  0  0  0  0  0  0  0  0
  192.0730  172.3530  144.3180 C   0  0  2  0  0  3  0  0  0  0  0  0
  192.1090  176.7430  147.1850 C   0  0  0  0  0  3  0  0  0  0  0  0
  189.8290  175.3270  144.5130 C   0  0  2  0  0  3  0  0  0  0  0  0
  188.2100  177.8580  144.9030 C   0  0  0  0  0  1  0  0  0  0  0  0
  194.4510  174.2390  145.5320 C   0  0  0  0  0  2  0  0  0  0  0  0
  193.2590  175.9850  146.8750 C   0  0  0  0  0  3  0  0  0  0  0  0
  188.5470  175.4100  145.3390 C   0  0  0  0  0  2  0  0  0  0  0  0
  190.1140  171.4180  141.3100 C   0  0  1  0  0  3  0  0  0  0  0  0
  191.1130  172.0460  142.2420 C   0  0  1  0  0  3  0  0  0  0  0  0
  193.2190  175.0110  145.8590 C   0  0  0  0  0  0  0  0  0  0  0  0
  190.1270  173.9670  144.0600 N   0  0  1  0  0  0  0  0  0  0  0  0
  189.6330  177.2020  146.8530 C   0  0  0  0  0  2  0  0  0  0  0  0
  193.6090  172.2160  144.3400 C   0  0  1  0  0  3  0  0  0  0  0  0
  187.1840  176.8060  146.8680 C   0  0  0  0  0  1  0  0  0  0  0  0
  189.6280  172.2740  142.4770 C   0  0  1  0  0  3  0  0  0  0  0  0
  189.6670  173.7750  142.6810 C   0  0  0  0  0  2  0  0  0  0  0  0
  194.2050  172.7480  145.6370 C   0  0  0  0  0  2  0  0  0  0  0  0
  194.2370  169.9670  145.2380 C   0  0  0  0  0  3  0  0  0  0  0  0
  194.0720  170.8030  144.1280 C   0  0  0  0  0  0  0  0  0  0  0  0
  194.3520  170.3130  142.8430 C   0  0  0  0  0  3  0  0  0  0  0  0
  195.0870  168.4820  141.3120 C   0  0  0  0  0  1  0  0  0  0  0  0
  194.9540  168.1660  143.7860 C   0  0  0  0  0  3  0  0  0  0  0  0
  194.7920  168.9970  142.6740 C   0  0  0  0  0  0  0  0  0  0  0  0
  194.6780  168.6510  145.0670 C   0  0  0  0  0  3  0  0  0  0  0  0
  190.2640  173.7100  137.5660 O   0  0  0  0  0  0  0  0  0  0  0  0
  191.2860  173.5630  138.2870 C   0  0  0  0  0  0  0  0  0  0  0  0
  190.0390  172.1770  140.0230 C   0  0  0  0  0  0  0  0  0  0  0  0
  191.2160  172.8120  139.5080 N   0  0  0  0  0  2  0  0  0  0  0  0
  188.9350  172.2820  139.4250 O   0  0  0  0  0  0  0  0  0  0  0  0
  193.5470  174.3860  138.7960 C   0  0  0  0  0  1  0  0  0  0  0  0
  192.4910  174.1370  137.8810 O   0  0  0  0  0  0  0  0  0  0  0  0
  1 18  1  0  0  0  0
  1 20  1  0  0  0  0
  2  6  2  0  0  0  0
  2 16  1  0  0  0  0
  4 18  1  0  0  0  0
  4  8  2  0  0  0  0
  5  7  1  0  0  0  0
  5  2  1  1  0  0  0
  6  4  1  0  0  0  0
  7  3  1  6  0  0  0
  7 19  1  0  0  0  0
  9 13  1  1  0  0  0
  9  6  1  0  0  0  0
 10  1  1  0  0  0  0
 11 23  1  0  0  0  0
 11 16  1  0  0  0  0
 12  8  1  0  0  0  0
 13  1  1  0  0  0  0
 14 33  1  6  0  0  0
 14 15  1  0  0  0  0
 14 21  1  0  0  0  0
 15 21  1  0  0  0  0
 15  3  1  1  0  0  0
 16 12  2  0  0  0  0
 17 22  1  6  0  0  0
 17  5  1  0  0  0  0
 17  9  1  0  0  0  0
 19 25  1  1  0  0  0
 19 23  1  0  0  0  0
 21 22  1  6  0  0  0
 25 24  2  0  0  0  0
 26 25  1  0  0  0  0
 27 29  1  0  0  0  0
 28 30  2  0  0  0  0
 29 26  2  0  0  0  0
 29 28  1  0  0  0  0
 30 24  1  0  0  0  0
 31 32  2  0  0  0  0
 32 34  1  0  0  0  0
 34 33  1  0  0  0  0
 35 33  2  0  0  0  0
 37 32  1  0  0  0  0
 37 36  1  0  0  0  0
M  END
>  <MODEL>
9

>  <REMARK>
 VINA RESULT:      -7.6      3.805      8.847
  Name = 
  3 active torsions:
  status: ('A' for Active; 'I' for Inactive)
    1  A    between atoms: C_4  and  O_37
    2  A    between atoms: C_8  and  C_18
    3  A    between atoms: C_23  and  C_30
                            x       y       z     vdW  Elec       q    Type
                         _______ _______ _______ _____ _____    ______ ____

>  <TORSDO>
F 3

$$$$
