=
 OpenBabel11112416523D

 31 35  0  0  1  0  0  0  0  0999 V2000
  185.8070  177.9480  146.9770 C   0  0  0  0  0  0  0  0  0  0  0  0
  188.2300  175.3630  145.5870 C   0  0  2  0  0  3  0  0  0  0  0  0
  188.2720  175.5880  144.0810 C   0  0  0  0  0  0  0  0  0  0  0  0
  187.3050  176.4960  142.0410 C   0  0  0  0  0  0  0  0  0  0  0  0
  187.6890  176.5560  146.3370 C   0  0  0  0  0  0  0  0  0  0  0  0
  186.6730  178.8180  147.6430 C   0  0  0  0  0  3  0  0  0  0  0  0
  187.2700  176.3230  143.4260 C   0  0  0  0  0  3  0  0  0  0  0  0
  190.4940  176.1680  146.1470 N   0  0  0  0  0  0  0  0  0  0  0  0
  184.0880  178.2740  146.9510 Cl  0  0  0  0  0  0  0  0  0  0  0  0
  190.2790  174.2160  143.9240 O   0  0  0  0  0  0  0  0  0  0  0  0
  186.2920  177.2550  141.3930 N   0  0  0  0  0  1  0  0  0  0  0  0
  190.0130  177.0960  147.1750 C   0  0  0  0  0  2  0  0  0  0  0  0
  189.6200  174.9790  146.1420 C   0  0  2  0  0  3  0  0  0  0  0  0
  186.3130  176.8190  146.3280 C   0  0  0  0  0  3  0  0  0  0  0  0
  188.3340  175.9220  141.2910 C   0  0  0  0  0  3  0  0  0  0  0  0
  188.5590  177.4350  147.0110 C   0  0  0  0  0  0  0  0  0  0  0  0
  188.0450  178.5550  147.6700 C   0  0  0  0  0  3  0  0  0  0  0  0
  190.1900  173.8330  145.2930 C   0  0  0  0  0  2  0  0  0  0  0  0
  189.2870  174.9850  143.3100 C   0  0  0  0  0  0  0  0  0  0  0  0
  189.3220  175.1660  141.9250 C   0  0  0  0  0  3  0  0  0  0  0  0
  191.8430  175.7880  146.5590 C   0  0  0  0  0  2  0  0  0  0  0  0
  194.1300  176.8060  146.5470 C   0  0  0  0  0  1  0  0  0  0  0  0
  192.8720  176.5500  145.7340 C   0  0  1  0  0  3  0  0  0  0  0  0
  193.6340  174.2960  142.1880 N   0  0  0  0  0  0  0  0  0  0  0  0
  193.8890  174.5750  144.5940 C   0  0  0  0  0  2  0  0  0  0  0  0
  192.0010  177.3390  143.0980 O   0  0  0  0  0  0  0  0  0  0  0  0
  194.3260  173.8300  141.0010 C   0  0  0  0  0  1  0  0  0  0  0  0
  194.5950  174.2320  143.2850 C   0  0  0  0  0  2  0  0  0  0  0  0
  192.7540  176.3350  143.1960 C   0  0  0  0  0  0  0  0  0  0  0  0
  193.1780  175.8480  144.4870 N   0  0  0  0  0  0  0  0  0  0  0  0
  193.2930  175.6960  141.9500 C   0  0  0  0  0  2  0  0  0  0  0  0
  1  6  1  0  0  0  0
  2  3  1  6  0  0  0
  2 13  1  0  0  0  0
  2  5  1  0  0  0  0
  4  7  2  0  0  0  0
  5 16  2  0  0  0  0
  6 17  2  0  0  0  0
  7  3  1  0  0  0  0
  8 21  1  0  0  0  0
  8 12  1  0  0  0  0
  9  1  1  0  0  0  0
 10 18  1  0  0  0  0
 11  4  1  0  0  0  0
 13 18  1  6  0  0  0
 13  8  1  0  0  0  0
 14  5  1  0  0  0  0
 14  1  2  0  0  0  0
 15 20  2  0  0  0  0
 15  4  1  0  0  0  0
 16 12  1  0  0  0  0
 16 17  1  0  0  0  0
 19 10  1  0  0  0  0
 19  3  2  0  0  0  0
 20 19  1  0  0  0  0
 23 22  1  1  0  0  0
 23 21  1  0  0  0  0
 24 28  1  0  0  0  0
 26 29  2  0  0  0  0
 27 24  1  0  0  0  0
 28 25  1  0  0  0  0
 29 30  1  0  0  0  0
 30 25  1  0  0  0  0
 30 23  1  0  0  0  0
 31 24  1  0  0  0  0
 31 29  1  0  0  0  0
M  END
>  <MODEL>
1

>  <REMARK>
 VINA RESULT:      -7.3      0.000      0.000
  Name = 
  3 active torsions:
  status: ('A' for Active; 'I' for Inactive)
    1  A    between atoms: C_5  and  C_16
    2  A    between atoms: C_5  and  N_30
    3  A    between atoms: N_10  and  C_16
                            x       y       z     vdW  Elec       q    Type
                         _______ _______ _______ _____ _____    ______ ____

>  <TORSDO>
F 3

$$$$
=
 OpenBabel11112416523D

 31 35  0  0  1  0  0  0  0  0999 V2000
  192.0250  171.2970  143.1020 C   0  0  0  0  0  0  0  0  0  0  0  0
  191.4710  173.8590  145.8610 C   0  0  2  0  0  3  0  0  0  0  0  0
  192.6720  174.7960  145.8160 C   0  0  0  0  0  0  0  0  0  0  0  0
  194.9580  175.2900  145.1450 C   0  0  0  0  0  0  0  0  0  0  0  0
  191.2980  173.0780  144.5820 C   0  0  0  0  0  0  0  0  0  0  0  0
  191.0550  171.6710  142.1690 C   0  0  0  0  0  3  0  0  0  0  0  0
  193.8550  174.4340  145.1520 C   0  0  0  0  0  3  0  0  0  0  0  0
  189.7510  175.4150  145.0230 N   0  0  0  0  0  0  0  0  0  0  0  0
  193.0950  169.9550  142.7610 Cl  0  0  0  0  0  0  0  0  0  0  0  0
  191.4850  176.3940  147.2220 O   0  0  0  0  0  0  0  0  0  0  0  0
  196.1440  174.9170  144.4550 N   0  0  0  0  0  1  0  0  0  0  0  0
  189.2960  174.4980  143.9740 C   0  0  0  0  0  2  0  0  0  0  0  0
  190.1690  174.6200  146.1950 C   0  0  2  0  0  3  0  0  0  0  0  0
  192.1450  171.9960  144.3060 C   0  0  0  0  0  3  0  0  0  0  0  0
  194.8960  176.5150  145.8150 C   0  0  0  0  0  3  0  0  0  0  0  0
  190.3190  173.4510  143.6400 C   0  0  0  0  0  0  0  0  0  0  0  0
  190.1960  172.7390  142.4440 C   0  0  0  0  0  3  0  0  0  0  0  0
  190.4090  175.4870  147.4390 C   0  0  0  0  0  2  0  0  0  0  0  0
  192.6320  176.0190  146.5190 C   0  0  0  0  0  0  0  0  0  0  0  0
  193.7360  176.8760  146.5030 C   0  0  0  0  0  3  0  0  0  0  0  0
  188.5870  176.2280  145.3680 C   0  0  0  0  0  2  0  0  0  0  0  0
  190.0970  177.8220  144.1650 C   0  0  0  0  0  1  0  0  0  0  0  0
  188.6970  177.5990  144.7120 C   0  0  1  0  0  3  0  0  0  0  0  0
  185.7340  177.8480  141.6470 N   0  0  0  0  0  0  0  0  0  0  0  0
  187.9740  177.2020  142.3560 C   0  0  0  0  0  2  0  0  0  0  0  0
  186.0850  178.7710  145.0800 O   0  0  0  0  0  0  0  0  0  0  0  0
  184.9890  178.3820  140.5230 C   0  0  0  0  0  1  0  0  0  0  0  0
  187.1440  177.8840  141.2710 C   0  0  0  0  0  2  0  0  0  0  0  0
  186.4180  178.4220  143.9170 C   0  0  0  0  0  0  0  0  0  0  0  0
  187.6840  177.7740  143.6710 N   0  0  0  0  0  0  0  0  0  0  0  0
  185.5270  178.7700  142.7620 C   0  0  0  0  0  2  0  0  0  0  0  0
  1 14  1  0  0  0  0
  2  5  1  6  0  0  0
  2 13  1  0  0  0  0
  3  2  1  0  0  0  0
  3 19  1  0  0  0  0
  4  7  1  0  0  0  0
  4 15  2  0  0  0  0
  6 17  1  0  0  0  0
  6  1  2  0  0  0  0
  7  3  2  0  0  0  0
  8 21  1  0  0  0  0
  8 13  1  0  0  0  0
  9  1  1  0  0  0  0
 10 18  1  0  0  0  0
 11  4  1  0  0  0  0
 12  8  1  0  0  0  0
 13 18  1  1  0  0  0
 14  5  2  0  0  0  0
 15 20  1  0  0  0  0
 16 12  1  0  0  0  0
 16  5  1  0  0  0  0
 17 16  2  0  0  0  0
 19 10  1  0  0  0  0
 20 19  2  0  0  0  0
 23 22  1  6  0  0  0
 23 21  1  0  0  0  0
 24 31  1  0  0  0  0
 25 30  1  0  0  0  0
 27 24  1  0  0  0  0
 28 24  1  0  0  0  0
 28 25  1  0  0  0  0
 29 26  2  0  0  0  0
 30 29  1  0  0  0  0
 30 23  1  0  0  0  0
 31 29  1  0  0  0  0
M  END
>  <MODEL>
2

>  <REMARK>
 VINA RESULT:      -7.1      3.359      7.054
  Name = 
  3 active torsions:
  status: ('A' for Active; 'I' for Inactive)
    1  A    between atoms: C_5  and  C_16
    2  A    between atoms: C_5  and  N_30
    3  A    between atoms: N_10  and  C_16
                            x       y       z     vdW  Elec       q    Type
                         _______ _______ _______ _____ _____    ______ ____

>  <TORSDO>
F 3

$$$$
=
 OpenBabel11112416523D

 31 35  0  0  1  0  0  0  0  0999 V2000
  195.8730  175.2580  144.3860 C   0  0  0  0  0  0  0  0  0  0  0  0
  192.4450  176.4490  143.2400 C   0  0  2  0  0  3  0  0  0  0  0  0
  191.8390  175.2970  142.4490 C   0  0  0  0  0  0  0  0  0  0  0  0
  192.0710  173.2170  141.2080 C   0  0  0  0  0  0  0  0  0  0  0  0
  193.5790  176.0060  144.1320 C   0  0  0  0  0  0  0  0  0  0  0  0
  195.6720  175.0930  145.7580 C   0  0  0  0  0  3  0  0  0  0  0  0
  192.6370  174.2510  141.9570 C   0  0  0  0  0  3  0  0  0  0  0  0
  190.9830  176.3530  145.2230 N   0  0  0  0  0  0  0  0  0  0  0  0
  197.4310  174.8870  143.6790 Cl  0  0  0  0  0  0  0  0  0  0  0  0
  189.6480  176.3560  142.5740 O   0  0  0  0  0  0  0  0  0  0  0  0
  192.8890  172.1570  140.7290 N   0  0  0  0  0  1  0  0  0  0  0  0
  192.1040  176.2950  146.1660 C   0  0  0  0  0  2  0  0  0  0  0  0
  191.3770  177.1900  144.0740 C   0  0  2  0  0  3  0  0  0  0  0  0
  194.8310  175.7160  143.5750 C   0  0  0  0  0  3  0  0  0  0  0  0
  190.7020  173.2230  140.9290 C   0  0  0  0  0  3  0  0  0  0  0  0
  193.3790  175.8410  145.5170 C   0  0  0  0  0  0  0  0  0  0  0  0
  194.4300  175.3950  146.3240 C   0  0  0  0  0  3  0  0  0  0  0  0
  190.1910  177.5340  143.1620 C   0  0  0  0  0  2  0  0  0  0  0  0
  190.4640  175.3110  142.1320 C   0  0  0  0  0  0  0  0  0  0  0  0
  189.9020  174.2710  141.3880 C   0  0  0  0  0  3  0  0  0  0  0  0
  189.8900  176.9940  145.9500 C   0  0  0  0  0  2  0  0  0  0  0  0
  188.7190  175.1660  147.1960 C   0  0  0  0  0  1  0  0  0  0  0  0
  188.6750  176.0750  145.9800 C   0  0  1  0  0  3  0  0  0  0  0  0
  185.1780  178.5230  145.8710 N   0  0  0  0  0  0  0  0  0  0  0  0
  187.1240  177.6940  147.0780 C   0  0  0  0  0  2  0  0  0  0  0  0
  186.8740  176.2210  143.7300 O   0  0  0  0  0  0  0  0  0  0  0  0
  183.7920  178.9150  146.0470 C   0  0  0  0  0  1  0  0  0  0  0  0
  185.6300  177.9940  147.1540 C   0  0  0  0  0  2  0  0  0  0  0  0
  186.5470  176.8190  144.7880 C   0  0  0  0  0  0  0  0  0  0  0  0
  187.4280  176.8390  145.9310 N   0  0  0  0  0  0  0  0  0  0  0  0
  185.1840  177.4380  144.8930 C   0  0  0  0  0  2  0  0  0  0  0  0
  1  6  1  0  0  0  0
  2  3  1  1  0  0  0
  2 13  1  0  0  0  0
  2  5  1  0  0  0  0
  4  7  1  0  0  0  0
  5 16  2  0  0  0  0
  6 17  2  0  0  0  0
  7  3  2  0  0  0  0
  8 21  1  0  0  0  0
  8 12  1  0  0  0  0
  9  1  1  0  0  0  0
 10 18  1  0  0  0  0
 11  4  1  0  0  0  0
 13 18  1  6  0  0  0
 13  8  1  0  0  0  0
 14  5  1  0  0  0  0
 14  1  2  0  0  0  0
 15  4  2  0  0  0  0
 15 20  1  0  0  0  0
 16 12  1  0  0  0  0
 16 17  1  0  0  0  0
 19  3  1  0  0  0  0
 19 10  1  0  0  0  0
 20 19  2  0  0  0  0
 21 23  1  0  0  0  0
 23 22  1  1  0  0  0
 24 27  1  0  0  0  0
 24 28  1  0  0  0  0
 25 28  1  0  0  0  0
 26 29  2  0  0  0  0
 29 31  1  0  0  0  0
 29 30  1  0  0  0  0
 30 23  1  0  0  0  0
 30 25  1  0  0  0  0
 31 24  1  0  0  0  0
M  END
>  <MODEL>
3

>  <REMARK>
 VINA RESULT:      -7.1      3.258      7.030
  Name = 
  3 active torsions:
  status: ('A' for Active; 'I' for Inactive)
    1  A    between atoms: C_5  and  C_16
    2  A    between atoms: C_5  and  N_30
    3  A    between atoms: N_10  and  C_16
                            x       y       z     vdW  Elec       q    Type
                         _______ _______ _______ _____ _____    ______ ____

>  <TORSDO>
F 3

$$$$
=
 OpenBabel11112416523D

 31 35  0  0  1  0  0  0  0  0999 V2000
  186.3480  177.7290  140.8500 C   0  0  0  0  0  0  0  0  0  0  0  0
  188.8020  177.8430  143.7570 C   0  0  2  0  0  3  0  0  0  0  0  0
  187.9900  177.5350  145.0090 C   0  0  0  0  0  0  0  0  0  0  0  0
  185.8600  177.3790  146.1750 C   0  0  0  0  0  0  0  0  0  0  0  0
  188.1050  177.4050  142.4920 C   0  0  0  0  0  0  0  0  0  0  0  0
  186.7370  176.5580  140.1970 C   0  0  0  0  0  3  0  0  0  0  0  0
  186.5890  177.6350  145.0120 C   0  0  0  0  0  3  0  0  0  0  0  0
  190.1110  175.7560  143.6370 N   0  0  0  0  0  0  0  0  0  0  0  0
  185.0010  178.6660  140.2400 Cl  0  0  0  0  0  0  0  0  0  0  0  0
  190.0470  177.1490  146.2560 O   0  0  0  0  0  0  0  0  0  0  0  0
  184.4410  177.4690  146.1600 N   0  0  0  0  0  1  0  0  0  0  0  0
  189.7380  175.4900  142.2450 C   0  0  0  0  0  2  0  0  0  0  0  0
  190.2120  177.2160  143.8260 C   0  0  2  0  0  3  0  0  0  0  0  0
  187.0310  178.1540  141.9930 C   0  0  0  0  0  3  0  0  0  0  0  0
  186.5250  177.0340  147.3550 C   0  0  0  0  0  3  0  0  0  0  0  0
  188.4960  176.2250  141.8300 C   0  0  0  0  0  0  0  0  0  0  0  0
  187.8160  175.8130  140.6800 C   0  0  0  0  0  3  0  0  0  0  0  0
  190.8530  177.5930  145.1690 C   0  0  0  0  0  2  0  0  0  0  0  0
  188.6530  177.2200  146.2140 C   0  0  0  0  0  0  0  0  0  0  0  0
  187.9190  176.9580  147.3730 C   0  0  0  0  0  3  0  0  0  0  0  0
  191.4240  175.1420  143.8180 C   0  0  0  0  0  2  0  0  0  0  0  0
  189.9310  173.7530  145.2700 C   0  0  0  0  0  1  0  0  0  0  0  0
  191.3690  174.1190  144.9460 C   0  0  1  0  0  3  0  0  0  0  0  0
  193.6620  170.7180  143.7590 N   0  0  0  0  0  0  0  0  0  0  0  0
  191.5630  171.9540  143.7190 C   0  0  0  0  0  2  0  0  0  0  0  0
  194.0960  173.6430  145.7630 O   0  0  0  0  0  0  0  0  0  0  0  0
  194.2090  169.3740  143.7900 C   0  0  0  0  0  1  0  0  0  0  0  0
  192.2140  170.5840  143.8880 C   0  0  0  0  0  2  0  0  0  0  0  0
  193.5050  172.7370  145.1190 C   0  0  0  0  0  0  0  0  0  0  0  0
  192.1630  172.9320  144.6260 N   0  0  0  0  0  0  0  0  0  0  0  0
  194.1720  171.4040  144.9440 C   0  0  0  0  0  2  0  0  0  0  0  0
  1 14  1  0  0  0  0
  2  5  1  6  0  0  0
  2 13  1  0  0  0  0
  2  3  1  0  0  0  0
  3  7  2  0  0  0  0
  3 19  1  0  0  0  0
  4 15  2  0  0  0  0
  6 17  1  0  0  0  0
  6  1  2  0  0  0  0
  7  4  1  0  0  0  0
  8 21  1  0  0  0  0
  8 13  1  0  0  0  0
  9  1  1  0  0  0  0
 11  4  1  0  0  0  0
 12  8  1  0  0  0  0
 13 18  1  1  0  0  0
 14  5  2  0  0  0  0
 15 20  1  0  0  0  0
 16 12  1  0  0  0  0
 16  5  1  0  0  0  0
 17 16  2  0  0  0  0
 18 10  1  0  0  0  0
 19 10  1  0  0  0  0
 19 20  2  0  0  0  0
 21 23  1  0  0  0  0
 23 22  1  6  0  0  0
 24 27  1  0  0  0  0
 24 28  1  0  0  0  0
 24 31  1  0  0  0  0
 25 28  1  0  0  0  0
 25 30  1  0  0  0  0
 29 26  2  0  0  0  0
 30 23  1  0  0  0  0
 30 29  1  0  0  0  0
 31 29  1  0  0  0  0
M  END
>  <MODEL>
4

>  <REMARK>
 VINA RESULT:      -6.8      2.791      4.736
  Name = 
  3 active torsions:
  status: ('A' for Active; 'I' for Inactive)
    1  A    between atoms: C_5  and  C_16
    2  A    between atoms: C_5  and  N_30
    3  A    between atoms: N_10  and  C_16
                            x       y       z     vdW  Elec       q    Type
                         _______ _______ _______ _____ _____    ______ ____

>  <TORSDO>
F 3

$$$$
=
 OpenBabel11112416523D

 31 35  0  0  1  0  0  0  0  0999 V2000
  194.0870  175.7640  145.5520 C   0  0  0  0  0  0  0  0  0  0  0  0
  191.1500  176.8080  143.3680 C   0  0  2  0  0  3  0  0  0  0  0  0
  190.6780  175.5440  142.6610 C   0  0  0  0  0  0  0  0  0  0  0  0
  191.0610  173.2640  141.9030 C   0  0  0  0  0  0  0  0  0  0  0  0
  191.9890  176.5110  144.5870 C   0  0  0  0  0  0  0  0  0  0  0  0
  193.5370  175.8630  146.8320 C   0  0  0  0  0  3  0  0  0  0  0  0
  191.4950  174.4050  142.5810 C   0  0  0  0  0  3  0  0  0  0  0  0
  189.2350  177.1220  144.8910 N   0  0  0  0  0  0  0  0  0  0  0  0
  195.7400  175.2270  145.3490 Cl  0  0  0  0  0  0  0  0  0  0  0  0
  188.6080  176.6640  142.0280 O   0  0  0  0  0  0  0  0  0  0  0  0
  191.8920  172.1120  141.8440 N   0  0  0  0  0  1  0  0  0  0  0  0
  190.0780  177.2120  146.0870 C   0  0  0  0  0  2  0  0  0  0  0  0
  189.9640  177.7190  143.7550 C   0  0  2  0  0  3  0  0  0  0  0  0
  193.3160  176.0890  144.4320 C   0  0  0  0  0  3  0  0  0  0  0  0
  189.8090  173.2530  141.2830 C   0  0  0  0  0  3  0  0  0  0  0  0
  191.4390  176.6120  145.8790 C   0  0  0  0  0  0  0  0  0  0  0  0
  192.2190  176.2980  146.9950 C   0  0  0  0  0  3  0  0  0  0  0  0
  189.0710  177.9170  142.5220 C   0  0  0  0  0  2  0  0  0  0  0  0
  189.4300  175.5350  142.0010 C   0  0  0  0  0  0  0  0  0  0  0  0
  188.9970  174.3890  141.3300 C   0  0  0  0  0  3  0  0  0  0  0  0
  188.0450  177.9150  145.1870 C   0  0  0  0  0  2  0  0  0  0  0  0
  186.2960  176.9500  146.6960 C   0  0  0  0  0  1  0  0  0  0  0  0
  186.8230  177.0090  145.2730 C   0  0  1  0  0  3  0  0  0  0  0  0
  183.6910  177.9940  142.5430 N   0  0  0  0  0  0  0  0  0  0  0  0
  185.6910  176.7070  143.0690 C   0  0  0  0  0  2  0  0  0  0  0  0
  184.7880  178.9880  145.7930 O   0  0  0  0  0  0  0  0  0  0  0  0
  183.0020  178.6620  141.4550 C   0  0  0  0  0  1  0  0  0  0  0  0
  184.9740  177.5440  142.0130 C   0  0  0  0  0  2  0  0  0  0  0  0
  184.8290  178.4700  144.6470 C   0  0  0  0  0  0  0  0  0  0  0  0
  185.7810  177.4310  144.3360 N   0  0  0  0  0  0  0  0  0  0  0  0
  183.9400  179.0080  143.5650 C   0  0  0  0  0  2  0  0  0  0  0  0
  1  6  1  0  0  0  0
  2  3  1  1  0  0  0
  2 13  1  0  0  0  0
  2  5  1  0  0  0  0
  4  7  2  0  0  0  0
  5 16  2  0  0  0  0
  6 17  2  0  0  0  0
  7  3  1  0  0  0  0
  8 21  1  0  0  0  0
  8 12  1  0  0  0  0
  9  1  1  0  0  0  0
 10 18  1  0  0  0  0
 11  4  1  0  0  0  0
 13 18  1  6  0  0  0
 13  8  1  0  0  0  0
 14  5  1  0  0  0  0
 14  1  2  0  0  0  0
 15 20  2  0  0  0  0
 15  4  1  0  0  0  0
 16 12  1  0  0  0  0
 16 17  1  0  0  0  0
 19 10  1  0  0  0  0
 19  3  2  0  0  0  0
 20 19  1  0  0  0  0
 21 23  1  0  0  0  0
 23 22  1  1  0  0  0
 24 31  1  0  0  0  0
 25 30  1  0  0  0  0
 27 24  1  0  0  0  0
 28 24  1  0  0  0  0
 28 25  1  0  0  0  0
 29 26  2  0  0  0  0
 30 29  1  0  0  0  0
 30 23  1  0  0  0  0
 31 29  1  0  0  0  0
M  END
>  <MODEL>
5

>  <REMARK>
 VINA RESULT:      -6.8      3.374      6.809
  Name = 
  3 active torsions:
  status: ('A' for Active; 'I' for Inactive)
    1  A    between atoms: C_5  and  C_16
    2  A    between atoms: C_5  and  N_30
    3  A    between atoms: N_10  and  C_16
                            x       y       z     vdW  Elec       q    Type
                         _______ _______ _______ _____ _____    ______ ____

>  <TORSDO>
F 3

$$$$
=
 OpenBabel11112416523D

 31 35  0  0  1  0  0  0  0  0999 V2000
  193.8840  170.4350  144.6830 C   0  0  0  0  0  0  0  0  0  0  0  0
  194.0980  174.0870  145.7320 C   0  0  2  0  0  3  0  0  0  0  0  0
  195.0960  174.7420  144.7860 C   0  0  0  0  0  0  0  0  0  0  0  0
  196.9220  174.5880  143.1840 C   0  0  0  0  0  0  0  0  0  0  0  0
  193.5580  172.7850  145.1930 C   0  0  0  0  0  0  0  0  0  0  0  0
  192.6100  170.3780  144.1140 C   0  0  0  0  0  3  0  0  0  0  0  0
  195.9910  173.9730  144.0250 C   0  0  0  0  0  3  0  0  0  0  0  0
  192.0380  175.1640  144.9050 N   0  0  0  0  0  0  0  0  0  0  0  0
  194.8940  169.0050  144.7150 Cl  0  0  0  0  0  0  0  0  0  0  0  0
  194.3360  176.9450  145.4970 O   0  0  0  0  0  0  0  0  0  0  0  0
  197.8120  173.7960  142.4080 N   0  0  0  0  0  1  0  0  0  0  0  0
  191.3340  173.8920  144.7180 C   0  0  0  0  0  2  0  0  0  0  0  0
  192.9300  175.0400  146.0740 C   0  0  2  0  0  3  0  0  0  0  0  0
  194.3560  171.6340  145.2240 C   0  0  0  0  0  3  0  0  0  0  0  0
  196.9780  175.9820  143.1060 C   0  0  0  0  0  3  0  0  0  0  0  0
  192.2720  172.7230  144.6210 C   0  0  0  0  0  0  0  0  0  0  0  0
  191.8010  171.5170  144.0940 C   0  0  0  0  0  3  0  0  0  0  0  0
  193.5110  176.3910  146.5170 C   0  0  0  0  0  2  0  0  0  0  0  0
  195.1850  176.1490  144.7250 C   0  0  0  0  0  0  0  0  0  0  0  0
  196.1130  176.7600  143.8780 C   0  0  0  0  0  3  0  0  0  0  0  0
  190.9990  176.1530  145.1800 C   0  0  0  0  0  2  0  0  0  0  0  0
  189.0790  175.3520  146.5730 C   0  0  0  0  0  1  0  0  0  0  0  0
  189.6290  175.4860  145.1630 C   0  0  1  0  0  3  0  0  0  0  0  0
  187.0980  177.7660  142.5870 N   0  0  0  0  0  0  0  0  0  0  0  0
  188.4090  177.5990  144.6330 C   0  0  0  0  0  2  0  0  0  0  0  0
  188.4840  174.4760  142.7130 O   0  0  0  0  0  0  0  0  0  0  0  0
  185.8810  178.3340  142.0400 C   0  0  0  0  0  1  0  0  0  0  0  0
  187.0860  178.0470  144.0190 C   0  0  0  0  0  2  0  0  0  0  0  0
  188.1210  175.6140  143.1110 C   0  0  0  0  0  0  0  0  0  0  0  0
  188.6970  176.2060  144.2940 N   0  0  0  0  0  0  0  0  0  0  0  0
  187.0060  176.3200  142.3970 C   0  0  0  0  0  2  0  0  0  0  0  0
  1  9  1  0  0  0  0
  1 14  1  0  0  0  0
  2  3  1  6  0  0  0
  2 13  1  0  0  0  0
  4  7  1  0  0  0  0
  5 14  2  0  0  0  0
  5  2  1  0  0  0  0
  6  1  2  0  0  0  0
  7  3  2  0  0  0  0
  8 21  1  0  0  0  0
  8 13  1  0  0  0  0
 10 18  1  0  0  0  0
 11  4  1  0  0  0  0
 12  8  1  0  0  0  0
 13 18  1  6  0  0  0
 15  4  2  0  0  0  0
 15 20  1  0  0  0  0
 16 12  1  0  0  0  0
 16  5  1  0  0  0  0
 17  6  1  0  0  0  0
 17 16  2  0  0  0  0
 19  3  1  0  0  0  0
 19 10  1  0  0  0  0
 20 19  2  0  0  0  0
 23 21  1  0  0  0  0
 23 22  1  1  0  0  0
 24 28  1  0  0  0  0
 26 29  2  0  0  0  0
 27 24  1  0  0  0  0
 28 25  1  0  0  0  0
 29 30  1  0  0  0  0
 30 25  1  0  0  0  0
 30 23  1  0  0  0  0
 31 24  1  0  0  0  0
 31 29  1  0  0  0  0
M  END
>  <MODEL>
6

>  <REMARK>
 VINA RESULT:      -6.7      3.470      7.567
  Name = 
  3 active torsions:
  status: ('A' for Active; 'I' for Inactive)
    1  A    between atoms: C_5  and  C_16
    2  A    between atoms: C_5  and  N_30
    3  A    between atoms: N_10  and  C_16
                            x       y       z     vdW  Elec       q    Type
                         _______ _______ _______ _____ _____    ______ ____

>  <TORSDO>
F 3

$$$$
=
 OpenBabel11112416523D

 31 35  0  0  1  0  0  0  0  0999 V2000
  186.5670  177.8810  146.9580 C   0  0  0  0  0  0  0  0  0  0  0  0
  189.4960  177.4670  144.5640 C   0  0  2  0  0  3  0  0  0  0  0  0
  190.4930  176.5550  145.2680 C   0  0  0  0  0  0  0  0  0  0  0  0
  191.3670  175.5220  147.2900 C   0  0  0  0  0  0  0  0  0  0  0  0
  188.1100  177.3770  145.1550 C   0  0  0  0  0  0  0  0  0  0  0  0
  185.5700  177.1430  146.3160 C   0  0  0  0  0  3  0  0  0  0  0  0
  190.4280  176.3370  146.6540 C   0  0  0  0  0  3  0  0  0  0  0  0
  188.7380  175.9090  142.8090 N   0  0  0  0  0  0  0  0  0  0  0  0
  186.2320  178.6540  148.4920 Cl  0  0  0  0  0  0  0  0  0  0  0  0
  191.6690  176.2050  143.1630 O   0  0  0  0  0  0  0  0  0  0  0  0
  191.2800  175.2970  148.6910 N   0  0  0  0  0  1  0  0  0  0  0  0
  187.3190  176.0920  143.1260 C   0  0  0  0  0  2  0  0  0  0  0  0
  189.4410  177.1850  143.0460 C   0  0  2  0  0  3  0  0  0  0  0  0
  187.8330  178.0000  146.3780 C   0  0  0  0  0  3  0  0  0  0  0  0
  192.3920  174.9270  146.5500 C   0  0  0  0  0  3  0  0  0  0  0  0
  187.1020  176.6350  144.5090 C   0  0  0  0  0  0  0  0  0  0  0  0
  185.8340  176.5310  145.0880 C   0  0  0  0  0  3  0  0  0  0  0  0
  190.8740  177.1790  142.4940 C   0  0  0  0  0  2  0  0  0  0  0  0
  191.5520  175.9780  144.5360 C   0  0  0  0  0  0  0  0  0  0  0  0
  192.4850  175.1580  145.1760 C   0  0  0  0  0  3  0  0  0  0  0  0
  188.7850  175.5760  141.3870 C   0  0  0  0  0  2  0  0  0  0  0  0
  188.5180  173.6770  139.7780 C   0  0  0  0  0  1  0  0  0  0  0  0
  188.8500  174.0650  141.2090 C   0  0  1  0  0  3  0  0  0  0  0  0
  192.7480  172.7690  142.3790 N   0  0  0  0  0  0  0  0  0  0  0  0
  191.2840  173.7940  140.7230 C   0  0  0  0  0  2  0  0  0  0  0  0
  189.4350  172.7580  143.7150 O   0  0  0  0  0  0  0  0  0  0  0  0
  193.9020  171.9010  142.5180 C   0  0  0  0  0  1  0  0  0  0  0  0
  192.4050  172.7860  140.9600 C   0  0  0  0  0  2  0  0  0  0  0  0
  190.3580  172.8430  142.8630 C   0  0  0  0  0  0  0  0  0  0  0  0
  190.1530  173.5370  141.6140 N   0  0  0  0  0  0  0  0  0  0  0  0
  191.6560  172.1320  143.1120 C   0  0  0  0  0  2  0  0  0  0  0  0
  1  9  1  0  0  0  0
  2  5  1  1  0  0  0
  2  3  1  0  0  0  0
  3  7  1  0  0  0  0
  4 11  1  0  0  0  0
  5 14  2  0  0  0  0
  6  1  2  0  0  0  0
  7  4  2  0  0  0  0
  8 13  1  0  0  0  0
  8 12  1  0  0  0  0
 10 19  1  0  0  0  0
 12 16  1  0  0  0  0
 13 18  1  1  0  0  0
 13  2  1  0  0  0  0
 14  1  1  0  0  0  0
 15  4  1  0  0  0  0
 16 17  2  0  0  0  0
 16  5  1  0  0  0  0
 17  6  1  0  0  0  0
 18 10  1  0  0  0  0
 19 20  1  0  0  0  0
 19  3  2  0  0  0  0
 20 15  2  0  0  0  0
 21  8  1  0  0  0  0
 23 22  1  6  0  0  0
 23 21  1  0  0  0  0
 23 30  1  0  0  0  0
 24 27  1  0  0  0  0
 24 31  1  0  0  0  0
 25 28  1  0  0  0  0
 25 30  1  0  0  0  0
 28 24  1  0  0  0  0
 29 31  1  0  0  0  0
 29 26  2  0  0  0  0
 30 29  1  0  0  0  0
M  END
>  <MODEL>
7

>  <REMARK>
 VINA RESULT:      -6.7      2.003      4.594
  Name = 
  3 active torsions:
  status: ('A' for Active; 'I' for Inactive)
    1  A    between atoms: C_5  and  C_16
    2  A    between atoms: C_5  and  N_30
    3  A    between atoms: N_10  and  C_16
                            x       y       z     vdW  Elec       q    Type
                         _______ _______ _______ _____ _____    ______ ____

>  <TORSDO>
F 3

$$$$
=
 OpenBabel11112416523D

 31 35  0  0  1  0  0  0  0  0999 V2000
  185.6730  178.9210  143.4050 C   0  0  0  0  0  0  0  0  0  0  0  0
  189.0310  177.1410  143.6010 C   0  0  2  0  0  3  0  0  0  0  0  0
  188.9910  176.3000  144.8700 C   0  0  0  0  0  0  0  0  0  0  0  0
  188.0410  175.7870  147.0500 C   0  0  0  0  0  0  0  0  0  0  0  0
  187.6560  177.5490  143.1320 C   0  0  0  0  0  0  0  0  0  0  0  0
  185.0630  178.2590  142.3380 C   0  0  0  0  0  3  0  0  0  0  0  0
  188.0460  176.5470  145.8790 C   0  0  0  0  0  3  0  0  0  0  0  0
  188.9440  175.3190  141.9410 N   0  0  0  0  0  0  0  0  0  0  0  0
  184.8160  180.1910  144.2520 Cl  0  0  0  0  0  0  0  0  0  0  0  0
  190.9450  175.0560  144.1140 O   0  0  0  0  0  0  0  0  0  0  0  0
  187.0680  176.0390  148.0570 N   0  0  0  0  0  1  0  0  0  0  0  0
  187.8070  175.9010  141.2200 C   0  0  0  0  0  2  0  0  0  0  0  0
  189.7820  176.4160  142.4610 C   0  0  2  0  0  3  0  0  0  0  0  0
  186.9660  178.5700  143.8000 C   0  0  0  0  0  3  0  0  0  0  0  0
  188.9910  174.7790  147.2340 C   0  0  0  0  0  3  0  0  0  0  0  0
  187.0380  176.8840  142.0550 C   0  0  0  0  0  0  0  0  0  0  0  0
  185.7490  177.2490  141.6570 C   0  0  0  0  0  3  0  0  0  0  0  0
  191.1320  175.9210  142.9990 C   0  0  0  0  0  2  0  0  0  0  0  0
  189.9670  175.3030  145.0810 C   0  0  0  0  0  0  0  0  0  0  0  0
  189.9540  174.5410  146.2520 C   0  0  0  0  0  3  0  0  0  0  0  0
  189.6920  174.5550  140.9450 C   0  0  0  0  0  2  0  0  0  0  0  0
  189.3170  172.3250  139.8720 C   0  0  0  0  0  1  0  0  0  0  0  0
  189.5040  173.0620  141.1860 C   0  0  1  0  0  3  0  0  0  0  0  0
  192.8590  171.6710  143.4320 N   0  0  0  0  0  0  0  0  0  0  0  0
  191.9560  172.6390  141.3870 C   0  0  0  0  0  2  0  0  0  0  0  0
  189.3180  171.9200  143.8310 O   0  0  0  0  0  0  0  0  0  0  0  0
  193.8750  170.7620  143.9270 C   0  0  0  0  0  1  0  0  0  0  0  0
  192.9050  171.5980  141.9750 C   0  0  0  0  0  2  0  0  0  0  0  0
  190.4370  171.8970  143.2540 C   0  0  0  0  0  0  0  0  0  0  0  0
  190.6160  172.5040  141.9570 N   0  0  0  0  0  0  0  0  0  0  0  0
  191.5720  171.1450  143.8830 C   0  0  0  0  0  2  0  0  0  0  0  0
  1 14  1  0  0  0  0
  1  9  1  0  0  0  0
  2  5  1  6  0  0  0
  2  3  1  0  0  0  0
  3 19  2  0  0  0  0
  3  7  1  0  0  0  0
  4 15  1  0  0  0  0
  4 11  1  0  0  0  0
  5 14  2  0  0  0  0
  6  1  2  0  0  0  0
  7  4  2  0  0  0  0
  8 13  1  0  0  0  0
 10 19  1  0  0  0  0
 12  8  1  0  0  0  0
 12 16  1  0  0  0  0
 13 18  1  1  0  0  0
 13  2  1  0  0  0  0
 16  5  1  0  0  0  0
 17 16  2  0  0  0  0
 17  6  1  0  0  0  0
 18 10  1  0  0  0  0
 19 20  1  0  0  0  0
 20 15  2  0  0  0  0
 21 23  1  0  0  0  0
 21  8  1  0  0  0  0
 23 22  1  6  0  0  0
 23 30  1  0  0  0  0
 24 31  1  0  0  0  0
 24 27  1  0  0  0  0
 25 30  1  0  0  0  0
 25 28  1  0  0  0  0
 28 24  1  0  0  0  0
 29 26  2  0  0  0  0
 29 31  1  0  0  0  0
 30 29  1  0  0  0  0
M  END
>  <MODEL>
8

>  <REMARK>
 VINA RESULT:      -6.7      2.538      4.841
  Name = 
  3 active torsions:
  status: ('A' for Active; 'I' for Inactive)
    1  A    between atoms: C_5  and  C_16
    2  A    between atoms: C_5  and  N_30
    3  A    between atoms: N_10  and  C_16
                            x       y       z     vdW  Elec       q    Type
                         _______ _______ _______ _____ _____    ______ ____

>  <TORSDO>
F 3

$$$$
=
 OpenBabel11112416523D

 31 35  0  0  1  0  0  0  0  0999 V2000
  186.6450  178.1620  147.2240 C   0  0  0  0  0  0  0  0  0  0  0  0
  189.2610  177.4580  144.5510 C   0  0  2  0  0  3  0  0  0  0  0  0
  190.2790  176.5220  145.1900 C   0  0  0  0  0  0  0  0  0  0  0  0
  191.3160  175.5350  147.1580 C   0  0  0  0  0  0  0  0  0  0  0  0
  187.9470  177.4800  145.2930 C   0  0  0  0  0  0  0  0  0  0  0  0
  185.5440  177.4560  146.7350 C   0  0  0  0  0  3  0  0  0  0  0  0
  190.3580  176.3740  146.5840 C   0  0  0  0  0  3  0  0  0  0  0  0
  188.2270  175.8670  142.9760 N   0  0  0  0  0  0  0  0  0  0  0  0
  186.5280  179.0260  148.7410 Cl  0  0  0  0  0  0  0  0  0  0  0  0
  191.1900  176.0010  142.9920 O   0  0  0  0  0  0  0  0  0  0  0  0
  191.3740  175.3830  148.5710 N   0  0  0  0  0  1  0  0  0  0  0  0
  186.8640  176.1500  143.4350 C   0  0  0  0  0  2  0  0  0  0  0  0
  189.0210  177.1070  143.0650 C   0  0  2  0  0  3  0  0  0  0  0  0
  187.8430  178.1770  146.5040 C   0  0  0  0  0  3  0  0  0  0  0  0
  192.2170  174.8450  146.3440 C   0  0  0  0  0  3  0  0  0  0  0  0
  186.8340  176.7700  144.8020 C   0  0  0  0  0  0  0  0  0  0  0  0
  185.6350  176.7710  145.5210 C   0  0  0  0  0  3  0  0  0  0  0  0
  190.3810  176.9880  142.3620 C   0  0  0  0  0  2  0  0  0  0  0  0
  191.2160  175.8470  144.3800 C   0  0  0  0  0  0  0  0  0  0  0  0
  192.1690  175.0040  144.9580 C   0  0  0  0  0  3  0  0  0  0  0  0
  188.0960  175.4640  141.5780 C   0  0  0  0  0  2  0  0  0  0  0  0
  187.7780  172.9870  141.7500 C   0  0  0  0  0  1  0  0  0  0  0  0
  188.7390  174.0990  141.3670 C   0  0  1  0  0  3  0  0  0  0  0  0
  190.0720  173.8930  137.3150 N   0  0  0  0  0  0  0  0  0  0  0  0
  188.2820  174.2890  138.9200 C   0  0  0  0  0  2  0  0  0  0  0  0
  191.4220  173.3810  140.5820 O   0  0  0  0  0  0  0  0  0  0  0  0
  190.3430  173.3330  136.0040 C   0  0  0  0  0  1  0  0  0  0  0  0
  188.6730  173.6020  137.6140 C   0  0  0  0  0  2  0  0  0  0  0  0
  190.5600  173.5240  139.6760 C   0  0  0  0  0  0  0  0  0  0  0  0
  189.2150  173.9410  139.9920 N   0  0  0  0  0  0  0  0  0  0  0  0
  190.9110  173.1640  138.2630 C   0  0  0  0  0  2  0  0  0  0  0  0
  1  9  1  0  0  0  0
  2  3  1  1  0  0  0
  2  5  1  0  0  0  0
  3  7  1  0  0  0  0
  4 11  1  0  0  0  0
  5 14  1  0  0  0  0
  6  1  1  0  0  0  0
  7  4  2  0  0  0  0
  8 13  1  0  0  0  0
  8 12  1  0  0  0  0
 10 19  1  0  0  0  0
 12 16  1  0  0  0  0
 13 18  1  6  0  0  0
 13  2  1  0  0  0  0
 14  1  2  0  0  0  0
 15  4  1  0  0  0  0
 16  5  2  0  0  0  0
 16 17  1  0  0  0  0
 17  6  2  0  0  0  0
 18 10  1  0  0  0  0
 19 20  1  0  0  0  0
 19  3  2  0  0  0  0
 20 15  2  0  0  0  0
 21  8  1  0  0  0  0
 23 21  1  0  0  0  0
 23 22  1  6  0  0  0
 24 28  1  0  0  0  0
 24 31  1  0  0  0  0
 25 30  1  0  0  0  0
 27 24  1  0  0  0  0
 28 25  1  0  0  0  0
 29 30  1  0  0  0  0
 29 26  2  0  0  0  0
 30 23  1  0  0  0  0
 31 29  1  0  0  0  0
M  END
>  <MODEL>
9

>  <REMARK>
 VINA RESULT:      -6.7      2.770      5.150
  Name = 
  3 active torsions:
  status: ('A' for Active; 'I' for Inactive)
    1  A    between atoms: C_5  and  C_16
    2  A    between atoms: C_5  and  N_30
    3  A    between atoms: N_10  and  C_16
                            x       y       z     vdW  Elec       q    Type
                         _______ _______ _______ _____ _____    ______ ____

>  <TORSDO>
F 3

$$$$
