=
 OpenBabel11112417423D

 28 32  0  0  1  0  0  0  0  0999 V2000
  186.7400  178.2910  144.8350 C   0  0  0  0  0  0  0  0  0  0  0  0
  190.1780  178.0580  145.1240 O   0  0  0  0  0  1  0  0  0  0  0  0
  187.5810  173.0040  141.6380 C   0  0  0  0  0  1  0  0  0  0  0  0
  185.3930  177.6180  147.2070 C   0  0  0  0  0  3  0  0  0  0  0  0
  189.5310  174.2340  142.5740 C   0  0  2  0  0  3  0  0  0  0  0  0
  187.3870  178.7210  143.5500 C   0  0  0  0  0  2  0  0  0  0  0  0
  189.3160  177.8400  147.3270 C   0  0  0  0  0  1  0  0  0  0  0  0
  190.0660  177.1660  146.1940 C   0  0  1  0  0  0  0  0  0  0  0  0
  192.1790  175.9150  146.0290 C   0  0  0  0  0  0  0  0  0  0  0  0
  189.3530  175.8620  145.7530 C   0  0  2  0  0  3  0  0  0  0  0  0
  187.4410  177.4450  140.5130 O   0  0  0  0  0  0  0  0  0  0  0  0
  188.3730  176.0170  143.5500 C   0  0  1  0  0  3  0  0  0  0  0  0
  191.7070  175.2350  144.7860 C   0  0  0  0  0  2  0  0  0  0  0  0
  191.3670  176.8440  146.6760 O   0  0  0  0  0  0  0  0  0  0  0  0
  186.7750  177.3370  141.5750 C   0  0  0  0  0  0  0  0  0  0  0  0
  187.0290  177.0610  145.4920 C   0  0  0  0  0  0  0  0  0  0  0  0
  188.2110  174.3680  141.8390 C   0  0  2  0  0  3  0  0  0  0  0  0
  193.3600  175.6680  146.4860 N   0  0  0  0  0  2  0  0  0  0  0  0
  186.4220  176.0440  142.0710 N   0  0  0  0  0  2  0  0  0  0  0  0
  186.3370  176.7430  146.6680 C   0  0  0  0  0  3  0  0  0  0  0  0
  185.7910  179.1600  145.3910 C   0  0  0  0  0  3  0  0  0  0  0  0
  185.1230  178.8280  146.5700 C   0  0  0  0  0  3  0  0  0  0  0  0
  186.4330  178.5560  142.3670 C   0  0  0  0  0  2  0  0  0  0  0  0
  189.7060  175.4390  143.3810 N   0  0  1  0  0  0  0  0  0  0  0  0
  187.3720  175.1870  142.7790 C   0  0  2  0  0  3  0  0  0  0  0  0
  190.1790  175.0710  144.7170 C   0  0  2  0  0  3  0  0  0  0  0  0
  190.6670  174.1140  141.5750 C   0  0  0  0  0  1  0  0  0  0  0  0
  188.0320  176.0320  145.0150 C   0  0  2  0  0  3  0  0  0  0  0  0
  1 21  2  0  0  0  0
  1 16  1  0  0  0  0
  2  8  1  0  0  0  0
  3 17  1  0  0  0  0
  5 27  1  6  0  0  0
  5 24  1  0  0  0  0
  6  1  1  0  0  0  0
  8 14  1  0  0  0  0
  8  7  1  1  0  0  0
  9 18  2  0  0  0  0
  9 14  1  0  0  0  0
 10  8  1  0  0  0  0
 11 15  2  0  0  0  0
 12 28  1  0  0  0  0
 13  9  1  0  0  0  0
 15 19  1  0  0  0  0
 15 23  1  0  0  0  0
 16 20  2  0  0  0  0
 17  5  1  0  0  0  0
 17 25  1  0  0  0  0
 19 25  1  0  0  0  0
 20  4  1  0  0  0  0
 21 22  1  0  0  0  0
 22  4  2  0  0  0  0
 23  6  1  0  0  0  0
 24 12  1  0  0  0  0
 24 26  1  0  0  0  0
 25 12  1  0  0  0  0
 26 13  1  0  0  0  0
 26 10  1  0  0  0  0
 28 16  1  0  0  0  0
 28 10  1  0  0  0  0
M  END
>  <MODEL>
1

>  <REMARK>
 VINA RESULT:      -8.9      0.000      0.000
  Name = 
  0 active torsions:
  status: ('A' for Active; 'I' for Inactive)
                            x       y       z     vdW  Elec       q    Type
                         _______ _______ _______ _____ _____    ______ ____

>  <TORSDO>
F 0

$$$$
=
 OpenBabel11112417423D

 28 32  0  0  1  0  0  0  0  0999 V2000
  190.9370  174.5930  144.4480 C   0  0  0  0  0  0  0  0  0  0  0  0
  188.4560  175.6410  146.6180 O   0  0  0  0  0  1  0  0  0  0  0  0
  187.2640  177.4870  140.3240 C   0  0  0  0  0  1  0  0  0  0  0  0
  193.2930  176.1090  144.6640 C   0  0  0  0  0  3  0  0  0  0  0  0
  186.6060  177.3530  142.7210 C   0  0  2  0  0  3  0  0  0  0  0  0
  189.7370  173.7010  144.3150 C   0  0  0  0  0  2  0  0  0  0  0  0
  190.4300  176.7910  147.2710 C   0  0  0  0  0  1  0  0  0  0  0  0
  189.0240  176.9150  146.7140 C   0  0  1  0  0  0  0  0  0  0  0  0
  187.0660  178.2990  147.2670 C   0  0  0  0  0  0  0  0  0  0  0  0
  189.0330  177.6200  145.3340 C   0  0  2  0  0  3  0  0  0  0  0  0
  187.5620  173.1910  141.8930 O   0  0  0  0  0  0  0  0  0  0  0  0
  188.4470  176.1450  143.5130 C   0  0  1  0  0  3  0  0  0  0  0  0
  186.5210  178.1190  145.8880 C   0  0  0  0  0  2  0  0  0  0  0  0
  188.2700  177.6980  147.6320 O   0  0  0  0  0  0  0  0  0  0  0  0
  188.7040  173.6960  142.0510 C   0  0  0  0  0  0  0  0  0  0  0  0
  190.8770  176.0140  144.3720 C   0  0  0  0  0  0  0  0  0  0  0  0
  187.1820  176.5900  141.5430 C   0  0  2  0  0  3  0  0  0  0  0  0
  186.4010  178.9830  148.1360 N   0  0  0  0  0  2  0  0  0  0  0  0
  189.0200  174.9540  141.4520 N   0  0  0  0  0  2  0  0  0  0  0  0
  192.0680  176.7480  144.4720 C   0  0  0  0  0  3  0  0  0  0  0  0
  192.1760  173.9680  144.6450 C   0  0  0  0  0  3  0  0  0  0  0  0
  193.3460  174.7190  144.7540 C   0  0  0  0  0  3  0  0  0  0  0  0
  189.6970  173.0280  142.9440 C   0  0  0  0  0  2  0  0  0  0  0  0
  187.2140  176.8100  143.9330 N   0  0  1  0  0  0  0  0  0  0  0  0
  188.5650  176.2270  142.0070 C   0  0  2  0  0  3  0  0  0  0  0  0
  187.6060  177.9070  144.8200 C   0  0  2  0  0  3  0  0  0  0  0  0
  185.1010  177.1660  142.7700 C   0  0  0  0  0  1  0  0  0  0  0  0
  189.6140  176.8250  144.1730 C   0  0  2  0  0  3  0  0  0  0  0  0
  1 21  1  0  0  0  0
  2  8  1  0  0  0  0
  3 17  1  0  0  0  0
  4 22  1  0  0  0  0
  5 27  1  1  0  0  0
  5 24  1  0  0  0  0
  6  1  1  0  0  0  0
  8  7  1  1  0  0  0
  8 14  1  0  0  0  0
  9 14  1  0  0  0  0
  9 18  2  0  0  0  0
 10  8  1  0  0  0  0
 11 15  2  0  0  0  0
 12 24  1  0  0  0  0
 12 28  1  0  0  0  0
 13  9  1  0  0  0  0
 15 23  1  0  0  0  0
 16  1  2  0  0  0  0
 16 20  1  0  0  0  0
 17 25  1  0  0  0  0
 17  5  1  0  0  0  0
 19 25  1  0  0  0  0
 19 15  1  0  0  0  0
 20  4  2  0  0  0  0
 21 22  2  0  0  0  0
 23  6  1  0  0  0  0
 24 26  1  0  0  0  0
 25 12  1  0  0  0  0
 26 10  1  0  0  0  0
 26 13  1  0  0  0  0
 28 16  1  0  0  0  0
 28 10  1  0  0  0  0
M  END
>  <MODEL>
2

>  <REMARK>
 VINA RESULT:      -8.1      2.195      5.040
  Name = 
  0 active torsions:
  status: ('A' for Active; 'I' for Inactive)
                            x       y       z     vdW  Elec       q    Type
                         _______ _______ _______ _____ _____    ______ ____

>  <TORSDO>
F 0

$$$$
=
 OpenBabel11112417423D

 28 32  0  0  1  0  0  0  0  0999 V2000
  190.1120  175.4950  143.2570 C   0  0  0  0  0  0  0  0  0  0  0  0
  188.0630  177.8220  141.7260 O   0  0  0  0  0  1  0  0  0  0  0  0
  186.0840  176.3980  147.9300 C   0  0  0  0  0  1  0  0  0  0  0  0
  189.7050  172.8830  142.3070 C   0  0  0  0  0  3  0  0  0  0  0  0
  185.8590  177.6780  145.8080 C   0  0  2  0  0  3  0  0  0  0  0  0
  190.4300  176.8680  143.7740 C   0  0  0  0  0  2  0  0  0  0  0  0
  187.8160  175.8100  140.4860 C   0  0  0  0  0  1  0  0  0  0  0  0
  187.1380  176.8340  141.3760 C   0  0  1  0  0  0  0  0  0  0  0  0
  185.0490  178.1280  141.2340 C   0  0  0  0  0  0  0  0  0  0  0  0
  186.5420  176.1640  142.6400 C   0  0  2  0  0  3  0  0  0  0  0  0
  190.0670  178.3130  146.7130 O   0  0  0  0  0  0  0  0  0  0  0  0
  187.6970  176.7800  144.6710 C   0  0  1  0  0  3  0  0  0  0  0  0
  185.0290  178.3020  142.7180 C   0  0  0  0  0  2  0  0  0  0  0  0
  186.0840  177.4230  140.6220 O   0  0  0  0  0  0  0  0  0  0  0  0
  190.0760  177.1550  146.2200 C   0  0  0  0  0  0  0  0  0  0  0  0
  188.7980  174.9480  143.2240 C   0  0  0  0  0  0  0  0  0  0  0  0
  186.8290  177.1660  146.8560 C   0  0  2  0  0  3  0  0  0  0  0  0
  184.1250  178.6660  140.5130 N   0  0  0  0  0  2  0  0  0  0  0  0
  189.0820  176.2040  146.6060 N   0  0  0  0  0  2  0  0  0  0  0  0
  188.6220  173.6390  142.7550 C   0  0  0  0  0  3  0  0  0  0  0  0
  191.1890  174.7230  142.7990 C   0  0  0  0  0  3  0  0  0  0  0  0
  190.9880  173.4260  142.3260 C   0  0  0  0  0  3  0  0  0  0  0  0
  191.0680  176.8040  145.1610 C   0  0  0  0  0  2  0  0  0  0  0  0
  186.5680  177.6990  144.5300 N   0  0  1  0  0  0  0  0  0  0  0  0
  187.7180  176.2340  146.0810 C   0  0  2  0  0  3  0  0  0  0  0  0
  185.7060  177.1520  143.4810 C   0  0  2  0  0  3  0  0  0  0  0  0
  185.4040  179.0800  146.1680 C   0  0  0  0  0  1  0  0  0  0  0  0
  187.5420  175.6650  143.6740 C   0  0  2  0  0  3  0  0  0  0  0  0
  1  6  1  0  0  0  0
  4 22  2  0  0  0  0
  4 20  1  0  0  0  0
  5 27  1  1  0  0  0
  5 17  1  0  0  0  0
  6 23  1  0  0  0  0
  8  7  1  6  0  0  0
  8  2  1  0  0  0  0
  8 10  1  0  0  0  0
  9 13  1  0  0  0  0
 10 26  1  0  0  0  0
 10 28  1  0  0  0  0
 12 25  1  0  0  0  0
 13 26  1  0  0  0  0
 14  9  1  0  0  0  0
 14  8  1  0  0  0  0
 15 19  1  0  0  0  0
 15 11  2  0  0  0  0
 16  1  1  0  0  0  0
 16 28  1  0  0  0  0
 17  3  1  0  0  0  0
 18  9  2  0  0  0  0
 20 16  2  0  0  0  0
 21  1  2  0  0  0  0
 22 21  1  0  0  0  0
 23 15  1  0  0  0  0
 24 12  1  0  0  0  0
 24  5  1  0  0  0  0
 25 19  1  0  0  0  0
 25 17  1  0  0  0  0
 26 24  1  0  0  0  0
 28 12  1  0  0  0  0
M  END
>  <MODEL>
3

>  <REMARK>
 VINA RESULT:      -8.0      1.731      6.339
  Name = 
  0 active torsions:
  status: ('A' for Active; 'I' for Inactive)
                            x       y       z     vdW  Elec       q    Type
                         _______ _______ _______ _____ _____    ______ ____

>  <TORSDO>
F 0

$$$$
=
 OpenBabel11112417423D

 28 32  0  0  1  0  0  0  0  0999 V2000
  188.7180  176.1630  144.7870 C   0  0  0  0  0  0  0  0  0  0  0  0
  191.8460  177.2590  143.8000 O   0  0  0  0  0  1  0  0  0  0  0  0
  190.0660  171.6010  140.7570 C   0  0  0  0  0  1  0  0  0  0  0  0
  188.7170  175.0250  147.3560 C   0  0  0  0  0  3  0  0  0  0  0  0
  191.6580  173.4810  141.1100 C   0  0  2  0  0  3  0  0  0  0  0  0
  188.6250  176.8100  143.4360 C   0  0  0  0  0  2  0  0  0  0  0  0
  192.0340  176.7260  146.1070 C   0  0  0  0  0  1  0  0  0  0  0  0
  192.4760  176.3910  144.6960 C   0  0  1  0  0  0  0  0  0  0  0  0
  194.6560  176.0410  143.6090 C   0  0  0  0  0  0  0  0  0  0  0  0
  192.1560  174.9140  144.3490 C   0  0  2  0  0  3  0  0  0  0  0  0
  187.9530  175.6540  140.4240 O   0  0  0  0  0  0  0  0  0  0  0  0
  190.4180  174.6870  142.6860 C   0  0  1  0  0  3  0  0  0  0  0  0
  194.0130  175.2330  142.5280 C   0  0  0  0  0  2  0  0  0  0  0  0
  193.8840  176.5890  144.6310 O   0  0  0  0  0  0  0  0  0  0  0  0
  187.8300  175.2990  141.6250 C   0  0  0  0  0  0  0  0  0  0  0  0
  189.6500  175.1360  145.1090 C   0  0  0  0  0  0  0  0  0  0  0  0
  190.2020  173.1020  140.9200 C   0  0  2  0  0  3  0  0  0  0  0  0
  195.9260  176.2620  143.5740 N   0  0  0  0  0  2  0  0  0  0  0  0
  188.1750  173.9690  142.0170 N   0  0  0  0  0  2  0  0  0  0  0  0
  189.6230  174.5770  146.3940 C   0  0  0  0  0  3  0  0  0  0  0  0
  187.8170  176.6040  145.7660 C   0  0  0  0  0  3  0  0  0  0  0  0
  187.8160  176.0410  147.0430 C   0  0  0  0  0  3  0  0  0  0  0  0
  187.4150  176.2950  142.6580 C   0  0  0  0  0  2  0  0  0  0  0  0
  191.6940  174.6610  141.9720 N   0  0  1  0  0  0  0  0  0  0  0  0
  189.5590  173.5380  142.2070 C   0  0  2  0  0  3  0  0  0  0  0  0
  192.7410  174.4990  142.9820 C   0  0  2  0  0  3  0  0  0  0  0  0
  192.2850  173.8050  139.7670 C   0  0  0  0  0  1  0  0  0  0  0  0
  190.6850  174.5680  144.1620 C   0  0  2  0  0  3  0  0  0  0  0  0
  1 16  2  0  0  0  0
  1 21  1  0  0  0  0
  2  8  1  0  0  0  0
  3 17  1  0  0  0  0
  5 27  1  6  0  0  0
  5 24  1  0  0  0  0
  6  1  1  0  0  0  0
  8  7  1  1  0  0  0
  9 14  1  0  0  0  0
 10  8  1  0  0  0  0
 11 15  2  0  0  0  0
 12 28  1  0  0  0  0
 13 26  1  0  0  0  0
 13  9  1  0  0  0  0
 14  8  1  0  0  0  0
 15 19  1  0  0  0  0
 15 23  1  0  0  0  0
 16 20  1  0  0  0  0
 17  5  1  0  0  0  0
 17 25  1  0  0  0  0
 18  9  2  0  0  0  0
 19 25  1  0  0  0  0
 20  4  2  0  0  0  0
 21 22  2  0  0  0  0
 22  4  1  0  0  0  0
 23  6  1  0  0  0  0
 24 12  1  0  0  0  0
 24 26  1  0  0  0  0
 25 12  1  0  0  0  0
 26 10  1  0  0  0  0
 28 10  1  0  0  0  0
 28 16  1  0  0  0  0
M  END
>  <MODEL>
4

>  <REMARK>
 VINA RESULT:      -7.9      2.102      3.039
  Name = 
  0 active torsions:
  status: ('A' for Active; 'I' for Inactive)
                            x       y       z     vdW  Elec       q    Type
                         _______ _______ _______ _____ _____    ______ ____

>  <TORSDO>
F 0

$$$$
=
 OpenBabel11112417423D

 28 32  0  0  1  0  0  0  0  0999 V2000
  188.4260  176.1310  145.5970 C   0  0  0  0  0  0  0  0  0  0  0  0
  189.4130  173.7720  143.2700 O   0  0  0  0  0  1  0  0  0  0  0  0
  194.5000  177.5240  145.3870 C   0  0  0  0  0  1  0  0  0  0  0  0
  187.0420  178.2900  144.4500 C   0  0  0  0  0  3  0  0  0  0  0  0
  193.5900  175.6470  144.0300 C   0  0  2  0  0  3  0  0  0  0  0  0
  189.1030  174.9860  146.2930 C   0  0  0  0  0  2  0  0  0  0  0  0
  187.9460  175.2490  142.1270 C   0  0  0  0  0  1  0  0  0  0  0  0
  189.3600  174.7110  142.2370 C   0  0  1  0  0  0  0  0  0  0  0  0
  190.9840  173.7900  140.6340 C   0  0  0  0  0  0  0  0  0  0  0  0
  190.3740  175.8580  142.4820 C   0  0  2  0  0  3  0  0  0  0  0  0
  191.9410  174.7100  147.9450 O   0  0  0  0  0  0  0  0  0  0  0  0
  191.3510  175.8020  144.6910 C   0  0  1  0  0  3  0  0  0  0  0  0
  192.1160  174.1410  141.5440 C   0  0  0  0  0  2  0  0  0  0  0  0
  189.6700  174.0720  141.0040 O   0  0  0  0  0  0  0  0  0  0  0  0
  191.1630  175.6130  147.5420 C   0  0  0  0  0  0  0  0  0  0  0  0
  188.9920  176.8320  144.4950 C   0  0  0  0  0  0  0  0  0  0  0  0
  193.5680  176.3280  145.3850 C   0  0  2  0  0  3  0  0  0  0  0  0
  191.2210  173.1900  139.5170 N   0  0  0  0  0  2  0  0  0  0  0  0
  191.6880  176.7820  146.9090 N   0  0  0  0  0  2  0  0  0  0  0  0
  188.2870  177.9120  143.9460 C   0  0  0  0  0  3  0  0  0  0  0  0
  187.1730  176.5210  146.0890 C   0  0  0  0  0  3  0  0  0  0  0  0
  186.4840  177.5920  145.5190 C   0  0  0  0  0  3  0  0  0  0  0  0
  189.6850  175.4210  147.6380 C   0  0  0  0  0  2  0  0  0  0  0  0
  192.2630  175.0790  143.8050 N   0  0  1  0  0  0  0  0  0  0  0  0
  192.1430  176.7880  145.5200 C   0  0  2  0  0  3  0  0  0  0  0  0
  191.8340  175.3620  142.4340 C   0  0  2  0  0  3  0  0  0  0  0  0
  194.6310  174.5430  144.0260 C   0  0  0  0  0  1  0  0  0  0  0  0
  190.3270  176.5180  143.8530 C   0  0  2  0  0  3  0  0  0  0  0  0
  1 21  1  0  0  0  0
  1  6  1  0  0  0  0
  4 22  1  0  0  0  0
  5 27  1  1  0  0  0
  5 17  1  0  0  0  0
  6 23  1  0  0  0  0
  8  7  1  6  0  0  0
  8 10  1  0  0  0  0
  8  2  1  0  0  0  0
  9 14  1  0  0  0  0
  9 13  1  0  0  0  0
 10 28  1  0  0  0  0
 12 25  1  0  0  0  0
 13 26  1  0  0  0  0
 14  8  1  0  0  0  0
 15 23  1  0  0  0  0
 15 11  2  0  0  0  0
 16  1  2  0  0  0  0
 17  3  1  0  0  0  0
 17 25  1  0  0  0  0
 18  9  2  0  0  0  0
 19 15  1  0  0  0  0
 20  4  2  0  0  0  0
 20 16  1  0  0  0  0
 22 21  2  0  0  0  0
 24  5  1  0  0  0  0
 24 12  1  0  0  0  0
 25 19  1  0  0  0  0
 26 10  1  0  0  0  0
 26 24  1  0  0  0  0
 28 16  1  0  0  0  0
 28 12  1  0  0  0  0
M  END
>  <MODEL>
5

>  <REMARK>
 VINA RESULT:      -7.7      2.276      5.315
  Name = 
  0 active torsions:
  status: ('A' for Active; 'I' for Inactive)
                            x       y       z     vdW  Elec       q    Type
                         _______ _______ _______ _____ _____    ______ ____

>  <TORSDO>
F 0

$$$$
=
 OpenBabel11112417423D

 28 32  0  0  1  0  0  0  0  0999 V2000
  188.4540  176.3610  144.4170 C   0  0  0  0  0  0  0  0  0  0  0  0
  189.5060  173.3270  143.1350 O   0  0  0  0  0  1  0  0  0  0  0  0
  194.4850  176.7530  145.9480 C   0  0  0  0  0  1  0  0  0  0  0  0
  187.9780  178.2860  142.4270 C   0  0  0  0  0  3  0  0  0  0  0  0
  193.6030  174.7210  144.8140 C   0  0  2  0  0  3  0  0  0  0  0  0
  188.6280  175.3720  145.5330 C   0  0  0  0  0  2  0  0  0  0  0  0
  188.7990  174.6190  141.2710 C   0  0  0  0  0  1  0  0  0  0  0  0
  189.9630  173.9360  141.9630 C   0  0  1  0  0  0  0  0  0  0  0  0
  191.7260  172.3790  141.2400 C   0  0  0  0  0  0  0  0  0  0  0  0
  191.0960  174.9480  142.2730 C   0  0  2  0  0  3  0  0  0  0  0  0
  190.7370  175.1670  148.0560 O   0  0  0  0  0  0  0  0  0  0  0  0
  191.3630  175.3750  144.6360 C   0  0  1  0  0  3  0  0  0  0  0  0
  192.6000  172.8050  142.3750 C   0  0  0  0  0  2  0  0  0  0  0  0
  190.4610  172.9390  141.0770 O   0  0  0  0  0  0  0  0  0  0  0  0
  190.3310  176.0220  147.2280 C   0  0  0  0  0  0  0  0  0  0  0  0
  189.4540  176.6350  143.4410 C   0  0  0  0  0  0  0  0  0  0  0  0
  193.3490  175.7510  145.8980 C   0  0  2  0  0  3  0  0  0  0  0  0
  192.1310  171.4620  140.4280 N   0  0  0  0  0  2  0  0  0  0  0  0
  191.2640  176.8790  146.5660 N   0  0  0  0  0  2  0  0  0  0  0  0
  189.1970  177.6070  142.4640 C   0  0  0  0  0  3  0  0  0  0  0  0
  187.2340  177.0490  144.3620 C   0  0  0  0  0  3  0  0  0  0  0  0
  186.9960  178.0040  143.3740 C   0  0  0  0  0  3  0  0  0  0  0  0
  188.8830  176.0790  146.8640 C   0  0  0  0  0  2  0  0  0  0  0  0
  192.3020  174.3090  144.2890 N   0  0  1  0  0  0  0  0  0  0  0  0
  192.0860  176.4290  145.4440 C   0  0  2  0  0  3  0  0  0  0  0  0
  192.3580  174.2540  142.8270 C   0  0  2  0  0  3  0  0  0  0  0  0
  194.3240  173.5220  145.4010 C   0  0  0  0  0  1  0  0  0  0  0  0
  190.8100  175.9660  143.3690 C   0  0  2  0  0  3  0  0  0  0  0  0
  1  6  1  0  0  0  0
  4 20  2  0  0  0  0
  4 22  1  0  0  0  0
  5 27  1  1  0  0  0
  5 17  1  0  0  0  0
  6 23  1  0  0  0  0
  8  7  1  6  0  0  0
  8 10  1  0  0  0  0
  8  2  1  0  0  0  0
  9 13  1  0  0  0  0
 10 26  1  0  0  0  0
 10 28  1  0  0  0  0
 12 25  1  0  0  0  0
 13 26  1  0  0  0  0
 14  9  1  0  0  0  0
 14  8  1  0  0  0  0
 15 11  2  0  0  0  0
 16  1  2  0  0  0  0
 17  3  1  0  0  0  0
 18  9  2  0  0  0  0
 19 15  1  0  0  0  0
 20 16  1  0  0  0  0
 21  1  1  0  0  0  0
 22 21  2  0  0  0  0
 23 15  1  0  0  0  0
 24 12  1  0  0  0  0
 24  5  1  0  0  0  0
 25 17  1  0  0  0  0
 25 19  1  0  0  0  0
 26 24  1  0  0  0  0
 28 16  1  0  0  0  0
 28 12  1  0  0  0  0
M  END
>  <MODEL>
6

>  <REMARK>
 VINA RESULT:      -7.6      2.502      5.422
  Name = 
  0 active torsions:
  status: ('A' for Active; 'I' for Inactive)
                            x       y       z     vdW  Elec       q    Type
                         _______ _______ _______ _____ _____    ______ ____

>  <TORSDO>
F 0

$$$$
=
 OpenBabel11112417423D

 28 32  0  0  1  0  0  0  0  0999 V2000
  191.8850  174.1920  142.4170 C   0  0  0  0  0  0  0  0  0  0  0  0
  191.4120  174.5710  145.8210 O   0  0  0  0  0  1  0  0  0  0  0  0
  187.2260  178.3330  142.2480 C   0  0  0  0  0  1  0  0  0  0  0  0
  194.1880  175.4990  141.4790 C   0  0  0  0  0  3  0  0  0  0  0  0
  188.0670  177.4700  144.4260 C   0  0  2  0  0  3  0  0  0  0  0  0
  190.6730  173.4200  142.8490 C   0  0  0  0  0  2  0  0  0  0  0  0
  193.5890  175.4040  145.3630 C   0  0  0  0  0  1  0  0  0  0  0  0
  192.1870  175.7340  145.8390 C   0  0  1  0  0  0  0  0  0  0  0  0
  191.2620  176.9260  147.7830 C   0  0  0  0  0  0  0  0  0  0  0  0
  191.5460  176.8380  144.9590 C   0  0  2  0  0  3  0  0  0  0  0  0
  187.4500  173.7550  142.2490 O   0  0  0  0  0  0  0  0  0  0  0  0
  189.7150  176.0260  143.6070 C   0  0  1  0  0  3  0  0  0  0  0  0
  189.9960  177.2040  147.0400 C   0  0  0  0  0  2  0  0  0  0  0  0
  192.2920  176.2090  147.1770 O   0  0  0  0  0  0  0  0  0  0  0  0
  188.5480  174.1540  141.7810 C   0  0  0  0  0  0  0  0  0  0  0  0
  192.0970  175.5660  142.7260 C   0  0  0  0  0  0  0  0  0  0  0  0
  187.6750  177.1010  143.0080 C   0  0  2  0  0  3  0  0  0  0  0  0
  191.3870  177.3200  149.0050 N   0  0  0  0  0  2  0  0  0  0  0  0
  188.7190  175.5280  141.4270 N   0  0  0  0  0  2  0  0  0  0  0  0
  193.2490  176.1990  142.2380 C   0  0  0  0  0  3  0  0  0  0  0  0
  192.8400  173.5040  141.6560 C   0  0  0  0  0  3  0  0  0  0  0  0
  193.9850  174.1510  141.1910 C   0  0  0  0  0  3  0  0  0  0  0  0
  189.7040  173.2130  141.6860 C   0  0  0  0  0  2  0  0  0  0  0  0
  189.1300  176.5570  144.8380 N   0  0  1  0  0  0  0  0  0  0  0  0
  188.9550  176.5740  142.4210 C   0  0  2  0  0  3  0  0  0  0  0  0
  190.1870  177.3090  145.5180 C   0  0  2  0  0  3  0  0  0  0  0  0
  186.8700  177.3170  145.3470 C   0  0  0  0  0  1  0  0  0  0  0  0
  191.1620  176.4320  143.5430 C   0  0  2  0  0  3  0  0  0  0  0  0
  1 16  1  0  0  0  0
  1  6  1  0  0  0  0
  2  8  1  0  0  0  0
  3 17  1  0  0  0  0
  4 20  1  0  0  0  0
  5 24  1  0  0  0  0
  5 27  1  1  0  0  0
  8  7  1  6  0  0  0
  8 14  1  0  0  0  0
  9 18  2  0  0  0  0
 10 26  1  0  0  0  0
 10  8  1  0  0  0  0
 12 24  1  0  0  0  0
 13  9  1  0  0  0  0
 14  9  1  0  0  0  0
 15 11  2  0  0  0  0
 16 28  1  0  0  0  0
 17  5  1  0  0  0  0
 19 15  1  0  0  0  0
 19 25  1  0  0  0  0
 20 16  2  0  0  0  0
 21  1  2  0  0  0  0
 22  4  2  0  0  0  0
 22 21  1  0  0  0  0
 23 15  1  0  0  0  0
 23  6  1  0  0  0  0
 24 26  1  0  0  0  0
 25 17  1  0  0  0  0
 25 12  1  0  0  0  0
 26 13  1  0  0  0  0
 28 12  1  0  0  0  0
 28 10  1  0  0  0  0
M  END
>  <MODEL>
7

>  <REMARK>
 VINA RESULT:      -7.4      2.062      5.393
  Name = 
  0 active torsions:
  status: ('A' for Active; 'I' for Inactive)
                            x       y       z     vdW  Elec       q    Type
                         _______ _______ _______ _____ _____    ______ ____

>  <TORSDO>
F 0

$$$$
=
 OpenBabel11112417423D

 28 32  0  0  1  0  0  0  0  0999 V2000
  186.1760  177.6110  144.9970 C   0  0  0  0  0  0  0  0  0  0  0  0
  186.6910  175.1650  142.6080 O   0  0  0  0  0  1  0  0  0  0  0  0
  192.3100  176.8220  145.7910 C   0  0  0  0  0  1  0  0  0  0  0  0
  185.8070  180.1660  143.8880 C   0  0  0  0  0  3  0  0  0  0  0  0
  191.0650  175.4410  144.1370 C   0  0  2  0  0  3  0  0  0  0  0  0
  186.3040  176.2720  145.6630 C   0  0  0  0  0  2  0  0  0  0  0  0
  186.0160  177.1110  141.4230 C   0  0  0  0  0  1  0  0  0  0  0  0
  187.1290  176.1120  141.6770 C   0  0  1  0  0  0  0  0  0  0  0  0
  188.5960  174.7600  140.2360 C   0  0  0  0  0  0  0  0  0  0  0  0
  188.4120  176.8240  142.1770 C   0  0  2  0  0  3  0  0  0  0  0  0
  188.5670  174.9550  147.6640 O   0  0  0  0  0  0  0  0  0  0  0  0
  188.9300  176.3320  144.4850 C   0  0  1  0  0  3  0  0  0  0  0  0
  189.6110  174.6540  141.3270 C   0  0  0  0  0  2  0  0  0  0  0  0
  187.4100  175.4620  140.4430 O   0  0  0  0  0  0  0  0  0  0  0  0
  188.2150  176.0890  147.2470 C   0  0  0  0  0  0  0  0  0  0  0  0
  187.1200  178.1230  144.0620 C   0  0  0  0  0  0  0  0  0  0  0  0
  191.0460  176.0240  145.5360 C   0  0  2  0  0  3  0  0  0  0  0  0
  188.8020  174.1660  139.1090 N   0  0  0  0  0  2  0  0  0  0  0  0
  189.1990  177.0310  146.8160 N   0  0  0  0  0  2  0  0  0  0  0  0
  186.9200  179.4040  143.5300 C   0  0  0  0  0  3  0  0  0  0  0  0
  185.0620  178.3890  145.3430 C   0  0  0  0  0  3  0  0  0  0  0  0
  184.8770  179.6570  144.7920 C   0  0  0  0  0  3  0  0  0  0  0  0
  186.7640  176.4160  147.1130 C   0  0  0  0  0  2  0  0  0  0  0  0
  189.6820  175.3780  143.6700 N   0  0  1  0  0  0  0  0  0  0  0  0
  189.8560  176.9430  145.5130 C   0  0  2  0  0  3  0  0  0  0  0  0
  189.6080  175.8550  142.2870 C   0  0  2  0  0  3  0  0  0  0  0  0
  191.6620  174.0460  144.1690 C   0  0  0  0  0  1  0  0  0  0  0  0
  188.3610  177.3960  143.5880 C   0  0  2  0  0  3  0  0  0  0  0  0
  1 21  1  0  0  0  0
  1  6  1  0  0  0  0
  4 22  1  0  0  0  0
  5 27  1  1  0  0  0
  5 17  1  0  0  0  0
  6 23  1  0  0  0  0
  8  7  1  6  0  0  0
  8 10  1  0  0  0  0
  8  2  1  0  0  0  0
  9 14  1  0  0  0  0
  9 13  1  0  0  0  0
 10 26  1  0  0  0  0
 10 28  1  0  0  0  0
 12 25  1  0  0  0  0
 13 26  1  0  0  0  0
 14  8  1  0  0  0  0
 15 11  2  0  0  0  0
 16  1  2  0  0  0  0
 17  3  1  0  0  0  0
 18  9  2  0  0  0  0
 19 15  1  0  0  0  0
 20  4  2  0  0  0  0
 20 16  1  0  0  0  0
 22 21  2  0  0  0  0
 23 15  1  0  0  0  0
 24  5  1  0  0  0  0
 24 12  1  0  0  0  0
 25 17  1  0  0  0  0
 25 19  1  0  0  0  0
 26 24  1  0  0  0  0
 28 16  1  0  0  0  0
 28 12  1  0  0  0  0
M  END
>  <MODEL>
8

>  <REMARK>
 VINA RESULT:      -7.3      1.944      4.804
  Name = 
  0 active torsions:
  status: ('A' for Active; 'I' for Inactive)
                            x       y       z     vdW  Elec       q    Type
                         _______ _______ _______ _____ _____    ______ ____

>  <TORSDO>
F 0

$$$$
=
 OpenBabel11112417423D

 28 32  0  0  1  0  0  0  0  0999 V2000
  192.3760  174.7230  145.1820 C   0  0  0  0  0  0  0  0  0  0  0  0
  188.9410  175.1200  145.2190 O   0  0  0  0  0  1  0  0  0  0  0  0
  191.2300  173.4160  139.1940 C   0  0  0  0  0  1  0  0  0  0  0  0
  193.7620  177.1660  145.2450 C   0  0  0  0  0  3  0  0  0  0  0  0
  189.3590  173.9320  140.7510 C   0  0  2  0  0  3  0  0  0  0  0  0
  191.7110  173.3770  145.2070 C   0  0  0  0  0  2  0  0  0  0  0  0
  189.8570  177.2630  145.6800 C   0  0  0  0  0  1  0  0  0  0  0  0
  189.0470  176.4190  144.7140 C   0  0  1  0  0  0  0  0  0  0  0  0
  186.8810  176.6970  143.5790 C   0  0  0  0  0  0  0  0  0  0  0  0
  189.6940  176.4130  143.3050 C   0  0  2  0  0  3  0  0  0  0  0  0
  191.5170  170.9160  143.0250 O   0  0  0  0  0  0  0  0  0  0  0  0
  190.6160  174.2640  142.6970 C   0  0  1  0  0  3  0  0  0  0  0  0
  187.2900  175.7330  142.5130 C   0  0  0  0  0  2  0  0  0  0  0  0
  187.7490  176.9970  144.6270 O   0  0  0  0  0  0  0  0  0  0  0  0
  192.2090  171.9460  143.2330 C   0  0  0  0  0  0  0  0  0  0  0  0
  192.0560  175.7460  144.2440 C   0  0  0  0  0  0  0  0  0  0  0  0
  190.6620  173.1750  140.5780 C   0  0  2  0  0  3  0  0  0  0  0  0
  185.7050  177.2250  143.5480 N   0  0  0  0  0  2  0  0  0  0  0  0
  192.5230  172.8280  142.1530 N   0  0  0  0  0  2  0  0  0  0  0  0
  192.7690  176.9520  144.2890 C   0  0  0  0  0  3  0  0  0  0  0  0
  193.3750  174.9560  146.1380 C   0  0  0  0  0  3  0  0  0  0  0  0
  194.0630  176.1690  146.1710 C   0  0  0  0  0  3  0  0  0  0  0  0
  192.6230  172.2980  144.6240 C   0  0  0  0  0  2  0  0  0  0  0  0
  189.2560  174.3090  142.1590 N   0  0  1  0  0  0  0  0  0  0  0  0
  191.5600  173.7880  141.6160 C   0  0  2  0  0  3  0  0  0  0  0  0
  188.8070  175.6990  142.2630 C   0  0  2  0  0  3  0  0  0  0  0  0
  188.1910  173.0410  140.3700 C   0  0  0  0  0  1  0  0  0  0  0  0
  190.9990  175.6410  143.1660 C   0  0  2  0  0  3  0  0  0  0  0  0
  1  6  1  0  0  0  0
  1 21  1  0  0  0  0
  3 17  1  0  0  0  0
  4 22  1  0  0  0  0
  5 27  1  1  0  0  0
  5 24  1  0  0  0  0
  8  2  1  0  0  0  0
  8  7  1  1  0  0  0
  9 14  1  0  0  0  0
 10  8  1  0  0  0  0
 11 15  2  0  0  0  0
 12 28  1  0  0  0  0
 13  9  1  0  0  0  0
 14  8  1  0  0  0  0
 15 23  1  0  0  0  0
 16 20  1  0  0  0  0
 16  1  2  0  0  0  0
 17  5  1  0  0  0  0
 17 25  1  0  0  0  0
 18  9  2  0  0  0  0
 19 15  1  0  0  0  0
 20  4  2  0  0  0  0
 21 22  2  0  0  0  0
 23  6  1  0  0  0  0
 24 26  1  0  0  0  0
 24 12  1  0  0  0  0
 25 19  1  0  0  0  0
 25 12  1  0  0  0  0
 26 13  1  0  0  0  0
 26 10  1  0  0  0  0
 28 10  1  0  0  0  0
 28 16  1  0  0  0  0
M  END
>  <MODEL>
9

>  <REMARK>
 VINA RESULT:      -7.1      2.431      5.759
  Name = 
  0 active torsions:
  status: ('A' for Active; 'I' for Inactive)
                            x       y       z     vdW  Elec       q    Type
                         _______ _______ _______ _____ _____    ______ ____

>  <TORSDO>
F 0

$$$$
