=
 OpenBabel11112416383D

 32 37  0  0  1  0  0  0  0  0999 V2000
  195.6940  174.5390  146.1210 C   0  0  0  0  0  2  0  0  0  0  0  0
  190.2920  175.1700  144.3210 C   0  0  1  0  0  3  0  0  0  0  0  0
  189.4350  173.6330  139.7480 C   0  0  0  0  0  3  0  0  0  0  0  0
  188.2730  174.4040  139.6800 C   0  0  0  0  0  3  0  0  0  0  0  0
  188.5850  176.8200  145.4220 C   0  0  1  0  0  3  0  0  0  0  0  0
  187.2550  177.5850  145.2840 C   0  0  2  0  0  3  0  0  0  0  0  0
  192.7080  175.4400  145.0200 N   0  0  2  0  0  0  0  0  0  0  0  0
  192.0790  173.9060  143.1480 C   0  0  0  0  0  2  0  0  0  0  0  0
  185.4330  178.2200  144.0550 C   0  0  1  0  0  3  0  0  0  0  0  0
  194.2920  173.6920  144.1920 C   0  0  0  0  0  2  0  0  0  0  0  0
  190.3110  173.7860  140.8240 C   0  0  0  0  0  3  0  0  0  0  0  0
  190.9850  174.9580  142.9760 C   0  0  1  0  0  3  0  0  0  0  0  0
  190.0200  174.6950  141.8520 C   0  0  0  0  0  0  0  0  0  0  0  0
  188.5950  176.4890  142.8840 C   0  0  1  0  0  3  0  0  0  0  0  0
  185.0030  177.4910  145.1890 O   0  0  0  0  0  0  0  0  0  0  0  0
  194.8520  175.8170  146.1320 C   0  0  0  0  0  2  0  0  0  0  0  0
  192.8370  174.0650  144.4770 C   0  0  1  0  0  3  0  0  0  0  0  0
  186.0890  176.8180  145.6750 N   0  0  0  0  0  2  0  0  0  0  0  0
  193.3690  175.5330  146.3200 C   0  0  0  0  0  2  0  0  0  0  0  0
  195.0150  173.3260  145.4820 C   0  0  1  0  0  3  0  0  0  0  0  0
  187.9860  175.3280  140.6880 C   0  0  0  0  0  3  0  0  0  0  0  0
  188.8520  175.4760  141.7860 C   0  0  0  0  0  0  0  0  0  0  0  0
  187.1640  177.0120  142.8530 C   0  0  0  0  0  2  0  0  0  0  0  0
  191.3030  175.7900  145.3010 C   0  0  0  0  0  2  0  0  0  0  0  0
  188.6460  176.1110  146.7700 C   0  0  0  0  0  1  0  0  0  0  0  0
  185.0580  179.6800  144.2180 C   0  0  0  0  0  1  0  0  0  0  0  0
  188.8880  175.8530  144.2570 C   0  0  1  0  0  3  0  0  0  0  0  0
  186.9270  178.0840  143.9130 C   0  0  2  0  0  3  0  0  0  0  0  0
  196.0140  172.3030  145.2200 N   0  0  0  0  0  2  0  0  0  0  0  0
  195.7910  170.9240  145.5200 C   0  0  0  0  0  0  0  0  0  0  0  0
  194.5990  170.5120  146.1050 O   0  0  0  0  0  1  0  0  0  0  0  0
  196.6820  170.0760  145.2560 O   0  0  0  0  0  0  0  0  0  0  0  0
  1 16  1  0  0  0  0
  2 24  1  1  0  0  0
  3 11  1  0  0  0  0
  4  3  2  0  0  0  0
  4 21  1  0  0  0  0
  5 25  1  1  0  0  0
  6  5  1  0  0  0  0
  6 18  1  6  0  0  0
  7 24  1  1  0  0  0
  7 19  1  0  0  0  0
  9 26  1  1  0  0  0
  9 15  1  0  0  0  0
 10 17  1  0  0  0  0
 10 20  1  0  0  0  0
 11 13  2  0  0  0  0
 12  8  1  1  0  0  0
 12  2  1  0  0  0  0
 13 12  1  0  0  0  0
 14 23  1  1  0  0  0
 14 27  1  0  0  0  0
 15 18  1  0  0  0  0
 16 19  1  0  0  0  0
 17  8  1  6  0  0  0
 17  7  1  0  0  0  0
 20 29  1  6  0  0  0
 20  1  1  0  0  0  0
 21 22  2  0  0  0  0
 22 13  1  0  0  0  0
 22 14  1  0  0  0  0
 23 28  1  0  0  0  0
 27  2  1  0  0  0  0
 27  5  1  0  0  0  0
 28  9  1  0  0  0  0
 28  6  1  0  0  0  0
 29 30  1  0  0  0  0
 30 31  1  0  0  0  0
 32 30  2  0  0  0  0
M  END
>  <MODEL>
1

>  <REMARK>
 VINA RESULT:      -8.9      0.000      0.000
  Name = 
  1 active torsions:
  status: ('A' for Active; 'I' for Inactive)
    1  A    between atoms: C_20  and  N_29
                            x       y       z     vdW  Elec       q    Type
                         _______ _______ _______ _____ _____    ______ ____

>  <TORSDO>
F 1

$$$$
=
 OpenBabel11112416383D

 32 37  0  0  1  0  0  0  0  0999 V2000
  190.1200  172.1510  138.5570 C   0  0  0  0  0  2  0  0  0  0  0  0
  189.1620  175.6440  142.9960 C   0  0  1  0  0  3  0  0  0  0  0  0
  192.1960  175.0500  146.7980 C   0  0  0  0  0  3  0  0  0  0  0  0
  191.2950  175.6920  147.6500 C   0  0  0  0  0  3  0  0  0  0  0  0
  186.8940  176.8860  143.3940 C   0  0  1  0  0  3  0  0  0  0  0  0
  185.9910  177.6410  144.3890 C   0  0  2  0  0  3  0  0  0  0  0  0
  189.1410  173.8290  141.2340 N   0  0  2  0  0  0  0  0  0  0  0  0
  191.1320  174.1590  142.7120 C   0  0  0  0  0  2  0  0  0  0  0  0
  185.5420  178.4020  146.4990 C   0  0  1  0  0  3  0  0  0  0  0  0
  191.3610  172.8380  140.6530 C   0  0  0  0  0  2  0  0  0  0  0  0
  191.8080  174.7100  145.5010 C   0  0  0  0  0  3  0  0  0  0  0  0
  190.0360  174.5950  143.6820 C   0  0  1  0  0  3  0  0  0  0  0  0
  190.5230  175.0300  145.0370 C   0  0  0  0  0  0  0  0  0  0  0  0
  188.2130  175.9570  145.3810 C   0  0  1  0  0  3  0  0  0  0  0  0
  185.6470  179.5030  145.6150 O   0  0  0  0  0  0  0  0  0  0  0  0
  188.8020  172.3690  139.3040 C   0  0  0  0  0  2  0  0  0  0  0  0
  190.6120  174.0190  141.2700 C   0  0  1  0  0  3  0  0  0  0  0  0
  186.2760  179.0590  144.4860 N   0  0  0  0  0  2  0  0  0  0  0  0
  188.6720  173.7820  139.8510 C   0  0  0  0  0  2  0  0  0  0  0  0
  191.3190  172.9100  139.1320 C   0  0  1  0  0  3  0  0  0  0  0  0
  190.0060  175.9950  147.2040 C   0  0  0  0  0  3  0  0  0  0  0  0
  189.6110  175.6750  145.8930 C   0  0  0  0  0  0  0  0  0  0  0  0
  187.4620  176.9310  146.2810 C   0  0  0  0  0  2  0  0  0  0  0  0
  188.4250  174.9760  141.8230 C   0  0  0  0  0  2  0  0  0  0  0  0
  186.9960  177.6610  142.0860 C   0  0  0  0  0  1  0  0  0  0  0  0
  184.0970  178.2260  146.9230 C   0  0  0  0  0  1  0  0  0  0  0  0
  188.2880  176.5210  143.9480 C   0  0  1  0  0  3  0  0  0  0  0  0
  186.0310  177.1580  145.8030 C   0  0  2  0  0  3  0  0  0  0  0  0
  192.5440  172.3620  138.5730 N   0  0  0  0  0  2  0  0  0  0  0  0
  193.6780  173.1780  138.2770 C   0  0  0  0  0  0  0  0  0  0  0  0
  193.6390  174.5500  138.4950 O   0  0  0  0  0  1  0  0  0  0  0  0
  194.7210  172.6500  137.8100 O   0  0  0  0  0  0  0  0  0  0  0  0
  1 20  1  0  0  0  0
  1 16  1  0  0  0  0
  2 24  1  6  0  0  0
  2 12  1  0  0  0  0
  2 27  1  0  0  0  0
  3  4  1  0  0  0  0
  5 25  1  6  0  0  0
  5 27  1  0  0  0  0
  5  6  1  0  0  0  0
  6 18  1  1  0  0  0
  6 28  1  0  0  0  0
  7 19  1  6  0  0  0
  7 17  1  0  0  0  0
  7 24  1  0  0  0  0
  9 26  1  6  0  0  0
 11  3  2  0  0  0  0
 12  8  1  6  0  0  0
 12 13  1  0  0  0  0
 13 11  1  0  0  0  0
 13 22  2  0  0  0  0
 14 22  1  0  0  0  0
 14 23  1  1  0  0  0
 15  9  1  0  0  0  0
 16 19  1  0  0  0  0
 17 10  1  1  0  0  0
 17  8  1  0  0  0  0
 18 15  1  0  0  0  0
 20 29  1  6  0  0  0
 20 10  1  0  0  0  0
 21  4  2  0  0  0  0
 22 21  1  0  0  0  0
 27 14  1  0  0  0  0
 28 23  1  0  0  0  0
 28  9  1  0  0  0  0
 30 31  1  0  0  0  0
 30 29  1  0  0  0  0
 32 30  2  0  0  0  0
M  END
>  <MODEL>
2

>  <REMARK>
 VINA RESULT:      -8.8      3.236      5.549
  Name = 
  1 active torsions:
  status: ('A' for Active; 'I' for Inactive)
    1  A    between atoms: C_20  and  N_29
                            x       y       z     vdW  Elec       q    Type
                         _______ _______ _______ _____ _____    ______ ____

>  <TORSDO>
F 1

$$$$
=
 OpenBabel11112416383D

 32 37  0  0  1  0  0  0  0  0999 V2000
  185.1570  178.0100  144.9270 C   0  0  0  0  0  2  0  0  0  0  0  0
  190.1470  175.7090  143.3060 C   0  0  1  0  0  3  0  0  0  0  0  0
  189.7810  171.9190  140.2210 C   0  0  0  0  0  3  0  0  0  0  0  0
  191.0710  171.4980  140.5450 C   0  0  0  0  0  3  0  0  0  0  0  0
  192.3830  176.0290  144.6270 C   0  0  1  0  0  3  0  0  0  0  0  0
  193.8210  175.5320  144.8730 C   0  0  2  0  0  3  0  0  0  0  0  0
  188.0390  176.4450  144.4950 N   0  0  2  0  0  0  0  0  0  0  0  0
  187.9210  175.1910  142.3340 C   0  0  0  0  0  2  0  0  0  0  0  0
  195.5040  174.0270  144.5100 C   0  0  1  0  0  3  0  0  0  0  0  0
  185.9420  176.4050  143.1350 C   0  0  0  0  0  2  0  0  0  0  0  0
  189.1720  172.9350  140.9610 C   0  0  0  0  0  3  0  0  0  0  0  0
  189.2020  174.5790  142.8990 C   0  0  1  0  0  3  0  0  0  0  0  0
  189.8580  173.5520  142.0180 C   0  0  0  0  0  0  0  0  0  0  0  0
  191.8520  173.7780  143.5300 C   0  0  1  0  0  3  0  0  0  0  0  0
  195.9210  175.3100  144.0830 O   0  0  0  0  0  0  0  0  0  0  0  0
  186.2880  177.5080  145.8280 C   0  0  0  0  0  2  0  0  0  0  0  0
  187.4700  176.4320  143.1240 C   0  0  1  0  0  3  0  0  0  0  0  0
  194.8000  176.0810  143.9570 N   0  0  0  0  0  2  0  0  0  0  0  0
  187.6570  177.6740  145.1870 C   0  0  0  0  0  2  0  0  0  0  0  0
  185.3820  177.7910  143.4290 C   0  0  1  0  0  3  0  0  0  0  0  0
  191.7550  172.0930  141.6090 C   0  0  0  0  0  3  0  0  0  0  0  0
  191.1590  173.1290  142.3490 C   0  0  0  0  0  0  0  0  0  0  0  0
  193.3420  173.4590  143.5620 C   0  0  0  0  0  2  0  0  0  0  0  0
  189.5130  176.4800  144.4770 C   0  0  0  0  0  2  0  0  0  0  0  0
  192.3760  177.5400  144.4330 C   0  0  0  0  0  1  0  0  0  0  0  0
  196.2630  173.6370  145.7640 C   0  0  0  0  0  1  0  0  0  0  0  0
  191.6460  175.3050  143.4800 C   0  0  1  0  0  3  0  0  0  0  0  0
  194.0240  174.0530  144.7910 C   0  0  2  0  0  3  0  0  0  0  0  0
  184.1240  177.9810  142.7250 N   0  0  0  0  0  2  0  0  0  0  0  0
  184.0700  178.2910  141.3320 C   0  0  0  0  0  0  0  0  0  0  0  0
  185.2380  178.4480  140.5960 O   0  0  0  0  0  0  0  0  0  0  0  0
  182.9540  178.4270  140.7660 O   0  0  0  0  0  1  0  0  0  0  0  0
  1 16  1  0  0  0  0
  2 27  1  0  0  0  0
  2 24  1  1  0  0  0
  3  4  2  0  0  0  0
  3 11  1  0  0  0  0
  4 21  1  0  0  0  0
  5 25  1  6  0  0  0
  5  6  1  0  0  0  0
  6 18  1  6  0  0  0
  7 24  1  6  0  0  0
  7 19  1  0  0  0  0
  9 28  1  0  0  0  0
  9 26  1  1  0  0  0
 10 20  1  0  0  0  0
 11 13  2  0  0  0  0
 12  8  1  6  0  0  0
 12  2  1  0  0  0  0
 13 22  1  0  0  0  0
 13 12  1  0  0  0  0
 14 23  1  6  0  0  0
 15  9  1  0  0  0  0
 17  8  1  1  0  0  0
 17 10  1  0  0  0  0
 17  7  1  0  0  0  0
 18 15  1  0  0  0  0
 19 16  1  0  0  0  0
 20 29  1  6  0  0  0
 20  1  1  0  0  0  0
 21 22  2  0  0  0  0
 22 14  1  0  0  0  0
 23 28  1  0  0  0  0
 27 14  1  0  0  0  0
 27  5  1  0  0  0  0
 28  6  1  0  0  0  0
 30 29  1  0  0  0  0
 31 30  2  0  0  0  0
 32 30  1  0  0  0  0
M  END
>  <MODEL>
3

>  <REMARK>
 VINA RESULT:      -8.5      2.242      8.196
  Name = 
  1 active torsions:
  status: ('A' for Active; 'I' for Inactive)
    1  A    between atoms: C_20  and  N_29
                            x       y       z     vdW  Elec       q    Type
                         _______ _______ _______ _____ _____    ______ ____

>  <TORSDO>
F 1

$$$$
=
 OpenBabel11112416383D

 32 37  0  0  1  0  0  0  0  0999 V2000
  192.2660  172.8380  144.2050 C   0  0  0  0  0  2  0  0  0  0  0  0
  188.1100  176.7580  143.7730 C   0  0  1  0  0  3  0  0  0  0  0  0
  186.7510  178.8160  148.0080 C   0  0  0  0  0  3  0  0  0  0  0  0
  185.5400  179.2270  147.4480 C   0  0  0  0  0  3  0  0  0  0  0  0
  186.4850  176.9220  141.7300 C   0  0  1  0  0  3  0  0  0  0  0  0
  185.1570  177.4730  141.1760 C   0  0  2  0  0  3  0  0  0  0  0  0
  189.5250  174.6650  143.9030 N   0  0  2  0  0  0  0  0  0  0  0  0
  189.4700  176.2950  145.8000 C   0  0  0  0  0  2  0  0  0  0  0  0
  183.1800  178.5850  141.4660 C   0  0  1  0  0  3  0  0  0  0  0  0
  191.2750  174.6320  145.6890 C   0  0  0  0  0  2  0  0  0  0  0  0
  187.5850  177.9460  147.3030 C   0  0  0  0  0  3  0  0  0  0  0  0
  188.0480  176.4850  145.2760 C   0  0  1  0  0  3  0  0  0  0  0  0
  187.2240  177.4980  146.0240 C   0  0  0  0  0  0  0  0  0  0  0  0
  185.6170  177.3610  144.0970 C   0  0  1  0  0  3  0  0  0  0  0  0
  183.9690  179.2720  140.5130 O   0  0  0  0  0  0  0  0  0  0  0  0
  190.8970  172.6750  143.5400 C   0  0  0  0  0  2  0  0  0  0  0  0
  190.3460  175.4870  144.8260 C   0  0  1  0  0  3  0  0  0  0  0  0
  185.2510  178.8180  140.6440 N   0  0  0  0  0  2  0  0  0  0  0  0
  190.3850  173.9770  142.9420 C   0  0  0  0  0  2  0  0  0  0  0  0
  192.4930  174.1880  144.8900 C   0  0  1  0  0  3  0  0  0  0  0  0
  185.1630  178.7690  146.1830 C   0  0  0  0  0  3  0  0  0  0  0  0
  186.0040  177.9080  145.4570 C   0  0  0  0  0  0  0  0  0  0  0  0
  184.4550  178.1330  143.4830 C   0  0  0  0  0  2  0  0  0  0  0  0
  188.6390  175.4970  143.0680 C   0  0  0  0  0  2  0  0  0  0  0  0
  187.6180  177.1990  140.7480 C   0  0  0  0  0  1  0  0  0  0  0  0
  181.9980  177.9340  140.7740 C   0  0  0  0  0  1  0  0  0  0  0  0
  186.8340  177.4100  143.1520 C   0  0  1  0  0  3  0  0  0  0  0  0
  184.0210  177.5370  142.1470 C   0  0  2  0  0  3  0  0  0  0  0  0
  193.6530  174.0920  145.7610 N   0  0  0  0  0  2  0  0  0  0  0  0
  194.8600  174.8100  145.5040 C   0  0  0  0  0  0  0  0  0  0  0  0
  194.9770  175.6200  144.3800 O   0  0  0  0  0  0  0  0  0  0  0  0
  195.8300  174.7060  146.3000 O   0  0  0  0  0  1  0  0  0  0  0  0
  1 20  1  0  0  0  0
  2 24  1  6  0  0  0
  2 12  1  0  0  0  0
  4  3  1  0  0  0  0
  5 25  1  6  0  0  0
  5 27  1  0  0  0  0
  6 18  1  1  0  0  0
  6  5  1  0  0  0  0
  6 28  1  0  0  0  0
  7 19  1  6  0  0  0
  7 17  1  0  0  0  0
  9 26  1  6  0  0  0
  9 28  1  0  0  0  0
 11  3  2  0  0  0  0
 12  8  1  1  0  0  0
 12 13  1  0  0  0  0
 13 11  1  0  0  0  0
 14 23  1  6  0  0  0
 14 22  1  0  0  0  0
 15 18  1  0  0  0  0
 15  9  1  0  0  0  0
 16  1  1  0  0  0  0
 17 10  1  1  0  0  0
 17  8  1  0  0  0  0
 19 16  1  0  0  0  0
 20 10  1  0  0  0  0
 20 29  1  1  0  0  0
 21  4  2  0  0  0  0
 22 13  2  0  0  0  0
 22 21  1  0  0  0  0
 24  7  1  0  0  0  0
 27  2  1  0  0  0  0
 27 14  1  0  0  0  0
 28 23  1  0  0  0  0
 30 29  1  0  0  0  0
 30 32  1  0  0  0  0
 31 30  2  0  0  0  0
M  END
>  <MODEL>
4

>  <REMARK>
 VINA RESULT:      -8.2      2.618      5.084
  Name = 
  1 active torsions:
  status: ('A' for Active; 'I' for Inactive)
    1  A    between atoms: C_20  and  N_29
                            x       y       z     vdW  Elec       q    Type
                         _______ _______ _______ _____ _____    ______ ____

>  <TORSDO>
F 1

$$$$
=
 OpenBabel11112416383D

 32 37  0  0  1  0  0  0  0  0999 V2000
  185.8620  179.0250  143.1920 C   0  0  0  0  0  2  0  0  0  0  0  0
  189.5830  174.7010  142.6590 C   0  0  1  0  0  3  0  0  0  0  0  0
  193.0280  174.4870  146.1380 C   0  0  0  0  0  3  0  0  0  0  0  0
  193.8350  173.6890  145.3250 C   0  0  0  0  0  3  0  0  0  0  0  0
  189.9940  173.4160  140.4180 C   0  0  1  0  0  3  0  0  0  0  0  0
  190.9170  172.4780  139.6170 C   0  0  2  0  0  3  0  0  0  0  0  0
  188.2420  176.8390  142.4850 N   0  0  2  0  0  0  0  0  0  0  0  0
  189.3680  176.2020  144.6260 C   0  0  0  0  0  2  0  0  0  0  0  0
  192.8680  171.3030  139.3970 C   0  0  1  0  0  3  0  0  0  0  0  0
  187.6080  177.9160  144.6510 C   0  0  0  0  0  2  0  0  0  0  0  0
  191.8830  175.0870  145.6100 C   0  0  0  0  0  3  0  0  0  0  0  0
  190.3560  175.5820  143.6400 C   0  0  1  0  0  3  0  0  0  0  0  0
  191.5250  174.8760  144.2700 C   0  0  0  0  0  0  0  0  0  0  0  0
  191.9520  173.9110  141.9900 C   0  0  1  0  0  3  0  0  0  0  0  0
  191.7740  170.4070  139.3630 O   0  0  0  0  0  0  0  0  0  0  0  0
  186.7040  178.6660  141.9650 C   0  0  0  0  0  2  0  0  0  0  0  0
  188.0590  176.6370  143.9440 C   0  0  1  0  0  3  0  0  0  0  0  0
  190.6890  171.0690  139.8680 N   0  0  0  0  0  2  0  0  0  0  0  0
  186.9650  177.1710  141.8580 C   0  0  0  0  0  2  0  0  0  0  0  0
  186.1210  178.1580  144.4270 C   0  0  1  0  0  3  0  0  0  0  0  0
  193.4970  173.4900  143.9840 C   0  0  0  0  0  3  0  0  0  0  0  0
  192.3370  174.0740  143.4470 C   0  0  0  0  0  0  0  0  0  0  0  0
  192.7210  172.7770  141.3220 C   0  0  0  0  0  2  0  0  0  0  0  0
  188.6690  175.5990  141.8090 C   0  0  0  0  0  2  0  0  0  0  0  0
  188.5530  172.9250  140.3410 C   0  0  0  0  0  1  0  0  0  0  0  0
  193.4920  171.3960  138.0180 C   0  0  0  0  0  1  0  0  0  0  0  0
  190.4370  173.6520  141.8780 C   0  0  1  0  0  3  0  0  0  0  0  0
  192.3850  172.6610  139.8380 C   0  0  2  0  0  3  0  0  0  0  0  0
  185.5390  178.8020  145.5930 N   0  0  0  0  0  2  0  0  0  0  0  0
  184.9130  178.0600  146.6400 C   0  0  0  0  0  0  0  0  0  0  0  0
  184.8170  176.6750  146.5670 O   0  0  0  0  0  0  0  0  0  0  0  0
  184.4410  178.6660  147.6380 O   0  0  0  0  0  1  0  0  0  0  0  0
  1 20  1  0  0  0  0
  2 24  1  6  0  0  0
  2 12  1  0  0  0  0
  4  3  2  0  0  0  0
  5 25  1  1  0  0  0
  5 27  1  0  0  0  0
  6 28  1  0  0  0  0
  6 18  1  1  0  0  0
  6  5  1  0  0  0  0
  7 24  1  6  0  0  0
  7 17  1  0  0  0  0
  9 26  1  6  0  0  0
  9 28  1  0  0  0  0
 11  3  1  0  0  0  0
 12 13  1  0  0  0  0
 12  8  1  1  0  0  0
 13 11  2  0  0  0  0
 14 23  1  1  0  0  0
 14 22  1  0  0  0  0
 15  9  1  0  0  0  0
 15 18  1  0  0  0  0
 16  1  1  0  0  0  0
 17  8  1  1  0  0  0
 17 10  1  0  0  0  0
 19 16  1  0  0  0  0
 19  7  1  0  0  0  0
 20 10  1  0  0  0  0
 20 29  1  1  0  0  0
 21  4  1  0  0  0  0
 22 21  2  0  0  0  0
 22 13  1  0  0  0  0
 27 14  1  0  0  0  0
 27  2  1  0  0  0  0
 28 23  1  0  0  0  0
 29 30  1  0  0  0  0
 30 32  1  0  0  0  0
 31 30  2  0  0  0  0
M  END
>  <MODEL>
5

>  <REMARK>
 VINA RESULT:      -8.0      2.826      8.451
  Name = 
  1 active torsions:
  status: ('A' for Active; 'I' for Inactive)
    1  A    between atoms: C_20  and  N_29
                            x       y       z     vdW  Elec       q    Type
                         _______ _______ _______ _____ _____    ______ ____

>  <TORSDO>
F 1

$$$$
=
 OpenBabel11112416383D

 32 37  0  0  1  0  0  0  0  0999 V2000
  185.4120  178.6090  142.7500 C   0  0  0  0  0  2  0  0  0  0  0  0
  189.9780  175.1580  143.0220 C   0  0  1  0  0  3  0  0  0  0  0  0
  193.1200  176.1540  146.6480 C   0  0  0  0  0  3  0  0  0  0  0  0
  194.1330  175.4480  145.9970 C   0  0  0  0  0  3  0  0  0  0  0  0
  190.8140  173.7060  141.0120 C   0  0  1  0  0  3  0  0  0  0  0  0
  191.9690  172.8920  140.3990 C   0  0  2  0  0  3  0  0  0  0  0  0
  188.2400  176.9140  142.4780 N   0  0  2  0  0  0  0  0  0  0  0  0
  189.3080  176.8240  144.7380 C   0  0  0  0  0  2  0  0  0  0  0  0
  194.1310  172.1470  140.4420 C   0  0  1  0  0  3  0  0  0  0  0  0
  187.2350  178.1060  144.4320 C   0  0  0  0  0  2  0  0  0  0  0  0
  191.9190  176.4180  145.9870 C   0  0  0  0  0  3  0  0  0  0  0  0
  190.4750  176.3070  143.8980 C   0  0  1  0  0  3  0  0  0  0  0  0
  191.7140  175.9590  144.6770 C   0  0  0  0  0  0  0  0  0  0  0  0
  192.5020  174.8160  142.5830 C   0  0  1  0  0  3  0  0  0  0  0  0
  193.2520  171.0390  140.4890 O   0  0  0  0  0  0  0  0  0  0  0  0
  186.4010  178.2810  141.6280 C   0  0  0  0  0  2  0  0  0  0  0  0
  187.9930  176.8730  143.9410 C   0  0  1  0  0  3  0  0  0  0  0  0
  192.0190  171.5130  140.8410 N   0  0  0  0  0  2  0  0  0  0  0  0
  186.9730  176.8760  141.7510 C   0  0  0  0  0  2  0  0  0  0  0  0
  185.7510  177.9890  144.1080 C   0  0  1  0  0  3  0  0  0  0  0  0
  193.9460  175.0050  144.6850 C   0  0  0  0  0  3  0  0  0  0  0  0
  192.7340  175.2490  144.0170 C   0  0  0  0  0  0  0  0  0  0  0  0
  193.5370  173.7960  142.1220 C   0  0  0  0  0  2  0  0  0  0  0  0
  188.9630  175.7170  142.0090 C   0  0  0  0  0  2  0  0  0  0  0  0
  189.5160  172.9110  140.9420 C   0  0  0  0  0  1  0  0  0  0  0  0
  194.8250  172.1890  139.0940 C   0  0  0  0  0  1  0  0  0  0  0  0
  191.0860  174.2230  142.4410 C   0  0  1  0  0  3  0  0  0  0  0  0
  193.3460  173.4140  140.6570 C   0  0  2  0  0  3  0  0  0  0  0  0
  184.9620  178.6420  145.1400 N   0  0  0  0  0  2  0  0  0  0  0  0
  184.7410  178.0480  146.4200 C   0  0  0  0  0  0  0  0  0  0  0  0
  185.2620  176.7940  146.7180 O   0  0  0  0  0  0  0  0  0  0  0  0
  184.0660  178.6630  147.2850 O   0  0  0  0  0  1  0  0  0  0  0  0
  1 20  1  0  0  0  0
  2 24  1  6  0  0  0
  2 12  1  0  0  0  0
  4  3  1  0  0  0  0
  5 25  1  1  0  0  0
  5 27  1  0  0  0  0
  6 28  1  0  0  0  0
  6 18  1  1  0  0  0
  6  5  1  0  0  0  0
  7 19  1  6  0  0  0
  7 17  1  0  0  0  0
  9 26  1  6  0  0  0
  9 15  1  0  0  0  0
  9 28  1  0  0  0  0
 11  3  2  0  0  0  0
 12 13  1  0  0  0  0
 12  8  1  1  0  0  0
 13 11  1  0  0  0  0
 14 23  1  1  0  0  0
 14 22  1  0  0  0  0
 15 18  1  0  0  0  0
 16 19  1  0  0  0  0
 16  1  1  0  0  0  0
 17 10  1  1  0  0  0
 17  8  1  0  0  0  0
 20 10  1  0  0  0  0
 20 29  1  1  0  0  0
 21  4  2  0  0  0  0
 22 13  2  0  0  0  0
 22 21  1  0  0  0  0
 24  7  1  0  0  0  0
 27 14  1  0  0  0  0
 27  2  1  0  0  0  0
 28 23  1  0  0  0  0
 29 30  1  0  0  0  0
 30 31  2  0  0  0  0
 30 32  1  0  0  0  0
M  END
>  <MODEL>
6

>  <REMARK>
 VINA RESULT:      -8.0      2.539      8.588
  Name = 
  1 active torsions:
  status: ('A' for Active; 'I' for Inactive)
    1  A    between atoms: C_20  and  N_29
                            x       y       z     vdW  Elec       q    Type
                         _______ _______ _______ _____ _____    ______ ____

>  <TORSDO>
F 1

$$$$
=
 OpenBabel11112416383D

 32 37  0  0  1  0  0  0  0  0999 V2000
  186.0240  177.1730  146.2500 C   0  0  0  0  0  2  0  0  0  0  0  0
  190.9970  175.4130  144.0150 C   0  0  1  0  0  3  0  0  0  0  0  0
  190.5970  172.5120  140.0860 C   0  0  0  0  0  3  0  0  0  0  0  0
  191.8970  172.0390  140.2710 C   0  0  0  0  0  3  0  0  0  0  0  0
  193.2570  175.4190  145.3340 C   0  0  1  0  0  3  0  0  0  0  0  0
  194.7030  174.8950  145.4220 C   0  0  2  0  0  3  0  0  0  0  0  0
  188.9080  175.8010  145.3880 N   0  0  2  0  0  0  0  0  0  0  0  0
  188.7560  175.1280  142.9840 C   0  0  0  0  0  2  0  0  0  0  0  0
  196.3900  173.5490  144.6640 C   0  0  1  0  0  3  0  0  0  0  0  0
  186.7840  176.0770  144.0990 C   0  0  0  0  0  2  0  0  0  0  0  0
  189.9950  173.3020  141.0680 C   0  0  0  0  0  3  0  0  0  0  0  0
  190.0520  174.4090  143.3540 C   0  0  1  0  0  3  0  0  0  0  0  0
  190.6980  173.6440  142.2320 C   0  0  0  0  0  0  0  0  0  0  0  0
  192.7200  173.5090  143.7180 C   0  0  1  0  0  3  0  0  0  0  0  0
  196.7890  174.9030  144.5640 O   0  0  0  0  0  0  0  0  0  0  0  0
  187.1770  176.4750  146.9760 C   0  0  0  0  0  2  0  0  0  0  0  0
  188.3110  176.1250  144.0680 C   0  0  1  0  0  3  0  0  0  0  0  0
  195.6590  175.6680  144.6550 N   0  0  0  0  0  2  0  0  0  0  0  0
  188.5320  176.8130  146.3730 C   0  0  0  0  0  2  0  0  0  0  0  0
  186.2200  177.3380  144.7410 C   0  0  1  0  0  3  0  0  0  0  0  0
  192.5970  172.3570  141.4380 C   0  0  0  0  0  3  0  0  0  0  0  0
  192.0080  173.1680  142.4240 C   0  0  0  0  0  0  0  0  0  0  0  0
  194.2130  173.2100  143.6420 C   0  0  0  0  0  2  0  0  0  0  0  0
  190.3810  175.8580  145.3530 C   0  0  0  0  0  2  0  0  0  0  0  0
  193.2340  176.9310  145.5250 C   0  0  0  0  0  1  0  0  0  0  0  0
  197.1780  172.8670  145.7660 C   0  0  0  0  0  1  0  0  0  0  0  0
  192.5020  174.9970  144.0550 C   0  0  1  0  0  3  0  0  0  0  0  0
  194.9160  173.4860  144.9680 C   0  0  2  0  0  3  0  0  0  0  0  0
  184.9470  177.6830  144.1290 N   0  0  0  0  0  2  0  0  0  0  0  0
  184.5570  179.0350  143.8890 C   0  0  0  0  0  0  0  0  0  0  0  0
  185.3880  180.0870  144.2600 O   0  0  0  0  0  1  0  0  0  0  0  0
  183.4510  179.2780  143.3400 O   0  0  0  0  0  0  0  0  0  0  0  0
  1 16  1  0  0  0  0
  2 27  1  0  0  0  0
  2 24  1  1  0  0  0
  3  4  2  0  0  0  0
  3 11  1  0  0  0  0
  4 21  1  0  0  0  0
  5  6  1  0  0  0  0
  5 25  1  6  0  0  0
  6 18  1  6  0  0  0
  7 24  1  6  0  0  0
  7 19  1  0  0  0  0
  9 28  1  0  0  0  0
  9 26  1  1  0  0  0
 10 20  1  0  0  0  0
 11 13  2  0  0  0  0
 12  8  1  6  0  0  0
 12  2  1  0  0  0  0
 13 22  1  0  0  0  0
 13 12  1  0  0  0  0
 14 23  1  6  0  0  0
 14 27  1  0  0  0  0
 15 18  1  0  0  0  0
 15  9  1  0  0  0  0
 17  8  1  6  0  0  0
 17 10  1  0  0  0  0
 17  7  1  0  0  0  0
 19 16  1  0  0  0  0
 20 29  1  6  0  0  0
 20  1  1  0  0  0  0
 21 22  2  0  0  0  0
 22 14  1  0  0  0  0
 23 28  1  0  0  0  0
 27  5  1  0  0  0  0
 28  6  1  0  0  0  0
 30 29  1  0  0  0  0
 30 31  1  0  0  0  0
 32 30  2  0  0  0  0
M  END
>  <MODEL>
7

>  <REMARK>
 VINA RESULT:      -8.0      1.998      8.171
  Name = 
  1 active torsions:
  status: ('A' for Active; 'I' for Inactive)
    1  A    between atoms: C_20  and  N_29
                            x       y       z     vdW  Elec       q    Type
                         _______ _______ _______ _____ _____    ______ ____

>  <TORSDO>
F 1

$$$$
=
 OpenBabel11112416383D

 32 37  0  0  1  0  0  0  0  0999 V2000
  185.5090  177.9150  140.7230 C   0  0  0  0  0  2  0  0  0  0  0  0
  189.4030  175.6620  144.2720 C   0  0  1  0  0  3  0  0  0  0  0  0
  190.0300  178.0940  148.4790 C   0  0  0  0  0  3  0  0  0  0  0  0
  191.2740  177.4910  148.6710 C   0  0  0  0  0  3  0  0  0  0  0  0
  191.2740  174.0050  143.4990 C   0  0  1  0  0  3  0  0  0  0  0  0
  192.6230  173.3360  143.8260 C   0  0  2  0  0  3  0  0  0  0  0  0
  188.1320  176.8410  142.4290 N   0  0  2  0  0  0  0  0  0  0  0  0
  187.8170  177.4920  144.8230 C   0  0  0  0  0  2  0  0  0  0  0  0
  194.4610  173.0950  145.1660 C   0  0  1  0  0  3  0  0  0  0  0  0
  186.1640  178.2030  143.1510 C   0  0  0  0  0  2  0  0  0  0  0  0
  189.3610  177.9420  147.2630 C   0  0  0  0  0  3  0  0  0  0  0  0
  189.2800  177.0580  144.8810 C   0  0  1  0  0  3  0  0  0  0  0  0
  189.9220  177.1660  146.2370 C   0  0  0  0  0  0  0  0  0  0  0  0
  191.7810  175.7720  145.2790 C   0  0  1  0  0  3  0  0  0  0  0  0
  193.7630  171.8670  145.1020 O   0  0  0  0  0  0  0  0  0  0  0  0
  186.9630  177.5580  140.4060 C   0  0  0  0  0  2  0  0  0  0  0  0
  187.1380  177.0800  143.5050 C   0  0  1  0  0  3  0  0  0  0  0  0
  192.5090  172.1360  144.6290 N   0  0  0  0  0  2  0  0  0  0  0  0
  187.4600  176.3720  141.2180 C   0  0  0  0  0  2  0  0  0  0  0  0
  185.0980  177.7040  142.1830 C   0  0  1  0  0  3  0  0  0  0  0  0
  191.8500  176.7340  147.6480 C   0  0  0  0  0  3  0  0  0  0  0  0
  191.1770  176.5580  146.4260 C   0  0  0  0  0  0  0  0  0  0  0  0
  192.9590  174.9180  145.7320 C   0  0  0  0  0  2  0  0  0  0  0  0
  189.0630  175.7500  142.7740 C   0  0  0  0  0  2  0  0  0  0  0  0
  190.2680  172.9570  143.0360 C   0  0  0  0  0  1  0  0  0  0  0  0
  195.7680  172.9780  144.4050 C   0  0  0  0  0  1  0  0  0  0  0  0
  190.7030  174.8770  144.6370 C   0  0  1  0  0  3  0  0  0  0  0  0
  193.6100  174.1830  144.5640 C   0  0  2  0  0  3  0  0  0  0  0  0
  183.8410  178.3910  142.4280 N   0  0  0  0  0  2  0  0  0  0  0  0
  182.7310  178.2910  141.5350 C   0  0  0  0  0  0  0  0  0  0  0  0
  182.8260  177.5410  140.3690 O   0  0  0  0  0  0  0  0  0  0  0  0
  181.6580  178.8910  141.8040 O   0  0  0  0  0  1  0  0  0  0  0  0
  1 20  1  0  0  0  0
  2 24  1  6  0  0  0
  2 27  1  0  0  0  0
  2 12  1  0  0  0  0
  3  4  1  0  0  0  0
  5 25  1  1  0  0  0
  5  6  1  0  0  0  0
  5 27  1  0  0  0  0
  6 28  1  0  0  0  0
  6 18  1  1  0  0  0
  7 19  1  6  0  0  0
  7 24  1  0  0  0  0
  7 17  1  0  0  0  0
  9 26  1  6  0  0  0
 11  3  2  0  0  0  0
 12  8  1  1  0  0  0
 12 13  1  0  0  0  0
 13 22  2  0  0  0  0
 13 11  1  0  0  0  0
 14 23  1  1  0  0  0
 14 22  1  0  0  0  0
 15  9  1  0  0  0  0
 16  1  1  0  0  0  0
 16 19  1  0  0  0  0
 17 10  1  6  0  0  0
 17  8  1  0  0  0  0
 18 15  1  0  0  0  0
 20 29  1  1  0  0  0
 20 10  1  0  0  0  0
 21  4  2  0  0  0  0
 22 21  1  0  0  0  0
 27 14  1  0  0  0  0
 28  9  1  0  0  0  0
 28 23  1  0  0  0  0
 30 32  1  0  0  0  0
 30 29  1  0  0  0  0
 31 30  2  0  0  0  0
M  END
>  <MODEL>
8

>  <REMARK>
 VINA RESULT:      -8.0      2.392      9.111
  Name = 
  1 active torsions:
  status: ('A' for Active; 'I' for Inactive)
    1  A    between atoms: C_20  and  N_29
                            x       y       z     vdW  Elec       q    Type
                         _______ _______ _______ _____ _____    ______ ____

>  <TORSDO>
F 1

$$$$
=
 OpenBabel11112416383D

 32 37  0  0  1  0  0  0  0  0999 V2000
  191.8900  170.0480  142.0740 C   0  0  0  0  0  2  0  0  0  0  0  0
  189.8530  175.1400  143.7330 C   0  0  1  0  0  3  0  0  0  0  0  0
  191.5880  176.7740  148.0150 C   0  0  0  0  0  3  0  0  0  0  0  0
  190.5120  177.6530  148.1440 C   0  0  0  0  0  3  0  0  0  0  0  0
  187.6410  176.1840  142.8050 C   0  0  1  0  0  3  0  0  0  0  0  0
  186.5280  177.2310  142.9960 C   0  0  2  0  0  3  0  0  0  0  0  0
  190.2550  172.7060  143.1720 N   0  0  2  0  0  0  0  0  0  0  0  0
  191.7350  173.9100  144.7900 C   0  0  0  0  0  2  0  0  0  0  0  0
  185.5170  178.8710  144.2290 C   0  0  1  0  0  3  0  0  0  0  0  0
  192.4900  171.7870  143.8120 C   0  0  0  0  0  2  0  0  0  0  0  0
  191.5840  175.8100  147.0050 C   0  0  0  0  0  3  0  0  0  0  0  0
  190.4270  174.6490  145.0630 C   0  0  1  0  0  3  0  0  0  0  0  0
  190.5130  175.7340  146.1010 C   0  0  0  0  0  0  0  0  0  0  0  0
  188.2600  176.4730  145.2720 C   0  0  1  0  0  3  0  0  0  0  0  0
  185.9380  179.4080  142.9900 O   0  0  0  0  0  0  0  0  0  0  0  0
  190.4240  170.4670  142.2070 C   0  0  0  0  0  2  0  0  0  0  0  0
  191.6580  173.0370  143.5250 C   0  0  1  0  0  3  0  0  0  0  0  0
  186.8480  178.5380  142.4580 N   0  0  0  0  0  2  0  0  0  0  0  0
  190.2150  171.9470  141.9240 C   0  0  0  0  0  2  0  0  0  0  0  0
  192.9040  171.1070  142.5130 C   0  0  1  0  0  3  0  0  0  0  0  0
  189.4320  177.5710  147.2620 C   0  0  0  0  0  3  0  0  0  0  0  0
  189.4260  176.6170  146.2290 C   0  0  0  0  0  0  0  0  0  0  0  0
  187.3310  177.6800  145.3200 C   0  0  0  0  0  2  0  0  0  0  0  0
  189.4610  173.9160  142.8880 C   0  0  0  0  0  2  0  0  0  0  0  0
  188.1680  176.2320  141.3760 C   0  0  0  0  0  1  0  0  0  0  0  0
  184.0030  178.7780  144.2550 C   0  0  0  0  0  1  0  0  0  0  0  0
  188.7860  176.2760  143.8360 C   0  0  1  0  0  3  0  0  0  0  0  0
  186.1200  177.5010  144.4090 C   0  0  2  0  0  3  0  0  0  0  0  0
  194.2080  170.4830  142.6700 N   0  0  0  0  0  2  0  0  0  0  0  0
  195.4190  171.2400  142.6810 C   0  0  0  0  0  0  0  0  0  0  0  0
  195.3920  172.6200  142.5160 O   0  0  0  0  0  0  0  0  0  0  0  0
  196.5200  170.6520  142.8390 O   0  0  0  0  0  1  0  0  0  0  0  0
  1 16  1  0  0  0  0
  1 20  1  0  0  0  0
  2 24  1  1  0  0  0
  2 27  1  0  0  0  0
  2 12  1  0  0  0  0
  3  4  1  0  0  0  0
  5 25  1  6  0  0  0
  5  6  1  0  0  0  0
  5 27  1  0  0  0  0
  6 18  1  1  0  0  0
  6 28  1  0  0  0  0
  7 19  1  6  0  0  0
  7 17  1  0  0  0  0
  9 26  1  6  0  0  0
  9 28  1  0  0  0  0
 11  3  2  0  0  0  0
 12  8  1  6  0  0  0
 12 13  1  0  0  0  0
 13 22  2  0  0  0  0
 13 11  1  0  0  0  0
 14 23  1  6  0  0  0
 14 22  1  0  0  0  0
 15  9  1  0  0  0  0
 17 10  1  1  0  0  0
 17  8  1  0  0  0  0
 18 15  1  0  0  0  0
 19 16  1  0  0  0  0
 20 29  1  1  0  0  0
 20 10  1  0  0  0  0
 21  4  2  0  0  0  0
 22 21  1  0  0  0  0
 24  7  1  0  0  0  0
 27 14  1  0  0  0  0
 28 23  1  0  0  0  0
 29 30  1  0  0  0  0
 30 32  1  0  0  0  0
 31 30  2  0  0  0  0
M  END
>  <MODEL>
9

>  <REMARK>
 VINA RESULT:      -7.9      2.299      4.530
  Name = 
  1 active torsions:
  status: ('A' for Active; 'I' for Inactive)
    1  A    between atoms: C_20  and  N_29
                            x       y       z     vdW  Elec       q    Type
                         _______ _______ _______ _____ _____    ______ ____

>  <TORSDO>
F 1

$$$$
