=
 OpenBabel11112416133D

 30 35  0  0  1  0  0  0  0  0999 V2000
  187.8140  176.6510  145.6910 C   0  0  0  0  0  0  0  0  0  0  0  0
  185.9280  177.6350  147.1270 C   0  0  0  0  0  0  0  0  0  0  0  0
  185.6840  177.4010  142.0690 C   0  0  0  0  0  2  0  0  0  0  0  0
  188.3360  176.3600  144.4060 C   0  0  0  0  0  0  0  0  0  0  0  0
  188.5820  176.1950  146.9010 C   0  0  0  0  0  2  0  0  0  0  0  0
  191.8560  176.0050  145.2860 O   0  0  0  0  0  0  0  0  0  0  0  0
  188.7010  174.0790  142.6180 C   0  0  1  0  0  3  0  0  0  0  0  0
  190.6030  176.0220  145.4220 C   0  0  0  0  0  0  0  0  0  0  0  0
  188.7220  175.1670  141.5720 C   0  0  1  0  0  3  0  0  0  0  0  0
  186.6740  176.7100  141.1140 C   0  0  1  0  0  3  0  0  0  0  0  0
  190.0200  176.3140  146.7010 N   0  0  0  0  0  0  0  0  0  0  0  0
  189.7230  175.7770  144.2260 C   0  0  1  0  0  3  0  0  0  0  0  0
  184.7920  178.6160  147.1900 C   0  0  0  0  0  2  0  0  0  0  0  0
  188.3260  174.4630  140.2830 C   0  0  0  0  0  2  0  0  0  0  0  0
  188.8670  172.7900  141.8480 C   0  0  0  0  0  2  0  0  0  0  0  0
  186.3600  177.1470  148.2040 O   0  0  0  0  0  0  0  0  0  0  0  0
  186.3390  177.2800  143.4020 C   0  0  0  0  0  0  0  0  0  0  0  0
  183.9950  178.6660  145.9160 C   0  0  0  0  0  3  0  0  0  0  0  0
  186.5480  177.2960  145.8160 C   0  0  0  0  0  0  0  0  0  0  0  0
  187.5490  176.6590  143.2830 C   0  0  0  0  0  0  0  0  0  0  0  0
  187.1730  177.7130  140.0910 C   0  0  0  0  0  1  0  0  0  0  0  0
  187.7920  176.2470  141.9420 N   0  0  0  0  0  0  0  0  0  0  0  0
  188.3550  173.0170  140.5030 N   0  0  0  0  0  2  0  0  0  0  0  0
  191.1390  173.9310  143.2780 C   0  0  0  0  0  1  0  0  0  0  0  0
  184.4820  178.2440  144.7490 C   0  0  0  0  0  3  0  0  0  0  0  0
  185.8180  177.6260  144.6480 C   0  0  0  0  0  0  0  0  0  0  0  0
  189.7330  174.3110  143.7400 C   0  0  2  0  0  3  0  0  0  0  0  0
  190.8560  176.5510  147.8680 C   0  0  0  0  0  2  0  0  0  0  0  0
  191.4980  177.9570  149.4410 C   0  0  0  0  0  1  0  0  0  0  0  0
  190.6240  177.8350  148.3630 O   0  0  0  0  0  0  0  0  0  0  0  0
  1 19  1  0  0  0  0
  1  5  1  0  0  0  0
  2 13  1  0  0  0  0
  2 16  2  0  0  0  0
  3 17  1  0  0  0  0
  4  1  2  0  0  0  0
  6  8  2  0  0  0  0
  7 15  1  6  0  0  0
  7 27  1  0  0  0  0
  8 11  1  0  0  0  0
  9 14  1  6  0  0  0
  9 22  1  0  0  0  0
  9  7  1  0  0  0  0
 10 21  1  6  0  0  0
 10 22  1  0  0  0  0
 10  3  1  0  0  0  0
 11  5  1  0  0  0  0
 11 28  1  0  0  0  0
 12  4  1  1  0  0  0
 12  8  1  0  0  0  0
 14 23  1  0  0  0  0
 17 26  1  0  0  0  0
 18 13  1  0  0  0  0
 19  2  1  0  0  0  0
 20 17  2  0  0  0  0
 20  4  1  0  0  0  0
 22 20  1  0  0  0  0
 23 15  1  0  0  0  0
 25 18  2  0  0  0  0
 26 25  1  0  0  0  0
 26 19  2  0  0  0  0
 27 24  1  6  0  0  0
 27 12  1  0  0  0  0
 28 30  1  0  0  0  0
 30 29  1  0  0  0  0
M  END
>  <MODEL>
1

>  <REMARK>
 VINA RESULT:      -8.7      0.000      0.000
  Name = 
  2 active torsions:
  status: ('A' for Active; 'I' for Inactive)
    1  A    between atoms: N_11  and  C_28
    2  A    between atoms: C_28  and  O_30
                            x       y       z     vdW  Elec       q    Type
                         _______ _______ _______ _____ _____    ______ ____

>  <TORSDO>
F 2

$$$$
=
 OpenBabel11112416133D

 30 35  0  0  1  0  0  0  0  0999 V2000
  187.3820  176.7590  142.5730 C   0  0  0  0  0  0  0  0  0  0  0  0
  185.2610  178.2000  142.6960 C   0  0  0  0  0  0  0  0  0  0  0  0
  187.7290  176.5980  146.8240 C   0  0  0  0  0  2  0  0  0  0  0  0
  188.3980  176.0360  143.2440 C   0  0  0  0  0  0  0  0  0  0  0  0
  187.4520  176.8810  141.0750 C   0  0  0  0  0  2  0  0  0  0  0  0
  189.4870  173.8990  140.4980 O   0  0  0  0  0  0  0  0  0  0  0  0
  191.2170  176.3050  143.9630 C   0  0  1  0  0  3  0  0  0  0  0  0
  188.9790  174.8880  141.0920 C   0  0  0  0  0  0  0  0  0  0  0  0
  190.8260  175.3110  145.0300 C   0  0  1  0  0  3  0  0  0  0  0  0
  189.0790  175.8590  146.8810 C   0  0  1  0  0  3  0  0  0  0  0  0
  187.9430  175.6550  140.4600 N   0  0  0  0  0  0  0  0  0  0  0  0
  189.4340  175.2310  142.4850 C   0  0  1  0  0  3  0  0  0  0  0  0
  184.0420  178.5560  143.4980 C   0  0  0  0  0  2  0  0  0  0  0  0
  191.8650  175.5000  146.1240 C   0  0  0  0  0  2  0  0  0  0  0  0
  192.6840  176.5780  144.1990 C   0  0  0  0  0  2  0  0  0  0  0  0
  185.3040  178.5420  141.4850 O   0  0  0  0  0  0  0  0  0  0  0  0
  187.4310  176.6710  145.3660 C   0  0  0  0  0  0  0  0  0  0  0  0
  184.3220  178.6500  144.9720 C   0  0  0  0  0  3  0  0  0  0  0  0
  186.3620  177.4180  143.3230 C   0  0  0  0  0  0  0  0  0  0  0  0
  188.4080  176.0450  144.6480 C   0  0  0  0  0  0  0  0  0  0  0  0
  188.9100  174.5580  147.6450 C   0  0  0  0  0  1  0  0  0  0  0  0
  189.4530  175.5760  145.4930 N   0  0  0  0  0  0  0  0  0  0  0  0
  192.9500  176.3350  145.6100 N   0  0  0  0  0  2  0  0  0  0  0  0
  191.8670  174.7920  142.0420 C   0  0  0  0  0  1  0  0  0  0  0  0
  185.3780  178.0670  145.5400 C   0  0  0  0  0  3  0  0  0  0  0  0
  186.3880  177.3510  144.7370 C   0  0  0  0  0  0  0  0  0  0  0  0
  190.8590  175.8250  142.5420 C   0  0  2  0  0  3  0  0  0  0  0  0
  187.4930  175.3380  139.1130 C   0  0  0  0  0  2  0  0  0  0  0  0
  186.5160  176.0550  137.2710 C   0  0  0  0  0  1  0  0  0  0  0  0
  186.7510  176.4020  138.6000 O   0  0  0  0  0  0  0  0  0  0  0  0
  1  4  2  0  0  0  0
  1 19  1  0  0  0  0
  2 19  1  0  0  0  0
  2 13  1  0  0  0  0
  3 10  1  0  0  0  0
  4 20  1  0  0  0  0
  5  1  1  0  0  0  0
  6  8  2  0  0  0  0
  7 15  1  6  0  0  0
  7  9  1  0  0  0  0
  9 22  1  0  0  0  0
  9 14  1  1  0  0  0
 10 21  1  1  0  0  0
 11  5  1  0  0  0  0
 11  8  1  0  0  0  0
 12  8  1  6  0  0  0
 12 27  1  0  0  0  0
 12  4  1  0  0  0  0
 13 18  1  0  0  0  0
 15 23  1  0  0  0  0
 16  2  2  0  0  0  0
 17  3  1  0  0  0  0
 18 25  2  0  0  0  0
 19 26  2  0  0  0  0
 20 17  2  0  0  0  0
 20 22  1  0  0  0  0
 22 10  1  0  0  0  0
 23 14  1  0  0  0  0
 26 17  1  0  0  0  0
 26 25  1  0  0  0  0
 27 24  1  1  0  0  0
 27  7  1  0  0  0  0
 28 11  1  0  0  0  0
 29 30  1  0  0  0  0
 30 28  1  0  0  0  0
M  END
>  <MODEL>
2

>  <REMARK>
 VINA RESULT:      -8.4      2.716      5.655
  Name = 
  2 active torsions:
  status: ('A' for Active; 'I' for Inactive)
    1  A    between atoms: N_11  and  C_28
    2  A    between atoms: C_28  and  O_30
                            x       y       z     vdW  Elec       q    Type
                         _______ _______ _______ _____ _____    ______ ____

>  <TORSDO>
F 2

$$$$
=
 OpenBabel11112416133D

 30 35  0  0  1  0  0  0  0  0999 V2000
  188.6130  175.6520  142.8870 C   0  0  0  0  0  0  0  0  0  0  0  0
  186.4570  177.0440  142.8800 C   0  0  0  0  0  0  0  0  0  0  0  0
  189.7350  177.0880  146.7460 C   0  0  0  0  0  2  0  0  0  0  0  0
  189.7810  175.2260  143.5660 C   0  0  0  0  0  0  0  0  0  0  0  0
  188.4020  175.2050  141.4660 C   0  0  0  0  0  2  0  0  0  0  0  0
  190.4960  172.2140  141.6420 O   0  0  0  0  0  0  0  0  0  0  0  0
  192.6580  175.7310  143.5760 C   0  0  1  0  0  3  0  0  0  0  0  0
  190.0380  173.3550  141.9170 C   0  0  0  0  0  0  0  0  0  0  0  0
  192.5360  175.2090  144.9870 C   0  0  1  0  0  3  0  0  0  0  0  0
  191.1200  176.4170  146.8090 C   0  0  1  0  0  3  0  0  0  0  0  0
  188.8550  173.8360  141.2610 N   0  0  0  0  0  0  0  0  0  0  0  0
  190.7140  174.1920  142.9700 C   0  0  1  0  0  3  0  0  0  0  0  0
  185.3820  177.6810  143.7140 C   0  0  0  0  0  2  0  0  0  0  0  0
  193.7410  175.7880  145.7120 C   0  0  0  0  0  2  0  0  0  0  0  0
  194.1210  176.0650  143.4060 C   0  0  0  0  0  2  0  0  0  0  0  0
  186.2560  176.9090  141.6450 O   0  0  0  0  0  0  0  0  0  0  0  0
  189.1740  176.6130  145.4500 C   0  0  0  0  0  0  0  0  0  0  0  0
  185.9170  178.3170  144.9670 C   0  0  0  0  0  3  0  0  0  0  0  0
  187.7040  176.5480  143.5250 C   0  0  0  0  0  0  0  0  0  0  0  0
  190.0450  175.7590  144.8380 C   0  0  0  0  0  0  0  0  0  0  0  0
  191.1810  175.4970  148.0130 C   0  0  0  0  0  1  0  0  0  0  0  0
  191.2550  175.6340  145.5770 N   0  0  0  0  0  0  0  0  0  0  0  0
  194.6560  176.3660  144.7280 N   0  0  0  0  0  2  0  0  0  0  0  0
  193.0510  173.6070  142.2580 C   0  0  0  0  0  1  0  0  0  0  0  0
  187.0960  177.9830  145.4930 C   0  0  0  0  0  3  0  0  0  0  0  0
  187.9900  177.0140  144.8310 C   0  0  0  0  0  0  0  0  0  0  0  0
  192.0820  174.7560  142.5280 C   0  0  2  0  0  3  0  0  0  0  0  0
  188.1910  173.0410  140.2390 C   0  0  0  0  0  2  0  0  0  0  0  0
  189.1870  173.1150  138.2730 C   0  0  0  0  0  1  0  0  0  0  0  0
  188.1910  173.7320  139.0280 O   0  0  0  0  0  0  0  0  0  0  0  0
  1 19  2  0  0  0  0
  1  4  1  0  0  0  0
  2 19  1  0  0  0  0
  2 13  1  0  0  0  0
  3 10  1  0  0  0  0
  4 20  2  0  0  0  0
  5  1  1  0  0  0  0
  6  8  2  0  0  0  0
  7 15  1  6  0  0  0
  7  9  1  0  0  0  0
  9 22  1  0  0  0  0
  9 14  1  1  0  0  0
 10 21  1  1  0  0  0
 11  5  1  0  0  0  0
 11  8  1  0  0  0  0
 12  8  1  6  0  0  0
 12  4  1  0  0  0  0
 13 18  1  0  0  0  0
 15 23  1  0  0  0  0
 16  2  2  0  0  0  0
 17  3  1  0  0  0  0
 18 25  2  0  0  0  0
 19 26  1  0  0  0  0
 20 17  1  0  0  0  0
 20 22  1  0  0  0  0
 22 10  1  0  0  0  0
 23 14  1  0  0  0  0
 26 17  2  0  0  0  0
 26 25  1  0  0  0  0
 27 24  1  1  0  0  0
 27 12  1  0  0  0  0
 27  7  1  0  0  0  0
 28 11  1  0  0  0  0
 29 30  1  0  0  0  0
 30 28  1  0  0  0  0
M  END
>  <MODEL>
3

>  <REMARK>
 VINA RESULT:      -7.9      2.740      5.847
  Name = 
  2 active torsions:
  status: ('A' for Active; 'I' for Inactive)
    1  A    between atoms: N_11  and  C_28
    2  A    between atoms: C_28  and  O_30
                            x       y       z     vdW  Elec       q    Type
                         _______ _______ _______ _____ _____    ______ ____

>  <TORSDO>
F 2

$$$$
=
 OpenBabel11112416133D

 30 35  0  0  1  0  0  0  0  0999 V2000
  188.1570  175.0710  142.5860 C   0  0  0  0  0  0  0  0  0  0  0  0
  189.1230  172.8310  141.7900 C   0  0  0  0  0  0  0  0  0  0  0  0
  190.0780  174.7500  146.3830 C   0  0  0  0  0  2  0  0  0  0  0  0
  188.0700  176.0680  143.5890 C   0  0  0  0  0  0  0  0  0  0  0  0
  187.3080  175.2140  141.3520 C   0  0  0  0  0  2  0  0  0  0  0  0
  186.8870  178.8410  141.5390 O   0  0  0  0  0  0  0  0  0  0  0  0
  186.2220  176.9930  145.6540 C   0  0  1  0  0  3  0  0  0  0  0  0
  187.1030  177.6540  141.9050 C   0  0  0  0  0  0  0  0  0  0  0  0
  187.4940  177.5380  146.2560 C   0  0  1  0  0  3  0  0  0  0  0  0
  189.4500  176.0000  147.0260 C   0  0  1  0  0  3  0  0  0  0  0  0
  187.2020  176.6050  140.9310 N   0  0  0  0  0  0  0  0  0  0  0  0
  187.2980  177.3530  143.3670 C   0  0  1  0  0  3  0  0  0  0  0  0
  190.2560  171.8520  141.9040 C   0  0  0  0  0  2  0  0  0  0  0  0
  187.1820  177.6790  147.7380 C   0  0  0  0  0  2  0  0  0  0  0  0
  185.1310  177.3770  146.6240 C   0  0  0  0  0  2  0  0  0  0  0  0
  188.3350  172.7250  140.8140 O   0  0  0  0  0  0  0  0  0  0  0  0
  189.5430  174.7640  144.9930 C   0  0  0  0  0  0  0  0  0  0  0  0
  190.7360  171.6800  143.3190 C   0  0  0  0  0  3  0  0  0  0  0  0
  188.9790  173.9230  142.7910 C   0  0  0  0  0  0  0  0  0  0  0  0
  188.7540  175.8600  144.7970 C   0  0  0  0  0  0  0  0  0  0  0  0
  190.5480  176.9590  147.4460 C   0  0  0  0  0  1  0  0  0  0  0  0
  188.6150  176.6200  145.9930 N   0  0  0  0  0  0  0  0  0  0  0  0
  185.7440  177.5050  147.9400 N   0  0  0  0  0  2  0  0  0  0  0  0
  185.4850  178.8990  144.1610 C   0  0  0  0  0  1  0  0  0  0  0  0
  190.5050  172.5860  144.2690 C   0  0  0  0  0  3  0  0  0  0  0  0
  189.6910  173.7880  144.0080 C   0  0  0  0  0  0  0  0  0  0  0  0
  186.0030  177.4630  144.2010 C   0  0  2  0  0  3  0  0  0  0  0  0
  187.0130  176.8790  139.5150 C   0  0  0  0  0  2  0  0  0  0  0  0
  186.7430  175.9930  137.5130 C   0  0  0  0  0  1  0  0  0  0  0  0
  187.2810  175.7290  138.7720 O   0  0  0  0  0  0  0  0  0  0  0  0
  1 19  2  0  0  0  0
  1  4  1  0  0  0  0
  2 13  1  0  0  0  0
  2 19  1  0  0  0  0
  3 10  1  0  0  0  0
  4 20  2  0  0  0  0
  5  1  1  0  0  0  0
  6  8  2  0  0  0  0
  7  9  1  0  0  0  0
  7 15  1  1  0  0  0
  9 14  1  1  0  0  0
 10 21  1  6  0  0  0
 11  5  1  0  0  0  0
 11  8  1  0  0  0  0
 12  8  1  6  0  0  0
 12  4  1  0  0  0  0
 12 27  1  0  0  0  0
 13 18  1  0  0  0  0
 14 23  1  0  0  0  0
 15 23  1  0  0  0  0
 16  2  2  0  0  0  0
 17  3  1  0  0  0  0
 18 25  2  0  0  0  0
 19 26  1  0  0  0  0
 20 17  1  0  0  0  0
 20 22  1  0  0  0  0
 22  9  1  0  0  0  0
 22 10  1  0  0  0  0
 26 25  1  0  0  0  0
 26 17  2  0  0  0  0
 27 24  1  1  0  0  0
 27  7  1  0  0  0  0
 28 11  1  0  0  0  0
 29 30  1  0  0  0  0
 30 28  1  0  0  0  0
M  END
>  <MODEL>
4

>  <REMARK>
 VINA RESULT:      -7.7      2.709      7.160
  Name = 
  2 active torsions:
  status: ('A' for Active; 'I' for Inactive)
    1  A    between atoms: N_11  and  C_28
    2  A    between atoms: C_28  and  O_30
                            x       y       z     vdW  Elec       q    Type
                         _______ _______ _______ _____ _____    ______ ____

>  <TORSDO>
F 2

$$$$
=
 OpenBabel11112416133D

 30 35  0  0  1  0  0  0  0  0999 V2000
  187.9440  175.6880  141.9400 C   0  0  0  0  0  0  0  0  0  0  0  0
  186.4750  177.1130  140.3930 C   0  0  0  0  0  0  0  0  0  0  0  0
  186.7440  177.8880  145.3950 C   0  0  0  0  0  2  0  0  0  0  0  0
  188.3880  175.3820  143.2510 C   0  0  0  0  0  0  0  0  0  0  0  0
  188.5580  174.9510  140.7810 C   0  0  0  0  0  2  0  0  0  0  0  0
  189.6250  172.0040  142.6620 O   0  0  0  0  0  0  0  0  0  0  0  0
  190.7230  175.7860  144.9600 C   0  0  1  0  0  3  0  0  0  0  0  0
  189.2810  173.1920  142.4200 C   0  0  0  0  0  0  0  0  0  0  0  0
  189.6990  175.5850  146.0520 C   0  0  1  0  0  3  0  0  0  0  0  0
  187.6880  177.2030  146.4000 C   0  0  1  0  0  3  0  0  0  0  0  0
  188.8210  173.5570  141.1090 N   0  0  0  0  0  0  0  0  0  0  0  0
  189.3140  174.2140  143.5230 C   0  0  1  0  0  3  0  0  0  0  0  0
  185.2320  177.9490  140.2760 C   0  0  0  0  0  2  0  0  0  0  0  0
  190.3040  176.2690  147.2690 C   0  0  0  0  0  2  0  0  0  0  0  0
  192.0260  176.0290  145.6830 C   0  0  0  0  0  2  0  0  0  0  0  0
  187.0350  176.7210  139.3360 O   0  0  0  0  0  0  0  0  0  0  0  0
  187.0030  177.1620  144.1200 C   0  0  0  0  0  0  0  0  0  0  0  0
  185.0030  178.8230  141.4780 C   0  0  0  0  0  3  0  0  0  0  0  0
  186.9900  176.7290  141.7360 C   0  0  0  0  0  0  0  0  0  0  0  0
  187.9180  176.1690  144.3150 C   0  0  0  0  0  0  0  0  0  0  0  0
  186.8700  176.5630  147.5060 C   0  0  0  0  0  1  0  0  0  0  0  0
  188.4080  176.1680  145.6510 N   0  0  0  0  0  0  0  0  0  0  0  0
  191.7020  176.5910  146.9870 N   0  0  0  0  0  2  0  0  0  0  0  0
  191.4840  173.4160  144.5060 C   0  0  0  0  0  1  0  0  0  0  0  0
  185.5620  178.5740  142.6630 C   0  0  0  0  0  3  0  0  0  0  0  0
  186.5070  177.4570  142.8500 C   0  0  0  0  0  0  0  0  0  0  0  0
  190.7430  174.6270  143.9430 C   0  0  2  0  0  3  0  0  0  0  0  0
  188.7840  172.5810  140.0310 C   0  0  0  0  0  2  0  0  0  0  0  0
  188.8820  172.7610  137.8350 C   0  0  0  0  0  1  0  0  0  0  0  0
  188.1030  173.1120  138.9360 O   0  0  0  0  0  0  0  0  0  0  0  0
  1  4  1  0  0  0  0
  2 19  1  0  0  0  0
  3 10  1  0  0  0  0
  4 12  1  0  0  0  0
  4 20  2  0  0  0  0
  5 11  1  0  0  0  0
  5  1  1  0  0  0  0
  7 15  1  1  0  0  0
  7  9  1  0  0  0  0
  8  6  2  0  0  0  0
  9 14  1  1  0  0  0
 10 21  1  1  0  0  0
 11  8  1  0  0  0  0
 12  8  1  6  0  0  0
 12 27  1  0  0  0  0
 13  2  1  0  0  0  0
 13 18  1  0  0  0  0
 15 23  1  0  0  0  0
 16  2  2  0  0  0  0
 17 20  1  0  0  0  0
 17  3  1  0  0  0  0
 18 25  2  0  0  0  0
 19  1  2  0  0  0  0
 19 26  1  0  0  0  0
 20 22  1  0  0  0  0
 22  9  1  0  0  0  0
 22 10  1  0  0  0  0
 23 14  1  0  0  0  0
 25 26  1  0  0  0  0
 26 17  2  0  0  0  0
 27 24  1  1  0  0  0
 27  7  1  0  0  0  0
 28 11  1  0  0  0  0
 29 30  1  0  0  0  0
 30 28  1  0  0  0  0
M  END
>  <MODEL>
5

>  <REMARK>
 VINA RESULT:      -7.6      2.740      5.897
  Name = 
  2 active torsions:
  status: ('A' for Active; 'I' for Inactive)
    1  A    between atoms: N_11  and  C_28
    2  A    between atoms: C_28  and  O_30
                            x       y       z     vdW  Elec       q    Type
                         _______ _______ _______ _____ _____    ______ ____

>  <TORSDO>
F 2

$$$$
=
 OpenBabel11112416133D

 30 35  0  0  1  0  0  0  0  0999 V2000
  188.9090  175.6930  144.9410 C   0  0  0  0  0  0  0  0  0  0  0  0
  187.4140  176.4080  146.9010 C   0  0  0  0  0  0  0  0  0  0  0  0
  186.0490  176.9990  142.0560 C   0  0  0  0  0  2  0  0  0  0  0  0
  189.1250  175.6200  143.5430 C   0  0  0  0  0  0  0  0  0  0  0  0
  189.9140  175.0540  145.8600 C   0  0  0  0  0  2  0  0  0  0  0  0
  192.7420  175.1660  143.5470 O   0  0  0  0  0  0  0  0  0  0  0  0
  189.0260  173.6660  141.3740 C   0  0  1  0  0  3  0  0  0  0  0  0
  191.5520  175.1470  143.9600 C   0  0  0  0  0  0  0  0  0  0  0  0
  188.8420  174.9100  140.5390 C   0  0  1  0  0  3  0  0  0  0  0  0
  186.7840  176.4840  140.8050 C   0  0  1  0  0  3  0  0  0  0  0  0
  191.2740  175.2200  145.3660 N   0  0  0  0  0  0  0  0  0  0  0  0
  190.4220  175.0910  142.9660 C   0  0  1  0  0  3  0  0  0  0  0  0
  186.3460  177.3520  147.3730 C   0  0  0  0  0  2  0  0  0  0  0  0
  188.1530  174.4210  139.2740 C   0  0  0  0  0  2  0  0  0  0  0  0
  188.9840  172.5220  140.3890 C   0  0  0  0  0  2  0  0  0  0  0  0
  188.0620  175.7560  147.7620 O   0  0  0  0  0  0  0  0  0  0  0  0
  186.9800  176.6690  143.1710 C   0  0  0  0  0  0  0  0  0  0  0  0
  185.2880  177.6010  146.3340 C   0  0  0  0  0  3  0  0  0  0  0  0
  187.7190  176.2940  145.4480 C   0  0  0  0  0  0  0  0  0  0  0  0
  188.1170  176.0900  142.6860 C   0  0  0  0  0  0  0  0  0  0  0  0
  187.0690  177.6460  139.8720 C   0  0  0  0  0  1  0  0  0  0  0  0
  188.0450  175.9050  141.2770 N   0  0  0  0  0  0  0  0  0  0  0  0
  188.1920  172.9590  139.2460 N   0  0  0  0  0  2  0  0  0  0  0  0
  191.5450  173.4400  141.4410 C   0  0  0  0  0  1  0  0  0  0  0  0
  185.4930  177.3800  145.0350 C   0  0  0  0  0  3  0  0  0  0  0  0
  186.7570  176.8020  144.5410 C   0  0  0  0  0  0  0  0  0  0  0  0
  190.2870  173.7240  142.2600 C   0  0  2  0  0  3  0  0  0  0  0  0
  192.3550  175.2730  146.3400 C   0  0  0  0  0  2  0  0  0  0  0  0
  194.1310  176.5690  146.5140 C   0  0  0  0  0  1  0  0  0  0  0  0
  192.7380  176.5980  146.5480 O   0  0  0  0  0  0  0  0  0  0  0  0
  1 19  1  0  0  0  0
  1  5  1  0  0  0  0
  2 13  1  0  0  0  0
  2 16  2  0  0  0  0
  3 17  1  0  0  0  0
  4  1  2  0  0  0  0
  6  8  2  0  0  0  0
  7 15  1  6  0  0  0
  7 27  1  0  0  0  0
  8 11  1  0  0  0  0
  9 14  1  6  0  0  0
  9 22  1  0  0  0  0
  9  7  1  0  0  0  0
 10 21  1  6  0  0  0
 10 22  1  0  0  0  0
 10  3  1  0  0  0  0
 11  5  1  0  0  0  0
 11 28  1  0  0  0  0
 12  4  1  1  0  0  0
 12  8  1  0  0  0  0
 17 26  1  0  0  0  0
 18 13  1  0  0  0  0
 19  2  1  0  0  0  0
 20 17  2  0  0  0  0
 20  4  1  0  0  0  0
 22 20  1  0  0  0  0
 23 14  1  0  0  0  0
 23 15  1  0  0  0  0
 25 18  2  0  0  0  0
 26 25  1  0  0  0  0
 26 19  2  0  0  0  0
 27 24  1  6  0  0  0
 27 12  1  0  0  0  0
 28 30  1  0  0  0  0
 29 30  1  0  0  0  0
M  END
>  <MODEL>
6

>  <REMARK>
 VINA RESULT:      -7.6      1.543      1.792
  Name = 
  2 active torsions:
  status: ('A' for Active; 'I' for Inactive)
    1  A    between atoms: N_11  and  C_28
    2  A    between atoms: C_28  and  O_30
                            x       y       z     vdW  Elec       q    Type
                         _______ _______ _______ _____ _____    ______ ____

>  <TORSDO>
F 2

$$$$
=
 OpenBabel11112416133D

 30 35  0  0  1  0  0  0  0  0999 V2000
  190.3990  176.6540  145.0560 C   0  0  0  0  0  0  0  0  0  0  0  0
  189.4420  177.5480  147.2630 C   0  0  0  0  0  0  0  0  0  0  0  0
  186.6000  176.8640  143.1220 C   0  0  0  0  0  2  0  0  0  0  0  0
  190.1980  176.3120  143.6960 C   0  0  0  0  0  0  0  0  0  0  0  0
  191.7430  176.3860  145.6750 C   0  0  0  0  0  2  0  0  0  0  0  0
  193.6620  176.4110  142.5640 O   0  0  0  0  0  0  0  0  0  0  0  0
  189.8680  173.9410  142.0210 C   0  0  1  0  0  3  0  0  0  0  0  0
  192.6810  176.3050  143.3480 C   0  0  0  0  0  0  0  0  0  0  0  0
  189.1860  174.9340  141.1100 C   0  0  1  0  0  3  0  0  0  0  0  0
  187.0190  176.2050  141.7950 C   0  0  1  0  0  3  0  0  0  0  0  0
  192.8270  176.6400  144.7360 N   0  0  0  0  0  0  0  0  0  0  0  0
  191.3440  175.8680  142.8100 C   0  0  1  0  0  3  0  0  0  0  0  0
  188.3900  178.4030  147.9090 C   0  0  0  0  0  2  0  0  0  0  0  0
  188.2700  174.0850  140.2420 C   0  0  0  0  0  2  0  0  0  0  0  0
  189.7760  172.6180  141.3000 C   0  0  0  0  0  2  0  0  0  0  0  0
  190.4390  177.2010  147.9500 O   0  0  0  0  0  0  0  0  0  0  0  0
  187.8690  176.9260  143.9000 C   0  0  0  0  0  0  0  0  0  0  0  0
  187.0430  178.2610  147.2580 C   0  0  0  0  0  3  0  0  0  0  0  0
  189.3150  177.1680  145.8290 C   0  0  0  0  0  0  0  0  0  0  0  0
  188.9040  176.4310  143.1620 C   0  0  0  0  0  0  0  0  0  0  0  0
  186.7620  177.1660  140.6500 C   0  0  0  0  0  1  0  0  0  0  0  0
  188.4560  175.9350  141.9050 N   0  0  0  0  0  0  0  0  0  0  0  0
  188.6050  172.6750  140.4340 N   0  0  0  0  0  2  0  0  0  0  0  0
  192.2810  174.1110  141.2790 C   0  0  0  0  0  1  0  0  0  0  0  0
  186.8920  177.7960  146.0170 C   0  0  0  0  0  3  0  0  0  0  0  0
  188.0430  177.3190  145.2270 C   0  0  0  0  0  0  0  0  0  0  0  0
  191.2940  174.3760  142.4140 C   0  0  2  0  0  3  0  0  0  0  0  0
  194.1120  177.0620  145.2720 C   0  0  0  0  0  2  0  0  0  0  0  0
  195.3140  175.2790  145.7610 C   0  0  0  0  0  1  0  0  0  0  0  0
  194.4760  176.2340  146.3340 O   0  0  0  0  0  0  0  0  0  0  0  0
  1  5  1  0  0  0  0
  1 19  1  0  0  0  0
  2 13  1  0  0  0  0
  2 16  2  0  0  0  0
  3 17  1  0  0  0  0
  4  1  2  0  0  0  0
  6  8  2  0  0  0  0
  7 15  1  6  0  0  0
  7 27  1  0  0  0  0
  8 11  1  0  0  0  0
  9 14  1  6  0  0  0
  9 22  1  0  0  0  0
  9  7  1  0  0  0  0
 10 21  1  6  0  0  0
 10 22  1  0  0  0  0
 10  3  1  0  0  0  0
 11 28  1  0  0  0  0
 11  5  1  0  0  0  0
 12  8  1  1  0  0  0
 12  4  1  0  0  0  0
 14 23  1  0  0  0  0
 17 26  1  0  0  0  0
 18 13  1  0  0  0  0
 19  2  1  0  0  0  0
 20  4  1  0  0  0  0
 20 17  2  0  0  0  0
 22 20  1  0  0  0  0
 23 15  1  0  0  0  0
 25 18  2  0  0  0  0
 26 19  2  0  0  0  0
 26 25  1  0  0  0  0
 27 24  1  6  0  0  0
 27 12  1  0  0  0  0
 28 30  1  0  0  0  0
 29 30  1  0  0  0  0
M  END
>  <MODEL>
7

>  <REMARK>
 VINA RESULT:      -7.3      1.924      2.767
  Name = 
  2 active torsions:
  status: ('A' for Active; 'I' for Inactive)
    1  A    between atoms: N_11  and  C_28
    2  A    between atoms: C_28  and  O_30
                            x       y       z     vdW  Elec       q    Type
                         _______ _______ _______ _____ _____    ______ ____

>  <TORSDO>
F 2

$$$$
=
 OpenBabel11112416133D

 30 35  0  0  1  0  0  0  0  0999 V2000
  189.1380  175.1350  142.2100 C   0  0  0  0  0  0  0  0  0  0  0  0
  189.3350  173.6740  140.1090 C   0  0  0  0  0  0  0  0  0  0  0  0
  193.2830  174.6910  143.1210 C   0  0  0  0  0  2  0  0  0  0  0  0
  189.7630  175.7640  143.3140 C   0  0  0  0  0  0  0  0  0  0  0  0
  187.6420  175.2290  142.0790 C   0  0  0  0  0  2  0  0  0  0  0  0
  187.2300  178.2800  144.0500 O   0  0  0  0  0  0  0  0  0  0  0  0
  190.0550  175.4190  146.2000 C   0  0  1  0  0  3  0  0  0  0  0  0
  187.7390  177.2120  143.6150 C   0  0  0  0  0  0  0  0  0  0  0  0
  191.2950  176.2470  145.9650 C   0  0  1  0  0  3  0  0  0  0  0  0
  193.2650  175.4260  144.4740 C   0  0  1  0  0  3  0  0  0  0  0  0
  187.1470  176.5340  142.4970 N   0  0  0  0  0  0  0  0  0  0  0  0
  188.9950  176.6770  144.2480 C   0  0  1  0  0  3  0  0  0  0  0  0
  190.2320  173.1960  139.0040 C   0  0  0  0  0  2  0  0  0  0  0  0
  192.2030  175.9130  147.1390 C   0  0  0  0  0  2  0  0  0  0  0  0
  190.0510  175.1280  147.6820 C   0  0  0  0  0  2  0  0  0  0  0  0
  188.0930  173.5080  139.9870 O   0  0  0  0  0  0  0  0  0  0  0  0
  191.8820  174.8230  142.6310 C   0  0  0  0  0  0  0  0  0  0  0  0
  191.6280  172.8950  139.4760 C   0  0  0  0  0  3  0  0  0  0  0  0
  189.9150  174.3670  141.2920 C   0  0  0  0  0  0  0  0  0  0  0  0
  191.1380  175.5550  143.5100 C   0  0  0  0  0  0  0  0  0  0  0  0
  194.2220  176.6020  144.4220 C   0  0  0  0  0  1  0  0  0  0  0  0
  191.8940  175.9070  144.6640 N   0  0  0  0  0  0  0  0  0  0  0  0
  191.4350  175.1690  148.1370 N   0  0  0  0  0  2  0  0  0  0  0  0
  188.3000  177.1960  146.6050 C   0  0  0  0  0  1  0  0  0  0  0  0
  192.1270  173.4000  140.6050 C   0  0  0  0  0  3  0  0  0  0  0  0
  191.3080  174.2320  141.5060 C   0  0  0  0  0  0  0  0  0  0  0  0
  188.7770  176.0940  145.6620 C   0  0  2  0  0  3  0  0  0  0  0  0
  185.9320  177.0370  141.8750 C   0  0  0  0  0  2  0  0  0  0  0  0
  185.0340  178.3820  140.3750 C   0  0  0  0  0  1  0  0  0  0  0  0
  186.2590  177.8820  140.8140 O   0  0  0  0  0  0  0  0  0  0  0  0
  1  4  1  0  0  0  0
  2 19  1  0  0  0  0
  3 10  1  0  0  0  0
  4 20  2  0  0  0  0
  5  1  1  0  0  0  0
  5 11  1  0  0  0  0
  7 15  1  1  0  0  0
  8  6  2  0  0  0  0
  8 12  1  0  0  0  0
  9  7  1  0  0  0  0
  9 14  1  1  0  0  0
 10 21  1  6  0  0  0
 10 22  1  0  0  0  0
 11  8  1  0  0  0  0
 12  4  1  6  0  0  0
 12 27  1  0  0  0  0
 13 18  1  0  0  0  0
 13  2  1  0  0  0  0
 14 23  1  0  0  0  0
 15 23  1  0  0  0  0
 16  2  2  0  0  0  0
 17  3  1  0  0  0  0
 17 20  1  0  0  0  0
 18 25  2  0  0  0  0
 19 26  1  0  0  0  0
 19  1  2  0  0  0  0
 20 22  1  0  0  0  0
 22  9  1  0  0  0  0
 25 26  1  0  0  0  0
 26 17  2  0  0  0  0
 27  7  1  0  0  0  0
 27 24  1  1  0  0  0
 28 11  1  0  0  0  0
 29 30  1  0  0  0  0
 30 28  1  0  0  0  0
M  END
>  <MODEL>
8

>  <REMARK>
 VINA RESULT:      -7.2      2.725      7.096
  Name = 
  2 active torsions:
  status: ('A' for Active; 'I' for Inactive)
    1  A    between atoms: N_11  and  C_28
    2  A    between atoms: C_28  and  O_30
                            x       y       z     vdW  Elec       q    Type
                         _______ _______ _______ _____ _____    ______ ____

>  <TORSDO>
F 2

$$$$
=
 OpenBabel11112416133D

 30 35  0  0  1  0  0  0  0  0999 V2000
  190.2540  175.4820  143.3040 C   0  0  0  0  0  0  0  0  0  0  0  0
  188.2920  176.5340  144.5830 C   0  0  0  0  0  0  0  0  0  0  0  0
  193.0260  176.4700  146.3950 C   0  0  0  0  0  2  0  0  0  0  0  0
  191.6260  175.1330  143.2600 C   0  0  0  0  0  0  0  0  0  0  0  0
  189.4050  175.2280  142.0880 C   0  0  0  0  0  2  0  0  0  0  0  0
  191.4810  172.5780  140.6630 O   0  0  0  0  0  0  0  0  0  0  0  0
  194.1150  176.0400  142.0280 C   0  0  1  0  0  3  0  0  0  0  0  0
  191.1520  173.5870  141.3430 C   0  0  0  0  0  0  0  0  0  0  0  0
  194.7200  175.3000  143.1970 C   0  0  1  0  0  3  0  0  0  0  0  0
  194.3020  176.0040  145.6690 C   0  0  1  0  0  3  0  0  0  0  0  0
  189.7760  173.9850  141.4250 N   0  0  0  0  0  0  0  0  0  0  0  0
  192.2070  174.3450  142.1030 C   0  0  1  0  0  3  0  0  0  0  0  0
  187.7240  176.8770  145.9300 C   0  0  0  0  0  2  0  0  0  0  0  0
  196.0920  175.9310  143.3760 C   0  0  0  0  0  2  0  0  0  0  0  0
  195.2910  176.6030  141.2670 C   0  0  0  0  0  2  0  0  0  0  0  0
  187.5260  176.5590  143.5840 O   0  0  0  0  0  0  0  0  0  0  0  0
  191.9330  176.1190  145.4450 C   0  0  0  0  0  0  0  0  0  0  0  0
  188.7640  177.3880  146.8880 C   0  0  0  0  0  3  0  0  0  0  0  0
  189.7210  176.1320  144.4570 C   0  0  0  0  0  0  0  0  0  0  0  0
  192.4430  175.5010  144.3400 C   0  0  0  0  0  0  0  0  0  0  0  0
  194.9890  174.9320  146.4930 C   0  0  0  0  0  1  0  0  0  0  0  0
  193.8650  175.4430  144.3870 N   0  0  0  0  0  0  0  0  0  0  0  0
  196.3820  176.7760  142.2180 N   0  0  0  0  0  2  0  0  0  0  0  0
  193.9340  174.2160  140.2830 C   0  0  0  0  0  1  0  0  0  0  0  0
  190.0660  177.1520  146.7250 C   0  0  0  0  0  3  0  0  0  0  0  0
  190.5780  176.4330  145.5430 C   0  0  0  0  0  0  0  0  0  0  0  0
  193.1570  175.1610  141.1980 C   0  0  2  0  0  3  0  0  0  0  0  0
  188.7440  173.2650  140.6950 C   0  0  0  0  0  2  0  0  0  0  0  0
  188.5630  173.3260  138.4980 C   0  0  0  0  0  1  0  0  0  0  0  0
  188.2670  174.0540  139.6480 O   0  0  0  0  0  0  0  0  0  0  0  0
  1 19  1  0  0  0  0
  2 13  1  0  0  0  0
  4  1  2  0  0  0  0
  4 20  1  0  0  0  0
  5  1  1  0  0  0  0
  6  8  2  0  0  0  0
  7 15  1  6  0  0  0
  7  9  1  0  0  0  0
  8 11  1  0  0  0  0
  9 14  1  1  0  0  0
  9 22  1  0  0  0  0
 10  3  1  0  0  0  0
 10 21  1  1  0  0  0
 11  5  1  0  0  0  0
 12  8  1  6  0  0  0
 12  4  1  0  0  0  0
 13 18  1  0  0  0  0
 15 23  1  0  0  0  0
 16  2  2  0  0  0  0
 17 26  1  0  0  0  0
 17  3  1  0  0  0  0
 19  2  1  0  0  0  0
 19 26  2  0  0  0  0
 20 22  1  0  0  0  0
 20 17  2  0  0  0  0
 22 10  1  0  0  0  0
 23 14  1  0  0  0  0
 25 18  2  0  0  0  0
 26 25  1  0  0  0  0
 27 24  1  1  0  0  0
 27  7  1  0  0  0  0
 27 12  1  0  0  0  0
 28 11  1  0  0  0  0
 29 30  1  0  0  0  0
 30 28  1  0  0  0  0
M  END
>  <MODEL>
9

>  <REMARK>
 VINA RESULT:      -7.1      3.521      6.589
  Name = 
  2 active torsions:
  status: ('A' for Active; 'I' for Inactive)
    1  A    between atoms: N_11  and  C_28
    2  A    between atoms: C_28  and  O_30
                            x       y       z     vdW  Elec       q    Type
                         _______ _______ _______ _____ _____    ______ ____

>  <TORSDO>
F 2

$$$$
