=
 OpenBabel11112416283D

 32 37  0  0  1  0  0  0  0  0999 V2000
  192.4510  174.4310  144.2140 C   0  0  0  0  0  2  0  0  0  0  0  0
  188.2990  177.4830  143.5580 C   0  0  1  0  0  3  0  0  0  0  0  0
  186.8050  178.5650  148.1690 C   0  0  0  0  0  3  0  0  0  0  0  0
  185.6070  179.0620  147.6570 C   0  0  0  0  0  3  0  0  0  0  0  0
  186.5410  177.4260  141.6700 C   0  0  0  0  0  0  0  0  0  0  0  0
  185.1650  177.7530  141.2820 C   0  0  0  0  0  0  0  0  0  0  0  0
  190.6940  176.8640  143.2500 C   0  0  1  0  0  3  0  0  0  0  0  0
  189.9270  177.4240  145.4430 C   0  0  0  0  0  2  0  0  0  0  0  0
  183.1140  178.2730  141.5050 C   0  0  0  0  0  0  0  0  0  0  0  0
  192.1720  176.8000  145.1570 C   0  0  0  0  0  2  0  0  0  0  0  0
  187.7330  177.9670  147.3140 C   0  0  0  0  0  3  0  0  0  0  0  0
  188.4720  177.1550  145.0480 C   0  0  1  0  0  3  0  0  0  0  0  0
  187.4810  177.8720  145.9360 C   0  0  0  0  0  0  0  0  0  0  0  0
  185.9420  178.2750  143.9460 C   0  0  2  0  0  3  0  0  0  0  0  0
  183.3850  178.1240  140.1560 C   0  0  0  0  0  3  0  0  0  0  0  0
  191.8850  174.6220  142.7960 C   0  0  0  0  0  2  0  0  0  0  0  0
  190.8110  176.5400  144.6850 N   0  0  2  0  0  0  0  0  0  0  0  0
  184.6920  177.7940  140.0190 N   0  0  0  0  0  0  0  0  0  0  0  0
  191.6870  176.0840  142.3750 C   0  0  0  0  0  2  0  0  0  0  0  0
  193.1530  175.6770  144.7750 C   0  0  1  0  0  3  0  0  0  0  0  0
  185.3310  178.9460  146.2950 C   0  0  0  0  0  3  0  0  0  0  0  0
  186.2400  178.3210  145.4270 C   0  0  0  0  0  0  0  0  0  0  0  0
  184.4500  178.0380  143.6450 C   0  0  0  0  0  2  0  0  0  0  0  0
  189.2670  176.5990  142.7700 C   0  0  0  0  0  2  0  0  0  0  0  0
  187.4110  177.2030  140.7860 O   0  0  0  0  0  0  0  0  0  0  0  0
  181.7930  178.6210  142.0970 C   0  0  0  0  0  1  0  0  0  0  0  0
  186.8310  177.2820  143.1550 C   0  0  2  0  0  3  0  0  0  0  0  0
  184.2370  178.0520  142.2000 N   0  0  0  0  0  0  0  0  0  0  0  0
  193.9890  175.3140  145.9910 C   0  0  0  0  0  2  0  0  0  0  0  0
  195.4050  175.0600  145.6020 C   0  0  0  0  0  0  0  0  0  0  0  0
  195.9770  175.7710  144.5570 O   0  0  0  0  0  0  0  0  0  0  0  0
  196.0920  174.2200  146.2400 O   0  0  0  0  0  1  0  0  0  0  0  0
  1 20  1  0  0  0  0
  2 24  1  6  0  0  0
  2 12  1  0  0  0  0
  4  3  1  0  0  0  0
  6  5  1  0  0  0  0
  6 28  1  0  0  0  0
  7 19  1  6  0  0  0
  7 17  1  0  0  0  0
  9 26  1  0  0  0  0
  9 28  1  0  0  0  0
 11  3  2  0  0  0  0
 12  8  1  1  0  0  0
 12 13  1  0  0  0  0
 13 11  1  0  0  0  0
 14 23  1  1  0  0  0
 14 22  1  0  0  0  0
 15  9  2  0  0  0  0
 16  1  1  0  0  0  0
 17 10  1  1  0  0  0
 17  8  1  0  0  0  0
 18 15  1  0  0  0  0
 18  6  2  0  0  0  0
 19 16  1  0  0  0  0
 20 10  1  0  0  0  0
 20 29  1  1  0  0  0
 21  4  2  0  0  0  0
 22 13  2  0  0  0  0
 22 21  1  0  0  0  0
 24  7  1  0  0  0  0
 25  5  2  0  0  0  0
 27  5  1  6  0  0  0
 27  2  1  0  0  0  0
 27 14  1  0  0  0  0
 28 23  1  0  0  0  0
 30 29  1  0  0  0  0
 30 32  1  0  0  0  0
 31 30  2  0  0  0  0
M  END
>  <MODEL>
1

>  <REMARK>
 VINA RESULT:      -9.3      0.000      0.000
  Name = 
  2 active torsions:
  status: ('A' for Active; 'I' for Inactive)
    1  A    between atoms: C_20  and  C_29
    2  A    between atoms: C_29  and  C_30
                            x       y       z     vdW  Elec       q    Type
                         _______ _______ _______ _____ _____    ______ ____

>  <TORSDO>
F 2

$$$$
=
 OpenBabel11112416283D

 32 37  0  0  1  0  0  0  0  0999 V2000
  195.1870  176.4210  145.3780 C   0  0  0  0  0  2  0  0  0  0  0  0
  190.1100  175.8640  144.4320 C   0  0  1  0  0  3  0  0  0  0  0  0
  189.9040  173.6380  139.9980 C   0  0  0  0  0  3  0  0  0  0  0  0
  188.5410  173.9260  139.9240 C   0  0  0  0  0  3  0  0  0  0  0  0
  188.1640  177.4050  145.1340 C   0  0  0  0  0  0  0  0  0  0  0  0
  186.7990  177.8510  144.8350 C   0  0  0  0  0  0  0  0  0  0  0  0
  192.1860  175.5440  145.7740 C   0  0  1  0  0  3  0  0  0  0  0  0
  192.0200  174.4700  143.6460 C   0  0  0  0  0  2  0  0  0  0  0  0
  185.0120  178.1500  143.7180 C   0  0  0  0  0  0  0  0  0  0  0  0
  193.9900  174.2040  144.8940 C   0  0  0  0  0  2  0  0  0  0  0  0
  190.6590  174.1150  141.0700 C   0  0  0  0  0  3  0  0  0  0  0  0
  190.9170  175.4350  143.1990 C   0  0  1  0  0  3  0  0  0  0  0  0
  190.0600  174.8730  142.0890 C   0  0  0  0  0  0  0  0  0  0  0  0
  187.9950  175.9950  143.0740 C   0  0  2  0  0  3  0  0  0  0  0  0
  184.8540  178.7310  144.9630 C   0  0  0  0  0  3  0  0  0  0  0  0
  194.1770  177.0870  146.3280 C   0  0  0  0  0  2  0  0  0  0  0  0
  192.9300  175.1570  144.5610 N   0  0  2  0  0  0  0  0  0  0  0  0
  185.9930  178.5370  145.6710 N   0  0  0  0  0  0  0  0  0  0  0  0
  193.0840  176.1510  146.8630 C   0  0  0  0  0  2  0  0  0  0  0  0
  195.2310  174.8890  145.4940 C   0  0  1  0  0  3  0  0  0  0  0  0
  187.9390  174.7040  140.9140 C   0  0  0  0  0  3  0  0  0  0  0  0
  188.6920  175.2150  141.9820 C   0  0  0  0  0  0  0  0  0  0  0  0
  186.8790  176.9090  142.5360 C   0  0  0  0  0  2  0  0  0  0  0  0
  191.0750  176.5300  145.4140 C   0  0  0  0  0  2  0  0  0  0  0  0
  188.6590  177.6120  146.2730 O   0  0  0  0  0  0  0  0  0  0  0  0
  184.0050  178.1440  142.6220 C   0  0  0  0  0  1  0  0  0  0  0  0
  188.9590  176.7830  143.9980 C   0  0  2  0  0  3  0  0  0  0  0  0
  186.2280  177.5910  143.6510 N   0  0  0  0  0  0  0  0  0  0  0  0
  196.4770  174.3410  144.8180 C   0  0  0  0  0  2  0  0  0  0  0  0
  197.1120  173.2840  145.6550 C   0  0  0  0  0  0  0  0  0  0  0  0
  197.6260  172.1410  145.0590 O   0  0  0  0  0  0  0  0  0  0  0  0
  197.2080  173.4410  146.9000 O   0  0  0  0  0  1  0  0  0  0  0  0
  1 20  1  0  0  0  0
  1 16  1  0  0  0  0
  2 24  1  1  0  0  0
  3 11  1  0  0  0  0
  4  3  2  0  0  0  0
  4 21  1  0  0  0  0
  5 25  2  0  0  0  0
  6  5  1  0  0  0  0
  6 18  2  0  0  0  0
  7 24  1  6  0  0  0
  7 19  1  0  0  0  0
  9 15  2  0  0  0  0
 10 20  1  0  0  0  0
 11 13  2  0  0  0  0
 12  8  1  1  0  0  0
 12  2  1  0  0  0  0
 13 12  1  0  0  0  0
 14 23  1  6  0  0  0
 14 27  1  0  0  0  0
 15 18  1  0  0  0  0
 16 19  1  0  0  0  0
 17  8  1  6  0  0  0
 17 10  1  0  0  0  0
 17  7  1  0  0  0  0
 20 29  1  6  0  0  0
 21 22  2  0  0  0  0
 22 13  1  0  0  0  0
 22 14  1  0  0  0  0
 23 28  1  0  0  0  0
 26  9  1  0  0  0  0
 27  2  1  0  0  0  0
 27  5  1  1  0  0  0
 28  9  1  0  0  0  0
 28  6  1  0  0  0  0
 29 30  1  0  0  0  0
 30 32  1  0  0  0  0
 31 30  2  0  0  0  0
M  END
>  <MODEL>
2

>  <REMARK>
 VINA RESULT:      -8.4      2.194      4.694
  Name = 
  2 active torsions:
  status: ('A' for Active; 'I' for Inactive)
    1  A    between atoms: C_20  and  C_29
    2  A    between atoms: C_29  and  C_30
                            x       y       z     vdW  Elec       q    Type
                         _______ _______ _______ _____ _____    ______ ____

>  <TORSDO>
F 2

$$$$
=
 OpenBabel11112416283D

 32 37  0  0  1  0  0  0  0  0999 V2000
  186.0280  178.3430  141.6170 C   0  0  0  0  0  2  0  0  0  0  0  0
  190.0770  175.8540  143.7120 C   0  0  1  0  0  3  0  0  0  0  0  0
  190.3560  177.6070  148.3500 C   0  0  0  0  0  3  0  0  0  0  0  0
  191.6200  177.0330  148.4830 C   0  0  0  0  0  3  0  0  0  0  0  0
  192.2420  175.0490  142.5610 C   0  0  0  0  0  0  0  0  0  0  0  0
  193.6560  174.7010  142.7410 C   0  0  0  0  0  0  0  0  0  0  0  0
  187.8580  175.9660  142.5810 C   0  0  1  0  0  3  0  0  0  0  0  0
  188.0440  176.7670  144.8250 C   0  0  0  0  0  2  0  0  0  0  0  0
  195.5660  174.5910  143.6710 C   0  0  0  0  0  0  0  0  0  0  0  0
  185.9650  176.9090  143.7430 C   0  0  0  0  0  2  0  0  0  0  0  0
  189.6920  177.5490  147.1240 C   0  0  0  0  0  3  0  0  0  0  0  0
  189.5620  176.9200  144.6890 C   0  0  1  0  0  3  0  0  0  0  0  0
  190.2740  176.9040  146.0210 C   0  0  0  0  0  0  0  0  0  0  0  0
  192.2320  175.6380  144.9930 C   0  0  2  0  0  3  0  0  0  0  0  0
  195.6380  173.9560  142.4450 C   0  0  0  0  0  3  0  0  0  0  0  0
  186.9120  177.4690  140.7110 C   0  0  0  0  0  2  0  0  0  0  0  0
  187.4100  177.0040  143.5280 N   0  0  2  0  0  0  0  0  0  0  0  0
  194.4190  174.0270  141.8560 N   0  0  0  0  0  0  0  0  0  0  0  0
  187.1430  176.0410  141.2230 C   0  0  0  0  0  2  0  0  0  0  0  0
  185.1570  177.5410  142.5960 C   0  0  1  0  0  3  0  0  0  0  0  0
  192.2240  176.4160  147.3880 C   0  0  0  0  0  3  0  0  0  0  0  0
  191.5810  176.3750  146.1410 C   0  0  0  0  0  0  0  0  0  0  0  0
  193.7610  175.8190  144.9580 C   0  0  0  0  0  2  0  0  0  0  0  0
  189.3690  176.0660  142.3730 C   0  0  0  0  0  2  0  0  0  0  0  0
  191.6240  174.6680  141.5320 O   0  0  0  0  0  0  0  0  0  0  0  0
  196.6870  174.7540  144.6380 C   0  0  0  0  0  1  0  0  0  0  0  0
  191.6070  175.9480  143.6090 C   0  0  2  0  0  3  0  0  0  0  0  0
  194.3180  175.0430  143.8530 N   0  0  0  0  0  0  0  0  0  0  0  0
  184.0660  178.4220  143.1820 C   0  0  0  0  0  2  0  0  0  0  0  0
  184.5590  179.1410  144.3910 C   0  0  0  0  0  0  0  0  0  0  0  0
  185.5050  180.1480  144.2630 O   0  0  0  0  0  0  0  0  0  0  0  0
  184.0980  178.8530  145.5260 O   0  0  0  0  0  1  0  0  0  0  0  0
  1 20  1  0  0  0  0
  2 24  1  6  0  0  0
  2 12  1  0  0  0  0
  3  4  1  0  0  0  0
  5  6  1  0  0  0  0
  6 28  1  0  0  0  0
  7 19  1  6  0  0  0
  7 17  1  0  0  0  0
  9 28  1  0  0  0  0
  9 26  1  0  0  0  0
 11  3  2  0  0  0  0
 12  8  1  1  0  0  0
 12 13  1  0  0  0  0
 13 22  2  0  0  0  0
 13 11  1  0  0  0  0
 14 23  1  6  0  0  0
 14 22  1  0  0  0  0
 15  9  2  0  0  0  0
 16 19  1  0  0  0  0
 16  1  1  0  0  0  0
 17 10  1  1  0  0  0
 17  8  1  0  0  0  0
 18 15  1  0  0  0  0
 18  6  2  0  0  0  0
 20 29  1  1  0  0  0
 20 10  1  0  0  0  0
 21  4  2  0  0  0  0
 22 21  1  0  0  0  0
 24  7  1  0  0  0  0
 25  5  2  0  0  0  0
 27  5  1  6  0  0  0
 27  2  1  0  0  0  0
 27 14  1  0  0  0  0
 28 23  1  0  0  0  0
 29 30  1  0  0  0  0
 30 32  1  0  0  0  0
 31 30  2  0  0  0  0
M  END
>  <MODEL>
3

>  <REMARK>
 VINA RESULT:      -8.3      2.626      8.099
  Name = 
  2 active torsions:
  status: ('A' for Active; 'I' for Inactive)
    1  A    between atoms: C_20  and  C_29
    2  A    between atoms: C_29  and  C_30
                            x       y       z     vdW  Elec       q    Type
                         _______ _______ _______ _____ _____    ______ ____

>  <TORSDO>
F 2

$$$$
=
 OpenBabel11112416283D

 32 37  0  0  1  0  0  0  0  0999 V2000
  183.6910  177.9210  142.7300 C   0  0  0  0  0  2  0  0  0  0  0  0
  188.7500  176.7410  142.7770 C   0  0  1  0  0  3  0  0  0  0  0  0
  189.2230  173.1410  139.3890 C   0  0  0  0  0  3  0  0  0  0  0  0
  190.5050  172.8700  139.8670 C   0  0  0  0  0  3  0  0  0  0  0  0
  190.3970  176.7950  144.7630 C   0  0  0  0  0  0  0  0  0  0  0  0
  191.6440  176.2620  145.3210 C   0  0  0  0  0  0  0  0  0  0  0  0
  186.8150  178.2930  142.5300 C   0  0  1  0  0  3  0  0  0  0  0  0
  187.1090  176.5610  140.9110 C   0  0  0  0  0  2  0  0  0  0  0  0
  193.3060  174.9560  145.5670 C   0  0  0  0  0  0  0  0  0  0  0  0
  185.2640  177.9970  140.7040 C   0  0  0  0  0  2  0  0  0  0  0  0
  188.4280  174.0910  140.0320 C   0  0  0  0  0  3  0  0  0  0  0  0
  187.9970  175.7590  141.8680 C   0  0  1  0  0  3  0  0  0  0  0  0
  188.9080  174.7900  141.1510 C   0  0  0  0  0  0  0  0  0  0  0  0
  190.7580  175.2250  142.8480 C   0  0  2  0  0  3  0  0  0  0  0  0
  193.3940  175.9620  146.5130 C   0  0  0  0  0  3  0  0  0  0  0  0
  184.5900  178.5450  143.8100 C   0  0  0  0  0  2  0  0  0  0  0  0
  186.1170  177.3120  141.6770 N   0  0  2  0  0  0  0  0  0  0  0  0
  192.3350  176.7910  146.3520 N   0  0  0  0  0  0  0  0  0  0  0  0
  185.8550  179.2320  143.2770 C   0  0  0  0  0  2  0  0  0  0  0  0
  183.9380  178.4780  141.3190 C   0  0  1  0  0  3  0  0  0  0  0  0
  190.9840  173.5350  140.9950 C   0  0  0  0  0  3  0  0  0  0  0  0
  190.1840  174.4710  141.6700 C   0  0  0  0  0  0  0  0  0  0  0  0
  191.6660  174.3510  143.7320 C   0  0  0  0  0  2  0  0  0  0  0  0
  187.7100  177.5670  143.5350 C   0  0  0  0  0  2  0  0  0  0  0  0
  189.9080  177.8640  145.2160 O   0  0  0  0  0  0  0  0  0  0  0  0
  194.2610  173.8260  145.4010 C   0  0  0  0  0  1  0  0  0  0  0  0
  189.6950  175.9610  143.7030 C   0  0  2  0  0  3  0  0  0  0  0  0
  192.2150  175.1600  144.8170 N   0  0  0  0  0  0  0  0  0  0  0  0
  182.7950  178.1000  140.3910 C   0  0  0  0  0  2  0  0  0  0  0  0
  181.5000  178.6320  140.9030 C   0  0  0  0  0  0  0  0  0  0  0  0
  181.0810  179.9050  140.5430 O   0  0  0  0  0  0  0  0  0  0  0  0
  180.7720  177.9150  141.6380 O   0  0  0  0  0  1  0  0  0  0  0  0
  1 16  1  0  0  0  0
  2 24  1  1  0  0  0
  2 27  1  0  0  0  0
  3  4  2  0  0  0  0
  3 11  1  0  0  0  0
  4 21  1  0  0  0  0
  5 25  2  0  0  0  0
  5  6  1  0  0  0  0
  6 18  2  0  0  0  0
  7 19  1  1  0  0  0
  7 24  1  0  0  0  0
  8 17  1  0  0  0  0
  9 15  2  0  0  0  0
 10 20  1  0  0  0  0
 11 13  2  0  0  0  0
 12  8  1  6  0  0  0
 12  2  1  0  0  0  0
 13 22  1  0  0  0  0
 13 12  1  0  0  0  0
 14 27  1  0  0  0  0
 14 23  1  1  0  0  0
 17 10  1  6  0  0  0
 17  7  1  0  0  0  0
 18 15  1  0  0  0  0
 19 16  1  0  0  0  0
 20 29  1  6  0  0  0
 20  1  1  0  0  0  0
 21 22  2  0  0  0  0
 22 14  1  0  0  0  0
 23 28  1  0  0  0  0
 26  9  1  0  0  0  0
 27  5  1  1  0  0  0
 28  6  1  0  0  0  0
 28  9  1  0  0  0  0
 29 30  1  0  0  0  0
 30 32  1  0  0  0  0
 31 30  2  0  0  0  0
M  END
>  <MODEL>
4

>  <REMARK>
 VINA RESULT:      -8.2      2.675      9.237
  Name = 
  2 active torsions:
  status: ('A' for Active; 'I' for Inactive)
    1  A    between atoms: C_20  and  C_29
    2  A    between atoms: C_29  and  C_30
                            x       y       z     vdW  Elec       q    Type
                         _______ _______ _______ _____ _____    ______ ____

>  <TORSDO>
F 2

$$$$
=
 OpenBabel11112416283D

 32 37  0  0  1  0  0  0  0  0999 V2000
  189.4610  171.7490  139.5830 C   0  0  0  0  0  2  0  0  0  0  0  0
  188.5640  175.6450  142.9010 C   0  0  1  0  0  3  0  0  0  0  0  0
  191.8100  174.9160  146.5880 C   0  0  0  0  0  3  0  0  0  0  0  0
  191.1240  175.8480  147.3670 C   0  0  0  0  0  3  0  0  0  0  0  0
  186.3310  176.8230  143.4330 C   0  0  0  0  0  0  0  0  0  0  0  0
  185.5700  177.5930  144.4230 C   0  0  0  0  0  0  0  0  0  0  0  0
  189.1370  174.6900  140.6710 C   0  0  1  0  0  3  0  0  0  0  0  0
  190.6770  174.3960  142.4740 C   0  0  0  0  0  2  0  0  0  0  0  0
  185.0450  178.4200  146.3120 C   0  0  0  0  0  0  0  0  0  0  0  0
  191.1950  173.4620  140.3830 C   0  0  0  0  0  2  0  0  0  0  0  0
  191.3130  174.5570  145.3340 C   0  0  0  0  0  3  0  0  0  0  0  0
  189.5820  174.6700  143.5090 C   0  0  1  0  0  3  0  0  0  0  0  0
  190.1330  175.1320  144.8370 C   0  0  0  0  0  0  0  0  0  0  0  0
  188.1520  176.7060  145.1450 C   0  0  2  0  0  3  0  0  0  0  0  0
  184.1010  178.8170  145.3810 C   0  0  0  0  0  3  0  0  0  0  0  0
  188.2480  172.6640  139.3450 C   0  0  0  0  0  2  0  0  0  0  0  0
  190.0900  173.7550  141.2980 N   0  0  2  0  0  0  0  0  0  0  0  0
  184.4400  178.2890  144.1800 N   0  0  0  0  0  0  0  0  0  0  0  0
  188.5650  174.1660  139.3440 C   0  0  0  0  0  2  0  0  0  0  0  0
  190.8130  172.4270  139.3110 C   0  0  1  0  0  3  0  0  0  0  0  0
  189.9340  176.4050  146.8990 C   0  0  0  0  0  3  0  0  0  0  0  0
  189.4060  176.0310  145.6530 C   0  0  0  0  0  0  0  0  0  0  0  0
  187.1250  176.9740  146.2610 C   0  0  0  0  0  2  0  0  0  0  0  0
  187.9940  174.9970  141.6380 C   0  0  0  0  0  2  0  0  0  0  0  0
  185.9700  176.8150  142.2270 O   0  0  0  0  0  0  0  0  0  0  0  0
  185.0440  178.7680  147.7600 C   0  0  0  0  0  1  0  0  0  0  0  0
  187.4890  175.9830  143.9450 C   0  0  2  0  0  3  0  0  0  0  0  0
  185.9670  177.6660  145.7000 N   0  0  0  0  0  0  0  0  0  0  0  0
  191.9170  171.3880  139.2080 C   0  0  0  0  0  2  0  0  0  0  0  0
  191.7230  170.5250  138.0080 C   0  0  0  0  0  0  0  0  0  0  0  0
  191.5770  169.1530  138.1550 O   0  0  0  0  0  1  0  0  0  0  0  0
  191.6620  171.0440  136.8630 O   0  0  0  0  0  0  0  0  0  0  0  0
  2 24  1  6  0  0  0
  2 12  1  0  0  0  0
  2 27  1  0  0  0  0
  3  4  1  0  0  0  0
  5  6  1  0  0  0  0
  6 28  1  0  0  0  0
  7 19  1  6  0  0  0
  7 17  1  0  0  0  0
  7 24  1  0  0  0  0
  9 26  1  0  0  0  0
 11  3  2  0  0  0  0
 12  8  1  6  0  0  0
 12 13  1  0  0  0  0
 13 11  1  0  0  0  0
 13 22  2  0  0  0  0
 14 22  1  0  0  0  0
 14 23  1  1  0  0  0
 15  9  2  0  0  0  0
 16  1  1  0  0  0  0
 17 10  1  6  0  0  0
 17  8  1  0  0  0  0
 18  6  2  0  0  0  0
 18 15  1  0  0  0  0
 19 16  1  0  0  0  0
 20 29  1  1  0  0  0
 20  1  1  0  0  0  0
 20 10  1  0  0  0  0
 21  4  2  0  0  0  0
 22 21  1  0  0  0  0
 25  5  2  0  0  0  0
 27  5  1  6  0  0  0
 27 14  1  0  0  0  0
 28 23  1  0  0  0  0
 28  9  1  0  0  0  0
 30 31  1  0  0  0  0
 30 29  1  0  0  0  0
 32 30  2  0  0  0  0
M  END
>  <MODEL>
5

>  <REMARK>
 VINA RESULT:      -8.2      3.618      5.492
  Name = 
  2 active torsions:
  status: ('A' for Active; 'I' for Inactive)
    1  A    between atoms: C_20  and  C_29
    2  A    between atoms: C_29  and  C_30
                            x       y       z     vdW  Elec       q    Type
                         _______ _______ _______ _____ _____    ______ ____

>  <TORSDO>
F 2

$$$$
=
 OpenBabel11112416283D

 32 37  0  0  1  0  0  0  0  0999 V2000
  186.3190  178.9190  143.0100 C   0  0  0  0  0  2  0  0  0  0  0  0
  189.8990  175.1550  142.9900 C   0  0  1  0  0  3  0  0  0  0  0  0
  193.0550  176.4160  146.6120 C   0  0  0  0  0  3  0  0  0  0  0  0
  193.9640  175.4680  146.1400 C   0  0  0  0  0  3  0  0  0  0  0  0
  190.7940  173.7950  140.9880 C   0  0  0  0  0  0  0  0  0  0  0  0
  191.9140  173.0120  140.4550 C   0  0  0  0  0  0  0  0  0  0  0  0
  187.5710  176.0300  143.1500 C   0  0  1  0  0  3  0  0  0  0  0  0
  189.1230  176.5790  144.8810 C   0  0  0  0  0  2  0  0  0  0  0  0
  193.8930  172.2490  140.2820 C   0  0  0  0  0  0  0  0  0  0  0  0
  186.9410  177.4360  145.0080 C   0  0  0  0  0  2  0  0  0  0  0  0
  191.8700  176.6500  145.9130 C   0  0  0  0  0  3  0  0  0  0  0  0
  190.3140  176.2600  143.9720 C   0  0  1  0  0  3  0  0  0  0  0  0
  191.5700  175.9320  144.7450 C   0  0  0  0  0  0  0  0  0  0  0  0
  192.2240  174.1920  143.0020 C   0  0  2  0  0  3  0  0  0  0  0  0
  193.1230  171.7070  139.2680 C   0  0  0  0  0  3  0  0  0  0  0  0
  186.2950  177.8760  141.8790 C   0  0  0  0  0  2  0  0  0  0  0  0
  188.0150  177.0890  144.0760 N   0  0  2  0  0  0  0  0  0  0  0  0
  191.8640  172.1950  139.3830 N   0  0  0  0  0  0  0  0  0  0  0  0
  186.3160  176.4160  142.3510 C   0  0  0  0  0  2  0  0  0  0  0  0
  185.8890  178.3640  144.3760 C   0  0  1  0  0  3  0  0  0  0  0  0
  193.6930  174.7690  144.9640 C   0  0  0  0  0  3  0  0  0  0  0  0
  192.5190  175.0160  144.2350 C   0  0  0  0  0  0  0  0  0  0  0  0
  193.4840  173.8890  142.1710 C   0  0  0  0  0  2  0  0  0  0  0  0
  188.7020  175.6680  142.1880 C   0  0  0  0  0  2  0  0  0  0  0  0
  189.6510  173.6960  140.4680 O   0  0  0  0  0  0  0  0  0  0  0  0
  195.3400  171.9890  140.5140 C   0  0  0  0  0  1  0  0  0  0  0  0
  191.0990  174.7740  142.1100 C   0  0  2  0  0  3  0  0  0  0  0  0
  193.1240  173.0540  141.0270 N   0  0  0  0  0  0  0  0  0  0  0  0
  185.5850  179.4990  145.3400 C   0  0  0  0  0  2  0  0  0  0  0  0
  185.1760  178.9690  146.6710 C   0  0  0  0  0  0  0  0  0  0  0  0
  185.9410  179.2490  147.7950 O   0  0  0  0  0  1  0  0  0  0  0  0
  184.1220  178.2910  146.7820 O   0  0  0  0  0  0  0  0  0  0  0  0
  1 20  1  0  0  0  0
  2 24  1  6  0  0  0
  2 12  1  0  0  0  0
  4  3  1  0  0  0  0
  6  5  1  0  0  0  0
  6 28  1  0  0  0  0
  7 24  1  6  0  0  0
  7 17  1  0  0  0  0
  9 26  1  0  0  0  0
  9 28  1  0  0  0  0
 11  3  2  0  0  0  0
 12 13  1  0  0  0  0
 12  8  1  1  0  0  0
 13 11  1  0  0  0  0
 14 23  1  6  0  0  0
 14 22  1  0  0  0  0
 15 18  1  0  0  0  0
 15  9  2  0  0  0  0
 16 19  1  0  0  0  0
 16  1  1  0  0  0  0
 17  8  1  1  0  0  0
 17 10  1  0  0  0  0
 18  6  2  0  0  0  0
 19  7  1  0  0  0  0
 20 10  1  0  0  0  0
 20 29  1  1  0  0  0
 21  4  2  0  0  0  0
 22 13  2  0  0  0  0
 22 21  1  0  0  0  0
 25  5  2  0  0  0  0
 27  5  1  6  0  0  0
 27  2  1  0  0  0  0
 27 14  1  0  0  0  0
 28 23  1  0  0  0  0
 29 30  1  0  0  0  0
 30 32  2  0  0  0  0
 30 31  1  0  0  0  0
M  END
>  <MODEL>
6

>  <REMARK>
 VINA RESULT:      -7.9      3.109      8.049
  Name = 
  2 active torsions:
  status: ('A' for Active; 'I' for Inactive)
    1  A    between atoms: C_20  and  C_29
    2  A    between atoms: C_29  and  C_30
                            x       y       z     vdW  Elec       q    Type
                         _______ _______ _______ _____ _____    ______ ____

>  <TORSDO>
F 2

$$$$
=
 OpenBabel11112416283D

 32 37  0  0  1  0  0  0  0  0999 V2000
  187.6820  176.3000  146.8090 C   0  0  0  0  0  2  0  0  0  0  0  0
  190.8280  175.5220  142.7480 C   0  0  1  0  0  3  0  0  0  0  0  0
  188.1920  172.6670  139.6570 C   0  0  0  0  0  3  0  0  0  0  0  0
  189.3480  172.4100  138.9200 C   0  0  0  0  0  3  0  0  0  0  0  0
  193.4010  175.3290  142.7200 C   0  0  0  0  0  0  0  0  0  0  0  0
  194.5710  174.7990  142.0120 C   0  0  0  0  0  0  0  0  0  0  0  0
  189.5560  176.9400  144.3560 C   0  0  1  0  0  3  0  0  0  0  0  0
  188.3380  175.5700  142.8240 C   0  0  0  0  0  2  0  0  0  0  0  0
  195.6920  173.6010  140.6570 C   0  0  0  0  0  0  0  0  0  0  0  0
  187.1430  176.8740  144.3670 C   0  0  0  0  0  2  0  0  0  0  0  0
  188.2680  173.4160  140.8320 C   0  0  0  0  0  3  0  0  0  0  0  0
  189.5580  174.6730  142.5910 C   0  0  1  0  0  3  0  0  0  0  0  0
  189.4970  173.9280  141.2780 C   0  0  0  0  0  0  0  0  0  0  0  0
  192.0150  174.1780  140.9830 C   0  0  2  0  0  3  0  0  0  0  0  0
  196.5680  174.4150  141.3520 C   0  0  0  0  0  3  0  0  0  0  0  0
  189.1410  176.7780  146.8970 C   0  0  0  0  0  2  0  0  0  0  0  0
  188.3640  176.0860  144.1910 N   0  0  2  0  0  0  0  0  0  0  0  0
  195.8500  175.1760  142.2130 N   0  0  0  0  0  0  0  0  0  0  0  0
  189.6060  177.6470  145.7190 C   0  0  0  0  0  2  0  0  0  0  0  0
  186.8140  177.1290  145.8490 C   0  0  1  0  0  3  0  0  0  0  0  0
  190.5800  172.8870  139.3670 C   0  0  0  0  0  3  0  0  0  0  0  0
  190.6760  173.6160  140.5630 C   0  0  0  0  0  0  0  0  0  0  0  0
  193.1860  173.2260  140.6760 C   0  0  0  0  0  2  0  0  0  0  0  0
  190.8240  176.1100  144.1600 C   0  0  0  0  0  2  0  0  0  0  0  0
  193.5390  176.2540  143.5640 O   0  0  0  0  0  0  0  0  0  0  0  0
  196.0650  172.5980  139.6220 C   0  0  0  0  0  1  0  0  0  0  0  0
  192.0630  174.6580  142.4560 C   0  0  2  0  0  3  0  0  0  0  0  0
  194.4430  173.8570  141.0680 N   0  0  0  0  0  0  0  0  0  0  0  0
  185.3400  176.8450  146.0860 C   0  0  0  0  0  2  0  0  0  0  0  0
  184.6230  178.0830  146.5040 C   0  0  0  0  0  0  0  0  0  0  0  0
  183.6930  178.6660  145.6560 O   0  0  0  0  0  0  0  0  0  0  0  0
  184.8400  178.5840  147.6380 O   0  0  0  0  0  1  0  0  0  0  0  0
  1 16  1  0  0  0  0
  2 24  1  1  0  0  0
  3 11  1  0  0  0  0
  4 21  1  0  0  0  0
  4  3  2  0  0  0  0
  5 25  2  0  0  0  0
  6 18  2  0  0  0  0
  6  5  1  0  0  0  0
  7 24  1  1  0  0  0
  7 19  1  0  0  0  0
  9 28  1  0  0  0  0
  9 15  2  0  0  0  0
 10 20  1  0  0  0  0
 11 13  2  0  0  0  0
 12  2  1  0  0  0  0
 12  8  1  6  0  0  0
 13 12  1  0  0  0  0
 14 23  1  1  0  0  0
 14 27  1  0  0  0  0
 15 18  1  0  0  0  0
 17  8  1  6  0  0  0
 17  7  1  0  0  0  0
 17 10  1  0  0  0  0
 19 16  1  0  0  0  0
 20 29  1  6  0  0  0
 20  1  1  0  0  0  0
 21 22  2  0  0  0  0
 22 14  1  0  0  0  0
 22 13  1  0  0  0  0
 23 28  1  0  0  0  0
 26  9  1  0  0  0  0
 27  5  1  6  0  0  0
 27  2  1  0  0  0  0
 28  6  1  0  0  0  0
 29 30  1  0  0  0  0
 30 32  1  0  0  0  0
 31 30  2  0  0  0  0
M  END
>  <MODEL>
7

>  <REMARK>
 VINA RESULT:      -7.9      3.506      8.864
  Name = 
  2 active torsions:
  status: ('A' for Active; 'I' for Inactive)
    1  A    between atoms: C_20  and  C_29
    2  A    between atoms: C_29  and  C_30
                            x       y       z     vdW  Elec       q    Type
                         _______ _______ _______ _____ _____    ______ ____

>  <TORSDO>
F 2

$$$$
=
 OpenBabel11112416283D

 32 37  0  0  1  0  0  0  0  0999 V2000
  185.8750  176.7860  146.6100 C   0  0  0  0  0  2  0  0  0  0  0  0
  190.1340  175.1520  144.1260 C   0  0  1  0  0  3  0  0  0  0  0  0
  188.5660  174.0710  139.5390 C   0  0  0  0  0  3  0  0  0  0  0  0
  189.7720  173.4160  139.2890 C   0  0  0  0  0  3  0  0  0  0  0  0
  192.1570  173.8630  145.0770 C   0  0  0  0  0  0  0  0  0  0  0  0
  193.2690  172.9540  144.7770 C   0  0  0  0  0  0  0  0  0  0  0  0
  188.7970  176.8030  145.4290 C   0  0  1  0  0  3  0  0  0  0  0  0
  188.1060  176.2680  143.2050 C   0  0  0  0  0  2  0  0  0  0  0  0
  194.4340  171.5380  143.6970 C   0  0  0  0  0  0  0  0  0  0  0  0
  186.8250  177.7920  144.4500 C   0  0  0  0  0  2  0  0  0  0  0  0
  188.3040  174.5830  140.8110 C   0  0  0  0  0  3  0  0  0  0  0  0
  188.9040  174.9610  143.2270 C   0  0  1  0  0  3  0  0  0  0  0  0
  189.2470  174.4600  141.8430 C   0  0  0  0  0  0  0  0  0  0  0  0
  191.5050  173.6190  142.6740 C   0  0  2  0  0  3  0  0  0  0  0  0
  195.0730  171.8120  144.8930 C   0  0  0  0  0  3  0  0  0  0  0  0
  187.1670  176.5700  147.4150 C   0  0  0  0  0  2  0  0  0  0  0  0
  187.6320  176.5750  144.5540 N   0  0  2  0  0  0  0  0  0  0  0  0
  194.3280  172.7140  145.5770 N   0  0  0  0  0  0  0  0  0  0  0  0
  188.4070  177.2690  146.8400 C   0  0  0  0  0  2  0  0  0  0  0  0
  185.9210  178.0060  145.6760 C   0  0  1  0  0  3  0  0  0  0  0  0
  190.7060  173.2600  140.3140 C   0  0  0  0  0  3  0  0  0  0  0  0
  190.4430  173.7430  141.6050 C   0  0  0  0  0  0  0  0  0  0  0  0
  192.2790  172.2910  142.5950 C   0  0  0  0  0  2  0  0  0  0  0  0
  189.6380  175.5290  145.5220 C   0  0  0  0  0  2  0  0  0  0  0  0
  192.1650  174.5410  146.1390 O   0  0  0  0  0  0  0  0  0  0  0  0
  194.9050  170.5890  142.6520 C   0  0  0  0  0  1  0  0  0  0  0  0
  190.9840  173.8720  144.1120 C   0  0  2  0  0  3  0  0  0  0  0  0
  193.3120  172.2680  143.6280 N   0  0  0  0  0  0  0  0  0  0  0  0
  184.5230  178.3680  145.2050 C   0  0  0  0  0  2  0  0  0  0  0  0
  184.5760  179.1410  143.9320 C   0  0  0  0  0  0  0  0  0  0  0  0
  183.9240  178.6660  142.8030 O   0  0  0  0  0  0  0  0  0  0  0  0
  185.1890  180.2390  143.8880 O   0  0  0  0  0  1  0  0  0  0  0  0
  1 16  1  0  0  0  0
  2 24  1  1  0  0  0
  3 11  1  0  0  0  0
  4  3  2  0  0  0  0
  4 21  1  0  0  0  0
  5 25  2  0  0  0  0
  6  5  1  0  0  0  0
  6 18  2  0  0  0  0
  7 24  1  1  0  0  0
  7 19  1  0  0  0  0
  9 15  2  0  0  0  0
 10 17  1  0  0  0  0
 10 20  1  0  0  0  0
 11 13  2  0  0  0  0
 12  8  1  6  0  0  0
 12  2  1  0  0  0  0
 13 12  1  0  0  0  0
 14 23  1  1  0  0  0
 14 27  1  0  0  0  0
 15 18  1  0  0  0  0
 17  8  1  6  0  0  0
 17  7  1  0  0  0  0
 19 16  1  0  0  0  0
 20 29  1  6  0  0  0
 20  1  1  0  0  0  0
 21 22  2  0  0  0  0
 22 13  1  0  0  0  0
 22 14  1  0  0  0  0
 23 28  1  0  0  0  0
 26  9  1  0  0  0  0
 27  2  1  0  0  0  0
 27  5  1  1  0  0  0
 28  9  1  0  0  0  0
 28  6  1  0  0  0  0
 30 29  1  0  0  0  0
 31 30  2  0  0  0  0
 32 30  1  0  0  0  0
M  END
>  <MODEL>
8

>  <REMARK>
 VINA RESULT:      -7.7      2.907      8.943
  Name = 
  2 active torsions:
  status: ('A' for Active; 'I' for Inactive)
    1  A    between atoms: C_20  and  C_29
    2  A    between atoms: C_29  and  C_30
                            x       y       z     vdW  Elec       q    Type
                         _______ _______ _______ _____ _____    ______ ____

>  <TORSDO>
F 2

$$$$
=
 OpenBabel11112416283D

 32 37  0  0  1  0  0  0  0  0999 V2000
  191.9330  171.2790  141.5270 C   0  0  0  0  0  2  0  0  0  0  0  0
  189.5430  175.5890  143.1690 C   0  0  1  0  0  3  0  0  0  0  0  0
  191.4470  176.4290  147.6780 C   0  0  0  0  0  3  0  0  0  0  0  0
  190.4380  177.3610  147.9220 C   0  0  0  0  0  3  0  0  0  0  0  0
  187.1390  176.3840  142.6730 C   0  0  0  0  0  0  0  0  0  0  0  0
  186.0100  177.1980  143.1350 C   0  0  0  0  0  0  0  0  0  0  0  0
  190.9290  174.2660  141.5740 C   0  0  1  0  0  3  0  0  0  0  0  0
  191.8080  174.7270  143.7470 C   0  0  0  0  0  2  0  0  0  0  0  0
  184.7970  178.3280  144.4690 C   0  0  0  0  0  0  0  0  0  0  0  0
  193.0940  173.4460  142.2580 C   0  0  0  0  0  2  0  0  0  0  0  0
  191.4380  175.6890  146.4950 C   0  0  0  0  0  3  0  0  0  0  0  0
  190.4080  175.0120  144.2990 C   0  0  1  0  0  3  0  0  0  0  0  0
  190.4310  175.8800  145.5360 C   0  0  0  0  0  0  0  0  0  0  0  0
  188.2910  177.0480  144.7930 C   0  0  2  0  0  3  0  0  0  0  0  0
  184.1750  178.2920  143.2340 C   0  0  0  0  0  3  0  0  0  0  0  0
  190.7700  171.8460  140.6950 C   0  0  0  0  0  2  0  0  0  0  0  0
  191.7220  173.7200  142.6910 N   0  0  2  0  0  0  0  0  0  0  0  0
  184.9510  177.5730  142.3880 N   0  0  0  0  0  0  0  0  0  0  0  0
  190.8930  173.3370  140.3510 C   0  0  0  0  0  2  0  0  0  0  0  0
  193.2110  172.1300  141.4690 C   0  0  1  0  0  3  0  0  0  0  0  0
  189.4140  177.5400  146.9920 C   0  0  0  0  0  3  0  0  0  0  0  0
  189.3760  176.7810  145.8120 C   0  0  0  0  0  0  0  0  0  0  0  0
  186.9290  177.3610  145.4390 C   0  0  0  0  0  2  0  0  0  0  0  0
  189.5020  174.5580  142.0400 C   0  0  0  0  0  2  0  0  0  0  0  0
  187.2020  176.0170  141.4700 O   0  0  0  0  0  0  0  0  0  0  0  0
  184.2760  179.0020  145.6900 C   0  0  0  0  0  1  0  0  0  0  0  0
  188.1520  175.9420  143.7160 C   0  0  2  0  0  3  0  0  0  0  0  0
  185.9500  177.6510  144.3940 N   0  0  0  0  0  0  0  0  0  0  0  0
  194.3990  171.3410  141.9930 C   0  0  0  0  0  2  0  0  0  0  0  0
  195.6730  172.0730  141.7420 C   0  0  0  0  0  0  0  0  0  0  0  0
  195.9960  172.4850  140.4570 O   0  0  0  0  0  0  0  0  0  0  0  0
  196.4440  172.3420  142.7000 O   0  0  0  0  0  1  0  0  0  0  0  0
  2 24  1  6  0  0  0
  2 27  1  0  0  0  0
  2 12  1  0  0  0  0
  3  4  1  0  0  0  0
  5  6  1  0  0  0  0
  6 28  1  0  0  0  0
  7 19  1  6  0  0  0
  7 24  1  0  0  0  0
  7 17  1  0  0  0  0
  9 26  1  0  0  0  0
 11  3  2  0  0  0  0
 12  8  1  6  0  0  0
 12 13  1  0  0  0  0
 13 22  2  0  0  0  0
 13 11  1  0  0  0  0
 14 23  1  1  0  0  0
 14 22  1  0  0  0  0
 15  9  2  0  0  0  0
 16  1  1  0  0  0  0
 17 10  1  6  0  0  0
 17  8  1  0  0  0  0
 18  6  2  0  0  0  0
 18 15  1  0  0  0  0
 19 16  1  0  0  0  0
 20  1  1  0  0  0  0
 20 29  1  1  0  0  0
 20 10  1  0  0  0  0
 21  4  2  0  0  0  0
 22 21  1  0  0  0  0
 25  5  2  0  0  0  0
 27  5  1  6  0  0  0
 27 14  1  0  0  0  0
 28  9  1  0  0  0  0
 28 23  1  0  0  0  0
 30 29  1  0  0  0  0
 30 32  1  0  0  0  0
 31 30  2  0  0  0  0
M  END
>  <MODEL>
9

>  <REMARK>
 VINA RESULT:      -7.7      2.491      3.721
  Name = 
  2 active torsions:
  status: ('A' for Active; 'I' for Inactive)
    1  A    between atoms: C_20  and  C_29
    2  A    between atoms: C_29  and  C_30
                            x       y       z     vdW  Elec       q    Type
                         _______ _______ _______ _____ _____    ______ ____

>  <TORSDO>
F 2

$$$$
