=
 OpenBabel11112417563D

 34 40  0  0  1  0  0  0  0  0999 V2000
  194.8570  175.1730  144.8430 C   0  0  1  0  0  3  0  0  0  0  0  0
  193.1160  176.5660  146.0210 C   0  0  0  0  0  2  0  0  0  0  0  0
  194.5740  169.3190  146.8240 C   0  0  0  0  0  2  0  0  0  0  0  0
  196.1710  173.0970  144.0360 C   0  0  1  0  0  3  0  0  0  0  0  0
  194.9880  170.9020  144.0020 C   0  0  0  0  0  0  0  0  0  0  0  0
  193.9240  168.6720  144.4810 C   0  0  0  0  0  2  0  0  0  0  0  0
  194.3470  168.1660  145.8550 C   0  0  0  0  0  2  0  0  0  0  0  0
  196.9350  169.9100  146.1070 C   0  0  0  0  0  2  0  0  0  0  0  0
  192.2700  174.9910  144.3410 C   0  0  1  0  0  3  0  0  0  0  0  0
  189.7190  173.6700  145.8650 C   0  0  0  0  0  2  0  0  0  0  0  0
  193.8540  171.5540  143.9520 N   0  0  0  0  0  0  0  0  0  0  0  0
  196.6490  171.3760  145.8050 C   0  0  0  0  0  2  0  0  0  0  0  0
  192.4360  173.4840  144.5990 C   0  0  2  0  0  3  0  0  0  0  0  0
  191.6480  176.3610  146.1450 C   0  0  0  0  0  2  0  0  0  0  0  0
  196.2970  171.5990  144.3280 C   0  0  2  0  0  3  0  0  0  0  0  0
  196.0420  169.4090  147.2380 C   0  0  0  0  0  2  0  0  0  0  0  0
  189.7750  175.0160  145.1480 C   0  0  2  0  0  3  0  0  0  0  0  0
  194.9080  173.6340  144.7130 C   0  0  2  0  0  3  0  0  0  0  0  0
  194.9880  169.4770  143.9020 N   0  0  0  0  0  2  0  0  0  0  0  0
  193.7390  173.0210  143.9670 C   0  0  1  0  0  3  0  0  0  0  0  0
  197.1450  175.3410  143.9070 C   0  0  0  0  0  3  0  0  0  0  0  0
  190.1110  172.4900  144.9650 C   0  0  0  0  0  2  0  0  0  0  0  0
  197.4030  173.9340  144.3720 C   0  0  0  0  0  2  0  0  0  0  0  0
  191.2480  172.7540  143.9710 C   0  0  0  0  0  2  0  0  0  0  0  0
  191.1880  175.5380  145.2080 C   0  0  2  0  0  3  0  0  0  0  0  0
  195.9490  175.9150  144.1130 C   0  0  0  0  0  3  0  0  0  0  0  0
  193.4870  175.8560  144.7260 C   0  0  2  0  0  3  0  0  0  0  0  0
  188.7860  175.9720  145.7400 C   0  0  0  0  0  3  0  0  0  0  0  0
  188.0430  176.6920  144.9820 N   0  0  0  0  0  0  0  0  0  0  0  0
  184.7360  177.7560  145.3440 O   0  0  0  0  0  0  0  0  0  0  0  0
  186.4680  177.0110  146.7680 C   0  0  0  0  0  2  0  0  0  0  0  0
  187.0910  177.6130  145.5450 C   0  0  2  0  0  3  0  0  0  0  0  0
  185.0070  176.8830  146.4080 C   0  0  0  0  0  2  0  0  0  0  0  0
  185.9220  177.8040  144.5990 C   0  0  0  0  0  2  0  0  0  0  0  0
  1 26  1  6  0  0  0
  2 14  1  0  0  0  0
  3 16  1  0  0  0  0
  4 15  1  0  0  0  0
  4 23  1  1  0  0  0
  4 18  1  0  0  0  0
  5 15  1  0  0  0  0
  6  7  1  0  0  0  0
  7  3  1  0  0  0  0
  8 16  1  0  0  0  0
  9 13  1  0  0  0  0
  9 27  1  0  0  0  0
  9 25  1  0  0  0  0
 11 20  1  0  0  0  0
 11  5  2  0  0  0  0
 12  8  1  0  0  0  0
 15 12  1  0  0  0  0
 17 25  1  0  0  0  0
 17 28  1  0  0  0  0
 17 10  1  0  0  0  0
 18  1  1  0  0  0  0
 19  5  1  0  0  0  0
 19  6  1  0  0  0  0
 20 13  1  0  0  0  0
 20 18  1  0  0  0  0
 21 26  2  0  0  0  0
 21 23  1  0  0  0  0
 22 10  1  0  0  0  0
 24 13  1  0  0  0  0
 24 22  1  0  0  0  0
 25 14  1  0  0  0  0
 27  1  1  0  0  0  0
 27  2  1  0  0  0  0
 29 32  1  0  0  0  0
 29 28  2  0  0  0  0
 30 33  1  0  0  0  0
 32 31  1  0  0  0  0
 33 31  1  0  0  0  0
 34 30  1  0  0  0  0
 34 32  1  0  0  0  0
M  END
>  <MODEL>
1

>  <REMARK>
 VINA RESULT:      -8.5      0.000      0.000
  Name = 
  2 active torsions:
  status: ('A' for Active; 'I' for Inactive)
    1  A    between atoms: C_17  and  C_28
    2  A    between atoms: N_29  and  C_32
                            x       y       z     vdW  Elec       q    Type
                         _______ _______ _______ _____ _____    ______ ____

>  <TORSDO>
F 2

$$$$
=
 OpenBabel11112417563D

 34 40  0  0  1  0  0  0  0  0999 V2000
  193.0150  175.2530  145.8320 C   0  0  1  0  0  3  0  0  0  0  0  0
  191.0020  176.1950  147.0250 C   0  0  0  0  0  2  0  0  0  0  0  0
  191.3430  170.3910  142.3890 C   0  0  0  0  0  2  0  0  0  0  0  0
  194.4250  173.8330  144.1940 C   0  0  1  0  0  3  0  0  0  0  0  0
  193.3160  172.9770  142.1310 C   0  0  0  0  0  0  0  0  0  0  0  0
  192.0270  171.7260  140.3680 C   0  0  0  0  0  2  0  0  0  0  0  0
  191.6060  170.3570  140.8890 C   0  0  0  0  0  2  0  0  0  0  0  0
  193.7470  170.1570  143.1650 C   0  0  0  0  0  2  0  0  0  0  0  0
  191.1060  176.6090  144.6100 C   0  0  1  0  0  3  0  0  0  0  0  0
  188.0610  175.9590  143.6730 C   0  0  0  0  0  2  0  0  0  0  0  0
  192.4330  173.9350  142.2510 N   0  0  0  0  0  0  0  0  0  0  0  0
  193.7620  171.4130  144.0270 C   0  0  0  0  0  2  0  0  0  0  0  0
  191.0120  175.4070  143.6540 C   0  0  2  0  0  3  0  0  0  0  0  0
  189.6920  176.6450  146.4850 C   0  0  0  0  0  2  0  0  0  0  0  0
  194.2810  172.6340  143.2530 C   0  0  2  0  0  3  0  0  0  0  0  0
  192.3550  169.5330  143.1460 C   0  0  0  0  0  2  0  0  0  0  0  0
  188.5790  177.2430  144.3140 C   0  0  2  0  0  3  0  0  0  0  0  0
  193.0330  174.3230  144.5970 C   0  0  2  0  0  3  0  0  0  0  0  0
  193.2820  172.1250  140.9850 N   0  0  0  0  0  2  0  0  0  0  0  0
  192.4190  174.9190  143.3450 C   0  0  1  0  0  3  0  0  0  0  0  0
  195.4500  174.9150  146.1380 C   0  0  0  0  0  3  0  0  0  0  0  0
  188.8040  175.5860  142.3830 C   0  0  0  0  0  2  0  0  0  0  0  0
  195.3280  173.6080  145.4040 C   0  0  0  0  0  2  0  0  0  0  0  0
  190.3120  175.8630  142.3740 C   0  0  0  0  0  2  0  0  0  0  0  0
  189.7630  176.9070  145.1840 C   0  0  2  0  0  3  0  0  0  0  0  0
  194.3710  175.6920  146.3240 C   0  0  0  0  0  3  0  0  0  0  0  0
  191.9720  176.3780  145.8640 C   0  0  2  0  0  3  0  0  0  0  0  0
  187.4880  177.9330  145.0740 C   0  0  0  0  0  3  0  0  0  0  0  0
  186.6820  178.7320  144.4760 N   0  0  0  0  0  0  0  0  0  0  0  0
  183.4850  178.6660  145.8800 O   0  0  0  0  0  0  0  0  0  0  0  0
  185.6930  179.0090  146.6480 C   0  0  0  0  0  2  0  0  0  0  0  0
  185.6320  179.3970  145.2020 C   0  0  2  0  0  3  0  0  0  0  0  0
  184.3850  178.2920  146.8880 C   0  0  0  0  0  2  0  0  0  0  0  0
  184.2780  178.8920  144.7470 C   0  0  0  0  0  2  0  0  0  0  0  0
  1 27  1  0  0  0  0
  1 26  1  6  0  0  0
  3 16  1  0  0  0  0
  4 18  1  0  0  0  0
  4 23  1  1  0  0  0
  5 11  2  0  0  0  0
  5 15  1  0  0  0  0
  6  7  1  0  0  0  0
  6 19  1  0  0  0  0
  7  3  1  0  0  0  0
  8 12  1  0  0  0  0
  9 25  1  0  0  0  0
  9 27  1  0  0  0  0
 10 17  1  0  0  0  0
 11 20  1  0  0  0  0
 13  9  1  0  0  0  0
 14  2  1  0  0  0  0
 15 12  1  0  0  0  0
 15  4  1  0  0  0  0
 16  8  1  0  0  0  0
 17 28  1  0  0  0  0
 17 25  1  0  0  0  0
 18  1  1  0  0  0  0
 19  5  1  0  0  0  0
 20 13  1  0  0  0  0
 20 18  1  0  0  0  0
 21 26  2  0  0  0  0
 22 10  1  0  0  0  0
 23 21  1  0  0  0  0
 24 22  1  0  0  0  0
 24 13  1  0  0  0  0
 25 14  1  0  0  0  0
 27  2  1  0  0  0  0
 29 28  2  0  0  0  0
 29 32  1  0  0  0  0
 30 33  1  0  0  0  0
 31 33  1  0  0  0  0
 32 31  1  0  0  0  0
 34 32  1  0  0  0  0
 34 30  1  0  0  0  0
M  END
>  <MODEL>
2

>  <REMARK>
 VINA RESULT:      -8.5      2.367      3.226
  Name = 
  2 active torsions:
  status: ('A' for Active; 'I' for Inactive)
    1  A    between atoms: C_17  and  C_28
    2  A    between atoms: N_29  and  C_32
                            x       y       z     vdW  Elec       q    Type
                         _______ _______ _______ _____ _____    ______ ____

>  <TORSDO>
F 2

$$$$
=
 OpenBabel11112417563D

 34 40  0  0  1  0  0  0  0  0999 V2000
  187.8500  177.3270  146.1650 C   0  0  1  0  0  3  0  0  0  0  0  0
  185.3780  177.8280  146.2040 C   0  0  0  0  0  2  0  0  0  0  0  0
  188.9890  172.6090  142.3280 C   0  0  0  0  0  2  0  0  0  0  0  0
  190.1120  176.3050  145.4390 C   0  0  1  0  0  3  0  0  0  0  0  0
  190.3280  175.4840  143.0940 C   0  0  0  0  0  0  0  0  0  0  0  0
  190.3160  174.2170  140.9180 C   0  0  0  0  0  2  0  0  0  0  0  0
  189.9520  172.7570  141.1570 C   0  0  0  0  0  2  0  0  0  0  0  0
  190.7050  172.6810  144.1950 C   0  0  0  0  0  2  0  0  0  0  0  0
  186.5700  178.4770  144.1610 C   0  0  1  0  0  3  0  0  0  0  0  0
  184.5460  177.4510  141.8320 C   0  0  0  0  0  2  0  0  0  0  0  0
  189.3410  176.2760  142.7630 N   0  0  0  0  0  0  0  0  0  0  0  0
  190.0680  173.8380  144.9550 C   0  0  0  0  0  2  0  0  0  0  0  0
  187.1750  177.3710  143.2800 C   0  0  2  0  0  3  0  0  0  0  0  0
  184.4410  178.1160  145.0860 C   0  0  0  0  0  2  0  0  0  0  0  0
  190.6660  175.1920  144.5460 C   0  0  2  0  0  3  0  0  0  0  0  0
  189.6400  171.8520  143.4840 C   0  0  0  0  0  2  0  0  0  0  0  0
  184.4420  178.7340  142.6500 C   0  0  2  0  0  3  0  0  0  0  0  0
  188.6380  176.5320  145.0990 C   0  0  2  0  0  3  0  0  0  0  0  0
  191.0130  174.7480  142.0800 N   0  0  0  0  0  2  0  0  0  0  0  0
  188.6160  177.1390  143.7090 C   0  0  1  0  0  3  0  0  0  0  0  0
  189.8410  177.3470  147.6390 C   0  0  0  0  0  3  0  0  0  0  0  0
  185.8780  177.3210  141.0810 C   0  0  0  0  0  2  0  0  0  0  0  0
  190.3330  176.1110  146.9370 C   0  0  0  0  0  2  0  0  0  0  0  0
  187.1190  177.8300  141.8230 C   0  0  0  0  0  2  0  0  0  0  0  0
  185.0890  178.5070  143.9930 C   0  0  2  0  0  3  0  0  0  0  0  0
  188.6880  177.9250  147.2670 C   0  0  0  0  0  3  0  0  0  0  0  0
  186.7390  178.2680  145.6790 C   0  0  2  0  0  3  0  0  0  0  0  0
  183.0140  179.1700  142.7710 C   0  0  0  0  0  3  0  0  0  0  0  0
  182.1200  178.6970  141.9810 N   0  0  0  0  0  0  0  0  0  0  0  0
  179.0910  179.5150  140.4480 O   0  0  0  0  0  0  0  0  0  0  0  0
  179.8490  177.9160  142.0130 C   0  0  0  0  0  2  0  0  0  0  0  0
  180.7470  179.1130  142.0910 C   0  0  2  0  0  3  0  0  0  0  0  0
  179.0390  178.1490  140.7590 C   0  0  0  0  0  2  0  0  0  0  0  0
  180.3510  179.9430  140.8870 C   0  0  0  0  0  2  0  0  0  0  0  0
  1 26  1  6  0  0  0
  3 16  1  0  0  0  0
  4 23  1  1  0  0  0
  5 15  1  0  0  0  0
  6  7  1  0  0  0  0
  6 19  1  0  0  0  0
  7  3  1  0  0  0  0
  8 12  1  0  0  0  0
  9 27  1  0  0  0  0
 10 17  1  0  0  0  0
 11  5  2  0  0  0  0
 11 20  1  0  0  0  0
 13 20  1  0  0  0  0
 13  9  1  0  0  0  0
 14  2  1  0  0  0  0
 15 12  1  0  0  0  0
 15  4  1  0  0  0  0
 16  8  1  0  0  0  0
 17 28  1  0  0  0  0
 17 25  1  0  0  0  0
 18  4  1  0  0  0  0
 18  1  1  0  0  0  0
 19  5  1  0  0  0  0
 20 18  1  0  0  0  0
 22 24  1  0  0  0  0
 22 10  1  0  0  0  0
 23 21  1  0  0  0  0
 24 13  1  0  0  0  0
 25  9  1  0  0  0  0
 25 14  1  0  0  0  0
 26 21  2  0  0  0  0
 27  1  1  0  0  0  0
 27  2  1  0  0  0  0
 29 32  1  0  0  0  0
 29 28  2  0  0  0  0
 30 33  1  0  0  0  0
 30 34  1  0  0  0  0
 31 32  1  0  0  0  0
 33 31  1  0  0  0  0
 34 32  1  0  0  0  0
M  END
>  <MODEL>
3

>  <REMARK>
 VINA RESULT:      -8.4      4.380      7.341
  Name = 
  2 active torsions:
  status: ('A' for Active; 'I' for Inactive)
    1  A    between atoms: C_17  and  C_28
    2  A    between atoms: N_29  and  C_32
                            x       y       z     vdW  Elec       q    Type
                         _______ _______ _______ _____ _____    ______ ____

>  <TORSDO>
F 2

$$$$
=
 OpenBabel11112417563D

 34 40  0  0  1  0  0  0  0  0999 V2000
  190.3870  174.3560  141.5650 C   0  0  1  0  0  3  0  0  0  0  0  0
  188.6740  175.9550  142.5000 C   0  0  0  0  0  2  0  0  0  0  0  0
  196.0900  176.4350  142.7610 C   0  0  0  0  0  2  0  0  0  0  0  0
  192.6750  173.2460  141.0970 C   0  0  1  0  0  3  0  0  0  0  0  0
  194.5030  173.5840  142.7600 C   0  0  0  0  0  0  0  0  0  0  0  0
  196.4240  174.3820  144.1770 C   0  0  0  0  0  2  0  0  0  0  0  0
  197.0940  175.5890  143.5320 C   0  0  0  0  0  2  0  0  0  0  0  0
  196.0620  175.0710  140.6220 C   0  0  0  0  0  2  0  0  0  0  0  0
  189.8940  174.6090  144.1480 C   0  0  1  0  0  3  0  0  0  0  0  0
  190.6250  176.8130  146.4240 C   0  0  0  0  0  2  0  0  0  0  0  0
  193.5890  173.8460  143.6590 N   0  0  0  0  0  0  0  0  0  0  0  0
  194.5570  174.8370  140.5990 C   0  0  0  0  0  2  0  0  0  0  0  0
  191.4080  174.8350  144.3050 C   0  0  2  0  0  3  0  0  0  0  0  0
  188.5160  176.4920  143.8780 C   0  0  0  0  0  2  0  0  0  0  0  0
  194.1710  173.5160  141.2790 C   0  0  2  0  0  3  0  0  0  0  0  0
  196.3890  176.4160  141.2630 C   0  0  0  0  0  2  0  0  0  0  0  0
  189.2980  176.0860  146.2310 C   0  0  2  0  0  3  0  0  0  0  0  0
  191.8810  174.2430  141.9440 C   0  0  2  0  0  3  0  0  0  0  0  0
  195.8760  173.5130  143.1470 N   0  0  0  0  0  2  0  0  0  0  0  0
  192.1430  173.8680  143.3900 C   0  0  1  0  0  3  0  0  0  0  0  0
  190.7380  172.8100  139.6620 C   0  0  0  0  0  3  0  0  0  0  0  0
  191.8140  175.8590  146.6090 C   0  0  0  0  0  2  0  0  0  0  0  0
  192.1890  173.2060  139.6500 C   0  0  0  0  0  2  0  0  0  0  0  0
  191.7840  174.5800  145.7640 C   0  0  0  0  0  2  0  0  0  0  0  0
  189.1450  175.7360  144.7730 C   0  0  2  0  0  3  0  0  0  0  0  0
  189.8990  173.3360  140.5680 C   0  0  0  0  0  3  0  0  0  0  0  0
  189.3810  174.6190  142.6940 C   0  0  2  0  0  3  0  0  0  0  0  0
  188.1610  176.9180  146.7410 C   0  0  0  0  0  3  0  0  0  0  0  0
  187.0370  176.3730  147.0360 N   0  0  0  0  0  0  0  0  0  0  0  0
  185.3240  179.4150  147.1150 O   0  0  0  0  0  0  0  0  0  0  0  0
  184.8370  177.1830  146.5130 C   0  0  0  0  0  2  0  0  0  0  0  0
  185.9410  177.1670  147.5260 C   0  0  2  0  0  3  0  0  0  0  0  0
  184.7330  178.6360  146.1110 C   0  0  0  0  0  2  0  0  0  0  0  0
  186.3540  178.6200  147.6360 C   0  0  0  0  0  2  0  0  0  0  0  0
  1 26  1  1  0  0  0
  1 18  1  0  0  0  0
  1 27  1  0  0  0  0
  2 27  1  0  0  0  0
  2 14  1  0  0  0  0
  3  7  1  0  0  0  0
  4 23  1  6  0  0  0
  4 15  1  0  0  0  0
  4 18  1  0  0  0  0
  5 19  1  0  0  0  0
  5 11  2  0  0  0  0
  7  6  1  0  0  0  0
  8 16  1  0  0  0  0
  9 13  1  0  0  0  0
  9 25  1  0  0  0  0
 10 22  1  0  0  0  0
 12  8  1  0  0  0  0
 12 15  1  0  0  0  0
 13 24  1  0  0  0  0
 14 25  1  0  0  0  0
 15  5  1  0  0  0  0
 16  3  1  0  0  0  0
 17 10  1  0  0  0  0
 17 28  1  0  0  0  0
 18 20  1  0  0  0  0
 19  6  1  0  0  0  0
 20 11  1  0  0  0  0
 20 13  1  0  0  0  0
 21 26  2  0  0  0  0
 23 21  1  0  0  0  0
 24 22  1  0  0  0  0
 25 17  1  0  0  0  0
 27  9  1  0  0  0  0
 28 29  2  0  0  0  0
 29 32  1  0  0  0  0
 30 34  1  0  0  0  0
 31 32  1  0  0  0  0
 32 34  1  0  0  0  0
 33 31  1  0  0  0  0
 33 30  1  0  0  0  0
M  END
>  <MODEL>
4

>  <REMARK>
 VINA RESULT:      -8.3      2.819      4.887
  Name = 
  2 active torsions:
  status: ('A' for Active; 'I' for Inactive)
    1  A    between atoms: C_17  and  C_28
    2  A    between atoms: N_29  and  C_32
                            x       y       z     vdW  Elec       q    Type
                         _______ _______ _______ _____ _____    ______ ____

>  <TORSDO>
F 2

$$$$
=
 OpenBabel11112417563D

 34 40  0  0  1  0  0  0  0  0999 V2000
  189.3020  176.8630  146.5100 C   0  0  1  0  0  3  0  0  0  0  0  0
  186.7830  176.7830  146.3960 C   0  0  0  0  0  2  0  0  0  0  0  0
  191.7290  172.9670  142.3620 C   0  0  0  0  0  2  0  0  0  0  0  0
  191.7770  176.4650  145.8790 C   0  0  1  0  0  3  0  0  0  0  0  0
  192.3130  175.9710  143.4930 C   0  0  0  0  0  0  0  0  0  0  0  0
  192.7220  174.9760  141.2170 C   0  0  0  0  0  2  0  0  0  0  0  0
  192.6960  173.4540  141.2910 C   0  0  0  0  0  2  0  0  0  0  0  0
  193.2710  173.2250  144.3600 C   0  0  0  0  0  2  0  0  0  0  0  0
  187.9050  177.9020  144.5240 C   0  0  1  0  0  3  0  0  0  0  0  0
  186.3130  176.7000  141.9560 C   0  0  0  0  0  2  0  0  0  0  0  0
  191.1880  176.5500  143.1580 N   0  0  0  0  0  0  0  0  0  0  0  0
  192.3390  174.1190  145.1690 C   0  0  0  0  0  2  0  0  0  0  0  0
  188.8010  177.0630  143.5970 C   0  0  2  0  0  3  0  0  0  0  0  0
  185.8700  176.9700  145.2380 C   0  0  0  0  0  2  0  0  0  0  0  0
  192.6270  175.6090  144.9350 C   0  0  2  0  0  3  0  0  0  0  0  0
  192.4720  172.2580  143.4930 C   0  0  0  0  0  2  0  0  0  0  0  0
  185.8650  177.8300  142.8770 C   0  0  2  0  0  3  0  0  0  0  0  0
  190.3130  176.3870  145.4430 C   0  0  2  0  0  3  0  0  0  0  0  0
  193.2080  175.5230  142.4750 N   0  0  0  0  0  2  0  0  0  0  0  0
  190.2290  177.1190  144.1180 C   0  0  1  0  0  3  0  0  0  0  0  0
  191.1450  177.1760  148.1360 C   0  0  0  0  0  3  0  0  0  0  0  0
  187.6790  176.9560  141.3050 C   0  0  0  0  0  2  0  0  0  0  0  0
  191.9520  176.1660  147.3650 C   0  0  0  0  0  2  0  0  0  0  0  0
  188.7220  177.6510  142.1890 C   0  0  0  0  0  2  0  0  0  0  0  0
  186.4700  177.6130  144.2400 C   0  0  2  0  0  3  0  0  0  0  0  0
  189.9120  177.5140  147.7270 C   0  0  0  0  0  3  0  0  0  0  0  0
  188.0310  177.5740  146.0250 C   0  0  2  0  0  3  0  0  0  0  0  0
  184.3700  177.9150  142.9220 C   0  0  0  0  0  3  0  0  0  0  0  0
  183.6830  177.8580  141.8400 N   0  0  0  0  0  0  0  0  0  0  0  0
  180.7840  179.7920  142.0740 O   0  0  0  0  0  0  0  0  0  0  0  0
  181.7250  178.2870  140.5150 C   0  0  0  0  0  2  0  0  0  0  0  0
  182.2460  177.9400  141.8760 C   0  0  2  0  0  3  0  0  0  0  0  0
  181.0620  179.6300  140.7100 C   0  0  0  0  0  2  0  0  0  0  0  0
  181.8090  179.1060  142.7400 C   0  0  0  0  0  2  0  0  0  0  0  0
  1 26  1  1  0  0  0
  3 16  1  0  0  0  0
  4 23  1  1  0  0  0
  5 15  1  0  0  0  0
  6  7  1  0  0  0  0
  6 19  1  0  0  0  0
  7  3  1  0  0  0  0
  8 12  1  0  0  0  0
  9 27  1  0  0  0  0
 10 17  1  0  0  0  0
 11  5  2  0  0  0  0
 11 20  1  0  0  0  0
 13 20  1  0  0  0  0
 13  9  1  0  0  0  0
 14  2  1  0  0  0  0
 15 12  1  0  0  0  0
 15  4  1  0  0  0  0
 16  8  1  0  0  0  0
 17 28  1  0  0  0  0
 17 25  1  0  0  0  0
 18  4  1  0  0  0  0
 18  1  1  0  0  0  0
 19  5  1  0  0  0  0
 20 18  1  0  0  0  0
 22 10  1  0  0  0  0
 22 24  1  0  0  0  0
 23 21  1  0  0  0  0
 24 13  1  0  0  0  0
 25  9  1  0  0  0  0
 25 14  1  0  0  0  0
 26 21  2  0  0  0  0
 27  2  1  0  0  0  0
 27  1  1  0  0  0  0
 29 32  1  0  0  0  0
 29 28  2  0  0  0  0
 30 34  1  0  0  0  0
 31 33  1  0  0  0  0
 31 32  1  0  0  0  0
 32 34  1  0  0  0  0
 33 30  1  0  0  0  0
M  END
>  <MODEL>
5

>  <REMARK>
 VINA RESULT:      -8.2      3.258      6.067
  Name = 
  2 active torsions:
  status: ('A' for Active; 'I' for Inactive)
    1  A    between atoms: C_17  and  C_28
    2  A    between atoms: N_29  and  C_32
                            x       y       z     vdW  Elec       q    Type
                         _______ _______ _______ _____ _____    ______ ____

>  <TORSDO>
F 2

$$$$
=
 OpenBabel11112417563D

 34 40  0  0  1  0  0  0  0  0999 V2000
  190.6700  172.6910  142.1510 C   0  0  1  0  0  3  0  0  0  0  0  0
  188.5530  173.9790  141.6810 C   0  0  0  0  0  2  0  0  0  0  0  0
  195.5940  176.3390  141.3010 C   0  0  0  0  0  2  0  0  0  0  0  0
  193.1740  172.2000  142.5710 C   0  0  1  0  0  3  0  0  0  0  0  0
  194.6070  174.0580  143.4160 C   0  0  0  0  0  0  0  0  0  0  0  0
  196.0810  176.0700  143.7560 C   0  0  0  0  0  2  0  0  0  0  0  0
  196.6030  176.5780  142.4170 C   0  0  0  0  0  2  0  0  0  0  0  0
  196.1790  173.9160  140.8240 C   0  0  0  0  0  2  0  0  0  0  0  0
  189.7230  174.5630  143.7560 C   0  0  1  0  0  3  0  0  0  0  0  0
  189.6360  177.8130  143.6980 C   0  0  0  0  0  2  0  0  0  0  0  0
  193.5250  174.6390  143.8690 N   0  0  0  0  0  0  0  0  0  0  0  0
  194.7710  173.3690  141.0200 C   0  0  0  0  0  2  0  0  0  0  0  0
  191.1190  175.2030  143.6570 C   0  0  2  0  0  3  0  0  0  0  0  0
  188.0720  175.2690  142.2420 C   0  0  0  0  0  2  0  0  0  0  0  0
  194.5400  172.8810  142.4580 C   0  0  2  0  0  3  0  0  0  0  0  0
  196.1320  175.3400  140.2780 C   0  0  0  0  0  2  0  0  0  0  0  0
  188.5220  176.8640  144.1300 C   0  0  2  0  0  3  0  0  0  0  0  0
  192.0760  173.2580  142.4510 C   0  0  2  0  0  3  0  0  0  0  0  0
  195.8850  174.6300  143.6950 N   0  0  0  0  0  2  0  0  0  0  0  0
  192.1650  174.1000  143.7090 C   0  0  1  0  0  3  0  0  0  0  0  0
  191.6180  170.4100  141.9570 C   0  0  0  0  0  3  0  0  0  0  0  0
  190.9390  177.6120  144.4840 C   0  0  0  0  0  2  0  0  0  0  0  0
  192.9480  171.0270  141.6200 C   0  0  0  0  0  2  0  0  0  0  0  0
  191.2940  176.1620  144.8340 C   0  0  0  0  0  2  0  0  0  0  0  0
  188.6800  175.5620  143.3870 C   0  0  2  0  0  3  0  0  0  0  0  0
  190.5570  171.1890  142.2210 C   0  0  0  0  0  3  0  0  0  0  0  0
  189.4620  173.4120  142.7640 C   0  0  2  0  0  3  0  0  0  0  0  0
  187.1790  177.4900  143.9090 C   0  0  0  0  0  3  0  0  0  0  0  0
  187.0500  178.4890  143.1150 N   0  0  0  0  0  0  0  0  0  0  0  0
  183.5750  178.3710  143.4480 O   0  0  0  0  0  0  0  0  0  0  0  0
  185.3210  179.8030  144.1440 C   0  0  0  0  0  2  0  0  0  0  0  0
  185.7620  179.0950  142.8990 C   0  0  2  0  0  3  0  0  0  0  0  0
  184.0720  179.0630  144.5620 C   0  0  0  0  0  2  0  0  0  0  0  0
  184.7070  178.0260  142.6970 C   0  0  0  0  0  2  0  0  0  0  0  0
  1 26  1  1  0  0  0
  1 18  1  0  0  0  0
  1 27  1  0  0  0  0
  2 14  1  0  0  0  0
  2 27  1  0  0  0  0
  3  7  1  0  0  0  0
  4 23  1  6  0  0  0
  5 19  1  0  0  0  0
  5 11  2  0  0  0  0
  7  6  1  0  0  0  0
  8 12  1  0  0  0  0
 10 17  1  0  0  0  0
 10 22  1  0  0  0  0
 12 15  1  0  0  0  0
 13 20  1  0  0  0  0
 13  9  1  0  0  0  0
 13 24  1  0  0  0  0
 14 25  1  0  0  0  0
 15  4  1  0  0  0  0
 15  5  1  0  0  0  0
 16  8  1  0  0  0  0
 16  3  1  0  0  0  0
 18  4  1  0  0  0  0
 18 20  1  0  0  0  0
 19  6  1  0  0  0  0
 20 11  1  0  0  0  0
 21 26  2  0  0  0  0
 22 24  1  0  0  0  0
 23 21  1  0  0  0  0
 25  9  1  0  0  0  0
 25 17  1  0  0  0  0
 27  9  1  0  0  0  0
 28 17  1  0  0  0  0
 29 28  2  0  0  0  0
 30 33  1  0  0  0  0
 31 33  1  0  0  0  0
 32 29  1  0  0  0  0
 32 31  1  0  0  0  0
 34 32  1  0  0  0  0
 34 30  1  0  0  0  0
M  END
>  <MODEL>
6

>  <REMARK>
 VINA RESULT:      -8.1      2.942      5.161
  Name = 
  2 active torsions:
  status: ('A' for Active; 'I' for Inactive)
    1  A    between atoms: C_17  and  C_28
    2  A    between atoms: N_29  and  C_32
                            x       y       z     vdW  Elec       q    Type
                         _______ _______ _______ _____ _____    ______ ____

>  <TORSDO>
F 2

$$$$
=
 OpenBabel11112417563D

 34 40  0  0  1  0  0  0  0  0999 V2000
  187.3450  177.0800  145.2260 C   0  0  1  0  0  3  0  0  0  0  0  0
  184.9600  177.6530  144.6430 C   0  0  0  0  0  2  0  0  0  0  0  0
  189.3130  172.3920  141.7010 C   0  0  0  0  0  2  0  0  0  0  0  0
  189.6910  176.0020  145.0810 C   0  0  1  0  0  3  0  0  0  0  0  0
  190.4820  175.2130  142.8510 C   0  0  0  0  0  0  0  0  0  0  0  0
  190.9980  173.9830  140.7160 C   0  0  0  0  0  2  0  0  0  0  0  0
  190.5480  172.5300  140.8190 C   0  0  0  0  0  2  0  0  0  0  0  0
  190.4940  172.3830  143.9460 C   0  0  0  0  0  2  0  0  0  0  0  0
  186.6520  178.3000  142.9890 C   0  0  1  0  0  3  0  0  0  0  0  0
  185.2680  177.3720  140.1960 C   0  0  0  0  0  2  0  0  0  0  0  0
  189.6330  176.0400  142.2970 N   0  0  0  0  0  0  0  0  0  0  0  0
  189.7130  173.5460  144.5440 C   0  0  0  0  0  2  0  0  0  0  0  0
  187.4350  177.1900  142.2670 C   0  0  2  0  0  3  0  0  0  0  0  0
  184.3480  177.9880  143.3290 C   0  0  0  0  0  2  0  0  0  0  0  0
  190.4290  174.8870  144.3340 C   0  0  2  0  0  3  0  0  0  0  0  0
  189.6270  171.5970  142.9670 C   0  0  0  0  0  2  0  0  0  0  0  0
  184.9900  178.6450  140.9900 C   0  0  2  0  0  3  0  0  0  0  0  0
  188.3600  176.2790  144.3800 C   0  0  2  0  0  3  0  0  0  0  0  0
  191.3860  174.4730  142.0290 N   0  0  0  0  0  2  0  0  0  0  0  0
  188.7110  176.9080  143.0450 C   0  0  1  0  0  3  0  0  0  0  0  0
  188.8910  177.0160  147.1620 C   0  0  0  0  0  3  0  0  0  0  0  0
  186.7450  177.2140  139.8080 C   0  0  0  0  0  2  0  0  0  0  0  0
  189.5160  175.7780  146.5810 C   0  0  0  0  0  2  0  0  0  0  0  0
  187.7660  177.6740  140.8560 C   0  0  0  0  0  2  0  0  0  0  0  0
  185.2650  178.3770  142.4480 C   0  0  2  0  0  3  0  0  0  0  0  0
  187.8870  177.6350  146.5200 C   0  0  0  0  0  3  0  0  0  0  0  0
  186.4200  178.0610  144.4940 C   0  0  2  0  0  3  0  0  0  0  0  0
  183.5900  179.1210  140.7510 C   0  0  0  0  0  3  0  0  0  0  0  0
  182.5890  178.3750  141.0480 N   0  0  0  0  0  0  0  0  0  0  0  0
  179.2080  177.6400  140.5740 O   0  0  0  0  0  0  0  0  0  0  0  0
  180.4980  178.8760  142.1200 C   0  0  0  0  0  2  0  0  0  0  0  0
  181.2410  178.8270  140.8200 C   0  0  2  0  0  3  0  0  0  0  0  0
  179.3930  177.8610  141.9460 C   0  0  0  0  0  2  0  0  0  0  0  0
  180.4770  177.8070  140.0020 C   0  0  0  0  0  2  0  0  0  0  0  0
  1 26  1  1  0  0  0
  3 16  1  0  0  0  0
  4 23  1  1  0  0  0
  5 15  1  0  0  0  0
  6  7  1  0  0  0  0
  6 19  1  0  0  0  0
  7  3  1  0  0  0  0
  8 12  1  0  0  0  0
  9 27  1  0  0  0  0
 10 17  1  0  0  0  0
 11  5  2  0  0  0  0
 11 20  1  0  0  0  0
 13  9  1  0  0  0  0
 13 20  1  0  0  0  0
 14  2  1  0  0  0  0
 15 12  1  0  0  0  0
 15  4  1  0  0  0  0
 16  8  1  0  0  0  0
 17 25  1  0  0  0  0
 18  4  1  0  0  0  0
 18  1  1  0  0  0  0
 19  5  1  0  0  0  0
 20 18  1  0  0  0  0
 22 10  1  0  0  0  0
 22 24  1  0  0  0  0
 23 21  1  0  0  0  0
 24 13  1  0  0  0  0
 25  9  1  0  0  0  0
 25 14  1  0  0  0  0
 26 21  2  0  0  0  0
 27  2  1  0  0  0  0
 27  1  1  0  0  0  0
 28 17  1  0  0  0  0
 28 29  2  0  0  0  0
 30 33  1  0  0  0  0
 32 29  1  0  0  0  0
 32 31  1  0  0  0  0
 33 31  1  0  0  0  0
 34 30  1  0  0  0  0
 34 32  1  0  0  0  0
M  END
>  <MODEL>
7

>  <REMARK>
 VINA RESULT:      -7.7      4.490      7.433
  Name = 
  2 active torsions:
  status: ('A' for Active; 'I' for Inactive)
    1  A    between atoms: C_17  and  C_28
    2  A    between atoms: N_29  and  C_32
                            x       y       z     vdW  Elec       q    Type
                         _______ _______ _______ _____ _____    ______ ____

>  <TORSDO>
F 2

$$$$
=
 OpenBabel11112417563D

 34 40  0  0  1  0  0  0  0  0999 V2000
  192.6090  175.7930  145.3860 C   0  0  1  0  0  3  0  0  0  0  0  0
  190.2240  176.4780  145.8360 C   0  0  0  0  0  2  0  0  0  0  0  0
  192.8340  169.8020  143.8580 C   0  0  0  0  0  2  0  0  0  0  0  0
  194.6250  174.3620  144.6280 C   0  0  1  0  0  3  0  0  0  0  0  0
  194.2290  172.5960  142.9130 C   0  0  0  0  0  0  0  0  0  0  0  0
  193.6750  170.5220  141.5980 C   0  0  0  0  0  2  0  0  0  0  0  0
  193.4390  169.3450  142.5370 C   0  0  0  0  0  2  0  0  0  0  0  0
  194.9860  170.5190  144.9930 C   0  0  0  0  0  2  0  0  0  0  0  0
  190.7980  176.0760  143.4850 C   0  0  1  0  0  3  0  0  0  0  0  0
  188.2570  174.3300  142.4510 C   0  0  0  0  0  2  0  0  0  0  0  0
  193.1630  173.2520  142.5340 N   0  0  0  0  0  0  0  0  0  0  0  0
  194.5380  171.9420  145.3040 C   0  0  0  0  0  2  0  0  0  0  0  0
  191.1810  174.6490  143.0570 C   0  0  2  0  0  3  0  0  0  0  0  0
  189.0110  176.3380  144.9880 C   0  0  0  0  0  2  0  0  0  0  0  0
  194.9570  172.9280  144.2050 C   0  0  2  0  0  3  0  0  0  0  0  0
  193.7980  169.5620  145.0180 C   0  0  0  0  0  2  0  0  0  0  0  0
  188.3330  175.8440  142.6190 C   0  0  2  0  0  3  0  0  0  0  0  0
  193.1070  174.5500  144.6150 C   0  0  2  0  0  3  0  0  0  0  0  0
  194.6410  171.4370  142.1860 N   0  0  0  0  0  2  0  0  0  0  0  0
  192.6910  174.4980  143.1570 C   0  0  1  0  0  3  0  0  0  0  0  0
  194.9220  176.2700  146.1360 C   0  0  0  0  0  3  0  0  0  0  0  0
  189.3410  173.7710  141.5180 C   0  0  0  0  0  2  0  0  0  0  0  0
  195.2490  174.8140  145.9460 C   0  0  0  0  0  2  0  0  0  0  0  0
  190.7180  174.4390  141.6150 C   0  0  0  0  0  2  0  0  0  0  0  0
  189.3260  176.1610  143.7080 C   0  0  2  0  0  3  0  0  0  0  0  0
  193.6920  176.7310  145.8590 C   0  0  0  0  0  3  0  0  0  0  0  0
  191.3760  176.5270  144.8410 C   0  0  2  0  0  3  0  0  0  0  0  0
  186.9760  176.4140  142.8990 C   0  0  0  0  0  3  0  0  0  0  0  0
  186.8000  177.6840  142.9420 N   0  0  0  0  0  0  0  0  0  0  0  0
  184.2970  178.5110  145.2320 O   0  0  0  0  0  0  0  0  0  0  0  0
  185.6380  179.6590  143.6620 C   0  0  0  0  0  2  0  0  0  0  0  0
  185.4990  178.2370  143.2110 C   0  0  2  0  0  3  0  0  0  0  0  0
  185.1030  179.6470  145.0750 C   0  0  0  0  0  2  0  0  0  0  0  0
  184.8670  177.5400  144.3980 C   0  0  0  0  0  2  0  0  0  0  0  0
  1 26  1  6  0  0  0
  3 16  1  0  0  0  0
  4 23  1  1  0  0  0
  5 15  1  0  0  0  0
  6 19  1  0  0  0  0
  6  7  1  0  0  0  0
  7  3  1  0  0  0  0
  8 16  1  0  0  0  0
  8 12  1  0  0  0  0
  9 25  1  0  0  0  0
  9 27  1  0  0  0  0
 10 17  1  0  0  0  0
 11  5  2  0  0  0  0
 11 20  1  0  0  0  0
 13 20  1  0  0  0  0
 13  9  1  0  0  0  0
 14  2  1  0  0  0  0
 15  4  1  0  0  0  0
 15 12  1  0  0  0  0
 17 28  1  0  0  0  0
 17 25  1  0  0  0  0
 18  4  1  0  0  0  0
 18  1  1  0  0  0  0
 19  5  1  0  0  0  0
 20 18  1  0  0  0  0
 22 24  1  0  0  0  0
 22 10  1  0  0  0  0
 23 21  1  0  0  0  0
 24 13  1  0  0  0  0
 25 14  1  0  0  0  0
 26 21  2  0  0  0  0
 27  1  1  0  0  0  0
 27  2  1  0  0  0  0
 28 29  2  0  0  0  0
 29 32  1  0  0  0  0
 31 33  1  0  0  0  0
 32 31  1  0  0  0  0
 32 34  1  0  0  0  0
 33 30  1  0  0  0  0
 34 30  1  0  0  0  0
M  END
>  <MODEL>
8

>  <REMARK>
 VINA RESULT:      -7.6      1.904      2.777
  Name = 
  2 active torsions:
  status: ('A' for Active; 'I' for Inactive)
    1  A    between atoms: C_17  and  C_28
    2  A    between atoms: N_29  and  C_32
                            x       y       z     vdW  Elec       q    Type
                         _______ _______ _______ _____ _____    ______ ____

>  <TORSDO>
F 2

$$$$
=
 OpenBabel11112417563D

 34 40  0  0  1  0  0  0  0  0999 V2000
  191.9660  172.1980  143.7460 C   0  0  1  0  0  3  0  0  0  0  0  0
  189.6130  172.9360  143.2180 C   0  0  0  0  0  2  0  0  0  0  0  0
  196.0290  176.0930  141.1760 C   0  0  0  0  0  2  0  0  0  0  0  0
  194.5450  172.2490  143.9370 C   0  0  1  0  0  3  0  0  0  0  0  0
  195.6720  174.4730  143.9860 C   0  0  0  0  0  0  0  0  0  0  0  0
  196.7680  176.6890  143.5070 C   0  0  0  0  0  2  0  0  0  0  0  0
  197.0680  176.8210  142.0190 C   0  0  0  0  0  2  0  0  0  0  0  0
  197.0130  173.7610  141.3590 C   0  0  0  0  0  2  0  0  0  0  0  0
  190.8290  174.3150  144.8420 C   0  0  1  0  0  3  0  0  0  0  0  0
  190.1300  177.3280  143.8400 C   0  0  0  0  0  2  0  0  0  0  0  0
  194.5440  174.9970  144.3950 N   0  0  0  0  0  0  0  0  0  0  0  0
  195.7550  173.0970  141.9030 C   0  0  0  0  0  2  0  0  0  0  0  0
  192.0660  175.0940  144.3640 C   0  0  2  0  0  3  0  0  0  0  0  0
  188.9490  174.2490  143.4340 C   0  0  0  0  0  2  0  0  0  0  0  0
  195.7450  173.0580  143.4380 C   0  0  2  0  0  3  0  0  0  0  0  0
  196.6540  174.9160  140.4290 C   0  0  0  0  0  2  0  0  0  0  0  0
  189.2550  176.4070  144.6840 C   0  0  2  0  0  3  0  0  0  0  0  0
  193.2620  173.0370  143.6660 C   0  0  2  0  0  3  0  0  0  0  0  0
  196.8410  175.2900  143.9020 N   0  0  0  0  0  2  0  0  0  0  0  0
  193.3010  174.2360  144.5930 C   0  0  1  0  0  3  0  0  0  0  0  0
  193.3040  170.1440  144.1040 C   0  0  0  0  0  3  0  0  0  0  0  0
  191.5100  177.5850  144.4600 C   0  0  0  0  0  2  0  0  0  0  0  0
  194.4610  170.8170  143.4170 C   0  0  0  0  0  2  0  0  0  0  0  0
  192.1590  176.3900  145.1690 C   0  0  0  0  0  2  0  0  0  0  0  0
  189.5890  174.9770  144.3450 C   0  0  2  0  0  3  0  0  0  0  0  0
  192.1430  170.7950  144.2720 C   0  0  0  0  0  3  0  0  0  0  0  0
  190.7020  172.8840  144.2820 C   0  0  2  0  0  3  0  0  0  0  0  0
  187.8040  176.7200  144.4790 C   0  0  0  0  0  3  0  0  0  0  0  0
  187.4380  177.5280  143.5520 N   0  0  0  0  0  0  0  0  0  0  0  0
  184.3890  178.6560  144.8270 O   0  0  0  0  0  0  0  0  0  0  0  0
  185.8800  179.3030  143.1130 C   0  0  0  0  0  2  0  0  0  0  0  0
  186.0460  177.8330  143.3500 C   0  0  2  0  0  3  0  0  0  0  0  0
  185.0440  179.7690  144.2810 C   0  0  0  0  0  2  0  0  0  0  0  0
  185.2640  177.5800  144.6220 C   0  0  0  0  0  2  0  0  0  0  0  0
  1 26  1  1  0  0  0
  1 27  1  0  0  0  0
  2 14  1  0  0  0  0
  2 27  1  0  0  0  0
  3  7  1  0  0  0  0
  4 23  1  6  0  0  0
  5 11  2  0  0  0  0
  6 19  1  0  0  0  0
  7  6  1  0  0  0  0
  8 12  1  0  0  0  0
 10 22  1  0  0  0  0
 10 17  1  0  0  0  0
 11 20  1  0  0  0  0
 12 15  1  0  0  0  0
 13 20  1  0  0  0  0
 13  9  1  0  0  0  0
 13 24  1  0  0  0  0
 14 25  1  0  0  0  0
 15  4  1  0  0  0  0
 15  5  1  0  0  0  0
 16  3  1  0  0  0  0
 16  8  1  0  0  0  0
 18  1  1  0  0  0  0
 18  4  1  0  0  0  0
 18 20  1  0  0  0  0
 19  5  1  0  0  0  0
 21 26  2  0  0  0  0
 22 24  1  0  0  0  0
 23 21  1  0  0  0  0
 25 17  1  0  0  0  0
 25  9  1  0  0  0  0
 27  9  1  0  0  0  0
 28 17  1  0  0  0  0
 29 28  2  0  0  0  0
 31 32  1  0  0  0  0
 31 33  1  0  0  0  0
 32 29  1  0  0  0  0
 32 34  1  0  0  0  0
 33 30  1  0  0  0  0
 34 30  1  0  0  0  0
M  END
>  <MODEL>
9

>  <REMARK>
 VINA RESULT:      -7.5      2.114      4.751
  Name = 
  2 active torsions:
  status: ('A' for Active; 'I' for Inactive)
    1  A    between atoms: C_17  and  C_28
    2  A    between atoms: N_29  and  C_32
                            x       y       z     vdW  Elec       q    Type
                         _______ _______ _______ _____ _____    ______ ____

>  <TORSDO>
F 2

$$$$
