=
 OpenBabel11112417393D

 28 32  0  0  1  0  0  0  0  0999 V2000
  190.5290  175.7110  144.7540 C   0  0  0  0  0  0  0  0  0  0  0  0
  185.6070  176.2740  145.7750 F   0  0  0  0  0  0  0  0  0  0  0  0
  189.0870  174.9160  140.5040 O   0  0  0  0  0  0  0  0  0  0  0  0
  191.3850  178.1580  143.6990 C   0  0  0  0  0  3  0  0  0  0  0  0
  187.3540  176.3200  141.3670 C   0  0  0  0  0  0  0  0  0  0  0  0
  190.0850  174.4750  145.2260 O   0  0  0  0  0  0  0  0  0  0  0  0
  186.5970  177.9610  147.0910 C   0  0  0  0  0  1  0  0  0  0  0  0
  186.0980  177.5690  145.7140 C   0  0  1  0  0  0  0  0  0  0  0  0
  184.6080  178.2540  143.8680 C   0  0  1  0  0  3  0  0  0  0  0  0
  187.2620  177.6860  144.7030 C   0  0  2  0  0  3  0  0  0  0  0  0
  191.0050  173.7600  142.3930 O   0  0  0  0  0  1  0  0  0  0  0  0
  187.4650  175.5030  143.6040 C   0  0  1  0  0  3  0  0  0  0  0  0
  185.6710  178.6680  143.0460 O   0  0  0  0  0  0  0  0  0  0  0  0
  184.9580  178.4980  145.3280 C   0  0  0  0  0  2  0  0  0  0  0  0
  190.1680  173.0450  143.2520 C   0  0  2  0  0  3  0  0  0  0  0  0
  189.5850  176.7100  144.4670 C   0  0  0  0  0  0  0  0  0  0  0  0
  188.3770  175.3170  141.4630 C   0  0  0  0  0  0  0  0  0  0  0  0
  183.3640  179.0410  143.5130 C   0  0  0  0  0  1  0  0  0  0  0  0
  188.6890  173.3500  142.9860 C   0  0  0  0  0  2  0  0  0  0  0  0
  190.0260  177.9300  143.9240 C   0  0  0  0  0  3  0  0  0  0  0  0
  191.8930  175.9430  144.5230 C   0  0  0  0  0  3  0  0  0  0  0  0
  192.3190  177.1660  144.0010 C   0  0  0  0  0  3  0  0  0  0  0  0
  190.5800  173.2450  144.7120 C   0  0  0  0  0  2  0  0  0  0  0  0
  186.6460  176.4280  142.6700 C   0  0  1  0  0  3  0  0  0  0  0  0
  188.4340  174.7760  142.7720 N   0  0  0  0  0  0  0  0  0  0  0  0
  186.7920  177.8260  143.2490 C   0  0  2  0  0  3  0  0  0  0  0  0
  187.0660  176.9680  140.3260 O   0  0  0  0  0  0  0  0  0  0  0  0
  188.1120  176.4150  144.6790 C   0  0  1  0  0  3  0  0  0  0  0  0
  1  6  1  0  0  0  0
  3 17  2  0  0  0  0
  4 20  2  0  0  0  0
  4 22  1  0  0  0  0
  5 17  1  0  0  0  0
  5 24  1  0  0  0  0
  8  2  1  0  0  0  0
  8  7  1  1  0  0  0
  9 18  1  6  0  0  0
  9 14  1  0  0  0  0
 10  8  1  0  0  0  0
 11 15  1  0  0  0  0
 12 28  1  0  0  0  0
 13 26  1  0  0  0  0
 13  9  1  0  0  0  0
 14  8  1  0  0  0  0
 15 23  1  0  0  0  0
 16 28  1  0  0  0  0
 16  1  2  0  0  0  0
 17 25  1  0  0  0  0
 19 15  1  0  0  0  0
 20 16  1  0  0  0  0
 21  1  1  0  0  0  0
 22 21  2  0  0  0  0
 23  6  1  0  0  0  0
 24 26  1  0  0  0  0
 24 12  1  0  0  0  0
 25 19  1  0  0  0  0
 25 12  1  0  0  0  0
 26 10  1  0  0  0  0
 27  5  2  0  0  0  0
 28 10  1  0  0  0  0
M  END
>  <MODEL>
1

>  <REMARK>
 VINA RESULT:      -8.4      0.000      0.000
  Name = 
  0 active torsions:
  status: ('A' for Active; 'I' for Inactive)
                            x       y       z     vdW  Elec       q    Type
                         _______ _______ _______ _____ _____    ______ ____

>  <TORSDO>
F 0

$$$$
=
 OpenBabel11112417393D

 28 32  0  0  1  0  0  0  0  0999 V2000
  191.1100  174.3150  143.0000 C   0  0  0  0  0  0  0  0  0  0  0  0
  187.9050  178.1300  143.8740 F   0  0  0  0  0  0  0  0  0  0  0  0
  193.1870  175.8020  146.7760 O   0  0  0  0  0  0  0  0  0  0  0  0
  190.2700  172.2080  144.6380 C   0  0  0  0  0  3  0  0  0  0  0  0
  190.9270  176.4940  147.1410 C   0  0  0  0  0  0  0  0  0  0  0  0
  191.5610  175.3870  142.2290 O   0  0  0  0  0  0  0  0  0  0  0  0
  186.4680  176.4180  143.1230 C   0  0  0  0  0  1  0  0  0  0  0  0
  187.2240  177.0010  144.3010 C   0  0  1  0  0  0  0  0  0  0  0  0
  186.9790  177.7920  146.6280 C   0  0  1  0  0  3  0  0  0  0  0  0
  188.1930  175.9320  144.8590 C   0  0  2  0  0  3  0  0  0  0  0  0
  193.9500  174.9180  144.0880 O   0  0  0  0  0  1  0  0  0  0  0  0
  190.4300  176.9360  144.8510 C   0  0  1  0  0  3  0  0  0  0  0  0
  187.5900  176.6490  147.1740 O   0  0  0  0  0  0  0  0  0  0  0  0
  186.2190  177.4180  145.3640 C   0  0  0  0  0  2  0  0  0  0  0  0
  193.6430  176.0410  143.3170 C   0  0  2  0  0  3  0  0  0  0  0  0
  190.0950  174.5350  143.9450 C   0  0  0  0  0  0  0  0  0  0  0  0
  192.0790  176.2030  146.3340 C   0  0  0  0  0  0  0  0  0  0  0  0
  186.0150  178.3760  147.6380 C   0  0  0  0  0  1  0  0  0  0  0  0
  192.8730  177.0910  144.1280 C   0  0  0  0  0  2  0  0  0  0  0  0
  189.6910  173.4720  144.7720 C   0  0  0  0  0  3  0  0  0  0  0  0
  191.6910  173.0450  142.8720 C   0  0  0  0  0  3  0  0  0  0  0  0
  191.2670  171.9930  143.6860 C   0  0  0  0  0  3  0  0  0  0  0  0
  192.9440  175.6400  142.0170 C   0  0  0  0  0  2  0  0  0  0  0  0
  189.8570  177.0690  146.2840 C   0  0  1  0  0  3  0  0  0  0  0  0
  191.8310  176.5040  144.9710 N   0  0  0  0  0  0  0  0  0  0  0  0
  188.6150  176.1920  146.3100 C   0  0  2  0  0  3  0  0  0  0  0  0
  190.8550  176.3350  148.3880 O   0  0  0  0  0  0  0  0  0  0  0  0
  189.5200  175.9300  144.0990 C   0  0  1  0  0  3  0  0  0  0  0  0
  1 16  1  0  0  0  0
  2  8  1  0  0  0  0
  4 20  1  0  0  0  0
  5 27  2  0  0  0  0
  6  1  1  0  0  0  0
  8  7  1  6  0  0  0
  8 10  1  0  0  0  0
  8 14  1  0  0  0  0
  9 13  1  0  0  0  0
  9 18  1  1  0  0  0
 10 26  1  0  0  0  0
 12 25  1  0  0  0  0
 12 24  1  0  0  0  0
 14  9  1  0  0  0  0
 15 11  1  0  0  0  0
 15 19  1  0  0  0  0
 16 28  1  0  0  0  0
 16 20  2  0  0  0  0
 17  3  2  0  0  0  0
 17  5  1  0  0  0  0
 19 25  1  0  0  0  0
 21  1  2  0  0  0  0
 21 22  1  0  0  0  0
 22  4  2  0  0  0  0
 23  6  1  0  0  0  0
 23 15  1  0  0  0  0
 24 26  1  0  0  0  0
 24  5  1  0  0  0  0
 25 17  1  0  0  0  0
 26 13  1  0  0  0  0
 28 12  1  0  0  0  0
 28 10  1  0  0  0  0
M  END
>  <MODEL>
2

>  <REMARK>
 VINA RESULT:      -8.2      2.427      4.642
  Name = 
  0 active torsions:
  status: ('A' for Active; 'I' for Inactive)
                            x       y       z     vdW  Elec       q    Type
                         _______ _______ _______ _____ _____    ______ ____

>  <TORSDO>
F 0

$$$$
=
 OpenBabel11112417393D

 28 32  0  0  1  0  0  0  0  0999 V2000
  189.3700  176.7880  145.1760 C   0  0  0  0  0  0  0  0  0  0  0  0
  194.3370  176.2850  144.3600 F   0  0  0  0  0  0  0  0  0  0  0  0
  189.0560  172.8900  142.8320 O   0  0  0  0  0  0  0  0  0  0  0  0
  188.7810  175.1720  147.3840 C   0  0  0  0  0  3  0  0  0  0  0  0
  191.2490  172.7340  143.7740 C   0  0  0  0  0  0  0  0  0  0  0  0
  189.6570  177.5450  144.0400 O   0  0  0  0  0  0  0  0  0  0  0  0
  194.2630  177.1090  146.5670 C   0  0  0  0  0  1  0  0  0  0  0  0
  194.1610  175.8870  145.6760 C   0  0  1  0  0  0  0  0  0  0  0  0
  195.0450  173.6110  145.3100 C   0  0  1  0  0  3  0  0  0  0  0  0
  192.7800  175.2230  145.8870 C   0  0  2  0  0  3  0  0  0  0  0  0
  187.6900  175.4800  142.9220 O   0  0  0  0  0  1  0  0  0  0  0  0
  191.7270  175.0680  143.6770 C   0  0  1  0  0  3  0  0  0  0  0  0
  193.8880  172.9860  145.8080 O   0  0  0  0  0  0  0  0  0  0  0  0
  195.2790  174.9240  146.0420 C   0  0  0  0  0  2  0  0  0  0  0  0
  188.5840  176.3030  142.2360 C   0  0  2  0  0  3  0  0  0  0  0  0
  190.3590  175.9370  145.6950 C   0  0  0  0  0  0  0  0  0  0  0  0
  190.1220  173.4340  143.2250 C   0  0  0  0  0  0  0  0  0  0  0  0
  196.2360  172.7010  145.5220 C   0  0  0  0  0  1  0  0  0  0  0  0
  189.9130  175.5870  141.9590 C   0  0  0  0  0  2  0  0  0  0  0  0
  190.0470  175.1200  146.7960 C   0  0  0  0  0  3  0  0  0  0  0  0
  188.0990  176.8340  145.7670 C   0  0  0  0  0  3  0  0  0  0  0  0
  187.8080  176.0310  146.8720 C   0  0  0  0  0  3  0  0  0  0  0  0
  188.7520  177.6470  142.9470 C   0  0  0  0  0  2  0  0  0  0  0  0
  192.3640  173.6920  143.9950 C   0  0  1  0  0  3  0  0  0  0  0  0
  190.3940  174.8200  143.1080 N   0  0  0  0  0  0  0  0  0  0  0  0
  192.7440  173.7480  145.4660 C   0  0  2  0  0  3  0  0  0  0  0  0
  191.3030  171.4940  143.9850 O   0  0  0  0  0  0  0  0  0  0  0  0
  191.7090  175.8680  145.0060 C   0  0  1  0  0  3  0  0  0  0  0  0
  1 16  2  0  0  0  0
  1 21  1  0  0  0  0
  2  8  1  0  0  0  0
  3 17  2  0  0  0  0
  5 27  2  0  0  0  0
  5 24  1  0  0  0  0
  6  1  1  0  0  0  0
  8 10  1  0  0  0  0
  8 14  1  0  0  0  0
  8  7  1  1  0  0  0
  9 18  1  1  0  0  0
  9 13  1  0  0  0  0
  9 14  1  0  0  0  0
 12 24  1  0  0  0  0
 12 28  1  0  0  0  0
 15 11  1  0  0  0  0
 15 23  1  0  0  0  0
 16 20  1  0  0  0  0
 17  5  1  0  0  0  0
 19 15  1  0  0  0  0
 19 25  1  0  0  0  0
 20  4  2  0  0  0  0
 21 22  2  0  0  0  0
 22  4  1  0  0  0  0
 23  6  1  0  0  0  0
 24 26  1  0  0  0  0
 25 17  1  0  0  0  0
 25 12  1  0  0  0  0
 26 13  1  0  0  0  0
 26 10  1  0  0  0  0
 28 16  1  0  0  0  0
 28 10  1  0  0  0  0
M  END
>  <MODEL>
3

>  <REMARK>
 VINA RESULT:      -8.1      3.011      6.635
  Name = 
  0 active torsions:
  status: ('A' for Active; 'I' for Inactive)
                            x       y       z     vdW  Elec       q    Type
                         _______ _______ _______ _____ _____    ______ ____

>  <TORSDO>
F 0

$$$$
=
 OpenBabel11112417393D

 28 32  0  0  1  0  0  0  0  0999 V2000
  190.8200  174.8470  142.4840 C   0  0  0  0  0  0  0  0  0  0  0  0
  187.7820  178.8720  142.0940 F   0  0  0  0  0  0  0  0  0  0  0  0
  190.3720  175.5170  146.9710 O   0  0  0  0  0  0  0  0  0  0  0  0
  189.1430  172.6520  142.9350 C   0  0  0  0  0  3  0  0  0  0  0  0
  188.3300  176.4290  146.1200 C   0  0  0  0  0  0  0  0  0  0  0  0
  191.6560  175.9510  142.3180 O   0  0  0  0  0  0  0  0  0  0  0  0
  187.0040  177.4760  140.3610 C   0  0  0  0  0  1  0  0  0  0  0  0
  186.9540  177.7890  141.8430 C   0  0  1  0  0  0  0  0  0  0  0  0
  185.4300  178.2710  143.7260 C   0  0  1  0  0  3  0  0  0  0  0  0
  187.4010  176.5400  142.6380 C   0  0  2  0  0  3  0  0  0  0  0  0
  192.5250  174.9300  145.0720 O   0  0  0  0  0  1  0  0  0  0  0  0
  189.2550  177.2460  144.0800 C   0  0  1  0  0  3  0  0  0  0  0  0
  185.5890  176.9950  144.2960 O   0  0  0  0  0  0  0  0  0  0  0  0
  185.5310  178.1760  142.2100 C   0  0  0  0  0  2  0  0  0  0  0  0
  192.7440  176.1800  144.4890 C   0  0  2  0  0  3  0  0  0  0  0  0
  189.4510  175.0570  142.7140 C   0  0  0  0  0  0  0  0  0  0  0  0
  189.7300  176.1120  146.0650 C   0  0  0  0  0  0  0  0  0  0  0  0
  184.0730  178.8230  144.1040 C   0  0  0  0  0  1  0  0  0  0  0  0
  191.6700  177.1940  144.9030 C   0  0  0  0  0  2  0  0  0  0  0  0
  188.6210  173.9480  142.9540 C   0  0  0  0  0  3  0  0  0  0  0  0
  191.3400  173.5440  142.4700 C   0  0  0  0  0  3  0  0  0  0  0  0
  190.5020  172.4500  142.6910 C   0  0  0  0  0  3  0  0  0  0  0  0
  192.9140  176.0560  142.9730 C   0  0  0  0  0  2  0  0  0  0  0  0
  187.9630  177.2480  144.9360 C   0  0  1  0  0  3  0  0  0  0  0  0
  190.3200  176.6300  144.8850 N   0  0  0  0  0  0  0  0  0  0  0  0
  186.9150  176.5390  144.0930 C   0  0  2  0  0  3  0  0  0  0  0  0
  187.5490  176.1070  147.0540 O   0  0  0  0  0  0  0  0  0  0  0  0
  188.9230  176.4780  142.7740 C   0  0  1  0  0  3  0  0  0  0  0  0
  1 16  1  0  0  0  0
  4 20  1  0  0  0  0
  5 27  2  0  0  0  0
  6  1  1  0  0  0  0
  6 23  1  0  0  0  0
  8  7  1  6  0  0  0
  8  2  1  0  0  0  0
  8 14  1  0  0  0  0
  8 10  1  0  0  0  0
  9 18  1  6  0  0  0
  9 13  1  0  0  0  0
 10 28  1  0  0  0  0
 10 26  1  0  0  0  0
 12 25  1  0  0  0  0
 12 24  1  0  0  0  0
 14  9  1  0  0  0  0
 15 19  1  0  0  0  0
 15 11  1  0  0  0  0
 16 28  1  0  0  0  0
 16 20  2  0  0  0  0
 17  5  1  0  0  0  0
 17  3  2  0  0  0  0
 21  1  2  0  0  0  0
 21 22  1  0  0  0  0
 22  4  2  0  0  0  0
 23 15  1  0  0  0  0
 24  5  1  0  0  0  0
 25 19  1  0  0  0  0
 25 17  1  0  0  0  0
 26 13  1  0  0  0  0
 26 24  1  0  0  0  0
 28 12  1  0  0  0  0
M  END
>  <MODEL>
4

>  <REMARK>
 VINA RESULT:      -8.1      2.056      4.085
  Name = 
  0 active torsions:
  status: ('A' for Active; 'I' for Inactive)
                            x       y       z     vdW  Elec       q    Type
                         _______ _______ _______ _____ _____    ______ ____

>  <TORSDO>
F 0

$$$$
=
 OpenBabel11112417393D

 28 32  0  0  1  0  0  0  0  0999 V2000
  188.4810  177.2220  144.5610 C   0  0  0  0  0  0  0  0  0  0  0  0
  193.1560  176.3290  142.8500 F   0  0  0  0  0  0  0  0  0  0  0  0
  187.4410  173.3520  142.3880 O   0  0  0  0  0  0  0  0  0  0  0  0
  188.1910  175.6660  146.8690 C   0  0  0  0  0  3  0  0  0  0  0  0
  189.7530  173.0290  142.9100 C   0  0  0  0  0  0  0  0  0  0  0  0
  188.6080  177.9500  143.3780 O   0  0  0  0  0  0  0  0  0  0  0  0
  193.5570  177.1650  145.0170 C   0  0  0  0  0  1  0  0  0  0  0  0
  193.1980  175.9520  144.1830 C   0  0  1  0  0  0  0  0  0  0  0  0
  193.8240  173.6120  143.7020 C   0  0  1  0  0  3  0  0  0  0  0  0
  191.8340  175.3980  144.6580 C   0  0  2  0  0  3  0  0  0  0  0  0
  186.3160  176.0410  142.6820 O   0  0  0  0  0  1  0  0  0  0  0  0
  190.3800  175.3170  142.6840 C   0  0  1  0  0  3  0  0  0  0  0  0
  192.7350  173.0810  144.4160 O   0  0  0  0  0  0  0  0  0  0  0  0
  194.2880  174.9060  144.3530 C   0  0  0  0  0  2  0  0  0  0  0  0
  187.1280  176.7880  141.8260 C   0  0  2  0  0  3  0  0  0  0  0  0
  189.4810  176.2990  144.9040 C   0  0  0  0  0  0  0  0  0  0  0  0
  188.6000  173.8120  142.5670 C   0  0  0  0  0  0  0  0  0  0  0  0
  194.9610  172.6120  143.7050 C   0  0  0  0  0  1  0  0  0  0  0  0
  188.3240  175.9700  141.3210 C   0  0  0  0  0  2  0  0  0  0  0  0
  189.3180  175.5120  146.0580 C   0  0  0  0  0  3  0  0  0  0  0  0
  187.3490  177.3690  145.3760 C   0  0  0  0  0  3  0  0  0  0  0  0
  187.2080  176.5960  146.5300 C   0  0  0  0  0  3  0  0  0  0  0  0
  187.5270  178.1180  142.4700 C   0  0  0  0  0  2  0  0  0  0  0  0
  190.9590  173.8970  142.9040 C   0  0  1  0  0  3  0  0  0  0  0  0
  188.9500  175.1720  142.3760 N   0  0  0  0  0  0  0  0  0  0  0  0
  191.6090  173.9290  144.2770 C   0  0  2  0  0  3  0  0  0  0  0  0
  189.7500  171.7890  143.1300 O   0  0  0  0  0  0  0  0  0  0  0  0
  190.6710  176.1220  143.9780 C   0  0  1  0  0  3  0  0  0  0  0  0
  1 16  2  0  0  0  0
  1 21  1  0  0  0  0
  2  8  1  0  0  0  0
  3 17  2  0  0  0  0
  5 27  2  0  0  0  0
  6  1  1  0  0  0  0
  8 14  1  0  0  0  0
  8 10  1  0  0  0  0
  8  7  1  1  0  0  0
  9 18  1  1  0  0  0
  9 14  1  0  0  0  0
  9 13  1  0  0  0  0
 12 24  1  0  0  0  0
 12 28  1  0  0  0  0
 15 23  1  0  0  0  0
 15 11  1  0  0  0  0
 16 20  1  0  0  0  0
 17  5  1  0  0  0  0
 19 15  1  0  0  0  0
 19 25  1  0  0  0  0
 20  4  2  0  0  0  0
 21 22  2  0  0  0  0
 22  4  1  0  0  0  0
 23  6  1  0  0  0  0
 24  5  1  0  0  0  0
 24 26  1  0  0  0  0
 25 17  1  0  0  0  0
 25 12  1  0  0  0  0
 26 13  1  0  0  0  0
 26 10  1  0  0  0  0
 28 10  1  0  0  0  0
 28 16  1  0  0  0  0
M  END
>  <MODEL>
5

>  <REMARK>
 VINA RESULT:      -7.6      2.469      6.094
  Name = 
  0 active torsions:
  status: ('A' for Active; 'I' for Inactive)
                            x       y       z     vdW  Elec       q    Type
                         _______ _______ _______ _____ _____    ______ ____

>  <TORSDO>
F 0

$$$$
=
 OpenBabel11112417393D

 28 32  0  0  1  0  0  0  0  0999 V2000
  191.8740  174.3710  144.0770 C   0  0  0  0  0  0  0  0  0  0  0  0
  187.4920  175.9410  146.0560 F   0  0  0  0  0  0  0  0  0  0  0  0
  189.3820  173.6060  140.3370 O   0  0  0  0  0  0  0  0  0  0  0  0
  192.8820  176.5340  142.6140 C   0  0  0  0  0  3  0  0  0  0  0  0
  188.1660  175.3710  141.3980 C   0  0  0  0  0  0  0  0  0  0  0  0
  191.3400  173.2770  144.7580 O   0  0  0  0  0  0  0  0  0  0  0  0
  189.0370  177.4830  146.9480 C   0  0  0  0  0  1  0  0  0  0  0  0
  188.1750  177.1100  145.7580 C   0  0  1  0  0  0  0  0  0  0  0  0
  186.4470  177.9540  144.2100 C   0  0  1  0  0  3  0  0  0  0  0  0
  189.0790  176.9360  144.5150 C   0  0  2  0  0  3  0  0  0  0  0  0
  191.4480  172.2200  141.8850 O   0  0  0  0  0  1  0  0  0  0  0  0
  188.6400  174.6900  143.6330 C   0  0  1  0  0  3  0  0  0  0  0  0
  187.3490  178.1020  143.1420 O   0  0  0  0  0  0  0  0  0  0  0  0
  187.1580  178.2170  145.5280 C   0  0  0  0  0  2  0  0  0  0  0  0
  190.7180  171.7370  142.9720 C   0  0  2  0  0  3  0  0  0  0  0  0
  191.0800  175.5140  143.8940 C   0  0  0  0  0  0  0  0  0  0  0  0
  188.9930  174.1970  141.3780 C   0  0  0  0  0  0  0  0  0  0  0  0
  185.3120  178.9440  144.0470 C   0  0  0  0  0  1  0  0  0  0  0  0
  189.2940  172.3060  142.9970 C   0  0  0  0  0  2  0  0  0  0  0  0
  191.5910  176.5890  143.1460 C   0  0  0  0  0  3  0  0  0  0  0  0
  193.1680  174.3190  143.5370 C   0  0  0  0  0  3  0  0  0  0  0  0
  193.6710  175.4000  142.8120 C   0  0  0  0  0  3  0  0  0  0  0  0
  191.4810  171.9440  144.2820 C   0  0  0  0  0  2  0  0  0  0  0  0
  187.8050  175.6960  142.8020 C   0  0  1  0  0  3  0  0  0  0  0  0
  189.2510  173.7380  142.6940 N   0  0  0  0  0  0  0  0  0  0  0  0
  188.3220  177.0720  143.1880 C   0  0  2  0  0  3  0  0  0  0  0  0
  187.7670  175.9960  140.3800 O   0  0  0  0  0  0  0  0  0  0  0  0
  189.6650  175.5250  144.4440 C   0  0  1  0  0  3  0  0  0  0  0  0
  1  6  1  0  0  0  0
  3 17  2  0  0  0  0
  4 22  2  0  0  0  0
  4 20  1  0  0  0  0
  5 24  1  0  0  0  0
  8  2  1  0  0  0  0
  8  7  1  1  0  0  0
  9 18  1  6  0  0  0
  9 14  1  0  0  0  0
 10  8  1  0  0  0  0
 11 15  1  0  0  0  0
 12 28  1  0  0  0  0
 13 26  1  0  0  0  0
 13  9  1  0  0  0  0
 14  8  1  0  0  0  0
 15 19  1  0  0  0  0
 15 23  1  0  0  0  0
 16  1  1  0  0  0  0
 16 28  1  0  0  0  0
 17  5  1  0  0  0  0
 17 25  1  0  0  0  0
 20 16  2  0  0  0  0
 21  1  2  0  0  0  0
 22 21  1  0  0  0  0
 23  6  1  0  0  0  0
 24 26  1  0  0  0  0
 24 12  1  0  0  0  0
 25 19  1  0  0  0  0
 25 12  1  0  0  0  0
 26 10  1  0  0  0  0
 27  5  2  0  0  0  0
 28 10  1  0  0  0  0
M  END
>  <MODEL>
6

>  <REMARK>
 VINA RESULT:      -7.5      1.499      1.845
  Name = 
  0 active torsions:
  status: ('A' for Active; 'I' for Inactive)
                            x       y       z     vdW  Elec       q    Type
                         _______ _______ _______ _____ _____    ______ ____

>  <TORSDO>
F 0

$$$$
=
 OpenBabel11112417393D

 28 32  0  0  1  0  0  0  0  0999 V2000
  194.1290  173.9390  145.0020 C   0  0  0  0  0  0  0  0  0  0  0  0
  189.8020  174.9670  147.4130 F   0  0  0  0  0  0  0  0  0  0  0  0
  191.3890  172.7020  141.5750 O   0  0  0  0  0  0  0  0  0  0  0  0
  194.6630  176.1640  143.3900 C   0  0  0  0  0  3  0  0  0  0  0  0
  190.0560  174.3220  142.7230 C   0  0  0  0  0  0  0  0  0  0  0  0
  193.8280  172.8080  145.7610 O   0  0  0  0  0  0  0  0  0  0  0  0
  191.2010  176.7380  148.0970 C   0  0  0  0  0  1  0  0  0  0  0  0
  190.2800  176.2070  147.0160 C   0  0  1  0  0  0  0  0  0  0  0  0
  188.2970  176.7480  145.6480 C   0  0  1  0  0  3  0  0  0  0  0  0
  191.0640  176.1120  145.6860 C   0  0  2  0  0  3  0  0  0  0  0  0
  193.7800  171.6710  142.9180 O   0  0  0  0  0  1  0  0  0  0  0  0
  190.8530  173.7960  144.9070 C   0  0  1  0  0  3  0  0  0  0  0  0
  189.0530  176.9780  144.4850 O   0  0  0  0  0  0  0  0  0  0  0  0
  189.0990  177.1540  146.8750 C   0  0  0  0  0  2  0  0  0  0  0  0
  193.2440  171.1320  144.0890 C   0  0  2  0  0  3  0  0  0  0  0  0
  193.1670  174.9550  144.8820 C   0  0  0  0  0  0  0  0  0  0  0  0
  191.0320  173.2720  142.6390 C   0  0  0  0  0  0  0  0  0  0  0  0
  187.0240  177.5660  145.5880 C   0  0  0  0  0  1  0  0  0  0  0  0
  191.7640  171.5020  144.2560 C   0  0  0  0  0  2  0  0  0  0  0  0
  193.4410  176.0610  144.0580 C   0  0  0  0  0  3  0  0  0  0  0  0
  195.3530  174.0450  144.3260 C   0  0  0  0  0  3  0  0  0  0  0  0
  195.6200  175.1570  143.5260 C   0  0  0  0  0  3  0  0  0  0  0  0
  194.1030  171.4910  145.3030 C   0  0  0  0  0  2  0  0  0  0  0  0
  189.8020  174.6460  144.1510 C   0  0  1  0  0  3  0  0  0  0  0  0
  191.4890  172.9020  143.9290 N   0  0  0  0  0  0  0  0  0  0  0  0
  190.1590  176.0940  144.4480 C   0  0  2  0  0  3  0  0  0  0  0  0
  189.4680  174.8480  141.7410 O   0  0  0  0  0  0  0  0  0  0  0  0
  191.8310  174.7930  145.5830 C   0  0  1  0  0  3  0  0  0  0  0  0
  1  6  1  0  0  0  0
  3 17  2  0  0  0  0
  4 22  2  0  0  0  0
  4 20  1  0  0  0  0
  5 24  1  0  0  0  0
  8  2  1  0  0  0  0
  8  7  1  1  0  0  0
  9 18  1  6  0  0  0
  9 14  1  0  0  0  0
 10  8  1  0  0  0  0
 11 15  1  0  0  0  0
 12 28  1  0  0  0  0
 13  9  1  0  0  0  0
 14  8  1  0  0  0  0
 15 19  1  0  0  0  0
 15 23  1  0  0  0  0
 16  1  1  0  0  0  0
 16 28  1  0  0  0  0
 17  5  1  0  0  0  0
 17 25  1  0  0  0  0
 20 16  2  0  0  0  0
 21  1  2  0  0  0  0
 22 21  1  0  0  0  0
 23  6  1  0  0  0  0
 24 26  1  0  0  0  0
 24 12  1  0  0  0  0
 25 19  1  0  0  0  0
 25 12  1  0  0  0  0
 26 13  1  0  0  0  0
 26 10  1  0  0  0  0
 27  5  2  0  0  0  0
 28 10  1  0  0  0  0
M  END
>  <MODEL>
7

>  <REMARK>
 VINA RESULT:      -7.2      2.656      4.035
  Name = 
  0 active torsions:
  status: ('A' for Active; 'I' for Inactive)
                            x       y       z     vdW  Elec       q    Type
                         _______ _______ _______ _____ _____    ______ ____

>  <TORSDO>
F 0

$$$$
=
 OpenBabel11112417393D

 28 32  0  0  1  0  0  0  0  0999 V2000
  187.1430  176.7320  143.8360 C   0  0  0  0  0  0  0  0  0  0  0  0
  189.3160  172.2530  144.7300 F   0  0  0  0  0  0  0  0  0  0  0  0
  189.7790  178.1780  147.2630 O   0  0  0  0  0  0  0  0  0  0  0  0
  188.9400  178.1580  142.2330 C   0  0  0  0  0  3  0  0  0  0  0  0
  191.0430  176.3410  146.3980 C   0  0  0  0  0  0  0  0  0  0  0  0
  186.2760  176.0400  144.6840 O   0  0  0  0  0  0  0  0  0  0  0  0
  189.1800  172.2930  142.3770 C   0  0  0  0  0  1  0  0  0  0  0  0
  189.9610  172.7300  143.6000 C   0  0  1  0  0  0  0  0  0  0  0  0
  192.2020  172.7220  144.6390 C   0  0  1  0  0  3  0  0  0  0  0  0
  190.0570  174.2740  143.6130 C   0  0  2  0  0  3  0  0  0  0  0  0
  186.9960  178.4770  146.3940 O   0  0  0  0  0  1  0  0  0  0  0  0
  189.1610  175.0180  145.7720 C   0  0  1  0  0  3  0  0  0  0  0  0
  192.4310  174.0820  144.3650 O   0  0  0  0  0  0  0  0  0  0  0  0
  191.3480  172.1090  143.5380 C   0  0  0  0  0  2  0  0  0  0  0  0
  186.4380  177.2600  146.7900 C   0  0  2  0  0  3  0  0  0  0  0  0
  188.4220  176.2070  143.5950 C   0  0  0  0  0  0  0  0  0  0  0  0
  189.8330  177.0460  146.7140 C   0  0  0  0  0  0  0  0  0  0  0  0
  193.5270  171.9940  144.7070 C   0  0  0  0  0  1  0  0  0  0  0  0
  187.5120  176.2710  147.2630 C   0  0  0  0  0  2  0  0  0  0  0  0
  189.3220  176.9390  142.8000 C   0  0  0  0  0  3  0  0  0  0  0  0
  186.7650  177.9570  143.2690 C   0  0  0  0  0  3  0  0  0  0  0  0
  187.6610  178.6650  142.4650 C   0  0  0  0  0  3  0  0  0  0  0  0
  185.5260  176.6940  145.6990 C   0  0  0  0  0  2  0  0  0  0  0  0
  190.7060  174.9870  145.8860 C   0  0  1  0  0  3  0  0  0  0  0  0
  188.6940  176.2630  146.3990 N   0  0  0  0  0  0  0  0  0  0  0  0
  191.2160  174.8040  144.4660 C   0  0  2  0  0  3  0  0  0  0  0  0
  192.2090  176.7820  146.5770 O   0  0  0  0  0  0  0  0  0  0  0  0
  188.8240  174.9040  144.2620 C   0  0  1  0  0  3  0  0  0  0  0  0
  1  6  1  0  0  0  0
  4 22  2  0  0  0  0
  4 20  1  0  0  0  0
  5 27  2  0  0  0  0
  5 17  1  0  0  0  0
  6 23  1  0  0  0  0
  8  7  1  6  0  0  0
  8 10  1  0  0  0  0
  8  2  1  0  0  0  0
  9 18  1  6  0  0  0
 10 28  1  0  0  0  0
 10 26  1  0  0  0  0
 11 15  1  0  0  0  0
 12 24  1  0  0  0  0
 12 25  1  0  0  0  0
 13 26  1  0  0  0  0
 13  9  1  0  0  0  0
 14  8  1  0  0  0  0
 14  9  1  0  0  0  0
 15 19  1  0  0  0  0
 16  1  1  0  0  0  0
 16 28  1  0  0  0  0
 17  3  2  0  0  0  0
 20 16  2  0  0  0  0
 21  1  2  0  0  0  0
 22 21  1  0  0  0  0
 23 15  1  0  0  0  0
 24  5  1  0  0  0  0
 25 17  1  0  0  0  0
 25 19  1  0  0  0  0
 26 24  1  0  0  0  0
 28 12  1  0  0  0  0
M  END
>  <MODEL>
8

>  <REMARK>
 VINA RESULT:      -7.1      2.553      6.264
  Name = 
  0 active torsions:
  status: ('A' for Active; 'I' for Inactive)
                            x       y       z     vdW  Elec       q    Type
                         _______ _______ _______ _____ _____    ______ ____

>  <TORSDO>
F 0

$$$$
=
 OpenBabel11112417393D

 28 32  0  0  1  0  0  0  0  0999 V2000
  186.3920  176.9060  143.8980 C   0  0  0  0  0  0  0  0  0  0  0  0
  188.9080  172.5560  143.3280 F   0  0  0  0  0  0  0  0  0  0  0  0
  189.9760  178.1140  146.4430 O   0  0  0  0  0  0  0  0  0  0  0  0
  187.4840  178.6820  142.0310 C   0  0  0  0  0  3  0  0  0  0  0  0
  190.9410  176.5240  144.9390 C   0  0  0  0  0  0  0  0  0  0  0  0
  185.8910  176.0370  144.8670 O   0  0  0  0  0  0  0  0  0  0  0  0
  187.9810  172.8930  141.1870 C   0  0  0  0  0  1  0  0  0  0  0  0
  189.1140  173.2320  142.1360 C   0  0  1  0  0  0  0  0  0  0  0  0
  191.5720  173.2830  142.3640 C   0  0  1  0  0  3  0  0  0  0  0  0
  189.1490  174.7630  142.3530 C   0  0  2  0  0  3  0  0  0  0  0  0
  187.0550  178.2810  146.5960 O   0  0  0  0  0  1  0  0  0  0  0  0
  189.0110  175.1360  144.7730 C   0  0  1  0  0  3  0  0  0  0  0  0
  191.6430  174.6820  142.2410 O   0  0  0  0  0  0  0  0  0  0  0  0
  190.4200  172.7480  141.5260 C   0  0  0  0  0  2  0  0  0  0  0  0
  186.7110  176.9790  146.9620 C   0  0  2  0  0  3  0  0  0  0  0  0
  187.5330  176.5320  143.1710 C   0  0  0  0  0  0  0  0  0  0  0  0
  189.8840  177.0730  145.7410 C   0  0  0  0  0  0  0  0  0  0  0  0
  192.8690  172.6710  141.8790 C   0  0  0  0  0  1  0  0  0  0  0  0
  187.9180  176.0340  146.8980 C   0  0  0  0  0  2  0  0  0  0  0  0
  188.0810  177.4380  142.2460 C   0  0  0  0  0  3  0  0  0  0  0  0
  185.7990  178.1590  143.6820 C   0  0  0  0  0  3  0  0  0  0  0  0
  186.3410  179.0410  142.7460 C   0  0  0  0  0  3  0  0  0  0  0  0
  185.5050  176.4840  146.1610 C   0  0  0  0  0  2  0  0  0  0  0  0
  190.5030  175.2250  144.3660 C   0  0  1  0  0  3  0  0  0  0  0  0
  188.7370  176.2420  145.7020 N   0  0  0  0  0  0  0  0  0  0  0  0
  190.5080  175.2760  142.8460 C   0  0  2  0  0  3  0  0  0  0  0  0
  192.0810  177.0380  144.7890 O   0  0  0  0  0  0  0  0  0  0  0  0
  188.1860  175.1930  143.4610 C   0  0  1  0  0  3  0  0  0  0  0  0
  1  6  1  0  0  0  0
  4 20  2  0  0  0  0
  4 22  1  0  0  0  0
  5 17  1  0  0  0  0
  6 23  1  0  0  0  0
  8  7  1  6  0  0  0
  8 10  1  0  0  0  0
  8  2  1  0  0  0  0
  9 18  1  6  0  0  0
 10 26  1  0  0  0  0
 10 28  1  0  0  0  0
 11 15  1  0  0  0  0
 12 25  1  0  0  0  0
 13  9  1  0  0  0  0
 13 26  1  0  0  0  0
 14  8  1  0  0  0  0
 14  9  1  0  0  0  0
 16 28  1  0  0  0  0
 16  1  2  0  0  0  0
 17  3  2  0  0  0  0
 19 15  1  0  0  0  0
 20 16  1  0  0  0  0
 21  1  1  0  0  0  0
 22 21  2  0  0  0  0
 23 15  1  0  0  0  0
 24 12  1  0  0  0  0
 24  5  1  0  0  0  0
 25 17  1  0  0  0  0
 25 19  1  0  0  0  0
 26 24  1  0  0  0  0
 27  5  2  0  0  0  0
 28 12  1  0  0  0  0
M  END
>  <MODEL>
9

>  <REMARK>
 VINA RESULT:      -6.8      2.275      5.972
  Name = 
  0 active torsions:
  status: ('A' for Active; 'I' for Inactive)
                            x       y       z     vdW  Elec       q    Type
                         _______ _______ _______ _____ _____    ______ ____

>  <TORSDO>
F 0

$$$$
