=
 OpenBabel11112416143D

 30 35  0  0  1  0  0  0  0  0999 V2000
  187.7890  176.5110  145.8630 C   0  0  0  0  0  0  0  0  0  0  0  0
  186.0600  177.7040  147.2180 C   0  0  0  0  0  0  0  0  0  0  0  0
  185.6760  177.2510  142.2350 C   0  0  0  0  0  2  0  0  0  0  0  0
  188.2330  176.0420  144.5960 C   0  0  0  0  0  0  0  0  0  0  0  0
  188.6240  176.1960  147.0750 C   0  0  0  0  0  2  0  0  0  0  0  0
  191.7250  175.3970  145.3840 O   0  0  0  0  0  0  0  0  0  0  0  0
  189.0090  173.8370  142.6160 C   0  0  1  0  0  3  0  0  0  0  0  0
  190.5070  175.6960  145.5290 C   0  0  0  0  0  0  0  0  0  0  0  0
  187.9860  174.5310  141.7400 C   0  0  2  0  0  3  0  0  0  0  0  0
  186.7260  176.6510  141.2870 C   0  0  1  0  0  3  0  0  0  0  0  0
  190.0460  176.2430  146.7690 N   0  0  0  0  0  0  0  0  0  0  0  0
  189.5640  175.4880  144.4610 N   0  0  0  0  0  0  0  0  0  0  0  0
  184.8640  178.4260  147.2650 C   0  0  0  0  0  3  0  0  0  0  0  0
  188.6080  174.4520  140.3840 C   0  0  0  0  0  2  0  0  0  0  0  0
  189.7140  172.9020  141.8300 O   0  0  0  0  0  0  0  0  0  0  0  0
  186.7120  177.4950  148.3880 F   0  0  0  0  0  0  0  0  0  0  0  0
  186.2680  177.0200  143.5780 C   0  0  0  0  0  0  0  0  0  0  0  0
  184.1430  178.6860  146.1010 C   0  0  0  0  0  3  0  0  0  0  0  0
  186.5580  177.2230  145.9800 C   0  0  0  0  0  0  0  0  0  0  0  0
  187.4110  176.2780  143.4750 C   0  0  0  0  0  0  0  0  0  0  0  0
  187.4450  177.7710  140.5580 C   0  0  0  0  0  1  0  0  0  0  0  0
  187.6780  175.9140  142.1210 N   0  0  0  0  0  0  0  0  0  0  0  0
  189.4260  173.1860  140.4780 C   0  0  0  0  0  2  0  0  0  0  0  0
  191.1040  174.9860  142.7700 O   0  0  0  0  0  0  0  0  0  0  0  0
  184.6110  178.2220  144.8750 C   0  0  0  0  0  3  0  0  0  0  0  0
  185.8030  177.4930  144.8040 C   0  0  0  0  0  0  0  0  0  0  0  0
  189.9650  174.7870  143.2730 C   0  0  0  0  0  0  0  0  0  0  0  0
  190.9740  176.5720  147.8420 C   0  0  0  0  0  2  0  0  0  0  0  0
  191.4280  178.1510  149.6910 C   0  0  0  0  0  1  0  0  0  0  0  0
  190.6360  177.9340  148.4190 C   0  0  0  0  0  2  0  0  0  0  0  0
  1 19  1  0  0  0  0
  1  5  1  0  0  0  0
  2 13  1  0  0  0  0
  2 16  1  0  0  0  0
  3 17  1  0  0  0  0
  4  1  2  0  0  0  0
  6  8  2  0  0  0  0
  7 15  1  6  0  0  0
  7 27  1  0  0  0  0
  8 11  1  0  0  0  0
  9 14  1  6  0  0  0
  9 22  1  0  0  0  0
  9  7  1  0  0  0  0
 10 21  1  1  0  0  0
 10 22  1  0  0  0  0
 10  3  1  0  0  0  0
 11  5  1  0  0  0  0
 11 28  1  0  0  0  0
 12  4  1  0  0  0  0
 12  8  1  0  0  0  0
 14 23  1  0  0  0  0
 17 26  1  0  0  0  0
 18 13  2  0  0  0  0
 19  2  2  0  0  0  0
 20 17  2  0  0  0  0
 20  4  1  0  0  0  0
 22 20  1  0  0  0  0
 23 15  1  0  0  0  0
 24 27  2  0  0  0  0
 25 18  1  0  0  0  0
 26 25  2  0  0  0  0
 26 19  1  0  0  0  0
 27 12  1  0  0  0  0
 28 30  1  0  0  0  0
 30 29  1  0  0  0  0
M  END
>  <MODEL>
1

>  <REMARK>
 VINA RESULT:      -8.7      0.000      0.000
  Name = 
  2 active torsions:
  status: ('A' for Active; 'I' for Inactive)
    1  A    between atoms: N_11  and  C_28
    2  A    between atoms: C_28  and  C_30
                            x       y       z     vdW  Elec       q    Type
                         _______ _______ _______ _____ _____    ______ ____

>  <TORSDO>
F 2

$$$$
=
 OpenBabel11112416143D

 30 35  0  0  1  0  0  0  0  0999 V2000
  186.6550  177.7160  143.7580 C   0  0  0  0  0  0  0  0  0  0  0  0
  184.8800  178.7500  145.1820 C   0  0  0  0  0  0  0  0  0  0  0  0
  188.5180  175.8970  147.1330 C   0  0  0  0  0  2  0  0  0  0  0  0
  187.8400  176.9360  143.6640 C   0  0  0  0  0  0  0  0  0  0  0  0
  186.0810  178.3020  142.4950 C   0  0  0  0  0  2  0  0  0  0  0  0
  187.7720  176.1620  140.1110 O   0  0  0  0  0  0  0  0  0  0  0  0
  190.7970  176.5300  142.9720 C   0  0  1  0  0  3  0  0  0  0  0  0
  187.4620  176.6670  141.2270 C   0  0  0  0  0  0  0  0  0  0  0  0
  190.8640  176.0370  144.4030 C   0  0  2  0  0  3  0  0  0  0  0  0
  189.5850  175.1150  146.3530 C   0  0  1  0  0  3  0  0  0  0  0  0
  186.2360  177.3920  141.3690 N   0  0  0  0  0  0  0  0  0  0  0  0
  188.3330  176.5310  142.3640 N   0  0  0  0  0  0  0  0  0  0  0  0
  184.3170  178.9350  146.4490 C   0  0  0  0  0  3  0  0  0  0  0  0
  191.8150  174.8890  144.3100 C   0  0  0  0  0  2  0  0  0  0  0  0
  192.0120  176.2130  142.3300 O   0  0  0  0  0  0  0  0  0  0  0  0
  184.2560  179.3330  144.1290 F   0  0  0  0  0  0  0  0  0  0  0  0
  187.7980  176.6370  146.0650 C   0  0  0  0  0  0  0  0  0  0  0  0
  184.8990  178.3600  147.5770 C   0  0  0  0  0  3  0  0  0  0  0  0
  186.0540  177.9700  145.0280 C   0  0  0  0  0  0  0  0  0  0  0  0
  188.4120  176.4520  144.8580 C   0  0  0  0  0  0  0  0  0  0  0  0
  189.2210  173.6420  146.3390 C   0  0  0  0  0  1  0  0  0  0  0  0
  189.5780  175.6380  144.9850 N   0  0  0  0  0  0  0  0  0  0  0  0
  192.6950  175.2920  143.1510 C   0  0  0  0  0  2  0  0  0  0  0  0
  189.8140  174.9660  141.4470 O   0  0  0  0  0  0  0  0  0  0  0  0
  186.0530  177.5930  147.4500 C   0  0  0  0  0  3  0  0  0  0  0  0
  186.6370  177.3970  146.1920 C   0  0  0  0  0  0  0  0  0  0  0  0
  189.6410  175.9590  142.2060 C   0  0  0  0  0  0  0  0  0  0  0  0
  185.2710  177.4680  140.2820 C   0  0  0  0  0  2  0  0  0  0  0  0
  182.8660  177.9910  140.5300 C   0  0  0  0  0  1  0  0  0  0  0  0
  184.2650  178.5690  140.5560 C   0  0  0  0  0  2  0  0  0  0  0  0
  1 19  1  0  0  0  0
  2 13  1  0  0  0  0
  4  1  2  0  0  0  0
  4 20  1  0  0  0  0
  5  1  1  0  0  0  0
  6  8  2  0  0  0  0
  7 27  1  6  0  0  0
  7  9  1  0  0  0  0
  8 11  1  0  0  0  0
  8 12  1  0  0  0  0
  9 14  1  6  0  0  0
  9 22  1  0  0  0  0
 10 21  1  6  0  0  0
 10  3  1  0  0  0  0
 11  5  1  0  0  0  0
 12  4  1  0  0  0  0
 13 18  2  0  0  0  0
 15  7  1  0  0  0  0
 15 23  1  0  0  0  0
 16  2  1  0  0  0  0
 17 26  1  0  0  0  0
 17  3  1  0  0  0  0
 19  2  2  0  0  0  0
 19 26  1  0  0  0  0
 20 22  1  0  0  0  0
 20 17  2  0  0  0  0
 22 10  1  0  0  0  0
 23 14  1  0  0  0  0
 24 27  2  0  0  0  0
 25 18  1  0  0  0  0
 26 25  2  0  0  0  0
 27 12  1  0  0  0  0
 28 30  1  0  0  0  0
 28 11  1  0  0  0  0
 29 30  1  0  0  0  0
M  END
>  <MODEL>
2

>  <REMARK>
 VINA RESULT:      -8.5      2.035      5.209
  Name = 
  2 active torsions:
  status: ('A' for Active; 'I' for Inactive)
    1  A    between atoms: N_11  and  C_28
    2  A    between atoms: C_28  and  C_30
                            x       y       z     vdW  Elec       q    Type
                         _______ _______ _______ _____ _____    ______ ____

>  <TORSDO>
F 2

$$$$
=
 OpenBabel11112416143D

 30 35  0  0  1  0  0  0  0  0999 V2000
  188.6780  176.0360  143.1350 C   0  0  0  0  0  0  0  0  0  0  0  0
  186.3510  176.9010  143.4250 C   0  0  0  0  0  0  0  0  0  0  0  0
  189.7810  177.2420  147.0720 C   0  0  0  0  0  2  0  0  0  0  0  0
  189.9870  175.8590  143.6630 C   0  0  0  0  0  0  0  0  0  0  0  0
  188.4020  175.5610  141.7330 C   0  0  0  0  0  2  0  0  0  0  0  0
  191.2210  173.3150  141.3760 O   0  0  0  0  0  0  0  0  0  0  0  0
  193.0160  176.3140  143.6690 C   0  0  1  0  0  3  0  0  0  0  0  0
  190.4650  174.1820  141.8990 C   0  0  0  0  0  0  0  0  0  0  0  0
  192.7520  176.7560  145.0940 C   0  0  2  0  0  3  0  0  0  0  0  0
  191.1960  176.6430  147.0570 C   0  0  1  0  0  3  0  0  0  0  0  0
  189.1180  174.3280  141.4380 N   0  0  0  0  0  0  0  0  0  0  0  0
  190.9440  175.0370  142.9530 N   0  0  0  0  0  0  0  0  0  0  0  0
  185.3950  177.5160  144.2390 C   0  0  0  0  0  3  0  0  0  0  0  0
  193.9350  176.2150  145.8280 C   0  0  0  0  0  2  0  0  0  0  0  0
  194.4090  176.1930  143.4860 O   0  0  0  0  0  0  0  0  0  0  0  0
  185.9650  176.5210  142.1830 F   0  0  0  0  0  0  0  0  0  0  0  0
  189.2730  176.9320  145.7110 C   0  0  0  0  0  0  0  0  0  0  0  0
  185.7170  177.9280  145.5300 C   0  0  0  0  0  3  0  0  0  0  0  0
  187.6690  176.6880  143.9050 C   0  0  0  0  0  0  0  0  0  0  0  0
  190.2580  176.3700  144.9480 C   0  0  0  0  0  0  0  0  0  0  0  0
  191.2260  175.4000  147.9250 C   0  0  0  0  0  1  0  0  0  0  0  0
  191.4880  176.2820  145.6670 N   0  0  0  0  0  0  0  0  0  0  0  0
  195.0060  176.2190  144.7640 C   0  0  0  0  0  2  0  0  0  0  0  0
  192.9720  173.9400  143.3590 O   0  0  0  0  0  0  0  0  0  0  0  0
  187.0050  177.7300  146.0220 C   0  0  0  0  0  3  0  0  0  0  0  0
  187.9810  177.1220  145.2230 C   0  0  0  0  0  0  0  0  0  0  0  0
  192.3330  175.0270  143.3150 C   0  0  0  0  0  0  0  0  0  0  0  0
  188.5530  173.4200  140.4510 C   0  0  0  0  0  2  0  0  0  0  0  0
  189.5650  173.6950  138.2100 C   0  0  0  0  0  1  0  0  0  0  0  0
  188.4260  174.1220  139.1120 C   0  0  0  0  0  2  0  0  0  0  0  0
  1  4  2  0  0  0  0
  1 19  1  0  0  0  0
  2 19  2  0  0  0  0
  2 13  1  0  0  0  0
  4 20  1  0  0  0  0
  5  1  1  0  0  0  0
  6  8  2  0  0  0  0
  7 27  1  1  0  0  0
  7  9  1  0  0  0  0
  8 12  1  0  0  0  0
  9 22  1  0  0  0  0
  9 14  1  1  0  0  0
 10  3  1  0  0  0  0
 10 21  1  1  0  0  0
 11  5  1  0  0  0  0
 11  8  1  0  0  0  0
 12 27  1  0  0  0  0
 12  4  1  0  0  0  0
 13 18  2  0  0  0  0
 15  7  1  0  0  0  0
 15 23  1  0  0  0  0
 16  2  1  0  0  0  0
 17  3  1  0  0  0  0
 18 25  1  0  0  0  0
 19 26  1  0  0  0  0
 20 22  1  0  0  0  0
 20 17  2  0  0  0  0
 22 10  1  0  0  0  0
 23 14  1  0  0  0  0
 26 17  1  0  0  0  0
 26 25  2  0  0  0  0
 27 24  2  0  0  0  0
 28 11  1  0  0  0  0
 29 30  1  0  0  0  0
 30 28  1  0  0  0  0
M  END
>  <MODEL>
3

>  <REMARK>
 VINA RESULT:      -8.5      2.256      5.717
  Name = 
  2 active torsions:
  status: ('A' for Active; 'I' for Inactive)
    1  A    between atoms: N_11  and  C_28
    2  A    between atoms: C_28  and  C_30
                            x       y       z     vdW  Elec       q    Type
                         _______ _______ _______ _____ _____    ______ ____

>  <TORSDO>
F 2

$$$$
=
 OpenBabel11112416143D

 30 35  0  0  1  0  0  0  0  0999 V2000
  188.2290  175.9580  141.9530 C   0  0  0  0  0  0  0  0  0  0  0  0
  186.5830  176.9350  140.3450 C   0  0  0  0  0  0  0  0  0  0  0  0
  186.6670  178.2550  145.1860 C   0  0  0  0  0  2  0  0  0  0  0  0
  188.7650  175.9100  143.2690 C   0  0  0  0  0  0  0  0  0  0  0  0
  188.8580  175.0930  140.8920 C   0  0  0  0  0  2  0  0  0  0  0  0
  190.5800  172.7650  143.0670 O   0  0  0  0  0  0  0  0  0  0  0  0
  191.0160  176.2610  145.3170 C   0  0  1  0  0  3  0  0  0  0  0  0
  189.8950  173.7690  142.7250 C   0  0  0  0  0  0  0  0  0  0  0  0
  189.9810  177.1160  146.0200 C   0  0  2  0  0  3  0  0  0  0  0  0
  187.5430  177.6390  146.2870 C   0  0  1  0  0  3  0  0  0  0  0  0
  189.2790  173.8090  141.4330 N   0  0  0  0  0  0  0  0  0  0  0  0
  189.7280  174.8870  143.6160 N   0  0  0  0  0  0  0  0  0  0  0  0
  185.5030  177.7910  140.1090 C   0  0  0  0  0  3  0  0  0  0  0  0
  190.2070  176.7870  147.4590 C   0  0  0  0  0  2  0  0  0  0  0  0
  192.0990  176.0520  146.1960 O   0  0  0  0  0  0  0  0  0  0  0  0
  187.0480  176.2120  139.2980 F   0  0  0  0  0  0  0  0  0  0  0  0
  187.1410  177.5660  143.9580 C   0  0  0  0  0  0  0  0  0  0  0  0
  184.9660  178.5610  141.1390 C   0  0  0  0  0  3  0  0  0  0  0  0
  187.1490  176.8380  141.6420 C   0  0  0  0  0  0  0  0  0  0  0  0
  188.2190  176.7750  144.2390 C   0  0  0  0  0  0  0  0  0  0  0  0
  186.7010  176.7120  147.1430 C   0  0  0  0  0  1  0  0  0  0  0  0
  188.5930  176.8710  145.6130 N   0  0  0  0  0  0  0  0  0  0  0  0
  191.6770  176.4430  147.4850 C   0  0  0  0  0  2  0  0  0  0  0  0
  190.6460  173.9050  145.5340 O   0  0  0  0  0  0  0  0  0  0  0  0
  185.5080  178.4840  142.4200 C   0  0  0  0  0  3  0  0  0  0  0  0
  186.5920  177.6370  142.6790 C   0  0  0  0  0  0  0  0  0  0  0  0
  190.4710  174.9460  144.8440 C   0  0  0  0  0  0  0  0  0  0  0  0
  189.3260  172.6630  140.5360 C   0  0  0  0  0  2  0  0  0  0  0  0
  188.9170  172.6960  138.0970 C   0  0  0  0  0  1  0  0  0  0  0  0
  188.2670  172.8020  139.4600 C   0  0  0  0  0  2  0  0  0  0  0  0
  1  4  1  0  0  0  0
  2 19  1  0  0  0  0
  3 10  1  0  0  0  0
  4 12  1  0  0  0  0
  4 20  2  0  0  0  0
  5 11  1  0  0  0  0
  5  1  1  0  0  0  0
  7 27  1  1  0  0  0
  7  9  1  0  0  0  0
  7 15  1  0  0  0  0
  8  6  2  0  0  0  0
  8 12  1  0  0  0  0
  9 14  1  1  0  0  0
 10 21  1  1  0  0  0
 11  8  1  0  0  0  0
 12 27  1  0  0  0  0
 13  2  2  0  0  0  0
 13 18  1  0  0  0  0
 14 23  1  0  0  0  0
 15 23  1  0  0  0  0
 16  2  1  0  0  0  0
 17 20  1  0  0  0  0
 17  3  1  0  0  0  0
 18 25  2  0  0  0  0
 19  1  2  0  0  0  0
 19 26  1  0  0  0  0
 20 22  1  0  0  0  0
 22  9  1  0  0  0  0
 22 10  1  0  0  0  0
 25 26  1  0  0  0  0
 26 17  2  0  0  0  0
 27 24  2  0  0  0  0
 28 11  1  0  0  0  0
 29 30  1  0  0  0  0
 30 28  1  0  0  0  0
M  END
>  <MODEL>
4

>  <REMARK>
 VINA RESULT:      -7.9      2.274      5.856
  Name = 
  2 active torsions:
  status: ('A' for Active; 'I' for Inactive)
    1  A    between atoms: N_11  and  C_28
    2  A    between atoms: C_28  and  C_30
                            x       y       z     vdW  Elec       q    Type
                         _______ _______ _______ _____ _____    ______ ____

>  <TORSDO>
F 2

$$$$
=
 OpenBabel11112416143D

 30 35  0  0  1  0  0  0  0  0999 V2000
  188.0910  175.4770  142.4900 C   0  0  0  0  0  0  0  0  0  0  0  0
  189.6120  173.6840  141.6420 C   0  0  0  0  0  0  0  0  0  0  0  0
  189.7110  175.2050  146.4240 C   0  0  0  0  0  2  0  0  0  0  0  0
  187.6230  176.2630  143.5790 C   0  0  0  0  0  0  0  0  0  0  0  0
  187.4480  175.6670  141.1420 C   0  0  0  0  0  2  0  0  0  0  0  0
  185.9360  178.9050  141.7330 O   0  0  0  0  0  0  0  0  0  0  0  0
  185.4630  177.2200  145.5290 C   0  0  1  0  0  3  0  0  0  0  0  0
  186.5600  177.8350  141.9790 C   0  0  0  0  0  0  0  0  0  0  0  0
  186.4940  176.8190  146.5650 C   0  0  2  0  0  3  0  0  0  0  0  0
  188.9170  176.3720  147.0290 C   0  0  1  0  0  3  0  0  0  0  0  0
  187.1090  177.0630  140.9050 N   0  0  0  0  0  0  0  0  0  0  0  0
  186.7230  177.3700  143.3320 N   0  0  0  0  0  0  0  0  0  0  0  0
  190.6420  172.7710  141.8900 C   0  0  0  0  0  3  0  0  0  0  0  0
  186.3530  177.8880  147.5980 C   0  0  0  0  0  2  0  0  0  0  0  0
  184.4350  177.9390  146.1730 O   0  0  0  0  0  0  0  0  0  0  0  0
  189.1270  173.7530  140.3780 F   0  0  0  0  0  0  0  0  0  0  0  0
  189.2070  175.1460  145.0270 C   0  0  0  0  0  0  0  0  0  0  0  0
  191.1950  172.6500  143.1630 C   0  0  0  0  0  3  0  0  0  0  0  0
  189.1150  174.5030  142.6880 C   0  0  0  0  0  0  0  0  0  0  0  0
  188.1790  176.0300  144.8530 C   0  0  0  0  0  0  0  0  0  0  0  0
  189.8400  177.5600  147.2280 C   0  0  0  0  0  1  0  0  0  0  0  0
  187.8690  176.7160  146.0650 N   0  0  0  0  0  0  0  0  0  0  0  0
  184.9020  178.2830  147.4590 C   0  0  0  0  0  2  0  0  0  0  0  0
  185.9440  179.2890  144.4240 O   0  0  0  0  0  0  0  0  0  0  0  0
  190.7210  173.4410  144.2050 C   0  0  0  0  0  3  0  0  0  0  0  0
  189.6880  174.3600  143.9820 C   0  0  0  0  0  0  0  0  0  0  0  0
  186.0390  178.0310  144.4070 C   0  0  0  0  0  0  0  0  0  0  0  0
  187.0660  177.5410  139.5310 C   0  0  0  0  0  2  0  0  0  0  0  0
  186.6910  176.1580  137.5140 C   0  0  0  0  0  1  0  0  0  0  0  0
  186.0360  176.7570  138.7410 C   0  0  0  0  0  2  0  0  0  0  0  0
  1 19  2  0  0  0  0
  1  4  1  0  0  0  0
  2 13  2  0  0  0  0
  2 19  1  0  0  0  0
  3 10  1  0  0  0  0
  4 20  2  0  0  0  0
  5  1  1  0  0  0  0
  6  8  2  0  0  0  0
  7 27  1  6  0  0  0
  7 15  1  0  0  0  0
  7  9  1  0  0  0  0
  8 12  1  0  0  0  0
  9 14  1  1  0  0  0
 10 21  1  6  0  0  0
 11  5  1  0  0  0  0
 11  8  1  0  0  0  0
 12  4  1  0  0  0  0
 12 27  1  0  0  0  0
 13 18  1  0  0  0  0
 15 23  1  0  0  0  0
 16  2  1  0  0  0  0
 17  3  1  0  0  0  0
 18 25  2  0  0  0  0
 19 26  1  0  0  0  0
 20 17  1  0  0  0  0
 20 22  1  0  0  0  0
 22  9  1  0  0  0  0
 22 10  1  0  0  0  0
 23 14  1  0  0  0  0
 26 25  1  0  0  0  0
 26 17  2  0  0  0  0
 27 24  2  0  0  0  0
 28 11  1  0  0  0  0
 29 30  1  0  0  0  0
 30 28  1  0  0  0  0
M  END
>  <MODEL>
5

>  <REMARK>
 VINA RESULT:      -7.7      3.142      7.195
  Name = 
  2 active torsions:
  status: ('A' for Active; 'I' for Inactive)
    1  A    between atoms: N_11  and  C_28
    2  A    between atoms: C_28  and  C_30
                            x       y       z     vdW  Elec       q    Type
                         _______ _______ _______ _____ _____    ______ ____

>  <TORSDO>
F 2

$$$$
=
 OpenBabel11112416143D

 30 35  0  0  1  0  0  0  0  0999 V2000
  189.0650  176.6920  145.6230 C   0  0  0  0  0  0  0  0  0  0  0  0
  191.0490  176.0340  146.9930 C   0  0  0  0  0  0  0  0  0  0  0  0
  190.3340  174.2780  142.3460 C   0  0  0  0  0  2  0  0  0  0  0  0
  188.3540  176.6150  144.3940 C   0  0  0  0  0  0  0  0  0  0  0  0
  188.5150  177.5720  146.7140 C   0  0  0  0  0  2  0  0  0  0  0  0
  185.1180  177.8630  145.4900 O   0  0  0  0  0  0  0  0  0  0  0  0
  187.1620  177.8280  141.8450 C   0  0  1  0  0  3  0  0  0  0  0  0
  186.3390  177.5400  145.5090 C   0  0  0  0  0  0  0  0  0  0  0  0
  187.9700  176.7330  141.1780 C   0  0  2  0  0  3  0  0  0  0  0  0
  189.1020  174.5130  141.4590 C   0  0  1  0  0  3  0  0  0  0  0  0
  187.0600  177.5340  146.7460 N   0  0  0  0  0  0  0  0  0  0  0  0
  187.0250  177.1820  144.2950 N   0  0  0  0  0  0  0  0  0  0  0  0
  192.2270  175.2910  147.1150 C   0  0  0  0  0  3  0  0  0  0  0  0
  187.0670  176.2850  140.0770 C   0  0  0  0  0  2  0  0  0  0  0  0
  186.3020  178.4000  140.8850 O   0  0  0  0  0  0  0  0  0  0  0  0
  190.6690  176.7820  148.0570 F   0  0  0  0  0  0  0  0  0  0  0  0
  190.0500  175.1160  143.5410 C   0  0  0  0  0  0  0  0  0  0  0  0
  192.6770  174.4920  146.0650 C   0  0  0  0  0  3  0  0  0  0  0  0
  190.2920  175.9850  145.7950 C   0  0  0  0  0  0  0  0  0  0  0  0
  188.9120  175.8480  143.3520 C   0  0  0  0  0  0  0  0  0  0  0  0
  188.2420  173.2630  141.4510 C   0  0  0  0  0  1  0  0  0  0  0  0
  188.3550  175.6220  142.0570 N   0  0  0  0  0  0  0  0  0  0  0  0
  186.2880  177.5410  139.7660 C   0  0  0  0  0  2  0  0  0  0  0  0
  185.1530  177.0580  142.8950 O   0  0  0  0  0  0  0  0  0  0  0  0
  191.9520  174.4310  144.8780 C   0  0  0  0  0  3  0  0  0  0  0  0
  190.7720  175.1690  144.7320 C   0  0  0  0  0  0  0  0  0  0  0  0
  186.3740  177.3440  143.0250 C   0  0  0  0  0  0  0  0  0  0  0  0
  186.3900  177.7830  148.0140 C   0  0  0  0  0  2  0  0  0  0  0  0
  186.3160  180.2560  148.0120 C   0  0  0  0  0  1  0  0  0  0  0  0
  186.9460  179.0390  148.6570 C   0  0  0  0  0  2  0  0  0  0  0  0
  1 19  1  0  0  0  0
  1  5  1  0  0  0  0
  2 13  1  0  0  0  0
  2 16  1  0  0  0  0
  3 17  1  0  0  0  0
  4  1  2  0  0  0  0
  5 11  1  0  0  0  0
  6  8  2  0  0  0  0
  7 15  1  6  0  0  0
  7 27  1  0  0  0  0
  8 11  1  0  0  0  0
  9 14  1  6  0  0  0
  9  7  1  0  0  0  0
  9 22  1  0  0  0  0
 10 21  1  1  0  0  0
 10 22  1  0  0  0  0
 10  3  1  0  0  0  0
 11 28  1  0  0  0  0
 12  4  1  0  0  0  0
 12  8  1  0  0  0  0
 17 26  1  0  0  0  0
 18 13  2  0  0  0  0
 19  2  2  0  0  0  0
 20 17  2  0  0  0  0
 20  4  1  0  0  0  0
 22 20  1  0  0  0  0
 23 14  1  0  0  0  0
 23 15  1  0  0  0  0
 24 27  2  0  0  0  0
 25 18  1  0  0  0  0
 26 25  2  0  0  0  0
 26 19  1  0  0  0  0
 27 12  1  0  0  0  0
 28 30  1  0  0  0  0
 29 30  1  0  0  0  0
M  END
>  <MODEL>
6

>  <REMARK>
 VINA RESULT:      -7.7      2.673      4.911
  Name = 
  2 active torsions:
  status: ('A' for Active; 'I' for Inactive)
    1  A    between atoms: N_11  and  C_28
    2  A    between atoms: C_28  and  C_30
                            x       y       z     vdW  Elec       q    Type
                         _______ _______ _______ _____ _____    ______ ____

>  <TORSDO>
F 2

$$$$
=
 OpenBabel11112416143D

 30 35  0  0  1  0  0  0  0  0999 V2000
  190.1700  176.2800  145.1640 C   0  0  0  0  0  0  0  0  0  0  0  0
  189.1030  177.4980  147.0680 C   0  0  0  0  0  0  0  0  0  0  0  0
  186.5440  176.2900  142.9230 C   0  0  0  0  0  2  0  0  0  0  0  0
  190.0470  175.6740  143.8840 C   0  0  0  0  0  0  0  0  0  0  0  0
  191.5060  176.2220  145.8580 C   0  0  0  0  0  2  0  0  0  0  0  0
  193.5620  175.4660  142.9740 O   0  0  0  0  0  0  0  0  0  0  0  0
  190.1430  173.2810  141.9720 C   0  0  1  0  0  3  0  0  0  0  0  0
  192.5180  175.6730  143.6530 C   0  0  0  0  0  0  0  0  0  0  0  0
  188.7420  173.7460  141.6300 C   0  0  2  0  0  3  0  0  0  0  0  0
  187.1160  175.6550  141.6470 C   0  0  1  0  0  3  0  0  0  0  0  0
  192.6040  176.3510  144.9110 N   0  0  0  0  0  0  0  0  0  0  0  0
  191.2330  175.2280  143.1820 N   0  0  0  0  0  0  0  0  0  0  0  0
  187.9700  178.1090  147.6140 C   0  0  0  0  0  3  0  0  0  0  0  0
  188.6750  173.5260  140.1540 C   0  0  0  0  0  2  0  0  0  0  0  0
  190.5370  172.3090  141.0300 O   0  0  0  0  0  0  0  0  0  0  0  0
  190.2420  177.5220  147.8020 F   0  0  0  0  0  0  0  0  0  0  0  0
  187.7140  176.3120  143.8390 C   0  0  0  0  0  0  0  0  0  0  0  0
  186.7650  178.1300  146.9140 C   0  0  0  0  0  3  0  0  0  0  0  0
  189.0410  176.8890  145.7890 C   0  0  0  0  0  0  0  0  0  0  0  0
  188.7770  175.6680  143.2720 C   0  0  0  0  0  0  0  0  0  0  0  0
  187.2460  176.7170  140.5700 C   0  0  0  0  0  1  0  0  0  0  0  0
  188.4430  175.1360  141.9900 N   0  0  0  0  0  0  0  0  0  0  0  0
  189.6220  172.3650  139.9580 C   0  0  0  0  0  2  0  0  0  0  0  0
  191.8780  174.6240  141.0140 O   0  0  0  0  0  0  0  0  0  0  0  0
  186.6800  177.5360  145.6580 C   0  0  0  0  0  3  0  0  0  0  0  0
  187.8000  176.9150  145.0930 C   0  0  0  0  0  0  0  0  0  0  0  0
  191.1410  174.4000  142.0130 C   0  0  0  0  0  0  0  0  0  0  0  0
  193.8600  176.9160  145.3820 C   0  0  0  0  0  2  0  0  0  0  0  0
  195.3510  175.0400  145.9950 C   0  0  0  0  0  1  0  0  0  0  0  0
  194.4020  176.0900  146.5320 C   0  0  0  0  0  2  0  0  0  0  0  0
  1 19  1  0  0  0  0
  1  5  1  0  0  0  0
  2 13  1  0  0  0  0
  2 16  1  0  0  0  0
  3 17  1  0  0  0  0
  4  1  2  0  0  0  0
  6  8  2  0  0  0  0
  7 15  1  6  0  0  0
  7 27  1  0  0  0  0
  8 11  1  0  0  0  0
  9 14  1  6  0  0  0
  9  7  1  0  0  0  0
  9 22  1  0  0  0  0
 10 21  1  6  0  0  0
 10 22  1  0  0  0  0
 10  3  1  0  0  0  0
 11 28  1  0  0  0  0
 11  5  1  0  0  0  0
 12  8  1  0  0  0  0
 12  4  1  0  0  0  0
 17 26  1  0  0  0  0
 18 13  2  0  0  0  0
 19  2  2  0  0  0  0
 20 17  2  0  0  0  0
 20  4  1  0  0  0  0
 22 20  1  0  0  0  0
 23 14  1  0  0  0  0
 23 15  1  0  0  0  0
 24 27  2  0  0  0  0
 25 18  1  0  0  0  0
 26 25  2  0  0  0  0
 26 19  1  0  0  0  0
 27 12  1  0  0  0  0
 28 30  1  0  0  0  0
 29 30  1  0  0  0  0
M  END
>  <MODEL>
7

>  <REMARK>
 VINA RESULT:      -7.6      2.035      2.620
  Name = 
  2 active torsions:
  status: ('A' for Active; 'I' for Inactive)
    1  A    between atoms: N_11  and  C_28
    2  A    between atoms: C_28  and  C_30
                            x       y       z     vdW  Elec       q    Type
                         _______ _______ _______ _____ _____    ______ ____

>  <TORSDO>
F 2

$$$$
=
 OpenBabel11112416143D

 30 35  0  0  1  0  0  0  0  0999 V2000
  188.8250  173.7470  141.6800 C   0  0  0  0  0  0  0  0  0  0  0  0
  190.3110  171.7610  141.9910 C   0  0  0  0  0  0  0  0  0  0  0  0
  189.8650  175.3180  145.5040 C   0  0  0  0  0  2  0  0  0  0  0  0
  188.2720  174.9480  142.2020 C   0  0  0  0  0  0  0  0  0  0  0  0
  188.3890  173.2940  140.3110 C   0  0  0  0  0  2  0  0  0  0  0  0
  187.0560  176.4430  139.1180 O   0  0  0  0  0  0  0  0  0  0  0  0
  185.9420  176.7030  143.1380 C   0  0  1  0  0  3  0  0  0  0  0  0
  187.5590  175.6060  139.9180 C   0  0  0  0  0  0  0  0  0  0  0  0
  186.7880  176.8230  144.3890 C   0  0  2  0  0  3  0  0  0  0  0  0
  189.0840  176.6340  145.3780 C   0  0  1  0  0  3  0  0  0  0  0  0
  188.1910  174.4240  139.4150 N   0  0  0  0  0  0  0  0  0  0  0  0
  187.4990  175.8180  141.3400 N   0  0  0  0  0  0  0  0  0  0  0  0
  191.2260  171.0630  142.7850 C   0  0  0  0  0  3  0  0  0  0  0  0
  186.5870  178.2490  144.7850 C   0  0  0  0  0  2  0  0  0  0  0  0
  184.8910  177.6410  143.2140 O   0  0  0  0  0  0  0  0  0  0  0  0
  190.0100  171.2390  140.7770 F   0  0  0  0  0  0  0  0  0  0  0  0
  189.5540  174.6220  144.2280 C   0  0  0  0  0  0  0  0  0  0  0  0
  191.5880  171.5420  144.0430 C   0  0  0  0  0  3  0  0  0  0  0  0
  189.7370  172.9720  142.4570 C   0  0  0  0  0  0  0  0  0  0  0  0
  188.6290  175.3280  143.5120 C   0  0  0  0  0  0  0  0  0  0  0  0
  190.0570  177.7780  145.1550 C   0  0  0  0  0  1  0  0  0  0  0  0
  188.2070  176.4980  144.2130 N   0  0  0  0  0  0  0  0  0  0  0  0
  185.2020  178.5380  144.2570 C   0  0  0  0  0  2  0  0  0  0  0  0
  186.7220  178.0270  141.3010 O   0  0  0  0  0  0  0  0  0  0  0  0
  191.0360  172.7270  144.5210 C   0  0  0  0  0  3  0  0  0  0  0  0
  190.1150  173.4410  143.7460 C   0  0  0  0  0  0  0  0  0  0  0  0
  186.7250  176.9030  141.8750 C   0  0  0  0  0  0  0  0  0  0  0  0
  188.3730  174.2130  137.9860 C   0  0  0  0  0  2  0  0  0  0  0  0
  190.7680  173.7910  137.5300 C   0  0  0  0  0  1  0  0  0  0  0  0
  189.4180  173.1400  137.7490 C   0  0  0  0  0  2  0  0  0  0  0  0
  1  4  2  0  0  0  0
  1 19  1  0  0  0  0
  2 19  2  0  0  0  0
  2 13  1  0  0  0  0
  4 20  1  0  0  0  0
  5  1  1  0  0  0  0
  6  8  2  0  0  0  0
  7 27  1  6  0  0  0
  7 15  1  0  0  0  0
  7  9  1  0  0  0  0
  8 12  1  0  0  0  0
  9 14  1  6  0  0  0
 10 21  1  6  0  0  0
 10  3  1  0  0  0  0
 11  8  1  0  0  0  0
 11  5  1  0  0  0  0
 12 27  1  0  0  0  0
 12  4  1  0  0  0  0
 13 18  2  0  0  0  0
 15 23  1  0  0  0  0
 16  2  1  0  0  0  0
 17  3  1  0  0  0  0
 18 25  1  0  0  0  0
 19 26  1  0  0  0  0
 20 22  1  0  0  0  0
 20 17  2  0  0  0  0
 22  9  1  0  0  0  0
 22 10  1  0  0  0  0
 23 14  1  0  0  0  0
 24 27  2  0  0  0  0
 26 17  1  0  0  0  0
 26 25  2  0  0  0  0
 28 11  1  0  0  0  0
 29 30  1  0  0  0  0
 30 28  1  0  0  0  0
M  END
>  <MODEL>
8

>  <REMARK>
 VINA RESULT:      -7.5      3.231      7.244
  Name = 
  2 active torsions:
  status: ('A' for Active; 'I' for Inactive)
    1  A    between atoms: N_11  and  C_28
    2  A    between atoms: C_28  and  C_30
                            x       y       z     vdW  Elec       q    Type
                         _______ _______ _______ _____ _____    ______ ____

>  <TORSDO>
F 2

$$$$
=
 OpenBabel11112416143D

 30 35  0  0  1  0  0  0  0  0999 V2000
  191.2570  175.5610  143.6040 C   0  0  0  0  0  0  0  0  0  0  0  0
  189.6350  176.1890  145.4000 C   0  0  0  0  0  0  0  0  0  0  0  0
  194.5660  175.8630  146.2740 C   0  0  0  0  0  2  0  0  0  0  0  0
  192.6030  175.3440  143.2000 C   0  0  0  0  0  0  0  0  0  0  0  0
  190.1680  175.4170  142.5740 C   0  0  0  0  0  2  0  0  0  0  0  0
  192.0170  173.4960  140.1220 O   0  0  0  0  0  0  0  0  0  0  0  0
  195.0850  175.9680  141.5170 C   0  0  1  0  0  3  0  0  0  0  0  0
  191.7960  174.1660  141.1700 C   0  0  0  0  0  0  0  0  0  0  0  0
  195.7500  176.0420  142.8760 C   0  0  2  0  0  3  0  0  0  0  0  0
  195.6390  175.3720  145.2900 C   0  0  1  0  0  3  0  0  0  0  0  0
  190.4560  174.3350  141.6430 N   0  0  0  0  0  0  0  0  0  0  0  0
  192.8790  174.7740  141.8980 N   0  0  0  0  0  0  0  0  0  0  0  0
  189.4010  176.5330  146.7350 C   0  0  0  0  0  3  0  0  0  0  0  0
  197.0820  175.4160  142.6230 C   0  0  0  0  0  2  0  0  0  0  0  0
  196.0870  175.9800  140.5250 O   0  0  0  0  0  0  0  0  0  0  0  0
  188.5600  176.0920  144.5810 F   0  0  0  0  0  0  0  0  0  0  0  0
  193.3300  175.8540  145.4500 C   0  0  0  0  0  0  0  0  0  0  0  0
  190.4570  176.6450  147.6370 C   0  0  0  0  0  3  0  0  0  0  0  0
  190.9570  175.9490  144.9450 C   0  0  0  0  0  0  0  0  0  0  0  0
  193.6220  175.5510  144.1510 C   0  0  0  0  0  0  0  0  0  0  0  0
  196.0580  173.9620  145.6630 C   0  0  0  0  0  1  0  0  0  0  0  0
  195.0250  175.3700  143.9600 N   0  0  0  0  0  0  0  0  0  0  0  0
  197.3200  175.7380  141.1670 C   0  0  0  0  0  2  0  0  0  0  0  0
  194.6470  173.7380  140.7640 O   0  0  0  0  0  0  0  0  0  0  0  0
  191.7620  176.4160  147.2120 C   0  0  0  0  0  3  0  0  0  0  0  0
  192.0220  176.0750  145.8800 C   0  0  0  0  0  0  0  0  0  0  0  0
  194.2080  174.7630  141.3540 C   0  0  0  0  0  0  0  0  0  0  0  0
  189.3370  173.6550  141.0070 C   0  0  0  0  0  2  0  0  0  0  0  0
  189.3150  171.9160  142.7660 C   0  0  0  0  0  1  0  0  0  0  0  0
  188.4850  172.9640  142.0560 C   0  0  0  0  0  2  0  0  0  0  0  0
  1 19  1  0  0  0  0
  2 13  1  0  0  0  0
  4  1  2  0  0  0  0
  4 20  1  0  0  0  0
  5  1  1  0  0  0  0
  6  8  2  0  0  0  0
  7 15  1  6  0  0  0
  7  9  1  0  0  0  0
  8 11  1  0  0  0  0
  8 12  1  0  0  0  0
  9 14  1  6  0  0  0
  9 22  1  0  0  0  0
 10 21  1  1  0  0  0
 10  3  1  0  0  0  0
 11  5  1  0  0  0  0
 12  4  1  0  0  0  0
 13 18  2  0  0  0  0
 15 23  1  0  0  0  0
 16  2  1  0  0  0  0
 17 26  1  0  0  0  0
 17  3  1  0  0  0  0
 19  2  2  0  0  0  0
 19 26  1  0  0  0  0
 20 17  2  0  0  0  0
 22 20  1  0  0  0  0
 22 10  1  0  0  0  0
 23 14  1  0  0  0  0
 24 27  2  0  0  0  0
 25 18  1  0  0  0  0
 26 25  2  0  0  0  0
 27  7  1  0  0  0  0
 27 12  1  0  0  0  0
 28 11  1  0  0  0  0
 28 30  1  0  0  0  0
 30 29  1  0  0  0  0
M  END
>  <MODEL>
9

>  <REMARK>
 VINA RESULT:      -7.1      3.912      6.888
  Name = 
  2 active torsions:
  status: ('A' for Active; 'I' for Inactive)
    1  A    between atoms: N_11  and  C_28
    2  A    between atoms: C_28  and  C_30
                            x       y       z     vdW  Elec       q    Type
                         _______ _______ _______ _____ _____    ______ ____

>  <TORSDO>
F 2

$$$$
