=
 OpenBabel11112417393D

 28 32  0  0  1  0  0  0  0  0999 V2000
  190.2190  175.6770  144.5570 C   0  0  0  0  0  0  0  0  0  0  0  0
  185.3770  176.3500  145.9270 F   0  0  0  0  0  0  0  0  0  0  0  0
  188.1950  175.7700  140.1430 O   0  0  0  0  0  0  0  0  0  0  0  0
  191.1160  178.2070  143.7400 C   0  0  0  0  0  3  0  0  0  0  0  0
  186.5120  176.8990  141.4190 C   0  0  0  0  0  0  0  0  0  0  0  0
  189.7640  174.2990  144.9320 C   0  0  0  0  0  2  0  0  0  0  0  0
  186.6400  177.7130  147.3830 C   0  0  0  0  0  1  0  0  0  0  0  0
  185.9840  177.5930  146.0200 C   0  0  1  0  0  0  0  0  0  0  0  0
  184.4050  178.6820  144.4700 C   0  0  1  0  0  3  0  0  0  0  0  0
  187.0550  177.7840  144.9220 C   0  0  2  0  0  3  0  0  0  0  0  0
  190.4160  174.4880  141.8060 O   0  0  0  0  0  1  0  0  0  0  0  0
  187.0050  175.7970  143.4840 C   0  0  1  0  0  3  0  0  0  0  0  0
  185.4320  179.1490  143.6200 O   0  0  0  0  0  0  0  0  0  0  0  0
  184.8990  178.6590  145.9100 C   0  0  0  0  0  2  0  0  0  0  0  0
  189.6430  173.5220  142.4620 C   0  0  2  0  0  3  0  0  0  0  0  0
  189.2830  176.7080  144.3380 C   0  0  0  0  0  0  0  0  0  0  0  0
  187.5860  175.9650  141.2240 C   0  0  0  0  0  0  0  0  0  0  0  0
  183.2880  179.5020  144.3390 O   0  0  0  0  0  1  0  0  0  0  0  0
  188.1500  173.8180  142.3750 C   0  0  0  0  0  2  0  0  0  0  0  0
  189.7470  177.9630  143.8970 C   0  0  0  0  0  3  0  0  0  0  0  0
  191.5900  175.9370  144.4130 C   0  0  0  0  0  3  0  0  0  0  0  0
  192.0340  177.1920  144.0050 C   0  0  0  0  0  3  0  0  0  0  0  0
  190.1590  173.2540  143.8860 C   0  0  0  0  0  2  0  0  0  0  0  0
  186.0950  176.8820  142.8460 C   0  0  1  0  0  3  0  0  0  0  0  0
  187.8590  175.2510  142.4200 N   0  0  0  0  0  0  0  0  0  0  0  0
  186.4600  178.1720  143.5610 C   0  0  2  0  0  3  0  0  0  0  0  0
  185.8800  177.4650  140.4910 O   0  0  0  0  0  0  0  0  0  0  0  0
  187.8020  176.4830  144.6230 C   0  0  1  0  0  3  0  0  0  0  0  0
  1  6  1  0  0  0  0
  2  8  1  0  0  0  0
  3 17  2  0  0  0  0
  4 20  2  0  0  0  0
  4 22  1  0  0  0  0
  5 24  1  0  0  0  0
  8  7  1  1  0  0  0
  9 18  1  1  0  0  0
  9 14  1  0  0  0  0
 10  8  1  0  0  0  0
 11 15  1  0  0  0  0
 12 28  1  0  0  0  0
 13  9  1  0  0  0  0
 14  8  1  0  0  0  0
 15 23  1  0  0  0  0
 16  1  2  0  0  0  0
 16 28  1  0  0  0  0
 17  5  1  0  0  0  0
 17 25  1  0  0  0  0
 19 25  1  0  0  0  0
 19 15  1  0  0  0  0
 20 16  1  0  0  0  0
 21  1  1  0  0  0  0
 22 21  2  0  0  0  0
 23  6  1  0  0  0  0
 24 12  1  0  0  0  0
 24 26  1  0  0  0  0
 25 12  1  0  0  0  0
 26 13  1  0  0  0  0
 26 10  1  0  0  0  0
 27  5  2  0  0  0  0
 28 10  1  0  0  0  0
M  END
>  <MODEL>
1

>  <REMARK>
 VINA RESULT:      -8.9      0.000      0.000
  Name = 
  0 active torsions:
  status: ('A' for Active; 'I' for Inactive)
                            x       y       z     vdW  Elec       q    Type
                         _______ _______ _______ _____ _____    ______ ____

>  <TORSDO>
F 0

$$$$
=
 OpenBabel11112417393D

 28 32  0  0  1  0  0  0  0  0999 V2000
  190.1810  176.2410  145.0640 C   0  0  0  0  0  0  0  0  0  0  0  0
  185.2490  176.8370  144.0190 F   0  0  0  0  0  0  0  0  0  0  0  0
  190.0370  173.9460  140.7860 O   0  0  0  0  0  0  0  0  0  0  0  0
  191.5050  178.1680  143.5110 C   0  0  0  0  0  3  0  0  0  0  0  0
  188.0780  175.3120  140.6150 C   0  0  0  0  0  0  0  0  0  0  0  0
  189.5180  175.1630  145.8660 C   0  0  0  0  0  2  0  0  0  0  0  0
  185.9450  178.8830  144.9680 C   0  0  0  0  0  1  0  0  0  0  0  0
  185.8610  178.0420  143.7080 C   0  0  1  0  0  0  0  0  0  0  0  0
  185.0870  178.0380  141.3660 C   0  0  1  0  0  3  0  0  0  0  0  0
  187.2840  177.8250  143.1460 C   0  0  2  0  0  3  0  0  0  0  0  0
  191.3410  173.9210  143.5490 O   0  0  0  0  0  1  0  0  0  0  0  0
  187.6510  175.4070  142.9670 C   0  0  1  0  0  3  0  0  0  0  0  0
  186.3950  178.1740  140.8480 O   0  0  0  0  0  0  0  0  0  0  0  0
  184.9830  178.7710  142.6970 C   0  0  0  0  0  2  0  0  0  0  0  0
  190.3070  173.2930  144.2540 C   0  0  2  0  0  3  0  0  0  0  0  0
  189.4800  176.9070  144.0390 C   0  0  0  0  0  0  0  0  0  0  0  0
  189.0720  174.5510  141.3170 C   0  0  0  0  0  0  0  0  0  0  0  0
  184.1710  178.5400  140.4470 O   0  0  0  0  0  1  0  0  0  0  0  0
  188.9890  173.3100  143.4860 C   0  0  0  0  0  2  0  0  0  0  0  0
  190.1680  177.8490  143.2480 C   0  0  0  0  0  3  0  0  0  0  0  0
  191.5160  176.5800  145.3310 C   0  0  0  0  0  3  0  0  0  0  0  0
  192.1730  177.5350  144.5590 C   0  0  0  0  0  3  0  0  0  0  0  0
  190.2110  173.8080  145.7000 C   0  0  0  0  0  2  0  0  0  0  0  0
  187.1400  175.9230  141.5940 C   0  0  1  0  0  3  0  0  0  0  0  0
  188.8080  174.5380  142.7120 N   0  0  0  0  0  0  0  0  0  0  0  0
  187.2920  177.4340  141.6610 C   0  0  2  0  0  3  0  0  0  0  0  0
  187.8960  175.2780  139.3710 O   0  0  0  0  0  0  0  0  0  0  0  0
  187.9920  176.6520  143.8250 C   0  0  1  0  0  3  0  0  0  0  0  0
  1 21  1  0  0  0  0
  1  6  1  0  0  0  0
  3 17  2  0  0  0  0
  4 22  1  0  0  0  0
  5 17  1  0  0  0  0
  5 24  1  0  0  0  0
  8  2  1  0  0  0  0
  8  7  1  1  0  0  0
  9 18  1  6  0  0  0
  9 14  1  0  0  0  0
 10  8  1  0  0  0  0
 10 28  1  0  0  0  0
 11 15  1  0  0  0  0
 12 28  1  0  0  0  0
 13  9  1  0  0  0  0
 13 26  1  0  0  0  0
 14  8  1  0  0  0  0
 15 23  1  0  0  0  0
 16  1  2  0  0  0  0
 17 25  1  0  0  0  0
 19 15  1  0  0  0  0
 20  4  2  0  0  0  0
 20 16  1  0  0  0  0
 22 21  2  0  0  0  0
 23  6  1  0  0  0  0
 24 26  1  0  0  0  0
 24 12  1  0  0  0  0
 25 12  1  0  0  0  0
 25 19  1  0  0  0  0
 26 10  1  0  0  0  0
 27  5  2  0  0  0  0
 28 16  1  0  0  0  0
M  END
>  <MODEL>
2

>  <REMARK>
 VINA RESULT:      -8.4      1.538      2.111
  Name = 
  0 active torsions:
  status: ('A' for Active; 'I' for Inactive)
                            x       y       z     vdW  Elec       q    Type
                         _______ _______ _______ _____ _____    ______ ____

>  <TORSDO>
F 0

$$$$
=
 OpenBabel11112417393D

 28 32  0  0  1  0  0  0  0  0999 V2000
  190.9050  174.1290  142.9230 C   0  0  0  0  0  0  0  0  0  0  0  0
  187.9570  178.1150  144.0180 F   0  0  0  0  0  0  0  0  0  0  0  0
  193.1950  175.6840  146.9140 O   0  0  0  0  0  0  0  0  0  0  0  0
  190.0940  172.1020  144.6870 C   0  0  0  0  0  3  0  0  0  0  0  0
  191.0390  176.6740  147.2340 C   0  0  0  0  0  0  0  0  0  0  0  0
  191.4050  175.2010  142.0030 C   0  0  0  0  0  2  0  0  0  0  0  0
  186.4810  176.4140  143.3080 C   0  0  0  0  0  1  0  0  0  0  0  0
  187.2760  176.9920  144.4650 C   0  0  1  0  0  0  0  0  0  0  0  0
  187.1050  177.7980  146.7900 C   0  0  1  0  0  3  0  0  0  0  0  0
  188.2470  175.9170  145.0020 C   0  0  2  0  0  3  0  0  0  0  0  0
  193.6230  174.4120  144.1690 O   0  0  0  0  0  1  0  0  0  0  0  0
  190.5130  176.8510  144.9070 C   0  0  1  0  0  3  0  0  0  0  0  0
  187.7120  176.6390  147.3230 O   0  0  0  0  0  0  0  0  0  0  0  0
  186.2990  177.4330  145.5500 C   0  0  0  0  0  2  0  0  0  0  0  0
  193.5580  175.5780  143.3960 C   0  0  2  0  0  3  0  0  0  0  0  0
  190.0740  174.4510  144.0160 C   0  0  0  0  0  0  0  0  0  0  0  0
  192.1330  176.1690  146.4530 C   0  0  0  0  0  0  0  0  0  0  0  0
  186.2930  178.3810  147.7580 O   0  0  0  0  0  1  0  0  0  0  0  0
  192.9390  176.7450  144.1570 C   0  0  0  0  0  2  0  0  0  0  0  0
  189.7030  173.4270  144.9090 C   0  0  0  0  0  3  0  0  0  0  0  0
  191.2780  172.7950  142.6990 C   0  0  0  0  0  3  0  0  0  0  0  0
  190.8770  171.7910  143.5750 C   0  0  0  0  0  3  0  0  0  0  0  0
  192.9320  175.3100  142.0170 C   0  0  0  0  0  2  0  0  0  0  0  0
  189.9420  177.1070  146.3290 C   0  0  1  0  0  3  0  0  0  0  0  0
  191.8740  176.3180  145.0650 N   0  0  0  0  0  0  0  0  0  0  0  0
  188.7260  176.2000  146.4330 C   0  0  2  0  0  3  0  0  0  0  0  0
  191.0940  176.9220  148.4660 O   0  0  0  0  0  0  0  0  0  0  0  0
  189.5460  175.8700  144.1970 C   0  0  1  0  0  3  0  0  0  0  0  0
  1 16  1  0  0  0  0
  2  8  1  0  0  0  0
  4 20  1  0  0  0  0
  5 27  2  0  0  0  0
  6 23  1  0  0  0  0
  6  1  1  0  0  0  0
  8  7  1  6  0  0  0
  8 10  1  0  0  0  0
  8 14  1  0  0  0  0
  9 13  1  0  0  0  0
  9 18  1  1  0  0  0
 10 26  1  0  0  0  0
 12 25  1  0  0  0  0
 12 24  1  0  0  0  0
 14  9  1  0  0  0  0
 15 19  1  0  0  0  0
 15 11  1  0  0  0  0
 16 28  1  0  0  0  0
 16 20  2  0  0  0  0
 17  3  2  0  0  0  0
 17  5  1  0  0  0  0
 19 25  1  0  0  0  0
 21  1  2  0  0  0  0
 21 22  1  0  0  0  0
 22  4  2  0  0  0  0
 23 15  1  0  0  0  0
 24 26  1  0  0  0  0
 24  5  1  0  0  0  0
 25 17  1  0  0  0  0
 26 13  1  0  0  0  0
 28 12  1  0  0  0  0
 28 10  1  0  0  0  0
M  END
>  <MODEL>
3

>  <REMARK>
 VINA RESULT:      -8.2      2.939      4.897
  Name = 
  0 active torsions:
  status: ('A' for Active; 'I' for Inactive)
                            x       y       z     vdW  Elec       q    Type
                         _______ _______ _______ _____ _____    ______ ____

>  <TORSDO>
F 0

$$$$
=
 OpenBabel11112417393D

 28 32  0  0  1  0  0  0  0  0999 V2000
  189.4020  177.0050  145.1430 C   0  0  0  0  0  0  0  0  0  0  0  0
  194.3650  176.2890  144.3480 F   0  0  0  0  0  0  0  0  0  0  0  0
  189.1710  172.8400  142.6570 O   0  0  0  0  0  0  0  0  0  0  0  0
  188.7370  175.2910  147.2630 C   0  0  0  0  0  3  0  0  0  0  0  0
  191.4320  172.7550  143.4420 C   0  0  0  0  0  0  0  0  0  0  0  0
  189.7040  177.8930  143.9740 C   0  0  0  0  0  2  0  0  0  0  0  0
  194.1910  177.1070  146.5560 C   0  0  0  0  0  1  0  0  0  0  0  0
  194.1190  175.8900  145.6530 C   0  0  1  0  0  0  0  0  0  0  0  0
  194.9960  173.6100  145.3140 C   0  0  1  0  0  3  0  0  0  0  0  0
  192.7250  175.2380  145.7910 C   0  0  2  0  0  3  0  0  0  0  0  0
  187.7510  175.5020  143.1340 O   0  0  0  0  0  1  0  0  0  0  0  0
  191.7320  175.1260  143.5510 C   0  0  1  0  0  3  0  0  0  0  0  0
  193.8060  172.9960  145.7630 O   0  0  0  0  0  0  0  0  0  0  0  0
  195.2170  174.9160  146.0660 C   0  0  0  0  0  2  0  0  0  0  0  0
  188.5370  176.3020  142.2940 C   0  0  2  0  0  3  0  0  0  0  0  0
  190.3150  176.0070  145.5410 C   0  0  0  0  0  0  0  0  0  0  0  0
  190.2310  173.4140  143.0130 C   0  0  0  0  0  0  0  0  0  0  0  0
  196.0650  172.7390  145.5020 O   0  0  0  0  0  1  0  0  0  0  0  0
  189.8520  175.6290  141.9180 C   0  0  0  0  0  2  0  0  0  0  0  0
  189.9520  175.1350  146.5860 C   0  0  0  0  0  3  0  0  0  0  0  0
  188.1940  177.1650  145.8390 C   0  0  0  0  0  3  0  0  0  0  0  0
  187.8640  176.3120  146.8890 C   0  0  0  0  0  3  0  0  0  0  0  0
  188.6840  177.7300  142.8450 C   0  0  0  0  0  2  0  0  0  0  0  0
  192.4410  173.7740  143.8360 C   0  0  1  0  0  3  0  0  0  0  0  0
  190.4000  174.8230  143.0080 N   0  0  0  0  0  0  0  0  0  0  0  0
  192.6980  173.7710  145.3340 C   0  0  2  0  0  3  0  0  0  0  0  0
  191.6690  171.5290  143.2920 O   0  0  0  0  0  0  0  0  0  0  0  0
  191.6900  175.9090  144.8880 C   0  0  1  0  0  3  0  0  0  0  0  0
  1 16  2  0  0  0  0
  1 21  1  0  0  0  0
  2  8  1  0  0  0  0
  3 17  2  0  0  0  0
  5 24  1  0  0  0  0
  6  1  1  0  0  0  0
  8 10  1  0  0  0  0
  8 14  1  0  0  0  0
  8  7  1  1  0  0  0
  9 18  1  1  0  0  0
  9 13  1  0  0  0  0
  9 14  1  0  0  0  0
 12 24  1  0  0  0  0
 12 28  1  0  0  0  0
 15 23  1  0  0  0  0
 15 11  1  0  0  0  0
 16 20  1  0  0  0  0
 17  5  1  0  0  0  0
 19 15  1  0  0  0  0
 19 25  1  0  0  0  0
 20  4  2  0  0  0  0
 21 22  2  0  0  0  0
 22  4  1  0  0  0  0
 23  6  1  0  0  0  0
 24 26  1  0  0  0  0
 25 17  1  0  0  0  0
 25 12  1  0  0  0  0
 26 13  1  0  0  0  0
 26 10  1  0  0  0  0
 27  5  2  0  0  0  0
 28 16  1  0  0  0  0
 28 10  1  0  0  0  0
M  END
>  <MODEL>
4

>  <REMARK>
 VINA RESULT:      -8.2      3.257      6.803
  Name = 
  0 active torsions:
  status: ('A' for Active; 'I' for Inactive)
                            x       y       z     vdW  Elec       q    Type
                         _______ _______ _______ _____ _____    ______ ____

>  <TORSDO>
F 0

$$$$
=
 OpenBabel11112417393D

 28 32  0  0  1  0  0  0  0  0999 V2000
  190.5990  174.7360  142.4920 C   0  0  0  0  0  0  0  0  0  0  0  0
  187.6640  178.8610  142.1060 F   0  0  0  0  0  0  0  0  0  0  0  0
  189.3830  175.2330  147.1670 O   0  0  0  0  0  0  0  0  0  0  0  0
  188.8180  172.5770  142.6910 C   0  0  0  0  0  3  0  0  0  0  0  0
  187.6100  176.4570  146.1220 C   0  0  0  0  0  0  0  0  0  0  0  0
  191.5820  175.8650  142.4430 C   0  0  0  0  0  2  0  0  0  0  0  0
  187.1490  177.5410  140.2180 C   0  0  0  0  0  1  0  0  0  0  0  0
  186.8870  177.7900  141.6910 C   0  0  1  0  0  0  0  0  0  0  0  0
  185.1120  178.2010  143.3550 C   0  0  1  0  0  3  0  0  0  0  0  0
  187.2170  176.5090  142.4900 C   0  0  2  0  0  3  0  0  0  0  0  0
  191.6440  174.4030  145.2870 O   0  0  0  0  0  1  0  0  0  0  0  0
  188.8740  177.1050  144.1970 C   0  0  1  0  0  3  0  0  0  0  0  0
  185.1880  176.8920  143.8810 O   0  0  0  0  0  0  0  0  0  0  0  0
  185.4210  178.1750  141.8630 C   0  0  0  0  0  2  0  0  0  0  0  0
  192.1220  175.6810  144.9720 C   0  0  2  0  0  3  0  0  0  0  0  0
  189.2340  174.9830  142.7430 C   0  0  0  0  0  0  0  0  0  0  0  0
  188.9450  175.9400  146.2250 C   0  0  0  0  0  0  0  0  0  0  0  0
  183.8440  178.7220  143.5920 O   0  0  0  0  0  1  0  0  0  0  0  0
  191.1240  176.7770  145.3300 C   0  0  0  0  0  2  0  0  0  0  0  0
  188.3590  173.8860  142.8720 C   0  0  0  0  0  3  0  0  0  0  0  0
  191.0460  173.4200  142.2950 C   0  0  0  0  0  3  0  0  0  0  0  0
  190.1620  172.3500  142.3960 C   0  0  0  0  0  3  0  0  0  0  0  0
  192.6540  175.7470  143.5300 C   0  0  0  0  0  2  0  0  0  0  0  0
  187.4620  177.1930  144.8390 C   0  0  1  0  0  3  0  0  0  0  0  0
  189.7370  176.3610  145.1250 N   0  0  0  0  0  0  0  0  0  0  0  0
  186.5430  176.4690  143.8690 C   0  0  2  0  0  3  0  0  0  0  0  0
  186.7760  176.4790  147.0640 O   0  0  0  0  0  0  0  0  0  0  0  0
  188.7060  176.4120  142.8210 C   0  0  1  0  0  3  0  0  0  0  0  0
  1 16  1  0  0  0  0
  4 20  1  0  0  0  0
  5 17  1  0  0  0  0
  5 27  2  0  0  0  0
  6  1  1  0  0  0  0
  6 23  1  0  0  0  0
  8  7  1  6  0  0  0
  8 14  1  0  0  0  0
  8  2  1  0  0  0  0
  8 10  1  0  0  0  0
  9 18  1  6  0  0  0
  9 13  1  0  0  0  0
 10 28  1  0  0  0  0
 10 26  1  0  0  0  0
 12 24  1  0  0  0  0
 12 25  1  0  0  0  0
 14  9  1  0  0  0  0
 15 11  1  0  0  0  0
 15 19  1  0  0  0  0
 16 28  1  0  0  0  0
 16 20  2  0  0  0  0
 17  3  2  0  0  0  0
 21 22  1  0  0  0  0
 21  1  2  0  0  0  0
 22  4  2  0  0  0  0
 23 15  1  0  0  0  0
 24  5  1  0  0  0  0
 25 19  1  0  0  0  0
 25 17  1  0  0  0  0
 26 13  1  0  0  0  0
 26 24  1  0  0  0  0
 28 12  1  0  0  0  0
M  END
>  <MODEL>
5

>  <REMARK>
 VINA RESULT:      -8.1      2.306      4.219
  Name = 
  0 active torsions:
  status: ('A' for Active; 'I' for Inactive)
                            x       y       z     vdW  Elec       q    Type
                         _______ _______ _______ _____ _____    ______ ____

>  <TORSDO>
F 0

$$$$
=
 OpenBabel11112417393D

 28 32  0  0  1  0  0  0  0  0999 V2000
  188.7690  177.1480  144.4910 C   0  0  0  0  0  0  0  0  0  0  0  0
  193.4920  175.8140  143.1900 F   0  0  0  0  0  0  0  0  0  0  0  0
  187.7910  172.8810  142.3880 O   0  0  0  0  0  0  0  0  0  0  0  0
  188.1910  175.6660  146.8030 C   0  0  0  0  0  3  0  0  0  0  0  0
  190.1090  172.5890  142.9120 C   0  0  0  0  0  0  0  0  0  0  0  0
  189.0170  177.9160  143.2280 C   0  0  0  0  0  2  0  0  0  0  0  0
  193.6790  176.7910  145.3310 C   0  0  0  0  0  1  0  0  0  0  0  0
  193.3660  175.5330  144.5420 C   0  0  1  0  0  0  0  0  0  0  0  0
  193.9480  173.1490  144.2870 C   0  0  1  0  0  3  0  0  0  0  0  0
  191.9390  175.0560  144.8910 C   0  0  2  0  0  3  0  0  0  0  0  0
  186.7320  175.7160  142.8120 O   0  0  0  0  0  1  0  0  0  0  0  0
  190.6720  174.9110  142.7960 C   0  0  1  0  0  3  0  0  0  0  0  0
  192.7630  172.7080  144.9170 O   0  0  0  0  0  0  0  0  0  0  0  0
  194.3970  174.4680  144.9020 C   0  0  0  0  0  2  0  0  0  0  0  0
  187.4890  176.3620  141.8260 C   0  0  2  0  0  3  0  0  0  0  0  0
  189.6120  176.0800  144.8590 C   0  0  0  0  0  0  0  0  0  0  0  0
  188.9410  173.3520  142.5720 C   0  0  0  0  0  0  0  0  0  0  0  0
  194.9330  172.1760  144.4190 O   0  0  0  0  0  1  0  0  0  0  0  0
  188.6690  175.5190  141.3550 C   0  0  0  0  0  2  0  0  0  0  0  0
  189.2890  175.3260  146.0050 C   0  0  0  0  0  3  0  0  0  0  0  0
  187.6800  177.4910  145.3070 C   0  0  0  0  0  3  0  0  0  0  0  0
  187.3930  176.7540  146.4520 C   0  0  0  0  0  3  0  0  0  0  0  0
  187.8540  177.7970  142.2400 C   0  0  0  0  0  2  0  0  0  0  0  0
  191.2620  173.5080  143.1040 C   0  0  1  0  0  3  0  0  0  0  0  0
  189.2580  174.7290  142.4360 N   0  0  0  0  0  0  0  0  0  0  0  0
  191.6990  173.5760  144.5580 C   0  0  2  0  0  3  0  0  0  0  0  0
  190.1940  171.3360  142.8330 O   0  0  0  0  0  0  0  0  0  0  0  0
  190.8780  175.7810  144.0630 C   0  0  1  0  0  3  0  0  0  0  0  0
  1 16  2  0  0  0  0
  1 21  1  0  0  0  0
  2  8  1  0  0  0  0
  3 17  2  0  0  0  0
  5 24  1  0  0  0  0
  6  1  1  0  0  0  0
  8 10  1  0  0  0  0
  8 14  1  0  0  0  0
  8  7  1  1  0  0  0
  9 18  1  1  0  0  0
  9 14  1  0  0  0  0
  9 13  1  0  0  0  0
 12 24  1  0  0  0  0
 12 28  1  0  0  0  0
 15 23  1  0  0  0  0
 15 11  1  0  0  0  0
 16 20  1  0  0  0  0
 17  5  1  0  0  0  0
 19 15  1  0  0  0  0
 19 25  1  0  0  0  0
 20  4  2  0  0  0  0
 21 22  2  0  0  0  0
 22  4  1  0  0  0  0
 23  6  1  0  0  0  0
 24 26  1  0  0  0  0
 25 17  1  0  0  0  0
 25 12  1  0  0  0  0
 26 10  1  0  0  0  0
 26 13  1  0  0  0  0
 27  5  2  0  0  0  0
 28 16  1  0  0  0  0
 28 10  1  0  0  0  0
M  END
>  <MODEL>
6

>  <REMARK>
 VINA RESULT:      -7.9      2.791      6.373
  Name = 
  0 active torsions:
  status: ('A' for Active; 'I' for Inactive)
                            x       y       z     vdW  Elec       q    Type
                         _______ _______ _______ _____ _____    ______ ____

>  <TORSDO>
F 0

$$$$
=
 OpenBabel11112417393D

 28 32  0  0  1  0  0  0  0  0999 V2000
  189.8180  175.1190  146.8200 C   0  0  0  0  0  0  0  0  0  0  0  0
  185.0810  176.0520  145.2480 F   0  0  0  0  0  0  0  0  0  0  0  0
  190.8210  176.8320  142.3880 O   0  0  0  0  0  0  0  0  0  0  0  0
  190.8560  177.6180  147.5630 C   0  0  0  0  0  3  0  0  0  0  0  0
  188.6390  177.7590  142.7310 C   0  0  0  0  0  0  0  0  0  0  0  0
  189.3200  173.7750  146.3820 C   0  0  0  0  0  2  0  0  0  0  0  0
  185.1360  176.7120  147.5140 C   0  0  0  0  0  1  0  0  0  0  0  0
  185.4300  177.1060  146.0790 C   0  0  1  0  0  0  0  0  0  0  0  0
  185.0170  178.8310  144.3640 C   0  0  1  0  0  3  0  0  0  0  0  0
  186.9290  177.4590  145.9460 C   0  0  2  0  0  3  0  0  0  0  0  0
  191.6920  174.7990  144.4950 O   0  0  0  0  0  1  0  0  0  0  0  0
  187.8750  176.0270  144.1930 C   0  0  1  0  0  3  0  0  0  0  0  0
  186.3160  179.3750  144.4810 O   0  0  0  0  0  0  0  0  0  0  0  0
  184.5570  178.3030  145.7170 C   0  0  0  0  0  2  0  0  0  0  0  0
  190.7450  173.8050  144.2170 C   0  0  2  0  0  3  0  0  0  0  0  0
  189.1310  176.2940  146.4510 C   0  0  0  0  0  0  0  0  0  0  0  0
  189.6760  176.7800  142.9030 C   0  0  0  0  0  0  0  0  0  0  0  0
  184.1480  179.8070  143.8880 O   0  0  0  0  0  1  0  0  0  0  0  0
  189.5830  174.3290  143.3820 C   0  0  0  0  0  2  0  0  0  0  0  0
  189.6830  177.5410  146.8050 C   0  0  0  0  0  3  0  0  0  0  0  0
  190.9850  175.2070  147.5950 C   0  0  0  0  0  3  0  0  0  0  0  0
  191.5000  176.4470  147.9610 C   0  0  0  0  0  3  0  0  0  0  0  0
  190.3280  173.0470  145.4890 C   0  0  0  0  0  2  0  0  0  0  0  0
  187.4560  177.3750  143.5450 C   0  0  1  0  0  3  0  0  0  0  0  0
  189.2290  175.7070  143.7180 N   0  0  0  0  0  0  0  0  0  0  0  0
  187.2380  178.3220  144.7140 C   0  0  2  0  0  3  0  0  0  0  0  0
  188.6480  178.6660  141.8580 O   0  0  0  0  0  0  0  0  0  0  0  0
  187.7900  176.2140  145.7300 C   0  0  1  0  0  3  0  0  0  0  0  0
  1 21  1  0  0  0  0
  2  8  1  0  0  0  0
  3 17  2  0  0  0  0
  4 22  1  0  0  0  0
  5 17  1  0  0  0  0
  5 24  1  0  0  0  0
  6  1  1  0  0  0  0
  8  7  1  1  0  0  0
  9 18  1  1  0  0  0
  9 13  1  0  0  0  0
  9 14  1  0  0  0  0
 10  8  1  0  0  0  0
 12 28  1  0  0  0  0
 13 26  1  0  0  0  0
 14  8  1  0  0  0  0
 15 11  1  0  0  0  0
 15 23  1  0  0  0  0
 16 20  1  0  0  0  0
 16  1  2  0  0  0  0
 17 25  1  0  0  0  0
 19 25  1  0  0  0  0
 19 15  1  0  0  0  0
 20  4  2  0  0  0  0
 21 22  2  0  0  0  0
 23  6  1  0  0  0  0
 24 12  1  0  0  0  0
 24 26  1  0  0  0  0
 25 12  1  0  0  0  0
 26 10  1  0  0  0  0
 27  5  2  0  0  0  0
 28 10  1  0  0  0  0
 28 16  1  0  0  0  0
M  END
>  <MODEL>
7

>  <REMARK>
 VINA RESULT:      -7.5      1.939      2.252
  Name = 
  0 active torsions:
  status: ('A' for Active; 'I' for Inactive)
                            x       y       z     vdW  Elec       q    Type
                         _______ _______ _______ _____ _____    ______ ____

>  <TORSDO>
F 0

$$$$
=
 OpenBabel11112417393D

 28 32  0  0  1  0  0  0  0  0999 V2000
  187.2900  176.6720  143.3760 C   0  0  0  0  0  0  0  0  0  0  0  0
  189.3540  172.1650  144.4720 F   0  0  0  0  0  0  0  0  0  0  0  0
  189.8700  177.9570  147.2850 O   0  0  0  0  0  0  0  0  0  0  0  0
  189.3160  178.1190  142.0820 C   0  0  0  0  0  3  0  0  0  0  0  0
  191.0270  175.9650  146.6340 C   0  0  0  0  0  0  0  0  0  0  0  0
  186.2000  175.9540  144.1120 C   0  0  0  0  0  2  0  0  0  0  0  0
  189.4070  172.3280  142.1170 C   0  0  0  0  0  1  0  0  0  0  0  0
  190.0940  172.6870  143.4210 C   0  0  1  0  0  0  0  0  0  0  0  0
  192.2370  172.5750  144.6380 C   0  0  1  0  0  3  0  0  0  0  0  0
  190.2170  174.2240  143.5250 C   0  0  2  0  0  3  0  0  0  0  0  0
  187.2580  178.4680  145.7840 O   0  0  0  0  0  1  0  0  0  0  0  0
  189.1340  174.9160  145.6150 C   0  0  1  0  0  3  0  0  0  0  0  0
  192.5130  173.9470  144.4440 O   0  0  0  0  0  0  0  0  0  0  0  0
  191.4700  172.0300  143.4400 C   0  0  0  0  0  2  0  0  0  0  0  0
  186.5350  177.3660  146.2590 C   0  0  2  0  0  3  0  0  0  0  0  0
  188.6160  176.1950  143.4140 C   0  0  0  0  0  0  0  0  0  0  0  0
  189.8790  176.8200  146.7520 C   0  0  0  0  0  0  0  0  0  0  0  0
  193.4300  171.8850  144.8220 O   0  0  0  0  0  1  0  0  0  0  0  0
  187.4360  176.3110  146.8900 C   0  0  0  0  0  2  0  0  0  0  0  0
  189.6260  176.9510  142.7860 C   0  0  0  0  0  3  0  0  0  0  0  0
  186.9870  177.8360  142.6530 C   0  0  0  0  0  3  0  0  0  0  0  0
  187.9930  178.5540  142.0130 C   0  0  0  0  0  3  0  0  0  0  0  0
  185.5620  176.8250  145.1980 C   0  0  0  0  0  2  0  0  0  0  0  0
  190.6510  174.7330  145.8910 C   0  0  1  0  0  3  0  0  0  0  0  0
  188.7250  176.1960  146.2100 N   0  0  0  0  0  0  0  0  0  0  0  0
  191.2990  174.6760  144.5170 C   0  0  2  0  0  3  0  0  0  0  0  0
  192.1090  176.1280  147.2550 O   0  0  0  0  0  0  0  0  0  0  0  0
  188.9410  174.8610  144.0770 C   0  0  1  0  0  3  0  0  0  0  0  0
  1 16  1  0  0  0  0
  1  6  1  0  0  0  0
  4 20  1  0  0  0  0
  5 17  1  0  0  0  0
  5 27  2  0  0  0  0
  6 23  1  0  0  0  0
  8  7  1  6  0  0  0
  8 14  1  0  0  0  0
  8 10  1  0  0  0  0
  8  2  1  0  0  0  0
  9 18  1  6  0  0  0
 10 28  1  0  0  0  0
 10 26  1  0  0  0  0
 11 15  1  0  0  0  0
 12 24  1  0  0  0  0
 12 25  1  0  0  0  0
 13 26  1  0  0  0  0
 13  9  1  0  0  0  0
 14  9  1  0  0  0  0
 15 19  1  0  0  0  0
 16 28  1  0  0  0  0
 17  3  2  0  0  0  0
 20 16  2  0  0  0  0
 21  1  2  0  0  0  0
 22  4  2  0  0  0  0
 22 21  1  0  0  0  0
 23 15  1  0  0  0  0
 24  5  1  0  0  0  0
 25 17  1  0  0  0  0
 25 19  1  0  0  0  0
 26 24  1  0  0  0  0
 28 12  1  0  0  0  0
M  END
>  <MODEL>
8

>  <REMARK>
 VINA RESULT:      -7.3      2.779      6.449
  Name = 
  0 active torsions:
  status: ('A' for Active; 'I' for Inactive)
                            x       y       z     vdW  Elec       q    Type
                         _______ _______ _______ _____ _____    ______ ____

>  <TORSDO>
F 0

$$$$
=
 OpenBabel11112417393D

 28 32  0  0  1  0  0  0  0  0999 V2000
  194.1640  173.9260  145.0170 C   0  0  0  0  0  0  0  0  0  0  0  0
  189.7620  175.0660  147.2760 F   0  0  0  0  0  0  0  0  0  0  0  0
  191.1790  173.2010  141.2550 O   0  0  0  0  0  0  0  0  0  0  0  0
  194.8320  176.1980  143.5100 C   0  0  0  0  0  3  0  0  0  0  0  0
  189.8270  174.6360  142.6150 C   0  0  0  0  0  0  0  0  0  0  0  0
  193.8160  172.6750  145.7630 C   0  0  0  0  0  2  0  0  0  0  0  0
  191.3180  176.6430  148.0920 C   0  0  0  0  0  1  0  0  0  0  0  0
  190.3670  176.2760  146.9690 C   0  0  1  0  0  0  0  0  0  0  0  0
  188.4660  177.0910  145.6250 C   0  0  1  0  0  3  0  0  0  0  0  0
  191.1550  176.1930  145.6420 C   0  0  2  0  0  3  0  0  0  0  0  0
  193.7300  172.1950  142.6020 O   0  0  0  0  0  1  0  0  0  0  0  0
  190.7880  173.9590  144.6990 C   0  0  1  0  0  3  0  0  0  0  0  0
  189.2670  177.3310  144.4860 O   0  0  0  0  0  0  0  0  0  0  0  0
  189.2780  177.3410  146.8880 C   0  0  0  0  0  2  0  0  0  0  0  0
  193.1350  171.4160  143.6020 C   0  0  2  0  0  3  0  0  0  0  0  0
  193.1950  174.9290  144.8060 C   0  0  0  0  0  0  0  0  0  0  0  0
  190.8330  173.6380  142.3810 C   0  0  0  0  0  0  0  0  0  0  0  0
  187.3440  177.9120  145.5820 O   0  0  0  0  0  1  0  0  0  0  0  0
  191.6600  171.7500  143.7950 C   0  0  0  0  0  2  0  0  0  0  0  0
  193.5380  176.0470  144.0200 C   0  0  0  0  0  3  0  0  0  0  0  0
  195.4640  174.0950  144.5150 C   0  0  0  0  0  3  0  0  0  0  0  0
  195.7940  175.2210  143.7660 C   0  0  0  0  0  3  0  0  0  0  0  0
  193.9670  171.4220  144.8960 C   0  0  0  0  0  2  0  0  0  0  0  0
  189.7490  174.9280  144.0710 C   0  0  1  0  0  3  0  0  0  0  0  0
  191.3790  173.1720  143.6060 N   0  0  0  0  0  0  0  0  0  0  0  0
  190.2600  176.3210  144.4010 C   0  0  2  0  0  3  0  0  0  0  0  0
  188.9940  175.0270  141.7580 O   0  0  0  0  0  0  0  0  0  0  0  0
  191.8210  174.8290  145.4590 C   0  0  1  0  0  3  0  0  0  0  0  0
  1  6  1  0  0  0  0
  3 17  2  0  0  0  0
  4 22  2  0  0  0  0
  4 20  1  0  0  0  0
  5 24  1  0  0  0  0
  8  2  1  0  0  0  0
  8  7  1  1  0  0  0
  9 18  1  6  0  0  0
  9 14  1  0  0  0  0
 10  8  1  0  0  0  0
 11 15  1  0  0  0  0
 12 28  1  0  0  0  0
 13  9  1  0  0  0  0
 14  8  1  0  0  0  0
 15 19  1  0  0  0  0
 15 23  1  0  0  0  0
 16  1  1  0  0  0  0
 16 28  1  0  0  0  0
 17  5  1  0  0  0  0
 17 25  1  0  0  0  0
 20 16  2  0  0  0  0
 21  1  2  0  0  0  0
 22 21  1  0  0  0  0
 23  6  1  0  0  0  0
 24 26  1  0  0  0  0
 24 12  1  0  0  0  0
 25 19  1  0  0  0  0
 25 12  1  0  0  0  0
 26 13  1  0  0  0  0
 26 10  1  0  0  0  0
 27  5  2  0  0  0  0
 28 10  1  0  0  0  0
M  END
>  <MODEL>
9

>  <REMARK>
 VINA RESULT:      -7.2      2.950      4.369
  Name = 
  0 active torsions:
  status: ('A' for Active; 'I' for Inactive)
                            x       y       z     vdW  Elec       q    Type
                         _______ _______ _______ _____ _____    ______ ____

>  <TORSDO>
F 0

$$$$
