=
 OpenBabel11112416453D

 31 35  0  0  1  0  0  0  0  0999 V2000
  194.4230  176.4170  144.7680 C   0  0  0  0  0  0  0  0  0  0  0  0
  190.9310  176.9050  143.3370 C   0  0  2  0  0  3  0  0  0  0  0  0
  190.6160  175.6470  142.5360 C   0  0  0  0  0  0  0  0  0  0  0  0
  191.3990  173.7040  141.2900 C   0  0  0  0  0  0  0  0  0  0  0  0
  192.0510  176.7160  144.3370 C   0  0  0  0  0  0  0  0  0  0  0  0
  194.1630  176.2810  146.1320 C   0  0  0  0  0  3  0  0  0  0  0  0
  191.6590  174.8170  142.0930 C   0  0  0  0  0  3  0  0  0  0  0  0
  189.3070  176.7370  145.2640 C   0  0  2  0  0  3  0  0  0  0  0  0
  195.7270  176.3310  144.2980 O   0  0  0  0  0  1  0  0  0  0  0  0
  188.1240  176.1950  142.5410 C   0  0  0  0  0  2  0  0  0  0  0  0
  192.4430  172.8880  140.8770 O   0  0  0  0  0  1  0  0  0  0  0  0
  190.4270  176.8260  146.2990 C   0  0  0  0  0  2  0  0  0  0  0  0
  189.6870  177.5230  143.9990 C   0  0  2  0  0  3  0  0  0  0  0  0
  193.3730  176.6370  143.8750 C   0  0  0  0  0  3  0  0  0  0  0  0
  190.0920  173.4170  140.9000 C   0  0  0  0  0  3  0  0  0  0  0  0
  191.7930  176.5880  145.7210 C   0  0  0  0  0  0  0  0  0  0  0  0
  192.8540  176.3780  146.6070 C   0  0  0  0  0  3  0  0  0  0  0  0
  188.5410  177.5920  142.9890 C   0  0  0  0  0  2  0  0  0  0  0  0
  189.2970  175.3680  142.1020 C   0  0  0  0  0  0  0  0  0  0  0  0
  189.0450  174.2460  141.3060 C   0  0  0  0  0  3  0  0  0  0  0  0
  187.8010  175.4990  147.3430 O   0  0  0  0  0  0  0  0  0  0  0  0
  187.3730  176.5950  146.8870 C   0  0  0  0  0  0  0  0  0  0  0  0
  188.0770  177.2630  145.8400 N   0  0  0  0  0  2  0  0  0  0  0  0
  185.3930  179.0300  145.2900 C   0  0  0  0  0  0  0  0  0  0  0  0
  184.9000  176.8910  146.5070 C   0  0  0  0  0  2  0  0  0  0  0  0
  187.2850  179.0140  148.5720 N   0  0  0  0  0  1  0  0  0  0  0  0
  185.2430  179.8640  144.0660 C   0  0  0  0  0  1  0  0  0  0  0  0
  184.8060  177.8220  145.3220 C   0  0  0  0  0  3  0  0  0  0  0  0
  186.1900  178.7040  147.6680 C   0  0  2  0  0  3  0  0  0  0  0  0
  186.0990  177.1960  147.4080 C   0  0  2  0  0  3  0  0  0  0  0  0
  186.3390  179.4960  146.3690 C   0  0  0  0  0  2  0  0  0  0  0  0
  1  6  1  0  0  0  0
  2  3  1  1  0  0  0
  2 13  1  0  0  0  0
  2  5  1  0  0  0  0
  4  7  1  0  0  0  0
  5 16  2  0  0  0  0
  6 17  2  0  0  0  0
  7  3  2  0  0  0  0
  8 23  1  1  0  0  0
  8 12  1  0  0  0  0
  9  1  1  0  0  0  0
 10 18  1  0  0  0  0
 11  4  1  0  0  0  0
 13 18  1  6  0  0  0
 13  8  1  0  0  0  0
 14  5  1  0  0  0  0
 14  1  2  0  0  0  0
 15  4  2  0  0  0  0
 15 20  1  0  0  0  0
 16 12  1  0  0  0  0
 16 17  1  0  0  0  0
 19  3  1  0  0  0  0
 19 10  1  0  0  0  0
 20 19  2  0  0  0  0
 22 21  2  0  0  0  0
 23 22  1  0  0  0  0
 24 28  2  0  0  0  0
 24 31  1  0  0  0  0
 25 30  1  0  0  0  0
 27 24  1  0  0  0  0
 28 25  1  0  0  0  0
 29 26  1  1  0  0  0
 30 22  1  6  0  0  0
 30 29  1  0  0  0  0
 31 29  1  0  0  0  0
M  END
>  <MODEL>
1

>  <REMARK>
 VINA RESULT:      -9.3      0.000      0.000
  Name = 
  2 active torsions:
  status: ('A' for Active; 'I' for Inactive)
    1  A    between atoms: C_5  and  C_30
    2  A    between atoms: C_10  and  N_16
                            x       y       z     vdW  Elec       q    Type
                         _______ _______ _______ _____ _____    ______ ____

>  <TORSDO>
F 2

$$$$
=
 OpenBabel11112416453D

 31 35  0  0  1  0  0  0  0  0999 V2000
  185.0070  178.0760  146.8410 C   0  0  0  0  0  0  0  0  0  0  0  0
  187.5790  175.7740  145.2390 C   0  0  2  0  0  3  0  0  0  0  0  0
  187.5970  176.1190  143.7540 C   0  0  0  0  0  0  0  0  0  0  0  0
  186.4640  177.0370  141.8010 C   0  0  0  0  0  0  0  0  0  0  0  0
  186.9780  176.8630  146.1010 C   0  0  0  0  0  0  0  0  0  0  0  0
  185.8090  178.9190  147.6120 C   0  0  0  0  0  3  0  0  0  0  0  0
  186.5050  176.7840  143.1740 C   0  0  0  0  0  3  0  0  0  0  0  0
  189.8560  176.5590  146.0000 C   0  0  2  0  0  3  0  0  0  0  0  0
  183.6310  178.2580  146.8170 O   0  0  0  0  0  1  0  0  0  0  0  0
  189.8440  174.9490  143.4470 C   0  0  0  0  0  2  0  0  0  0  0  0
  185.3830  177.7100  141.2520 O   0  0  0  0  0  1  0  0  0  0  0  0
  189.2560  177.4640  147.0740 C   0  0  0  0  0  2  0  0  0  0  0  0
  188.9560  175.3360  145.7700 C   0  0  2  0  0  3  0  0  0  0  0  0
  185.5880  177.0510  146.0920 C   0  0  0  0  0  3  0  0  0  0  0  0
  187.5090  176.6100  140.9840 C   0  0  0  0  0  3  0  0  0  0  0  0
  187.7860  177.7120  146.8900 C   0  0  0  0  0  0  0  0  0  0  0  0
  187.1920  178.7290  147.6440 C   0  0  0  0  0  3  0  0  0  0  0  0
  189.5830  174.3210  144.8130 C   0  0  0  0  0  2  0  0  0  0  0  0
  188.6350  175.6550  142.9080 C   0  0  0  0  0  0  0  0  0  0  0  0
  188.5900  175.9220  141.5360 C   0  0  0  0  0  3  0  0  0  0  0  0
  192.2780  177.1850  144.6340 O   0  0  0  0  0  0  0  0  0  0  0  0
  192.3650  176.4940  145.6860 C   0  0  0  0  0  0  0  0  0  0  0  0
  191.1890  176.1390  146.4140 N   0  0  0  0  0  2  0  0  0  0  0  0
  195.2840  176.0970  143.7570 C   0  0  0  0  0  0  0  0  0  0  0  0
  194.7980  177.0540  146.0240 C   0  0  0  0  0  2  0  0  0  0  0  0
  193.1400  173.6480  145.6960 N   0  0  0  0  0  1  0  0  0  0  0  0
  195.8780  176.2650  142.4010 C   0  0  0  0  0  1  0  0  0  0  0  0
  195.3720  177.1140  144.6290 C   0  0  0  0  0  3  0  0  0  0  0  0
  194.1420  174.6850  145.5170 C   0  0  2  0  0  3  0  0  0  0  0  0
  193.6980  176.0000  146.1700 C   0  0  2  0  0  3  0  0  0  0  0  0
  194.4550  174.8660  144.0320 C   0  0  0  0  0  2  0  0  0  0  0  0
  1  6  1  0  0  0  0
  2  3  1  6  0  0  0
  2 13  1  0  0  0  0
  2  5  1  0  0  0  0
  4  7  2  0  0  0  0
  5 16  2  0  0  0  0
  6 17  2  0  0  0  0
  7  3  1  0  0  0  0
  8 23  1  1  0  0  0
  8 12  1  0  0  0  0
  9  1  1  0  0  0  0
 10 18  1  0  0  0  0
 11  4  1  0  0  0  0
 13 18  1  6  0  0  0
 13  8  1  0  0  0  0
 14  5  1  0  0  0  0
 14  1  2  0  0  0  0
 15 20  2  0  0  0  0
 15  4  1  0  0  0  0
 16 12  1  0  0  0  0
 16 17  1  0  0  0  0
 19 10  1  0  0  0  0
 19  3  2  0  0  0  0
 20 19  1  0  0  0  0
 21 22  2  0  0  0  0
 22 23  1  0  0  0  0
 24 31  1  0  0  0  0
 24 28  2  0  0  0  0
 25 30  1  0  0  0  0
 27 24  1  0  0  0  0
 28 25  1  0  0  0  0
 29 26  1  6  0  0  0
 29 30  1  0  0  0  0
 30 22  1  6  0  0  0
 31 29  1  0  0  0  0
M  END
>  <MODEL>
2

>  <REMARK>
 VINA RESULT:      -9.1      2.480      7.023
  Name = 
  2 active torsions:
  status: ('A' for Active; 'I' for Inactive)
    1  A    between atoms: C_5  and  C_30
    2  A    between atoms: C_10  and  N_16
                            x       y       z     vdW  Elec       q    Type
                         _______ _______ _______ _____ _____    ______ ____

>  <TORSDO>
F 2

$$$$
=
 OpenBabel11112416453D

 31 35  0  0  1  0  0  0  0  0999 V2000
  185.9190  178.2520  140.9060 C   0  0  0  0  0  0  0  0  0  0  0  0
  188.3790  178.0880  143.8040 C   0  0  2  0  0  3  0  0  0  0  0  0
  187.5700  177.6830  145.0310 C   0  0  0  0  0  0  0  0  0  0  0  0
  185.4280  177.5780  146.1890 C   0  0  0  0  0  0  0  0  0  0  0  0
  187.6900  177.7650  142.4970 C   0  0  0  0  0  0  0  0  0  0  0  0
  186.3160  177.1660  140.1240 C   0  0  0  0  0  3  0  0  0  0  0  0
  186.1780  177.8660  145.0460 C   0  0  0  0  0  3  0  0  0  0  0  0
  189.8380  176.0600  143.4290 C   0  0  2  0  0  3  0  0  0  0  0  0
  184.8410  179.0330  140.5130 O   0  0  0  0  0  1  0  0  0  0  0  0
  189.6900  177.0210  146.2860 C   0  0  0  0  0  2  0  0  0  0  0  0
  184.0520  177.7510  146.1760 O   0  0  0  0  0  1  0  0  0  0  0  0
  189.3440  175.8920  141.9930 C   0  0  0  0  0  2  0  0  0  0  0  0
  189.8190  177.5430  143.8280 C   0  0  2  0  0  3  0  0  0  0  0  0
  186.6050  178.5520  142.0840 C   0  0  0  0  0  3  0  0  0  0  0  0
  186.0640  177.1210  147.3420 C   0  0  0  0  0  3  0  0  0  0  0  0
  188.0950  176.6710  141.6980 C   0  0  0  0  0  0  0  0  0  0  0  0
  187.4070  176.3860  140.5140 C   0  0  0  0  0  3  0  0  0  0  0  0
  190.4430  177.7860  145.2030 C   0  0  0  0  0  2  0  0  0  0  0  0
  188.2110  177.2550  146.2210 C   0  0  0  0  0  0  0  0  0  0  0  0
  187.4500  176.9600  147.3560 C   0  0  0  0  0  3  0  0  0  0  0  0
  190.5460  173.6750  144.8200 O   0  0  0  0  0  0  0  0  0  0  0  0
  191.4730  174.3140  144.2480 C   0  0  0  0  0  0  0  0  0  0  0  0
  191.1860  175.5200  143.5410 N   0  0  0  0  0  2  0  0  0  0  0  0
  194.2610  176.2090  145.2640 C   0  0  0  0  0  0  0  0  0  0  0  0
  193.4410  173.8910  145.7630 C   0  0  0  0  0  2  0  0  0  0  0  0
  193.3830  174.4840  142.0080 N   0  0  0  0  0  1  0  0  0  0  0  0
  194.7120  177.5380  145.7630 C   0  0  0  0  0  1  0  0  0  0  0  0
  193.9200  175.2680  146.1580 C   0  0  0  0  0  3  0  0  0  0  0  0
  193.8480  174.5720  143.3820 C   0  0  2  0  0  3  0  0  0  0  0  0
  192.8950  173.8390  144.3340 C   0  0  2  0  0  3  0  0  0  0  0  0
  194.0370  176.0350  143.7820 C   0  0  0  0  0  2  0  0  0  0  0  0
  1 14  1  0  0  0  0
  2  5  1  6  0  0  0
  2 13  1  0  0  0  0
  2  3  1  0  0  0  0
  3  7  2  0  0  0  0
  3 19  1  0  0  0  0
  4 15  2  0  0  0  0
  6 17  1  0  0  0  0
  6  1  2  0  0  0  0
  7  4  1  0  0  0  0
  8 23  1  6  0  0  0
  8 13  1  0  0  0  0
  9  1  1  0  0  0  0
 11  4  1  0  0  0  0
 12  8  1  0  0  0  0
 13 18  1  1  0  0  0
 14  5  2  0  0  0  0
 15 20  1  0  0  0  0
 16 12  1  0  0  0  0
 16  5  1  0  0  0  0
 17 16  2  0  0  0  0
 18 10  1  0  0  0  0
 19 10  1  0  0  0  0
 19 20  2  0  0  0  0
 22 21  2  0  0  0  0
 23 22  1  0  0  0  0
 24 27  1  0  0  0  0
 24 28  2  0  0  0  0
 25 28  1  0  0  0  0
 29 26  1  6  0  0  0
 29 31  1  0  0  0  0
 29 30  1  0  0  0  0
 30 22  1  1  0  0  0
 30 25  1  0  0  0  0
 31 24  1  0  0  0  0
M  END
>  <MODEL>
3

>  <REMARK>
 VINA RESULT:      -9.1      2.840      7.462
  Name = 
  2 active torsions:
  status: ('A' for Active; 'I' for Inactive)
    1  A    between atoms: C_5  and  C_30
    2  A    between atoms: C_10  and  N_16
                            x       y       z     vdW  Elec       q    Type
                         _______ _______ _______ _____ _____    ______ ____

>  <TORSDO>
F 2

$$$$
=
 OpenBabel11112416453D

 31 35  0  0  1  0  0  0  0  0999 V2000
  185.0420  177.8310  146.8850 C   0  0  0  0  0  0  0  0  0  0  0  0
  187.2210  176.0180  144.3450 C   0  0  2  0  0  3  0  0  0  0  0  0
  186.9310  176.6630  142.9940 C   0  0  0  0  0  0  0  0  0  0  0  0
  185.4190  177.9160  141.5500 C   0  0  0  0  0  0  0  0  0  0  0  0
  186.8140  176.8790  145.5210 C   0  0  0  0  0  0  0  0  0  0  0  0
  185.9880  178.5290  147.6360 C   0  0  0  0  0  3  0  0  0  0  0  0
  185.7430  177.3870  142.8020 C   0  0  0  0  0  3  0  0  0  0  0  0
  189.6080  176.7230  144.7750 C   0  0  2  0  0  3  0  0  0  0  0  0
  183.6910  177.9560  147.1800 O   0  0  0  0  0  1  0  0  0  0  0  0
  189.0620  175.6760  141.9970 C   0  0  0  0  0  2  0  0  0  0  0  0
  184.2490  178.6420  141.3870 O   0  0  0  0  0  1  0  0  0  0  0  0
  189.2450  177.3610  146.1150 C   0  0  0  0  0  2  0  0  0  0  0  0
  188.6770  175.5370  144.4800 C   0  0  2  0  0  3  0  0  0  0  0  0
  185.4530  177.0070  145.8350 C   0  0  0  0  0  3  0  0  0  0  0  0
  186.2700  177.7100  140.4660 C   0  0  0  0  0  3  0  0  0  0  0  0
  187.7700  177.5810  146.2900 C   0  0  0  0  0  0  0  0  0  0  0  0
  187.3480  178.3950  147.3460 C   0  0  0  0  0  3  0  0  0  0  0  0
  189.0890  174.7690  143.2240 C   0  0  0  0  0  2  0  0  0  0  0  0
  187.7690  176.4260  141.8760 C   0  0  0  0  0  0  0  0  0  0  0  0
  187.4410  176.9690  140.6300 C   0  0  0  0  0  3  0  0  0  0  0  0
  191.8280  178.1940  143.7620 O   0  0  0  0  0  0  0  0  0  0  0  0
  192.0650  177.0730  144.2910 C   0  0  0  0  0  0  0  0  0  0  0  0
  190.9960  176.2830  144.8120 N   0  0  0  0  0  2  0  0  0  0  0  0
  193.0030  173.6900  144.5630 C   0  0  0  0  0  0  0  0  0  0  0  0
  193.7860  175.6200  143.1640 C   0  0  0  0  0  2  0  0  0  0  0  0
  193.5600  176.6930  146.8040 N   0  0  0  0  0  1  0  0  0  0  0  0
  192.4980  172.2910  144.6380 C   0  0  0  0  0  1  0  0  0  0  0  0
  193.2800  174.2110  143.3560 C   0  0  0  0  0  3  0  0  0  0  0  0
  193.7980  175.8220  145.6650 C   0  0  2  0  0  3  0  0  0  0  0  0
  193.4660  176.5340  144.3480 C   0  0  2  0  0  3  0  0  0  0  0  0
  193.0120  174.5210  145.8220 C   0  0  0  0  0  2  0  0  0  0  0  0
  1  9  1  0  0  0  0
  1  6  1  0  0  0  0
  2  3  1  6  0  0  0
  2 13  1  0  0  0  0
  2  5  1  0  0  0  0
  4  7  2  0  0  0  0
  5 14  1  0  0  0  0
  5 16  2  0  0  0  0
  7  3  1  0  0  0  0
  8 23  1  1  0  0  0
  8 12  1  0  0  0  0
 10 18  1  0  0  0  0
 11  4  1  0  0  0  0
 12 16  1  0  0  0  0
 13 18  1  6  0  0  0
 13  8  1  0  0  0  0
 14  1  2  0  0  0  0
 15 20  2  0  0  0  0
 15  4  1  0  0  0  0
 16 17  1  0  0  0  0
 17  6  2  0  0  0  0
 19 10  1  0  0  0  0
 19  3  2  0  0  0  0
 20 19  1  0  0  0  0
 21 22  2  0  0  0  0
 22 23  1  0  0  0  0
 24 27  1  0  0  0  0
 24 31  1  0  0  0  0
 25 28  1  0  0  0  0
 25 30  1  0  0  0  0
 28 24  2  0  0  0  0
 29 31  1  0  0  0  0
 29 26  1  1  0  0  0
 30 22  1  1  0  0  0
 30 29  1  0  0  0  0
M  END
>  <MODEL>
4

>  <REMARK>
 VINA RESULT:      -8.8      2.708      6.883
  Name = 
  2 active torsions:
  status: ('A' for Active; 'I' for Inactive)
    1  A    between atoms: C_5  and  C_30
    2  A    between atoms: C_10  and  N_16
                            x       y       z     vdW  Elec       q    Type
                         _______ _______ _______ _____ _____    ______ ____

>  <TORSDO>
F 2

$$$$
=
 OpenBabel11112416453D

 31 35  0  0  1  0  0  0  0  0999 V2000
  187.0640  177.2040  140.7260 C   0  0  0  0  0  0  0  0  0  0  0  0
  188.4940  177.7620  144.2080 C   0  0  2  0  0  3  0  0  0  0  0  0
  187.3000  177.8690  145.1490 C   0  0  0  0  0  0  0  0  0  0  0  0
  184.9400  178.3690  145.4940 C   0  0  0  0  0  0  0  0  0  0  0  0
  188.1620  177.0960  142.8910 C   0  0  0  0  0  0  0  0  0  0  0  0
  187.4410  175.8870  140.4620 C   0  0  0  0  0  3  0  0  0  0  0  0
  186.0300  178.1860  144.6410 C   0  0  0  0  0  3  0  0  0  0  0  0
  189.5570  175.5880  144.9320 C   0  0  2  0  0  3  0  0  0  0  0  0
  186.3270  177.9160  139.7890 O   0  0  0  0  0  1  0  0  0  0  0  0
  188.7870  177.4500  147.1800 C   0  0  0  0  0  2  0  0  0  0  0  0
  183.6910  178.6660  144.9680 O   0  0  0  0  0  1  0  0  0  0  0  0
  189.4760  175.0050  143.5230 C   0  0  0  0  0  2  0  0  0  0  0  0
  189.7240  177.1140  144.8690 C   0  0  2  0  0  3  0  0  0  0  0  0
  187.4250  177.8070  141.9320 C   0  0  0  0  0  3  0  0  0  0  0  0
  185.1080  178.2580  146.8730 C   0  0  0  0  0  3  0  0  0  0  0  0
  188.5500  175.7650  142.6160 C   0  0  0  0  0  0  0  0  0  0  0  0
  188.1910  175.1750  141.4000 C   0  0  0  0  0  3  0  0  0  0  0  0
  189.9600  177.7340  146.2470 C   0  0  0  0  0  2  0  0  0  0  0  0
  187.4690  177.7970  146.5550 C   0  0  0  0  0  0  0  0  0  0  0  0
  186.3690  177.9720  147.4000 C   0  0  0  0  0  3  0  0  0  0  0  0
  192.2910  175.7700  144.1480 O   0  0  0  0  0  0  0  0  0  0  0  0
  192.0280  175.1190  145.1960 C   0  0  0  0  0  0  0  0  0  0  0  0
  190.6770  174.9830  145.6400 N   0  0  0  0  0  2  0  0  0  0  0  0
  195.4580  175.0880  144.3990 C   0  0  0  0  0  0  0  0  0  0  0  0
  194.1520  175.4380  146.5130 C   0  0  0  0  0  2  0  0  0  0  0  0
  192.8770  172.3340  144.7250 N   0  0  0  0  0  1  0  0  0  0  0  0
  196.4880  175.5750  143.4410 C   0  0  0  0  0  1  0  0  0  0  0  0
  195.1820  175.8320  145.4830 C   0  0  0  0  0  3  0  0  0  0  0  0
  193.8290  173.3250  145.1970 C   0  0  2  0  0  3  0  0  0  0  0  0
  193.1220  174.4430  145.9730 C   0  0  2  0  0  3  0  0  0  0  0  0
  194.6420  173.8750  144.0250 C   0  0  0  0  0  2  0  0  0  0  0  0
  1 14  1  0  0  0  0
  2  5  1  6  0  0  0
  2 13  1  0  0  0  0
  2  3  1  0  0  0  0
  3 19  1  0  0  0  0
  4 15  2  0  0  0  0
  6  1  2  0  0  0  0
  6 17  1  0  0  0  0
  7  3  2  0  0  0  0
  7  4  1  0  0  0  0
  8 23  1  6  0  0  0
  9  1  1  0  0  0  0
 11  4  1  0  0  0  0
 12  8  1  0  0  0  0
 13  8  1  0  0  0  0
 13 18  1  1  0  0  0
 14  5  2  0  0  0  0
 15 20  1  0  0  0  0
 16  5  1  0  0  0  0
 16 12  1  0  0  0  0
 17 16  2  0  0  0  0
 18 10  1  0  0  0  0
 19 10  1  0  0  0  0
 19 20  2  0  0  0  0
 21 22  2  0  0  0  0
 22 23  1  0  0  0  0
 24 28  2  0  0  0  0
 27 24  1  0  0  0  0
 28 25  1  0  0  0  0
 29 26  1  6  0  0  0
 29 30  1  0  0  0  0
 30 22  1  6  0  0  0
 30 25  1  0  0  0  0
 31 24  1  0  0  0  0
 31 29  1  0  0  0  0
M  END
>  <MODEL>
5

>  <REMARK>
 VINA RESULT:      -8.7      2.782      7.574
  Name = 
  2 active torsions:
  status: ('A' for Active; 'I' for Inactive)
    1  A    between atoms: C_5  and  C_30
    2  A    between atoms: C_10  and  N_16
                            x       y       z     vdW  Elec       q    Type
                         _______ _______ _______ _____ _____    ______ ____

>  <TORSDO>
F 2

$$$$
=
 OpenBabel11112416453D

 31 35  0  0  1  0  0  0  0  0999 V2000
  191.7660  173.1840  141.4780 C   0  0  0  0  0  0  0  0  0  0  0  0
  191.0360  174.0410  145.1130 C   0  0  2  0  0  3  0  0  0  0  0  0
  192.1580  174.9680  145.5690 C   0  0  0  0  0  0  0  0  0  0  0  0
  194.4430  175.7760  145.3150 C   0  0  0  0  0  0  0  0  0  0  0  0
  190.8960  173.9630  143.6090 C   0  0  0  0  0  0  0  0  0  0  0  0
  190.7390  173.8500  140.8090 C   0  0  0  0  0  3  0  0  0  0  0  0
  193.3750  174.9960  144.8690 C   0  0  0  0  0  3  0  0  0  0  0  0
  189.0310  175.5770  145.1270 C   0  0  2  0  0  3  0  0  0  0  0  0
  192.7150  172.4700  140.7590 O   0  0  0  0  0  1  0  0  0  0  0  0
  190.7860  175.7400  147.5770 C   0  0  0  0  0  2  0  0  0  0  0  0
  195.6310  175.8010  144.5980 O   0  0  0  0  0  1  0  0  0  0  0  0
  188.7160  175.2830  143.6620 C   0  0  0  0  0  2  0  0  0  0  0  0
  189.6880  174.3550  145.7870 C   0  0  2  0  0  3  0  0  0  0  0  0
  191.8420  173.2370  142.8720 C   0  0  0  0  0  3  0  0  0  0  0  0
  194.3170  176.5260  146.4830 C   0  0  0  0  0  3  0  0  0  0  0  0
  189.8510  174.6290  142.9280 C   0  0  0  0  0  0  0  0  0  0  0  0
  189.7790  174.5610  141.5330 C   0  0  0  0  0  3  0  0  0  0  0  0
  189.8890  174.5410  147.2910 C   0  0  0  0  0  2  0  0  0  0  0  0
  192.0540  175.7030  146.7760 C   0  0  0  0  0  0  0  0  0  0  0  0
  193.1260  176.4900  147.2100 C   0  0  0  0  0  3  0  0  0  0  0  0
  188.6850  177.8540  146.8060 O   0  0  0  0  0  0  0  0  0  0  0  0
  187.6920  177.0920  146.6460 C   0  0  0  0  0  0  0  0  0  0  0  0
  187.8010  175.9300  145.8230 N   0  0  0  0  0  2  0  0  0  0  0  0
  184.9990  178.9870  145.3980 C   0  0  0  0  0  0  0  0  0  0  0  0
  185.1910  176.7910  146.5950 C   0  0  0  0  0  2  0  0  0  0  0  0
  187.2580  179.4170  148.4090 N   0  0  0  0  0  1  0  0  0  0  0  0
  184.4960  179.7640  144.2320 C   0  0  0  0  0  1  0  0  0  0  0  0
  184.7240  177.6740  145.4640 C   0  0  0  0  0  3  0  0  0  0  0  0
  186.1580  178.8570  147.6420 C   0  0  2  0  0  3  0  0  0  0  0  0
  186.3920  177.3710  147.3460 C   0  0  2  0  0  3  0  0  0  0  0  0
  185.9420  179.6640  146.3620 C   0  0  0  0  0  2  0  0  0  0  0  0
  1 14  1  0  0  0  0
  2  5  1  6  0  0  0
  2  3  1  0  0  0  0
  2 13  1  0  0  0  0
  3 19  1  0  0  0  0
  4 15  2  0  0  0  0
  6  1  2  0  0  0  0
  6 17  1  0  0  0  0
  7  4  1  0  0  0  0
  7  3  2  0  0  0  0
  8 13  1  0  0  0  0
  8 23  1  1  0  0  0
  9  1  1  0  0  0  0
 11  4  1  0  0  0  0
 12  8  1  0  0  0  0
 13 18  1  1  0  0  0
 14  5  2  0  0  0  0
 15 20  1  0  0  0  0
 16  5  1  0  0  0  0
 16 12  1  0  0  0  0
 17 16  2  0  0  0  0
 18 10  1  0  0  0  0
 19 20  2  0  0  0  0
 19 10  1  0  0  0  0
 22 21  2  0  0  0  0
 23 22  1  0  0  0  0
 24 28  2  0  0  0  0
 24 31  1  0  0  0  0
 25 30  1  0  0  0  0
 27 24  1  0  0  0  0
 28 25  1  0  0  0  0
 29 26  1  6  0  0  0
 30 22  1  6  0  0  0
 30 29  1  0  0  0  0
 31 29  1  0  0  0  0
M  END
>  <MODEL>
6

>  <REMARK>
 VINA RESULT:      -8.4      1.344      4.134
  Name = 
  2 active torsions:
  status: ('A' for Active; 'I' for Inactive)
    1  A    between atoms: C_5  and  C_30
    2  A    between atoms: C_10  and  N_16
                            x       y       z     vdW  Elec       q    Type
                         _______ _______ _______ _____ _____    ______ ____

>  <TORSDO>
F 2

$$$$
=
 OpenBabel11112416453D

 31 35  0  0  1  0  0  0  0  0999 V2000
  185.0350  177.9660  146.6470 C   0  0  0  0  0  0  0  0  0  0  0  0
  187.1610  175.9500  144.2190 C   0  0  2  0  0  3  0  0  0  0  0  0
  186.9310  176.5590  142.8400 C   0  0  0  0  0  0  0  0  0  0  0  0
  185.5160  177.8370  141.3220 C   0  0  0  0  0  0  0  0  0  0  0  0
  186.7780  176.8740  145.3550 C   0  0  0  0  0  0  0  0  0  0  0  0
  186.0030  178.6400  147.3930 C   0  0  0  0  0  3  0  0  0  0  0  0
  185.7880  177.3370  142.5980 C   0  0  0  0  0  3  0  0  0  0  0  0
  189.5740  176.5430  144.6730 C   0  0  2  0  0  3  0  0  0  0  0  0
  183.6870  178.1730  146.9090 O   0  0  0  0  0  1  0  0  0  0  0  0
  189.0250  175.4260  141.9240 C   0  0  0  0  0  2  0  0  0  0  0  0
  184.3890  178.6180  141.1090 O   0  0  0  0  0  1  0  0  0  0  0  0
  189.2200  177.2480  145.9820 C   0  0  0  0  0  2  0  0  0  0  0  0
  188.5860  175.3980  144.4010 C   0  0  2  0  0  3  0  0  0  0  0  0
  185.4200  177.0840  145.6360 C   0  0  0  0  0  3  0  0  0  0  0  0
  186.3750  177.5470  140.2640 C   0  0  0  0  0  3  0  0  0  0  0  0
  187.7560  177.5510  146.1180 C   0  0  0  0  0  0  0  0  0  0  0  0
  187.3580  178.4240  147.1360 C   0  0  0  0  0  3  0  0  0  0  0  0
  188.9800  174.5640  143.1820 C   0  0  0  0  0  2  0  0  0  0  0  0
  187.7770  176.2380  141.7490 C   0  0  0  0  0  0  0  0  0  0  0  0
  187.5020  176.7520  140.4780 C   0  0  0  0  0  3  0  0  0  0  0  0
  190.5480  174.7660  146.6770 O   0  0  0  0  0  0  0  0  0  0  0  0
  191.3580  175.1360  145.7830 C   0  0  0  0  0  0  0  0  0  0  0  0
  190.9360  176.0320  144.7540 N   0  0  0  0  0  2  0  0  0  0  0  0
  193.7640  175.6280  143.2590 C   0  0  0  0  0  0  0  0  0  0  0  0
  193.7770  175.8410  145.7590 C   0  0  0  0  0  2  0  0  0  0  0  0
  192.2360  172.5090  144.7710 N   0  0  0  0  0  1  0  0  0  0  0  0
  194.0200  176.2400  141.9260 C   0  0  0  0  0  1  0  0  0  0  0  0
  194.0090  176.3580  144.3600 C   0  0  0  0  0  3  0  0  0  0  0  0
  193.1240  173.6580  144.7090 C   0  0  2  0  0  3  0  0  0  0  0  0
  192.7870  174.6750  145.8060 C   0  0  2  0  0  3  0  0  0  0  0  0
  193.0760  174.2870  143.3160 C   0  0  0  0  0  2  0  0  0  0  0  0
  1  9  1  0  0  0  0
  1  6  1  0  0  0  0
  2  3  1  6  0  0  0
  2 13  1  0  0  0  0
  2  5  1  0  0  0  0
  4  7  2  0  0  0  0
  5 14  1  0  0  0  0
  5 16  2  0  0  0  0
  7  3  1  0  0  0  0
  8 23  1  1  0  0  0
  8 12  1  0  0  0  0
 10 18  1  0  0  0  0
 11  4  1  0  0  0  0
 12 16  1  0  0  0  0
 13 18  1  6  0  0  0
 13  8  1  0  0  0  0
 14  1  2  0  0  0  0
 15 20  2  0  0  0  0
 15  4  1  0  0  0  0
 16 17  1  0  0  0  0
 17  6  2  0  0  0  0
 19 10  1  0  0  0  0
 19  3  2  0  0  0  0
 20 19  1  0  0  0  0
 22 21  2  0  0  0  0
 23 22  1  0  0  0  0
 24 31  1  0  0  0  0
 24 28  2  0  0  0  0
 25 30  1  0  0  0  0
 27 24  1  0  0  0  0
 28 25  1  0  0  0  0
 29 26  1  6  0  0  0
 29 30  1  0  0  0  0
 30 22  1  6  0  0  0
 31 29  1  0  0  0  0
M  END
>  <MODEL>
7

>  <REMARK>
 VINA RESULT:      -8.1      2.690      6.817
  Name = 
  2 active torsions:
  status: ('A' for Active; 'I' for Inactive)
    1  A    between atoms: C_5  and  C_30
    2  A    between atoms: C_10  and  N_16
                            x       y       z     vdW  Elec       q    Type
                         _______ _______ _______ _____ _____    ______ ____

>  <TORSDO>
F 2

$$$$
=
 OpenBabel11112416453D

 31 35  0  0  1  0  0  0  0  0999 V2000
  190.8120  171.5110  142.7610 C   0  0  0  0  0  0  0  0  0  0  0  0
  189.7200  174.2960  145.1130 C   0  0  2  0  0  3  0  0  0  0  0  0
  190.9930  175.0160  145.5450 C   0  0  0  0  0  0  0  0  0  0  0  0
  193.4040  174.9820  145.8980 C   0  0  0  0  0  0  0  0  0  0  0  0
  189.8920  173.4770  143.8520 C   0  0  0  0  0  0  0  0  0  0  0  0
  190.3180  171.9550  141.5340 C   0  0  0  0  0  3  0  0  0  0  0  0
  192.2360  174.3730  145.4330 C   0  0  0  0  0  3  0  0  0  0  0  0
  188.5630  176.0470  143.7070 C   0  0  2  0  0  3  0  0  0  0  0  0
  191.5200  170.3190  142.8350 O   0  0  0  0  0  1  0  0  0  0  0  0
  189.6520  177.0350  146.3420 C   0  0  0  0  0  2  0  0  0  0  0  0
  194.6240  174.3350  145.7620 O   0  0  0  0  0  1  0  0  0  0  0  0
  188.4840  175.1150  142.4990 C   0  0  0  0  0  2  0  0  0  0  0  0
  188.5050  175.2350  145.0100 C   0  0  2  0  0  3  0  0  0  0  0  0
  190.5970  172.2670  143.9150 C   0  0  0  0  0  3  0  0  0  0  0  0
  193.3420  176.2370  146.5010 C   0  0  0  0  0  3  0  0  0  0  0  0
  189.3850  173.9190  142.6090 C   0  0  0  0  0  0  0  0  0  0  0  0
  189.5970  173.1490  141.4610 C   0  0  0  0  0  3  0  0  0  0  0  0
  188.4310  176.1270  146.2500 C   0  0  0  0  0  2  0  0  0  0  0  0
  190.9360  176.2740  146.1940 C   0  0  0  0  0  0  0  0  0  0  0  0
  192.1120  176.8800  146.6470 C   0  0  0  0  0  3  0  0  0  0  0  0
  188.4160  178.2890  141.9540 O   0  0  0  0  0  0  0  0  0  0  0  0
  187.4490  178.1020  142.7430 C   0  0  0  0  0  0  0  0  0  0  0  0
  187.4640  177.0010  143.6520 N   0  0  0  0  0  2  0  0  0  0  0  0
  184.9260  178.2690  145.1940 C   0  0  0  0  0  0  0  0  0  0  0  0
  186.3150  179.9750  143.9890 C   0  0  0  0  0  2  0  0  0  0  0  0
  184.8470  177.5230  141.4810 N   0  0  0  0  0  1  0  0  0  0  0  0
  184.4410  177.6970  146.4810 C   0  0  0  0  0  1  0  0  0  0  0  0
  185.7560  179.3240  145.2300 C   0  0  0  0  0  3  0  0  0  0  0  0
  184.9220  178.3590  142.6670 C   0  0  2  0  0  3  0  0  0  0  0  0
  186.2860  179.0520  142.7680 C   0  0  2  0  0  3  0  0  0  0  0  0
  184.6100  177.5330  143.9150 C   0  0  0  0  0  2  0  0  0  0  0  0
  1  9  1  0  0  0  0
  1 14  1  0  0  0  0
  2  5  1  6  0  0  0
  2  3  1  0  0  0  0
  3 19  1  0  0  0  0
  4 15  2  0  0  0  0
  5 14  2  0  0  0  0
  6  1  2  0  0  0  0
  7  3  2  0  0  0  0
  7  4  1  0  0  0  0
  8 23  1  1  0  0  0
  8 13  1  0  0  0  0
 11  4  1  0  0  0  0
 12 16  1  0  0  0  0
 12  8  1  0  0  0  0
 13  2  1  0  0  0  0
 13 18  1  1  0  0  0
 15 20  1  0  0  0  0
 16  5  1  0  0  0  0
 17  6  1  0  0  0  0
 17 16  2  0  0  0  0
 18 10  1  0  0  0  0
 19 10  1  0  0  0  0
 19 20  2  0  0  0  0
 21 22  2  0  0  0  0
 22 23  1  0  0  0  0
 24 28  2  0  0  0  0
 24 27  1  0  0  0  0
 25 28  1  0  0  0  0
 29 26  1  6  0  0  0
 29 30  1  0  0  0  0
 29 31  1  0  0  0  0
 30 22  1  1  0  0  0
 30 25  1  0  0  0  0
 31 24  1  0  0  0  0
M  END
>  <MODEL>
8

>  <REMARK>
 VINA RESULT:      -8.0      2.270      4.918
  Name = 
  2 active torsions:
  status: ('A' for Active; 'I' for Inactive)
    1  A    between atoms: C_5  and  C_30
    2  A    between atoms: C_10  and  N_16
                            x       y       z     vdW  Elec       q    Type
                         _______ _______ _______ _____ _____    ______ ____

>  <TORSDO>
F 2

$$$$
=
 OpenBabel11112416453D

 31 35  0  0  1  0  0  0  0  0999 V2000
  185.5200  177.6430  142.5600 C   0  0  0  0  0  0  0  0  0  0  0  0
  188.2290  175.0150  143.0500 C   0  0  2  0  0  3  0  0  0  0  0  0
  188.7330  174.6540  141.6570 C   0  0  0  0  0  0  0  0  0  0  0  0
  188.3430  174.5270  139.2540 C   0  0  0  0  0  0  0  0  0  0  0  0
  187.4990  176.3390  143.0990 C   0  0  0  0  0  0  0  0  0  0  0  0
  186.1240  178.7860  143.0850 C   0  0  0  0  0  3  0  0  0  0  0  0
  187.9380  174.9230  140.5310 C   0  0  0  0  0  3  0  0  0  0  0  0
  190.2280  176.1860  144.0570 C   0  0  2  0  0  3  0  0  0  0  0  0
  184.2410  177.7160  142.0260 O   0  0  0  0  0  1  0  0  0  0  0  0
  190.8440  173.6000  142.6270 C   0  0  0  0  0  2  0  0  0  0  0  0
  187.5500  174.8180  138.1540 O   0  0  0  0  0  1  0  0  0  0  0  0
  189.4160  177.4430  144.3660 C   0  0  0  0  0  2  0  0  0  0  0  0
  189.3300  174.9420  144.1230 C   0  0  2  0  0  3  0  0  0  0  0  0
  186.2020  176.4250  142.5710 C   0  0  0  0  0  3  0  0  0  0  0  0
  189.5420  173.8370  139.0870 C   0  0  0  0  0  3  0  0  0  0  0  0
  188.1040  177.4980  143.6380 C   0  0  0  0  0  0  0  0  0  0  0  0
  187.4070  178.7100  143.6320 C   0  0  0  0  0  3  0  0  0  0  0  0
  190.1200  173.6420  143.9690 C   0  0  0  0  0  2  0  0  0  0  0  0
  189.9300  173.9180  141.4810 C   0  0  0  0  0  0  0  0  0  0  0  0
  190.3330  173.5350  140.1970 C   0  0  0  0  0  3  0  0  0  0  0  0
  192.9970  176.3710  143.4100 O   0  0  0  0  0  0  0  0  0  0  0  0
  192.6930  176.1830  144.6200 C   0  0  0  0  0  0  0  0  0  0  0  0
  191.3240  176.0740  145.0100 N   0  0  0  0  0  2  0  0  0  0  0  0
  196.1260  175.6470  144.0470 C   0  0  0  0  0  0  0  0  0  0  0  0
  194.8170  177.1390  145.5810 C   0  0  0  0  0  2  0  0  0  0  0  0
  193.4670  173.5910  145.7950 N   0  0  0  0  0  1  0  0  0  0  0  0
  197.1760  175.4980  143.0020 C   0  0  0  0  0  1  0  0  0  0  0  0
  195.8650  176.8730  144.5280 C   0  0  0  0  0  3  0  0  0  0  0  0
  194.4430  174.6590  145.6560 C   0  0  2  0  0  3  0  0  0  0  0  0
  193.7630  176.0330  145.6640 C   0  0  2  0  0  3  0  0  0  0  0  0
  195.2800  174.4470  144.3940 C   0  0  0  0  0  2  0  0  0  0  0  0
  1 14  2  0  0  0  0
  1  6  1  0  0  0  0
  2  3  1  6  0  0  0
  2  5  1  0  0  0  0
  2 13  1  0  0  0  0
  4  7  1  0  0  0  0
  5 16  2  0  0  0  0
  6 17  2  0  0  0  0
  7  3  2  0  0  0  0
  8 13  1  0  0  0  0
  8 12  1  0  0  0  0
  8 23  1  1  0  0  0
  9  1  1  0  0  0  0
 10 18  1  0  0  0  0
 11  4  1  0  0  0  0
 13 18  1  6  0  0  0
 14  5  1  0  0  0  0
 15  4  2  0  0  0  0
 15 20  1  0  0  0  0
 16 12  1  0  0  0  0
 17 16  1  0  0  0  0
 19  3  1  0  0  0  0
 19 10  1  0  0  0  0
 20 19  2  0  0  0  0
 21 22  2  0  0  0  0
 22 23  1  0  0  0  0
 24 31  1  0  0  0  0
 24 28  2  0  0  0  0
 25 30  1  0  0  0  0
 27 24  1  0  0  0  0
 28 25  1  0  0  0  0
 29 30  1  0  0  0  0
 29 26  1  6  0  0  0
 30 22  1  6  0  0  0
 31 29  1  0  0  0  0
M  END
>  <MODEL>
9

>  <REMARK>
 VINA RESULT:      -7.9      2.761      7.008
  Name = 
  2 active torsions:
  status: ('A' for Active; 'I' for Inactive)
    1  A    between atoms: C_5  and  C_30
    2  A    between atoms: C_10  and  N_16
                            x       y       z     vdW  Elec       q    Type
                         _______ _______ _______ _____ _____    ______ ____

>  <TORSDO>
F 2

$$$$
