=
 OpenBabel11112416443D

 32 36  0  0  1  0  0  0  0  0999 V2000
  189.0580  175.8130  143.9470 C   0  0  1  0  0  3  0  0  0  0  0  0
  190.7830  173.1510  140.0110 C   0  0  0  0  0  2  0  0  0  0  0  0
  191.4960  172.2230  140.9760 C   0  0  0  0  0  2  0  0  0  0  0  0
  190.0530  175.3790  146.2480 C   0  0  2  0  0  3  0  0  0  0  0  0
  191.4810  175.3730  146.6190 N   0  0  2  0  0  0  0  0  0  0  0  0
  187.5180  177.4490  143.7620 C   0  0  2  0  0  3  0  0  0  0  0  0
  188.1040  176.1460  141.6950 C   0  0  0  0  0  2  0  0  0  0  0  0
  193.6560  174.8210  145.7300 C   0  0  2  0  0  3  0  0  0  0  0  0
  189.5130  173.6710  140.6730 C   0  0  0  0  0  2  0  0  0  0  0  0
  188.6500  175.0940  142.6550 C   0  0  1  0  0  3  0  0  0  0  0  0
  189.7680  174.2650  142.0410 C   0  0  1  0  0  3  0  0  0  0  0  0
  191.0420  174.4050  144.1820 C   0  0  2  0  0  3  0  0  0  0  0  0
  193.3940  176.2740  145.4300 C   0  0  0  0  0  2  0  0  0  0  0  0
  187.0120  176.9730  142.3850 C   0  0  2  0  0  3  0  0  0  0  0  0
  192.0960  176.6120  146.1450 C   0  0  0  0  0  2  0  0  0  0  0  0
  191.9370  173.0200  142.1970 C   0  0  0  0  0  2  0  0  0  0  0  0
  190.8130  173.8270  142.8040 C   0  0  2  0  0  3  0  0  0  0  0  0
  191.7030  173.5110  145.0330 O   0  0  0  0  0  0  0  0  0  0  0  0
  187.9060  176.3450  144.5510 O   0  0  0  0  0  0  0  0  0  0  0  0
  189.2460  174.6280  147.2900 C   0  0  0  0  0  1  0  0  0  0  0  0
  194.2120  174.1850  144.6180 O   0  0  0  0  0  1  0  0  0  0  0  0
  189.7520  174.8150  144.8560 C   0  0  2  0  0  3  0  0  0  0  0  0
  192.2950  174.2490  146.0970 C   0  0  2  0  0  3  0  0  0  0  0  0
  185.6400  177.2950  145.3900 C   0  0  0  0  0  1  0  0  0  0  0  0
  186.4310  178.2220  144.4870 C   0  0  0  0  0  2  0  0  0  0  0  0
  186.6910  178.0720  141.5760 O   0  0  0  0  0  0  0  0  0  0  0  0
  186.4130  177.4220  139.2960 C   0  0  0  0  0  1  0  0  0  0  0  0
  185.7520  177.5980  140.6510 C   0  0  2  0  0  3  0  0  0  0  0  0
  184.6140  178.5960  140.5070 C   0  0  0  0  0  2  0  0  0  0  0  0
  183.4370  178.1930  141.3260 C   0  0  0  0  0  0  0  0  0  0  0  0
  183.5160  178.1790  142.5830 O   0  0  0  0  0  1  0  0  0  0  0  0
  182.2450  177.8470  140.7030 O   0  0  0  0  0  0  0  0  0  0  0  0
  1 19  1  1  0  0  0
  1 22  1  0  0  0  0
  2  9  1  0  0  0  0
  2  3  1  0  0  0  0
  3 16  1  0  0  0  0
  4  5  1  0  0  0  0
  4 20  1  1  0  0  0
  5 15  1  6  0  0  0
  6 25  1  1  0  0  0
  6 19  1  0  0  0  0
  7 14  1  0  0  0  0
  8 21  1  6  0  0  0
  8 23  1  0  0  0  0
 10  7  1  6  0  0  0
 10  1  1  0  0  0  0
 11  9  1  1  0  0  0
 11 10  1  0  0  0  0
 11 17  1  0  0  0  0
 12 22  1  0  0  0  0
 12 18  1  1  0  0  0
 13  8  1  0  0  0  0
 13 15  1  0  0  0  0
 14 26  1  6  0  0  0
 14  6  1  0  0  0  0
 17 16  1  6  0  0  0
 17 12  1  0  0  0  0
 18 23  1  0  0  0  0
 22  4  1  0  0  0  0
 23  5  1  0  0  0  0
 25 24  1  0  0  0  0
 27 28  1  0  0  0  0
 28 26  1  0  0  0  0
 29 28  1  0  0  0  0
 29 30  1  0  0  0  0
 30 31  1  0  0  0  0
 32 30  2  0  0  0  0
M  END
>  <MODEL>
1

>  <REMARK>
 VINA RESULT:      -7.3      0.000      0.000
  Name = 
  5 active torsions:
  status: ('A' for Active; 'I' for Inactive)
    1  A    between atoms: C_7  and  C_19
    2  A    between atoms: O_10  and  C_17
    3  A    between atoms: O_10  and  C_20
    4  A    between atoms: C_20  and  C_29
    5  A    between atoms: C_29  and  C_30
                            x       y       z     vdW  Elec       q    Type
                         _______ _______ _______ _____ _____    ______ ____

>  <TORSDO>
F 5

$$$$
=
 OpenBabel11112416443D

 32 36  0  0  1  0  0  0  0  0999 V2000
  190.9690  175.3880  144.1840 C   0  0  1  0  0  3  0  0  0  0  0  0
  188.5750  174.0770  139.9280 C   0  0  0  0  0  2  0  0  0  0  0  0
  189.6550  173.0450  139.6620 C   0  0  0  0  0  2  0  0  0  0  0  0
  193.3330  174.5300  144.5720 C   0  0  2  0  0  3  0  0  0  0  0  0
  194.4830  174.6310  143.6540 N   0  0  2  0  0  0  0  0  0  0  0  0
  190.0940  176.7850  145.7220 C   0  0  2  0  0  3  0  0  0  0  0  0
  188.6560  176.1420  143.7640 C   0  0  0  0  0  2  0  0  0  0  0  0
  195.0220  174.6330  141.3010 C   0  0  2  0  0  3  0  0  0  0  0  0
  188.3970  174.2300  141.4330 C   0  0  0  0  0  2  0  0  0  0  0  0
  189.6160  174.9690  143.5930 C   0  0  1  0  0  3  0  0  0  0  0  0
  189.7030  174.4880  142.1530 C   0  0  1  0  0  3  0  0  0  0  0  0
  192.1780  174.2590  142.3840 C   0  0  2  0  0  3  0  0  0  0  0  0
  194.8020  176.0620  141.7220 C   0  0  0  0  0  2  0  0  0  0  0  0
  188.6450  176.6070  145.2250 C   0  0  2  0  0  3  0  0  0  0  0  0
  194.6270  176.0230  143.2310 C   0  0  0  0  0  2  0  0  0  0  0  0
  190.9800  173.5610  140.2060 C   0  0  0  0  0  2  0  0  0  0  0  0
  190.8810  174.0220  141.6430 C   0  0  2  0  0  3  0  0  0  0  0  0
  193.1390  173.2810  142.1040 O   0  0  0  0  0  0  0  0  0  0  0  0
  190.8170  175.5840  145.5670 O   0  0  0  0  0  0  0  0  0  0  0  0
  193.5800  173.4350  145.5910 C   0  0  0  0  0  1  0  0  0  0  0  0
  194.4010  174.3830  140.0750 O   0  0  0  0  0  1  0  0  0  0  0  0
  191.9840  174.3000  143.8830 C   0  0  2  0  0  3  0  0  0  0  0  0
  194.4250  173.8010  142.4260 C   0  0  2  0  0  3  0  0  0  0  0  0
  191.2550  176.5120  147.9070 C   0  0  0  0  0  1  0  0  0  0  0  0
  190.1060  177.1900  147.1850 C   0  0  0  0  0  2  0  0  0  0  0  0
  187.9460  177.8180  145.3150 O   0  0  0  0  0  0  0  0  0  0  0  0
  185.9130  178.7820  144.5160 C   0  0  0  0  0  1  0  0  0  0  0  0
  186.6230  177.5180  144.9640 C   0  0  2  0  0  3  0  0  0  0  0  0
  185.8820  176.9480  146.1640 C   0  0  0  0  0  2  0  0  0  0  0  0
  185.6070  178.0030  147.1780 C   0  0  0  0  0  0  0  0  0  0  0  0
  184.4340  178.4290  147.3440 O   0  0  0  0  0  0  0  0  0  0  0  0
  186.6440  178.5060  147.9530 O   0  0  0  0  0  1  0  0  0  0  0  0
  1 19  1  1  0  0  0
  2  9  1  0  0  0  0
  3  2  1  0  0  0  0
  3 16  1  0  0  0  0
  4 20  1  1  0  0  0
  5 15  1  6  0  0  0
  5  4  1  0  0  0  0
  6 25  1  1  0  0  0
  7 14  1  0  0  0  0
  8 21  1  6  0  0  0
  8 13  1  0  0  0  0
  8 23  1  0  0  0  0
 10  7  1  6  0  0  0
 10  1  1  0  0  0  0
 11  9  1  1  0  0  0
 11 10  1  0  0  0  0
 12 18  1  1  0  0  0
 12 22  1  0  0  0  0
 13 15  1  0  0  0  0
 14 26  1  6  0  0  0
 14  6  1  0  0  0  0
 17 16  1  6  0  0  0
 17 11  1  0  0  0  0
 17 12  1  0  0  0  0
 18 23  1  0  0  0  0
 19  6  1  0  0  0  0
 22  1  1  0  0  0  0
 22  4  1  0  0  0  0
 23  5  1  0  0  0  0
 25 24  1  0  0  0  0
 27 28  1  0  0  0  0
 28 26  1  0  0  0  0
 28 29  1  0  0  0  0
 29 30  1  0  0  0  0
 30 31  2  0  0  0  0
 30 32  1  0  0  0  0
M  END
>  <MODEL>
2

>  <REMARK>
 VINA RESULT:      -7.1      2.718      4.058
  Name = 
  5 active torsions:
  status: ('A' for Active; 'I' for Inactive)
    1  A    between atoms: C_7  and  C_19
    2  A    between atoms: O_10  and  C_17
    3  A    between atoms: O_10  and  C_20
    4  A    between atoms: C_20  and  C_29
    5  A    between atoms: C_29  and  C_30
                            x       y       z     vdW  Elec       q    Type
                         _______ _______ _______ _____ _____    ______ ____

>  <TORSDO>
F 5

$$$$
=
 OpenBabel11112416443D

 32 36  0  0  1  0  0  0  0  0999 V2000
  191.5880  175.3210  144.1740 C   0  0  1  0  0  3  0  0  0  0  0  0
  189.7600  171.8510  140.9860 C   0  0  0  0  0  2  0  0  0  0  0  0
  188.9390  172.9330  140.3100 C   0  0  0  0  0  2  0  0  0  0  0  0
  190.4890  177.6140  144.2490 C   0  0  2  0  0  3  0  0  0  0  0  0
  189.0550  177.9140  144.4250 N   0  0  2  0  0  0  0  0  0  0  0  0
  193.2700  174.9160  145.6200 C   0  0  2  0  0  3  0  0  0  0  0  0
  192.6370  173.0920  144.0120 C   0  0  0  0  0  2  0  0  0  0  0  0
  186.8680  177.0390  143.8960 C   0  0  2  0  0  3  0  0  0  0  0  0
  191.0490  172.4660  141.5140 C   0  0  0  0  0  2  0  0  0  0  0  0
  191.9710  174.1990  143.2010 C   0  0  1  0  0  3  0  0  0  0  0  0
  190.8050  173.6930  142.3670 C   0  0  1  0  0  3  0  0  0  0  0  0
  189.4830  175.7130  142.9970 C   0  0  2  0  0  3  0  0  0  0  0  0
  187.2660  176.4960  145.2440 C   0  0  0  0  0  2  0  0  0  0  0  0
  193.7740  173.6710  144.8620 C   0  0  2  0  0  3  0  0  0  0  0  0
  188.5660  177.1970  145.6020 C   0  0  0  0  0  2  0  0  0  0  0  0
  188.5310  173.9700  141.3490 C   0  0  0  0  0  2  0  0  0  0  0  0
  189.7030  174.4730  142.1600 C   0  0  2  0  0  3  0  0  0  0  0  0
  188.7200  176.6790  142.3290 O   0  0  0  0  0  0  0  0  0  0  0  0
  192.7630  175.8710  144.7140 O   0  0  0  0  0  0  0  0  0  0  0  0
  191.1950  178.8100  143.6380 C   0  0  0  0  0  1  0  0  0  0  0  0
  186.2940  176.0350  143.1140 O   0  0  0  0  0  1  0  0  0  0  0  0
  190.7820  176.3620  143.4180 C   0  0  2  0  0  3  0  0  0  0  0  0
  188.1620  177.5650  143.2940 C   0  0  2  0  0  3  0  0  0  0  0  0
  194.5480  177.0060  146.0650 C   0  0  0  0  0  1  0  0  0  0  0  0
  194.3980  175.5400  146.4230 C   0  0  0  0  0  2  0  0  0  0  0  0
  194.2150  172.6950  145.7650 O   0  0  0  0  0  0  0  0  0  0  0  0
  195.0860  170.5280  145.2680 C   0  0  0  0  0  1  0  0  0  0  0  0
  195.2640  172.0280  145.1190 C   0  0  2  0  0  3  0  0  0  0  0  0
  196.5930  172.4210  145.7440 C   0  0  0  0  0  2  0  0  0  0  0  0
  197.4380  173.1800  144.7810 C   0  0  0  0  0  0  0  0  0  0  0  0
  197.7220  174.3870  145.0030 O   0  0  0  0  0  1  0  0  0  0  0  0
  197.9270  172.5520  143.6430 O   0  0  0  0  0  0  0  0  0  0  0  0
  1 19  1  6  0  0  0
  2  9  1  0  0  0  0
  3  2  1  0  0  0  0
  3 16  1  0  0  0  0
  4 20  1  6  0  0  0
  4  5  1  0  0  0  0
  5 15  1  1  0  0  0
  6 25  1  6  0  0  0
  7 14  1  0  0  0  0
  8 21  1  6  0  0  0
  8 13  1  0  0  0  0
 10  7  1  1  0  0  0
 10  1  1  0  0  0  0
 11  9  1  6  0  0  0
 11 10  1  0  0  0  0
 12 18  1  6  0  0  0
 12 22  1  0  0  0  0
 13 15  1  0  0  0  0
 14  6  1  0  0  0  0
 14 26  1  1  0  0  0
 17 16  1  1  0  0  0
 17 11  1  0  0  0  0
 17 12  1  0  0  0  0
 18 23  1  0  0  0  0
 19  6  1  0  0  0  0
 22  1  1  0  0  0  0
 22  4  1  0  0  0  0
 23  8  1  0  0  0  0
 23  5  1  0  0  0  0
 24 25  1  0  0  0  0
 28 27  1  0  0  0  0
 28 29  1  0  0  0  0
 28 26  1  0  0  0  0
 30 31  1  0  0  0  0
 30 29  1  0  0  0  0
 32 30  2  0  0  0  0
M  END
>  <MODEL>
3

>  <REMARK>
 VINA RESULT:      -6.9      2.478      7.961
  Name = 
  5 active torsions:
  status: ('A' for Active; 'I' for Inactive)
    1  A    between atoms: C_7  and  C_19
    2  A    between atoms: O_10  and  C_17
    3  A    between atoms: O_10  and  C_20
    4  A    between atoms: C_20  and  C_29
    5  A    between atoms: C_29  and  C_30
                            x       y       z     vdW  Elec       q    Type
                         _______ _______ _______ _____ _____    ______ ____

>  <TORSDO>
F 5

$$$$
=
 OpenBabel11112416443D

 32 36  0  0  1  0  0  0  0  0999 V2000
  190.5630  175.4750  143.3220 C   0  0  1  0  0  3  0  0  0  0  0  0
  189.0440  173.7210  138.8310 C   0  0  0  0  0  2  0  0  0  0  0  0
  190.1400  172.6740  138.8910 C   0  0  0  0  0  2  0  0  0  0  0  0
  192.7910  174.6760  144.2570 C   0  0  2  0  0  3  0  0  0  0  0  0
  194.1020  174.6900  143.5810 N   0  0  2  0  0  0  0  0  0  0  0  0
  189.4200  177.0160  144.5050 C   0  0  2  0  0  3  0  0  0  0  0  0
  188.3910  176.1670  142.3760 C   0  0  0  0  0  2  0  0  0  0  0  0
  195.0970  174.4550  141.3940 C   0  0  2  0  0  3  0  0  0  0  0  0
  188.5730  174.0250  140.2470 C   0  0  0  0  0  2  0  0  0  0  0  0
  189.3490  174.9890  142.5200 C   0  0  1  0  0  3  0  0  0  0  0  0
  189.7130  174.3640  141.1820 C   0  0  1  0  0  3  0  0  0  0  0  0
  192.0890  174.1760  141.9220 C   0  0  2  0  0  3  0  0  0  0  0  0
  194.8180  175.9190  141.6160 C   0  0  0  0  0  2  0  0  0  0  0  0
  188.0960  176.7790  143.7510 C   0  0  2  0  0  3  0  0  0  0  0  0
  194.3470  176.0330  143.0560 C   0  0  0  0  0  2  0  0  0  0  0  0
  191.3380  173.2510  139.6320 C   0  0  0  0  0  2  0  0  0  0  0  0
  190.9630  173.8560  140.9660 C   0  0  2  0  0  3  0  0  0  0  0  0
  193.0730  173.1810  141.9400 O   0  0  0  0  0  0  0  0  0  0  0  0
  190.1430  175.8100  144.6200 O   0  0  0  0  0  0  0  0  0  0  0  0
  192.8150  173.6920  145.4110 C   0  0  0  0  0  1  0  0  0  0  0  0
  194.7280  174.0770  140.1010 O   0  0  0  0  0  1  0  0  0  0  0  0
  191.6020  174.3680  143.3410 C   0  0  2  0  0  3  0  0  0  0  0  0
  194.2760  173.7390  142.4570 C   0  0  2  0  0  3  0  0  0  0  0  0
  188.4160  176.5380  146.7320 C   0  0  0  0  0  1  0  0  0  0  0  0
  189.1480  177.5680  145.8930 C   0  0  0  0  0  2  0  0  0  0  0  0
  187.4100  177.9880  143.5770 O   0  0  0  0  0  0  0  0  0  0  0  0
  185.1300  177.5710  143.0030 C   0  0  0  0  0  1  0  0  0  0  0  0
  186.1350  177.7810  144.1200 C   0  0  2  0  0  3  0  0  0  0  0  0
  185.7110  178.9970  144.9290 C   0  0  0  0  0  2  0  0  0  0  0  0
  185.3210  178.6130  146.3150 C   0  0  0  0  0  0  0  0  0  0  0  0
  185.7230  179.2930  147.2950 O   0  0  0  0  0  1  0  0  0  0  0  0
  184.5000  177.5130  146.5240 O   0  0  0  0  0  0  0  0  0  0  0  0
  1 22  1  0  0  0  0
  1 19  1  1  0  0  0
  2  3  1  0  0  0  0
  2  9  1  0  0  0  0
  3 16  1  0  0  0  0
  4 20  1  1  0  0  0
  5 15  1  6  0  0  0
  5  4  1  0  0  0  0
  6 19  1  0  0  0  0
  6 25  1  1  0  0  0
  7 14  1  0  0  0  0
  8 21  1  6  0  0  0
  8 13  1  0  0  0  0
  8 23  1  0  0  0  0
 10  7  1  6  0  0  0
 10  1  1  0  0  0  0
 11  9  1  1  0  0  0
 11 10  1  0  0  0  0
 12 18  1  1  0  0  0
 12 22  1  0  0  0  0
 13 15  1  0  0  0  0
 14 26  1  6  0  0  0
 14  6  1  0  0  0  0
 17 16  1  6  0  0  0
 17 11  1  0  0  0  0
 17 12  1  0  0  0  0
 18 23  1  0  0  0  0
 22  4  1  0  0  0  0
 23  5  1  0  0  0  0
 25 24  1  0  0  0  0
 26 28  1  0  0  0  0
 27 28  1  0  0  0  0
 28 29  1  0  0  0  0
 29 30  1  0  0  0  0
 30 32  2  0  0  0  0
 30 31  1  0  0  0  0
M  END
>  <MODEL>
4

>  <REMARK>
 VINA RESULT:      -6.9      2.346      3.396
  Name = 
  5 active torsions:
  status: ('A' for Active; 'I' for Inactive)
    1  A    between atoms: C_7  and  C_19
    2  A    between atoms: O_10  and  C_17
    3  A    between atoms: O_10  and  C_20
    4  A    between atoms: C_20  and  C_29
    5  A    between atoms: C_29  and  C_30
                            x       y       z     vdW  Elec       q    Type
                         _______ _______ _______ _____ _____    ______ ____

>  <TORSDO>
F 5

$$$$
=
 OpenBabel11112416443D

 32 36  0  0  1  0  0  0  0  0999 V2000
  189.6290  175.1940  142.6050 C   0  0  1  0  0  3  0  0  0  0  0  0
  185.4570  177.8710  141.6160 C   0  0  0  0  0  2  0  0  0  0  0  0
  185.9420  178.9440  142.5730 C   0  0  0  0  0  2  0  0  0  0  0  0
  191.0940  175.8910  144.5650 C   0  0  2  0  0  3  0  0  0  0  0  0
  190.6720  176.1280  145.9580 N   0  0  2  0  0  0  0  0  0  0  0  0
  190.2160  173.3410  141.4630 C   0  0  2  0  0  3  0  0  0  0  0  0
  188.1880  174.6060  140.6890 C   0  0  0  0  0  2  0  0  0  0  0  0
  188.8020  176.9480  147.2470 C   0  0  2  0  0  3  0  0  0  0  0  0
  186.6630  177.2040  140.9680 C   0  0  0  0  0  2  0  0  0  0  0  0
  188.7590  175.7760  141.4840 C   0  0  1  0  0  3  0  0  0  0  0  0
  187.6820  176.7270  141.9810 C   0  0  1  0  0  3  0  0  0  0  0  0
  188.8470  176.8900  144.1820 C   0  0  2  0  0  3  0  0  0  0  0  0
  188.6350  175.4580  147.0940 C   0  0  0  0  0  2  0  0  0  0  0  0
  189.3160  173.6630  140.2530 C   0  0  2  0  0  3  0  0  0  0  0  0
  189.9080  174.9700  146.4220 C   0  0  0  0  0  2  0  0  0  0  0  0
  186.7310  178.2860  143.6970 C   0  0  0  0  0  2  0  0  0  0  0  0
  187.8070  177.3550  143.1880 C   0  0  2  0  0  3  0  0  0  0  0  0
  189.2600  177.9150  145.0400 O   0  0  0  0  0  0  0  0  0  0  0  0
  190.7250  174.5300  142.0280 O   0  0  0  0  0  0  0  0  0  0  0  0
  192.4260  176.5680  144.3080 C   0  0  0  0  0  1  0  0  0  0  0  0
  187.5840  177.6000  147.0430 O   0  0  0  0  0  1  0  0  0  0  0  0
  190.0790  176.3300  143.5060 C   0  0  2  0  0  3  0  0  0  0  0  0
  189.8390  177.3310  146.2020 C   0  0  2  0  0  3  0  0  0  0  0  0
  192.5200  173.3010  140.5210 C   0  0  0  0  0  1  0  0  0  0  0  0
  191.3740  172.4540  141.0410 C   0  0  0  0  0  2  0  0  0  0  0  0
  188.7560  172.4880  139.7340 O   0  0  0  0  0  0  0  0  0  0  0  0
  189.6910  171.3290  137.8670 C   0  0  0  0  0  1  0  0  0  0  0  0
  188.9450  172.5610  138.3470 C   0  0  2  0  0  3  0  0  0  0  0  0
  189.7680  173.7910  137.9970 C   0  0  0  0  0  2  0  0  0  0  0  0
  189.4220  174.3020  136.6410 C   0  0  0  0  0  0  0  0  0  0  0  0
  190.2130  174.1240  135.6780 O   0  0  0  0  0  0  0  0  0  0  0  0
  188.2180  174.9630  136.4360 O   0  0  0  0  0  1  0  0  0  0  0  0
  1 19  1  6  0  0  0
  1 22  1  0  0  0  0
  2  3  1  0  0  0  0
  3 16  1  0  0  0  0
  4 20  1  6  0  0  0
  4  5  1  0  0  0  0
  5 23  1  0  0  0  0
  5 15  1  6  0  0  0
  6 25  1  6  0  0  0
  6 19  1  0  0  0  0
  8 21  1  6  0  0  0
  9  2  1  0  0  0  0
 10  7  1  1  0  0  0
 10 11  1  0  0  0  0
 10  1  1  0  0  0  0
 11  9  1  6  0  0  0
 11 17  1  0  0  0  0
 12 18  1  6  0  0  0
 13  8  1  0  0  0  0
 14 26  1  1  0  0  0
 14  7  1  0  0  0  0
 14  6  1  0  0  0  0
 15 13  1  0  0  0  0
 17 16  1  1  0  0  0
 17 12  1  0  0  0  0
 18 23  1  0  0  0  0
 22 12  1  0  0  0  0
 22  4  1  0  0  0  0
 23  8  1  0  0  0  0
 24 25  1  0  0  0  0
 27 28  1  0  0  0  0
 28 26  1  0  0  0  0
 29 28  1  0  0  0  0
 30 29  1  0  0  0  0
 31 30  2  0  0  0  0
 32 30  1  0  0  0  0
M  END
>  <MODEL>
5

>  <REMARK>
 VINA RESULT:      -6.8      2.703      5.899
  Name = 
  5 active torsions:
  status: ('A' for Active; 'I' for Inactive)
    1  A    between atoms: C_7  and  C_19
    2  A    between atoms: O_10  and  C_17
    3  A    between atoms: O_10  and  C_20
    4  A    between atoms: C_20  and  C_29
    5  A    between atoms: C_29  and  C_30
                            x       y       z     vdW  Elec       q    Type
                         _______ _______ _______ _____ _____    ______ ____

>  <TORSDO>
F 5

$$$$
=
 OpenBabel11112416443D

 32 36  0  0  1  0  0  0  0  0999 V2000
  188.3300  175.6320  143.9260 C   0  0  1  0  0  3  0  0  0  0  0  0
  185.7330  177.3260  139.9330 C   0  0  0  0  0  2  0  0  0  0  0  0
  185.5770  178.6660  140.6270 C   0  0  0  0  0  2  0  0  0  0  0  0
  188.3230  177.0120  146.0640 C   0  0  2  0  0  3  0  0  0  0  0  0
  187.1490  177.5290  146.7920 N   0  0  2  0  0  0  0  0  0  0  0  0
  189.4160  173.6570  143.9550 C   0  0  2  0  0  3  0  0  0  0  0  0
  188.3320  174.3720  141.8040 C   0  0  0  0  0  2  0  0  0  0  0  0
  184.9160  178.3640  146.4140 C   0  0  2  0  0  3  0  0  0  0  0  0
  187.0570  176.7020  140.3550 C   0  0  0  0  0  2  0  0  0  0  0  0
  188.3460  175.7760  142.3990 C   0  0  1  0  0  3  0  0  0  0  0  0
  187.2280  176.6530  141.8580 C   0  0  1  0  0  3  0  0  0  0  0  0
  186.8160  177.5380  144.1540 C   0  0  2  0  0  3  0  0  0  0  0  0
  184.8180  176.8770  146.6330 C   0  0  0  0  0  2  0  0  0  0  0  0
  189.4540  173.5260  142.4180 C   0  0  2  0  0  3  0  0  0  0  0  0
  186.2160  176.4270  147.0240 C   0  0  0  0  0  2  0  0  0  0  0  0
  185.4910  178.4390  142.1310 C   0  0  0  0  0  2  0  0  0  0  0  0
  186.6170  177.5770  142.6560 C   0  0  2  0  0  3  0  0  0  0  0  0
  186.6610  178.7970  144.7460 O   0  0  0  0  0  0  0  0  0  0  0  0
  189.5220  175.0120  144.3350 O   0  0  0  0  0  0  0  0  0  0  0  0
  189.5620  177.7900  146.4630 C   0  0  0  0  0  1  0  0  0  0  0  0
  184.1010  178.7570  145.3490 O   0  0  0  0  0  1  0  0  0  0  0  0
  188.1820  177.0130  144.5390 C   0  0  2  0  0  3  0  0  0  0  0  0
  186.3890  178.6180  146.1320 C   0  0  2  0  0  3  0  0  0  0  0  0
  191.6700  173.8130  145.0010 C   0  0  0  0  0  1  0  0  0  0  0  0
  190.5560  172.8730  144.5810 C   0  0  0  0  0  2  0  0  0  0  0  0
  189.2800  172.1890  142.0380 O   0  0  0  0  0  0  0  0  0  0  0  0
  191.0260  170.6970  141.3850 C   0  0  0  0  0  1  0  0  0  0  0  0
  190.2400  171.9500  141.0460 C   0  0  2  0  0  3  0  0  0  0  0  0
  191.2080  173.1200  140.9670 C   0  0  0  0  0  2  0  0  0  0  0  0
  191.4930  173.4900  139.5520 C   0  0  0  0  0  0  0  0  0  0  0  0
  192.6390  173.8910  139.2220 O   0  0  0  0  0  1  0  0  0  0  0  0
  190.4950  173.3750  138.5930 O   0  0  0  0  0  0  0  0  0  0  0  0
  1 19  1  1  0  0  0
  1 22  1  0  0  0  0
  2  9  1  0  0  0  0
  2  3  1  0  0  0  0
  3 16  1  0  0  0  0
  4 20  1  6  0  0  0
  4  5  1  0  0  0  0
  5 15  1  6  0  0  0
  6 19  1  0  0  0  0
  6 25  1  1  0  0  0
  7 14  1  0  0  0  0
  8 21  1  6  0  0  0
  8 13  1  0  0  0  0
 10  7  1  6  0  0  0
 10  1  1  0  0  0  0
 11  9  1  6  0  0  0
 11 10  1  0  0  0  0
 11 17  1  0  0  0  0
 12 22  1  0  0  0  0
 12 18  1  6  0  0  0
 13 15  1  0  0  0  0
 14 26  1  1  0  0  0
 14  6  1  0  0  0  0
 17 16  1  1  0  0  0
 17 12  1  0  0  0  0
 18 23  1  0  0  0  0
 22  4  1  0  0  0  0
 23  8  1  0  0  0  0
 23  5  1  0  0  0  0
 25 24  1  0  0  0  0
 28 27  1  0  0  0  0
 28 26  1  0  0  0  0
 29 28  1  0  0  0  0
 30 29  1  0  0  0  0
 31 30  1  0  0  0  0
 32 30  2  0  0  0  0
M  END
>  <MODEL>
6

>  <REMARK>
 VINA RESULT:      -6.7      2.397      6.682
  Name = 
  5 active torsions:
  status: ('A' for Active; 'I' for Inactive)
    1  A    between atoms: C_7  and  C_19
    2  A    between atoms: O_10  and  C_17
    3  A    between atoms: O_10  and  C_20
    4  A    between atoms: C_20  and  C_29
    5  A    between atoms: C_29  and  C_30
                            x       y       z     vdW  Elec       q    Type
                         _______ _______ _______ _____ _____    ______ ____

>  <TORSDO>
F 5

$$$$
=
 OpenBabel11112416443D

 32 36  0  0  1  0  0  0  0  0999 V2000
  188.2060  176.2290  142.2080 C   0  0  1  0  0  3  0  0  0  0  0  0
  192.4650  177.2800  144.7190 C   0  0  0  0  0  2  0  0  0  0  0  0
  193.2150  176.3260  143.8080 C   0  0  0  0  0  2  0  0  0  0  0  0
  188.1900  174.2590  140.5980 C   0  0  2  0  0  3  0  0  0  0  0  0
  188.6070  172.8720  140.8770 N   0  0  2  0  0  0  0  0  0  0  0  0
  186.2740  177.3510  142.5130 C   0  0  2  0  0  3  0  0  0  0  0  0
  188.3100  178.1560  143.7480 C   0  0  0  0  0  2  0  0  0  0  0  0
  190.1960  171.6090  142.1840 C   0  0  2  0  0  3  0  0  0  0  0  0
  191.3190  177.9110  143.9390 C   0  0  0  0  0  2  0  0  0  0  0  0
  189.1050  177.3640  142.7150 C   0  0  1  0  0  3  0  0  0  0  0  0
  190.4460  176.8840  143.2510 C   0  0  1  0  0  3  0  0  0  0  0  0
  190.0900  174.6730  142.1510 C   0  0  2  0  0  3  0  0  0  0  0  0
  188.9400  171.7530  143.0030 C   0  0  0  0  0  2  0  0  0  0  0  0
  186.9550  178.5730  143.1630 C   0  0  2  0  0  3  0  0  0  0  0  0
  187.9230  172.4080  142.0840 C   0  0  0  0  0  2  0  0  0  0  0  0
  192.2850  175.1890  143.4070 C   0  0  0  0  0  2  0  0  0  0  0  0
  190.9620  175.6810  142.8640 C   0  0  2  0  0  3  0  0  0  0  0  0
  190.8280  173.8170  141.3250 O   0  0  0  0  0  0  0  0  0  0  0  0
  187.1130  176.7900  141.5260 O   0  0  0  0  0  0  0  0  0  0  0  0
  188.1900  174.5070  139.1020 C   0  0  0  0  0  1  0  0  0  0  0  0
  191.3250  171.8300  142.9760 O   0  0  0  0  0  1  0  0  0  0  0  0
  189.0280  175.3320  141.3000 C   0  0  2  0  0  3  0  0  0  0  0  0
  190.0580  172.6450  141.0790 C   0  0  2  0  0  3  0  0  0  0  0  0
  185.1930  178.2900  140.4760 C   0  0  0  0  0  1  0  0  0  0  0  0
  184.9570  177.7550  141.8760 C   0  0  0  0  0  2  0  0  0  0  0  0
  186.1530  179.0900  144.1890 O   0  0  0  0  0  0  0  0  0  0  0  0
  184.4740  178.0430  145.5260 C   0  0  0  0  0  1  0  0  0  0  0  0
  185.9190  178.0180  145.0610 C   0  0  2  0  0  3  0  0  0  0  0  0
  186.8200  178.1330  146.2810 C   0  0  0  0  0  2  0  0  0  0  0  0
  187.0500  176.8010  146.9080 C   0  0  0  0  0  0  0  0  0  0  0  0
  187.9320  176.0290  146.4470 O   0  0  0  0  0  0  0  0  0  0  0  0
  186.3020  176.4170  148.0130 O   0  0  0  0  0  1  0  0  0  0  0  0
  1 19  1  6  0  0  0
  1 10  1  0  0  0  0
  3  2  1  0  0  0  0
  4 20  1  6  0  0  0
  4  5  1  0  0  0  0
  4 22  1  0  0  0  0
  5 23  1  0  0  0  0
  5 15  1  1  0  0  0
  6 25  1  6  0  0  0
  6 14  1  0  0  0  0
  8 21  1  1  0  0  0
  8 13  1  0  0  0  0
  9  2  1  0  0  0  0
 10 11  1  0  0  0  0
 10  7  1  1  0  0  0
 11  9  1  6  0  0  0
 12 18  1  6  0  0  0
 12 17  1  0  0  0  0
 14  7  1  0  0  0  0
 14 26  1  1  0  0  0
 15 13  1  0  0  0  0
 16  3  1  0  0  0  0
 17 11  1  0  0  0  0
 17 16  1  1  0  0  0
 19  6  1  0  0  0  0
 22 12  1  0  0  0  0
 22  1  1  0  0  0  0
 23 18  1  0  0  0  0
 23  8  1  0  0  0  0
 24 25  1  0  0  0  0
 26 28  1  0  0  0  0
 28 27  1  0  0  0  0
 28 29  1  0  0  0  0
 29 30  1  0  0  0  0
 30 32  1  0  0  0  0
 31 30  2  0  0  0  0
M  END
>  <MODEL>
7

>  <REMARK>
 VINA RESULT:      -6.7      2.443      5.070
  Name = 
  5 active torsions:
  status: ('A' for Active; 'I' for Inactive)
    1  A    between atoms: C_7  and  C_19
    2  A    between atoms: O_10  and  C_17
    3  A    between atoms: O_10  and  C_20
    4  A    between atoms: C_20  and  C_29
    5  A    between atoms: C_29  and  C_30
                            x       y       z     vdW  Elec       q    Type
                         _______ _______ _______ _____ _____    ______ ____

>  <TORSDO>
F 5

$$$$
=
 OpenBabel11112416443D

 32 36  0  0  1  0  0  0  0  0999 V2000
  189.8500  176.0870  143.5490 C   0  0  1  0  0  3  0  0  0  0  0  0
  188.9730  178.4000  147.9580 C   0  0  0  0  0  2  0  0  0  0  0  0
  187.5070  178.0250  147.8410 C   0  0  0  0  0  2  0  0  0  0  0  0
  187.8670  175.4000  142.1120 C   0  0  2  0  0  3  0  0  0  0  0  0
  186.7420  176.2480  141.6740 N   0  0  2  0  0  0  0  0  0  0  0  0
  191.9180  175.7210  142.7280 C   0  0  2  0  0  3  0  0  0  0  0  0
  191.7250  176.7380  145.0180 C   0  0  0  0  0  2  0  0  0  0  0  0
  185.3850  178.1050  142.4090 C   0  0  2  0  0  3  0  0  0  0  0  0
  189.8140  177.3190  147.2910 C   0  0  0  0  0  2  0  0  0  0  0  0
  190.3010  176.1930  145.0120 C   0  0  1  0  0  3  0  0  0  0  0  0
  189.3570  177.0100  145.8820 C   0  0  1  0  0  3  0  0  0  0  0  0
  187.5980  176.8480  144.1190 C   0  0  2  0  0  3  0  0  0  0  0  0
  186.5490  178.6660  141.6350 C   0  0  0  0  0  2  0  0  0  0  0  0
  192.6150  175.8990  144.0930 C   0  0  2  0  0  3  0  0  0  0  0  0
  187.2790  177.4620  141.0610 C   0  0  0  0  0  2  0  0  0  0  0  0
  187.1140  178.0150  146.3690 C   0  0  0  0  0  2  0  0  0  0  0  0
  188.0520  177.1880  145.5200 C   0  0  2  0  0  3  0  0  0  0  0  0
  186.2410  176.5100  144.0640 O   0  0  0  0  0  0  0  0  0  0  0  0
  190.6480  175.1310  142.8990 O   0  0  0  0  0  0  0  0  0  0  0  0
  187.4800  173.9370  142.0100 C   0  0  0  0  0  1  0  0  0  0  0  0
  185.1590  178.8550  143.5650 O   0  0  0  0  0  1  0  0  0  0  0  0
  188.3830  175.7000  143.5230 C   0  0  2  0  0  3  0  0  0  0  0  0
  185.7850  176.6710  142.7260 C   0  0  2  0  0  3  0  0  0  0  0  0
  192.9250  173.4650  142.4230 C   0  0  0  0  0  1  0  0  0  0  0  0
  192.7570  174.8440  141.8150 C   0  0  0  0  0  2  0  0  0  0  0  0
  193.8470  176.5480  143.9310 O   0  0  0  0  0  0  0  0  0  0  0  0
  194.9430  177.6150  145.7640 C   0  0  0  0  0  1  0  0  0  0  0  0
  194.5620  176.2990  145.1090 C   0  0  2  0  0  3  0  0  0  0  0  0
  195.8360  175.5310  144.7930 C   0  0  0  0  0  2  0  0  0  0  0  0
  196.3510  175.8770  143.4390 C   0  0  0  0  0  0  0  0  0  0  0  0
  196.1490  175.1010  142.4680 O   0  0  0  0  0  0  0  0  0  0  0  0
  197.0420  177.0660  143.2440 O   0  0  0  0  0  1  0  0  0  0  0  0
  1 19  1  6  0  0  0
  1 10  1  0  0  0  0
  3  2  1  0  0  0  0
  4 20  1  1  0  0  0
  4 22  1  0  0  0  0
  5 15  1  1  0  0  0
  5  4  1  0  0  0  0
  5 23  1  0  0  0  0
  6 25  1  6  0  0  0
  6 19  1  0  0  0  0
  6 14  1  0  0  0  0
  8 23  1  0  0  0  0
  8 21  1  1  0  0  0
  9  2  1  0  0  0  0
 10  7  1  6  0  0  0
 10 11  1  0  0  0  0
 11  9  1  1  0  0  0
 12 18  1  1  0  0  0
 12 17  1  0  0  0  0
 13  8  1  0  0  0  0
 14 26  1  6  0  0  0
 14  7  1  0  0  0  0
 15 13  1  0  0  0  0
 16  3  1  0  0  0  0
 17 11  1  0  0  0  0
 17 16  1  6  0  0  0
 22  1  1  0  0  0  0
 22 12  1  0  0  0  0
 23 18  1  0  0  0  0
 25 24  1  0  0  0  0
 26 28  1  0  0  0  0
 28 27  1  0  0  0  0
 29 28  1  0  0  0  0
 30 29  1  0  0  0  0
 31 30  2  0  0  0  0
 32 30  1  0  0  0  0
M  END
>  <MODEL>
8

>  <REMARK>
 VINA RESULT:      -6.7      2.450      8.169
  Name = 
  5 active torsions:
  status: ('A' for Active; 'I' for Inactive)
    1  A    between atoms: C_7  and  C_19
    2  A    between atoms: O_10  and  C_17
    3  A    between atoms: O_10  and  C_20
    4  A    between atoms: C_20  and  C_29
    5  A    between atoms: C_29  and  C_30
                            x       y       z     vdW  Elec       q    Type
                         _______ _______ _______ _____ _____    ______ ____

>  <TORSDO>
F 5

$$$$
=
 OpenBabel11112416443D

 32 36  0  0  1  0  0  0  0  0999 V2000
  190.6180  174.6250  143.2370 C   0  0  1  0  0  3  0  0  0  0  0  0
  193.7370  176.0610  146.9460 C   0  0  0  0  0  2  0  0  0  0  0  0
  194.9130  175.5810  146.1170 C   0  0  0  0  0  2  0  0  0  0  0  0
  191.5350  173.1730  141.3600 C   0  0  2  0  0  3  0  0  0  0  0  0
  192.2880  171.9110  141.4910 N   0  0  2  0  0  0  0  0  0  0  0  0
  188.4170  175.1140  143.2050 C   0  0  2  0  0  3  0  0  0  0  0  0
  189.8090  176.0740  145.0640 C   0  0  0  0  0  2  0  0  0  0  0  0
  193.8790  170.8060  142.9310 C   0  0  2  0  0  3  0  0  0  0  0  0
  192.6410  176.5550  146.0110 C   0  0  0  0  0  2  0  0  0  0  0  0
  191.0030  175.7870  144.1610 C   0  0  1  0  0  3  0  0  0  0  0  0
  192.2840  175.5440  144.9430 C   0  0  1  0  0  3  0  0  0  0  0  0
  192.8550  173.6560  143.4150 C   0  0  2  0  0  3  0  0  0  0  0  0
  192.4980  170.4230  143.3960 C   0  0  0  0  0  2  0  0  0  0  0  0
  188.5430  176.2680  144.2200 C   0  0  2  0  0  3  0  0  0  0  0  0
  191.5430  171.0070  142.3670 C   0  0  0  0  0  2  0  0  0  0  0  0
  194.4780  174.3810  145.2860 C   0  0  0  0  0  2  0  0  0  0  0  0
  193.2110  174.6430  144.5030 C   0  0  2  0  0  3  0  0  0  0  0  0
  193.9730  173.2440  142.6800 O   0  0  0  0  0  0  0  0  0  0  0  0
  189.5720  175.0420  142.3970 O   0  0  0  0  0  0  0  0  0  0  0  0
  191.7710  173.7740  139.9880 C   0  0  0  0  0  1  0  0  0  0  0  0
  194.6970  171.1020  144.0240 O   0  0  0  0  0  1  0  0  0  0  0  0
  191.8430  174.2150  142.4400 C   0  0  2  0  0  3  0  0  0  0  0  0
  193.6650  172.0140  142.0320 C   0  0  2  0  0  3  0  0  0  0  0  0
  187.5710  176.1420  141.1020 C   0  0  0  0  0  1  0  0  0  0  0  0
  187.2000  175.3170  142.3200 C   0  0  0  0  0  2  0  0  0  0  0  0
  187.4270  176.2970  145.0680 O   0  0  0  0  0  0  0  0  0  0  0  0
  186.9990  177.9840  146.7020 C   0  0  0  0  0  1  0  0  0  0  0  0
  187.1070  177.6520  145.2250 C   0  0  2  0  0  3  0  0  0  0  0  0
  185.7710  177.9510  144.5640 C   0  0  0  0  0  2  0  0  0  0  0  0
  185.8610  179.1520  143.6870 C   0  0  0  0  0  0  0  0  0  0  0  0
  185.5270  180.2830  144.1290 O   0  0  0  0  0  1  0  0  0  0  0  0
  186.3280  179.0270  142.3860 O   0  0  0  0  0  0  0  0  0  0  0  0
  1 19  1  6  0  0  0
  1 10  1  0  0  0  0
  3  2  1  0  0  0  0
  4 20  1  6  0  0  0
  4  5  1  0  0  0  0
  4 22  1  0  0  0  0
  5 23  1  0  0  0  0
  5 15  1  1  0  0  0
  6 25  1  6  0  0  0
  6 14  1  0  0  0  0
  8 13  1  0  0  0  0
  8 21  1  1  0  0  0
  9  2  1  0  0  0  0
 10 11  1  0  0  0  0
 10  7  1  1  0  0  0
 11  9  1  6  0  0  0
 12 18  1  6  0  0  0
 12 17  1  0  0  0  0
 14  7  1  0  0  0  0
 14 26  1  1  0  0  0
 15 13  1  0  0  0  0
 16  3  1  0  0  0  0
 17 11  1  0  0  0  0
 17 16  1  1  0  0  0
 19  6  1  0  0  0  0
 22  1  1  0  0  0  0
 22 12  1  0  0  0  0
 23 18  1  0  0  0  0
 23  8  1  0  0  0  0
 24 25  1  0  0  0  0
 26 28  1  0  0  0  0
 28 27  1  0  0  0  0
 29 28  1  0  0  0  0
 30 31  1  0  0  0  0
 30 29  1  0  0  0  0
 32 30  2  0  0  0  0
M  END
>  <MODEL>
9

>  <REMARK>
 VINA RESULT:      -6.7      2.231      4.828
  Name = 
  5 active torsions:
  status: ('A' for Active; 'I' for Inactive)
    1  A    between atoms: C_7  and  C_19
    2  A    between atoms: O_10  and  C_17
    3  A    between atoms: O_10  and  C_20
    4  A    between atoms: C_20  and  C_29
    5  A    between atoms: C_29  and  C_30
                            x       y       z     vdW  Elec       q    Type
                         _______ _______ _______ _____ _____    ______ ____

>  <TORSDO>
F 5

$$$$
