=
 OpenBabel11112417353D

 28 32  0  0  1  0  0  0  0  0999 V2000
  186.2190  178.7540  145.4770 C   0  0  0  0  0  0  0  0  0  0  0  0
  189.8600  176.0320  147.6270 O   0  0  0  0  0  0  0  0  0  0  0  0
  188.0200  175.0130  141.0630 O   0  0  0  0  0  1  0  0  0  0  0  0
  185.8020  177.1400  147.7340 C   0  0  0  0  0  3  0  0  0  0  0  0
  189.6620  176.4990  142.0170 C   0  0  1  0  0  3  0  0  0  0  0  0
  186.3210  179.6250  144.2610 C   0  0  0  0  0  2  0  0  0  0  0  0
  189.5650  174.7060  145.5890 O   0  0  0  0  0  0  0  0  0  0  0  0
  190.1670  175.9610  146.1580 S   0  0  0  0  0  0  0  0  0  0  0  0
  192.1350  176.0780  144.5130 C   0  0  2  0  0  3  0  0  0  0  0  0
  189.5050  177.4130  145.3460 C   0  0  1  0  0  3  0  0  0  0  0  0
  184.2320  177.1860  143.1320 O   0  0  0  0  0  0  0  0  0  0  0  0
  188.0800  177.6940  143.3990 N   0  0  1  0  0  0  0  0  0  0  0  0
  191.8290  177.5010  144.0630 C   0  0  0  0  0  2  0  0  0  0  0  0
  191.8810  175.9320  145.9380 N   0  0  0  0  0  2  0  0  0  0  0  0
  185.1540  177.9670  142.7820 C   0  0  0  0  0  0  0  0  0  0  0  0
  187.0070  177.5840  145.6630 C   0  0  0  0  0  0  0  0  0  0  0  0
  188.2800  176.3370  141.4230 C   0  0  2  0  0  3  0  0  0  0  0  0
  193.5900  175.7670  144.2290 C   0  0  0  0  0  1  0  0  0  0  0  0
  186.2080  177.4910  141.9470 N   0  0  0  0  0  2  0  0  0  0  0  0
  186.7750  176.7930  146.7970 C   0  0  0  0  0  3  0  0  0  0  0  0
  185.2470  179.0920  146.4280 C   0  0  0  0  0  3  0  0  0  0  0  0
  185.0400  178.2930  147.5520 C   0  0  0  0  0  3  0  0  0  0  0  0
  185.1660  179.3740  143.2870 C   0  0  0  0  0  2  0  0  0  0  0  0
  189.4600  177.7160  142.9200 C   0  0  1  0  0  3  0  0  0  0  0  0
  187.3400  176.7850  142.5250 C   0  0  2  0  0  3  0  0  0  0  0  0
  190.3370  177.8570  144.1550 C   0  0  1  0  0  3  0  0  0  0  0  0
  189.9860  175.3620  142.7630 O   0  0  0  0  0  1  0  0  0  0  0  0
  188.1280  177.1260  144.7500 C   0  0  2  0  0  3  0  0  0  0  0  0
  1 16  2  0  0  0  0
  1 21  1  0  0  0  0
  3 17  1  0  0  0  0
  5 27  1  1  0  0  0
  5 24  1  0  0  0  0
  6  1  1  0  0  0  0
  7  8  2  0  0  0  0
  8  2  2  0  0  0  0
  9 18  1  1  0  0  0
  9 14  1  0  0  0  0
 10  8  1  6  0  0  0
 12 28  1  0  0  0  0
 13 26  1  0  0  0  0
 13  9  1  0  0  0  0
 14  8  1  0  0  0  0
 15 11  2  0  0  0  0
 15 23  1  0  0  0  0
 16 20  1  0  0  0  0
 17  5  1  0  0  0  0
 17 25  1  0  0  0  0
 19 25  1  0  0  0  0
 19 15  1  0  0  0  0
 20  4  2  0  0  0  0
 21 22  2  0  0  0  0
 22  4  1  0  0  0  0
 23  6  1  0  0  0  0
 24 12  1  0  0  0  0
 24 26  1  0  0  0  0
 25 12  1  0  0  0  0
 26 10  1  0  0  0  0
 28 10  1  0  0  0  0
 28 16  1  0  0  0  0
M  END
>  <MODEL>
1

>  <REMARK>
 VINA RESULT:      -8.4      0.000      0.000
  Name = 
  0 active torsions:
  status: ('A' for Active; 'I' for Inactive)
                            x       y       z     vdW  Elec       q    Type
                         _______ _______ _______ _____ _____    ______ ____

>  <TORSDO>
F 0

$$$$
=
 OpenBabel11112417353D

 28 32  0  0  1  0  0  0  0  0999 V2000
  187.7490  177.9110  144.3590 C   0  0  0  0  0  0  0  0  0  0  0  0
  190.9510  176.6340  148.0200 O   0  0  0  0  0  0  0  0  0  0  0  0
  190.5880  173.0320  142.1540 O   0  0  0  0  0  1  0  0  0  0  0  0
  186.9240  177.2190  146.9500 C   0  0  0  0  0  3  0  0  0  0  0  0
  191.9320  174.9480  142.7360 C   0  0  1  0  0  3  0  0  0  0  0  0
  188.0740  178.2710  142.9400 C   0  0  0  0  0  2  0  0  0  0  0  0
  191.1470  174.6190  146.6420 O   0  0  0  0  0  0  0  0  0  0  0  0
  191.5660  176.0560  146.7770 S   0  0  0  0  0  0  0  0  0  0  0  0
  193.8330  175.7800  145.6030 C   0  0  2  0  0  3  0  0  0  0  0  0
  191.0370  177.0120  145.3580 C   0  0  1  0  0  3  0  0  0  0  0  0
  186.3680  175.3600  142.4910 O   0  0  0  0  0  0  0  0  0  0  0  0
  190.0490  176.3780  143.2320 N   0  0  1  0  0  0  0  0  0  0  0  0
  193.5750  176.8860  144.5870 C   0  0  0  0  0  2  0  0  0  0  0  0
  193.2880  176.1480  146.9010 N   0  0  0  0  0  2  0  0  0  0  0  0
  187.3130  176.0570  142.0380 C   0  0  0  0  0  0  0  0  0  0  0  0
  188.5240  176.9960  145.1250 C   0  0  0  0  0  0  0  0  0  0  0  0
  190.7160  174.4160  142.0120 C   0  0  2  0  0  3  0  0  0  0  0  0
  195.3250  175.5590  145.7310 C   0  0  0  0  0  1  0  0  0  0  0  0
  188.5370  175.4310  141.6590 N   0  0  0  0  0  2  0  0  0  0  0  0
  188.0860  176.6640  146.4150 C   0  0  0  0  0  3  0  0  0  0  0  0
  186.5860  178.4630  144.9100 C   0  0  0  0  0  3  0  0  0  0  0  0
  186.1750  178.1230  146.1990 C   0  0  0  0  0  3  0  0  0  0  0  0
  187.1640  177.5420  141.9490 C   0  0  0  0  0  2  0  0  0  0  0  0
  191.4970  176.3810  143.0410 C   0  0  1  0  0  3  0  0  0  0  0  0
  189.5460  175.1290  142.6620 C   0  0  2  0  0  3  0  0  0  0  0  0
  192.0860  177.0740  144.2610 C   0  0  1  0  0  3  0  0  0  0  0  0
  192.1340  174.2170  143.9110 O   0  0  0  0  0  1  0  0  0  0  0  0
  189.8300  176.3650  144.6820 C   0  0  2  0  0  3  0  0  0  0  0  0
  1 21  2  0  0  0  0
  1 16  1  0  0  0  0
  5 24  1  0  0  0  0
  5 27  1  1  0  0  0
  6  1  1  0  0  0  0
  7  8  2  0  0  0  0
  8 14  1  0  0  0  0
  8  2  2  0  0  0  0
  9 18  1  1  0  0  0
  9 14  1  0  0  0  0
 10  8  1  1  0  0  0
 12 28  1  0  0  0  0
 13  9  1  0  0  0  0
 15 11  2  0  0  0  0
 16 20  2  0  0  0  0
 17  3  1  0  0  0  0
 17 25  1  0  0  0  0
 17  5  1  0  0  0  0
 19 15  1  0  0  0  0
 19 25  1  0  0  0  0
 20  4  1  0  0  0  0
 21 22  1  0  0  0  0
 22  4  2  0  0  0  0
 23 15  1  0  0  0  0
 23  6  1  0  0  0  0
 24 12  1  0  0  0  0
 24 26  1  0  0  0  0
 25 12  1  0  0  0  0
 26 13  1  0  0  0  0
 26 10  1  0  0  0  0
 28 16  1  0  0  0  0
 28 10  1  0  0  0  0
M  END
>  <MODEL>
2

>  <REMARK>
 VINA RESULT:      -8.3      1.691      2.323
  Name = 
  0 active torsions:
  status: ('A' for Active; 'I' for Inactive)
                            x       y       z     vdW  Elec       q    Type
                         _______ _______ _______ _____ _____    ______ ____

>  <TORSDO>
F 0

$$$$
=
 OpenBabel11112417353D

 28 32  0  0  1  0  0  0  0  0999 V2000
  192.8450  175.3700  144.5130 C   0  0  0  0  0  0  0  0  0  0  0  0
  189.6440  174.0270  140.8750 O   0  0  0  0  0  0  0  0  0  0  0  0
  187.3910  176.5030  146.9000 O   0  0  0  0  0  1  0  0  0  0  0  0
  192.7060  172.7680  143.4720 C   0  0  0  0  0  3  0  0  0  0  0  0
  187.9850  177.6440  144.8610 C   0  0  1  0  0  3  0  0  0  0  0  0
  192.9870  176.7150  145.1600 C   0  0  0  0  0  2  0  0  0  0  0  0
  188.0350  174.2790  142.7040 O   0  0  0  0  0  0  0  0  0  0  0  0
  188.8710  175.0180  141.6960 S   0  0  0  0  0  0  0  0  0  0  0  0
  187.2770  177.0160  141.4500 C   0  0  2  0  0  3  0  0  0  0  0  0
  190.0140  176.1320  142.5080 C   0  0  1  0  0  3  0  0  0  0  0  0
  191.8500  174.8600  147.7770 O   0  0  0  0  0  0  0  0  0  0  0  0
  190.2590  176.8280  144.8220 N   0  0  1  0  0  0  0  0  0  0  0  0
  188.3430  178.0580  141.7650 C   0  0  0  0  0  2  0  0  0  0  0  0
  187.8420  175.9370  140.6550 N   0  0  0  0  0  2  0  0  0  0  0  0
  191.8090  176.0060  147.2590 C   0  0  0  0  0  0  0  0  0  0  0  0
  191.6100  174.8770  144.0090 C   0  0  0  0  0  0  0  0  0  0  0  0
  188.3840  177.2540  146.2660 C   0  0  2  0  0  3  0  0  0  0  0  0
  186.1510  177.6720  140.6780 C   0  0  0  0  0  1  0  0  0  0  0  0
  190.5670  176.7040  147.1770 N   0  0  0  0  0  2  0  0  0  0  0  0
  191.5670  173.5720  143.4980 C   0  0  0  0  0  3  0  0  0  0  0  0
  193.9820  174.5530  144.4780 C   0  0  0  0  0  3  0  0  0  0  0  0
  193.9170  173.2610  143.9580 C   0  0  0  0  0  3  0  0  0  0  0  0
  193.0530  176.6060  146.6850 C   0  0  0  0  0  2  0  0  0  0  0  0
  189.3510  177.7800  144.1880 C   0  0  1  0  0  3  0  0  0  0  0  0
  189.6440  176.4300  146.0870 C   0  0  2  0  0  3  0  0  0  0  0  0
  189.4500  177.5310  142.6900 C   0  0  1  0  0  3  0  0  0  0  0  0
  187.2350  176.6150  144.2840 O   0  0  0  0  0  1  0  0  0  0  0  0
  190.3160  175.6640  143.9310 C   0  0  2  0  0  3  0  0  0  0  0  0
  1  6  1  0  0  0  0
  2  8  2  0  0  0  0
  4 20  2  0  0  0  0
  4 22  1  0  0  0  0
  5 27  1  6  0  0  0
  5 17  1  0  0  0  0
  6 23  1  0  0  0  0
  8  7  2  0  0  0  0
  9 18  1  6  0  0  0
  9 13  1  0  0  0  0
 10  8  1  1  0  0  0
 10 26  1  0  0  0  0
 10 28  1  0  0  0  0
 12 25  1  0  0  0  0
 13 26  1  0  0  0  0
 14  9  1  0  0  0  0
 14  8  1  0  0  0  0
 15 11  2  0  0  0  0
 16  1  2  0  0  0  0
 17  3  1  0  0  0  0
 19 15  1  0  0  0  0
 20 16  1  0  0  0  0
 21  1  1  0  0  0  0
 22 21  2  0  0  0  0
 23 15  1  0  0  0  0
 24 12  1  0  0  0  0
 24  5  1  0  0  0  0
 25 17  1  0  0  0  0
 25 19  1  0  0  0  0
 26 24  1  0  0  0  0
 28 16  1  0  0  0  0
 28 12  1  0  0  0  0
M  END
>  <MODEL>
3

>  <REMARK>
 VINA RESULT:      -8.1      2.338      6.416
  Name = 
  0 active torsions:
  status: ('A' for Active; 'I' for Inactive)
                            x       y       z     vdW  Elec       q    Type
                         _______ _______ _______ _____ _____    ______ ____

>  <TORSDO>
F 0

$$$$
=
 OpenBabel11112417353D

 28 32  0  0  1  0  0  0  0  0999 V2000
  187.1300  176.4860  146.8860 C   0  0  0  0  0  0  0  0  0  0  0  0
  184.3830  178.4160  143.1430 O   0  0  0  0  0  0  0  0  0  0  0  0
  191.2610  178.8720  143.1480 O   0  0  0  0  0  1  0  0  0  0  0  0
  185.1940  178.4810  147.2710 C   0  0  0  0  0  3  0  0  0  0  0  0
  189.8040  177.1620  142.2710 C   0  0  1  0  0  3  0  0  0  0  0  0
  188.2040  175.4440  146.7930 C   0  0  0  0  0  2  0  0  0  0  0  0
  186.5360  179.4420  142.5840 O   0  0  0  0  0  0  0  0  0  0  0  0
  185.7290  178.1740  142.5220 S   0  0  0  0  0  0  0  0  0  0  0  0
  186.8160  177.2760  140.3760 C   0  0  2  0  0  3  0  0  0  0  0  0
  186.5540  176.8490  143.4000 C   0  0  1  0  0  3  0  0  0  0  0  0
  190.0210  178.1540  147.7630 O   0  0  0  0  0  0  0  0  0  0  0  0
  188.7630  176.6690  144.3940 N   0  0  1  0  0  0  0  0  0  0  0  0
  187.2060  175.9380  140.9920 C   0  0  0  0  0  2  0  0  0  0  0  0
  185.5170  177.7030  140.8730 N   0  0  0  0  0  2  0  0  0  0  0  0
  190.0620  177.1080  147.0650 C   0  0  0  0  0  0  0  0  0  0  0  0
  186.8550  177.4130  145.8420 C   0  0  0  0  0  0  0  0  0  0  0  0
  190.7350  177.5990  143.3800 C   0  0  2  0  0  3  0  0  0  0  0  0
  186.7560  177.1330  138.8700 C   0  0  0  0  0  1  0  0  0  0  0  0
  190.6470  177.1450  145.7640 N   0  0  0  0  0  2  0  0  0  0  0  0
  185.8860  178.4020  146.0620 C   0  0  0  0  0  3  0  0  0  0  0  0
  186.4260  176.5760  148.0940 C   0  0  0  0  0  3  0  0  0  0  0  0
  185.4610  177.5640  148.2860 C   0  0  0  0  0  3  0  0  0  0  0  0
  189.4520  175.8450  147.5840 C   0  0  0  0  0  2  0  0  0  0  0  0
  188.8790  176.2000  143.0160 C   0  0  1  0  0  3  0  0  0  0  0  0
  189.8670  177.5980  144.6230 C   0  0  2  0  0  3  0  0  0  0  0  0
  187.4580  176.0180  142.5050 C   0  0  1  0  0  3  0  0  0  0  0  0
  189.1010  178.2690  141.7860 O   0  0  0  0  0  1  0  0  0  0  0  0
  187.4960  177.4040  144.4680 C   0  0  2  0  0  3  0  0  0  0  0  0
  1 21  1  0  0  0  0
  3 17  1  0  0  0  0
  4 22  1  0  0  0  0
  5 27  1  1  0  0  0
  5 24  1  0  0  0  0
  5 17  1  0  0  0  0
  6  1  1  0  0  0  0
  6 23  1  0  0  0  0
  8  7  2  0  0  0  0
  8  2  2  0  0  0  0
  9 18  1  6  0  0  0
  9 14  1  0  0  0  0
  9 13  1  0  0  0  0
 10  8  1  6  0  0  0
 10 28  1  0  0  0  0
 12 28  1  0  0  0  0
 12 25  1  0  0  0  0
 13 26  1  0  0  0  0
 14  8  1  0  0  0  0
 15 23  1  0  0  0  0
 15 11  2  0  0  0  0
 16 20  1  0  0  0  0
 16  1  2  0  0  0  0
 17 25  1  0  0  0  0
 19 15  1  0  0  0  0
 20  4  2  0  0  0  0
 21 22  2  0  0  0  0
 24 12  1  0  0  0  0
 25 19  1  0  0  0  0
 26 24  1  0  0  0  0
 26 10  1  0  0  0  0
 28 16  1  0  0  0  0
M  END
>  <MODEL>
4

>  <REMARK>
 VINA RESULT:      -7.8      2.192      4.976
  Name = 
  0 active torsions:
  status: ('A' for Active; 'I' for Inactive)
                            x       y       z     vdW  Elec       q    Type
                         _______ _______ _______ _____ _____    ______ ____

>  <TORSDO>
F 0

$$$$
=
 OpenBabel11112417353D

 28 32  0  0  1  0  0  0  0  0999 V2000
  188.9940  175.5250  145.7150 C   0  0  0  0  0  0  0  0  0  0  0  0
  188.5990  174.5600  140.7960 O   0  0  0  0  0  0  0  0  0  0  0  0
  194.5450  173.6540  144.1630 O   0  0  0  0  0  1  0  0  0  0  0  0
  188.2760  177.4670  143.8210 C   0  0  0  0  0  3  0  0  0  0  0  0
  192.7040  172.1390  143.7970 C   0  0  1  0  0  3  0  0  0  0  0  0
  189.3930  174.5770  146.8070 C   0  0  0  0  0  2  0  0  0  0  0  0
  191.0380  174.4530  140.9960 O   0  0  0  0  0  0  0  0  0  0  0  0
  189.7540  173.7110  141.2440 S   0  0  0  0  0  0  0  0  0  0  0  0
  190.7490  171.3620  140.9520 C   0  0  2  0  0  3  0  0  0  0  0  0
  189.5640  173.3280  142.9830 C   0  0  1  0  0  3  0  0  0  0  0  0
  192.0060  176.7580  146.8590 O   0  0  0  0  0  0  0  0  0  0  0  0
  191.0640  173.5420  144.8820 N   0  0  1  0  0  0  0  0  0  0  0  0
  190.2550  170.8560  142.3020 C   0  0  0  0  0  2  0  0  0  0  0  0
  189.7560  172.2350  140.3450 N   0  0  0  0  0  2  0  0  0  0  0  0
  191.6960  175.5500  147.0230 C   0  0  0  0  0  0  0  0  0  0  0  0
  189.4850  175.4260  144.3840 C   0  0  0  0  0  0  0  0  0  0  0  0
  193.4180  173.0720  144.7500 C   0  0  2  0  0  3  0  0  0  0  0  0
  191.0030  170.1810  140.0390 C   0  0  0  0  0  1  0  0  0  0  0  0
  192.5250  174.5240  146.4800 N   0  0  0  0  0  2  0  0  0  0  0  0
  189.1140  176.4130  143.4580 C   0  0  0  0  0  3  0  0  0  0  0  0
  188.1510  176.5870  146.0660 C   0  0  0  0  0  3  0  0  0  0  0  0
  187.7900  177.5520  145.1250 C   0  0  0  0  0  3  0  0  0  0  0  0
  190.4330  175.1990  147.7430 C   0  0  0  0  0  2  0  0  0  0  0  0
  191.2720  172.2080  144.3270 C   0  0  1  0  0  3  0  0  0  0  0  0
  192.3860  174.1310  145.0870 C   0  0  2  0  0  3  0  0  0  0  0  0
  190.1270  171.9660  143.3550 C   0  0  1  0  0  3  0  0  0  0  0  0
  192.7890  172.6440  142.4960 O   0  0  0  0  0  1  0  0  0  0  0  0
  190.3560  174.3060  143.8490 C   0  0  2  0  0  3  0  0  0  0  0  0
  1 21  1  0  0  0  0
  1  6  1  0  0  0  0
  2  8  2  0  0  0  0
  3 17  1  0  0  0  0
  4 22  1  0  0  0  0
  5 27  1  6  0  0  0
  5 24  1  0  0  0  0
  5 17  1  0  0  0  0
  6 23  1  0  0  0  0
  7  8  2  0  0  0  0
  9 18  1  6  0  0  0
  9 13  1  0  0  0  0
 10  8  1  6  0  0  0
 10 26  1  0  0  0  0
 10 28  1  0  0  0  0
 11 15  2  0  0  0  0
 12 25  1  0  0  0  0
 13 26  1  0  0  0  0
 14  9  1  0  0  0  0
 14  8  1  0  0  0  0
 15 23  1  0  0  0  0
 16  1  2  0  0  0  0
 17 25  1  0  0  0  0
 19 15  1  0  0  0  0
 20  4  2  0  0  0  0
 20 16  1  0  0  0  0
 22 21  2  0  0  0  0
 24 12  1  0  0  0  0
 25 19  1  0  0  0  0
 26 24  1  0  0  0  0
 28 16  1  0  0  0  0
 28 12  1  0  0  0  0
M  END
>  <MODEL>
5

>  <REMARK>
 VINA RESULT:      -7.5      3.610      6.073
  Name = 
  0 active torsions:
  status: ('A' for Active; 'I' for Inactive)
                            x       y       z     vdW  Elec       q    Type
                         _______ _______ _______ _____ _____    ______ ____

>  <TORSDO>
F 0

$$$$
=
 OpenBabel11112417353D

 28 32  0  0  1  0  0  0  0  0999 V2000
  188.3360  175.6710  146.6570 C   0  0  0  0  0  0  0  0  0  0  0  0
  186.8040  176.4770  141.9350 O   0  0  0  0  0  0  0  0  0  0  0  0
  193.5020  176.0680  143.5130 O   0  0  0  0  0  1  0  0  0  0  0  0
  186.7980  177.8920  145.8980 C   0  0  0  0  0  3  0  0  0  0  0  0
  191.9320  174.3480  142.8850 C   0  0  1  0  0  3  0  0  0  0  0  0
  189.1780  174.5410  147.1680 C   0  0  0  0  0  2  0  0  0  0  0  0
  189.1850  176.9710  141.6380 O   0  0  0  0  0  0  0  0  0  0  0  0
  188.1700  175.8710  141.7790 S   0  0  0  0  0  0  0  0  0  0  0  0
  189.4510  174.1500  140.3680 C   0  0  2  0  0  3  0  0  0  0  0  0
  188.5280  174.8500  143.2070 C   0  0  1  0  0  3  0  0  0  0  0  0
  191.2750  177.1770  147.6560 O   0  0  0  0  0  0  0  0  0  0  0  0
  190.4220  174.7640  144.7250 N   0  0  1  0  0  0  0  0  0  0  0  0
  189.4390  173.0770  141.4510 C   0  0  0  0  0  2  0  0  0  0  0  0
  188.1910  174.8780  140.3640 N   0  0  0  0  0  2  0  0  0  0  0  0
  191.2410  175.9550  147.3560 C   0  0  0  0  0  0  0  0  0  0  0  0
  188.4570  176.1970  145.3400 C   0  0  0  0  0  0  0  0  0  0  0  0
  192.6980  175.0320  143.9950 C   0  0  2  0  0  3  0  0  0  0  0  0
  189.6550  173.4940  139.0190 C   0  0  0  0  0  1  0  0  0  0  0  0
  192.0620  175.4600  146.3000 N   0  0  0  0  0  2  0  0  0  0  0  0
  187.6810  177.3100  144.9880 C   0  0  0  0  0  3  0  0  0  0  0  0
  187.4430  176.2640  147.5590 C   0  0  0  0  0  3  0  0  0  0  0  0
  186.6750  177.3660  147.1830 C   0  0  0  0  0  3  0  0  0  0  0  0
  190.3040  175.0400  148.0770 C   0  0  0  0  0  2  0  0  0  0  0  0
  190.7070  173.8300  143.6400 C   0  0  1  0  0  3  0  0  0  0  0  0
  191.6240  175.5740  144.9180 C   0  0  2  0  0  3  0  0  0  0  0  0
  189.4050  173.6540  142.8740 C   0  0  1  0  0  3  0  0  0  0  0  0
  191.5700  175.2910  141.9170 O   0  0  0  0  0  1  0  0  0  0  0  0
  189.3370  175.6260  144.2440 C   0  0  2  0  0  3  0  0  0  0  0  0
  1  6  1  0  0  0  0
  1 21  1  0  0  0  0
  3 17  1  0  0  0  0
  4 22  1  0  0  0  0
  5 27  1  6  0  0  0
  5 24  1  0  0  0  0
  5 17  1  0  0  0  0
  6 23  1  0  0  0  0
  7  8  2  0  0  0  0
  8  2  2  0  0  0  0
  9 18  1  6  0  0  0
  9 13  1  0  0  0  0
 10  8  1  6  0  0  0
 10 28  1  0  0  0  0
 12 25  1  0  0  0  0
 13 26  1  0  0  0  0
 14  9  1  0  0  0  0
 14  8  1  0  0  0  0
 15 11  2  0  0  0  0
 15 23  1  0  0  0  0
 16  1  2  0  0  0  0
 17 25  1  0  0  0  0
 19 15  1  0  0  0  0
 20 16  1  0  0  0  0
 20  4  2  0  0  0  0
 22 21  2  0  0  0  0
 24 12  1  0  0  0  0
 25 19  1  0  0  0  0
 26 10  1  0  0  0  0
 26 24  1  0  0  0  0
 28 12  1  0  0  0  0
 28 16  1  0  0  0  0
M  END
>  <MODEL>
6

>  <REMARK>
 VINA RESULT:      -7.5      2.539      5.210
  Name = 
  0 active torsions:
  status: ('A' for Active; 'I' for Inactive)
                            x       y       z     vdW  Elec       q    Type
                         _______ _______ _______ _____ _____    ______ ____

>  <TORSDO>
F 0

$$$$
=
 OpenBabel11112417353D

 28 32  0  0  1  0  0  0  0  0999 V2000
  185.3070  177.4550  145.5430 C   0  0  0  0  0  0  0  0  0  0  0  0
  185.9970  177.5920  140.5640 O   0  0  0  0  0  0  0  0  0  0  0  0
  191.3150  176.9900  144.9070 O   0  0  0  0  0  1  0  0  0  0  0  0
  184.5270  179.6240  143.9420 C   0  0  0  0  0  3  0  0  0  0  0  0
  189.9410  175.3020  143.8700 C   0  0  1  0  0  3  0  0  0  0  0  0
  185.7050  176.3670  146.4950 C   0  0  0  0  0  2  0  0  0  0  0  0
  188.3270  177.8690  141.2650 O   0  0  0  0  0  0  0  0  0  0  0  0
  187.2120  176.8780  141.0830 S   0  0  0  0  0  0  0  0  0  0  0  0
  188.7280  174.8690  140.5730 C   0  0  2  0  0  3  0  0  0  0  0  0
  186.8080  176.0780  142.6340 C   0  0  1  0  0  3  0  0  0  0  0  0
  187.7320  178.9000  147.5270 O   0  0  0  0  0  0  0  0  0  0  0  0
  187.8710  176.1100  144.8180 N   0  0  1  0  0  0  0  0  0  0  0  0
  188.1290  173.9880  141.6620 C   0  0  0  0  0  2  0  0  0  0  0  0
  187.6910  175.6710  139.9420 N   0  0  0  0  0  2  0  0  0  0  0  0
  187.6680  177.6510  147.3870 C   0  0  0  0  0  0  0  0  0  0  0  0
  186.0320  177.7520  144.3560 C   0  0  0  0  0  0  0  0  0  0  0  0
  190.2570  176.1020  145.1140 C   0  0  2  0  0  3  0  0  0  0  0  0
  189.3890  173.9920  139.5300 C   0  0  0  0  0  1  0  0  0  0  0  0
  188.7820  176.9380  146.8520 N   0  0  0  0  0  2  0  0  0  0  0  0
  185.6240  178.8440  143.5770 C   0  0  0  0  0  3  0  0  0  0  0  0
  184.2050  178.2450  145.8970 C   0  0  0  0  0  3  0  0  0  0  0  0
  183.8130  179.3210  145.1010 C   0  0  0  0  0  3  0  0  0  0  0  0
  186.4050  176.9290  147.7350 C   0  0  0  0  0  2  0  0  0  0  0  0
  188.4570  174.9960  144.0790 C   0  0  1  0  0  3  0  0  0  0  0  0
  188.9770  176.8570  145.4140 C   0  0  2  0  0  3  0  0  0  0  0  0
  187.5800  174.7880  142.8530 C   0  0  1  0  0  3  0  0  0  0  0  0
  190.1400  176.0990  142.7380 O   0  0  0  0  0  1  0  0  0  0  0  0
  187.2060  176.9550  143.8200 C   0  0  2  0  0  3  0  0  0  0  0  0
  1 21  1  0  0  0  0
  1  6  1  0  0  0  0
  2  8  2  0  0  0  0
  3 17  1  0  0  0  0
  4 22  1  0  0  0  0
  5 27  1  6  0  0  0
  5 24  1  0  0  0  0
  5 17  1  0  0  0  0
  6 23  1  0  0  0  0
  8  7  2  0  0  0  0
  9 18  1  6  0  0  0
  9 13  1  0  0  0  0
 10  8  1  6  0  0  0
 10 26  1  0  0  0  0
 10 28  1  0  0  0  0
 12 25  1  0  0  0  0
 13 26  1  0  0  0  0
 14  9  1  0  0  0  0
 14  8  1  0  0  0  0
 15 11  2  0  0  0  0
 15 23  1  0  0  0  0
 16  1  2  0  0  0  0
 17 25  1  0  0  0  0
 19 15  1  0  0  0  0
 20  4  2  0  0  0  0
 20 16  1  0  0  0  0
 22 21  2  0  0  0  0
 24 12  1  0  0  0  0
 25 19  1  0  0  0  0
 26 24  1  0  0  0  0
 28 16  1  0  0  0  0
 28 12  1  0  0  0  0
M  END
>  <MODEL>
7

>  <REMARK>
 VINA RESULT:      -7.4      2.368      4.609
  Name = 
  0 active torsions:
  status: ('A' for Active; 'I' for Inactive)
                            x       y       z     vdW  Elec       q    Type
                         _______ _______ _______ _____ _____    ______ ____

>  <TORSDO>
F 0

$$$$
=
 OpenBabel11112417353D

 28 32  0  0  1  0  0  0  0  0999 V2000
  185.8050  177.0590  144.2270 C   0  0  0  0  0  0  0  0  0  0  0  0
  189.9580  175.9040  141.6380 O   0  0  0  0  0  0  0  0  0  0  0  0
  190.3040  178.2910  148.0950 O   0  0  0  0  0  1  0  0  0  0  0  0
  186.5040  178.3000  141.8090 C   0  0  0  0  0  3  0  0  0  0  0  0
  190.1200  176.0340  147.2660 C   0  0  1  0  0  3  0  0  0  0  0  0
  185.3490  176.4830  145.5340 C   0  0  0  0  0  2  0  0  0  0  0  0
  191.0090  177.0790  143.5120 O   0  0  0  0  0  0  0  0  0  0  0  0
  190.3780  175.7870  143.0750 S   0  0  0  0  0  0  0  0  0  0  0  0
  191.7390  174.2840  144.6500 C   0  0  2  0  0  3  0  0  0  0  0  0
  188.9440  175.4050  144.0780 C   0  0  1  0  0  3  0  0  0  0  0  0
  185.9900  179.7010  146.4370 O   0  0  0  0  0  0  0  0  0  0  0  0
  188.0410  176.4130  146.0950 N   0  0  1  0  0  0  0  0  0  0  0  0
  190.5150  173.6300  145.2790 C   0  0  0  0  0  2  0  0  0  0  0  0
  191.5240  174.5020  143.2280 N   0  0  0  0  0  2  0  0  0  0  0  0
  186.0290  178.5120  146.8450 C   0  0  0  0  0  0  0  0  0  0  0  0
  187.1760  177.1950  143.8740 C   0  0  0  0  0  0  0  0  0  0  0  0
  189.4250  177.2260  147.8860 C   0  0  2  0  0  3  0  0  0  0  0  0
  192.9400  173.3820  144.8430 C   0  0  0  0  0  1  0  0  0  0  0  0
  187.1610  178.0490  147.5790 N   0  0  0  0  0  2  0  0  0  0  0  0
  187.4980  177.8230  142.6630 C   0  0  0  0  0  3  0  0  0  0  0  0
  184.8160  177.5410  143.3590 C   0  0  0  0  0  3  0  0  0  0  0  0
  185.1610  178.1550  142.1550 C   0  0  0  0  0  3  0  0  0  0  0  0
  184.9100  177.5770  146.5110 C   0  0  0  0  0  2  0  0  0  0  0  0
  188.9630  175.3650  146.5230 C   0  0  1  0  0  3  0  0  0  0  0  0
  188.3560  177.6060  146.8800 C   0  0  2  0  0  3  0  0  0  0  0  0
  189.2780  174.5410  145.2840 C   0  0  1  0  0  3  0  0  0  0  0  0
  191.1060  176.4760  146.3790 O   0  0  0  0  0  1  0  0  0  0  0  0
  188.3480  176.6740  144.6850 C   0  0  2  0  0  3  0  0  0  0  0  0
  1  6  1  0  0  0  0
  2  8  2  0  0  0  0
  4 22  2  0  0  0  0
  4 20  1  0  0  0  0
  5 27  1  6  0  0  0
  5 17  1  0  0  0  0
  6 23  1  0  0  0  0
  8 14  1  0  0  0  0
  8  7  2  0  0  0  0
  9 18  1  6  0  0  0
  9 13  1  0  0  0  0
 10  8  1  1  0  0  0
 10 28  1  0  0  0  0
 10 26  1  0  0  0  0
 11 15  2  0  0  0  0
 12 24  1  0  0  0  0
 12 25  1  0  0  0  0
 13 26  1  0  0  0  0
 14  9  1  0  0  0  0
 15 19  1  0  0  0  0
 16  1  1  0  0  0  0
 16 28  1  0  0  0  0
 17  3  1  0  0  0  0
 20 16  2  0  0  0  0
 21  1  2  0  0  0  0
 22 21  1  0  0  0  0
 23 15  1  0  0  0  0
 24  5  1  0  0  0  0
 25 19  1  0  0  0  0
 25 17  1  0  0  0  0
 26 24  1  0  0  0  0
 28 12  1  0  0  0  0
M  END
>  <MODEL>
8

>  <REMARK>
 VINA RESULT:      -7.4      2.337      4.300
  Name = 
  0 active torsions:
  status: ('A' for Active; 'I' for Inactive)
                            x       y       z     vdW  Elec       q    Type
                         _______ _______ _______ _____ _____    ______ ____

>  <TORSDO>
F 0

$$$$
=
 OpenBabel11112417353D

 28 32  0  0  1  0  0  0  0  0999 V2000
  187.7300  177.1380  143.2920 C   0  0  0  0  0  0  0  0  0  0  0  0
  190.2450  177.2000  147.6460 O   0  0  0  0  0  0  0  0  0  0  0  0
  191.1630  172.1500  143.0440 O   0  0  0  0  0  1  0  0  0  0  0  0
  186.4670  177.0830  145.7970 C   0  0  0  0  0  3  0  0  0  0  0  0
  192.2800  174.2740  143.2840 C   0  0  1  0  0  3  0  0  0  0  0  0
  188.2980  177.1380  141.9040 C   0  0  0  0  0  2  0  0  0  0  0  0
  190.7930  174.9200  146.9380 O   0  0  0  0  0  0  0  0  0  0  0  0
  191.1090  176.3760  146.7350 S   0  0  0  0  0  0  0  0  0  0  0  0
  193.5670  176.0210  146.0810 C   0  0  2  0  0  3  0  0  0  0  0  0
  190.8110  176.8640  145.0380 C   0  0  1  0  0  3  0  0  0  0  0  0
  186.8470  174.0600  142.0070 O   0  0  0  0  0  0  0  0  0  0  0  0
  190.2710  175.5930  143.0390 N   0  0  1  0  0  0  0  0  0  0  0  0
  193.4520  176.7860  144.7680 C   0  0  0  0  0  2  0  0  0  0  0  0
  192.7710  176.6650  147.1140 N   0  0  0  0  0  2  0  0  0  0  0  0
  187.8260  174.7000  141.5420 C   0  0  0  0  0  0  0  0  0  0  0  0
  188.3900  176.5400  144.4010 C   0  0  0  0  0  0  0  0  0  0  0  0
  191.2480  173.4520  142.5450 C   0  0  2  0  0  3  0  0  0  0  0  0
  195.0180  175.9880  146.5130 C   0  0  0  0  0  1  0  0  0  0  0  0
  189.1290  174.1190  141.5640 N   0  0  0  0  0  2  0  0  0  0  0  0
  187.7350  176.5210  145.6410 C   0  0  0  0  0  3  0  0  0  0  0  0
  186.4580  177.7000  143.4640 C   0  0  0  0  0  3  0  0  0  0  0  0
  185.8300  177.6770  144.7090 C   0  0  0  0  0  3  0  0  0  0  0  0
  187.6250  176.0860  141.0180 C   0  0  0  0  0  2  0  0  0  0  0  0
  191.7270  175.6870  143.1000 C   0  0  1  0  0  3  0  0  0  0  0  0
  189.9450  174.1950  142.7650 C   0  0  2  0  0  3  0  0  0  0  0  0
  192.0430  176.7330  144.1580 C   0  0  1  0  0  3  0  0  0  0  0  0
  192.2930  173.9050  144.6330 O   0  0  0  0  0  1  0  0  0  0  0  0
  189.7840  175.9450  144.3780 C   0  0  2  0  0  3  0  0  0  0  0  0
  1 21  2  0  0  0  0
  1 16  1  0  0  0  0
  5 27  1  1  0  0  0
  6  1  1  0  0  0  0
  8  7  2  0  0  0  0
  8 14  1  0  0  0  0
  8  2  2  0  0  0  0
  9 18  1  1  0  0  0
  9 14  1  0  0  0  0
 10  8  1  1  0  0  0
 12 24  1  0  0  0  0
 12 28  1  0  0  0  0
 13  9  1  0  0  0  0
 15 19  1  0  0  0  0
 15 11  2  0  0  0  0
 16 20  2  0  0  0  0
 17 25  1  0  0  0  0
 17  3  1  0  0  0  0
 17  5  1  0  0  0  0
 19 25  1  0  0  0  0
 20  4  1  0  0  0  0
 21 22  1  0  0  0  0
 22  4  2  0  0  0  0
 23 15  1  0  0  0  0
 23  6  1  0  0  0  0
 24  5  1  0  0  0  0
 24 26  1  0  0  0  0
 25 12  1  0  0  0  0
 26 13  1  0  0  0  0
 26 10  1  0  0  0  0
 28 16  1  0  0  0  0
 28 10  1  0  0  0  0
M  END
>  <MODEL>
9

>  <REMARK>
 VINA RESULT:      -7.2      2.025      3.099
  Name = 
  0 active torsions:
  status: ('A' for Active; 'I' for Inactive)
                            x       y       z     vdW  Elec       q    Type
                         _______ _______ _______ _____ _____    ______ ____

>  <TORSDO>
F 0

$$$$
