=
 OpenBabel11112416333D

 32 38  0  0  1  0  0  0  0  0999 V2000
  191.5700  174.1660  145.3510 C   0  0  1  0  0  3  0  0  0  0  0  0
  187.7360  177.2470  143.4150 C   0  0  1  0  0  3  0  0  0  0  0  0
  186.3800  178.2840  148.0810 C   0  0  0  0  0  3  0  0  0  0  0  0
  185.0480  178.4090  147.6850 C   0  0  0  0  0  3  0  0  0  0  0  0
  186.0070  177.5730  141.6100 C   0  0  0  0  0  0  0  0  0  0  0  0
  184.6950  177.8640  141.2460 C   0  0  0  0  0  0  0  0  0  0  0  0
  189.4200  175.4300  143.6800 C   0  0  1  0  0  3  0  0  0  0  0  0
  189.4430  177.4290  145.2040 C   0  0  0  0  0  2  0  0  0  0  0  0
  182.6430  178.3900  141.4960 C   0  0  0  0  0  0  0  0  0  0  0  0
  191.1570  175.6190  145.5910 C   0  0  2  0  0  3  0  0  0  0  0  0
  187.3710  178.0450  147.1270 C   0  0  0  0  0  3  0  0  0  0  0  0
  188.0650  177.6740  144.7830 N   0  0  0  0  0  0  0  0  0  0  0  0
  187.0420  177.9240  145.7670 C   0  0  0  0  0  0  0  0  0  0  0  0
  185.3480  177.9600  143.9380 C   0  0  0  0  0  0  0  0  0  0  0  0
  182.8900  178.1940  140.1460 C   0  0  0  0  0  3  0  0  0  0  0  0
  190.4840  173.3030  144.6670 C   0  0  0  0  0  2  0  0  0  0  0  0
  189.7300  175.9330  145.1040 C   0  0  2  0  0  3  0  0  0  0  0  0
  184.1970  177.8590  139.9920 N   0  0  0  0  0  0  0  0  0  0  0  0
  189.7280  173.9430  143.4910 C   0  0  0  0  0  2  0  0  0  0  0  0
  192.1360  175.2720  144.4730 C   0  0  1  0  0  3  0  0  0  0  0  0
  184.7090  178.2980  146.3370 C   0  0  0  0  0  3  0  0  0  0  0  0
  185.6980  178.0550  145.3700 C   0  0  0  0  0  0  0  0  0  0  0  0
  184.0410  178.2430  143.4990 C   0  0  0  0  0  3  0  0  0  0  0  0
  187.9770  175.7410  143.2870 C   0  0  0  0  0  2  0  0  0  0  0  0
  186.9520  177.2450  140.6450 O   0  0  0  0  0  1  0  0  0  0  0  0
  181.3360  178.7670  142.1030 C   0  0  0  0  0  1  0  0  0  0  0  0
  186.3400  177.6150  142.9820 C   0  0  0  0  0  0  0  0  0  0  0  0
  183.7800  178.1790  142.1710 N   0  0  0  0  0  0  0  0  0  0  0  0
  193.4930  175.5870  144.9080 N   0  0  0  0  0  2  0  0  0  0  0  0
  194.4170  175.5930  143.7690 C   0  0  0  0  0  3  0  0  0  0  0  0
  193.7330  176.0300  142.4820 C   0  0  0  0  0  1  0  0  0  0  0  0
  195.6570  176.4290  144.0440 C   0  0  0  0  0  1  0  0  0  0  0  0
  1 16  1  6  0  0  0
  1 10  1  0  0  0  0
  2 24  1  1  0  0  0
  2 12  1  0  0  0  0
  4  3  1  0  0  0  0
  5 27  2  0  0  0  0
  6  5  1  0  0  0  0
  6 28  1  0  0  0  0
  7 24  1  1  0  0  0
  7 17  1  0  0  0  0
  9 26  1  0  0  0  0
  9 28  1  0  0  0  0
 11  3  2  0  0  0  0
 12  8  1  0  0  0  0
 12 13  1  0  0  0  0
 13 11  1  0  0  0  0
 14 22  1  0  0  0  0
 15  9  2  0  0  0  0
 17  8  1  0  0  0  0
 17 10  1  0  0  0  0
 18 15  1  0  0  0  0
 18  6  2  0  0  0  0
 19  7  1  0  0  0  0
 19 16  1  0  0  0  0
 20 29  1  0  0  0  0
 20  1  1  0  0  0  0
 20 10  1  0  0  0  0
 21  4  2  0  0  0  0
 22 13  2  0  0  0  0
 22 21  1  0  0  0  0
 23 14  2  0  0  0  0
 25  5  1  0  0  0  0
 27  2  1  0  0  0  0
 27 14  1  0  0  0  0
 28 23  1  0  0  0  0
 30 32  1  0  0  0  0
 30 29  1  0  0  0  0
 31 30  1  0  0  0  0
M  END
>  <MODEL>
1

>  <REMARK>
 VINA RESULT:      -9.3      0.000      0.000
  Name = 
  2 active torsions:
  status: ('A' for Active; 'I' for Inactive)
    1  A    between atoms: C_20  and  N_29
    2  A    between atoms: N_29  and  C_30
                            x       y       z     vdW  Elec       q    Type
                         _______ _______ _______ _____ _____    ______ ____

>  <TORSDO>
F 2

$$$$
=
 OpenBabel11112416333D

 32 38  0  0  1  0  0  0  0  0999 V2000
  191.1780  172.2520  140.1010 C   0  0  1  0  0  3  0  0  0  0  0  0
  188.8090  176.1490  142.7730 C   0  0  1  0  0  3  0  0  0  0  0  0
  191.7120  175.0830  146.6610 C   0  0  0  0  0  3  0  0  0  0  0  0
  190.7040  175.4710  147.5440 C   0  0  0  0  0  3  0  0  0  0  0  0
  186.6580  177.3780  143.2400 C   0  0  0  0  0  0  0  0  0  0  0  0
  185.7500  177.8980  144.1590 C   0  0  0  0  0  0  0  0  0  0  0  0
  189.2520  174.2870  141.1790 C   0  0  1  0  0  3  0  0  0  0  0  0
  191.1410  175.3830  142.4220 C   0  0  0  0  0  2  0  0  0  0  0  0
  184.9350  178.4070  146.0630 C   0  0  0  0  0  0  0  0  0  0  0  0
  191.6890  173.4690  140.8720 C   0  0  2  0  0  3  0  0  0  0  0  0
  191.5260  175.2240  145.2850 C   0  0  0  0  0  3  0  0  0  0  0  0
  190.1360  175.8930  143.3530 N   0  0  0  0  0  0  0  0  0  0  0  0
  190.3290  175.7510  144.7740 C   0  0  0  0  0  0  0  0  0  0  0  0
  188.0640  176.7280  145.1380 C   0  0  0  0  0  0  0  0  0  0  0  0
  184.0520  178.8180  145.0760 C   0  0  0  0  0  3  0  0  0  0  0  0
  189.7140  171.8710  140.4180 C   0  0  0  0  0  2  0  0  0  0  0  0
  190.6360  174.0730  141.8210 C   0  0  2  0  0  3  0  0  0  0  0  0
  184.5750  178.4920  143.8670 N   0  0  0  0  0  0  0  0  0  0  0  0
  188.7010  173.0240  140.5130 C   0  0  0  0  0  2  0  0  0  0  0  0
  191.3380  173.5890  139.3920 C   0  0  1  0  0  3  0  0  0  0  0  0
  189.5120  176.0010  147.0490 C   0  0  0  0  0  3  0  0  0  0  0  0
  189.3140  176.1450  145.6660 C   0  0  0  0  0  0  0  0  0  0  0  0
  187.1040  177.2740  146.0100 C   0  0  0  0  0  3  0  0  0  0  0  0
  188.2550  174.8470  142.1910 C   0  0  0  0  0  2  0  0  0  0  0  0
  186.4020  177.4480  141.8750 O   0  0  0  0  0  1  0  0  0  0  0  0
  184.7470  178.5680  147.5320 C   0  0  0  0  0  1  0  0  0  0  0  0
  187.8350  176.7760  143.7380 C   0  0  0  0  0  0  0  0  0  0  0  0
  185.9910  177.8310  145.4740 N   0  0  0  0  0  0  0  0  0  0  0  0
  192.5660  173.5740  138.6040 N   0  0  0  0  0  2  0  0  0  0  0  0
  192.3080  174.0130  137.2290 C   0  0  0  0  0  3  0  0  0  0  0  0
  190.8190  174.1370  136.9410 C   0  0  0  0  0  1  0  0  0  0  0  0
  193.0430  175.3020  136.8940 C   0  0  0  0  0  1  0  0  0  0  0  0
  1 16  1  1  0  0  0
  1 10  1  0  0  0  0
  2 24  1  1  0  0  0
  2 12  1  0  0  0  0
  2 27  1  0  0  0  0
  3  4  1  0  0  0  0
  5 27  2  0  0  0  0
  5  6  1  0  0  0  0
  6 28  1  0  0  0  0
  7 19  1  1  0  0  0
  7 17  1  0  0  0  0
  7 24  1  0  0  0  0
  8 12  1  0  0  0  0
  9 26  1  0  0  0  0
 10 17  1  0  0  0  0
 11  3  2  0  0  0  0
 12 13  1  0  0  0  0
 13 11  1  0  0  0  0
 13 22  2  0  0  0  0
 14 22  1  0  0  0  0
 14 23  2  0  0  0  0
 15  9  2  0  0  0  0
 16 19  1  0  0  0  0
 17  8  1  0  0  0  0
 18  6  2  0  0  0  0
 18 15  1  0  0  0  0
 20  1  1  0  0  0  0
 20 10  1  0  0  0  0
 21  4  2  0  0  0  0
 22 21  1  0  0  0  0
 25  5  1  0  0  0  0
 27 14  1  0  0  0  0
 28 23  1  0  0  0  0
 28  9  1  0  0  0  0
 29 20  1  0  0  0  0
 30 29  1  0  0  0  0
 31 30  1  0  0  0  0
 32 30  1  0  0  0  0
M  END
>  <MODEL>
2

>  <REMARK>
 VINA RESULT:      -8.3      2.952      4.708
  Name = 
  2 active torsions:
  status: ('A' for Active; 'I' for Inactive)
    1  A    between atoms: C_20  and  N_29
    2  A    between atoms: N_29  and  C_30
                            x       y       z     vdW  Elec       q    Type
                         _______ _______ _______ _____ _____    ______ ____

>  <TORSDO>
F 2

$$$$
=
 OpenBabel11112416333D

 32 38  0  0  1  0  0  0  0  0999 V2000
  187.3220  178.1220  142.8810 C   0  0  1  0  0  3  0  0  0  0  0  0
  190.0560  173.7650  144.1010 C   0  0  1  0  0  3  0  0  0  0  0  0
  193.1190  176.5920  146.8040 C   0  0  0  0  0  3  0  0  0  0  0  0
  194.1880  175.7440  146.5130 C   0  0  0  0  0  3  0  0  0  0  0  0
  190.9360  171.5410  143.3070 C   0  0  0  0  0  0  0  0  0  0  0  0
  191.9970  170.6490  143.1780 C   0  0  0  0  0  0  0  0  0  0  0  0
  188.6310  175.4200  142.9020 C   0  0  1  0  0  3  0  0  0  0  0  0
  189.1840  175.7320  145.3330 C   0  0  0  0  0  2  0  0  0  0  0  0
  193.9770  169.8850  143.3950 C   0  0  0  0  0  0  0  0  0  0  0  0
  187.7800  177.4930  144.1980 C   0  0  2  0  0  3  0  0  0  0  0  0
  191.8370  176.2770  146.3520 C   0  0  0  0  0  3  0  0  0  0  0  0
  190.2840  174.7910  145.1280 N   0  0  0  0  0  0  0  0  0  0  0  0
  191.6080  175.1140  145.5990 C   0  0  0  0  0  0  0  0  0  0  0  0
  192.4490  173.0180  144.5430 C   0  0  0  0  0  0  0  0  0  0  0  0
  193.2230  168.9680  142.6790 C   0  0  0  0  0  3  0  0  0  0  0  0
  188.0630  177.5880  141.6340 C   0  0  0  0  0  2  0  0  0  0  0  0
  188.8980  176.4500  144.0170 C   0  0  2  0  0  3  0  0  0  0  0  0
  191.9650  169.4590  142.5440 N   0  0  0  0  0  0  0  0  0  0  0  0
  188.2910  176.0690  141.5580 C   0  0  0  0  0  2  0  0  0  0  0  0
  186.4440  177.0920  143.5770 C   0  0  1  0  0  3  0  0  0  0  0  0
  193.9730  174.5830  145.7710 C   0  0  0  0  0  3  0  0  0  0  0  0
  192.6870  174.2590  145.3080 C   0  0  0  0  0  0  0  0  0  0  0  0
  193.4770  172.0710  144.3760 C   0  0  0  0  0  3  0  0  0  0  0  0
  189.8010  174.4490  142.7560 C   0  0  0  0  0  2  0  0  0  0  0  0
  189.6920  171.2420  142.7620 O   0  0  0  0  0  1  0  0  0  0  0  0
  195.4130  169.7420  143.7650 C   0  0  0  0  0  1  0  0  0  0  0  0
  191.1670  172.7520  143.9960 C   0  0  0  0  0  0  0  0  0  0  0  0
  193.1980  170.9310  143.6980 N   0  0  0  0  0  0  0  0  0  0  0  0
  185.3630  177.7740  144.2800 N   0  0  0  0  0  2  0  0  0  0  0  0
  185.6930  177.9480  145.6980 C   0  0  0  0  0  3  0  0  0  0  0  0
  185.2010  179.2820  146.2390 C   0  0  0  0  0  1  0  0  0  0  0  0
  185.1910  176.7910  146.5470 C   0  0  0  0  0  1  0  0  0  0  0  0
  1 16  1  6  0  0  0
  1 20  1  0  0  0  0
  1 10  1  0  0  0  0
  2 24  1  6  0  0  0
  2 12  1  0  0  0  0
  4  3  1  0  0  0  0
  5 27  2  0  0  0  0
  6  5  1  0  0  0  0
  6 28  1  0  0  0  0
  7 19  1  6  0  0  0
  7 17  1  0  0  0  0
  9 28  1  0  0  0  0
  9 26  1  0  0  0  0
 11  3  2  0  0  0  0
 12  8  1  0  0  0  0
 12 13  1  0  0  0  0
 13 11  1  0  0  0  0
 14 22  1  0  0  0  0
 15  9  2  0  0  0  0
 17 10  1  0  0  0  0
 17  8  1  0  0  0  0
 18 15  1  0  0  0  0
 18  6  2  0  0  0  0
 19 16  1  0  0  0  0
 20 10  1  0  0  0  0
 20 29  1  0  0  0  0
 21  4  2  0  0  0  0
 22 13  2  0  0  0  0
 22 21  1  0  0  0  0
 23 14  2  0  0  0  0
 24  7  1  0  0  0  0
 25  5  1  0  0  0  0
 27  2  1  0  0  0  0
 27 14  1  0  0  0  0
 28 23  1  0  0  0  0
 29 30  1  0  0  0  0
 30 31  1  0  0  0  0
 30 32  1  0  0  0  0
M  END
>  <MODEL>
3

>  <REMARK>
 VINA RESULT:      -8.1      3.034      8.561
  Name = 
  2 active torsions:
  status: ('A' for Active; 'I' for Inactive)
    1  A    between atoms: C_20  and  N_29
    2  A    between atoms: N_29  and  C_30
                            x       y       z     vdW  Elec       q    Type
                         _______ _______ _______ _____ _____    ______ ____

>  <TORSDO>
F 2

$$$$
=
 OpenBabel11112416333D

 32 38  0  0  1  0  0  0  0  0999 V2000
  188.0150  175.6660  147.1130 C   0  0  1  0  0  3  0  0  0  0  0  0
  192.2100  176.2290  143.9460 C   0  0  1  0  0  3  0  0  0  0  0  0
  189.7530  173.7030  140.4440 C   0  0  0  0  0  3  0  0  0  0  0  0
  190.9490  173.1750  139.9590 C   0  0  0  0  0  3  0  0  0  0  0  0
  194.7240  176.2950  143.7720 C   0  0  0  0  0  0  0  0  0  0  0  0
  195.8940  175.8660  143.1520 C   0  0  0  0  0  0  0  0  0  0  0  0
  190.7710  175.9900  145.9650 C   0  0  1  0  0  3  0  0  0  0  0  0
  189.7530  176.4720  143.7180 C   0  0  0  0  0  2  0  0  0  0  0  0
  197.1260  174.8260  141.7550 C   0  0  0  0  0  0  0  0  0  0  0  0
  188.2040  176.1940  145.6900 C   0  0  2  0  0  3  0  0  0  0  0  0
  189.7720  174.6340  141.4840 C   0  0  0  0  0  3  0  0  0  0  0  0
  191.0070  176.0040  143.1310 N   0  0  0  0  0  0  0  0  0  0  0  0
  190.9880  175.0450  142.0550 C   0  0  0  0  0  0  0  0  0  0  0  0
  193.4780  174.9650  142.1360 C   0  0  0  0  0  0  0  0  0  0  0  0
  197.9400  175.5330  142.6260 C   0  0  0  0  0  3  0  0  0  0  0  0
  189.1990  174.8220  147.6370 C   0  0  0  0  0  2  0  0  0  0  0  0
  189.5440  175.7710  145.0580 C   0  0  2  0  0  3  0  0  0  0  0  0
  197.1520  176.1930  143.5120 N   0  0  0  0  0  0  0  0  0  0  0  0
  190.6130  175.3520  147.3470 C   0  0  0  0  0  2  0  0  0  0  0  0
  188.3460  177.1340  146.8840 C   0  0  1  0  0  3  0  0  0  0  0  0
  192.1640  173.5800  140.5130 C   0  0  0  0  0  3  0  0  0  0  0  0
  192.1940  174.5140  141.5620 C   0  0  0  0  0  0  0  0  0  0  0  0
  194.6990  174.5710  141.5570 C   0  0  0  0  0  3  0  0  0  0  0  0
  192.0520  175.5090  145.2860 C   0  0  0  0  0  2  0  0  0  0  0  0
  194.7770  177.1500  144.8680 O   0  0  0  0  0  1  0  0  0  0  0  0
  197.5830  173.9640  140.6290 C   0  0  0  0  0  1  0  0  0  0  0  0
  193.4920  175.8320  143.2600 C   0  0  0  0  0  0  0  0  0  0  0  0
  195.8490  175.0420  142.0980 N   0  0  0  0  0  0  0  0  0  0  0  0
  187.1290  177.9290  147.0160 N   0  0  0  0  0  2  0  0  0  0  0  0
  186.1740  177.5980  145.9540 C   0  0  0  0  0  3  0  0  0  0  0  0
  184.8220  177.1800  146.5130 C   0  0  0  0  0  1  0  0  0  0  0  0
  186.0280  178.7280  144.9460 C   0  0  0  0  0  1  0  0  0  0  0  0
  1 16  1  1  0  0  0
  2 24  1  1  0  0  0
  3 11  1  0  0  0  0
  4  3  2  0  0  0  0
  4 21  1  0  0  0  0
  5 25  1  0  0  0  0
  6 18  2  0  0  0  0
  6  5  1  0  0  0  0
  7 24  1  6  0  0  0
  7 19  1  0  0  0  0
  8 17  1  0  0  0  0
  9 28  1  0  0  0  0
  9 15  2  0  0  0  0
 10 20  1  0  0  0  0
 10  1  1  0  0  0  0
 11 13  2  0  0  0  0
 12  8  1  0  0  0  0
 12  2  1  0  0  0  0
 13 12  1  0  0  0  0
 14 27  1  0  0  0  0
 15 18  1  0  0  0  0
 17 10  1  0  0  0  0
 17  7  1  0  0  0  0
 19 16  1  0  0  0  0
 20 29  1  0  0  0  0
 20  1  1  0  0  0  0
 21 22  2  0  0  0  0
 22 13  1  0  0  0  0
 22 14  1  0  0  0  0
 23 28  1  0  0  0  0
 23 14  2  0  0  0  0
 26  9  1  0  0  0  0
 27  5  2  0  0  0  0
 27  2  1  0  0  0  0
 28  6  1  0  0  0  0
 30 31  1  0  0  0  0
 30 29  1  0  0  0  0
 32 30  1  0  0  0  0
M  END
>  <MODEL>
4

>  <REMARK>
 VINA RESULT:      -8.1      3.348      9.013
  Name = 
  2 active torsions:
  status: ('A' for Active; 'I' for Inactive)
    1  A    between atoms: C_20  and  N_29
    2  A    between atoms: N_29  and  C_30
                            x       y       z     vdW  Elec       q    Type
                         _______ _______ _______ _____ _____    ______ ____

>  <TORSDO>
F 2

$$$$
=
 OpenBabel11112416333D

 32 38  0  0  1  0  0  0  0  0999 V2000
  195.7470  175.3060  144.4870 C   0  0  1  0  0  3  0  0  0  0  0  0
  190.5540  175.6520  145.4160 C   0  0  1  0  0  3  0  0  0  0  0  0
  189.7420  173.7990  140.8780 C   0  0  0  0  0  3  0  0  0  0  0  0
  188.5660  174.5410  140.7660 C   0  0  0  0  0  3  0  0  0  0  0  0
  188.6880  176.9760  146.4730 C   0  0  0  0  0  0  0  0  0  0  0  0
  187.4330  177.5690  146.3720 C   0  0  0  0  0  0  0  0  0  0  0  0
  193.0090  176.0760  145.4490 C   0  0  1  0  0  3  0  0  0  0  0  0
  192.0900  173.9550  144.4630 C   0  0  0  0  0  2  0  0  0  0  0  0
  185.5770  178.1330  145.4840 C   0  0  0  0  0  0  0  0  0  0  0  0
  194.5860  174.3130  144.3980 C   0  0  2  0  0  3  0  0  0  0  0  0
  190.4740  173.8290  142.0660 C   0  0  0  0  0  3  0  0  0  0  0  0
  190.8010  174.6380  144.3800 N   0  0  0  0  0  0  0  0  0  0  0  0
  190.0420  174.6050  143.1550 C   0  0  0  0  0  0  0  0  0  0  0  0
  188.3770  176.1430  144.1910 C   0  0  0  0  0  0  0  0  0  0  0  0
  185.6370  178.6640  146.7620 C   0  0  0  0  0  3  0  0  0  0  0  0
  195.3090  176.7880  144.5350 C   0  0  0  0  0  2  0  0  0  0  0  0
  193.2050  174.9940  144.3700 C   0  0  2  0  0  3  0  0  0  0  0  0
  186.8200  178.3030  147.3230 N   0  0  0  0  0  0  0  0  0  0  0  0
  194.1180  177.1310  145.4450 C   0  0  0  0  0  2  0  0  0  0  0  0
  195.3460  174.4940  145.7100 C   0  0  1  0  0  3  0  0  0  0  0  0
  188.1230  175.3100  141.8420 C   0  0  0  0  0  3  0  0  0  0  0  0
  188.8540  175.3500  143.0400 C   0  0  0  0  0  0  0  0  0  0  0  0
  187.1160  176.7670  144.1570 C   0  0  0  0  0  3  0  0  0  0  0  0
  191.6350  176.7320  145.3290 C   0  0  0  0  0  2  0  0  0  0  0  0
  189.4380  177.1030  147.6380 O   0  0  0  0  0  1  0  0  0  0  0  0
  184.4520  178.2910  144.5200 C   0  0  0  0  0  1  0  0  0  0  0  0
  189.1740  176.2550  145.3610 C   0  0  0  0  0  0  0  0  0  0  0  0
  186.7070  177.4520  145.2530 N   0  0  0  0  0  0  0  0  0  0  0  0
  196.2790  173.3850  145.8810 N   0  0  0  0  0  2  0  0  0  0  0  0
  195.9140  172.2600  145.0160 C   0  0  0  0  0  3  0  0  0  0  0  0
  197.1280  171.6550  144.3250 C   0  0  0  0  0  1  0  0  0  0  0  0
  195.1200  171.1990  145.7630 C   0  0  0  0  0  1  0  0  0  0  0  0
  1 16  1  1  0  0  0
  1 20  1  0  0  0  0
  2 24  1  6  0  0  0
  3 11  1  0  0  0  0
  4  3  2  0  0  0  0
  4 21  1  0  0  0  0
  5 25  1  0  0  0  0
  6  5  1  0  0  0  0
  6 18  2  0  0  0  0
  7 24  1  6  0  0  0
  9 15  2  0  0  0  0
 10  1  1  0  0  0  0
 10 20  1  0  0  0  0
 11 13  2  0  0  0  0
 12  8  1  0  0  0  0
 12  2  1  0  0  0  0
 13 12  1  0  0  0  0
 14 27  1  0  0  0  0
 15 18  1  0  0  0  0
 16 19  1  0  0  0  0
 17 10  1  0  0  0  0
 17  8  1  0  0  0  0
 17  7  1  0  0  0  0
 19  7  1  0  0  0  0
 20 29  1  0  0  0  0
 21 22  2  0  0  0  0
 22 13  1  0  0  0  0
 22 14  1  0  0  0  0
 23 14  2  0  0  0  0
 23 28  1  0  0  0  0
 26  9  1  0  0  0  0
 27  2  1  0  0  0  0
 27  5  2  0  0  0  0
 28  9  1  0  0  0  0
 28  6  1  0  0  0  0
 30 32  1  0  0  0  0
 30 29  1  0  0  0  0
 31 30  1  0  0  0  0
M  END
>  <MODEL>
5

>  <REMARK>
 VINA RESULT:      -8.1      2.609      5.424
  Name = 
  2 active torsions:
  status: ('A' for Active; 'I' for Inactive)
    1  A    between atoms: C_20  and  N_29
    2  A    between atoms: N_29  and  C_30
                            x       y       z     vdW  Elec       q    Type
                         _______ _______ _______ _____ _____    ______ ____

>  <TORSDO>
F 2

$$$$
=
 OpenBabel11112416333D

 32 38  0  0  1  0  0  0  0  0999 V2000
  186.0340  177.2030  145.0000 C   0  0  1  0  0  3  0  0  0  0  0  0
  191.0350  175.6790  144.2250 C   0  0  1  0  0  3  0  0  0  0  0  0
  189.3160  171.6600  141.8640 C   0  0  0  0  0  3  0  0  0  0  0  0
  190.4080  170.9110  142.3050 C   0  0  0  0  0  3  0  0  0  0  0  0
  193.3690  175.5530  145.1700 C   0  0  0  0  0  0  0  0  0  0  0  0
  194.5100  174.8060  145.4490 C   0  0  0  0  0  0  0  0  0  0  0  0
  188.9880  176.7100  145.2010 C   0  0  1  0  0  3  0  0  0  0  0  0
  188.9760  175.8190  142.8520 C   0  0  0  0  0  2  0  0  0  0  0  0
  195.8000  173.1090  145.4980 C   0  0  0  0  0  0  0  0  0  0  0  0
  186.8360  176.7930  143.7640 C   0  0  2  0  0  3  0  0  0  0  0  0
  189.2400  173.0210  142.1600 C   0  0  0  0  0  3  0  0  0  0  0  0
  190.1710  175.0570  143.2120 N   0  0  0  0  0  0  0  0  0  0  0  0
  190.2520  173.6510  142.9040 C   0  0  0  0  0  0  0  0  0  0  0  0
  192.4360  173.5560  144.1010 C   0  0  0  0  0  0  0  0  0  0  0  0
  196.4330  174.1660  146.1330 C   0  0  0  0  0  3  0  0  0  0  0  0
  186.6810  176.7890  146.3420 C   0  0  0  0  0  2  0  0  0  0  0  0
  188.1350  176.0400  144.1060 C   0  0  2  0  0  3  0  0  0  0  0  0
  195.6080  175.2430  146.1000 N   0  0  0  0  0  0  0  0  0  0  0  0
  188.1970  177.0050  146.4770 C   0  0  0  0  0  2  0  0  0  0  0  0
  186.8190  178.2490  144.2230 C   0  0  1  0  0  3  0  0  0  0  0  0
  191.4230  171.5260  143.0400 C   0  0  0  0  0  3  0  0  0  0  0  0
  191.3540  172.8950  143.3450 C   0  0  0  0  0  0  0  0  0  0  0  0
  193.6190  172.8610  144.4150 C   0  0  0  0  0  3  0  0  0  0  0  0
  190.2340  175.8830  145.5130 C   0  0  0  0  0  2  0  0  0  0  0  0
  193.2820  176.8850  145.5610 O   0  0  0  0  0  1  0  0  0  0  0  0
  196.3530  171.7380  145.3130 C   0  0  0  0  0  1  0  0  0  0  0  0
  192.3090  174.9160  144.4890 C   0  0  0  0  0  0  0  0  0  0  0  0
  194.5990  173.5240  145.0770 N   0  0  0  0  0  0  0  0  0  0  0  0
  185.9050  179.0090  143.3760 N   0  0  0  0  0  2  0  0  0  0  0  0
  185.2090  178.1230  142.4380 C   0  0  0  0  0  3  0  0  0  0  0  0
  183.6980  178.2910  142.5100 C   0  0  0  0  0  1  0  0  0  0  0  0
  185.7140  178.2910  141.0130 C   0  0  0  0  0  1  0  0  0  0  0  0
  1 16  1  1  0  0  0
  2 27  1  0  0  0  0
  2 24  1  1  0  0  0
  3 11  2  0  0  0  0
  3  4  1  0  0  0  0
  4 21  2  0  0  0  0
  5  6  1  0  0  0  0
  5 25  1  0  0  0  0
  6 18  2  0  0  0  0
  7 24  1  1  0  0  0
  7 19  1  0  0  0  0
  8 12  1  0  0  0  0
  8 17  1  0  0  0  0
  9 15  2  0  0  0  0
 10 17  1  0  0  0  0
 10 20  1  0  0  0  0
 10  1  1  0  0  0  0
 11 13  1  0  0  0  0
 12  2  1  0  0  0  0
 13 12  1  0  0  0  0
 13 22  2  0  0  0  0
 14 23  2  0  0  0  0
 14 27  1  0  0  0  0
 16 19  1  0  0  0  0
 17  7  1  0  0  0  0
 18 15  1  0  0  0  0
 20  1  1  0  0  0  0
 21 22  1  0  0  0  0
 22 14  1  0  0  0  0
 23 28  1  0  0  0  0
 26  9  1  0  0  0  0
 27  5  2  0  0  0  0
 28  6  1  0  0  0  0
 28  9  1  0  0  0  0
 29 20  1  0  0  0  0
 30 31  1  0  0  0  0
 30 29  1  0  0  0  0
 32 30  1  0  0  0  0
M  END
>  <MODEL>
6

>  <REMARK>
 VINA RESULT:      -8.0      2.512      9.015
  Name = 
  2 active torsions:
  status: ('A' for Active; 'I' for Inactive)
    1  A    between atoms: C_20  and  N_29
    2  A    between atoms: N_29  and  C_30
                            x       y       z     vdW  Elec       q    Type
                         _______ _______ _______ _____ _____    ______ ____

>  <TORSDO>
F 2

$$$$
=
 OpenBabel11112416333D

 32 38  0  0  1  0  0  0  0  0999 V2000
  186.1960  178.8670  143.8430 C   0  0  1  0  0  3  0  0  0  0  0  0
  188.8890  174.6180  142.2190 C   0  0  1  0  0  3  0  0  0  0  0  0
  193.0000  176.6420  144.1400 C   0  0  0  0  0  3  0  0  0  0  0  0
  193.7800  176.0410  143.1520 C   0  0  0  0  0  3  0  0  0  0  0  0
  189.1910  172.8760  140.4230 C   0  0  0  0  0  0  0  0  0  0  0  0
  190.0310  172.1770  139.5600 C   0  0  0  0  0  0  0  0  0  0  0  0
  187.2010  176.4430  142.3840 C   0  0  1  0  0  3  0  0  0  0  0  0
  188.7680  175.9730  144.2920 C   0  0  0  0  0  2  0  0  0  0  0  0
  191.8540  171.5670  138.6380 C   0  0  0  0  0  0  0  0  0  0  0  0
  187.1320  177.8780  144.5380 C   0  0  2  0  0  3  0  0  0  0  0  0
  191.6300  176.3830  144.2000 C   0  0  0  0  0  3  0  0  0  0  0  0
  189.6060  175.2580  143.3320 N   0  0  0  0  0  0  0  0  0  0  0  0
  191.0220  175.5230  143.2710 C   0  0  0  0  0  0  0  0  0  0  0  0
  191.1840  173.9850  141.3160 C   0  0  0  0  0  0  0  0  0  0  0  0
  190.8060  170.8780  138.0480 C   0  0  0  0  0  3  0  0  0  0  0  0
  186.2890  178.8500  142.3000 C   0  0  0  0  0  2  0  0  0  0  0  0
  187.9910  177.0610  143.5550 C   0  0  2  0  0  3  0  0  0  0  0  0
  189.6480  171.2700  138.6380 N   0  0  0  0  0  0  0  0  0  0  0  0
  186.3600  177.4700  141.6230 C   0  0  0  0  0  2  0  0  0  0  0  0
  185.6360  177.5890  144.4500 C   0  0  1  0  0  3  0  0  0  0  0  0
  193.1890  175.1800  142.2270 C   0  0  0  0  0  3  0  0  0  0  0  0
  191.8110  174.9140  142.2770 C   0  0  0  0  0  0  0  0  0  0  0  0
  191.9740  173.2440  140.4160 C   0  0  0  0  0  3  0  0  0  0  0  0
  188.1270  175.6860  141.4330 C   0  0  0  0  0  2  0  0  0  0  0  0
  187.8160  172.6660  140.3960 O   0  0  0  0  0  1  0  0  0  0  0  0
  193.2970  171.4380  138.2870 C   0  0  0  0  0  1  0  0  0  0  0  0
  189.7760  173.8020  141.3140 C   0  0  0  0  0  0  0  0  0  0  0  0
  191.3540  172.3770  139.5800 N   0  0  0  0  0  0  0  0  0  0  0  0
  185.0120  177.8970  145.7330 N   0  0  0  0  0  2  0  0  0  0  0  0
  186.0240  178.0410  146.7830 C   0  0  0  0  0  3  0  0  0  0  0  0
  185.7880  179.2770  147.6380 C   0  0  0  0  0  1  0  0  0  0  0  0
  186.1380  176.7910  147.6420 C   0  0  0  0  0  1  0  0  0  0  0  0
  1 16  1  6  0  0  0
  1 20  1  0  0  0  0
  1 10  1  0  0  0  0
  2 24  1  6  0  0  0
  2 12  1  0  0  0  0
  3 11  1  0  0  0  0
  4  3  2  0  0  0  0
  5 27  2  0  0  0  0
  6 28  1  0  0  0  0
  6  5  1  0  0  0  0
  7 24  1  6  0  0  0
  7 17  1  0  0  0  0
  9 28  1  0  0  0  0
 12  8  1  0  0  0  0
 13 12  1  0  0  0  0
 13 11  2  0  0  0  0
 14 22  1  0  0  0  0
 15  9  2  0  0  0  0
 15 18  1  0  0  0  0
 17  8  1  0  0  0  0
 17 10  1  0  0  0  0
 18  6  2  0  0  0  0
 19 16  1  0  0  0  0
 19  7  1  0  0  0  0
 20 10  1  0  0  0  0
 20 29  1  0  0  0  0
 21 22  2  0  0  0  0
 21  4  1  0  0  0  0
 22 13  1  0  0  0  0
 23 14  2  0  0  0  0
 25  5  1  0  0  0  0
 26  9  1  0  0  0  0
 27 14  1  0  0  0  0
 27  2  1  0  0  0  0
 28 23  1  0  0  0  0
 29 30  1  0  0  0  0
 30 31  1  0  0  0  0
 30 32  1  0  0  0  0
M  END
>  <MODEL>
7

>  <REMARK>
 VINA RESULT:      -7.9      3.361      7.780
  Name = 
  2 active torsions:
  status: ('A' for Active; 'I' for Inactive)
    1  A    between atoms: C_20  and  N_29
    2  A    between atoms: N_29  and  C_30
                            x       y       z     vdW  Elec       q    Type
                         _______ _______ _______ _____ _____    ______ ____

>  <TORSDO>
F 2

$$$$
=
 OpenBabel11112416333D

 32 38  0  0  1  0  0  0  0  0999 V2000
  191.8980  171.5950  141.0900 C   0  0  1  0  0  3  0  0  0  0  0  0
  189.2810  175.7660  143.0120 C   0  0  1  0  0  3  0  0  0  0  0  0
  192.4980  175.8860  146.7960 C   0  0  0  0  0  3  0  0  0  0  0  0
  191.5060  176.3720  147.6480 C   0  0  0  0  0  3  0  0  0  0  0  0
  187.0410  176.8660  143.3650 C   0  0  0  0  0  0  0  0  0  0  0  0
  186.1360  177.4970  144.2150 C   0  0  0  0  0  0  0  0  0  0  0  0
  189.8290  173.6370  141.8390 C   0  0  1  0  0  3  0  0  0  0  0  0
  191.6580  175.1560  142.6550 C   0  0  0  0  0  2  0  0  0  0  0  0
  185.3800  178.3510  146.0180 C   0  0  0  0  0  0  0  0  0  0  0  0
  192.3180  172.9980  141.5290 C   0  0  2  0  0  3  0  0  0  0  0  0
  192.2200  175.6920  145.4420 C   0  0  0  0  0  3  0  0  0  0  0  0
  190.6580  175.7710  143.5270 N   0  0  0  0  0  0  0  0  0  0  0  0
  190.9460  175.9760  144.9240 C   0  0  0  0  0  0  0  0  0  0  0  0
  188.6140  176.7990  145.2420 C   0  0  0  0  0  0  0  0  0  0  0  0
  184.4040  178.4430  145.0380 C   0  0  0  0  0  3  0  0  0  0  0  0
  190.5030  171.1640  141.5990 C   0  0  0  0  0  2  0  0  0  0  0  0
  191.2630  173.7040  142.4010 C   0  0  2  0  0  3  0  0  0  0  0  0
  184.8890  177.8990  143.8940 N   0  0  0  0  0  0  0  0  0  0  0  0
  189.3800  172.2110  141.5170 C   0  0  0  0  0  2  0  0  0  0  0  0
  191.8720  172.7430  140.0910 C   0  0  1  0  0  3  0  0  0  0  0  0
  190.2380  176.6640  147.1450 C   0  0  0  0  0  3  0  0  0  0  0  0
  189.9470  176.4690  145.7850 C   0  0  0  0  0  0  0  0  0  0  0  0
  187.6520  177.4390  146.0450 C   0  0  0  0  0  3  0  0  0  0  0  0
  188.8370  174.3200  142.7790 C   0  0  0  0  0  2  0  0  0  0  0  0
  186.7010  176.5990  142.0440 O   0  0  0  0  0  1  0  0  0  0  0  0
  185.2600  178.8250  147.4250 C   0  0  0  0  0  1  0  0  0  0  0  0
  188.3020  176.5040  143.8890 C   0  0  0  0  0  0  0  0  0  0  0  0
  186.4570  177.7550  145.4890 N   0  0  0  0  0  0  0  0  0  0  0  0
  193.0490  172.6610  139.2310 N   0  0  0  0  0  2  0  0  0  0  0  0
  194.0400  173.6730  139.6090 C   0  0  0  0  0  3  0  0  0  0  0  0
  195.4540  173.1110  139.6180 C   0  0  0  0  0  1  0  0  0  0  0  0
  193.9480  174.9160  138.7360 C   0  0  0  0  0  1  0  0  0  0  0  0
  1 10  1  0  0  0  0
  1 16  1  1  0  0  0
  2 24  1  1  0  0  0
  2 12  1  0  0  0  0
  2 27  1  0  0  0  0
  3  4  1  0  0  0  0
  5 27  2  0  0  0  0
  5  6  1  0  0  0  0
  6 28  1  0  0  0  0
  7 19  1  1  0  0  0
  7 17  1  0  0  0  0
  7 24  1  0  0  0  0
  8 12  1  0  0  0  0
  9 26  1  0  0  0  0
 10 17  1  0  0  0  0
 11  3  2  0  0  0  0
 12 13  1  0  0  0  0
 13 11  1  0  0  0  0
 13 22  2  0  0  0  0
 14 22  1  0  0  0  0
 14 23  2  0  0  0  0
 15  9  2  0  0  0  0
 17  8  1  0  0  0  0
 18  6  2  0  0  0  0
 18 15  1  0  0  0  0
 19 16  1  0  0  0  0
 20  1  1  0  0  0  0
 20 10  1  0  0  0  0
 21  4  2  0  0  0  0
 22 21  1  0  0  0  0
 25  5  1  0  0  0  0
 27 14  1  0  0  0  0
 28  9  1  0  0  0  0
 28 23  1  0  0  0  0
 29 30  1  0  0  0  0
 29 20  1  0  0  0  0
 30 31  1  0  0  0  0
 32 30  1  0  0  0  0
M  END
>  <MODEL>
8

>  <REMARK>
 VINA RESULT:      -7.9      2.548      4.528
  Name = 
  2 active torsions:
  status: ('A' for Active; 'I' for Inactive)
    1  A    between atoms: C_20  and  N_29
    2  A    between atoms: N_29  and  C_30
                            x       y       z     vdW  Elec       q    Type
                         _______ _______ _______ _____ _____    ______ ____

>  <TORSDO>
F 2

$$$$
=
 OpenBabel11112416333D

 32 38  0  0  1  0  0  0  0  0999 V2000
  191.8140  172.3650  143.0630 C   0  0  1  0  0  3  0  0  0  0  0  0
  188.2660  176.2440  142.5150 C   0  0  1  0  0  3  0  0  0  0  0  0
  187.7880  176.3400  147.4590 C   0  0  0  0  0  3  0  0  0  0  0  0
  186.4490  176.7110  147.3410 C   0  0  0  0  0  3  0  0  0  0  0  0
  186.3630  177.1800  141.1530 C   0  0  0  0  0  0  0  0  0  0  0  0
  185.0730  177.7020  141.0960 C   0  0  0  0  0  0  0  0  0  0  0  0
  189.6660  174.2270  142.0970 C   0  0  1  0  0  3  0  0  0  0  0  0
  190.2240  175.8050  143.9710 C   0  0  0  0  0  2  0  0  0  0  0  0
  183.1870  178.3990  141.8080 C   0  0  0  0  0  0  0  0  0  0  0  0
  191.6720  173.7630  143.6660 C   0  0  2  0  0  3  0  0  0  0  0  0
  188.5780  176.2090  146.3170 C   0  0  0  0  0  3  0  0  0  0  0  0
  188.8550  176.3040  143.8610 N   0  0  0  0  0  0  0  0  0  0  0  0
  188.0390  176.4430  145.0410 C   0  0  0  0  0  0  0  0  0  0  0  0
  186.1220  177.1000  143.5890 C   0  0  0  0  0  0  0  0  0  0  0  0
  183.2000  178.4890  140.4250 C   0  0  0  0  0  3  0  0  0  0  0  0
  190.5190  171.8190  142.4200 C   0  0  0  0  0  2  0  0  0  0  0  0
  190.2560  174.3490  143.5160 C   0  0  2  0  0  3  0  0  0  0  0  0
  184.4020  178.0440  139.9760 N   0  0  0  0  0  0  0  0  0  0  0  0
  189.7070  172.7970  141.5540 C   0  0  0  0  0  2  0  0  0  0  0  0
  192.4110  173.5660  142.3450 C   0  0  1  0  0  3  0  0  0  0  0  0
  185.9020  176.9530  146.0810 C   0  0  0  0  0  3  0  0  0  0  0  0
  186.6880  176.8210  144.9240 C   0  0  0  0  0  0  0  0  0  0  0  0
  184.8240  177.6300  143.4580 C   0  0  0  0  0  3  0  0  0  0  0  0
  188.2480  174.7900  142.0390 C   0  0  0  0  0  2  0  0  0  0  0  0
  187.0930  176.9720  139.9880 O   0  0  0  0  0  1  0  0  0  0  0  0
  182.0590  178.7810  142.7020 C   0  0  0  0  0  1  0  0  0  0  0  0
  186.8960  176.8670  142.4230 C   0  0  0  0  0  0  0  0  0  0  0  0
  184.3640  177.9040  142.2130 N   0  0  0  0  0  0  0  0  0  0  0  0
  193.8500  173.6090  142.5880 N   0  0  0  0  0  2  0  0  0  0  0  0
  194.1310  173.7720  144.0170 C   0  0  0  0  0  3  0  0  0  0  0  0
  195.1170  172.7320  144.5270 C   0  0  0  0  0  1  0  0  0  0  0  0
  194.5960  175.1810  144.3510 C   0  0  0  0  0  1  0  0  0  0  0  0
  1 16  1  6  0  0  0
  1 10  1  0  0  0  0
  2 24  1  1  0  0  0
  2 12  1  0  0  0  0
  4  3  1  0  0  0  0
  5 27  2  0  0  0  0
  6  5  1  0  0  0  0
  6 28  1  0  0  0  0
  7 19  1  1  0  0  0
  7 17  1  0  0  0  0
  9 28  1  0  0  0  0
  9 26  1  0  0  0  0
 11  3  2  0  0  0  0
 12  8  1  0  0  0  0
 12 13  1  0  0  0  0
 13 11  1  0  0  0  0
 14 22  1  0  0  0  0
 15  9  2  0  0  0  0
 17 10  1  0  0  0  0
 17  8  1  0  0  0  0
 18 15  1  0  0  0  0
 18  6  2  0  0  0  0
 19 16  1  0  0  0  0
 20 29  1  0  0  0  0
 20  1  1  0  0  0  0
 20 10  1  0  0  0  0
 21  4  2  0  0  0  0
 22 13  2  0  0  0  0
 22 21  1  0  0  0  0
 23 14  2  0  0  0  0
 24  7  1  0  0  0  0
 25  5  1  0  0  0  0
 27  2  1  0  0  0  0
 27 14  1  0  0  0  0
 28 23  1  0  0  0  0
 29 30  1  0  0  0  0
 30 32  1  0  0  0  0
 30 31  1  0  0  0  0
M  END
>  <MODEL>
9

>  <REMARK>
 VINA RESULT:      -7.6      1.589      1.966
  Name = 
  2 active torsions:
  status: ('A' for Active; 'I' for Inactive)
    1  A    between atoms: C_20  and  N_29
    2  A    between atoms: N_29  and  C_30
                            x       y       z     vdW  Elec       q    Type
                         _______ _______ _______ _____ _____    ______ ____

>  <TORSDO>
F 2

$$$$
