=
 OpenBabel11112416223D

 30 35  0  0  1  0  0  0  0  0999 V2000
  187.5250  176.3440  145.1430 C   0  0  0  0  0  0  0  0  0  0  0  0
  185.7730  177.5730  146.4090 C   0  0  0  0  0  0  0  0  0  0  0  0
  185.9360  177.6420  141.4740 N   0  0  0  0  0  2  0  0  0  0  0  0
  188.0700  175.9350  143.9030 C   0  0  0  0  0  0  0  0  0  0  0  0
  188.1450  175.9240  146.3210 O   0  0  0  0  0  0  0  0  0  0  0  0
  191.0850  174.1310  145.1310 O   0  0  0  0  0  1  0  0  0  0  0  0
  189.2900  174.0940  141.4630 C   0  0  1  0  0  3  0  0  0  0  0  0
  189.7200  174.4130  145.2410 C   0  0  1  0  0  3  0  0  0  0  0  0
  188.0610  174.8110  140.8970 C   0  0  2  0  0  3  0  0  0  0  0  0
  186.8850  177.0440  140.5980 C   0  0  0  0  0  0  0  0  0  0  0  0
  189.4930  175.4620  146.3300 C   0  0  2  0  0  3  0  0  0  0  0  0
  189.1130  174.8310  143.8840 C   0  0  2  0  0  3  0  0  0  0  0  0
  184.6390  178.3890  146.3990 C   0  0  0  0  0  3  0  0  0  0  0  0
  188.0920  174.7010  139.4900 O   0  0  0  0  0  0  0  0  0  0  0  0
  190.1690  173.8730  140.2820 C   0  0  0  0  0  2  0  0  0  0  0  0
  186.2860  177.1730  147.6370 O   0  0  0  0  0  1  0  0  0  0  0  0
  186.3800  177.2490  142.7630 C   0  0  0  0  0  0  0  0  0  0  0  0
  184.0810  178.8200  145.1960 C   0  0  0  0  0  3  0  0  0  0  0  0
  186.3700  177.1730  145.1890 C   0  0  0  0  0  0  0  0  0  0  0  0
  187.4970  176.4390  142.7240 C   0  0  0  0  0  0  0  0  0  0  0  0
  186.8410  177.2060  139.3510 O   0  0  0  0  0  0  0  0  0  0  0  0
  187.9710  176.2860  141.3100 C   0  0  1  0  0  3  0  0  0  0  0  0
  189.1740  173.8670  139.1520 C   0  0  0  0  0  2  0  0  0  0  0  0
  190.7870  176.0050  142.3580 C   0  0  0  0  0  1  0  0  0  0  0  0
  184.6540  178.4390  143.9850 C   0  0  0  0  0  3  0  0  0  0  0  0
  185.7900  177.6220  143.9700 C   0  0  0  0  0  0  0  0  0  0  0  0
  190.0280  174.7170  142.6610 C   0  0  2  0  0  3  0  0  0  0  0  0
  189.8630  174.9350  147.7130 C   0  0  0  0  0  2  0  0  0  0  0  0
  191.3520  176.8820  148.0690 C   0  0  0  0  0  1  0  0  0  0  0  0
  191.2570  175.3730  148.1320 C   0  0  0  0  0  2  0  0  0  0  0  0
  1 19  1  0  0  0  0
  1  5  1  0  0  0  0
  2 16  1  0  0  0  0
  3 17  1  0  0  0  0
  4  1  2  0  0  0  0
  5 11  1  0  0  0  0
  7 15  1  6  0  0  0
  7 27  1  0  0  0  0
  8  6  1  6  0  0  0
  8 11  1  0  0  0  0
  9 14  1  6  0  0  0
  9 22  1  0  0  0  0
  9  7  1  0  0  0  0
 10  3  1  0  0  0  0
 11 28  1  1  0  0  0
 12  4  1  1  0  0  0
 12  8  1  0  0  0  0
 13  2  1  0  0  0  0
 17 26  1  0  0  0  0
 18 13  2  0  0  0  0
 19  2  2  0  0  0  0
 20 17  2  0  0  0  0
 20  4  1  0  0  0  0
 21 10  2  0  0  0  0
 22 10  1  6  0  0  0
 22 20  1  0  0  0  0
 23 14  1  0  0  0  0
 23 15  1  0  0  0  0
 25 18  1  0  0  0  0
 26 25  2  0  0  0  0
 26 19  1  0  0  0  0
 27 24  1  6  0  0  0
 27 12  1  0  0  0  0
 28 30  1  0  0  0  0
 29 30  1  0  0  0  0
M  END
>  <MODEL>
1

>  <REMARK>
 VINA RESULT:      -9.0      0.000      0.000
  Name = 
  2 active torsions:
  status: ('A' for Active; 'I' for Inactive)
    1  A    between atoms: C_11  and  C_28
    2  A    between atoms: C_28  and  C_30
                            x       y       z     vdW  Elec       q    Type
                         _______ _______ _______ _____ _____    ______ ____

>  <TORSDO>
F 2

$$$$
=
 OpenBabel11112416223D

 30 35  0  0  1  0  0  0  0  0999 V2000
  186.2360  177.4450  143.6980 C   0  0  0  0  0  0  0  0  0  0  0  0
  184.5420  178.5350  145.1580 C   0  0  0  0  0  0  0  0  0  0  0  0
  188.3380  175.9970  147.0370 N   0  0  0  0  0  2  0  0  0  0  0  0
  187.4380  176.7120  143.5670 C   0  0  0  0  0  0  0  0  0  0  0  0
  185.5580  177.8390  142.5420 O   0  0  0  0  0  0  0  0  0  0  0  0
  187.5020  176.3110  139.8670 O   0  0  0  0  0  1  0  0  0  0  0  0
  190.4470  175.7550  142.6420 C   0  0  1  0  0  3  0  0  0  0  0  0
  187.2890  177.1170  140.9900 C   0  0  1  0  0  3  0  0  0  0  0  0
  190.4830  175.8970  144.1660 C   0  0  2  0  0  3  0  0  0  0  0  0
  189.3610  175.2770  146.3600 C   0  0  0  0  0  0  0  0  0  0  0  0
  185.7920  177.2040  141.2890 C   0  0  2  0  0  3  0  0  0  0  0  0
  188.1060  176.6290  142.2060 C   0  0  2  0  0  3  0  0  0  0  0  0
  184.0790  178.8280  146.4430 C   0  0  0  0  0  3  0  0  0  0  0  0
  191.6470  175.2560  144.6440 O   0  0  0  0  0  0  0  0  0  0  0  0
  191.4750  174.7200  142.3390 C   0  0  0  0  0  2  0  0  0  0  0  0
  183.8170  179.0140  144.0720 O   0  0  0  0  0  1  0  0  0  0  0  0
  187.5630  176.5470  145.9840 C   0  0  0  0  0  0  0  0  0  0  0  0
  184.7670  178.3750  147.5690 C   0  0  0  0  0  3  0  0  0  0  0  0
  185.7220  177.7720  144.9840 C   0  0  0  0  0  0  0  0  0  0  0  0
  188.0610  176.2390  144.7340 C   0  0  0  0  0  0  0  0  0  0  0  0
  190.2330  174.6100  146.9760 O   0  0  0  0  0  0  0  0  0  0  0  0
  189.2420  175.3240  144.8620 C   0  0  1  0  0  3  0  0  0  0  0  0
  192.3940  174.8410  143.5250 C   0  0  0  0  0  2  0  0  0  0  0  0
  188.5000  174.1090  142.2010 C   0  0  0  0  0  1  0  0  0  0  0  0
  185.9280  177.6200  147.4200 C   0  0  0  0  0  3  0  0  0  0  0  0
  186.4110  177.3150  146.1420 C   0  0  0  0  0  0  0  0  0  0  0  0
  189.0980  175.4900  141.9510 C   0  0  2  0  0  3  0  0  0  0  0  0
  185.0310  177.9250  140.1800 C   0  0  0  0  0  2  0  0  0  0  0  0
  182.5640  177.8890  140.3950 C   0  0  0  0  0  1  0  0  0  0  0  0
  183.8190  178.6700  140.7160 C   0  0  0  0  0  2  0  0  0  0  0  0
  1 19  1  0  0  0  0
  2 13  1  0  0  0  0
  4  1  2  0  0  0  0
  4 20  1  0  0  0  0
  5  1  1  0  0  0  0
  7 15  1  1  0  0  0
  7  9  1  0  0  0  0
  8  6  1  6  0  0  0
  8 11  1  0  0  0  0
  8 12  1  0  0  0  0
  9 14  1  1  0  0  0
  9 22  1  0  0  0  0
 10 21  2  0  0  0  0
 10  3  1  0  0  0  0
 11 28  1  6  0  0  0
 11  5  1  0  0  0  0
 12  4  1  1  0  0  0
 13 18  2  0  0  0  0
 15 23  1  0  0  0  0
 16  2  1  0  0  0  0
 17 26  1  0  0  0  0
 17  3  1  0  0  0  0
 19  2  2  0  0  0  0
 19 26  1  0  0  0  0
 20 17  2  0  0  0  0
 22 20  1  1  0  0  0
 22 10  1  0  0  0  0
 23 14  1  0  0  0  0
 25 18  1  0  0  0  0
 26 25  2  0  0  0  0
 27 24  1  1  0  0  0
 27 12  1  0  0  0  0
 27  7  1  0  0  0  0
 28 30  1  0  0  0  0
 29 30  1  0  0  0  0
M  END
>  <MODEL>
2

>  <REMARK>
 VINA RESULT:      -9.0      2.158      5.347
  Name = 
  2 active torsions:
  status: ('A' for Active; 'I' for Inactive)
    1  A    between atoms: C_11  and  C_28
    2  A    between atoms: C_28  and  C_30
                            x       y       z     vdW  Elec       q    Type
                         _______ _______ _______ _____ _____    ______ ____

>  <TORSDO>
F 2

$$$$
=
 OpenBabel11112416223D

 30 35  0  0  1  0  0  0  0  0999 V2000
  188.2950  176.1150  142.1720 C   0  0  0  0  0  0  0  0  0  0  0  0
  186.5810  177.0680  140.6430 C   0  0  0  0  0  0  0  0  0  0  0  0
  186.6440  178.1450  145.4610 N   0  0  0  0  0  2  0  0  0  0  0  0
  188.8670  176.0400  143.4640 C   0  0  0  0  0  0  0  0  0  0  0  0
  188.8620  175.3620  141.1410 O   0  0  0  0  0  0  0  0  0  0  0  0
  191.4640  173.4510  142.8280 O   0  0  0  0  0  1  0  0  0  0  0  0
  191.0260  176.0500  145.9470 C   0  0  1  0  0  3  0  0  0  0  0  0
  190.7880  174.6060  142.4240 C   0  0  1  0  0  3  0  0  0  0  0  0
  189.9860  177.1270  146.2680 C   0  0  2  0  0  3  0  0  0  0  0  0
  187.5100  177.6580  146.4790 C   0  0  0  0  0  0  0  0  0  0  0  0
  189.7020  174.2440  141.4100 C   0  0  2  0  0  3  0  0  0  0  0  0
  190.2310  175.3920  143.6300 C   0  0  2  0  0  3  0  0  0  0  0  0
  185.4660  177.8880  140.4560 C   0  0  0  0  0  3  0  0  0  0  0  0
  190.1220  177.4850  147.6270 O   0  0  0  0  0  0  0  0  0  0  0  0
  191.5170  175.5980  147.2790 C   0  0  0  0  0  2  0  0  0  0  0  0
  187.0960  176.3950  139.5400 O   0  0  0  0  0  1  0  0  0  0  0  0
  187.1290  177.5200  144.2840 C   0  0  0  0  0  0  0  0  0  0  0  0
  184.9080  178.5870  141.5270 C   0  0  0  0  0  3  0  0  0  0  0  0
  187.1610  176.9380  141.9280 C   0  0  0  0  0  0  0  0  0  0  0  0
  188.2340  176.7260  144.5140 C   0  0  0  0  0  0  0  0  0  0  0  0
  187.3620  177.9690  147.6900 O   0  0  0  0  0  0  0  0  0  0  0  0
  188.5440  176.6880  145.9800 C   0  0  1  0  0  3  0  0  0  0  0  0
  191.2460  176.8060  148.1350 C   0  0  0  0  0  2  0  0  0  0  0  0
  189.6300  173.8970  145.6080 C   0  0  0  0  0  1  0  0  0  0  0  0
  185.4620  178.4710  142.8000 C   0  0  0  0  0  3  0  0  0  0  0  0
  186.5790  177.6550  143.0100 C   0  0  0  0  0  0  0  0  0  0  0  0
  190.6310  174.8870  145.0190 C   0  0  2  0  0  3  0  0  0  0  0  0
  190.2930  173.7010  140.1130 C   0  0  0  0  0  2  0  0  0  0  0  0
  188.2440  172.6100  139.2470 C   0  0  0  0  0  1  0  0  0  0  0  0
  189.2710  173.6900  138.9860 C   0  0  0  0  0  2  0  0  0  0  0  0
  1  4  1  0  0  0  0
  2 19  1  0  0  0  0
  3 10  1  0  0  0  0
  4 20  2  0  0  0  0
  5 11  1  0  0  0  0
  5  1  1  0  0  0  0
  7  9  1  0  0  0  0
  7 15  1  1  0  0  0
  8  6  1  1  0  0  0
  8 12  1  0  0  0  0
  9 14  1  1  0  0  0
 10 21  2  0  0  0  0
 11 28  1  6  0  0  0
 11  8  1  0  0  0  0
 12  4  1  1  0  0  0
 12 27  1  0  0  0  0
 13  2  2  0  0  0  0
 13 18  1  0  0  0  0
 14 23  1  0  0  0  0
 15 23  1  0  0  0  0
 16  2  1  0  0  0  0
 17 20  1  0  0  0  0
 17  3  1  0  0  0  0
 18 25  2  0  0  0  0
 19  1  2  0  0  0  0
 19 26  1  0  0  0  0
 22 20  1  6  0  0  0
 22  9  1  0  0  0  0
 22 10  1  0  0  0  0
 25 26  1  0  0  0  0
 26 17  2  0  0  0  0
 27 24  1  1  0  0  0
 27  7  1  0  0  0  0
 30 29  1  0  0  0  0
 30 28  1  0  0  0  0
M  END
>  <MODEL>
3

>  <REMARK>
 VINA RESULT:      -8.3      1.627      5.676
  Name = 
  2 active torsions:
  status: ('A' for Active; 'I' for Inactive)
    1  A    between atoms: C_11  and  C_28
    2  A    between atoms: C_28  and  C_30
                            x       y       z     vdW  Elec       q    Type
                         _______ _______ _______ _____ _____    ______ ____

>  <TORSDO>
F 2

$$$$
=
 OpenBabel11112416223D

 30 35  0  0  1  0  0  0  0  0999 V2000
  188.5560  176.1270  143.2890 C   0  0  0  0  0  0  0  0  0  0  0  0
  186.3530  177.2790  143.2870 C   0  0  0  0  0  0  0  0  0  0  0  0
  189.3730  177.4670  147.1880 N   0  0  0  0  0  2  0  0  0  0  0  0
  189.7790  175.8400  143.9400 C   0  0  0  0  0  0  0  0  0  0  0  0
  188.3300  175.5940  142.0180 O   0  0  0  0  0  0  0  0  0  0  0  0
  191.2580  173.5030  141.4490 O   0  0  0  0  0  1  0  0  0  0  0  0
  192.9860  175.4760  144.5790 C   0  0  1  0  0  3  0  0  0  0  0  0
  190.5710  174.6880  141.7330 C   0  0  1  0  0  3  0  0  0  0  0  0
  192.4370  176.4400  145.6350 C   0  0  2  0  0  3  0  0  0  0  0  0
  190.6330  176.8350  147.3800 C   0  0  0  0  0  0  0  0  0  0  0  0
  189.0690  174.4770  141.5360 C   0  0  2  0  0  3  0  0  0  0  0  0
  190.9130  175.2220  143.1400 C   0  0  2  0  0  3  0  0  0  0  0  0
  185.4190  178.0800  143.9500 C   0  0  0  0  0  3  0  0  0  0  0  0
  193.3880  176.5500  146.6720 O   0  0  0  0  0  0  0  0  0  0  0  0
  194.1380  174.8080  145.2470 C   0  0  0  0  0  2  0  0  0  0  0  0
  186.0480  176.8370  142.0040 O   0  0  0  0  0  1  0  0  0  0  0  0
  189.0050  177.0840  145.8730 C   0  0  0  0  0  0  0  0  0  0  0  0
  185.6720  178.5530  145.2370 C   0  0  0  0  0  3  0  0  0  0  0  0
  187.5730  176.9390  143.9190 C   0  0  0  0  0  0  0  0  0  0  0  0
  189.9580  176.3010  145.2550 C   0  0  0  0  0  0  0  0  0  0  0  0
  191.2650  176.9150  148.4660 O   0  0  0  0  0  0  0  0  0  0  0  0
  191.0800  176.0090  146.2060 C   0  0  1  0  0  3  0  0  0  0  0  0
  194.5320  175.8300  146.2790 C   0  0  0  0  0  2  0  0  0  0  0  0
  191.4960  173.3720  144.7980 C   0  0  0  0  0  1  0  0  0  0  0  0
  186.8650  178.2270  145.8780 C   0  0  0  0  0  3  0  0  0  0  0  0
  187.8150  177.4270  145.2330 C   0  0  0  0  0  0  0  0  0  0  0  0
  192.0220  174.4880  143.9000 C   0  0  2  0  0  3  0  0  0  0  0  0
  188.7200  174.2000  140.0770 C   0  0  0  0  0  2  0  0  0  0  0  0
  189.1500  172.0750  138.8780 C   0  0  0  0  0  1  0  0  0  0  0  0
  188.2440  172.7710  139.8700 C   0  0  0  0  0  2  0  0  0  0  0  0
  1 19  2  0  0  0  0
  1  4  1  0  0  0  0
  2 19  1  0  0  0  0
  2 13  2  0  0  0  0
  3 10  1  0  0  0  0
  4 20  2  0  0  0  0
  5  1  1  0  0  0  0
  7 15  1  1  0  0  0
  7  9  1  0  0  0  0
  8  6  1  1  0  0  0
  8 12  1  0  0  0  0
  9 22  1  0  0  0  0
  9 14  1  1  0  0  0
 10 21  2  0  0  0  0
 11 28  1  6  0  0  0
 11  8  1  0  0  0  0
 11  5  1  0  0  0  0
 12 27  1  0  0  0  0
 12  4  1  1  0  0  0
 13 18  1  0  0  0  0
 15 23  1  0  0  0  0
 16  2  1  0  0  0  0
 17  3  1  0  0  0  0
 18 25  2  0  0  0  0
 19 26  1  0  0  0  0
 20 17  1  0  0  0  0
 22 20  1  6  0  0  0
 22 10  1  0  0  0  0
 23 14  1  0  0  0  0
 26 17  2  0  0  0  0
 26 25  1  0  0  0  0
 27  7  1  0  0  0  0
 27 24  1  1  0  0  0
 29 30  1  0  0  0  0
 30 28  1  0  0  0  0
M  END
>  <MODEL>
4

>  <REMARK>
 VINA RESULT:      -8.1      2.510      5.695
  Name = 
  2 active torsions:
  status: ('A' for Active; 'I' for Inactive)
    1  A    between atoms: C_11  and  C_28
    2  A    between atoms: C_28  and  C_30
                            x       y       z     vdW  Elec       q    Type
                         _______ _______ _______ _____ _____    ______ ____

>  <TORSDO>
F 2

$$$$
=
 OpenBabel11112416223D

 30 35  0  0  1  0  0  0  0  0999 V2000
  187.8040  175.8070  141.3780 C   0  0  0  0  0  0  0  0  0  0  0  0
  189.5220  174.1500  140.6790 C   0  0  0  0  0  0  0  0  0  0  0  0
  188.9410  175.4420  145.4080 N   0  0  0  0  0  2  0  0  0  0  0  0
  187.1390  176.5080  142.4110 C   0  0  0  0  0  0  0  0  0  0  0  0
  187.4130  176.0270  140.0560 O   0  0  0  0  0  0  0  0  0  0  0  0
  184.9100  178.6580  140.3470 O   0  0  0  0  0  1  0  0  0  0  0  0
  184.7950  177.7860  144.3350 C   0  0  1  0  0  3  0  0  0  0  0  0
  185.4840  177.4080  140.6010 C   0  0  1  0  0  3  0  0  0  0  0  0
  185.6780  176.9200  145.2380 C   0  0  2  0  0  3  0  0  0  0  0  0
  188.0530  176.3990  145.9760 C   0  0  0  0  0  0  0  0  0  0  0  0
  186.6840  177.1910  139.6790 C   0  0  2  0  0  3  0  0  0  0  0  0
  185.8480  177.2410  142.0920 C   0  0  2  0  0  3  0  0  0  0  0  0
  190.5500  173.2700  141.0280 C   0  0  0  0  0  3  0  0  0  0  0  0
  185.3900  177.2440  146.5820 O   0  0  0  0  0  0  0  0  0  0  0  0
  184.2490  178.8340  145.2410 C   0  0  0  0  0  2  0  0  0  0  0  0
  189.1780  174.2620  139.3360 O   0  0  0  0  0  1  0  0  0  0  0  0
  188.6270  175.4760  144.0250 C   0  0  0  0  0  0  0  0  0  0  0  0
  190.9350  173.1170  142.3590 C   0  0  0  0  0  3  0  0  0  0  0  0
  188.8560  174.8980  141.6800 C   0  0  0  0  0  0  0  0  0  0  0  0
  187.6020  176.3520  143.7280 C   0  0  0  0  0  0  0  0  0  0  0  0
  188.0640  176.6790  147.2030 O   0  0  0  0  0  0  0  0  0  0  0  0
  187.1780  177.0860  144.9650 C   0  0  1  0  0  3  0  0  0  0  0  0
  184.3120  178.1490  146.5800 C   0  0  0  0  0  2  0  0  0  0  0  0
  186.4460  179.4440  143.2300 C   0  0  0  0  0  1  0  0  0  0  0  0
  190.2950  173.8460  143.3590 C   0  0  0  0  0  3  0  0  0  0  0  0
  189.2620  174.7320  143.0330 C   0  0  0  0  0  0  0  0  0  0  0  0
  185.3930  178.3570  143.0370 C   0  0  2  0  0  3  0  0  0  0  0  0
  186.2660  177.1030  138.2140 C   0  0  0  0  0  2  0  0  0  0  0  0
  186.8660  176.1710  135.9980 C   0  0  0  0  0  1  0  0  0  0  0  0
  186.9670  175.9610  137.4930 C   0  0  0  0  0  2  0  0  0  0  0  0
  1 19  2  0  0  0  0
  1  4  1  0  0  0  0
  2 13  2  0  0  0  0
  2 19  1  0  0  0  0
  3 10  1  0  0  0  0
  4 20  2  0  0  0  0
  5  1  1  0  0  0  0
  7  9  1  0  0  0  0
  7 15  1  1  0  0  0
  8  6  1  1  0  0  0
  8 12  1  0  0  0  0
  9 14  1  1  0  0  0
 10 21  2  0  0  0  0
 11 28  1  6  0  0  0
 11  5  1  0  0  0  0
 11  8  1  0  0  0  0
 12  4  1  6  0  0  0
 12 27  1  0  0  0  0
 13 18  1  0  0  0  0
 15 23  1  0  0  0  0
 16  2  1  0  0  0  0
 17  3  1  0  0  0  0
 18 25  2  0  0  0  0
 19 26  1  0  0  0  0
 20 17  1  0  0  0  0
 22 20  1  6  0  0  0
 22  9  1  0  0  0  0
 22 10  1  0  0  0  0
 23 14  1  0  0  0  0
 26 25  1  0  0  0  0
 26 17  2  0  0  0  0
 27 24  1  1  0  0  0
 27  7  1  0  0  0  0
 29 30  1  0  0  0  0
 30 28  1  0  0  0  0
M  END
>  <MODEL>
5

>  <REMARK>
 VINA RESULT:      -8.0      2.012      7.350
  Name = 
  2 active torsions:
  status: ('A' for Active; 'I' for Inactive)
    1  A    between atoms: C_11  and  C_28
    2  A    between atoms: C_28  and  C_30
                            x       y       z     vdW  Elec       q    Type
                         _______ _______ _______ _____ _____    ______ ____

>  <TORSDO>
F 2

$$$$
=
 OpenBabel11112416223D

 30 35  0  0  1  0  0  0  0  0999 V2000
  187.6420  176.7270  143.9270 C   0  0  0  0  0  0  0  0  0  0  0  0
  185.9650  178.2390  142.8860 C   0  0  0  0  0  0  0  0  0  0  0  0
  188.4870  174.9360  140.2200 N   0  0  0  0  0  2  0  0  0  0  0  0
  188.5610  175.6590  143.8020 C   0  0  0  0  0  0  0  0  0  0  0  0
  187.4600  177.3150  145.1810 O   0  0  0  0  0  0  0  0  0  0  0  0
  189.9080  175.6100  147.2720 O   0  0  0  0  0  1  0  0  0  0  0  0
  190.1770  172.8340  144.2890 C   0  0  1  0  0  3  0  0  0  0  0  0
  188.8170  175.7040  146.4020 C   0  0  1  0  0  3  0  0  0  0  0  0
  189.6540  172.7960  142.8500 C   0  0  2  0  0  3  0  0  0  0  0  0
  189.5070  174.0350  140.6360 C   0  0  0  0  0  0  0  0  0  0  0  0
  188.4250  177.1710  146.2180 C   0  0  2  0  0  3  0  0  0  0  0  0
  189.0950  174.9950  145.0600 C   0  0  2  0  0  3  0  0  0  0  0  0
  185.2830  178.6660  141.7430 C   0  0  0  0  0  3  0  0  0  0  0  0
  190.3220  171.7590  142.1620 O   0  0  0  0  0  0  0  0  0  0  0  0
  191.4010  171.9850  144.2630 C   0  0  0  0  0  2  0  0  0  0  0  0
  185.6770  178.8610  144.0950 O   0  0  0  0  0  1  0  0  0  0  0  0
  188.1140  175.5950  141.4190 C   0  0  0  0  0  0  0  0  0  0  0  0
  185.5310  178.0770  140.5030 C   0  0  0  0  0  3  0  0  0  0  0  0
  186.9200  177.1980  142.7950 C   0  0  0  0  0  0  0  0  0  0  0  0
  188.8070  175.1380  142.5220 C   0  0  0  0  0  0  0  0  0  0  0  0
  190.1180  173.2920  139.8250 O   0  0  0  0  0  0  0  0  0  0  0  0
  189.8300  174.1240  142.1020 C   0  0  1  0  0  3  0  0  0  0  0  0
  191.1220  171.0750  143.0970 C   0  0  0  0  0  2  0  0  0  0  0  0
  191.5610  175.0180  144.4070 C   0  0  0  0  0  1  0  0  0  0  0  0
  186.4680  177.0520  140.3930 C   0  0  0  0  0  3  0  0  0  0  0  0
  187.1630  176.6090  141.5240 C   0  0  0  0  0  0  0  0  0  0  0  0
  190.4000  174.1990  144.9640 C   0  0  2  0  0  3  0  0  0  0  0  0
  187.9070  177.7880  147.5130 C   0  0  0  0  0  2  0  0  0  0  0  0
  185.9420  179.2920  147.6380 C   0  0  0  0  0  1  0  0  0  0  0  0
  186.3870  177.8490  147.5430 C   0  0  0  0  0  2  0  0  0  0  0  0
  1  5  1  0  0  0  0
  2 16  1  0  0  0  0
  3 10  1  0  0  0  0
  3 17  1  0  0  0  0
  4  1  1  0  0  0  0
  5 11  1  0  0  0  0
  7 15  1  6  0  0  0
  7 27  1  0  0  0  0
  8  6  1  1  0  0  0
  9 14  1  6  0  0  0
  9  7  1  0  0  0  0
 11  8  1  0  0  0  0
 11 28  1  1  0  0  0
 12  4  1  6  0  0  0
 12  8  1  0  0  0  0
 13  2  2  0  0  0  0
 14 23  1  0  0  0  0
 17 26  2  0  0  0  0
 17 20  1  0  0  0  0
 18 13  1  0  0  0  0
 19  2  1  0  0  0  0
 19  1  2  0  0  0  0
 20  4  2  0  0  0  0
 21 10  2  0  0  0  0
 22 10  1  6  0  0  0
 22 20  1  0  0  0  0
 22  9  1  0  0  0  0
 23 15  1  0  0  0  0
 25 18  2  0  0  0  0
 25 26  1  0  0  0  0
 26 19  1  0  0  0  0
 27 24  1  6  0  0  0
 27 12  1  0  0  0  0
 28 30  1  0  0  0  0
 30 29  1  0  0  0  0
M  END
>  <MODEL>
6

>  <REMARK>
 VINA RESULT:      -8.0      2.073      3.594
  Name = 
  2 active torsions:
  status: ('A' for Active; 'I' for Inactive)
    1  A    between atoms: C_11  and  C_28
    2  A    between atoms: C_28  and  C_30
                            x       y       z     vdW  Elec       q    Type
                         _______ _______ _______ _____ _____    ______ ____

>  <TORSDO>
F 2

$$$$
=
 OpenBabel11112416223D

 30 35  0  0  1  0  0  0  0  0999 V2000
  188.7280  176.5850  145.5670 C   0  0  0  0  0  0  0  0  0  0  0  0
  186.7550  177.9000  146.3160 C   0  0  0  0  0  0  0  0  0  0  0  0
  187.0570  176.0510  141.7480 N   0  0  0  0  0  2  0  0  0  0  0  0
  189.3720  175.8200  144.5670 C   0  0  0  0  0  0  0  0  0  0  0  0
  189.3740  176.7720  146.7910 O   0  0  0  0  0  0  0  0  0  0  0  0
  192.6100  175.1780  146.2870 O   0  0  0  0  0  1  0  0  0  0  0  0
  190.9610  173.4020  142.9990 C   0  0  1  0  0  3  0  0  0  0  0  0
  191.2140  175.2470  146.3290 C   0  0  1  0  0  3  0  0  0  0  0  0
  189.6470  173.6210  142.2450 C   0  0  2  0  0  3  0  0  0  0  0  0
  188.1200  175.3250  141.1400 C   0  0  0  0  0  0  0  0  0  0  0  0
  190.7790  176.5850  146.9280 C   0  0  2  0  0  3  0  0  0  0  0  0
  190.5880  174.9900  144.9420 C   0  0  2  0  0  3  0  0  0  0  0  0
  185.4990  178.4430  146.0310 C   0  0  0  0  0  3  0  0  0  0  0  0
  189.7400  172.9740  140.9940 O   0  0  0  0  0  0  0  0  0  0  0  0
  191.9020  172.8850  141.9660 C   0  0  0  0  0  2  0  0  0  0  0  0
  187.2900  178.1070  147.5820 O   0  0  0  0  0  1  0  0  0  0  0  0
  187.5200  176.2760  143.0690 C   0  0  0  0  0  0  0  0  0  0  0  0
  184.9140  178.2660  144.7770 C   0  0  0  0  0  3  0  0  0  0  0  0
  187.4480  177.1580  145.3290 C   0  0  0  0  0  0  0  0  0  0  0  0
  188.7590  175.7160  143.3080 C   0  0  0  0  0  0  0  0  0  0  0  0
  188.0880  174.9740  139.9320 O   0  0  0  0  0  0  0  0  0  0  0  0
  189.2960  175.1020  142.0500 C   0  0  1  0  0  3  0  0  0  0  0  0
  190.9580  172.2690  140.9690 C   0  0  0  0  0  2  0  0  0  0  0  0
  192.0850  175.7330  143.0150 C   0  0  0  0  0  1  0  0  0  0  0  0
  185.5810  177.5430  143.7920 C   0  0  0  0  0  3  0  0  0  0  0  0
  186.8390  176.9880  144.0550 C   0  0  0  0  0  0  0  0  0  0  0  0
  191.5470  174.5600  143.8280 C   0  0  2  0  0  3  0  0  0  0  0  0
  191.1900  176.7130  148.3920 C   0  0  0  0  0  2  0  0  0  0  0  0
  191.5690  178.2870  150.2670 C   0  0  0  0  0  1  0  0  0  0  0  0
  190.8310  178.0760  148.9630 C   0  0  0  0  0  2  0  0  0  0  0  0
  1  5  1  0  0  0  0
  2 16  1  0  0  0  0
  3 17  1  0  0  0  0
  4  1  2  0  0  0  0
  5 11  1  0  0  0  0
  7 15  1  6  0  0  0
  7 27  1  0  0  0  0
  8  6  1  6  0  0  0
  8 11  1  0  0  0  0
  9 14  1  6  0  0  0
  9  7  1  0  0  0  0
 10  3  1  0  0  0  0
 11 28  1  1  0  0  0
 12  4  1  6  0  0  0
 12  8  1  0  0  0  0
 13  2  1  0  0  0  0
 17 20  2  0  0  0  0
 17 26  1  0  0  0  0
 18 13  2  0  0  0  0
 19  1  1  0  0  0  0
 19  2  2  0  0  0  0
 20  4  1  0  0  0  0
 21 10  2  0  0  0  0
 22 10  1  6  0  0  0
 22  9  1  0  0  0  0
 22 20  1  0  0  0  0
 23 14  1  0  0  0  0
 23 15  1  0  0  0  0
 25 26  2  0  0  0  0
 25 18  1  0  0  0  0
 26 19  1  0  0  0  0
 27 24  1  6  0  0  0
 27 12  1  0  0  0  0
 28 30  1  0  0  0  0
 30 29  1  0  0  0  0
M  END
>  <MODEL>
7

>  <REMARK>
 VINA RESULT:      -7.9      1.497      1.972
  Name = 
  2 active torsions:
  status: ('A' for Active; 'I' for Inactive)
    1  A    between atoms: C_11  and  C_28
    2  A    between atoms: C_28  and  C_30
                            x       y       z     vdW  Elec       q    Type
                         _______ _______ _______ _____ _____    ______ ____

>  <TORSDO>
F 2

$$$$
=
 OpenBabel11112416223D

 30 35  0  0  1  0  0  0  0  0999 V2000
  190.1640  174.6900  143.5870 C   0  0  0  0  0  0  0  0  0  0  0  0
  192.2040  173.2770  143.7520 C   0  0  0  0  0  0  0  0  0  0  0  0
  191.0370  176.5630  147.2470 N   0  0  0  0  0  2  0  0  0  0  0  0
  189.3050  175.6590  144.1570 C   0  0  0  0  0  0  0  0  0  0  0  0
  189.8410  174.1570  142.3370 O   0  0  0  0  0  0  0  0  0  0  0  0
  186.8840  176.0460  141.3570 O   0  0  0  0  0  1  0  0  0  0  0  0
  186.6270  177.2200  145.2600 C   0  0  1  0  0  3  0  0  0  0  0  0
  187.6560  175.2190  142.1790 C   0  0  1  0  0  3  0  0  0  0  0  0
  187.5810  177.0970  146.4510 C   0  0  2  0  0  3  0  0  0  0  0  0
  189.9480  177.4790  147.2920 C   0  0  0  0  0  0  0  0  0  0  0  0
  188.9420  174.8210  141.4540 C   0  0  2  0  0  3  0  0  0  0  0  0
  187.9290  175.8730  143.5500 C   0  0  2  0  0  3  0  0  0  0  0  0
  193.3460  172.9010  144.4630 C   0  0  0  0  0  3  0  0  0  0  0  0
  187.1370  177.9700  147.4680 O   0  0  0  0  0  0  0  0  0  0  0  0
  185.8300  178.4460  145.5460 C   0  0  0  0  0  2  0  0  0  0  0  0
  191.9490  172.6520  142.5360 O   0  0  0  0  0  1  0  0  0  0  0  0
  190.8290  175.8580  146.0340 C   0  0  0  0  0  0  0  0  0  0  0  0
  193.6500  173.4940  145.6890 C   0  0  0  0  0  3  0  0  0  0  0  0
  191.3380  174.2700  144.2720 C   0  0  0  0  0  0  0  0  0  0  0  0
  189.6870  176.2570  145.3690 C   0  0  0  0  0  0  0  0  0  0  0  0
  189.8140  178.3160  148.2220 O   0  0  0  0  0  0  0  0  0  0  0  0
  189.0430  177.4000  146.0950 C   0  0  1  0  0  3  0  0  0  0  0  0
  185.9150  178.5260  147.0470 C   0  0  0  0  0  2  0  0  0  0  0  0
  188.0250  178.4200  143.4430 C   0  0  0  0  0  1  0  0  0  0  0  0
  192.8130  174.4740  146.2160 C   0  0  0  0  0  3  0  0  0  0  0  0
  191.6630  174.8660  145.5210 C   0  0  0  0  0  0  0  0  0  0  0  0
  187.2070  177.1930  143.8340 C   0  0  2  0  0  3  0  0  0  0  0  0
  188.6610  173.9510  140.2320 C   0  0  0  0  0  2  0  0  0  0  0  0
  189.9460  171.9650  139.4970 C   0  0  0  0  0  1  0  0  0  0  0  0
  188.9440  172.4820  140.5060 C   0  0  0  0  0  2  0  0  0  0  0  0
  1  4  2  0  0  0  0
  1 19  1  0  0  0  0
  2 19  2  0  0  0  0
  2 13  1  0  0  0  0
  3 10  1  0  0  0  0
  4 20  1  0  0  0  0
  5  1  1  0  0  0  0
  7 15  1  1  0  0  0
  7  9  1  0  0  0  0
  8  6  1  6  0  0  0
  8 12  1  0  0  0  0
  9 14  1  1  0  0  0
 10 21  2  0  0  0  0
 11 28  1  6  0  0  0
 11  8  1  0  0  0  0
 11  5  1  0  0  0  0
 12 27  1  0  0  0  0
 12  4  1  6  0  0  0
 13 18  2  0  0  0  0
 15 23  1  0  0  0  0
 16  2  1  0  0  0  0
 17  3  1  0  0  0  0
 18 25  1  0  0  0  0
 19 26  1  0  0  0  0
 20 17  2  0  0  0  0
 22 20  1  6  0  0  0
 22  9  1  0  0  0  0
 22 10  1  0  0  0  0
 23 14  1  0  0  0  0
 26 17  1  0  0  0  0
 26 25  2  0  0  0  0
 27 24  1  1  0  0  0
 27  7  1  0  0  0  0
 28 30  1  0  0  0  0
 29 30  1  0  0  0  0
M  END
>  <MODEL>
8

>  <REMARK>
 VINA RESULT:      -7.7      2.502      7.051
  Name = 
  2 active torsions:
  status: ('A' for Active; 'I' for Inactive)
    1  A    between atoms: C_11  and  C_28
    2  A    between atoms: C_28  and  C_30
                            x       y       z     vdW  Elec       q    Type
                         _______ _______ _______ _____ _____    ______ ____

>  <TORSDO>
F 2

$$$$
=
 OpenBabel11112416223D

 30 35  0  0  1  0  0  0  0  0999 V2000
  188.2230  175.8100  142.1040 C   0  0  0  0  0  0  0  0  0  0  0  0
  186.4480  177.5080  141.7120 C   0  0  0  0  0  0  0  0  0  0  0  0
  188.7510  177.1210  146.0630 N   0  0  0  0  0  2  0  0  0  0  0  0
  189.2020  175.2480  142.9560 C   0  0  0  0  0  0  0  0  0  0  0  0
  188.0620  175.2800  140.8220 O   0  0  0  0  0  0  0  0  0  0  0  0
  190.3570  172.4510  140.7880 O   0  0  0  0  0  1  0  0  0  0  0  0
  192.0450  174.0800  144.1310 C   0  0  1  0  0  3  0  0  0  0  0  0
  189.9850  173.7920  140.9330 C   0  0  1  0  0  3  0  0  0  0  0  0
  191.6210  175.2180  145.0640 C   0  0  2  0  0  3  0  0  0  0  0  0
  189.7440  176.1880  146.4740 C   0  0  0  0  0  0  0  0  0  0  0  0
  188.5330  173.9780  140.4900 C   0  0  2  0  0  3  0  0  0  0  0  0
  190.2340  174.3000  142.3690 C   0  0  2  0  0  3  0  0  0  0  0  0
  185.6770  178.5680  142.1960 C   0  0  0  0  0  3  0  0  0  0  0  0
  192.3910  175.1340  146.2450 O   0  0  0  0  0  0  0  0  0  0  0  0
  192.8490  173.1700  144.9950 C   0  0  0  0  0  2  0  0  0  0  0  0
  186.2400  177.0850  140.4040 O   0  0  0  0  0  1  0  0  0  0  0  0
  188.5040  176.7700  144.7110 C   0  0  0  0  0  0  0  0  0  0  0  0
  185.8440  179.0350  143.4990 C   0  0  0  0  0  3  0  0  0  0  0  0
  187.4130  176.8930  142.5470 C   0  0  0  0  0  0  0  0  0  0  0  0
  189.2920  175.7240  144.2750 C   0  0  0  0  0  0  0  0  0  0  0  0
  190.1950  176.1630  147.6490 O   0  0  0  0  0  0  0  0  0  0  0  0
  190.1260  175.2020  145.4060 C   0  0  1  0  0  3  0  0  0  0  0  0
  193.3410  174.1120  146.0610 C   0  0  0  0  0  2  0  0  0  0  0  0
  190.0200  172.4690  144.1310 C   0  0  0  0  0  1  0  0  0  0  0  0
  186.7860  178.4420  144.3370 C   0  0  0  0  0  3  0  0  0  0  0  0
  187.5700  177.3790  143.8740 C   0  0  0  0  0  0  0  0  0  0  0  0
  190.9660  173.3450  143.3160 C   0  0  2  0  0  3  0  0  0  0  0  0
  188.3550  173.7150  138.9980 C   0  0  0  0  0  2  0  0  0  0  0  0
  188.1510  174.8580  136.8090 C   0  0  0  0  0  1  0  0  0  0  0  0
  187.7790  174.9220  138.2750 C   0  0  0  0  0  2  0  0  0  0  0  0
  1 19  2  0  0  0  0
  1  4  1  0  0  0  0
  2 13  2  0  0  0  0
  2 19  1  0  0  0  0
  3 10  1  0  0  0  0
  4 20  2  0  0  0  0
  5  1  1  0  0  0  0
  7 15  1  1  0  0  0
  7  9  1  0  0  0  0
  8  6  1  1  0  0  0
  8 12  1  0  0  0  0
  9 22  1  0  0  0  0
  9 14  1  1  0  0  0
 10 21  2  0  0  0  0
 11 28  1  6  0  0  0
 11  5  1  0  0  0  0
 11  8  1  0  0  0  0
 12  4  1  1  0  0  0
 12 27  1  0  0  0  0
 13 18  1  0  0  0  0
 15 23  1  0  0  0  0
 16  2  1  0  0  0  0
 17  3  1  0  0  0  0
 18 25  2  0  0  0  0
 19 26  1  0  0  0  0
 20 17  1  0  0  0  0
 22 20  1  6  0  0  0
 22 10  1  0  0  0  0
 23 14  1  0  0  0  0
 26 25  1  0  0  0  0
 26 17  2  0  0  0  0
 27  7  1  0  0  0  0
 27 24  1  1  0  0  0
 29 30  1  0  0  0  0
 30 28  1  0  0  0  0
M  END
>  <MODEL>
9

>  <REMARK>
 VINA RESULT:      -7.6      2.042      5.734
  Name = 
  2 active torsions:
  status: ('A' for Active; 'I' for Inactive)
    1  A    between atoms: C_11  and  C_28
    2  A    between atoms: C_28  and  C_30
                            x       y       z     vdW  Elec       q    Type
                         _______ _______ _______ _____ _____    ______ ____

>  <TORSDO>
F 2

$$$$
