=
 OpenBabel11112416153D

 30 35  0  0  1  0  0  0  0  0999 V2000
  187.1120  177.0080  144.0780 C   0  0  1  0  0  3  0  0  0  0  0  0
  185.2750  178.3420  145.2350 C   0  0  0  0  0  0  0  0  0  0  0  0
  189.5610  177.4190  147.6380 C   0  0  0  0  0  2  0  0  0  0  0  0
  188.3890  176.1650  144.2950 C   0  0  1  0  0  3  0  0  0  0  0  0
  186.1720  176.2560  143.3480 O   0  0  0  0  0  0  0  0  0  0  0  0
  188.6020  175.1620  140.6550 C   0  0  0  0  0  1  0  0  0  0  0  0
  191.4920  176.0630  143.2800 C   0  0  1  0  0  3  0  0  0  0  0  0
  188.0530  175.3230  142.0720 C   0  0  2  0  0  3  0  0  0  0  0  0
  191.7020  176.5950  144.7100 C   0  0  2  0  0  3  0  0  0  0  0  0
  190.7870  176.7910  147.0760 C   0  0  0  0  0  0  0  0  0  0  0  0
  186.6920  176.0620  142.0450 C   0  0  2  0  0  3  0  0  0  0  0  0
  189.0200  175.9930  142.9690 N   0  0  2  0  0  0  0  0  0  0  0  0
  184.7700  179.0170  146.3490 C   0  0  0  0  0  3  0  0  0  0  0  0
  193.0440  176.0380  145.1530 C   0  0  0  0  0  2  0  0  0  0  0  0
  192.7630  175.3380  142.8770 C   0  0  0  0  0  2  0  0  0  0  0  0
  184.5450  178.3610  144.0520 O   0  0  0  0  0  1  0  0  0  0  0  0
  188.5300  176.9650  146.6240 C   0  0  2  0  0  3  0  0  0  0  0  0
  185.4880  179.0410  147.5460 C   0  0  0  0  0  3  0  0  0  0  0  0
  186.5090  177.6620  145.3150 C   0  0  0  0  0  0  0  0  0  0  0  0
  189.2750  176.8970  145.3050 C   0  0  1  0  0  3  0  0  0  0  0  0
  191.8220  176.6850  147.7140 O   0  0  0  0  0  0  0  0  0  0  0  0
  190.5870  176.2310  145.6980 C   0  0  1  0  0  3  0  0  0  0  0  0
  193.8100  175.7540  143.8830 C   0  0  0  0  0  2  0  0  0  0  0  0
  190.1620  173.9000  143.8400 C   0  0  0  0  0  1  0  0  0  0  0  0
  186.7230  178.4010  147.6290 C   0  0  0  0  0  3  0  0  0  0  0  0
  187.2550  177.7420  146.5140 C   0  0  0  0  0  0  0  0  0  0  0  0
  190.2550  175.1900  143.0170 C   0  0  2  0  0  3  0  0  0  0  0  0
  186.7160  177.3680  141.2410 C   0  0  0  0  0  2  0  0  0  0  0  0
  184.8500  178.2910  140.5170 C   0  0  0  0  0  1  0  0  0  0  0  0
  185.7840  177.3050  140.2050 O   0  0  0  0  0  0  0  0  0  0  0  0
  1  5  1  1  0  0  0
  1  4  1  0  0  0  0
  1 19  1  0  0  0  0
  2 19  2  0  0  0  0
  2 13  1  0  0  0  0
  4 20  1  0  0  0  0
  6  8  1  0  0  0  0
  7  9  1  0  0  0  0
  8 12  1  0  0  0  0
  9 14  1  0  0  0  0
  9 22  1  0  0  0  0
 10  3  1  0  0  0  0
 10 21  2  0  0  0  0
 11  8  1  0  0  0  0
 11  5  1  0  0  0  0
 12 27  1  0  0  0  0
 12  4  1  0  0  0  0
 13 18  2  0  0  0  0
 15  7  1  0  0  0  0
 15 23  1  0  0  0  0
 16  2  1  0  0  0  0
 17  3  1  0  0  0  0
 18 25  1  0  0  0  0
 19 26  1  0  0  0  0
 20 22  1  0  0  0  0
 20 17  1  0  0  0  0
 22 10  1  0  0  0  0
 23 14  1  0  0  0  0
 26 17  1  0  0  0  0
 26 25  2  0  0  0  0
 27  7  1  0  0  0  0
 27 24  1  0  0  0  0
 28 11  1  0  0  0  0
 30 29  1  0  0  0  0
 30 28  1  0  0  0  0
M  END
>  <MODEL>
1

>  <REMARK>
 VINA RESULT:      -8.5      0.000      0.000
  Name = 
  2 active torsions:
  status: ('A' for Active; 'I' for Inactive)
    1  A    between atoms: C_11  and  C_28
    2  A    between atoms: C_28  and  O_30
                            x       y       z     vdW  Elec       q    Type
                         _______ _______ _______ _____ _____    ______ ____

>  <TORSDO>
F 2

$$$$
=
 OpenBabel11112416153D

 30 35  0  0  1  0  0  0  0  0999 V2000
  187.4440  176.6040  143.8500 C   0  0  1  0  0  3  0  0  0  0  0  0
  185.8350  178.2980  144.8660 C   0  0  0  0  0  0  0  0  0  0  0  0
  189.5420  176.4190  147.6440 C   0  0  0  0  0  2  0  0  0  0  0  0
  188.4750  175.4960  144.1610 C   0  0  1  0  0  3  0  0  0  0  0  0
  186.4420  176.0870  143.0060 O   0  0  0  0  0  0  0  0  0  0  0  0
  188.8380  174.5130  140.5280 C   0  0  0  0  0  1  0  0  0  0  0  0
  191.5680  174.7200  143.4530 C   0  0  1  0  0  3  0  0  0  0  0  0
  188.1940  174.7760  141.8890 C   0  0  2  0  0  3  0  0  0  0  0  0
  191.7410  175.1760  144.9140 C   0  0  2  0  0  3  0  0  0  0  0  0
  190.6520  175.5420  147.1840 C   0  0  0  0  0  0  0  0  0  0  0  0
  187.0380  175.7990  141.7540 C   0  0  2  0  0  3  0  0  0  0  0  0
  189.1860  175.2040  142.8990 N   0  0  2  0  0  0  0  0  0  0  0  0
  185.3770  179.0550  145.9480 C   0  0  0  0  0  3  0  0  0  0  0  0
  192.8750  174.3300  145.4670 C   0  0  0  0  0  2  0  0  0  0  0  0
  192.6830  173.7370  143.1510 C   0  0  0  0  0  2  0  0  0  0  0  0
  185.2530  178.4930  143.6190 O   0  0  0  0  0  1  0  0  0  0  0  0
  188.5470  176.2170  146.5200 C   0  0  2  0  0  3  0  0  0  0  0  0
  185.9560  178.9050  147.2090 C   0  0  0  0  0  3  0  0  0  0  0  0
  186.8740  177.3610  145.0430 C   0  0  0  0  0  0  0  0  0  0  0  0
  189.3910  176.0010  145.2780 C   0  0  1  0  0  3  0  0  0  0  0  0
  191.5670  175.2010  147.9160 O   0  0  0  0  0  0  0  0  0  0  0  0
  190.4770  175.0570  145.7740 C   0  0  1  0  0  3  0  0  0  0  0  0
  193.6870  173.8970  144.2690 C   0  0  0  0  0  2  0  0  0  0  0  0
  189.7450  172.9000  143.8050 C   0  0  0  0  0  1  0  0  0  0  0  0
  187.0060  178.0060  147.3910 C   0  0  0  0  0  3  0  0  0  0  0  0
  187.4920  177.2590  146.3110 C   0  0  0  0  0  0  0  0  0  0  0  0
  190.2040  174.1470  143.0400 C   0  0  2  0  0  3  0  0  0  0  0  0
  187.4310  177.0760  141.0010 C   0  0  0  0  0  2  0  0  0  0  0  0
  185.5690  177.9580  140.2180 C   0  0  0  0  0  1  0  0  0  0  0  0
  186.6710  177.1940  139.8380 O   0  0  0  0  0  0  0  0  0  0  0  0
  1  5  1  1  0  0  0
  1  4  1  0  0  0  0
  1 19  1  0  0  0  0
  2 19  2  0  0  0  0
  2 13  1  0  0  0  0
  4 20  1  0  0  0  0
  6  8  1  0  0  0  0
  7  9  1  0  0  0  0
  8 12  1  0  0  0  0
  9 14  1  0  0  0  0
  9 22  1  0  0  0  0
 10  3  1  0  0  0  0
 10 21  2  0  0  0  0
 11  8  1  0  0  0  0
 11  5  1  0  0  0  0
 12 27  1  0  0  0  0
 12  4  1  0  0  0  0
 13 18  2  0  0  0  0
 15  7  1  0  0  0  0
 15 23  1  0  0  0  0
 16  2  1  0  0  0  0
 17  3  1  0  0  0  0
 18 25  1  0  0  0  0
 19 26  1  0  0  0  0
 20 22  1  0  0  0  0
 20 17  1  0  0  0  0
 22 10  1  0  0  0  0
 23 14  1  0  0  0  0
 26 17  1  0  0  0  0
 26 25  2  0  0  0  0
 27  7  1  0  0  0  0
 27 24  1  0  0  0  0
 28 11  1  0  0  0  0
 30 29  1  0  0  0  0
 30 28  1  0  0  0  0
M  END
>  <MODEL>
2

>  <REMARK>
 VINA RESULT:      -8.2      1.013      1.020
  Name = 
  2 active torsions:
  status: ('A' for Active; 'I' for Inactive)
    1  A    between atoms: C_11  and  C_28
    2  A    between atoms: C_28  and  O_30
                            x       y       z     vdW  Elec       q    Type
                         _______ _______ _______ _____ _____    ______ ____

>  <TORSDO>
F 2

$$$$
=
 OpenBabel11112416153D

 30 35  0  0  1  0  0  0  0  0999 V2000
  187.9390  175.7280  142.8710 C   0  0  1  0  0  3  0  0  0  0  0  0
  186.2060  177.5730  142.5820 C   0  0  0  0  0  0  0  0  0  0  0  0
  189.0560  177.4640  146.6880 C   0  0  0  0  0  2  0  0  0  0  0  0
  188.8190  174.9680  143.8890 C   0  0  1  0  0  3  0  0  0  0  0  0
  187.1490  174.8080  142.1550 O   0  0  0  0  0  0  0  0  0  0  0  0
  190.0010  172.4590  141.3200 C   0  0  0  0  0  1  0  0  0  0  0  0
  191.9560  174.1900  144.3590 C   0  0  1  0  0  3  0  0  0  0  0  0
  189.0620  173.2670  142.2130 C   0  0  2  0  0  3  0  0  0  0  0  0
  191.7910  175.2770  145.4380 C   0  0  2  0  0  3  0  0  0  0  0  0
  190.2050  176.5600  146.9580 C   0  0  0  0  0  0  0  0  0  0  0  0
  188.0160  174.0230  141.3560 C   0  0  2  0  0  3  0  0  0  0  0  0
  189.7990  174.1840  143.1090 N   0  0  2  0  0  0  0  0  0  0  0  0
  185.5340  178.7050  143.0510 C   0  0  0  0  0  3  0  0  0  0  0  0
  192.7230  174.8670  146.5660 C   0  0  0  0  0  2  0  0  0  0  0  0
  193.0680  173.2650  144.8160 C   0  0  0  0  0  2  0  0  0  0  0  0
  185.9490  177.1300  141.2900 O   0  0  0  0  0  1  0  0  0  0  0  0
  188.3520  176.6950  145.5890 C   0  0  2  0  0  3  0  0  0  0  0  0
  185.7860  179.1950  144.3330 C   0  0  0  0  0  3  0  0  0  0  0  0
  187.1320  176.9030  143.4080 C   0  0  0  0  0  0  0  0  0  0  0  0
  189.4600  175.9970  144.8230 C   0  0  1  0  0  3  0  0  0  0  0  0
  190.9030  176.6640  147.9540 O   0  0  0  0  0  0  0  0  0  0  0  0
  190.3540  175.4710  145.9360 C   0  0  1  0  0  3  0  0  0  0  0  0
  193.7800  173.9960  145.9300 C   0  0  0  0  0  2  0  0  0  0  0  0
  190.0260  172.6030  145.0810 C   0  0  0  0  0  1  0  0  0  0  0  0
  186.7230  178.5620  145.1490 C   0  0  0  0  0  3  0  0  0  0  0  0
  187.4230  177.4420  144.6840 C   0  0  0  0  0  0  0  0  0  0  0  0
  190.7070  173.3900  143.9550 C   0  0  2  0  0  3  0  0  0  0  0  0
  188.6310  174.8390  140.2120 C   0  0  0  0  0  2  0  0  0  0  0  0
  188.3240  173.8220  138.2800 C   0  0  0  0  0  1  0  0  0  0  0  0
  187.7870  174.8110  139.1020 O   0  0  0  0  0  0  0  0  0  0  0  0
  1  5  1  1  0  0  0
  1 19  1  0  0  0  0
  1  4  1  0  0  0  0
  2 13  2  0  0  0  0
  2 19  1  0  0  0  0
  3 10  1  0  0  0  0
  4 20  1  0  0  0  0
  6  8  1  0  0  0  0
  7 15  1  0  0  0  0
  7  9  1  0  0  0  0
  8 12  1  0  0  0  0
  9 22  1  0  0  0  0
  9 14  1  0  0  0  0
 10 21  2  0  0  0  0
 11  5  1  0  0  0  0
 11  8  1  0  0  0  0
 12  4  1  0  0  0  0
 12 27  1  0  0  0  0
 13 18  1  0  0  0  0
 15 23  1  0  0  0  0
 16  2  1  0  0  0  0
 17  3  1  0  0  0  0
 18 25  2  0  0  0  0
 19 26  2  0  0  0  0
 20 17  1  0  0  0  0
 20 22  1  0  0  0  0
 22 10  1  0  0  0  0
 23 14  1  0  0  0  0
 26 25  1  0  0  0  0
 26 17  1  0  0  0  0
 27  7  1  0  0  0  0
 27 24  1  0  0  0  0
 28 11  1  0  0  0  0
 29 30  1  0  0  0  0
 30 28  1  0  0  0  0
M  END
>  <MODEL>
3

>  <REMARK>
 VINA RESULT:      -8.0      1.710      2.515
  Name = 
  2 active torsions:
  status: ('A' for Active; 'I' for Inactive)
    1  A    between atoms: C_11  and  C_28
    2  A    between atoms: C_28  and  O_30
                            x       y       z     vdW  Elec       q    Type
                         _______ _______ _______ _____ _____    ______ ____

>  <TORSDO>
F 2

$$$$
=
 OpenBabel11112416153D

 30 35  0  0  1  0  0  0  0  0999 V2000
  187.3690  176.8610  143.9730 C   0  0  1  0  0  3  0  0  0  0  0  0
  185.4360  178.2150  143.0110 C   0  0  0  0  0  0  0  0  0  0  0  0
  188.0350  175.1430  140.0430 C   0  0  0  0  0  2  0  0  0  0  0  0
  188.6540  176.0740  143.6310 C   0  0  1  0  0  3  0  0  0  0  0  0
  187.6700  177.8680  144.9100 O   0  0  0  0  0  0  0  0  0  0  0  0
  189.5890  175.6020  147.2650 C   0  0  0  0  0  1  0  0  0  0  0  0
  189.9630  173.1250  144.1380 C   0  0  1  0  0  3  0  0  0  0  0  0
  189.2490  176.2960  145.9450 C   0  0  2  0  0  3  0  0  0  0  0  0
  189.5860  172.9910  142.6510 C   0  0  2  0  0  3  0  0  0  0  0  0
  189.0880  174.1770  140.4550 C   0  0  0  0  0  0  0  0  0  0  0  0
  188.0290  177.2340  146.1250 C   0  0  2  0  0  3  0  0  0  0  0  0
  189.0380  175.3280  144.8480 N   0  0  2  0  0  0  0  0  0  0  0  0
  184.6380  178.6150  141.9360 C   0  0  0  0  0  3  0  0  0  0  0  0
  190.6400  172.0770  142.0500 C   0  0  0  0  0  2  0  0  0  0  0  0
  191.1250  172.1840  144.3950 C   0  0  0  0  0  2  0  0  0  0  0  0
  185.1050  178.6490  144.2890 O   0  0  0  0  0  1  0  0  0  0  0  0
  188.0210  176.0640  141.2460 C   0  0  2  0  0  3  0  0  0  0  0  0
  184.9250  178.1760  140.6430 C   0  0  0  0  0  3  0  0  0  0  0  0
  186.5520  177.3790  142.7960 C   0  0  0  0  0  0  0  0  0  0  0  0
  188.3550  175.1750  142.4290 C   0  0  1  0  0  3  0  0  0  0  0  0
  189.6090  173.4000  139.6710 O   0  0  0  0  0  0  0  0  0  0  0  0
  189.4950  174.3210  141.8920 C   0  0  1  0  0  3  0  0  0  0  0  0
  191.1810  171.2620  143.2000 C   0  0  0  0  0  2  0  0  0  0  0  0
  191.4280  175.2690  143.9970 C   0  0  0  0  0  1  0  0  0  0  0  0
  186.0050  177.3240  140.4190 C   0  0  0  0  0  3  0  0  0  0  0  0
  186.7990  176.8940  141.4900 C   0  0  0  0  0  0  0  0  0  0  0  0
  190.2660  174.5320  144.6740 C   0  0  2  0  0  3  0  0  0  0  0  0
  186.8260  176.5580  146.7930 C   0  0  0  0  0  2  0  0  0  0  0  0
  186.5540  178.4060  147.9630 C   0  0  0  0  0  1  0  0  0  0  0  0
  185.8730  177.5170  147.1340 O   0  0  0  0  0  0  0  0  0  0  0  0
  1 19  1  6  0  0  0
  1  5  1  0  0  0  0
  2 16  1  0  0  0  0
  3 10  1  0  0  0  0
  3 17  1  0  0  0  0
  4  1  1  0  0  0  0
  4 12  1  0  0  0  0
  5 11  1  0  0  0  0
  7 15  1  0  0  0  0
  7 27  1  0  0  0  0
  8 11  1  0  0  0  0
  8  6  1  0  0  0  0
  9  7  1  0  0  0  0
 10 22  1  0  0  0  0
 11 28  1  0  0  0  0
 12  8  1  0  0  0  0
 13  2  2  0  0  0  0
 14  9  1  0  0  0  0
 14 23  1  0  0  0  0
 17 26  1  0  0  0  0
 17 20  1  0  0  0  0
 18 13  1  0  0  0  0
 19  2  1  0  0  0  0
 20  4  1  0  0  0  0
 21 10  2  0  0  0  0
 22 20  1  0  0  0  0
 22  9  1  0  0  0  0
 23 15  1  0  0  0  0
 24 27  1  0  0  0  0
 25 18  2  0  0  0  0
 25 26  1  0  0  0  0
 26 19  2  0  0  0  0
 27 12  1  0  0  0  0
 28 30  1  0  0  0  0
 30 29  1  0  0  0  0
M  END
>  <MODEL>
4

>  <REMARK>
 VINA RESULT:      -7.6      1.887      5.053
  Name = 
  2 active torsions:
  status: ('A' for Active; 'I' for Inactive)
    1  A    between atoms: C_11  and  C_28
    2  A    between atoms: C_28  and  O_30
                            x       y       z     vdW  Elec       q    Type
                         _______ _______ _______ _____ _____    ______ ____

>  <TORSDO>
F 2

$$$$
=
 OpenBabel11112416153D

 30 35  0  0  1  0  0  0  0  0999 V2000
  187.0280  176.5430  143.6580 C   0  0  1  0  0  3  0  0  0  0  0  0
  185.0390  177.5410  142.4170 C   0  0  0  0  0  0  0  0  0  0  0  0
  186.0440  179.0130  147.0880 C   0  0  0  0  0  2  0  0  0  0  0  0
  187.6590  176.3010  145.0480 C   0  0  1  0  0  3  0  0  0  0  0  0
  186.8910  175.3140  142.9850 O   0  0  0  0  0  0  0  0  0  0  0  0
  190.4340  174.1460  143.6520 C   0  0  0  0  0  1  0  0  0  0  0  0
  190.4710  176.8380  146.6190 C   0  0  1  0  0  3  0  0  0  0  0  0
  189.0270  174.6350  143.9930 C   0  0  2  0  0  3  0  0  0  0  0  0
  189.5860  177.9000  147.2980 C   0  0  2  0  0  3  0  0  0  0  0  0
  187.2330  178.6530  147.9050 C   0  0  0  0  0  0  0  0  0  0  0  0
  188.1920  174.8290  142.7020 C   0  0  2  0  0  3  0  0  0  0  0  0
  189.0510  175.8630  144.8170 N   0  0  2  0  0  0  0  0  0  0  0  0
  183.9220  178.3790  142.3690 C   0  0  0  0  0  3  0  0  0  0  0  0
  190.1120  178.0130  148.7190 C   0  0  0  0  0  2  0  0  0  0  0  0
  191.5660  176.4670  147.6020 C   0  0  0  0  0  2  0  0  0  0  0  0
  185.4330  176.8830  141.2570 O   0  0  0  0  0  1  0  0  0  0  0  0
  186.0780  177.9090  146.0510 C   0  0  2  0  0  3  0  0  0  0  0  0
  183.5130  179.0760  143.5070 C   0  0  0  0  0  3  0  0  0  0  0  0
  185.7530  177.3770  143.6220 C   0  0  0  0  0  0  0  0  0  0  0  0
  187.5490  177.6000  145.8500 C   0  0  1  0  0  3  0  0  0  0  0  0
  187.4410  179.1320  149.0080 O   0  0  0  0  0  0  0  0  0  0  0  0
  188.0850  177.5900  147.2750 C   0  0  1  0  0  3  0  0  0  0  0  0
  191.5450  177.5410  148.6650 C   0  0  0  0  0  2  0  0  0  0  0  0
  189.0180  174.7340  147.0890 C   0  0  0  0  0  1  0  0  0  0  0  0
  184.2290  178.9490  144.6960 C   0  0  0  0  0  3  0  0  0  0  0  0
  185.3660  178.1320  144.7530 C   0  0  0  0  0  0  0  0  0  0  0  0
  189.7820  175.5810  146.0660 C   0  0  2  0  0  3  0  0  0  0  0  0
  188.8960  175.6750  141.6350 C   0  0  0  0  0  2  0  0  0  0  0  0
  188.5660  174.1900  140.0400 C   0  0  0  0  0  1  0  0  0  0  0  0
  188.2680  175.5020  140.4020 O   0  0  0  0  0  0  0  0  0  0  0  0
  1  5  1  1  0  0  0
  1  4  1  0  0  0  0
  2 19  1  0  0  0  0
  3 10  1  0  0  0  0
  4 20  1  0  0  0  0
  6  8  1  0  0  0  0
  7  9  1  0  0  0  0
  7 15  1  0  0  0  0
  8 12  1  0  0  0  0
  9 14  1  0  0  0  0
 10 21  2  0  0  0  0
 11  5  1  0  0  0  0
 11  8  1  0  0  0  0
 12  4  1  0  0  0  0
 12 27  1  0  0  0  0
 13  2  2  0  0  0  0
 13 18  1  0  0  0  0
 15 23  1  0  0  0  0
 16  2  1  0  0  0  0
 17  3  1  0  0  0  0
 18 25  2  0  0  0  0
 19  1  1  0  0  0  0
 19 26  2  0  0  0  0
 20 17  1  0  0  0  0
 20 22  1  0  0  0  0
 22  9  1  0  0  0  0
 22 10  1  0  0  0  0
 23 14  1  0  0  0  0
 25 26  1  0  0  0  0
 26 17  1  0  0  0  0
 27  7  1  0  0  0  0
 27 24  1  0  0  0  0
 28 11  1  0  0  0  0
 29 30  1  0  0  0  0
 30 28  1  0  0  0  0
M  END
>  <MODEL>
5

>  <REMARK>
 VINA RESULT:      -7.5      1.921      3.508
  Name = 
  2 active torsions:
  status: ('A' for Active; 'I' for Inactive)
    1  A    between atoms: C_11  and  C_28
    2  A    between atoms: C_28  and  O_30
                            x       y       z     vdW  Elec       q    Type
                         _______ _______ _______ _____ _____    ______ ____

>  <TORSDO>
F 2

$$$$
=
 OpenBabel11112416153D

 30 35  0  0  1  0  0  0  0  0999 V2000
  191.4050  174.8660  143.8520 C   0  0  1  0  0  3  0  0  0  0  0  0
  193.7850  174.0580  144.2700 C   0  0  0  0  0  0  0  0  0  0  0  0
  191.6050  177.1540  147.5340 C   0  0  0  0  0  2  0  0  0  0  0  0
  190.3580  175.9470  144.2010 C   0  0  1  0  0  3  0  0  0  0  0  0
  191.5840  174.8190  142.4560 O   0  0  0  0  0  0  0  0  0  0  0  0
  187.8890  174.6930  141.6270 C   0  0  0  0  0  1  0  0  0  0  0  0
  187.2910  176.1610  145.3070 C   0  0  1  0  0  3  0  0  0  0  0  0
  189.1760  175.2530  142.2310 C   0  0  2  0  0  3  0  0  0  0  0  0
  188.0550  176.6130  146.5650 C   0  0  2  0  0  3  0  0  0  0  0  0
  190.1890  177.6080  147.5310 C   0  0  0  0  0  0  0  0  0  0  0  0
  190.3800  174.3420  141.8820 C   0  0  2  0  0  3  0  0  0  0  0  0
  189.0570  175.4660  143.6900 N   0  0  2  0  0  0  0  0  0  0  0  0
  194.9600  174.0520  145.0260 C   0  0  0  0  0  3  0  0  0  0  0  0
  187.1420  177.6160  147.2510 C   0  0  0  0  0  2  0  0  0  0  0  0
  185.9130  176.7920  145.3630 C   0  0  0  0  0  2  0  0  0  0  0  0
  193.6820  173.1940  143.1850 O   0  0  0  0  0  1  0  0  0  0  0  0
  191.7480  176.6900  146.0990 C   0  0  2  0  0  3  0  0  0  0  0  0
  195.0890  174.8860  146.1370 C   0  0  0  0  0  3  0  0  0  0  0  0
  192.7240  174.9230  144.6120 C   0  0  0  0  0  0  0  0  0  0  0  0
  190.3810  176.1580  145.7170 C   0  0  1  0  0  3  0  0  0  0  0  0
  189.7180  178.2970  148.4220 O   0  0  0  0  0  0  0  0  0  0  0  0
  189.4420  177.2090  146.2920 C   0  0  1  0  0  3  0  0  0  0  0  0
  185.7450  177.2870  146.7810 C   0  0  0  0  0  2  0  0  0  0  0  0
  188.2580  177.8740  143.6050 C   0  0  0  0  0  1  0  0  0  0  0  0
  194.0360  175.7220  146.5060 C   0  0  0  0  0  3  0  0  0  0  0  0
  192.8430  175.7210  145.7730 C   0  0  0  0  0  0  0  0  0  0  0  0
  187.9530  176.4090  143.9420 C   0  0  2  0  0  3  0  0  0  0  0  0
  190.1440  172.8610  142.2000 C   0  0  0  0  0  2  0  0  0  0  0  0
  190.3350  172.0460  140.1620 C   0  0  0  0  0  1  0  0  0  0  0  0
  190.9680  172.0680  141.4030 O   0  0  0  0  0  0  0  0  0  0  0  0
  1  5  1  6  0  0  0
  1  4  1  0  0  0  0
  1 19  1  0  0  0  0
  2 19  2  0  0  0  0
  2 13  1  0  0  0  0
  4 20  1  0  0  0  0
  6  8  1  0  0  0  0
  7 15  1  0  0  0  0
  7  9  1  0  0  0  0
  8 12  1  0  0  0  0
  9 14  1  0  0  0  0
 10  3  1  0  0  0  0
 10 21  2  0  0  0  0
 11 28  1  0  0  0  0
 11  8  1  0  0  0  0
 11  5  1  0  0  0  0
 12 27  1  0  0  0  0
 12  4  1  0  0  0  0
 13 18  2  0  0  0  0
 15 23  1  0  0  0  0
 16  2  1  0  0  0  0
 17  3  1  0  0  0  0
 18 25  1  0  0  0  0
 19 26  1  0  0  0  0
 20 17  1  0  0  0  0
 20 22  1  0  0  0  0
 22  9  1  0  0  0  0
 22 10  1  0  0  0  0
 23 14  1  0  0  0  0
 24 27  1  0  0  0  0
 26 17  1  0  0  0  0
 26 25  2  0  0  0  0
 27  7  1  0  0  0  0
 29 30  1  0  0  0  0
 30 28  1  0  0  0  0
M  END
>  <MODEL>
6

>  <REMARK>
 VINA RESULT:      -7.4      2.570      6.035
  Name = 
  2 active torsions:
  status: ('A' for Active; 'I' for Inactive)
    1  A    between atoms: C_11  and  C_28
    2  A    between atoms: C_28  and  O_30
                            x       y       z     vdW  Elec       q    Type
                         _______ _______ _______ _____ _____    ______ ____

>  <TORSDO>
F 2

$$$$
=
 OpenBabel11112416153D

 30 35  0  0  1  0  0  0  0  0999 V2000
  191.2140  175.1990  144.4190 C   0  0  1  0  0  3  0  0  0  0  0  0
  192.3880  174.2480  142.3680 C   0  0  0  0  0  0  0  0  0  0  0  0
  187.5390  175.4400  142.1240 C   0  0  0  0  0  2  0  0  0  0  0  0
  189.8440  175.4450  145.0910 C   0  0  1  0  0  3  0  0  0  0  0  0
  192.0390  174.4630  145.2910 O   0  0  0  0  0  0  0  0  0  0  0  0
  191.4030  176.6510  148.3180 C   0  0  0  0  0  1  0  0  0  0  0  0
  188.1240  177.9020  146.3840 C   0  0  1  0  0  3  0  0  0  0  0  0
  191.0510  175.7370  147.1450 C   0  0  2  0  0  3  0  0  0  0  0  0
  187.3490  177.7050  145.0680 C   0  0  2  0  0  3  0  0  0  0  0  0
  186.7330  176.1350  143.1630 C   0  0  0  0  0  0  0  0  0  0  0  0
  192.3350  175.2870  146.4040 C   0  0  2  0  0  3  0  0  0  0  0  0
  190.0800  176.3660  146.2230 N   0  0  2  0  0  0  0  0  0  0  0  0
  192.3690  173.8050  141.0420 C   0  0  0  0  0  3  0  0  0  0  0  0
  185.9080  178.0600  145.3930 C   0  0  0  0  0  2  0  0  0  0  0  0
  187.1590  178.4970  147.3920 C   0  0  0  0  0  2  0  0  0  0  0  0
  193.6060  174.3160  143.0330 O   0  0  0  0  0  1  0  0  0  0  0  0
  188.7030  174.9510  142.9600 C   0  0  2  0  0  3  0  0  0  0  0  0
  191.1670  173.7490  140.3340 C   0  0  0  0  0  3  0  0  0  0  0  0
  191.1890  174.6240  143.0080 C   0  0  0  0  0  0  0  0  0  0  0  0
  188.8910  176.0060  144.0330 C   0  0  1  0  0  3  0  0  0  0  0  0
  185.5720  176.4670  142.9810 O   0  0  0  0  0  0  0  0  0  0  0  0
  187.4610  176.2990  144.4650 C   0  0  1  0  0  3  0  0  0  0  0  0
  185.9720  178.9780  146.5900 C   0  0  0  0  0  2  0  0  0  0  0  0
  187.9690  175.4800  147.3170 C   0  0  0  0  0  1  0  0  0  0  0  0
  189.9800  174.1490  140.9440 C   0  0  0  0  0  3  0  0  0  0  0  0
  189.9860  174.6180  142.2640 C   0  0  0  0  0  0  0  0  0  0  0  0
  188.8530  176.6850  146.9740 C   0  0  2  0  0  3  0  0  0  0  0  0
  193.2650  176.4460  146.0240 C   0  0  0  0  0  2  0  0  0  0  0  0
  195.1630  176.6900  144.9320 C   0  0  0  0  0  1  0  0  0  0  0  0
  194.5870  176.0040  145.9990 O   0  0  0  0  0  0  0  0  0  0  0  0
  1 19  1  6  0  0  0
  1  4  1  0  0  0  0
  1  5  1  0  0  0  0
  2 19  1  0  0  0  0
  2 16  1  0  0  0  0
  3 17  1  0  0  0  0
  3 10  1  0  0  0  0
  4 12  1  0  0  0  0
  5 11  1  0  0  0  0
  7 27  1  0  0  0  0
  7 15  1  0  0  0  0
  8  6  1  0  0  0  0
  9 14  1  0  0  0  0
  9  7  1  0  0  0  0
 10 22  1  0  0  0  0
 11  8  1  0  0  0  0
 12 27  1  0  0  0  0
 12  8  1  0  0  0  0
 13  2  2  0  0  0  0
 14 23  1  0  0  0  0
 17 20  1  0  0  0  0
 18 25  2  0  0  0  0
 18 13  1  0  0  0  0
 20 22  1  0  0  0  0
 20  4  1  0  0  0  0
 21 10  2  0  0  0  0
 22  9  1  0  0  0  0
 23 15  1  0  0  0  0
 25 26  1  0  0  0  0
 26 17  1  0  0  0  0
 26 19  2  0  0  0  0
 27 24  1  0  0  0  0
 28 11  1  0  0  0  0
 29 30  1  0  0  0  0
 30 28  1  0  0  0  0
M  END
>  <MODEL>
7

>  <REMARK>
 VINA RESULT:      -7.3      1.926      7.138
  Name = 
  2 active torsions:
  status: ('A' for Active; 'I' for Inactive)
    1  A    between atoms: C_11  and  C_28
    2  A    between atoms: C_28  and  O_30
                            x       y       z     vdW  Elec       q    Type
                         _______ _______ _______ _____ _____    ______ ____

>  <TORSDO>
F 2

$$$$
=
 OpenBabel11112416153D

 30 35  0  0  1  0  0  0  0  0999 V2000
  188.6160  176.2220  144.0850 C   0  0  1  0  0  3  0  0  0  0  0  0
  187.0710  178.0270  145.0060 C   0  0  0  0  0  0  0  0  0  0  0  0
  186.8160  176.7670  140.1750 C   0  0  0  0  0  2  0  0  0  0  0  0
  189.2480  175.6320  142.8040 C   0  0  1  0  0  3  0  0  0  0  0  0
  189.6350  176.5630  144.9960 O   0  0  0  0  0  0  0  0  0  0  0  0
  191.4690  173.2580  144.7350 C   0  0  0  0  0  1  0  0  0  0  0  0
  189.5180  172.7610  141.2710 C   0  0  1  0  0  3  0  0  0  0  0  0
  190.8460  174.5630  144.2410 C   0  0  2  0  0  3  0  0  0  0  0  0
  188.4990  173.4550  140.3490 C   0  0  2  0  0  3  0  0  0  0  0  0
  187.5270  175.6490  139.5010 C   0  0  0  0  0  0  0  0  0  0  0  0
  190.2490  175.3620  145.4270 C   0  0  2  0  0  3  0  0  0  0  0  0
  189.8440  174.3320  143.1790 N   0  0  2  0  0  0  0  0  0  0  0  0
  186.0740  178.9910  144.8310 C   0  0  0  0  0  3  0  0  0  0  0  0
  188.7790  172.9100  138.9580 C   0  0  0  0  0  2  0  0  0  0  0  0
  190.2610  171.7370  140.4340 C   0  0  0  0  0  2  0  0  0  0  0  0
  187.5190  177.7530  146.2930 O   0  0  0  0  0  1  0  0  0  0  0  0
  187.6620  176.9210  141.4220 C   0  0  2  0  0  3  0  0  0  0  0  0
  185.5820  179.2730  143.5560 C   0  0  0  0  0  3  0  0  0  0  0  0
  187.6010  177.3420  143.8930 C   0  0  0  0  0  0  0  0  0  0  0  0
  188.1510  175.5220  141.7420 C   0  0  1  0  0  3  0  0  0  0  0  0
  187.3360  175.3580  138.3310 O   0  0  0  0  0  0  0  0  0  0  0  0
  188.5530  174.9870  140.3750 C   0  0  1  0  0  3  0  0  0  0  0  0
  189.4520  171.5750  139.1690 C   0  0  0  0  0  2  0  0  0  0  0  0
  191.4140  174.5390  141.1960 C   0  0  0  0  0  1  0  0  0  0  0  0
  186.0740  178.5810  142.4500 C   0  0  0  0  0  3  0  0  0  0  0  0
  187.0540  177.5940  142.6130 C   0  0  0  0  0  0  0  0  0  0  0  0
  190.5000  173.6510  142.0490 C   0  0  2  0  0  3  0  0  0  0  0  0
  189.3170  174.5340  146.3200 C   0  0  0  0  0  2  0  0  0  0  0  0
  190.7500  175.2900  147.8140 C   0  0  0  0  0  1  0  0  0  0  0  0
  189.4030  174.9800  147.6380 O   0  0  0  0  0  0  0  0  0  0  0  0
  1 19  1  6  0  0  0
  1  5  1  0  0  0  0
  2 16  1  0  0  0  0
  3 17  1  0  0  0  0
  4 12  1  0  0  0  0
  4  1  1  0  0  0  0
  5 11  1  0  0  0  0
  7 27  1  0  0  0  0
  8  6  1  0  0  0  0
  8 11  1  0  0  0  0
  9 22  1  0  0  0  0
  9  7  1  0  0  0  0
 10  3  1  0  0  0  0
 10 22  1  0  0  0  0
 11 28  1  0  0  0  0
 12  8  1  0  0  0  0
 13  2  1  0  0  0  0
 14 23  1  0  0  0  0
 14  9  1  0  0  0  0
 15  7  1  0  0  0  0
 17 20  1  0  0  0  0
 17 26  1  0  0  0  0
 18 13  2  0  0  0  0
 19  2  2  0  0  0  0
 20  4  1  0  0  0  0
 21 10  2  0  0  0  0
 22 20  1  0  0  0  0
 23 15  1  0  0  0  0
 24 27  1  0  0  0  0
 25 26  2  0  0  0  0
 25 18  1  0  0  0  0
 26 19  1  0  0  0  0
 27 12  1  0  0  0  0
 28 30  1  0  0  0  0
 30 29  1  0  0  0  0
M  END
>  <MODEL>
8

>  <REMARK>
 VINA RESULT:      -7.2      2.118      5.558
  Name = 
  2 active torsions:
  status: ('A' for Active; 'I' for Inactive)
    1  A    between atoms: C_11  and  C_28
    2  A    between atoms: C_28  and  O_30
                            x       y       z     vdW  Elec       q    Type
                         _______ _______ _______ _____ _____    ______ ____

>  <TORSDO>
F 2

$$$$
=
 OpenBabel11112416153D

 30 35  0  0  1  0  0  0  0  0999 V2000
  189.4410  174.7710  143.2570 C   0  0  1  0  0  3  0  0  0  0  0  0
  187.2530  176.0410  143.5600 C   0  0  0  0  0  0  0  0  0  0  0  0
  191.0940  176.9440  146.6300 C   0  0  0  0  0  2  0  0  0  0  0  0
  190.7570  174.3400  143.9410 C   0  0  1  0  0  3  0  0  0  0  0  0
  188.7670  173.6320  142.7760 O   0  0  0  0  0  0  0  0  0  0  0  0
  191.7890  172.1320  141.0500 C   0  0  0  0  0  1  0  0  0  0  0  0
  193.9800  174.4950  143.4320 C   0  0  1  0  0  3  0  0  0  0  0  0
  190.9660  172.6910  142.2100 C   0  0  2  0  0  3  0  0  0  0  0  0
  193.8410  175.5460  144.5490 C   0  0  2  0  0  3  0  0  0  0  0  0
  192.4780  176.4120  146.5150 C   0  0  0  0  0  0  0  0  0  0  0  0
  189.5450  173.0800  141.7280 C   0  0  2  0  0  3  0  0  0  0  0  0
  191.6450  173.8220  142.8780 N   0  0  2  0  0  0  0  0  0  0  0  0
  186.4580  176.9630  144.2470 C   0  0  0  0  0  3  0  0  0  0  0  0
  195.1390  175.4710  145.3340 C   0  0  0  0  0  2  0  0  0  0  0  0
  195.3910  173.9420  143.5050 C   0  0  0  0  0  2  0  0  0  0  0  0
  186.7630  175.4780  142.3880 O   0  0  0  0  0  1  0  0  0  0  0  0
  190.3450  175.9530  145.7630 C   0  0  2  0  0  3  0  0  0  0  0  0
  186.9280  177.5690  145.4130 C   0  0  0  0  0  3  0  0  0  0  0  0
  188.5310  175.7000  144.0510 C   0  0  0  0  0  0  0  0  0  0  0  0
  191.3280  175.5540  144.6790 C   0  0  1  0  0  3  0  0  0  0  0  0
  193.3790  176.7570  147.2620 O   0  0  0  0  0  0  0  0  0  0  0  0
  192.6210  175.3560  145.4570 C   0  0  1  0  0  3  0  0  0  0  0  0
  196.1630  174.8990  144.3830 C   0  0  0  0  0  2  0  0  0  0  0  0
  192.8780  172.4710  144.6370 C   0  0  0  0  0  1  0  0  0  0  0  0
  188.2010  177.2660  145.8920 C   0  0  0  0  0  3  0  0  0  0  0  0
  189.0190  176.3630  145.2010 C   0  0  0  0  0  0  0  0  0  0  0  0
  192.9470  173.3580  143.3890 C   0  0  2  0  0  3  0  0  0  0  0  0
  189.5400  173.9750  140.4830 C   0  0  0  0  0  2  0  0  0  0  0  0
  188.3010  172.6690  139.2120 C   0  0  0  0  0  1  0  0  0  0  0  0
  188.2980  173.9060  139.8540 O   0  0  0  0  0  0  0  0  0  0  0  0
  1  5  1  1  0  0  0
  1  4  1  0  0  0  0
  1 19  1  0  0  0  0
  2 19  2  0  0  0  0
  2 13  1  0  0  0  0
  4 20  1  0  0  0  0
  6  8  1  0  0  0  0
  7 15  1  0  0  0  0
  7  9  1  0  0  0  0
  8 12  1  0  0  0  0
  9 14  1  0  0  0  0
  9 22  1  0  0  0  0
 10  3  1  0  0  0  0
 10 21  2  0  0  0  0
 11  8  1  0  0  0  0
 11  5  1  0  0  0  0
 12 27  1  0  0  0  0
 12  4  1  0  0  0  0
 13 18  2  0  0  0  0
 15 23  1  0  0  0  0
 16  2  1  0  0  0  0
 17  3  1  0  0  0  0
 18 25  1  0  0  0  0
 19 26  1  0  0  0  0
 20 22  1  0  0  0  0
 20 17  1  0  0  0  0
 22 10  1  0  0  0  0
 23 14  1  0  0  0  0
 26 17  1  0  0  0  0
 26 25  2  0  0  0  0
 27  7  1  0  0  0  0
 27 24  1  0  0  0  0
 28 11  1  0  0  0  0
 29 30  1  0  0  0  0
 30 28  1  0  0  0  0
M  END
>  <MODEL>
9

>  <REMARK>
 VINA RESULT:      -7.1      2.042      3.335
  Name = 
  2 active torsions:
  status: ('A' for Active; 'I' for Inactive)
    1  A    between atoms: C_11  and  C_28
    2  A    between atoms: C_28  and  O_30
                            x       y       z     vdW  Elec       q    Type
                         _______ _______ _______ _____ _____    ______ ____

>  <TORSDO>
F 2

$$$$
