=
 OpenBabel11112416233D

 30 35  0  0  1  0  0  0  0  0999 V2000
  187.0610  176.5990  143.9110 C   0  0  2  0  0  3  0  0  0  0  0  0
  185.2370  178.0480  144.9490 C   0  0  0  0  0  0  0  0  0  0  0  0
  189.3490  177.1620  147.5030 N   0  0  0  0  0  2  0  0  0  0  0  0
  188.4880  175.9810  144.1250 C   0  0  1  0  0  3  0  0  0  0  0  0
  187.0230  177.3510  142.7200 O   0  0  0  0  0  0  0  0  0  0  0  0
  188.0380  174.1440  141.6010 C   0  0  0  0  0  1  0  0  0  0  0  0
  191.7380  176.2640  143.2880 C   0  0  1  0  0  3  0  0  0  0  0  0
  188.3640  175.6310  141.6090 C   0  0  1  0  0  3  0  0  0  0  0  0
  191.6760  176.8660  144.7050 C   0  0  2  0  0  3  0  0  0  0  0  0
  190.6290  176.7810  147.0220 C   0  0  0  0  0  0  0  0  0  0  0  0
  187.0420  176.4190  141.6630 C   0  0  2  0  0  3  0  0  0  0  0  0
  189.2710  176.0100  142.8000 C   0  0  2  0  0  3  0  0  0  0  0  0
  184.7160  178.7960  146.0100 C   0  0  0  0  0  3  0  0  0  0  0  0
  193.0050  176.7330  145.3040 N   0  0  0  0  0  2  0  0  0  0  0  0
  193.0980  175.6190  143.2010 C   0  0  0  0  0  2  0  0  0  0  0  0
  184.4980  177.9400  143.7760 O   0  0  0  0  0  1  0  0  0  0  0  0
  188.4300  176.7160  146.4750 C   0  0  2  0  0  3  0  0  0  0  0  0
  185.4190  178.9030  147.2110 C   0  0  0  0  0  3  0  0  0  0  0  0
  186.4870  177.4120  145.0750 C   0  0  0  0  0  0  0  0  0  0  0  0
  189.2330  176.7520  145.1990 C   0  0  1  0  0  3  0  0  0  0  0  0
  191.6590  176.8380  147.7450 O   0  0  0  0  0  0  0  0  0  0  0  0
  190.6070  176.2500  145.6190 C   0  0  1  0  0  3  0  0  0  0  0  0
  193.9110  176.3500  144.2340 C   0  0  0  0  0  2  0  0  0  0  0  0
  190.9520  174.7070  141.6460 O   0  0  0  0  0  1  0  0  0  0  0  0
  186.6460  178.2580  147.3620 C   0  0  0  0  0  3  0  0  0  0  0  0
  187.1910  177.5270  146.3000 C   0  0  0  0  0  0  0  0  0  0  0  0
  190.6250  175.2800  142.8810 C   0  0  1  0  0  3  0  0  0  0  0  0
  186.8400  177.0800  140.4520 O   0  0  0  0  0  0  0  0  0  0  0  0
  184.7320  177.8950  140.1640 O   0  0  0  0  0  1  0  0  0  0  0  0
  185.9710  178.1280  140.7600 C   0  0  0  0  0  2  0  0  0  0  0  0
  1  5  1  6  0  0  0
  1  4  1  0  0  0  0
  1 19  1  0  0  0  0
  2 19  2  0  0  0  0
  2 13  1  0  0  0  0
  4 20  1  0  0  0  0
  6  8  1  0  0  0  0
  7  9  1  0  0  0  0
  8 11  1  0  0  0  0
  8 12  1  0  0  0  0
  9 14  1  0  0  0  0
  9 22  1  0  0  0  0
 10  3  1  0  0  0  0
 10 21  2  0  0  0  0
 11  5  1  0  0  0  0
 12 27  1  0  0  0  0
 12  4  1  0  0  0  0
 13 18  2  0  0  0  0
 15  7  1  0  0  0  0
 15 23  1  0  0  0  0
 16  2  1  0  0  0  0
 17  3  1  0  0  0  0
 18 25  1  0  0  0  0
 19 26  1  0  0  0  0
 20 22  1  0  0  0  0
 20 17  1  0  0  0  0
 22 10  1  0  0  0  0
 23 14  1  0  0  0  0
 24 27  1  0  0  0  0
 26 17  1  0  0  0  0
 26 25  2  0  0  0  0
 27  7  1  0  0  0  0
 28 30  1  0  0  0  0
 28 11  1  0  0  0  0
 29 30  1  0  0  0  0
M  END
>  <MODEL>
1

>  <REMARK>
 VINA RESULT:      -9.0      0.000      0.000
  Name = 
  2 active torsions:
  status: ('A' for Active; 'I' for Inactive)
    1  A    between atoms: C_11  and  O_28
    2  A    between atoms: O_28  and  C_30
                            x       y       z     vdW  Elec       q    Type
                         _______ _______ _______ _____ _____    ______ ____

>  <TORSDO>
F 2

$$$$
=
 OpenBabel11112416233D

 30 35  0  0  1  0  0  0  0  0999 V2000
  188.3990  177.3460  145.1630 C   0  0  2  0  0  3  0  0  0  0  0  0
  186.4170  178.3130  146.4460 C   0  0  0  0  0  0  0  0  0  0  0  0
  186.1610  177.9500  141.5450 N   0  0  0  0  0  2  0  0  0  0  0  0
  188.9440  176.9620  143.7420 C   0  0  1  0  0  3  0  0  0  0  0  0
  188.4580  176.2380  146.0300 O   0  0  0  0  0  0  0  0  0  0  0  0
  191.8240  176.6060  144.9790 C   0  0  0  0  0  1  0  0  0  0  0  0
  189.5650  174.3890  141.6610 C   0  0  1  0  0  3  0  0  0  0  0  0
  190.6460  175.6500  145.1020 C   0  0  1  0  0  3  0  0  0  0  0  0
  188.2620  174.9950  141.1060 C   0  0  2  0  0  3  0  0  0  0  0  0
  186.8930  177.0960  140.6780 C   0  0  0  0  0  0  0  0  0  0  0  0
  189.8210  176.0510  146.3390 C   0  0  2  0  0  3  0  0  0  0  0  0
  189.7650  175.6630  143.8340 C   0  0  2  0  0  3  0  0  0  0  0  0
  185.1450  178.8910  146.4890 C   0  0  0  0  0  3  0  0  0  0  0  0
  188.1830  174.6580  139.6840 N   0  0  0  0  0  2  0  0  0  0  0  0
  190.2960  173.8700  140.4490 C   0  0  0  0  0  2  0  0  0  0  0  0
  187.0870  178.0710  147.6410 O   0  0  0  0  0  1  0  0  0  0  0  0
  187.0030  178.0790  142.7180 C   0  0  2  0  0  3  0  0  0  0  0  0
  184.4560  179.1710  145.3080 C   0  0  0  0  0  3  0  0  0  0  0  0
  187.0080  177.9870  145.2100 C   0  0  0  0  0  0  0  0  0  0  0  0
  187.7920  176.7950  142.7690 C   0  0  1  0  0  3  0  0  0  0  0  0
  186.5540  176.9130  139.4790 O   0  0  0  0  0  0  0  0  0  0  0  0
  188.1200  176.5110  141.3110 C   0  0  1  0  0  3  0  0  0  0  0  0
  189.2080  173.6580  139.4320 C   0  0  0  0  0  2  0  0  0  0  0  0
  191.6760  174.6330  142.7660 O   0  0  0  0  0  1  0  0  0  0  0  0
  185.0370  178.8790  144.0750 C   0  0  0  0  0  3  0  0  0  0  0  0
  186.2990  178.2770  144.0180 C   0  0  0  0  0  0  0  0  0  0  0  0
  190.4700  175.2970  142.5140 C   0  0  1  0  0  3  0  0  0  0  0  0
  189.9480  175.0730  147.3250 O   0  0  0  0  0  0  0  0  0  0  0  0
  191.1320  176.6980  148.3950 O   0  0  0  0  0  1  0  0  0  0  0  0
  191.1500  175.3710  147.9690 C   0  0  0  0  0  2  0  0  0  0  0  0
  1 19  1  6  0  0  0
  1  5  1  0  0  0  0
  2 13  1  0  0  0  0
  2 16  1  0  0  0  0
  3 17  1  0  0  0  0
  4 12  1  0  0  0  0
  4  1  1  0  0  0  0
  5 11  1  0  0  0  0
  6  8  1  0  0  0  0
  7 27  1  0  0  0  0
  8 11  1  0  0  0  0
  9 22  1  0  0  0  0
  9  7  1  0  0  0  0
 10 22  1  0  0  0  0
 10  3  1  0  0  0  0
 11 28  1  0  0  0  0
 12  8  1  0  0  0  0
 14  9  1  0  0  0  0
 15  7  1  0  0  0  0
 17 20  1  0  0  0  0
 17 26  1  0  0  0  0
 18 13  2  0  0  0  0
 19  2  2  0  0  0  0
 20  4  1  0  0  0  0
 21 10  2  0  0  0  0
 22 20  1  0  0  0  0
 23 14  1  0  0  0  0
 23 15  1  0  0  0  0
 25 18  1  0  0  0  0
 26 25  2  0  0  0  0
 26 19  1  0  0  0  0
 27 24  1  0  0  0  0
 27 12  1  0  0  0  0
 28 30  1  0  0  0  0
 30 29  1  0  0  0  0
M  END
>  <MODEL>
2

>  <REMARK>
 VINA RESULT:      -8.7      2.512      5.246
  Name = 
  2 active torsions:
  status: ('A' for Active; 'I' for Inactive)
    1  A    between atoms: C_11  and  O_28
    2  A    between atoms: O_28  and  C_30
                            x       y       z     vdW  Elec       q    Type
                         _______ _______ _______ _____ _____    ______ ____

>  <TORSDO>
F 2

$$$$
=
 OpenBabel11112416233D

 30 35  0  0  1  0  0  0  0  0999 V2000
  187.0780  177.3920  144.3810 C   0  0  2  0  0  3  0  0  0  0  0  0
  184.9470  178.3990  143.4040 C   0  0  0  0  0  0  0  0  0  0  0  0
  187.8980  175.7370  140.5010 N   0  0  0  0  0  2  0  0  0  0  0  0
  188.3420  176.5140  144.0720 C   0  0  1  0  0  3  0  0  0  0  0  0
  186.3630  176.8610  145.4720 O   0  0  0  0  0  0  0  0  0  0  0  0
  189.5940  177.4030  146.8270 C   0  0  0  0  0  1  0  0  0  0  0  0
  189.7130  173.4660  144.4800 C   0  0  1  0  0  3  0  0  0  0  0  0
  188.4790  176.3900  146.6080 C   0  0  1  0  0  3  0  0  0  0  0  0
  189.2210  173.4470  143.0200 C   0  0  2  0  0  3  0  0  0  0  0  0
  188.8560  174.7550  140.8690 C   0  0  0  0  0  0  0  0  0  0  0  0
  187.1330  177.1370  146.6200 C   0  0  2  0  0  3  0  0  0  0  0  0
  188.6610  175.6190  145.2830 C   0  0  2  0  0  3  0  0  0  0  0  0
  184.0820  178.6430  142.3330 C   0  0  0  0  0  3  0  0  0  0  0  0
  190.0330  172.4760  142.2870 N   0  0  0  0  0  2  0  0  0  0  0  0
  190.9540  172.6100  144.4790 C   0  0  0  0  0  2  0  0  0  0  0  0
  184.6180  178.8940  144.6610 O   0  0  0  0  0  1  0  0  0  0  0  0
  187.7740  176.5770  141.6760 C   0  0  2  0  0  3  0  0  0  0  0  0
  184.3940  178.1830  141.0530 C   0  0  0  0  0  3  0  0  0  0  0  0
  186.1330  177.6660  143.2050 C   0  0  0  0  0  0  0  0  0  0  0  0
  188.1000  175.6690  142.8350 C   0  0  1  0  0  3  0  0  0  0  0  0
  189.3580  173.9650  140.0270 O   0  0  0  0  0  0  0  0  0  0  0  0
  189.2450  174.8120  142.3160 C   0  0  1  0  0  3  0  0  0  0  0  0
  190.7800  171.7190  143.2800 C   0  0  0  0  0  2  0  0  0  0  0  0
  190.5890  174.6440  146.3720 O   0  0  0  0  0  1  0  0  0  0  0  0
  185.5780  177.4790  140.8340 C   0  0  0  0  0  3  0  0  0  0  0  0
  186.4410  177.2060  141.9020 C   0  0  0  0  0  0  0  0  0  0  0  0
  189.9800  174.8370  145.1270 C   0  0  1  0  0  3  0  0  0  0  0  0
  186.4120  176.7870  147.7620 O   0  0  0  0  0  0  0  0  0  0  0  0
  186.3850  179.0610  147.9000 O   0  0  0  0  0  1  0  0  0  0  0  0
  185.6210  177.9030  148.0390 C   0  0  0  0  0  2  0  0  0  0  0  0
  1 19  1  6  0  0  0
  1  5  1  0  0  0  0
  2 16  1  0  0  0  0
  3 10  1  0  0  0  0
  3 17  1  0  0  0  0
  4  1  1  0  0  0  0
  4 12  1  0  0  0  0
  5 11  1  0  0  0  0
  7 27  1  0  0  0  0
  8 11  1  0  0  0  0
  8  6  1  0  0  0  0
  9  7  1  0  0  0  0
 10 22  1  0  0  0  0
 11 28  1  0  0  0  0
 12  8  1  0  0  0  0
 13  2  2  0  0  0  0
 14  9  1  0  0  0  0
 14 23  1  0  0  0  0
 15  7  1  0  0  0  0
 17 26  1  0  0  0  0
 17 20  1  0  0  0  0
 18 13  1  0  0  0  0
 19  2  1  0  0  0  0
 20  4  1  0  0  0  0
 21 10  2  0  0  0  0
 22 20  1  0  0  0  0
 22  9  1  0  0  0  0
 23 15  1  0  0  0  0
 25 18  2  0  0  0  0
 25 26  1  0  0  0  0
 26 19  2  0  0  0  0
 27 12  1  0  0  0  0
 27 24  1  0  0  0  0
 28 30  1  0  0  0  0
 29 30  1  0  0  0  0
M  END
>  <MODEL>
3

>  <REMARK>
 VINA RESULT:      -8.4      2.724      5.056
  Name = 
  2 active torsions:
  status: ('A' for Active; 'I' for Inactive)
    1  A    between atoms: C_11  and  O_28
    2  A    between atoms: O_28  and  C_30
                            x       y       z     vdW  Elec       q    Type
                         _______ _______ _______ _____ _____    ______ ____

>  <TORSDO>
F 2

$$$$
=
 OpenBabel11112416233D

 30 35  0  0  1  0  0  0  0  0999 V2000
  189.6650  175.4680  143.5570 C   0  0  2  0  0  3  0  0  0  0  0  0
  191.7490  174.1330  144.1760 C   0  0  0  0  0  0  0  0  0  0  0  0
  190.0580  177.5370  147.3020 N   0  0  0  0  0  2  0  0  0  0  0  0
  188.6650  176.5810  144.0320 C   0  0  1  0  0  3  0  0  0  0  0  0
  188.9690  174.2870  143.2300 O   0  0  0  0  0  0  0  0  0  0  0  0
  187.4690  176.7050  141.1150 C   0  0  0  0  0  1  0  0  0  0  0  0
  185.5850  177.1340  145.2740 C   0  0  1  0  0  3  0  0  0  0  0  0
  187.2220  175.6310  142.1660 C   0  0  1  0  0  3  0  0  0  0  0  0
  186.5030  177.2960  146.5010 C   0  0  2  0  0  3  0  0  0  0  0  0
  188.7490  178.0790  147.4030 C   0  0  0  0  0  0  0  0  0  0  0  0
  188.3030  174.5450  142.0150 C   0  0  2  0  0  3  0  0  0  0  0  0
  187.2350  176.2160  143.5950 C   0  0  2  0  0  3  0  0  0  0  0  0
  192.8120  173.8430  145.0370 C   0  0  0  0  0  3  0  0  0  0  0  0
  185.8190  178.1660  147.4580 N   0  0  0  0  0  2  0  0  0  0  0  0
  184.4540  178.1030  145.5080 C   0  0  0  0  0  2  0  0  0  0  0  0
  191.6140  173.3990  143.0030 O   0  0  0  0  0  1  0  0  0  0  0  0
  190.1530  177.0780  145.9310 C   0  0  2  0  0  3  0  0  0  0  0  0
  192.9930  174.5780  146.2100 C   0  0  0  0  0  3  0  0  0  0  0  0
  190.8350  175.1550  144.4960 C   0  0  0  0  0  0  0  0  0  0  0  0
  188.7370  176.7370  145.5390 C   0  0  1  0  0  3  0  0  0  0  0  0
  188.3780  178.7460  148.4050 O   0  0  0  0  0  0  0  0  0  0  0  0
  187.9060  177.8360  146.1860 C   0  0  1  0  0  3  0  0  0  0  0  0
  184.4460  178.2970  147.0000 C   0  0  0  0  0  2  0  0  0  0  0  0
  185.1950  177.3270  142.9190 O   0  0  0  0  0  1  0  0  0  0  0  0
  192.1120  175.6120  146.5280 C   0  0  0  0  0  3  0  0  0  0  0  0
  191.0290  175.8950  145.6890 C   0  0  0  0  0  0  0  0  0  0  0  0
  186.2110  177.3310  143.8810 C   0  0  1  0  0  3  0  0  0  0  0  0
  187.7240  173.3690  141.5400 O   0  0  0  0  0  0  0  0  0  0  0  0
  187.9230  172.6600  139.3840 O   0  0  0  0  0  1  0  0  0  0  0  0
  188.6130  172.9010  140.5710 C   0  0  0  0  0  2  0  0  0  0  0  0
  1  5  1  1  0  0  0
  1  4  1  0  0  0  0
  1 19  1  0  0  0  0
  2 19  2  0  0  0  0
  2 13  1  0  0  0  0
  3 10  1  0  0  0  0
  4 20  1  0  0  0  0
  6  8  1  0  0  0  0
  7 15  1  0  0  0  0
  7  9  1  0  0  0  0
  8 12  1  0  0  0  0
  9 14  1  0  0  0  0
 10 21  2  0  0  0  0
 11  8  1  0  0  0  0
 11  5  1  0  0  0  0
 12 27  1  0  0  0  0
 12  4  1  0  0  0  0
 13 18  2  0  0  0  0
 15 23  1  0  0  0  0
 16  2  1  0  0  0  0
 17  3  1  0  0  0  0
 18 25  1  0  0  0  0
 19 26  1  0  0  0  0
 20 17  1  0  0  0  0
 20 22  1  0  0  0  0
 22  9  1  0  0  0  0
 22 10  1  0  0  0  0
 23 14  1  0  0  0  0
 24 27  1  0  0  0  0
 26 17  1  0  0  0  0
 26 25  2  0  0  0  0
 27  7  1  0  0  0  0
 28 11  1  0  0  0  0
 29 30  1  0  0  0  0
 30 28  1  0  0  0  0
M  END
>  <MODEL>
4

>  <REMARK>
 VINA RESULT:      -8.1      1.942      5.557
  Name = 
  2 active torsions:
  status: ('A' for Active; 'I' for Inactive)
    1  A    between atoms: C_11  and  O_28
    2  A    between atoms: O_28  and  C_30
                            x       y       z     vdW  Elec       q    Type
                         _______ _______ _______ _____ _____    ______ ____

>  <TORSDO>
F 2

$$$$
=
 OpenBabel11112416233D

 30 35  0  0  1  0  0  0  0  0999 V2000
  190.4900  174.5950  144.4440 C   0  0  2  0  0  3  0  0  0  0  0  0
  192.3470  173.7700  142.9020 C   0  0  0  0  0  0  0  0  0  0  0  0
  188.1700  175.4730  140.9360 N   0  0  0  0  0  2  0  0  0  0  0  0
  189.0500  175.2180  144.5010 C   0  0  1  0  0  3  0  0  0  0  0  0
  191.4010  175.3920  145.1640 O   0  0  0  0  0  0  0  0  0  0  0  0
  188.9410  174.6040  147.5930 C   0  0  0  0  0  1  0  0  0  0  0  0
  187.3250  178.0580  145.0450 C   0  0  1  0  0  3  0  0  0  0  0  0
  189.7110  175.7220  146.9040 C   0  0  1  0  0  3  0  0  0  0  0  0
  187.3110  177.9160  143.5110 C   0  0  2  0  0  3  0  0  0  0  0  0
  187.2110  176.3500  141.5090 C   0  0  0  0  0  0  0  0  0  0  0  0
  191.1080  175.1930  146.5280 C   0  0  2  0  0  3  0  0  0  0  0  0
  188.9700  176.2380  145.6510 C   0  0  2  0  0  3  0  0  0  0  0  0
  192.8540  173.4880  141.6300 C   0  0  0  0  0  3  0  0  0  0  0  0
  186.1360  178.6280  143.0080 N   0  0  0  0  0  2  0  0  0  0  0  0
  186.0090  178.7110  145.3850 C   0  0  0  0  0  2  0  0  0  0  0  0
  193.1500  173.5340  144.0130 O   0  0  0  0  0  1  0  0  0  0  0  0
  188.8220  174.8580  142.0750 C   0  0  2  0  0  3  0  0  0  0  0  0
  192.0660  173.6870  140.4950 C   0  0  0  0  0  3  0  0  0  0  0  0
  191.0430  174.2790  143.0500 C   0  0  0  0  0  0  0  0  0  0  0  0
  188.7170  175.8820  143.1770 C   0  0  1  0  0  3  0  0  0  0  0  0
  186.3240  176.9140  140.8150 O   0  0  0  0  0  0  0  0  0  0  0  0
  187.3240  176.4670  143.0000 C   0  0  1  0  0  3  0  0  0  0  0  0
  185.6160  179.4150  144.1150 C   0  0  0  0  0  2  0  0  0  0  0  0
  187.3440  177.0800  147.2320 O   0  0  0  0  0  1  0  0  0  0  0  0
  190.7620  174.1660  140.6260 C   0  0  0  0  0  3  0  0  0  0  0  0
  190.2520  174.4760  141.8910 C   0  0  0  0  0  0  0  0  0  0  0  0
  187.5470  176.7820  145.8800 C   0  0  1  0  0  3  0  0  0  0  0  0
  192.0740  175.8220  147.3130 O   0  0  0  0  0  0  0  0  0  0  0  0
  194.0190  176.9300  146.8870 O   0  0  0  0  0  1  0  0  0  0  0  0
  193.2160  175.8540  146.5100 C   0  0  0  0  0  2  0  0  0  0  0  0
  1 19  1  6  0  0  0
  1  4  1  0  0  0  0
  1  5  1  0  0  0  0
  2 19  1  0  0  0  0
  2 16  1  0  0  0  0
  3 10  1  0  0  0  0
  3 17  1  0  0  0  0
  4 12  1  0  0  0  0
  5 11  1  0  0  0  0
  7 15  1  0  0  0  0
  7 27  1  0  0  0  0
  8  6  1  0  0  0  0
  9  7  1  0  0  0  0
 10 22  1  0  0  0  0
 11  8  1  0  0  0  0
 11 28  1  0  0  0  0
 12 27  1  0  0  0  0
 12  8  1  0  0  0  0
 13  2  2  0  0  0  0
 14  9  1  0  0  0  0
 14 23  1  0  0  0  0
 17 20  1  0  0  0  0
 18 25  2  0  0  0  0
 18 13  1  0  0  0  0
 20  4  1  0  0  0  0
 21 10  2  0  0  0  0
 22 20  1  0  0  0  0
 22  9  1  0  0  0  0
 23 15  1  0  0  0  0
 25 26  1  0  0  0  0
 26 17  1  0  0  0  0
 26 19  2  0  0  0  0
 27 24  1  0  0  0  0
 30 29  1  0  0  0  0
 30 28  1  0  0  0  0
M  END
>  <MODEL>
5

>  <REMARK>
 VINA RESULT:      -8.1      2.490      7.165
  Name = 
  2 active torsions:
  status: ('A' for Active; 'I' for Inactive)
    1  A    between atoms: C_11  and  O_28
    2  A    between atoms: O_28  and  C_30
                            x       y       z     vdW  Elec       q    Type
                         _______ _______ _______ _____ _____    ______ ____

>  <TORSDO>
F 2

$$$$
=
 OpenBabel11112416233D

 30 35  0  0  1  0  0  0  0  0999 V2000
  188.2080  175.7350  143.9020 C   0  0  2  0  0  3  0  0  0  0  0  0
  186.3680  177.1100  145.0130 C   0  0  0  0  0  0  0  0  0  0  0  0
  190.7510  176.7300  147.2190 N   0  0  0  0  0  2  0  0  0  0  0  0
  189.6950  175.2460  144.0210 C   0  0  1  0  0  3  0  0  0  0  0  0
  188.0010  176.3950  142.6750 O   0  0  0  0  0  0  0  0  0  0  0  0
  189.1770  173.2030  141.6730 C   0  0  0  0  0  1  0  0  0  0  0  0
  192.8220  175.7180  142.8640 C   0  0  1  0  0  3  0  0  0  0  0  0
  189.3770  174.7080  141.5550 C   0  0  1  0  0  3  0  0  0  0  0  0
  192.8370  176.4140  144.2380 C   0  0  2  0  0  3  0  0  0  0  0  0
  192.0110  176.4150  146.6440 C   0  0  0  0  0  0  0  0  0  0  0  0
  188.0040  175.3930  141.6830 C   0  0  2  0  0  3  0  0  0  0  0  0
  190.3520  175.2400  142.6280 C   0  0  2  0  0  3  0  0  0  0  0  0
  185.8840  177.8900  146.0680 C   0  0  0  0  0  3  0  0  0  0  0  0
  194.2200  176.4270  144.7170 N   0  0  0  0  0  2  0  0  0  0  0  0
  194.2180  175.1760  142.6910 C   0  0  0  0  0  2  0  0  0  0  0  0
  185.5400  176.8610  143.9250 O   0  0  0  0  0  1  0  0  0  0  0  0
  189.7850  176.1420  146.3130 C   0  0  2  0  0  3  0  0  0  0  0  0
  186.6790  178.1370  147.1880 C   0  0  0  0  0  3  0  0  0  0  0  0
  187.6740  176.5830  145.0620 C   0  0  0  0  0  0  0  0  0  0  0  0
  190.4660  176.1480  144.9680 C   0  0  1  0  0  3  0  0  0  0  0  0
  193.0920  176.6030  147.2620 O   0  0  0  0  0  0  0  0  0  0  0  0
  191.9080  175.7850  145.2880 C   0  0  1  0  0  3  0  0  0  0  0  0
  195.0570  176.0390  143.5930 C   0  0  0  0  0  2  0  0  0  0  0  0
  192.0260  173.9910  141.4070 O   0  0  0  0  0  1  0  0  0  0  0  0
  187.9650  177.6010  147.2630 C   0  0  0  0  0  3  0  0  0  0  0  0
  188.4720  176.8390  146.2040 C   0  0  0  0  0  0  0  0  0  0  0  0
  191.7640  174.6240  142.6280 C   0  0  1  0  0  3  0  0  0  0  0  0
  187.6410  175.9480  140.4560 O   0  0  0  0  0  0  0  0  0  0  0  0
  186.1530  177.5500  139.8160 O   0  0  0  0  0  1  0  0  0  0  0  0
  187.0980  177.1940  140.7770 C   0  0  0  0  0  2  0  0  0  0  0  0
  1  5  1  6  0  0  0
  1  4  1  0  0  0  0
  1 19  1  0  0  0  0
  2 19  2  0  0  0  0
  2 13  1  0  0  0  0
  4 20  1  0  0  0  0
  7  9  1  0  0  0  0
  8  6  1  0  0  0  0
  8 11  1  0  0  0  0
  8 12  1  0  0  0  0
  9 14  1  0  0  0  0
  9 22  1  0  0  0  0
 10  3  1  0  0  0  0
 10 21  2  0  0  0  0
 11  5  1  0  0  0  0
 12  4  1  0  0  0  0
 13 18  2  0  0  0  0
 15  7  1  0  0  0  0
 15 23  1  0  0  0  0
 16  2  1  0  0  0  0
 17  3  1  0  0  0  0
 18 25  1  0  0  0  0
 19 26  1  0  0  0  0
 20 22  1  0  0  0  0
 20 17  1  0  0  0  0
 22 10  1  0  0  0  0
 23 14  1  0  0  0  0
 24 27  1  0  0  0  0
 26 17  1  0  0  0  0
 26 25  2  0  0  0  0
 27 12  1  0  0  0  0
 27  7  1  0  0  0  0
 28 30  1  0  0  0  0
 28 11  1  0  0  0  0
 29 30  1  0  0  0  0
M  END
>  <MODEL>
6

>  <REMARK>
 VINA RESULT:      -7.9      1.166      1.421
  Name = 
  2 active torsions:
  status: ('A' for Active; 'I' for Inactive)
    1  A    between atoms: C_11  and  O_28
    2  A    between atoms: O_28  and  C_30
                            x       y       z     vdW  Elec       q    Type
                         _______ _______ _______ _____ _____    ______ ____

>  <TORSDO>
F 2

$$$$
=
 OpenBabel11112416233D

 30 35  0  0  1  0  0  0  0  0999 V2000
  190.1650  175.2870  145.3380 C   0  0  2  0  0  3  0  0  0  0  0  0
  192.5350  174.3450  145.2600 C   0  0  0  0  0  0  0  0  0  0  0  0
  189.7090  174.0810  141.2400 N   0  0  0  0  0  2  0  0  0  0  0  0
  188.8530  175.5310  144.5120 C   0  0  1  0  0  3  0  0  0  0  0  0
  190.6320  176.4950  145.8920 O   0  0  0  0  0  0  0  0  0  0  0  0
  187.3410  176.2440  147.1880 C   0  0  0  0  0  1  0  0  0  0  0  0
  187.0320  177.8660  142.9100 C   0  0  1  0  0  3  0  0  0  0  0  0
  188.3260  177.1200  146.4270 C   0  0  1  0  0  3  0  0  0  0  0  0
  187.7270  177.1030  141.7660 C   0  0  2  0  0  3  0  0  0  0  0  0
  188.5820  174.8720  140.8920 C   0  0  0  0  0  0  0  0  0  0  0  0
  189.7460  176.8170  146.9400 C   0  0  2  0  0  3  0  0  0  0  0  0
  188.2390  176.8880  144.9030 C   0  0  2  0  0  3  0  0  0  0  0  0
  193.5740  173.6860  144.5960 C   0  0  0  0  0  3  0  0  0  0  0  0
  186.9070  177.2560  140.5640 N   0  0  0  0  0  2  0  0  0  0  0  0
  185.6990  178.2830  142.3410 C   0  0  0  0  0  2  0  0  0  0  0  0
  192.7390  174.7800  146.5650 O   0  0  0  0  0  1  0  0  0  0  0  0
  189.7720  174.1590  142.6860 C   0  0  2  0  0  3  0  0  0  0  0  0
  193.3940  173.2130  143.2950 C   0  0  0  0  0  3  0  0  0  0  0  0
  191.3020  174.5580  144.6130 C   0  0  0  0  0  0  0  0  0  0  0  0
  189.1570  175.4930  143.0260 C   0  0  1  0  0  3  0  0  0  0  0  0
  188.1060  174.8810  139.7260 O   0  0  0  0  0  0  0  0  0  0  0  0
  187.9940  175.6180  142.0530 C   0  0  1  0  0  3  0  0  0  0  0  0
  185.9250  178.2880  140.8540 C   0  0  0  0  0  2  0  0  0  0  0  0
  186.0560  177.9130  145.0960 O   0  0  0  0  0  1  0  0  0  0  0  0
  192.1710  173.3920  142.6500 C   0  0  0  0  0  3  0  0  0  0  0  0
  191.1300  174.0720  143.2940 C   0  0  0  0  0  0  0  0  0  0  0  0
  186.8630  177.1380  144.2560 C   0  0  1  0  0  3  0  0  0  0  0  0
  190.2350  177.9160  147.6460 O   0  0  0  0  0  0  0  0  0  0  0  0
  191.4820  178.2900  149.5160 O   0  0  0  0  0  1  0  0  0  0  0  0
  191.2200  177.3900  148.4840 C   0  0  0  0  0  2  0  0  0  0  0  0
  1 19  1  6  0  0  0
  1  5  1  0  0  0  0
  2 16  1  0  0  0  0
  3 17  1  0  0  0  0
  4 12  1  0  0  0  0
  4  1  1  0  0  0  0
  5 11  1  0  0  0  0
  7 27  1  0  0  0  0
  8 11  1  0  0  0  0
  8  6  1  0  0  0  0
  9 22  1  0  0  0  0
  9  7  1  0  0  0  0
 10  3  1  0  0  0  0
 10 22  1  0  0  0  0
 11 28  1  0  0  0  0
 12  8  1  0  0  0  0
 13  2  2  0  0  0  0
 14 23  1  0  0  0  0
 14  9  1  0  0  0  0
 15  7  1  0  0  0  0
 17 20  1  0  0  0  0
 17 26  1  0  0  0  0
 18 13  1  0  0  0  0
 19  2  1  0  0  0  0
 20  4  1  0  0  0  0
 21 10  2  0  0  0  0
 22 20  1  0  0  0  0
 23 15  1  0  0  0  0
 25 26  1  0  0  0  0
 25 18  2  0  0  0  0
 26 19  2  0  0  0  0
 27 12  1  0  0  0  0
 27 24  1  0  0  0  0
 28 30  1  0  0  0  0
 30 29  1  0  0  0  0
M  END
>  <MODEL>
7

>  <REMARK>
 VINA RESULT:      -7.8      2.588      7.026
  Name = 
  2 active torsions:
  status: ('A' for Active; 'I' for Inactive)
    1  A    between atoms: C_11  and  O_28
    2  A    between atoms: O_28  and  C_30
                            x       y       z     vdW  Elec       q    Type
                         _______ _______ _______ _____ _____    ______ ____

>  <TORSDO>
F 2

$$$$
=
 OpenBabel11112416233D

 30 35  0  0  1  0  0  0  0  0999 V2000
  187.9120  175.6580  142.9270 C   0  0  2  0  0  3  0  0  0  0  0  0
  186.1820  177.4320  142.3190 C   0  0  0  0  0  0  0  0  0  0  0  0
  188.5450  177.7550  146.6230 N   0  0  0  0  0  2  0  0  0  0  0  0
  188.9470  175.1920  144.0120 C   0  0  1  0  0  3  0  0  0  0  0  0
  188.5400  175.7990  141.6740 O   0  0  0  0  0  0  0  0  0  0  0  0
  189.2100  172.4230  142.5250 C   0  0  0  0  0  1  0  0  0  0  0  0
  192.2240  175.0480  144.7730 C   0  0  1  0  0  3  0  0  0  0  0  0
  189.8160  173.7540  142.1030 C   0  0  1  0  0  3  0  0  0  0  0  0
  191.7060  176.2210  145.6270 C   0  0  2  0  0  3  0  0  0  0  0  0
  189.7940  177.1900  146.9960 C   0  0  0  0  0  0  0  0  0  0  0  0
  188.7980  174.4920  141.2130 C   0  0  2  0  0  3  0  0  0  0  0  0
  190.1990  174.6200  143.3230 C   0  0  2  0  0  3  0  0  0  0  0  0
  185.4410  178.5790  142.6180 C   0  0  0  0  0  3  0  0  0  0  0  0
  192.5970  176.3610  146.7800 N   0  0  0  0  0  2  0  0  0  0  0  0
  193.3200  174.4240  145.5990 C   0  0  0  0  0  2  0  0  0  0  0  0
  185.9990  176.8150  141.0860 O   0  0  0  0  0  1  0  0  0  0  0  0
  188.0690  176.9020  145.5520 C   0  0  2  0  0  3  0  0  0  0  0  0
  185.5800  179.2080  143.8560 C   0  0  0  0  0  3  0  0  0  0  0  0
  187.0940  176.9110  143.2570 C   0  0  0  0  0  0  0  0  0  0  0  0
  189.3200  176.3570  144.9090 C   0  0  1  0  0  3  0  0  0  0  0  0
  190.4100  177.5570  148.0310 O   0  0  0  0  0  0  0  0  0  0  0  0
  190.2470  176.0870  146.0860 C   0  0  1  0  0  3  0  0  0  0  0  0
  193.7620  175.5340  146.5120 C   0  0  0  0  0  2  0  0  0  0  0  0
  191.8820  172.9260  143.7150 O   0  0  0  0  0  1  0  0  0  0  0  0
  186.4590  178.6900  144.8070 C   0  0  0  0  0  3  0  0  0  0  0  0
  187.2260  177.5570  144.5110 C   0  0  0  0  0  0  0  0  0  0  0  0
  191.2010  173.9930  144.3120 C   0  0  1  0  0  3  0  0  0  0  0  0
  189.2720  174.5420  139.9020 O   0  0  0  0  0  0  0  0  0  0  0  0
  188.1000  172.7410  139.1440 O   0  0  0  0  0  1  0  0  0  0  0  0
  188.1910  174.1320  139.1180 C   0  0  0  0  0  2  0  0  0  0  0  0
  1  5  1  6  0  0  0
  1 19  1  0  0  0  0
  1  4  1  0  0  0  0
  2 13  2  0  0  0  0
  2 19  1  0  0  0  0
  3 10  1  0  0  0  0
  4 20  1  0  0  0  0
  7 15  1  0  0  0  0
  7  9  1  0  0  0  0
  8  6  1  0  0  0  0
  8 12  1  0  0  0  0
  9 22  1  0  0  0  0
  9 14  1  0  0  0  0
 10 21  2  0  0  0  0
 11  5  1  0  0  0  0
 11  8  1  0  0  0  0
 12  4  1  0  0  0  0
 12 27  1  0  0  0  0
 13 18  1  0  0  0  0
 15 23  1  0  0  0  0
 16  2  1  0  0  0  0
 17  3  1  0  0  0  0
 18 25  2  0  0  0  0
 19 26  2  0  0  0  0
 20 17  1  0  0  0  0
 20 22  1  0  0  0  0
 22 10  1  0  0  0  0
 23 14  1  0  0  0  0
 24 27  1  0  0  0  0
 26 25  1  0  0  0  0
 26 17  1  0  0  0  0
 27  7  1  0  0  0  0
 28 11  1  0  0  0  0
 30 29  1  0  0  0  0
 30 28  1  0  0  0  0
M  END
>  <MODEL>
8

>  <REMARK>
 VINA RESULT:      -7.8      1.828      2.591
  Name = 
  2 active torsions:
  status: ('A' for Active; 'I' for Inactive)
    1  A    between atoms: C_11  and  O_28
    2  A    between atoms: O_28  and  C_30
                            x       y       z     vdW  Elec       q    Type
                         _______ _______ _______ _____ _____    ______ ____

>  <TORSDO>
F 2

$$$$
=
 OpenBabel11112416233D

 30 35  0  0  1  0  0  0  0  0999 V2000
  191.1300  174.0210  144.5640 C   0  0  2  0  0  3  0  0  0  0  0  0
  193.1670  172.8780  143.5370 C   0  0  0  0  0  0  0  0  0  0  0  0
  189.3920  174.1230  140.6360 N   0  0  0  0  0  2  0  0  0  0  0  0
  189.7200  174.6440  144.2640 C   0  0  1  0  0  3  0  0  0  0  0  0
  191.9510  174.9540  145.2280 O   0  0  0  0  0  0  0  0  0  0  0  0
  189.1300  174.7160  147.3630 C   0  0  0  0  0  1  0  0  0  0  0  0
  188.0340  177.5380  143.9190 C   0  0  1  0  0  3  0  0  0  0  0  0
  190.0330  175.6560  146.5770 C   0  0  1  0  0  3  0  0  0  0  0  0
  188.2440  177.0670  142.4670 C   0  0  2  0  0  3  0  0  0  0  0  0
  188.3890  175.1050  140.8540 C   0  0  0  0  0  0  0  0  0  0  0  0
  191.4500  175.0550  146.5420 C   0  0  2  0  0  3  0  0  0  0  0  0
  189.5060  175.8900  145.1440 C   0  0  2  0  0  3  0  0  0  0  0  0
  193.8470  172.3260  142.4470 C   0  0  0  0  0  3  0  0  0  0  0  0
  187.1830  177.6560  141.6490 N   0  0  0  0  0  2  0  0  0  0  0  0
  186.7060  178.2520  143.9050 C   0  0  0  0  0  2  0  0  0  0  0  0
  193.7860  172.8870  144.7820 O   0  0  0  0  0  1  0  0  0  0  0  0
  189.8440  173.7680  141.9660 C   0  0  2  0  0  3  0  0  0  0  0  0
  193.2450  172.2770  141.1890 C   0  0  0  0  0  3  0  0  0  0  0  0
  191.8730  173.4100  143.3710 C   0  0  0  0  0  0  0  0  0  0  0  0
  189.6120  175.0070  142.7950 C   0  0  1  0  0  3  0  0  0  0  0  0
  187.6360  175.5080  139.9280 O   0  0  0  0  0  0  0  0  0  0  0  0
  188.2830  175.5430  142.2850 C   0  0  1  0  0  3  0  0  0  0  0  0
  186.5320  178.6650  142.4690 C   0  0  0  0  0  2  0  0  0  0  0  0
  187.6920  177.0570  146.2400 O   0  0  0  0  0  1  0  0  0  0  0  0
  191.9540  172.7750  141.0130 C   0  0  0  0  0  3  0  0  0  0  0  0
  191.2710  173.3530  142.0900 C   0  0  0  0  0  0  0  0  0  0  0  0
  188.0850  176.4730  145.0300 C   0  0  1  0  0  3  0  0  0  0  0  0
  192.3110  175.8370  147.3120 O   0  0  0  0  0  0  0  0  0  0  0  0
  194.1380  177.1420  146.9280 O   0  0  0  0  0  1  0  0  0  0  0  0
  193.4460  176.0040  146.5160 C   0  0  0  0  0  2  0  0  0  0  0  0
  1 19  1  6  0  0  0
  1  5  1  0  0  0  0
  2 16  1  0  0  0  0
  3 10  1  0  0  0  0
  3 17  1  0  0  0  0
  4  1  1  0  0  0  0
  4 12  1  0  0  0  0
  5 11  1  0  0  0  0
  7 27  1  0  0  0  0
  8  6  1  0  0  0  0
  9  7  1  0  0  0  0
 10 22  1  0  0  0  0
 11  8  1  0  0  0  0
 11 28  1  0  0  0  0
 12  8  1  0  0  0  0
 13  2  2  0  0  0  0
 14  9  1  0  0  0  0
 14 23  1  0  0  0  0
 15  7  1  0  0  0  0
 17 26  1  0  0  0  0
 17 20  1  0  0  0  0
 18 13  1  0  0  0  0
 19  2  1  0  0  0  0
 20  4  1  0  0  0  0
 21 10  2  0  0  0  0
 22  9  1  0  0  0  0
 22 20  1  0  0  0  0
 23 15  1  0  0  0  0
 25 18  2  0  0  0  0
 25 26  1  0  0  0  0
 26 19  2  0  0  0  0
 27 12  1  0  0  0  0
 27 24  1  0  0  0  0
 30 29  1  0  0  0  0
 30 28  1  0  0  0  0
M  END
>  <MODEL>
9

>  <REMARK>
 VINA RESULT:      -7.5      2.794      7.405
  Name = 
  2 active torsions:
  status: ('A' for Active; 'I' for Inactive)
    1  A    between atoms: C_11  and  O_28
    2  A    between atoms: O_28  and  C_30
                            x       y       z     vdW  Elec       q    Type
                         _______ _______ _______ _____ _____    ______ ____

>  <TORSDO>
F 2

$$$$
