=
 OpenBabel11112417403D

 28 32  0  0  1  0  0  0  0  0999 V2000
  190.0790  175.5710  144.1400 C   0  0  0  0  0  0  0  0  0  0  0  0
  185.5010  176.0970  146.1780 F   0  0  0  0  0  0  0  0  0  0  0  0
  187.8030  176.1510  140.1660 O   0  0  0  0  0  0  0  0  0  0  0  0
  191.0900  178.1600  143.8140 C   0  0  0  0  0  3  0  0  0  0  0  0
  186.4700  177.4580  141.6860 C   0  0  2  0  0  3  0  0  0  0  0  0
  189.5420  174.2880  144.2520 O   0  0  0  0  0  0  0  0  0  0  0  0
  186.8070  177.2500  147.6000 F   0  0  0  0  0  0  0  0  0  0  0  0
  186.1130  177.3200  146.4070 C   0  0  0  0  0  0  0  0  0  0  0  0
  184.4200  178.6060  145.1540 C   0  0  1  0  0  3  0  0  0  0  0  0
  187.1010  177.6790  145.2750 C   0  0  2  0  0  3  0  0  0  0  0  0
  189.9500  174.4300  141.2000 C   0  0  0  0  0  1  0  0  0  0  0  0
  186.8930  175.9300  143.5710 C   0  0  1  0  0  3  0  0  0  0  0  0
  185.3700  179.1910  144.2970 O   0  0  0  0  0  0  0  0  0  0  0  0
  185.0330  178.3830  146.5290 C   0  0  0  0  0  2  0  0  0  0  0  0
  189.1370  173.5360  142.0130 N   0  0  0  0  0  0  0  0  0  0  0  0
  189.2420  176.6750  144.3600 C   0  0  0  0  0  0  0  0  0  0  0  0
  187.3560  176.3310  141.3290 C   0  0  0  0  0  0  0  0  0  0  0  0
  183.3190  179.4520  145.2710 O   0  0  0  0  0  1  0  0  0  0  0  0
  187.7420  173.9940  142.1640 C   0  0  0  0  0  2  0  0  0  0  0  0
  189.7550  177.9710  144.1810 C   0  0  0  0  0  3  0  0  0  0  0  0
  191.4180  175.7650  143.7710 C   0  0  0  0  0  3  0  0  0  0  0  0
  191.9220  177.0570  143.6140 C   0  0  0  0  0  3  0  0  0  0  0  0
  189.8010  173.2680  143.2940 C   0  0  0  0  0  2  0  0  0  0  0  0
  186.0440  177.1290  143.1130 C   0  0  1  0  0  3  0  0  0  0  0  0
  187.6160  175.4380  142.4030 N   0  0  0  0  0  0  0  0  0  0  0  0
  186.4170  178.2740  144.0390 C   0  0  2  0  0  3  0  0  0  0  0  0
  185.3460  177.4580  140.8580 O   0  0  0  0  0  1  0  0  0  0  0  0
  187.7920  176.4310  144.7290 C   0  0  1  0  0  3  0  0  0  0  0  0
  1  6  1  0  0  0  0
  1 16  1  0  0  0  0
  2  8  1  0  0  0  0
  3 17  2  0  0  0  0
  4 20  1  0  0  0  0
  5 27  1  6  0  0  0
  5 24  1  0  0  0  0
  8 14  1  0  0  0  0
  8  7  1  0  0  0  0
  9 18  1  1  0  0  0
  9 14  1  0  0  0  0
 10  8  1  1  0  0  0
 11 15  1  0  0  0  0
 12 25  1  6  0  0  0
 12 28  1  0  0  0  0
 13  9  1  0  0  0  0
 15 19  1  0  0  0  0
 15 23  1  0  0  0  0
 16 28  1  0  0  0  0
 17  5  1  0  0  0  0
 17 25  1  0  0  0  0
 19 25  1  0  0  0  0
 20 16  2  0  0  0  0
 21  1  2  0  0  0  0
 22 21  1  0  0  0  0
 22  4  2  0  0  0  0
 23  6  1  0  0  0  0
 24 12  1  0  0  0  0
 24 26  1  0  0  0  0
 26 13  1  0  0  0  0
 26 10  1  0  0  0  0
 28 10  1  0  0  0  0
M  END
>  <MODEL>
1

>  <REMARK>
 VINA RESULT:      -8.6      0.000      0.000
  Name = 
  0 active torsions:
  status: ('A' for Active; 'I' for Inactive)
                            x       y       z     vdW  Elec       q    Type
                         _______ _______ _______ _____ _____    ______ ____

>  <TORSDO>
F 0

$$$$
=
 OpenBabel11112417403D

 28 32  0  0  1  0  0  0  0  0999 V2000
  189.8470  175.1080  146.7120 C   0  0  0  0  0  0  0  0  0  0  0  0
  185.1200  175.9480  145.1830 F   0  0  0  0  0  0  0  0  0  0  0  0
  190.9360  176.7850  142.5510 O   0  0  0  0  0  0  0  0  0  0  0  0
  190.7540  177.5200  147.8030 C   0  0  0  0  0  3  0  0  0  0  0  0
  188.8970  177.9720  143.0370 C   0  0  2  0  0  3  0  0  0  0  0  0
  189.4050  173.9280  146.1130 O   0  0  0  0  0  0  0  0  0  0  0  0
  185.0600  176.5890  147.3380 F   0  0  0  0  0  0  0  0  0  0  0  0
  185.3820  176.9940  146.0560 C   0  0  0  0  0  0  0  0  0  0  0  0
  184.9990  178.7450  144.3600 C   0  0  1  0  0  3  0  0  0  0  0  0
  186.8710  177.4020  146.0200 C   0  0  2  0  0  3  0  0  0  0  0  0
  191.8060  174.5830  144.2930 C   0  0  0  0  0  1  0  0  0  0  0  0
  187.9300  176.0650  144.2600 C   0  0  1  0  0  3  0  0  0  0  0  0
  186.2660  179.3260  144.5450 O   0  0  0  0  0  0  0  0  0  0  0  0
  184.4970  178.1700  145.6760 C   0  0  0  0  0  2  0  0  0  0  0  0
  190.6720  173.6890  144.0930 N   0  0  0  0  0  0  0  0  0  0  0  0
  189.0690  176.2680  146.5740 C   0  0  0  0  0  0  0  0  0  0  0  0
  189.8050  176.8080  143.1070 C   0  0  0  0  0  0  0  0  0  0  0  0
  184.1060  179.7160  143.9090 O   0  0  0  0  0  1  0  0  0  0  0  0
  189.5510  174.3240  143.3720 C   0  0  0  0  0  2  0  0  0  0  0  0
  189.5400  177.4760  147.1140 C   0  0  0  0  0  3  0  0  0  0  0  0
  191.0660  175.1560  147.4030 C   0  0  0  0  0  3  0  0  0  0  0  0
  191.5150  176.3580  147.9510 C   0  0  0  0  0  3  0  0  0  0  0  0
  190.2730  173.0810  145.3670 C   0  0  0  0  0  2  0  0  0  0  0  0
  187.6100  177.4470  143.6650 C   0  0  1  0  0  3  0  0  0  0  0  0
  189.2690  175.6970  143.8100 N   0  0  0  0  0  0  0  0  0  0  0  0
  187.2190  178.3220  144.8440 C   0  0  2  0  0  3  0  0  0  0  0  0
  188.6570  178.3060  141.7030 O   0  0  0  0  0  1  0  0  0  0  0  0
  187.7710  176.1880  145.7960 C   0  0  1  0  0  3  0  0  0  0  0  0
  1 21  1  0  0  0  0
  2  8  1  0  0  0  0
  3 17  2  0  0  0  0
  4 22  1  0  0  0  0
  5 27  1  6  0  0  0
  5 17  1  0  0  0  0
  5 24  1  0  0  0  0
  6  1  1  0  0  0  0
  8  7  1  0  0  0  0
  9 18  1  1  0  0  0
  9 13  1  0  0  0  0
  9 14  1  0  0  0  0
 10  8  1  6  0  0  0
 12 25  1  1  0  0  0
 12 28  1  0  0  0  0
 13 26  1  0  0  0  0
 14  8  1  0  0  0  0
 15 11  1  0  0  0  0
 15 23  1  0  0  0  0
 16  1  2  0  0  0  0
 16 20  1  0  0  0  0
 17 25  1  0  0  0  0
 19 25  1  0  0  0  0
 19 15  1  0  0  0  0
 20  4  2  0  0  0  0
 21 22  2  0  0  0  0
 23  6  1  0  0  0  0
 24 12  1  0  0  0  0
 24 26  1  0  0  0  0
 26 10  1  0  0  0  0
 28 10  1  0  0  0  0
 28 16  1  0  0  0  0
M  END
>  <MODEL>
2

>  <REMARK>
 VINA RESULT:      -8.6      2.089      2.480
  Name = 
  0 active torsions:
  status: ('A' for Active; 'I' for Inactive)
                            x       y       z     vdW  Elec       q    Type
                         _______ _______ _______ _____ _____    ______ ____

>  <TORSDO>
F 0

$$$$
=
 OpenBabel11112417403D

 28 32  0  0  1  0  0  0  0  0999 V2000
  190.3590  174.9220  142.3760 C   0  0  0  0  0  0  0  0  0  0  0  0
  187.4730  179.0400  142.0590 F   0  0  0  0  0  0  0  0  0  0  0  0
  189.4870  175.2960  146.8940 O   0  0  0  0  0  0  0  0  0  0  0  0
  188.6100  172.7380  142.3290 C   0  0  0  0  0  3  0  0  0  0  0  0
  187.4800  176.2180  145.9320 C   0  0  2  0  0  3  0  0  0  0  0  0
  191.2180  176.0190  142.4580 O   0  0  0  0  0  0  0  0  0  0  0  0
  186.8190  177.8430  140.2700 F   0  0  0  0  0  0  0  0  0  0  0  0
  186.6430  178.0140  141.6300 C   0  0  0  0  0  0  0  0  0  0  0  0
  184.9590  178.3960  143.3940 C   0  0  1  0  0  3  0  0  0  0  0  0
  186.9700  176.6850  142.3480 C   0  0  2  0  0  3  0  0  0  0  0  0
  191.7940  174.6860  145.1770 C   0  0  0  0  0  1  0  0  0  0  0  0
  188.6920  177.1860  144.0180 C   0  0  1  0  0  3  0  0  0  0  0  0
  185.0240  177.0730  143.8670 O   0  0  0  0  0  0  0  0  0  0  0  0
  185.2020  178.4210  141.8920 C   0  0  0  0  0  2  0  0  0  0  0  0
  192.0680  176.0350  144.6980 N   0  0  0  0  0  0  0  0  0  0  0  0
  188.9760  175.1390  142.4610 C   0  0  0  0  0  0  0  0  0  0  0  0
  188.9290  175.9290  145.9580 C   0  0  0  0  0  0  0  0  0  0  0  0
  183.6990  178.9240  143.6670 O   0  0  0  0  0  1  0  0  0  0  0  0
  191.0080  177.0010  145.0430 C   0  0  0  0  0  2  0  0  0  0  0  0
  188.1070  174.0350  142.4500 C   0  0  0  0  0  3  0  0  0  0  0  0
  190.8610  173.6180  142.2560 C   0  0  0  0  0  3  0  0  0  0  0  0
  189.9870  172.5300  142.2270 C   0  0  0  0  0  3  0  0  0  0  0  0
  192.3890  176.0100  143.2670 C   0  0  0  0  0  2  0  0  0  0  0  0
  187.3340  177.1610  144.7420 C   0  0  1  0  0  3  0  0  0  0  0  0
  189.6480  176.4760  144.8620 N   0  0  0  0  0  0  0  0  0  0  0  0
  186.3470  176.5810  143.7440 C   0  0  2  0  0  3  0  0  0  0  0  0
  187.1090  176.8860  147.0990 O   0  0  0  0  0  1  0  0  0  0  0  0
  188.4680  176.5590  142.6190 C   0  0  1  0  0  3  0  0  0  0  0  0
  1  6  1  0  0  0  0
  1 16  1  0  0  0  0
  4 20  1  0  0  0  0
  5 17  1  0  0  0  0
  5 27  1  1  0  0  0
  6 23  1  0  0  0  0
  7  8  1  0  0  0  0
  8 14  1  0  0  0  0
  8  2  1  0  0  0  0
  9 18  1  6  0  0  0
  9 13  1  0  0  0  0
 10  8  1  1  0  0  0
 10 28  1  0  0  0  0
 10 26  1  0  0  0  0
 12 24  1  0  0  0  0
 12 25  1  1  0  0  0
 14  9  1  0  0  0  0
 15 19  1  0  0  0  0
 15 11  1  0  0  0  0
 16 28  1  0  0  0  0
 17  3  2  0  0  0  0
 20 16  2  0  0  0  0
 21  1  2  0  0  0  0
 22 21  1  0  0  0  0
 22  4  2  0  0  0  0
 23 15  1  0  0  0  0
 24  5  1  0  0  0  0
 25 19  1  0  0  0  0
 25 17  1  0  0  0  0
 26 13  1  0  0  0  0
 26 24  1  0  0  0  0
 28 12  1  0  0  0  0
M  END
>  <MODEL>
3

>  <REMARK>
 VINA RESULT:      -8.3      2.526      4.261
  Name = 
  0 active torsions:
  status: ('A' for Active; 'I' for Inactive)
                            x       y       z     vdW  Elec       q    Type
                         _______ _______ _______ _____ _____    ______ ____

>  <TORSDO>
F 0

$$$$
=
 OpenBabel11112417403D

 28 32  0  0  1  0  0  0  0  0999 V2000
  191.0120  174.4690  143.1610 C   0  0  0  0  0  0  0  0  0  0  0  0
  187.7520  178.1910  144.1130 F   0  0  0  0  0  0  0  0  0  0  0  0
  193.0420  175.9620  147.0280 O   0  0  0  0  0  0  0  0  0  0  0  0
  190.1130  172.2530  144.6160 C   0  0  0  0  0  3  0  0  0  0  0  0
  190.7310  176.4860  147.4570 C   0  0  2  0  0  3  0  0  0  0  0  0
  191.4830  175.5950  142.4860 O   0  0  0  0  0  0  0  0  0  0  0  0
  186.4090  176.5320  143.4010 F   0  0  0  0  0  0  0  0  0  0  0  0
  187.0740  177.0430  144.5000 C   0  0  0  0  0  0  0  0  0  0  0  0
  186.7950  177.7780  146.8390 C   0  0  1  0  0  3  0  0  0  0  0  0
  188.0440  175.9690  145.0410 C   0  0  2  0  0  3  0  0  0  0  0  0
  193.8730  175.0550  144.3570 C   0  0  0  0  0  1  0  0  0  0  0  0
  190.2730  176.9860  145.0890 C   0  0  1  0  0  3  0  0  0  0  0  0
  187.4150  176.6310  147.3670 O   0  0  0  0  0  0  0  0  0  0  0  0
  186.0530  177.4230  145.5590 C   0  0  0  0  0  2  0  0  0  0  0  0
  193.5020  176.2450  143.6010 N   0  0  0  0  0  0  0  0  0  0  0  0
  189.9660  174.6220  144.0830 C   0  0  0  0  0  0  0  0  0  0  0  0
  191.9100  176.2960  146.5870 C   0  0  0  0  0  0  0  0  0  0  0  0
  185.8920  178.2880  147.7710 O   0  0  0  0  0  1  0  0  0  0  0  0
  192.7030  177.2060  144.3850 C   0  0  0  0  0  2  0  0  0  0  0  0
  189.5310  173.5070  144.8180 C   0  0  0  0  0  3  0  0  0  0  0  0
  191.5950  173.2090  142.9610 C   0  0  0  0  0  3  0  0  0  0  0  0
  191.1430  172.1040  143.6840 C   0  0  0  0  0  3  0  0  0  0  0  0
  192.8730  175.8640  142.3320 C   0  0  0  0  0  2  0  0  0  0  0  0
  189.6900  177.0750  146.5110 C   0  0  1  0  0  3  0  0  0  0  0  0
  191.6680  176.5770  145.2160 N   0  0  0  0  0  0  0  0  0  0  0  0
  188.4490  176.1990  146.5020 C   0  0  2  0  0  3  0  0  0  0  0  0
  191.0240  177.4150  148.4570 O   0  0  0  0  0  1  0  0  0  0  0  0
  189.3770  176.0030  144.2960 C   0  0  1  0  0  3  0  0  0  0  0  0
  1 16  1  0  0  0  0
  2  8  1  0  0  0  0
  4 20  1  0  0  0  0
  5 27  1  1  0  0  0
  6  1  1  0  0  0  0
  7  8  1  0  0  0  0
  8 14  1  0  0  0  0
  9 13  1  0  0  0  0
  9 18  1  1  0  0  0
 10  8  1  6  0  0  0
 10 26  1  0  0  0  0
 12 25  1  1  0  0  0
 12 24  1  0  0  0  0
 14  9  1  0  0  0  0
 15 11  1  0  0  0  0
 15 19  1  0  0  0  0
 16 28  1  0  0  0  0
 16 20  2  0  0  0  0
 17  3  2  0  0  0  0
 17  5  1  0  0  0  0
 19 25  1  0  0  0  0
 21  1  2  0  0  0  0
 21 22  1  0  0  0  0
 22  4  2  0  0  0  0
 23  6  1  0  0  0  0
 23 15  1  0  0  0  0
 24  5  1  0  0  0  0
 25 17  1  0  0  0  0
 26 24  1  0  0  0  0
 26 13  1  0  0  0  0
 28 10  1  0  0  0  0
 28 12  1  0  0  0  0
M  END
>  <MODEL>
4

>  <REMARK>
 VINA RESULT:      -8.3      2.901      4.827
  Name = 
  0 active torsions:
  status: ('A' for Active; 'I' for Inactive)
                            x       y       z     vdW  Elec       q    Type
                         _______ _______ _______ _____ _____    ______ ____

>  <TORSDO>
F 0

$$$$
=
 OpenBabel11112417403D

 28 32  0  0  1  0  0  0  0  0999 V2000
  191.8410  174.1520  143.3930 C   0  0  0  0  0  0  0  0  0  0  0  0
  189.1410  178.2160  142.1350 F   0  0  0  0  0  0  0  0  0  0  0  0
  191.9420  176.1510  147.5520 O   0  0  0  0  0  0  0  0  0  0  0  0
  190.0230  172.3020  144.4450 C   0  0  0  0  0  3  0  0  0  0  0  0
  189.8240  176.9130  146.6960 C   0  0  2  0  0  3  0  0  0  0  0  0
  192.7460  175.1020  142.9210 O   0  0  0  0  0  0  0  0  0  0  0  0
  188.0770  176.5620  141.0430 F   0  0  0  0  0  0  0  0  0  0  0  0
  188.1950  177.2090  142.2590 C   0  0  0  0  0  0  0  0  0  0  0  0
  186.9320  178.3650  144.0360 C   0  0  1  0  0  3  0  0  0  0  0  0
  188.6020  176.1790  143.3350 C   0  0  2  0  0  3  0  0  0  0  0  0
  193.8130  174.7270  145.7890 C   0  0  0  0  0  1  0  0  0  0  0  0
  190.6540  177.0190  144.3800 C   0  0  1  0  0  3  0  0  0  0  0  0
  187.0340  177.2870  144.9330 O   0  0  0  0  0  0  0  0  0  0  0  0
  186.8590  177.8450  142.6080 C   0  0  0  0  0  2  0  0  0  0  0  0
  194.0430  175.7870  144.8160 N   0  0  0  0  0  0  0  0  0  0  0  0
  190.5160  174.5430  143.6380 C   0  0  0  0  0  0  0  0  0  0  0  0
  191.2320  176.4850  146.5670 C   0  0  0  0  0  0  0  0  0  0  0  0
  185.7810  179.0980  144.3200 O   0  0  0  0  0  1  0  0  0  0  0  0
  193.1220  176.9290  144.9730 C   0  0  0  0  0  2  0  0  0  0  0  0
  189.6150  173.6110  144.1790 C   0  0  0  0  0  3  0  0  0  0  0  0
  192.2470  172.8370  143.6620 C   0  0  0  0  0  3  0  0  0  0  0  0
  191.3380  171.9140  144.1820 C   0  0  0  0  0  3  0  0  0  0  0  0
  194.0580  175.2360  143.4570 C   0  0  0  0  0  2  0  0  0  0  0  0
  189.4770  177.4010  145.2930 C   0  0  1  0  0  3  0  0  0  0  0  0
  191.7320  176.5360  145.2380 N   0  0  0  0  0  0  0  0  0  0  0  0
  188.2790  176.6330  144.7630 C   0  0  2  0  0  3  0  0  0  0  0  0
  189.7330  177.9800  147.5910 O   0  0  0  0  0  1  0  0  0  0  0  0
  190.1170  175.9800  143.3640 C   0  0  1  0  0  3  0  0  0  0  0  0
  1 16  2  0  0  0  0
  1 21  1  0  0  0  0
  2  8  1  0  0  0  0
  5 27  1  1  0  0  0
  6  1  1  0  0  0  0
  6 23  1  0  0  0  0
  7  8  1  0  0  0  0
  8 14  1  0  0  0  0
  9 18  1  1  0  0  0
  9 13  1  0  0  0  0
 10  8  1  6  0  0  0
 10 28  1  0  0  0  0
 10 26  1  0  0  0  0
 12 25  1  1  0  0  0
 12 24  1  0  0  0  0
 14  9  1  0  0  0  0
 15 19  1  0  0  0  0
 15 11  1  0  0  0  0
 16 20  1  0  0  0  0
 17  5  1  0  0  0  0
 17  3  2  0  0  0  0
 19 25  1  0  0  0  0
 20  4  2  0  0  0  0
 21 22  2  0  0  0  0
 22  4  1  0  0  0  0
 23 15  1  0  0  0  0
 24  5  1  0  0  0  0
 25 17  1  0  0  0  0
 26 13  1  0  0  0  0
 26 24  1  0  0  0  0
 28 16  1  0  0  0  0
 28 12  1  0  0  0  0
M  END
>  <MODEL>
5

>  <REMARK>
 VINA RESULT:      -8.0      3.042      4.982
  Name = 
  0 active torsions:
  status: ('A' for Active; 'I' for Inactive)
                            x       y       z     vdW  Elec       q    Type
                         _______ _______ _______ _____ _____    ______ ____

>  <TORSDO>
F 0

$$$$
=
 OpenBabel11112417403D

 28 32  0  0  1  0  0  0  0  0999 V2000
  189.1340  176.9950  145.2670 C   0  0  0  0  0  0  0  0  0  0  0  0
  194.1150  176.7420  144.5500 F   0  0  0  0  0  0  0  0  0  0  0  0
  189.0770  173.2780  142.5300 O   0  0  0  0  0  0  0  0  0  0  0  0
  188.5670  175.2900  147.4130 C   0  0  0  0  0  3  0  0  0  0  0  0
  191.2090  173.0440  143.6260 C   0  0  2  0  0  3  0  0  0  0  0  0
  189.4190  177.7960  144.1620 O   0  0  0  0  0  0  0  0  0  0  0  0
  193.9590  177.2810  146.7280 F   0  0  0  0  0  0  0  0  0  0  0  0
  193.9320  176.2330  145.8280 C   0  0  0  0  0  0  0  0  0  0  0  0
  194.9230  174.0370  145.2900 C   0  0  1  0  0  3  0  0  0  0  0  0
  192.5800  175.4970  145.9560 C   0  0  2  0  0  3  0  0  0  0  0  0
  187.5180  175.7490  142.8590 C   0  0  0  0  0  1  0  0  0  0  0  0
  191.5680  175.4790  143.7250 C   0  0  1  0  0  3  0  0  0  0  0  0
  193.7840  173.3230  145.7040 O   0  0  0  0  0  0  0  0  0  0  0  0
  195.0840  175.2900  146.1380 C   0  0  0  0  0  2  0  0  0  0  0  0
  188.4670  176.6820  142.2660 N   0  0  0  0  0  0  0  0  0  0  0  0
  190.1390  176.1580  145.7730 C   0  0  0  0  0  0  0  0  0  0  0  0
  190.0870  173.8180  143.0560 C   0  0  0  0  0  0  0  0  0  0  0  0
  196.0520  173.2340  145.4330 O   0  0  0  0  0  1  0  0  0  0  0  0
  189.7920  176.0840  142.0130 C   0  0  0  0  0  2  0  0  0  0  0  0
  189.8410  175.2960  146.8420 C   0  0  0  0  0  3  0  0  0  0  0  0
  187.8550  176.9860  145.8430 C   0  0  0  0  0  3  0  0  0  0  0  0
  187.5750  176.1390  146.9170 C   0  0  0  0  0  3  0  0  0  0  0  0
  188.5280  177.9160  143.0580 C   0  0  0  0  0  2  0  0  0  0  0  0
  192.2490  174.1160  143.9370 C   0  0  1  0  0  3  0  0  0  0  0  0
  190.2710  175.2260  143.1050 N   0  0  0  0  0  0  0  0  0  0  0  0
  192.6150  174.0650  145.4110 C   0  0  2  0  0  3  0  0  0  0  0  0
  191.7200  172.1720  142.6640 O   0  0  0  0  0  1  0  0  0  0  0  0
  191.5020  176.1720  145.1090 C   0  0  1  0  0  3  0  0  0  0  0  0
  1 16  2  0  0  0  0
  1 21  1  0  0  0  0
  2  8  1  0  0  0  0
  3 17  2  0  0  0  0
  5 27  1  6  0  0  0
  5 24  1  0  0  0  0
  6  1  1  0  0  0  0
  8 14  1  0  0  0  0
  8  7  1  0  0  0  0
  9 18  1  1  0  0  0
  9 13  1  0  0  0  0
  9 14  1  0  0  0  0
 10  8  1  6  0  0  0
 12 25  1  1  0  0  0
 12 24  1  0  0  0  0
 12 28  1  0  0  0  0
 15 11  1  0  0  0  0
 15 23  1  0  0  0  0
 16 20  1  0  0  0  0
 17 25  1  0  0  0  0
 17  5  1  0  0  0  0
 19 15  1  0  0  0  0
 19 25  1  0  0  0  0
 20  4  2  0  0  0  0
 21 22  2  0  0  0  0
 22  4  1  0  0  0  0
 23  6  1  0  0  0  0
 24 26  1  0  0  0  0
 26 13  1  0  0  0  0
 26 10  1  0  0  0  0
 28 16  1  0  0  0  0
 28 10  1  0  0  0  0
M  END
>  <MODEL>
6

>  <REMARK>
 VINA RESULT:      -7.9      3.366      6.655
  Name = 
  0 active torsions:
  status: ('A' for Active; 'I' for Inactive)
                            x       y       z     vdW  Elec       q    Type
                         _______ _______ _______ _____ _____    ______ ____

>  <TORSDO>
F 0

$$$$
=
 OpenBabel11112417403D

 28 32  0  0  1  0  0  0  0  0999 V2000
  188.4510  177.2820  144.7280 C   0  0  0  0  0  0  0  0  0  0  0  0
  193.1530  176.7910  142.9860 F   0  0  0  0  0  0  0  0  0  0  0  0
  187.6780  173.4960  142.2040 O   0  0  0  0  0  0  0  0  0  0  0  0
  188.2900  175.6650  147.0070 C   0  0  0  0  0  3  0  0  0  0  0  0
  189.9840  173.2000  142.8330 C   0  0  2  0  0  3  0  0  0  0  0  0
  188.5240  178.0390  143.5590 O   0  0  0  0  0  0  0  0  0  0  0  0
  193.4840  177.3980  145.1260 F   0  0  0  0  0  0  0  0  0  0  0  0
  193.2280  176.3270  144.2910 C   0  0  0  0  0  0  0  0  0  0  0  0
  194.0000  174.0760  143.6370 C   0  0  1  0  0  3  0  0  0  0  0  0
  191.9080  175.6550  144.7290 C   0  0  2  0  0  3  0  0  0  0  0  0
  186.3160  176.0410  142.7630 C   0  0  0  0  0  1  0  0  0  0  0  0
  190.4450  175.6190  142.7640 C   0  0  1  0  0  3  0  0  0  0  0  0
  192.9500  173.4240  144.3090 O   0  0  0  0  0  0  0  0  0  0  0  0
  194.3840  175.3440  144.3860 C   0  0  0  0  0  2  0  0  0  0  0  0
  187.1510  176.9150  141.9490 N   0  0  0  0  0  0  0  0  0  0  0  0
  189.5100  176.4170  145.0410 C   0  0  0  0  0  0  0  0  0  0  0  0
  188.7950  174.0060  142.4850 C   0  0  0  0  0  0  0  0  0  0  0  0
  195.1040  173.2280  143.5690 O   0  0  0  0  0  1  0  0  0  0  0  0
  188.3690  176.2510  141.4440 C   0  0  0  0  0  2  0  0  0  0  0  0
  189.4140  175.6000  146.1790 C   0  0  0  0  0  3  0  0  0  0  0  0
  187.3240  177.3450  145.5610 C   0  0  0  0  0  3  0  0  0  0  0  0
  187.2480  176.5420  146.7000 C   0  0  0  0  0  3  0  0  0  0  0  0
  187.4250  178.1660  142.6640 C   0  0  0  0  0  2  0  0  0  0  0  0
  191.1050  174.2330  142.8780 C   0  0  1  0  0  3  0  0  0  0  0  0
  189.0370  175.4050  142.4410 N   0  0  0  0  0  0  0  0  0  0  0  0
  191.7730  174.2080  144.2420 C   0  0  2  0  0  3  0  0  0  0  0  0
  190.2460  172.2790  141.8180 O   0  0  0  0  0  1  0  0  0  0  0  0
  190.7000  176.3520  144.1040 C   0  0  1  0  0  3  0  0  0  0  0  0
  1 16  2  0  0  0  0
  1 21  1  0  0  0  0
  2  8  1  0  0  0  0
  3 17  2  0  0  0  0
  5 27  1  6  0  0  0
  5 24  1  0  0  0  0
  6  1  1  0  0  0  0
  8 14  1  0  0  0  0
  8  7  1  0  0  0  0
  9 18  1  1  0  0  0
  9 13  1  0  0  0  0
  9 14  1  0  0  0  0
 10  8  1  6  0  0  0
 12 25  1  1  0  0  0
 12 24  1  0  0  0  0
 12 28  1  0  0  0  0
 15 23  1  0  0  0  0
 15 11  1  0  0  0  0
 16 20  1  0  0  0  0
 17  5  1  0  0  0  0
 19 15  1  0  0  0  0
 19 25  1  0  0  0  0
 20  4  2  0  0  0  0
 21 22  2  0  0  0  0
 22  4  1  0  0  0  0
 23  6  1  0  0  0  0
 24 26  1  0  0  0  0
 25 17  1  0  0  0  0
 26 13  1  0  0  0  0
 26 10  1  0  0  0  0
 28 10  1  0  0  0  0
 28 16  1  0  0  0  0
M  END
>  <MODEL>
7

>  <REMARK>
 VINA RESULT:      -7.8      2.982      6.204
  Name = 
  0 active torsions:
  status: ('A' for Active; 'I' for Inactive)
                            x       y       z     vdW  Elec       q    Type
                         _______ _______ _______ _____ _____    ______ ____

>  <TORSDO>
F 0

$$$$
=
 OpenBabel11112417403D

 28 32  0  0  1  0  0  0  0  0999 V2000
  190.2540  175.9810  144.8800 C   0  0  0  0  0  0  0  0  0  0  0  0
  185.3420  176.6850  144.0010 F   0  0  0  0  0  0  0  0  0  0  0  0
  190.1530  173.8740  140.7740 O   0  0  0  0  0  0  0  0  0  0  0  0
  191.5820  178.1070  143.6360 C   0  0  0  0  0  3  0  0  0  0  0  0
  188.4220  175.5290  140.5160 C   0  0  2  0  0  3  0  0  0  0  0  0
  189.5870  174.8940  145.4470 O   0  0  0  0  0  0  0  0  0  0  0  0
  185.9620  178.6420  144.9200 F   0  0  0  0  0  0  0  0  0  0  0  0
  185.9120  177.9230  143.7410 C   0  0  0  0  0  0  0  0  0  0  0  0
  185.1440  177.9830  141.3960 C   0  0  1  0  0  3  0  0  0  0  0  0
  187.3440  177.7800  143.1800 C   0  0  2  0  0  3  0  0  0  0  0  0
  191.3720  173.4220  143.4100 C   0  0  0  0  0  1  0  0  0  0  0  0
  187.7540  175.3830  142.8820 C   0  0  1  0  0  3  0  0  0  0  0  0
  186.4400  178.1690  140.8830 O   0  0  0  0  0  0  0  0  0  0  0  0
  185.0230  178.6610  142.7530 C   0  0  0  0  0  2  0  0  0  0  0  0
  190.1810  172.9840  144.1260 N   0  0  0  0  0  0  0  0  0  0  0  0
  189.5390  176.8510  144.0450 C   0  0  0  0  0  0  0  0  0  0  0  0
  189.2420  174.5740  141.2910 C   0  0  0  0  0  0  0  0  0  0  0  0
  184.2140  178.5380  140.5180 O   0  0  0  0  0  1  0  0  0  0  0  0
  188.9360  173.1860  143.3610 C   0  0  0  0  0  2  0  0  0  0  0  0
  190.2170  177.9080  143.4140 C   0  0  0  0  0  3  0  0  0  0  0  0
  191.6240  176.1840  145.1010 C   0  0  0  0  0  3  0  0  0  0  0  0
  192.2840  177.2470  144.4840 C   0  0  0  0  0  3  0  0  0  0  0  0
  190.1440  173.5840  145.4650 C   0  0  0  0  0  2  0  0  0  0  0  0
  187.3510  175.9590  141.5140 C   0  0  1  0  0  3  0  0  0  0  0  0
  188.8750  174.4760  142.6590 N   0  0  0  0  0  0  0  0  0  0  0  0
  187.3790  177.4690  141.6790 C   0  0  2  0  0  3  0  0  0  0  0  0
  187.8160  174.8730  139.4440 O   0  0  0  0  0  1  0  0  0  0  0  0
  188.0650  176.5870  143.8050 C   0  0  1  0  0  3  0  0  0  0  0  0
  1 21  1  0  0  0  0
  1  6  1  0  0  0  0
  3 17  2  0  0  0  0
  4 22  1  0  0  0  0
  5 27  1  6  0  0  0
  5 17  1  0  0  0  0
  5 24  1  0  0  0  0
  6 23  1  0  0  0  0
  8  2  1  0  0  0  0
  8  7  1  0  0  0  0
  9 18  1  6  0  0  0
  9 14  1  0  0  0  0
 10  8  1  1  0  0  0
 10 28  1  0  0  0  0
 11 15  1  0  0  0  0
 12 25  1  6  0  0  0
 12 28  1  0  0  0  0
 13  9  1  0  0  0  0
 13 26  1  0  0  0  0
 14  8  1  0  0  0  0
 15 23  1  0  0  0  0
 16  1  2  0  0  0  0
 17 25  1  0  0  0  0
 19 15  1  0  0  0  0
 20  4  2  0  0  0  0
 20 16  1  0  0  0  0
 22 21  2  0  0  0  0
 24 26  1  0  0  0  0
 24 12  1  0  0  0  0
 25 19  1  0  0  0  0
 26 10  1  0  0  0  0
 28 16  1  0  0  0  0
M  END
>  <MODEL>
8

>  <REMARK>
 VINA RESULT:      -7.8      1.900      2.553
  Name = 
  0 active torsions:
  status: ('A' for Active; 'I' for Inactive)
                            x       y       z     vdW  Elec       q    Type
                         _______ _______ _______ _____ _____    ______ ____

>  <TORSDO>
F 0

$$$$
=
 OpenBabel11112417403D

 28 32  0  0  1  0  0  0  0  0999 V2000
  191.1280  173.9820  141.9930 C   0  0  0  0  0  0  0  0  0  0  0  0
  188.8910  178.4960  141.8600 F   0  0  0  0  0  0  0  0  0  0  0  0
  191.8230  175.0390  146.4320 O   0  0  0  0  0  0  0  0  0  0  0  0
  189.1740  172.1680  142.8420 C   0  0  0  0  0  3  0  0  0  0  0  0
  189.7610  176.1950  145.9730 C   0  0  2  0  0  3  0  0  0  0  0  0
  192.1090  174.9030  141.6270 O   0  0  0  0  0  0  0  0  0  0  0  0
  187.5360  177.2380  140.5790 F   0  0  0  0  0  0  0  0  0  0  0  0
  187.8350  177.5970  141.8800 C   0  0  0  0  0  0  0  0  0  0  0  0
  186.8810  178.4880  143.9750 C   0  0  1  0  0  3  0  0  0  0  0  0
  188.1890  176.3250  142.6810 C   0  0  2  0  0  3  0  0  0  0  0  0
  193.3440  173.8170  144.2340 C   0  0  0  0  0  1  0  0  0  0  0  0
  190.4100  176.6920  143.6490 C   0  0  1  0  0  3  0  0  0  0  0  0
  186.9120  177.2400  144.6240 O   0  0  0  0  0  0  0  0  0  0  0  0
  186.6260  178.2900  142.4880 C   0  0  0  0  0  2  0  0  0  0  0  0
  193.6320  175.0260  143.4730 N   0  0  0  0  0  0  0  0  0  0  0  0
  189.8900  174.4590  142.4490 C   0  0  0  0  0  0  0  0  0  0  0  0
  191.0860  175.6500  145.6130 C   0  0  0  0  0  0  0  0  0  0  0  0
  185.8620  179.2670  144.5190 O   0  0  0  0  0  1  0  0  0  0  0  0
  192.8840  176.2050  143.9500 C   0  0  0  0  0  2  0  0  0  0  0  0
  188.9210  173.5410  142.8860 C   0  0  0  0  0  3  0  0  0  0  0  0
  191.3790  172.6030  141.9510 C   0  0  0  0  0  3  0  0  0  0  0  0
  190.4020  171.6990  142.3700 C   0  0  0  0  0  3  0  0  0  0  0  0
  193.4660  174.7740  142.0370 C   0  0  0  0  0  2  0  0  0  0  0  0
  189.3700  177.0030  144.7400 C   0  0  1  0  0  3  0  0  0  0  0  0
  191.4800  175.9220  144.2760 N   0  0  0  0  0  0  0  0  0  0  0  0
  188.0430  176.5020  144.1970 C   0  0  2  0  0  3  0  0  0  0  0  0
  189.8830  177.0530  147.0670 O   0  0  0  0  0  1  0  0  0  0  0  0
  189.6620  175.9560  142.5090 C   0  0  1  0  0  3  0  0  0  0  0  0
  1 16  1  0  0  0  0
  2  8  1  0  0  0  0
  4 20  1  0  0  0  0
  5 27  1  1  0  0  0
  6  1  1  0  0  0  0
  6 23  1  0  0  0  0
  7  8  1  0  0  0  0
  8 14  1  0  0  0  0
  9 18  1  1  0  0  0
  9 13  1  0  0  0  0
 10  8  1  6  0  0  0
 10 26  1  0  0  0  0
 12 25  1  1  0  0  0
 12 24  1  0  0  0  0
 14  9  1  0  0  0  0
 15 19  1  0  0  0  0
 15 11  1  0  0  0  0
 16 28  1  0  0  0  0
 16 20  2  0  0  0  0
 17  5  1  0  0  0  0
 17  3  2  0  0  0  0
 19 25  1  0  0  0  0
 21  1  2  0  0  0  0
 21 22  1  0  0  0  0
 22  4  2  0  0  0  0
 23 15  1  0  0  0  0
 24  5  1  0  0  0  0
 25 17  1  0  0  0  0
 26 13  1  0  0  0  0
 26 24  1  0  0  0  0
 28 10  1  0  0  0  0
 28 12  1  0  0  0  0
M  END
>  <MODEL>
9

>  <REMARK>
 VINA RESULT:      -7.5      2.779      4.762
  Name = 
  0 active torsions:
  status: ('A' for Active; 'I' for Inactive)
                            x       y       z     vdW  Elec       q    Type
                         _______ _______ _______ _____ _____    ______ ____

>  <TORSDO>
F 0

$$$$
