=
 OpenBabel11112416353D

 32 37  0  0  1  0  0  0  0  0999 V2000
  191.5710  170.8750  142.6780 C   0  0  0  0  0  2  0  0  0  0  0  0
  189.6350  175.5340  143.2700 C   0  0  1  0  0  3  0  0  0  0  0  0
  191.7350  176.2610  147.6930 C   0  0  0  0  0  3  0  0  0  0  0  0
  190.8180  177.2760  147.9700 C   0  0  0  0  0  3  0  0  0  0  0  0
  187.3480  176.6110  142.7430 C   0  0  1  0  0  3  0  0  0  0  0  0
  186.1260  177.1400  143.4370 C   0  0  0  0  0  0  0  0  0  0  0  0
  190.2840  173.3110  142.2770 C   0  0  1  0  0  3  0  0  0  0  0  0
  189.9310  173.6170  144.7540 O   0  0  0  0  0  0  0  0  0  0  0  0
  184.7790  177.9640  145.0590 C   0  0  0  0  0  0  0  0  0  0  0  0
  191.1230  171.5960  143.9650 C   0  0  2  0  0  3  0  0  0  0  0  0
  191.6060  175.5030  146.5280 C   0  0  0  0  0  3  0  0  0  0  0  0
  190.4540  174.8840  144.4110 C   0  0  2  0  0  3  0  0  0  0  0  0
  190.5580  175.7490  145.6330 C   0  0  0  0  0  0  0  0  0  0  0  0
  188.5260  177.1200  144.9330 C   0  0  2  0  0  3  0  0  0  0  0  0
  184.3370  178.4080  143.9290 N   0  0  0  0  0  0  0  0  0  0  0  0
  190.4610  170.8480  141.6190 C   0  0  0  0  0  2  0  0  0  0  0  0
  190.0930  172.7000  143.6770 C   0  0  2  0  0  3  0  0  0  0  0  0
  185.1920  177.9120  142.9040 C   0  0  0  0  0  3  0  0  0  0  0  0
  190.0300  172.2630  141.1920 C   0  0  0  0  0  2  0  0  0  0  0  0
  189.7680  177.5270  147.0850 C   0  0  0  0  0  3  0  0  0  0  0  0
  189.6080  176.7560  145.9230 C   0  0  0  0  0  0  0  0  0  0  0  0
  187.2070  177.5590  145.6230 C   0  0  0  0  0  2  0  0  0  0  0  0
  189.3870  174.5300  142.1290 C   0  0  0  0  0  2  0  0  0  0  0  0
  188.1340  177.9070  141.7870 Cl  0  0  0  0  0  0  0  0  0  0  0  0
  184.1060  178.2650  146.3520 C   0  0  0  0  0  1  0  0  0  0  0  0
  188.3080  176.0650  143.8230 C   0  0  2  0  0  3  0  0  0  0  0  0
  185.9460  177.0500  144.9120 C   0  0  2  0  0  3  0  0  0  0  0  0
  192.2420  172.1260  144.6190 O   0  0  0  0  0  0  0  0  0  0  0  0
  193.2640  171.9980  143.7370 N   0  0  0  0  0  2  0  0  0  0  0  0
  194.2020  173.0520  143.5180 C   0  0  0  0  0  0  0  0  0  0  0  0
  195.1330  172.8970  142.6880 O   0  0  0  0  0  0  0  0  0  0  0  0
  194.0920  174.2770  144.2340 N   0  0  0  0  0  1  0  0  0  0  0  0
  1 10  1  0  0  0  0
  2 23  1  6  0  0  0
  2 26  1  0  0  0  0
  2 12  1  0  0  0  0
  3  4  1  0  0  0  0
  5 24  1  1  0  0  0
  5  6  1  0  0  0  0
  5 26  1  0  0  0  0
  6 27  1  0  0  0  0
  7 19  1  6  0  0  0
  7 17  1  0  0  0  0
  9 25  1  0  0  0  0
 10 28  1  6  0  0  0
 11  3  2  0  0  0  0
 12  8  1  1  0  0  0
 12 13  1  0  0  0  0
 13 21  2  0  0  0  0
 13 11  1  0  0  0  0
 14 22  1  1  0  0  0
 14 21  1  0  0  0  0
 15  9  2  0  0  0  0
 16  1  1  0  0  0  0
 17 10  1  0  0  0  0
 17  8  1  1  0  0  0
 18  6  2  0  0  0  0
 18 15  1  0  0  0  0
 19 16  1  0  0  0  0
 20  4  2  0  0  0  0
 21 20  1  0  0  0  0
 23  7  1  0  0  0  0
 26 14  1  0  0  0  0
 27  9  1  0  0  0  0
 27 22  1  0  0  0  0
 29 28  1  0  0  0  0
 30 29  1  0  0  0  0
 30 32  1  0  0  0  0
 31 30  2  0  0  0  0
M  END
>  <MODEL>
1

>  <REMARK>
 VINA RESULT:      -8.7      0.000      0.000
  Name = 
  2 active torsions:
  status: ('A' for Active; 'I' for Inactive)
    1  A    between atoms: C_10  and  O_20
    2  A    between atoms: O_20  and  N_29
                            x       y       z     vdW  Elec       q    Type
                         _______ _______ _______ _____ _____    ______ ____

>  <TORSDO>
F 2

$$$$
=
 OpenBabel11112416353D

 32 37  0  0  1  0  0  0  0  0999 V2000
  190.4990  171.4880  140.7670 C   0  0  0  0  0  2  0  0  0  0  0  0
  189.0250  175.9630  142.6680 C   0  0  1  0  0  3  0  0  0  0  0  0
  191.7150  175.5260  146.8000 C   0  0  0  0  0  3  0  0  0  0  0  0
  190.9230  176.4890  147.4270 C   0  0  0  0  0  3  0  0  0  0  0  0
  186.7810  177.2390  142.7270 C   0  0  1  0  0  3  0  0  0  0  0  0
  185.7020  177.6470  143.6870 C   0  0  0  0  0  0  0  0  0  0  0  0
  189.3660  174.0080  141.1150 C   0  0  1  0  0  3  0  0  0  0  0  0
  189.3530  173.7380  143.6210 O   0  0  0  0  0  0  0  0  0  0  0  0
  184.6380  178.1290  145.6280 C   0  0  0  0  0  0  0  0  0  0  0  0
  190.2740  171.9060  142.2340 C   0  0  2  0  0  3  0  0  0  0  0  0
  191.3810  175.0720  145.5230 C   0  0  0  0  0  3  0  0  0  0  0  0
  189.9260  175.0240  143.5040 C   0  0  2  0  0  3  0  0  0  0  0  0
  190.2510  175.5710  144.8640 C   0  0  0  0  0  0  0  0  0  0  0  0
  188.2620  177.1620  144.7880 C   0  0  2  0  0  3  0  0  0  0  0  0
  184.0930  178.8460  144.7010 N   0  0  0  0  0  0  0  0  0  0  0  0
  189.2650  171.7640  139.8970 C   0  0  0  0  0  2  0  0  0  0  0  0
  189.3060  173.0940  142.3520 C   0  0  2  0  0  3  0  0  0  0  0  0
  184.7710  178.5660  143.4810 C   0  0  0  0  0  3  0  0  0  0  0  0
  188.8960  173.2590  139.8670 C   0  0  0  0  0  2  0  0  0  0  0  0
  189.7930  176.9910  146.7790 C   0  0  0  0  0  3  0  0  0  0  0  0
  189.4280  176.5240  145.5060 C   0  0  0  0  0  0  0  0  0  0  0  0
  187.0790  177.4880  145.7370 C   0  0  0  0  0  2  0  0  0  0  0  0
  188.5570  175.2680  141.3760 C   0  0  0  0  0  2  0  0  0  0  0  0
  187.5400  178.6860  141.9890 Cl  0  0  0  0  0  0  0  0  0  0  0  0
  184.1590  178.1470  147.0370 C   0  0  0  0  0  1  0  0  0  0  0  0
  187.8230  176.4100  143.5080 C   0  0  2  0  0  3  0  0  0  0  0  0
  185.7020  177.2210  145.1140 C   0  0  2  0  0  3  0  0  0  0  0  0
  191.5040  172.2130  142.8270 O   0  0  0  0  0  0  0  0  0  0  0  0
  192.0070  171.0230  143.2410 N   0  0  0  0  0  2  0  0  0  0  0  0
  192.9650  170.9400  144.2970 C   0  0  0  0  0  0  0  0  0  0  0  0
  193.4110  169.8180  144.6480 O   0  0  0  0  0  0  0  0  0  0  0  0
  193.4170  172.1170  144.9560 N   0  0  0  0  0  1  0  0  0  0  0  0
  1 10  1  0  0  0  0
  2 23  1  6  0  0  0
  2 12  1  0  0  0  0
  2 26  1  0  0  0  0
  3  4  1  0  0  0  0
  5 24  1  1  0  0  0
  5 26  1  0  0  0  0
  5  6  1  0  0  0  0
  6 27  1  0  0  0  0
  7 19  1  6  0  0  0
  7 23  1  0  0  0  0
  7 17  1  0  0  0  0
  9 25  1  0  0  0  0
 10 17  1  0  0  0  0
 10 28  1  6  0  0  0
 11  3  2  0  0  0  0
 12  8  1  1  0  0  0
 12 13  1  0  0  0  0
 13 21  2  0  0  0  0
 13 11  1  0  0  0  0
 14 21  1  0  0  0  0
 14 22  1  1  0  0  0
 15  9  2  0  0  0  0
 16  1  1  0  0  0  0
 17  8  1  1  0  0  0
 18  6  2  0  0  0  0
 18 15  1  0  0  0  0
 19 16  1  0  0  0  0
 20  4  2  0  0  0  0
 21 20  1  0  0  0  0
 26 14  1  0  0  0  0
 27  9  1  0  0  0  0
 27 22  1  0  0  0  0
 28 29  1  0  0  0  0
 29 30  1  0  0  0  0
 30 31  2  0  0  0  0
 30 32  1  0  0  0  0
M  END
>  <MODEL>
2

>  <REMARK>
 VINA RESULT:      -8.4      1.328      1.525
  Name = 
  2 active torsions:
  status: ('A' for Active; 'I' for Inactive)
    1  A    between atoms: C_10  and  O_20
    2  A    between atoms: O_20  and  N_29
                            x       y       z     vdW  Elec       q    Type
                         _______ _______ _______ _____ _____    ______ ____

>  <TORSDO>
F 2

$$$$
=
 OpenBabel11112416353D

 32 37  0  0  1  0  0  0  0  0999 V2000
  195.1730  176.3510  144.8910 C   0  0  0  0  0  2  0  0  0  0  0  0
  190.1700  175.7140  145.4970 C   0  0  1  0  0  3  0  0  0  0  0  0
  189.4330  174.0710  140.8870 C   0  0  0  0  0  3  0  0  0  0  0  0
  188.0740  174.3730  140.9870 C   0  0  0  0  0  3  0  0  0  0  0  0
  188.3180  177.0610  146.6910 C   0  0  1  0  0  3  0  0  0  0  0  0
  187.1240  177.9170  146.3830 C   0  0  0  0  0  0  0  0  0  0  0  0
  192.6060  176.1700  145.9530 C   0  0  1  0  0  3  0  0  0  0  0  0
  191.5630  176.6070  143.7010 O   0  0  0  0  0  0  0  0  0  0  0  0
  185.3890  178.8410  145.2590 C   0  0  0  0  0  0  0  0  0  0  0  0
  194.0310  176.5200  143.8690 C   0  0  2  0  0  3  0  0  0  0  0  0
  190.3050  174.4290  141.9160 C   0  0  0  0  0  3  0  0  0  0  0  0
  190.8200  175.4780  144.1130 C   0  0  2  0  0  3  0  0  0  0  0  0
  189.8290  175.0940  143.0510 C   0  0  0  0  0  0  0  0  0  0  0  0
  187.8910  176.0530  144.4000 C   0  0  2  0  0  3  0  0  0  0  0  0
  185.0880  178.8620  146.5160 N   0  0  0  0  0  0  0  0  0  0  0  0
  194.9410  177.1890  146.1550 C   0  0  0  0  0  2  0  0  0  0  0  0
  192.6840  176.8060  144.5540 C   0  0  2  0  0  3  0  0  0  0  0  0
  186.1650  178.2620  147.2290 C   0  0  0  0  0  3  0  0  0  0  0  0
  193.6460  176.7910  146.8880 C   0  0  0  0  0  2  0  0  0  0  0  0
  187.5900  175.0390  142.1150 C   0  0  0  0  0  3  0  0  0  0  0  0
  188.4590  175.4300  143.1470 C   0  0  0  0  0  0  0  0  0  0  0  0
  186.7290  177.0380  144.1040 C   0  0  0  0  0  2  0  0  0  0  0  0
  191.1900  176.3010  146.4900 C   0  0  0  0  0  2  0  0  0  0  0  0
  187.8260  175.6200  147.6370 Cl  0  0  0  0  0  0  0  0  0  0  0  0
  184.4960  179.4160  144.2160 C   0  0  0  0  0  1  0  0  0  0  0  0
  188.9600  176.6440  145.3500 C   0  0  2  0  0  3  0  0  0  0  0  0
  186.7470  178.2900  144.9920 C   0  0  2  0  0  3  0  0  0  0  0  0
  193.9430  175.3730  143.0710 O   0  0  0  0  0  0  0  0  0  0  0  0
  194.7770  174.4720  143.6490 N   0  0  0  0  0  2  0  0  0  0  0  0
  194.3570  173.1380  143.9360 C   0  0  0  0  0  0  0  0  0  0  0  0
  195.1580  172.3330  144.4770 O   0  0  0  0  0  0  0  0  0  0  0  0
  193.0380  172.7100  143.6120 N   0  0  0  0  0  1  0  0  0  0  0  0
  1 16  1  0  0  0  0
  2 23  1  1  0  0  0
  3  4  2  0  0  0  0
  3 11  1  0  0  0  0
  4 20  1  0  0  0  0
  5 24  1  6  0  0  0
  6  5  1  0  0  0  0
  6 18  2  0  0  0  0
  7 23  1  1  0  0  0
  7 19  1  0  0  0  0
  8 12  1  0  0  0  0
  9 15  2  0  0  0  0
 10 28  1  1  0  0  0
 10 17  1  0  0  0  0
 10  1  1  0  0  0  0
 11 13  2  0  0  0  0
 12 13  1  6  0  0  0
 12  2  1  0  0  0  0
 13 21  1  0  0  0  0
 14 22  1  6  0  0  0
 14 26  1  0  0  0  0
 15 18  1  0  0  0  0
 16 19  1  0  0  0  0
 17  8  1  6  0  0  0
 17  7  1  0  0  0  0
 20 21  2  0  0  0  0
 21 14  1  0  0  0  0
 22 27  1  0  0  0  0
 25  9  1  0  0  0  0
 26  2  1  0  0  0  0
 26  5  1  0  0  0  0
 27  9  1  0  0  0  0
 27  6  1  0  0  0  0
 28 29  1  0  0  0  0
 29 30  1  0  0  0  0
 30 31  2  0  0  0  0
 32 30  1  0  0  0  0
M  END
>  <MODEL>
3

>  <REMARK>
 VINA RESULT:      -8.3      2.171      4.559
  Name = 
  2 active torsions:
  status: ('A' for Active; 'I' for Inactive)
    1  A    between atoms: C_10  and  O_20
    2  A    between atoms: O_20  and  N_29
                            x       y       z     vdW  Elec       q    Type
                         _______ _______ _______ _____ _____    ______ ____

>  <TORSDO>
F 2

$$$$
=
 OpenBabel11112416353D

 32 37  0  0  1  0  0  0  0  0999 V2000
  195.1960  176.2860  144.9360 C   0  0  0  0  0  2  0  0  0  0  0  0
  190.1750  175.6980  145.4390 C   0  0  1  0  0  3  0  0  0  0  0  0
  189.5320  173.9680  140.8460 C   0  0  0  0  0  3  0  0  0  0  0  0
  188.1740  174.2820  140.9100 C   0  0  0  0  0  3  0  0  0  0  0  0
  188.3070  177.0830  146.5620 C   0  0  1  0  0  3  0  0  0  0  0  0
  187.1270  177.9420  146.2100 C   0  0  0  0  0  0  0  0  0  0  0  0
  192.6040  176.1450  145.9420 C   0  0  1  0  0  3  0  0  0  0  0  0
  191.6170  176.5440  143.6580 O   0  0  0  0  0  0  0  0  0  0  0  0
  185.4260  178.8550  145.0270 C   0  0  0  0  0  0  0  0  0  0  0  0
  194.0800  176.4420  143.8850 C   0  0  2  0  0  3  0  0  0  0  0  0
  190.3830  174.3400  141.8880 C   0  0  0  0  0  3  0  0  0  0  0  0
  190.8550  175.4300  144.0750 C   0  0  2  0  0  3  0  0  0  0  0  0
  189.8870  175.0320  142.9990 C   0  0  0  0  0  0  0  0  0  0  0  0
  187.9250  176.0320  144.2820 C   0  0  2  0  0  3  0  0  0  0  0  0
  185.0970  178.9040  146.2760 N   0  0  0  0  0  0  0  0  0  0  0  0
  194.9410  177.1510  146.1780 C   0  0  0  0  0  2  0  0  0  0  0  0
  192.7200  176.7520  144.5320 C   0  0  2  0  0  3  0  0  0  0  0  0
  186.1520  178.3110  147.0260 C   0  0  0  0  0  3  0  0  0  0  0  0
  193.6270  176.7770  146.8880 C   0  0  0  0  0  2  0  0  0  0  0  0
  187.6690  174.9740  142.0120 C   0  0  0  0  0  3  0  0  0  0  0  0
  188.5170  175.3790  143.0560 C   0  0  0  0  0  0  0  0  0  0  0  0
  186.7780  177.0200  143.9410 C   0  0  0  0  0  2  0  0  0  0  0  0
  191.1770  176.2980  146.4440 C   0  0  0  0  0  2  0  0  0  0  0  0
  187.7820  175.6650  147.5260 Cl  0  0  0  0  0  0  0  0  0  0  0  0
  184.5620  179.4150  143.9520 C   0  0  0  0  0  1  0  0  0  0  0  0
  188.9770  176.6340  145.2450 C   0  0  2  0  0  3  0  0  0  0  0  0
  186.7860  178.2890  144.8040 C   0  0  2  0  0  3  0  0  0  0  0  0
  194.0000  175.2800  143.1090 O   0  0  0  0  0  0  0  0  0  0  0  0
  194.3540  175.6640  141.8570 N   0  0  0  0  0  2  0  0  0  0  0  0
  195.6060  175.2860  141.2820 C   0  0  0  0  0  0  0  0  0  0  0  0
  195.9000  175.6660  140.1200 O   0  0  0  0  0  0  0  0  0  0  0  0
  196.5230  174.4800  142.0140 N   0  0  0  0  0  1  0  0  0  0  0  0
  1 16  1  0  0  0  0
  2 23  1  1  0  0  0
  3  4  2  0  0  0  0
  3 11  1  0  0  0  0
  4 20  1  0  0  0  0
  5 24  1  6  0  0  0
  6  5  1  0  0  0  0
  6 18  2  0  0  0  0
  7 23  1  1  0  0  0
  7 19  1  0  0  0  0
  8 12  1  0  0  0  0
  9 15  2  0  0  0  0
 10 28  1  1  0  0  0
 10 17  1  0  0  0  0
 10  1  1  0  0  0  0
 11 13  2  0  0  0  0
 12 13  1  6  0  0  0
 12  2  1  0  0  0  0
 13 21  1  0  0  0  0
 14 22  1  6  0  0  0
 14 26  1  0  0  0  0
 15 18  1  0  0  0  0
 16 19  1  0  0  0  0
 17  8  1  6  0  0  0
 17  7  1  0  0  0  0
 20 21  2  0  0  0  0
 21 14  1  0  0  0  0
 22 27  1  0  0  0  0
 25  9  1  0  0  0  0
 26  2  1  0  0  0  0
 26  5  1  0  0  0  0
 27  9  1  0  0  0  0
 27  6  1  0  0  0  0
 29 28  1  0  0  0  0
 30 29  1  0  0  0  0
 30 32  1  0  0  0  0
 31 30  2  0  0  0  0
M  END
>  <MODEL>
4

>  <REMARK>
 VINA RESULT:      -8.3      2.445      4.679
  Name = 
  2 active torsions:
  status: ('A' for Active; 'I' for Inactive)
    1  A    between atoms: C_10  and  O_20
    2  A    between atoms: O_20  and  N_29
                            x       y       z     vdW  Elec       q    Type
                         _______ _______ _______ _____ _____    ______ ____

>  <TORSDO>
F 2

$$$$
=
 OpenBabel11112416353D

 32 37  0  0  1  0  0  0  0  0999 V2000
  194.9410  175.7550  145.7690 C   0  0  0  0  0  2  0  0  0  0  0  0
  189.8950  175.5790  145.2050 C   0  0  1  0  0  3  0  0  0  0  0  0
  190.0390  172.2770  141.5200 C   0  0  0  0  0  3  0  0  0  0  0  0
  188.7480  172.6400  141.1340 C   0  0  0  0  0  3  0  0  0  0  0  0
  188.0160  177.3490  145.2700 C   0  0  1  0  0  3  0  0  0  0  0  0
  187.0550  178.0550  144.3590 C   0  0  0  0  0  0  0  0  0  0  0  0
  192.1960  176.0940  146.0930 C   0  0  1  0  0  3  0  0  0  0  0  0
  191.7770  175.6430  143.6490 O   0  0  0  0  0  0  0  0  0  0  0  0
  185.7720  178.5190  142.5510 C   0  0  0  0  0  0  0  0  0  0  0  0
  194.1030  175.5460  144.4920 C   0  0  2  0  0  3  0  0  0  0  0  0
  190.6870  172.9820  142.5350 C   0  0  0  0  0  3  0  0  0  0  0  0
  190.8120  174.7940  144.2360 C   0  0  2  0  0  3  0  0  0  0  0  0
  190.0540  174.0570  143.1700 C   0  0  0  0  0  0  0  0  0  0  0  0
  188.0030  175.5350  143.4930 C   0  0  2  0  0  3  0  0  0  0  0  0
  185.1920  179.0430  143.5810 N   0  0  0  0  0  0  0  0  0  0  0  0
  194.5360  177.0310  146.5190 C   0  0  0  0  0  2  0  0  0  0  0  0
  192.6850  176.1240  144.6340 C   0  0  2  0  0  3  0  0  0  0  0  0
  185.9810  178.7370  144.7250 C   0  0  0  0  0  3  0  0  0  0  0  0
  193.0640  176.9980  146.9720 C   0  0  0  0  0  2  0  0  0  0  0  0
  188.1090  173.7130  141.7590 C   0  0  0  0  0  3  0  0  0  0  0  0
  188.7580  174.4490  142.7630 C   0  0  0  0  0  0  0  0  0  0  0  0
  187.0870  176.3630  142.5540 C   0  0  0  0  0  2  0  0  0  0  0  0
  190.7260  176.4750  146.1430 C   0  0  0  0  0  2  0  0  0  0  0  0
  187.1270  176.4150  146.5150 Cl  0  0  0  0  0  0  0  0  0  0  0  0
  185.2330  178.6660  141.1720 C   0  0  0  0  0  1  0  0  0  0  0  0
  188.8910  176.4160  144.4050 C   0  0  2  0  0  3  0  0  0  0  0  0
  187.0670  177.8610  142.8830 C   0  0  2  0  0  3  0  0  0  0  0  0
  194.0480  174.1810  144.1860 O   0  0  0  0  0  0  0  0  0  0  0  0
  194.8600  174.0250  143.1100 N   0  0  0  0  0  2  0  0  0  0  0  0
  196.0800  173.2890  143.1920 C   0  0  0  0  0  0  0  0  0  0  0  0
  196.8080  173.1710  142.1740 O   0  0  0  0  0  0  0  0  0  0  0  0
  196.4790  172.6850  144.4180 N   0  0  0  0  0  1  0  0  0  0  0  0
  1 16  1  0  0  0  0
  2 23  1  6  0  0  0
  3 11  1  0  0  0  0
  4  3  2  0  0  0  0
  4 20  1  0  0  0  0
  5 24  1  1  0  0  0
  6 18  2  0  0  0  0
  6  5  1  0  0  0  0
  7 23  1  6  0  0  0
  7 19  1  0  0  0  0
  8 12  1  0  0  0  0
  9 27  1  0  0  0  0
  9 15  2  0  0  0  0
 10 28  1  1  0  0  0
 10 17  1  0  0  0  0
 10  1  1  0  0  0  0
 11 13  2  0  0  0  0
 12 13  1  6  0  0  0
 12  2  1  0  0  0  0
 14 22  1  6  0  0  0
 14 26  1  0  0  0  0
 15 18  1  0  0  0  0
 16 19  1  0  0  0  0
 17  8  1  6  0  0  0
 17  7  1  0  0  0  0
 20 21  2  0  0  0  0
 21 13  1  0  0  0  0
 21 14  1  0  0  0  0
 22 27  1  0  0  0  0
 25  9  1  0  0  0  0
 26  2  1  0  0  0  0
 26  5  1  0  0  0  0
 27  6  1  0  0  0  0
 29 30  1  0  0  0  0
 29 28  1  0  0  0  0
 30 32  1  0  0  0  0
 31 30  2  0  0  0  0
M  END
>  <MODEL>
5

>  <REMARK>
 VINA RESULT:      -8.2      1.902      4.493
  Name = 
  2 active torsions:
  status: ('A' for Active; 'I' for Inactive)
    1  A    between atoms: C_10  and  O_20
    2  A    between atoms: O_20  and  N_29
                            x       y       z     vdW  Elec       q    Type
                         _______ _______ _______ _____ _____    ______ ____

>  <TORSDO>
F 2

$$$$
=
 OpenBabel11112416353D

 32 37  0  0  1  0  0  0  0  0999 V2000
  186.0080  177.9560  142.2140 C   0  0  0  0  0  2  0  0  0  0  0  0
  190.2070  175.3240  143.3310 C   0  0  1  0  0  3  0  0  0  0  0  0
  190.6020  177.1600  147.9100 C   0  0  0  0  0  3  0  0  0  0  0  0
  191.9470  176.7910  147.9520 C   0  0  0  0  0  3  0  0  0  0  0  0
  192.3370  174.6930  142.0140 C   0  0  1  0  0  3  0  0  0  0  0  0
  193.8020  175.0130  141.9530 C   0  0  0  0  0  0  0  0  0  0  0  0
  188.1560  176.1850  142.1480 C   0  0  1  0  0  3  0  0  0  0  0  0
  189.4850  177.6220  143.7360 O   0  0  0  0  0  0  0  0  0  0  0  0
  195.8580  175.7380  142.5650 C   0  0  0  0  0  0  0  0  0  0  0  0
  187.2030  178.3460  143.1070 C   0  0  2  0  0  3  0  0  0  0  0  0
  189.8710  177.0010  146.7320 C   0  0  0  0  0  3  0  0  0  0  0  0
  189.6470  176.3550  144.3400 C   0  0  2  0  0  3  0  0  0  0  0  0
  190.4770  176.4760  145.5850 C   0  0  0  0  0  0  0  0  0  0  0  0
  192.5080  175.4620  144.4270 C   0  0  2  0  0  3  0  0  0  0  0  0
  196.0250  174.7840  141.7090 N   0  0  0  0  0  0  0  0  0  0  0  0
  186.4550  177.5410  140.8060 C   0  0  0  0  0  2  0  0  0  0  0  0
  188.4780  177.5720  142.7320 C   0  0  2  0  0  3  0  0  0  0  0  0
  194.7370  174.3080  141.3350 C   0  0  0  0  0  3  0  0  0  0  0  0
  187.3920  176.3180  140.8290 C   0  0  0  0  0  2  0  0  0  0  0  0
  192.5610  176.2680  146.8120 C   0  0  0  0  0  3  0  0  0  0  0  0
  191.8460  176.1270  145.6110 C   0  0  0  0  0  0  0  0  0  0  0  0
  193.9970  175.8670  144.2670 C   0  0  0  0  0  2  0  0  0  0  0  0
  189.4420  175.3880  141.9960 C   0  0  0  0  0  2  0  0  0  0  0  0
  192.0920  172.9540  142.3750 Cl  0  0  0  0  0  0  0  0  0  0  0  0
  197.0000  176.4910  143.1520 C   0  0  0  0  0  1  0  0  0  0  0  0
  191.7030  175.5760  143.1100 C   0  0  2  0  0  3  0  0  0  0  0  0
  194.4240  176.0620  142.8060 C   0  0  2  0  0  3  0  0  0  0  0  0
  186.8750  178.1300  144.4500 O   0  0  0  0  0  0  0  0  0  0  0  0
  185.7170  178.8100  144.6480 N   0  0  0  0  0  2  0  0  0  0  0  0
  184.7550  178.3870  145.6130 C   0  0  0  0  0  0  0  0  0  0  0  0
  183.6910  179.0410  145.7630 O   0  0  0  0  0  0  0  0  0  0  0  0
  184.9900  177.2310  146.4100 N   0  0  0  0  0  1  0  0  0  0  0  0
  1 10  1  0  0  0  0
  2 23  1  6  0  0  0
  2 12  1  0  0  0  0
  3  4  1  0  0  0  0
  5 24  1  1  0  0  0
  5 26  1  0  0  0  0
  6  5  1  0  0  0  0
  6 27  1  0  0  0  0
  7 19  1  6  0  0  0
  7 17  1  0  0  0  0
  9 27  1  0  0  0  0
  9 25  1  0  0  0  0
 10 28  1  1  0  0  0
 11  3  2  0  0  0  0
 12  8  1  6  0  0  0
 12 13  1  0  0  0  0
 13 21  2  0  0  0  0
 13 11  1  0  0  0  0
 14 22  1  6  0  0  0
 14 21  1  0  0  0  0
 15  9  2  0  0  0  0
 16 19  1  0  0  0  0
 16  1  1  0  0  0  0
 17 10  1  0  0  0  0
 17  8  1  1  0  0  0
 18 15  1  0  0  0  0
 18  6  2  0  0  0  0
 20  4  2  0  0  0  0
 21 20  1  0  0  0  0
 23  7  1  0  0  0  0
 26  2  1  0  0  0  0
 26 14  1  0  0  0  0
 27 22  1  0  0  0  0
 28 29  1  0  0  0  0
 29 30  1  0  0  0  0
 30 31  2  0  0  0  0
 30 32  1  0  0  0  0
M  END
>  <MODEL>
6

>  <REMARK>
 VINA RESULT:      -8.2      3.006      7.392
  Name = 
  2 active torsions:
  status: ('A' for Active; 'I' for Inactive)
    1  A    between atoms: C_10  and  O_20
    2  A    between atoms: O_20  and  N_29
                            x       y       z     vdW  Elec       q    Type
                         _______ _______ _______ _____ _____    ______ ____

>  <TORSDO>
F 2

$$$$
=
 OpenBabel11112416353D

 32 37  0  0  1  0  0  0  0  0999 V2000
  185.9090  177.1660  139.0550 C   0  0  0  0  0  2  0  0  0  0  0  0
  188.2350  175.2380  143.1400 C   0  0  1  0  0  3  0  0  0  0  0  0
  185.9710  178.2670  146.3330 C   0  0  0  0  0  3  0  0  0  0  0  0
  186.9620  178.0190  147.2840 C   0  0  0  0  0  3  0  0  0  0  0  0
  190.6380  174.4270  143.6240 C   0  0  1  0  0  3  0  0  0  0  0  0
  191.8630  174.8220  144.3960 C   0  0  0  0  0  0  0  0  0  0  0  0
  187.4380  175.6000  140.7770 C   0  0  1  0  0  3  0  0  0  0  0  0
  187.6810  177.5030  142.4120 O   0  0  0  0  0  0  0  0  0  0  0  0
  193.1900  175.8290  145.9300 C   0  0  0  0  0  0  0  0  0  0  0  0
  186.3500  177.8660  140.3560 C   0  0  2  0  0  3  0  0  0  0  0  0
  186.0940  177.7440  145.0450 C   0  0  0  0  0  3  0  0  0  0  0  0
  187.2980  176.4610  143.2860 C   0  0  2  0  0  3  0  0  0  0  0  0
  187.2080  176.9730  144.6940 C   0  0  0  0  0  0  0  0  0  0  0  0
  189.3930  175.8300  145.3350 C   0  0  2  0  0  3  0  0  0  0  0  0
  193.7330  174.6930  145.6360 N   0  0  0  0  0  0  0  0  0  0  0  0
  187.0680  176.4180  138.3840 C   0  0  0  0  0  2  0  0  0  0  0  0
  187.4930  177.1130  141.0560 C   0  0  2  0  0  3  0  0  0  0  0  0
  192.8930  174.0430  144.6880 C   0  0  0  0  0  3  0  0  0  0  0  0
  187.6530  175.3170  139.2890 C   0  0  0  0  0  2  0  0  0  0  0  0
  188.0780  177.2520  146.9430 C   0  0  0  0  0  3  0  0  0  0  0  0
  188.2290  176.7420  145.6430 C   0  0  0  0  0  0  0  0  0  0  0  0
  190.7070  176.2810  146.0260 C   0  0  0  0  0  2  0  0  0  0  0  0
  188.4510  174.8850  141.6560 C   0  0  0  0  0  2  0  0  0  0  0  0
  190.0290  172.8380  144.1880 Cl  0  0  0  0  0  0  0  0  0  0  0  0
  193.8160  176.7910  146.8770 C   0  0  0  0  0  1  0  0  0  0  0  0
  189.5730  175.5260  143.8280 C   0  0  2  0  0  3  0  0  0  0  0  0
  191.9530  176.1030  145.1470 C   0  0  2  0  0  3  0  0  0  0  0  0
  185.2520  177.9990  141.2130 O   0  0  0  0  0  0  0  0  0  0  0  0
  184.1610  177.9160  140.4100 N   0  0  0  0  0  2  0  0  0  0  0  0
  182.8420  178.1300  140.9130 C   0  0  0  0  0  0  0  0  0  0  0  0
  181.8560  178.0390  140.1380 O   0  0  0  0  0  0  0  0  0  0  0  0
  182.6340  178.4480  142.2850 N   0  0  0  0  0  1  0  0  0  0  0  0
  1 10  1  0  0  0  0
  2 23  1  6  0  0  0
  2 12  1  0  0  0  0
  2 26  1  0  0  0  0
  3  4  1  0  0  0  0
  5 26  1  0  0  0  0
  5 24  1  1  0  0  0
  5  6  1  0  0  0  0
  6 18  2  0  0  0  0
  6 27  1  0  0  0  0
  7 19  1  6  0  0  0
  7 17  1  0  0  0  0
  7 23  1  0  0  0  0
  9 25  1  0  0  0  0
 10 17  1  0  0  0  0
 10 28  1  1  0  0  0
 11  3  2  0  0  0  0
 12  8  1  6  0  0  0
 12 13  1  0  0  0  0
 13 11  1  0  0  0  0
 13 21  2  0  0  0  0
 14 21  1  0  0  0  0
 14 22  1  6  0  0  0
 15  9  2  0  0  0  0
 16  1  1  0  0  0  0
 16 19  1  0  0  0  0
 17  8  1  1  0  0  0
 18 15  1  0  0  0  0
 20  4  2  0  0  0  0
 21 20  1  0  0  0  0
 26 14  1  0  0  0  0
 27  9  1  0  0  0  0
 27 22  1  0  0  0  0
 29 30  1  0  0  0  0
 29 28  1  0  0  0  0
 30 32  1  0  0  0  0
 31 30  2  0  0  0  0
M  END
>  <MODEL>
7

>  <REMARK>
 VINA RESULT:      -7.9      3.287      7.252
  Name = 
  2 active torsions:
  status: ('A' for Active; 'I' for Inactive)
    1  A    between atoms: C_10  and  O_20
    2  A    between atoms: O_20  and  N_29
                            x       y       z     vdW  Elec       q    Type
                         _______ _______ _______ _____ _____    ______ ____

>  <TORSDO>
F 2

$$$$
=
 OpenBabel11112416353D

 32 37  0  0  1  0  0  0  0  0999 V2000
  185.0900  178.3160  141.7360 C   0  0  0  0  0  2  0  0  0  0  0  0
  188.9860  175.1720  142.5990 C   0  0  1  0  0  3  0  0  0  0  0  0
  188.7400  175.6030  147.5240 C   0  0  0  0  0  3  0  0  0  0  0  0
  190.0510  175.1390  147.6380 C   0  0  0  0  0  3  0  0  0  0  0  0
  191.2690  174.7830  141.4570 C   0  0  1  0  0  3  0  0  0  0  0  0
  192.7360  174.9980  141.6910 C   0  0  0  0  0  0  0  0  0  0  0  0
  187.1650  176.4820  141.4500 C   0  0  1  0  0  3  0  0  0  0  0  0
  188.2840  177.3080  143.5520 O   0  0  0  0  0  0  0  0  0  0  0  0
  194.6980  175.3660  142.7610 C   0  0  0  0  0  0  0  0  0  0  0  0
  186.1470  178.3480  142.8570 C   0  0  2  0  0  3  0  0  0  0  0  0
  188.1910  175.8390  146.2620 C   0  0  0  0  0  3  0  0  0  0  0  0
  188.3120  175.9140  143.7780 C   0  0  2  0  0  3  0  0  0  0  0  0
  188.9470  175.6160  145.1050 C   0  0  0  0  0  0  0  0  0  0  0  0
  191.0970  174.8230  143.9900 C   0  0  2  0  0  3  0  0  0  0  0  0
  194.9620  174.6830  141.6960 N   0  0  0  0  0  0  0  0  0  0  0  0
  185.7310  178.2840  140.3420 C   0  0  0  0  0  2  0  0  0  0  0  0
  187.4390  177.6200  142.4500 C   0  0  2  0  0  3  0  0  0  0  0  0
  193.7300  174.4290  141.0280 C   0  0  0  0  0  3  0  0  0  0  0  0
  186.6140  177.0390  140.1360 C   0  0  0  0  0  2  0  0  0  0  0  0
  190.8140  174.9160  146.4890 C   0  0  0  0  0  3  0  0  0  0  0  0
  190.2850  175.1740  145.2150 C   0  0  0  0  0  0  0  0  0  0  0  0
  192.6050  175.1460  144.1580 C   0  0  0  0  0  2  0  0  0  0  0  0
  188.4330  175.6680  141.2490 C   0  0  0  0  0  2  0  0  0  0  0  0
  190.9170  173.0360  141.2600 Cl  0  0  0  0  0  0  0  0  0  0  0  0
  195.7610  175.8350  143.6910 C   0  0  0  0  0  1  0  0  0  0  0  0
  190.5050  175.3650  142.6660 C   0  0  2  0  0  3  0  0  0  0  0  0
  193.2550  175.7140  142.8890 C   0  0  2  0  0  3  0  0  0  0  0  0
  185.6130  177.7860  144.0220 O   0  0  0  0  0  0  0  0  0  0  0  0
  185.8760  178.6850  145.0040 N   0  0  0  0  0  2  0  0  0  0  0  0
  185.3070  178.5590  146.3070 C   0  0  0  0  0  0  0  0  0  0  0  0
  185.5710  179.4160  147.1890 O   0  0  0  0  0  0  0  0  0  0  0  0
  184.4440  177.4700  146.6180 N   0  0  0  0  0  1  0  0  0  0  0  0
  1 10  1  0  0  0  0
  2 23  1  6  0  0  0
  2 26  1  0  0  0  0
  2 12  1  0  0  0  0
  3  4  1  0  0  0  0
  5 24  1  1  0  0  0
  5  6  1  0  0  0  0
  5 26  1  0  0  0  0
  6 27  1  0  0  0  0
  7 19  1  6  0  0  0
  7 17  1  0  0  0  0
  9 27  1  0  0  0  0
  9 25  1  0  0  0  0
 10 28  1  1  0  0  0
 11  3  2  0  0  0  0
 12  8  1  6  0  0  0
 12 13  1  0  0  0  0
 13 21  2  0  0  0  0
 13 11  1  0  0  0  0
 14 22  1  1  0  0  0
 14 21  1  0  0  0  0
 15  9  2  0  0  0  0
 16  1  1  0  0  0  0
 17 10  1  0  0  0  0
 17  8  1  1  0  0  0
 18  6  2  0  0  0  0
 18 15  1  0  0  0  0
 19 16  1  0  0  0  0
 20  4  2  0  0  0  0
 21 20  1  0  0  0  0
 23  7  1  0  0  0  0
 26 14  1  0  0  0  0
 27 22  1  0  0  0  0
 28 29  1  0  0  0  0
 29 30  1  0  0  0  0
 30 32  1  0  0  0  0
 30 31  2  0  0  0  0
M  END
>  <MODEL>
8

>  <REMARK>
 VINA RESULT:      -7.9      3.023      7.210
  Name = 
  2 active torsions:
  status: ('A' for Active; 'I' for Inactive)
    1  A    between atoms: C_10  and  O_20
    2  A    between atoms: O_20  and  N_29
                            x       y       z     vdW  Elec       q    Type
                         _______ _______ _______ _____ _____    ______ ____

>  <TORSDO>
F 2

$$$$
=
 OpenBabel11112416353D

 32 37  0  0  1  0  0  0  0  0999 V2000
  196.0700  174.9780  143.8710 C   0  0  0  0  0  2  0  0  0  0  0  0
  191.0960  174.7030  144.8700 C   0  0  1  0  0  3  0  0  0  0  0  0
  189.8210  173.7270  140.1880 C   0  0  0  0  0  3  0  0  0  0  0  0
  188.5110  174.1300  140.4520 C   0  0  0  0  0  3  0  0  0  0  0  0
  189.4900  176.0430  146.3850 C   0  0  1  0  0  3  0  0  0  0  0  0
  188.3640  177.0310  146.2960 C   0  0  0  0  0  0  0  0  0  0  0  0
  193.5950  174.8850  145.1440 C   0  0  1  0  0  3  0  0  0  0  0  0
  192.4150  175.6930  143.0680 O   0  0  0  0  0  0  0  0  0  0  0  0
  186.6400  178.2360  145.4580 C   0  0  0  0  0  0  0  0  0  0  0  0
  194.8690  175.3720  142.9900 C   0  0  2  0  0  3  0  0  0  0  0  0
  190.8070  173.8750  141.1650 C   0  0  0  0  0  3  0  0  0  0  0  0
  191.6020  174.5900  143.4120 C   0  0  2  0  0  3  0  0  0  0  0  0
  190.4940  174.4300  142.4110 C   0  0  0  0  0  0  0  0  0  0  0  0
  188.7770  175.3740  144.0410 C   0  0  2  0  0  3  0  0  0  0  0  0
  186.4480  178.1230  146.7310 N   0  0  0  0  0  0  0  0  0  0  0  0
  196.0260  175.6650  145.2420 C   0  0  0  0  0  2  0  0  0  0  0  0
  193.6180  175.6850  143.8280 C   0  0  2  0  0  3  0  0  0  0  0  0
  187.5170  177.3470  147.2630 C   0  0  0  0  0  3  0  0  0  0  0  0
  194.7650  175.2910  146.0420 C   0  0  0  0  0  2  0  0  0  0  0  0
  188.1900  174.6870  141.6920 C   0  0  0  0  0  3  0  0  0  0  0  0
  189.1760  174.8680  142.6750 C   0  0  0  0  0  0  0  0  0  0  0  0
  187.6970  176.4850  143.9760 C   0  0  0  0  0  2  0  0  0  0  0  0
  192.2480  175.0690  145.8240 C   0  0  0  0  0  2  0  0  0  0  0  0
  188.9410  174.5410  147.1960 Cl  0  0  0  0  0  0  0  0  0  0  0  0
  185.7230  179.0130  144.5800 C   0  0  0  0  0  1  0  0  0  0  0  0
  189.9750  175.7450  144.9490 C   0  0  2  0  0  3  0  0  0  0  0  0
  187.9110  177.6080  145.0010 C   0  0  2  0  0  3  0  0  0  0  0  0
  194.6020  174.3470  142.0740 O   0  0  0  0  0  0  0  0  0  0  0  0
  194.7380  174.9190  140.8510 N   0  0  0  0  0  2  0  0  0  0  0  0
  195.8900  174.6880  140.0390 C   0  0  0  0  0  0  0  0  0  0  0  0
  195.9810  175.2400  138.9130 O   0  0  0  0  0  0  0  0  0  0  0  0
  196.9350  173.8340  140.4930 N   0  0  0  0  0  1  0  0  0  0  0  0
  1 16  1  0  0  0  0
  2 26  1  0  0  0  0
  2 23  1  1  0  0  0
  3  4  2  0  0  0  0
  3 11  1  0  0  0  0
  4 20  1  0  0  0  0
  5 24  1  6  0  0  0
  6  5  1  0  0  0  0
  6 18  2  0  0  0  0
  7 23  1  1  0  0  0
  7 19  1  0  0  0  0
  8 12  1  0  0  0  0
  9 15  2  0  0  0  0
 10 28  1  6  0  0  0
 10 17  1  0  0  0  0
 10  1  1  0  0  0  0
 11 13  2  0  0  0  0
 12 13  1  6  0  0  0
 12  2  1  0  0  0  0
 13 21  1  0  0  0  0
 14 22  1  6  0  0  0
 14 26  1  0  0  0  0
 15 18  1  0  0  0  0
 16 19  1  0  0  0  0
 17  8  1  6  0  0  0
 17  7  1  0  0  0  0
 20 21  2  0  0  0  0
 21 14  1  0  0  0  0
 22 27  1  0  0  0  0
 25  9  1  0  0  0  0
 26  5  1  0  0  0  0
 27  9  1  0  0  0  0
 27  6  1  0  0  0  0
 29 28  1  0  0  0  0
 30 32  1  0  0  0  0
 30 29  1  0  0  0  0
 31 30  2  0  0  0  0
M  END
>  <MODEL>
9

>  <REMARK>
 VINA RESULT:      -7.8      2.623      4.825
  Name = 
  2 active torsions:
  status: ('A' for Active; 'I' for Inactive)
    1  A    between atoms: C_10  and  O_20
    2  A    between atoms: O_20  and  N_29
                            x       y       z     vdW  Elec       q    Type
                         _______ _______ _______ _____ _____    ______ ____

>  <TORSDO>
F 2

$$$$
