=
 OpenBabel11112417113D

 37 43  0  0  1  0  0  0  0  0999 V2000
  191.3310  172.7350  143.3330 C   0  0  0  0  0  2  0  0  0  0  0  0
  194.5840  176.3490  145.3430 C   0  0  0  0  0  0  0  0  0  0  0  0
  190.4080  175.4100  145.9990 C   0  0  1  0  0  3  0  0  0  0  0  0
  191.1730  171.6720  142.2470 C   0  0  2  0  0  3  0  0  0  0  0  0
  188.9300  176.2680  142.5660 O   0  0  0  0  0  0  0  0  0  0  0  0
  192.4740  176.7160  146.6910 C   0  0  1  0  0  3  0  0  0  0  0  0
  190.0460  175.2110  144.5230 C   0  0  1  0  0  3  0  0  0  0  0  0
  188.7850  172.6650  141.9680 C   0  0  0  0  0  0  0  0  0  0  0  0
  191.9340  175.4340  146.0450 C   0  0  2  0  0  3  0  0  0  0  0  0
  189.0120  176.2300  143.9790 C   0  0  2  0  0  3  0  0  0  0  0  0
  191.9180  176.8510  148.0320 N   0  0  0  0  0  2  0  0  0  0  0  0
  189.7210  171.4940  141.7760 C   0  0  0  0  0  2  0  0  0  0  0  0
  192.4800  175.1690  144.7000 N   0  0  2  0  0  0  0  0  0  0  0  0
  195.4490  175.1070  145.4320 C   0  0  0  0  0  1  0  0  0  0  0  0
  188.2710  176.5810  146.8470 C   0  0  0  0  0  2  0  0  0  0  0  0
  190.4550  177.0390  147.9940 C   0  0  0  0  0  2  0  0  0  0  0  0
  193.4970  176.1430  144.2750 C   0  0  0  0  0  2  0  0  0  0  0  0
  189.2120  174.0340  141.8310 N   0  0  0  0  0  0  0  0  0  0  0  0
  188.2650  175.1130  142.1030 C   0  0  0  0  0  2  0  0  0  0  0  0
  189.7870  176.6680  146.6550 C   0  0  1  0  0  3  0  0  0  0  0  0
  191.3720  175.2540  143.7550 C   0  0  1  0  0  3  0  0  0  0  0  0
  193.9940  176.6500  146.7290 C   0  0  0  0  0  2  0  0  0  0  0  0
  187.6250  176.1390  144.6630 C   0  0  1  0  0  3  0  0  0  0  0  0
  195.4560  177.5150  144.9230 C   0  0  0  0  0  1  0  0  0  0  0  0
  190.5940  174.3690  141.5040 C   0  0  0  0  0  2  0  0  0  0  0  0
  187.5810  172.4120  142.2360 O   0  0  0  0  0  0  0  0  0  0  0  0
  191.4980  174.1300  142.7140 C   0  0  2  0  0  3  0  0  0  0  0  0
  187.6530  175.6460  145.9900 O   0  0  0  0  0  0  0  0  0  0  0  0
  187.1100  178.3050  143.5170 C   0  0  0  0  0  3  0  0  0  0  0  0
  186.7520  177.3500  144.4750 C   0  0  0  0  0  0  0  0  0  0  0  0
  185.5780  177.5220  145.2220 C   0  0  0  0  0  3  0  0  0  0  0  0
  183.6420  178.8110  145.7430 F   0  0  0  0  0  0  0  0  0  0  0  0
  185.1380  179.6020  144.0640 C   0  0  0  0  0  3  0  0  0  0  0  0
  184.7740  178.6470  145.0180 C   0  0  0  0  0  0  0  0  0  0  0  0
  186.3050  179.4310  143.3130 C   0  0  0  0  0  3  0  0  0  0  0  0
  192.4640  170.5190  143.9590 N   0  0  0  0  0  1  0  0  0  0  0  0
  191.7010  170.3360  142.7360 C   0  0  0  0  0  2  0  0  0  0  0  0
  2 14  1  0  0  0  0
  2 22  1  0  0  0  0
  3  9  1  0  0  0  0
  3 20  1  0  0  0  0
  4 37  1  0  0  0  0
  4  1  1  0  0  0  0
  5 10  1  0  0  0  0
  6 22  1  0  0  0  0
  6 11  1  0  0  0  0
  7  3  1  0  0  0  0
  8 26  2  0  0  0  0
  9  6  1  0  0  0  0
 10  7  1  0  0  0  0
 10 23  1  0  0  0  0
 12  8  1  0  0  0  0
 12  4  1  0  0  0  0
 13  9  1  0  0  0  0
 16 11  1  0  0  0  0
 17 13  1  0  0  0  0
 17  2  1  0  0  0  0
 18  8  1  0  0  0  0
 18 19  1  0  0  0  0
 19  5  1  0  0  0  0
 20 15  1  0  0  0  0
 20 16  1  0  0  0  0
 21  7  1  0  0  0  0
 21 13  1  0  0  0  0
 23 28  1  0  0  0  0
 24  2  1  0  0  0  0
 25 18  1  0  0  0  0
 25 27  1  0  0  0  0
 27  1  1  0  0  0  0
 27 21  1  0  0  0  0
 28 15  1  0  0  0  0
 29 30  1  0  0  0  0
 30 23  1  0  0  0  0
 30 31  2  0  0  0  0
 33 34  2  0  0  0  0
 34 31  1  0  0  0  0
 34 32  1  0  0  0  0
 35 29  2  0  0  0  0
 35 33  1  0  0  0  0
 37 36  1  0  0  0  0
M  END
>  <MODEL>
1

>  <REMARK>
 VINA RESULT:      -8.8      0.000      0.000
  Name = 
  2 active torsions:
  status: ('A' for Active; 'I' for Inactive)
    1  A    between atoms: C_4  and  C_37
    2  A    between atoms: C_23  and  C_30
                            x       y       z     vdW  Elec       q    Type
                         _______ _______ _______ _____ _____    ______ ____

>  <TORSDO>
F 2

$$$$
=
 OpenBabel11112417113D

 37 43  0  0  1  0  0  0  0  0999 V2000
  194.4510  174.2790  143.1660 C   0  0  0  0  0  2  0  0  0  0  0  0
  191.4270  170.3890  141.3190 C   0  0  0  0  0  0  0  0  0  0  0  0
  190.8040  174.6390  141.8680 C   0  0  1  0  0  3  0  0  0  0  0  0
  195.7600  174.6010  143.8830 C   0  0  2  0  0  3  0  0  0  0  0  0
  190.9760  174.9020  145.6900 O   0  0  0  0  0  0  0  0  0  0  0  0
  189.9770  172.4270  140.9310 C   0  0  1  0  0  3  0  0  0  0  0  0
  191.4520  174.7260  143.2540 C   0  0  1  0  0  3  0  0  0  0  0  0
  194.3210  176.3000  145.2270 C   0  0  0  0  0  0  0  0  0  0  0  0
  191.1990  173.2700  141.3190 C   0  0  2  0  0  3  0  0  0  0  0  0
  190.4790  175.1440  144.3860 C   0  0  2  0  0  3  0  0  0  0  0  0
  189.1760  173.1590  139.9570 N   0  0  0  0  0  2  0  0  0  0  0  0
  195.6870  175.8720  144.7440 C   0  0  0  0  0  2  0  0  0  0  0  0
  192.1130  172.5970  142.2620 N   0  0  2  0  0  0  0  0  0  0  0  0
  192.7250  170.1120  140.5860 C   0  0  0  0  0  1  0  0  0  0  0  0
  188.8380  176.2840  142.1710 C   0  0  0  0  0  2  0  0  0  0  0  0
  188.6110  174.3900  140.5400 C   0  0  0  0  0  2  0  0  0  0  0  0
  191.7160  171.2170  142.5830 C   0  0  0  0  0  2  0  0  0  0  0  0
  193.2980  175.3580  145.6040 N   0  0  0  0  0  0  0  0  0  0  0  0
  191.9780  175.8480  145.9930 C   0  0  0  0  0  2  0  0  0  0  0  0
  189.2690  174.8490  141.8560 C   0  0  1  0  0  3  0  0  0  0  0  0
  192.0930  173.3570  143.5070 C   0  0  1  0  0  3  0  0  0  0  0  0
  190.4540  171.0980  140.3650 C   0  0  0  0  0  2  0  0  0  0  0  0
  189.8970  176.5690  144.2160 C   0  0  1  0  0  3  0  0  0  0  0  0
  190.8190  169.0670  141.7390 C   0  0  0  0  0  1  0  0  0  0  0  0
  193.5260  173.9190  145.5280 C   0  0  0  0  0  2  0  0  0  0  0  0
  194.0940  177.5350  145.3210 O   0  0  0  0  0  0  0  0  0  0  0  0
  193.5190  173.4570  144.0690 C   0  0  2  0  0  3  0  0  0  0  0  0
  189.8160  177.0170  142.8750 O   0  0  0  0  0  0  0  0  0  0  0  0
  188.3710  176.0220  146.1250 C   0  0  0  0  0  3  0  0  0  0  0  0
  188.6620  176.8440  145.0310 C   0  0  0  0  0  0  0  0  0  0  0  0
  187.8170  177.9220  144.7280 C   0  0  0  0  0  3  0  0  0  0  0  0
  185.8690  179.2070  145.2140 F   0  0  0  0  0  0  0  0  0  0  0  0
  186.3950  177.3400  146.5990 C   0  0  0  0  0  3  0  0  0  0  0  0
  186.6840  178.1670  145.5100 C   0  0  0  0  0  0  0  0  0  0  0  0
  187.2380  176.2680  146.9070 C   0  0  0  0  0  3  0  0  0  0  0  0
  197.5720  176.0140  143.0790 N   0  0  0  0  0  1  0  0  0  0  0  0
  196.8890  174.7480  142.8790 C   0  0  0  0  0  2  0  0  0  0  0  0
  1  4  1  0  0  0  0
  1 27  1  0  0  0  0
  2 24  1  0  0  0  0
  2 17  1  0  0  0  0
  3  7  1  0  0  0  0
  4 12  1  0  0  0  0
  5 19  1  0  0  0  0
  6  9  1  0  0  0  0
  7 21  1  0  0  0  0
  7 10  1  0  0  0  0
  8 26  2  0  0  0  0
  8 18  1  0  0  0  0
  9  3  1  0  0  0  0
  9 13  1  0  0  0  0
 10  5  1  0  0  0  0
 11 16  1  0  0  0  0
 11  6  1  0  0  0  0
 12  8  1  0  0  0  0
 13 17  1  0  0  0  0
 13 21  1  0  0  0  0
 14  2  1  0  0  0  0
 15 28  1  0  0  0  0
 16 20  1  0  0  0  0
 18 19  1  0  0  0  0
 20  3  1  0  0  0  0
 20 15  1  0  0  0  0
 21 27  1  0  0  0  0
 22  6  1  0  0  0  0
 22  2  1  0  0  0  0
 23 10  1  0  0  0  0
 23 30  1  0  0  0  0
 25 18  1  0  0  0  0
 27 25  1  0  0  0  0
 28 23  1  0  0  0  0
 29 35  1  0  0  0  0
 30 29  2  0  0  0  0
 31 30  1  0  0  0  0
 31 34  2  0  0  0  0
 32 34  1  0  0  0  0
 33 35  2  0  0  0  0
 34 33  1  0  0  0  0
 37 36  1  0  0  0  0
 37  4  1  0  0  0  0
M  END
>  <MODEL>
2

>  <REMARK>
 VINA RESULT:      -8.5      2.094      5.714
  Name = 
  2 active torsions:
  status: ('A' for Active; 'I' for Inactive)
    1  A    between atoms: C_4  and  C_37
    2  A    between atoms: C_23  and  C_30
                            x       y       z     vdW  Elec       q    Type
                         _______ _______ _______ _____ _____    ______ ____

>  <TORSDO>
F 2

$$$$
=
 OpenBabel11112417113D

 37 43  0  0  1  0  0  0  0  0999 V2000
  190.6540  173.4280  141.4680 C   0  0  0  0  0  2  0  0  0  0  0  0
  189.3970  175.7360  146.0260 C   0  0  0  0  0  0  0  0  0  0  0  0
  193.1350  174.3900  144.3030 C   0  0  1  0  0  3  0  0  0  0  0  0
  190.0890  172.7550  140.2190 C   0  0  2  0  0  3  0  0  0  0  0  0
  192.5410  170.6030  144.1690 O   0  0  0  0  0  0  0  0  0  0  0  0
  191.9240  175.6520  146.1450 C   0  0  1  0  0  3  0  0  0  0  0  0
  192.6010  173.0570  143.7640 C   0  0  1  0  0  3  0  0  0  0  0  0
  192.0030  171.0320  140.5790 C   0  0  0  0  0  0  0  0  0  0  0  0
  191.8980  175.2020  144.6790 C   0  0  2  0  0  3  0  0  0  0  0  0
  193.2510  171.8050  144.4070 C   0  0  2  0  0  3  0  0  0  0  0  0
  193.1380  176.4210  146.3910 N   0  0  0  0  0  2  0  0  0  0  0  0
  191.0150  171.6770  139.6350 C   0  0  0  0  0  2  0  0  0  0  0  0
  190.6790  174.4600  144.3050 N   0  0  2  0  0  0  0  0  0  0  0  0
  188.6170  176.5930  145.0490 C   0  0  0  0  0  1  0  0  0  0  0  0
  195.4810  173.6630  145.0950 C   0  0  0  0  0  2  0  0  0  0  0  0
  194.3450  175.5890  146.2340 C   0  0  0  0  0  2  0  0  0  0  0  0
  189.6900  174.3670  145.3900 C   0  0  0  0  0  2  0  0  0  0  0  0
  191.6990  170.7630  141.9610 N   0  0  0  0  0  0  0  0  0  0  0  0
  192.7320  170.2030  142.8300 C   0  0  0  0  0  2  0  0  0  0  0  0
  194.1260  174.2600  145.4860 C   0  0  1  0  0  3  0  0  0  0  0  0
  191.0820  173.1000  143.9650 C   0  0  1  0  0  3  0  0  0  0  0  0
  190.6800  176.4790  146.4310 C   0  0  0  0  0  2  0  0  0  0  0  0
  194.7690  171.6760  144.1300 C   0  0  1  0  0  3  0  0  0  0  0  0
  188.5500  175.5210  147.2630 C   0  0  0  0  0  1  0  0  0  0  0  0
  190.4040  171.1130  142.5350 C   0  0  0  0  0  2  0  0  0  0  0  0
  193.1270  170.7030  140.1140 O   0  0  0  0  0  0  0  0  0  0  0  0
  190.3010  172.6270  142.7300 C   0  0  2  0  0  3  0  0  0  0  0  0
  195.4340  172.9060  143.9060 O   0  0  0  0  0  0  0  0  0  0  0  0
  196.8620  170.5080  144.8520 C   0  0  0  0  0  3  0  0  0  0  0  0
  195.4990  170.7440  145.0580 C   0  0  0  0  0  0  0  0  0  0  0  0
  194.8440  170.1330  146.1380 C   0  0  0  0  0  3  0  0  0  0  0  0
  194.9120  168.6930  148.0360 F   0  0  0  0  0  0  0  0  0  0  0  0
  196.9090  169.0450  146.7820 C   0  0  0  0  0  3  0  0  0  0  0  0
  195.5480  169.2830  146.9960 C   0  0  0  0  0  0  0  0  0  0  0  0
  197.5660  169.6580  145.7120 C   0  0  0  0  0  3  0  0  0  0  0  0
  188.3650  173.9470  138.9800 N   0  0  0  0  0  1  0  0  0  0  0  0
  189.7990  173.7910  139.1470 C   0  0  0  0  0  2  0  0  0  0  0  0
  1 27  1  0  0  0  0
  2 22  1  0  0  0  0
  2 24  1  0  0  0  0
  3  9  1  0  0  0  0
  3 20  1  0  0  0  0
  4  1  1  0  0  0  0
  5 10  1  0  0  0  0
  6 11  1  0  0  0  0
  6 22  1  0  0  0  0
  7 21  1  0  0  0  0
  7  3  1  0  0  0  0
  7 10  1  0  0  0  0
  8 18  1  0  0  0  0
  9  6  1  0  0  0  0
 12  4  1  0  0  0  0
 12  8  1  0  0  0  0
 13  9  1  0  0  0  0
 13 17  1  0  0  0  0
 14  2  1  0  0  0  0
 15 20  1  0  0  0  0
 16 11  1  0  0  0  0
 17  2  1  0  0  0  0
 18 25  1  0  0  0  0
 18 19  1  0  0  0  0
 19  5  1  0  0  0  0
 20 16  1  0  0  0  0
 21 13  1  0  0  0  0
 23 10  1  0  0  0  0
 23 30  1  0  0  0  0
 25 27  1  0  0  0  0
 26  8  2  0  0  0  0
 27 21  1  0  0  0  0
 28 23  1  0  0  0  0
 28 15  1  0  0  0  0
 29 30  2  0  0  0  0
 29 35  1  0  0  0  0
 30 31  1  0  0  0  0
 31 34  2  0  0  0  0
 33 34  1  0  0  0  0
 34 32  1  0  0  0  0
 35 33  2  0  0  0  0
 36 37  1  0  0  0  0
 37  4  1  0  0  0  0
M  END
>  <MODEL>
3

>  <REMARK>
 VINA RESULT:      -8.2      4.088      7.567
  Name = 
  2 active torsions:
  status: ('A' for Active; 'I' for Inactive)
    1  A    between atoms: C_4  and  C_37
    2  A    between atoms: C_23  and  C_30
                            x       y       z     vdW  Elec       q    Type
                         _______ _______ _______ _____ _____    ______ ____

>  <TORSDO>
F 2

$$$$
=
 OpenBabel11112417113D

 37 43  0  0  1  0  0  0  0  0999 V2000
  188.8540  175.6100  143.4730 C   0  0  0  0  0  2  0  0  0  0  0  0
  189.7060  172.5970  139.2450 C   0  0  0  0  0  0  0  0  0  0  0  0
  191.2750  172.5740  143.2810 C   0  0  1  0  0  3  0  0  0  0  0  0
  188.1970  176.8960  143.9710 C   0  0  2  0  0  3  0  0  0  0  0  0
  193.1820  175.9010  143.3290 O   0  0  0  0  0  0  0  0  0  0  0  0
  191.0750  171.4270  141.0230 C   0  0  1  0  0  3  0  0  0  0  0  0
  191.4770  174.0900  143.3910 C   0  0  1  0  0  3  0  0  0  0  0  0
  190.4050  177.2160  145.3080 C   0  0  0  0  0  0  0  0  0  0  0  0
  190.4130  172.3680  142.0380 C   0  0  2  0  0  3  0  0  0  0  0  0
  192.9560  174.5230  143.5630 C   0  0  2  0  0  3  0  0  0  0  0  0
  191.3630  170.1500  141.6670 N   0  0  0  0  0  2  0  0  0  0  0  0
  188.9370  177.5410  145.1540 C   0  0  0  0  0  2  0  0  0  0  0  0
  190.0250  173.6750  141.4750 N   0  0  2  0  0  0  0  0  0  0  0  0
  188.1910  172.6680  139.2430 C   0  0  0  0  0  1  0  0  0  0  0  0
  193.3650  171.7340  144.5410 C   0  0  0  0  0  2  0  0  0  0  0  0
  192.3600  170.3010  142.7430 C   0  0  0  0  0  2  0  0  0  0  0  0
  190.2760  173.7910  140.0290 C   0  0  0  0  0  2  0  0  0  0  0  0
  191.2850  177.0330  144.1820 N   0  0  0  0  0  0  0  0  0  0  0  0
  192.6760  176.6500  144.4120 C   0  0  0  0  0  2  0  0  0  0  0  0
  192.5840  171.7480  143.2240 C   0  0  1  0  0  3  0  0  0  0  0  0
  190.8300  174.6930  142.1400 C   0  0  1  0  0  3  0  0  0  0  0  0
  190.1430  171.2470  139.8340 C   0  0  0  0  0  2  0  0  0  0  0  0
  193.6070  174.0180  144.8750 C   0  0  1  0  0  3  0  0  0  0  0  0
  190.1950  172.6830  137.8140 C   0  0  0  0  0  1  0  0  0  0  0  0
  190.7970  177.1430  142.8120 C   0  0  0  0  0  2  0  0  0  0  0  0
  190.8640  177.1290  146.4780 O   0  0  0  0  0  0  0  0  0  0  0  0
  189.9550  175.9180  142.4480 C   0  0  2  0  0  3  0  0  0  0  0  0
  193.0520  172.8200  145.3850 O   0  0  0  0  0  0  0  0  0  0  0  0
  195.7920  173.7840  146.0740 C   0  0  0  0  0  3  0  0  0  0  0  0
  195.1110  174.0490  144.8810 C   0  0  0  0  0  0  0  0  0  0  0  0
  195.8380  174.3110  143.7100 C   0  0  0  0  0  3  0  0  0  0  0  0
  197.9330  174.5730  142.6060 F   0  0  0  0  0  0  0  0  0  0  0  0
  197.9120  174.0590  144.9330 C   0  0  0  0  0  3  0  0  0  0  0  0
  197.2350  174.3180  143.7370 C   0  0  0  0  0  0  0  0  0  0  0  0
  197.1910  173.7910  146.1000 C   0  0  0  0  0  3  0  0  0  0  0  0
  185.9410  176.4160  143.1910 N   0  0  0  0  0  1  0  0  0  0  0  0
  186.7580  176.6320  144.3730 C   0  0  0  0  0  2  0  0  0  0  0  0
  1  4  1  0  0  0  0
  2 22  1  0  0  0  0
  2 17  1  0  0  0  0
  3  7  1  0  0  0  0
  4 37  1  0  0  0  0
  4 12  1  0  0  0  0
  5 10  1  0  0  0  0
  5 19  1  0  0  0  0
  6 11  1  0  0  0  0
  6  9  1  0  0  0  0
  7 10  1  0  0  0  0
  8 26  2  0  0  0  0
  9  3  1  0  0  0  0
 10 23  1  0  0  0  0
 11 16  1  0  0  0  0
 12  8  1  0  0  0  0
 13  9  1  0  0  0  0
 13 21  1  0  0  0  0
 14  2  1  0  0  0  0
 15 28  1  0  0  0  0
 16 20  1  0  0  0  0
 17 13  1  0  0  0  0
 18 19  1  0  0  0  0
 18  8  1  0  0  0  0
 20  3  1  0  0  0  0
 20 15  1  0  0  0  0
 21 27  1  0  0  0  0
 21  7  1  0  0  0  0
 22  6  1  0  0  0  0
 23 30  1  0  0  0  0
 23 28  1  0  0  0  0
 24  2  1  0  0  0  0
 25 18  1  0  0  0  0
 27 25  1  0  0  0  0
 27  1  1  0  0  0  0
 29 35  1  0  0  0  0
 30 29  2  0  0  0  0
 31 34  2  0  0  0  0
 31 30  1  0  0  0  0
 32 34  1  0  0  0  0
 33 35  2  0  0  0  0
 34 33  1  0  0  0  0
 36 37  1  0  0  0  0
M  END
>  <MODEL>
4

>  <REMARK>
 VINA RESULT:      -8.2      3.429      7.991
  Name = 
  2 active torsions:
  status: ('A' for Active; 'I' for Inactive)
    1  A    between atoms: C_4  and  C_37
    2  A    between atoms: C_23  and  C_30
                            x       y       z     vdW  Elec       q    Type
                         _______ _______ _______ _____ _____    ______ ____

>  <TORSDO>
F 2

$$$$
=
 OpenBabel11112417113D

 37 43  0  0  1  0  0  0  0  0999 V2000
  192.3750  171.9530  142.9680 C   0  0  0  0  0  2  0  0  0  0  0  0
  195.8760  175.8450  143.5060 C   0  0  0  0  0  0  0  0  0  0  0  0
  192.1390  174.9090  145.4830 C   0  0  1  0  0  3  0  0  0  0  0  0
  191.9600  170.7660  142.1020 C   0  0  2  0  0  3  0  0  0  0  0  0
  189.6670  175.3230  142.5800 O   0  0  0  0  0  0  0  0  0  0  0  0
  194.2430  176.3290  145.3770 C   0  0  1  0  0  3  0  0  0  0  0  0
  191.3670  174.5290  144.2140 C   0  0  1  0  0  3  0  0  0  0  0  0
  189.5470  171.6720  142.4470 C   0  0  0  0  0  0  0  0  0  0  0  0
  193.6060  174.9680  145.0660 C   0  0  2  0  0  3  0  0  0  0  0  0
  190.1650  175.4560  143.8990 C   0  0  2  0  0  3  0  0  0  0  0  0
  194.1010  176.6120  146.8010 N   0  0  0  0  0  2  0  0  0  0  0  0
  190.4460  170.5050  142.1100 C   0  0  0  0  0  2  0  0  0  0  0  0
  193.7420  174.5550  143.6560 N   0  0  2  0  0  0  0  0  0  0  0  0
  196.7940  174.6400  143.4650 C   0  0  0  0  0  1  0  0  0  0  0  0
  190.2870  176.1310  146.8020 C   0  0  0  0  0  2  0  0  0  0  0  0
  192.6850  176.7650  147.1830 C   0  0  0  0  0  2  0  0  0  0  0  0
  194.5340  175.4920  142.8420 C   0  0  0  0  0  2  0  0  0  0  0  0
  189.8390  173.0230  142.0410 N   0  0  0  0  0  0  0  0  0  0  0  0
  188.9580  174.1080  142.4660 C   0  0  0  0  0  2  0  0  0  0  0  0
  191.6720  176.2250  146.1550 C   0  0  1  0  0  3  0  0  0  0  0  0
  192.4020  174.5050  143.0840 C   0  0  1  0  0  3  0  0  0  0  0  0
  195.7060  176.2970  144.9640 C   0  0  0  0  0  2  0  0  0  0  0  0
  189.0490  175.4190  144.9730 C   0  0  1  0  0  3  0  0  0  0  0  0
  196.5190  176.9690  142.7210 C   0  0  0  0  0  1  0  0  0  0  0  0
  191.0420  173.3430  141.2800 C   0  0  0  0  0  2  0  0  0  0  0  0
  188.4910  171.4300  143.0900 O   0  0  0  0  0  0  0  0  0  0  0  0
  192.2760  173.2680  142.1810 C   0  0  2  0  0  3  0  0  0  0  0  0
  189.4950  175.0900  146.2760 O   0  0  0  0  0  0  0  0  0  0  0  0
  188.1970  177.5040  143.8790 C   0  0  0  0  0  3  0  0  0  0  0  0
  188.0960  176.5820  144.9270 C   0  0  0  0  0  0  0  0  0  0  0  0
  187.0940  176.7400  145.8960 C   0  0  0  0  0  3  0  0  0  0  0  0
  185.2450  177.9690  146.7600 F   0  0  0  0  0  0  0  0  0  0  0  0
  186.3180  178.7420  144.7770 C   0  0  0  0  0  3  0  0  0  0  0  0
  186.2090  177.8190  145.8220 C   0  0  0  0  0  0  0  0  0  0  0  0
  187.3110  178.5840  143.8060 C   0  0  0  0  0  3  0  0  0  0  0  0
  193.0700  169.6280  143.9450 N   0  0  0  0  0  1  0  0  0  0  0  0
  192.6810  169.5080  142.5510 C   0  0  0  0  0  2  0  0  0  0  0  0
  2 22  1  0  0  0  0
  3 20  1  0  0  0  0
  4 12  1  0  0  0  0
  4 37  1  0  0  0  0
  4  1  1  0  0  0  0
  5 10  1  0  0  0  0
  6 11  1  0  0  0  0
  7  3  1  0  0  0  0
  8 26  2  0  0  0  0
  9  6  1  0  0  0  0
  9  3  1  0  0  0  0
 10  7  1  0  0  0  0
 10 23  1  0  0  0  0
 11 16  1  0  0  0  0
 12  8  1  0  0  0  0
 13  9  1  0  0  0  0
 14  2  1  0  0  0  0
 17  2  1  0  0  0  0
 17 13  1  0  0  0  0
 18  8  1  0  0  0  0
 18 19  1  0  0  0  0
 19  5  1  0  0  0  0
 20 15  1  0  0  0  0
 20 16  1  0  0  0  0
 21 13  1  0  0  0  0
 21  7  1  0  0  0  0
 22  6  1  0  0  0  0
 23 28  1  0  0  0  0
 24  2  1  0  0  0  0
 25 18  1  0  0  0  0
 25 27  1  0  0  0  0
 27  1  1  0  0  0  0
 27 21  1  0  0  0  0
 28 15  1  0  0  0  0
 29 30  1  0  0  0  0
 30 23  1  0  0  0  0
 30 31  2  0  0  0  0
 33 34  2  0  0  0  0
 34 31  1  0  0  0  0
 34 32  1  0  0  0  0
 35 29  2  0  0  0  0
 35 33  1  0  0  0  0
 37 36  1  0  0  0  0
M  END
>  <MODEL>
5

>  <REMARK>
 VINA RESULT:      -8.0      1.397      1.767
  Name = 
  2 active torsions:
  status: ('A' for Active; 'I' for Inactive)
    1  A    between atoms: C_4  and  C_37
    2  A    between atoms: C_23  and  C_30
                            x       y       z     vdW  Elec       q    Type
                         _______ _______ _______ _____ _____    ______ ____

>  <TORSDO>
F 2

$$$$
=
 OpenBabel11112417113D

 37 43  0  0  1  0  0  0  0  0999 V2000
  189.6560  173.8220  140.9460 C   0  0  0  0  0  2  0  0  0  0  0  0
  189.1220  176.6640  145.3420 C   0  0  0  0  0  0  0  0  0  0  0  0
  192.5330  174.9320  143.3130 C   0  0  1  0  0  3  0  0  0  0  0  0
  188.9000  173.0550  139.8620 C   0  0  2  0  0  3  0  0  0  0  0  0
  191.7650  171.1920  143.6800 O   0  0  0  0  0  0  0  0  0  0  0  0
  191.6360  176.4470  145.1430 C   0  0  1  0  0  3  0  0  0  0  0  0
  191.8750  173.5830  142.9990 C   0  0  1  0  0  3  0  0  0  0  0  0
  190.7690  171.2720  140.1640 C   0  0  0  0  0  0  0  0  0  0  0  0
  191.3940  175.8480  143.7520 C   0  0  2  0  0  3  0  0  0  0  0  0
  192.5510  172.3700  143.6890 C   0  0  2  0  0  3  0  0  0  0  0  0
  192.9040  177.1670  145.1440 N   0  0  0  0  0  2  0  0  0  0  0  0
  189.6920  171.8700  139.2890 C   0  0  0  0  0  2  0  0  0  0  0  0
  190.1050  175.1420  143.6230 N   0  0  2  0  0  0  0  0  0  0  0  0
  188.2550  177.4560  144.3830 C   0  0  0  0  0  1  0  0  0  0  0  0
  194.9310  174.1580  143.8730 C   0  0  0  0  0  2  0  0  0  0  0  0
  194.0420  176.2550  144.9270 C   0  0  0  0  0  2  0  0  0  0  0  0
  189.2670  175.2200  144.8300 C   0  0  0  0  0  2  0  0  0  0  0  0
  190.6410  171.1680  141.5950 N   0  0  0  0  0  0  0  0  0  0  0  0
  191.7570  170.6440  142.3800 C   0  0  0  0  0  2  0  0  0  0  0  0
  193.6680  174.8690  144.3660 C   0  0  1  0  0  3  0  0  0  0  0  0
  190.4000  173.7330  143.3880 C   0  0  1  0  0  3  0  0  0  0  0  0
  190.4780  177.3700  145.4930 C   0  0  0  0  0  2  0  0  0  0  0  0
  194.0110  172.1260  143.2360 C   0  0  1  0  0  3  0  0  0  0  0  0
  188.4400  176.6280  146.6930 C   0  0  0  0  0  1  0  0  0  0  0  0
  189.4510  171.6490  142.2880 C   0  0  0  0  0  2  0  0  0  0  0  0
  191.8050  170.8320  139.5980 O   0  0  0  0  0  0  0  0  0  0  0  0
  189.4410  173.1790  142.3240 C   0  0  2  0  0  3  0  0  0  0  0  0
  194.6920  173.2840  142.7910 O   0  0  0  0  0  0  0  0  0  0  0  0
  196.1200  170.8960  143.7940 C   0  0  0  0  0  3  0  0  0  0  0  0
  194.8180  171.2550  144.1600 C   0  0  0  0  0  0  0  0  0  0  0  0
  194.2990  170.8240  145.3900 C   0  0  0  0  0  3  0  0  0  0  0  0
  194.5700  169.6130  147.4240 F   0  0  0  0  0  0  0  0  0  0  0  0
  196.3720  169.6680  145.8660 C   0  0  0  0  0  3  0  0  0  0  0  0
  195.0750  170.0290  146.2390 C   0  0  0  0  0  0  0  0  0  0  0  0
  196.8950  170.1020  144.6450 C   0  0  0  0  0  3  0  0  0  0  0  0
  189.2830  173.6680  137.5370 N   0  0  0  0  0  1  0  0  0  0  0  0
  188.5140  173.9870  138.7280 C   0  0  0  0  0  2  0  0  0  0  0  0
  1 27  1  0  0  0  0
  2 22  1  0  0  0  0
  2 24  1  0  0  0  0
  3  9  1  0  0  0  0
  3 20  1  0  0  0  0
  4  1  1  0  0  0  0
  5 10  1  0  0  0  0
  6 11  1  0  0  0  0
  6 22  1  0  0  0  0
  7  3  1  0  0  0  0
  7 21  1  0  0  0  0
  7 10  1  0  0  0  0
  8 18  1  0  0  0  0
  9  6  1  0  0  0  0
 12  4  1  0  0  0  0
 12  8  1  0  0  0  0
 13  9  1  0  0  0  0
 13 17  1  0  0  0  0
 14  2  1  0  0  0  0
 15 20  1  0  0  0  0
 16 11  1  0  0  0  0
 17  2  1  0  0  0  0
 18 25  1  0  0  0  0
 18 19  1  0  0  0  0
 19  5  1  0  0  0  0
 20 16  1  0  0  0  0
 21 13  1  0  0  0  0
 23 10  1  0  0  0  0
 23 30  1  0  0  0  0
 25 27  1  0  0  0  0
 26  8  2  0  0  0  0
 27 21  1  0  0  0  0
 28 23  1  0  0  0  0
 28 15  1  0  0  0  0
 29 30  2  0  0  0  0
 29 35  1  0  0  0  0
 30 31  1  0  0  0  0
 31 34  2  0  0  0  0
 33 34  1  0  0  0  0
 34 32  1  0  0  0  0
 35 33  2  0  0  0  0
 36 37  1  0  0  0  0
 37  4  1  0  0  0  0
M  END
>  <MODEL>
6

>  <REMARK>
 VINA RESULT:      -7.9      3.759      7.197
  Name = 
  2 active torsions:
  status: ('A' for Active; 'I' for Inactive)
    1  A    between atoms: C_4  and  C_37
    2  A    between atoms: C_23  and  C_30
                            x       y       z     vdW  Elec       q    Type
                         _______ _______ _______ _____ _____    ______ ____

>  <TORSDO>
F 2

$$$$
=
 OpenBabel11112417113D

 37 43  0  0  1  0  0  0  0  0999 V2000
  191.2920  175.6350  145.4730 C   0  0  0  0  0  2  0  0  0  0  0  0
  187.5480  176.4940  141.8760 C   0  0  0  0  0  0  0  0  0  0  0  0
  190.9360  173.8020  142.0620 C   0  0  1  0  0  3  0  0  0  0  0  0
  191.9110  176.1530  146.7690 C   0  0  2  0  0  3  0  0  0  0  0  0
  193.8430  176.3030  142.0260 O   0  0  0  0  0  0  0  0  0  0  0  0
  188.8080  174.5370  140.8840 C   0  0  1  0  0  3  0  0  0  0  0  0
  191.9320  174.8250  142.6210 C   0  0  1  0  0  3  0  0  0  0  0  0
  194.1780  175.6350  145.6040 C   0  0  0  0  0  0  0  0  0  0  0  0
  189.5610  174.4470  142.2180 C   0  0  2  0  0  3  0  0  0  0  0  0
  193.1200  175.1380  141.6750 C   0  0  2  0  0  3  0  0  0  0  0  0
  188.6880  173.2020  140.3080 N   0  0  0  0  0  2  0  0  0  0  0  0
  193.4140  175.8520  146.8890 C   0  0  0  0  0  2  0  0  0  0  0  0
  189.6900  175.7400  142.9170 N   0  0  2  0  0  0  0  0  0  0  0  0
  186.7160  176.4200  143.1410 C   0  0  0  0  0  1  0  0  0  0  0  0
  192.4660  172.5010  140.4420 C   0  0  0  0  0  2  0  0  0  0  0  0
  190.0080  172.6450  139.9570 C   0  0  0  0  0  2  0  0  0  0  0  0
  189.0010  176.8490  142.2370 C   0  0  0  0  0  2  0  0  0  0  0  0
  193.8890  176.3600  144.3940 N   0  0  0  0  0  0  0  0  0  0  0  0
  194.6240  176.0430  143.1720 C   0  0  0  0  0  2  0  0  0  0  0  0
  191.2090  173.3620  140.6030 C   0  0  1  0  0  3  0  0  0  0  0  0
  191.1100  176.0720  142.9630 C   0  0  1  0  0  3  0  0  0  0  0  0
  187.4410  175.1570  141.1270 C   0  0  0  0  0  2  0  0  0  0  0  0
  194.0350  173.9200  141.3960 C   0  0  1  0  0  3  0  0  0  0  0  0
  186.9900  177.5910  140.9950 C   0  0  0  0  0  1  0  0  0  0  0  0
  192.8190  177.3510  144.3400 C   0  0  0  0  0  2  0  0  0  0  0  0
  195.1200  174.7980  145.6180 O   0  0  0  0  0  0  0  0  0  0  0  0
  191.4540  176.6590  144.3400 C   0  0  2  0  0  3  0  0  0  0  0  0
  193.3900  172.6630  141.4950 O   0  0  0  0  0  0  0  0  0  0  0  0
  196.1520  173.4010  140.1630 C   0  0  0  0  0  3  0  0  0  0  0  0
  194.9190  174.0630  140.1870 C   0  0  0  0  0  0  0  0  0  0  0  0
  194.5180  174.8230  139.0790 C   0  0  0  0  0  3  0  0  0  0  0  0
  194.9600  175.6630  136.8930 F   0  0  0  0  0  0  0  0  0  0  0  0
  196.5830  174.2700  137.9430 C   0  0  0  0  0  3  0  0  0  0  0  0
  195.3500  174.9270  137.9600 C   0  0  0  0  0  0  0  0  0  0  0  0
  196.9840  173.5060  139.0440 C   0  0  0  0  0  3  0  0  0  0  0  0
  189.9490  174.9410  147.5490 N   0  0  0  0  0  1  0  0  0  0  0  0
  191.1920  175.5640  147.9700 C   0  0  0  0  0  2  0  0  0  0  0  0
  1  4  1  0  0  0  0
  2 17  1  0  0  0  0
  2 14  1  0  0  0  0
  3  9  1  0  0  0  0
  3  7  1  0  0  0  0
  4 12  1  0  0  0  0
  4 37  1  0  0  0  0
  5 19  1  0  0  0  0
  6 22  1  0  0  0  0
  6  9  1  0  0  0  0
  7 21  1  0  0  0  0
  8 26  2  0  0  0  0
  8 12  1  0  0  0  0
  9 13  1  0  0  0  0
 10  5  1  0  0  0  0
 10  7  1  0  0  0  0
 11  6  1  0  0  0  0
 13 21  1  0  0  0  0
 15 20  1  0  0  0  0
 15 28  1  0  0  0  0
 16 11  1  0  0  0  0
 16 20  1  0  0  0  0
 17 13  1  0  0  0  0
 18  8  1  0  0  0  0
 19 18  1  0  0  0  0
 20  3  1  0  0  0  0
 21 27  1  0  0  0  0
 22  2  1  0  0  0  0
 23 28  1  0  0  0  0
 23 10  1  0  0  0  0
 24  2  1  0  0  0  0
 25 18  1  0  0  0  0
 27 25  1  0  0  0  0
 27  1  1  0  0  0  0
 29 30  1  0  0  0  0
 30 23  1  0  0  0  0
 31 30  2  0  0  0  0
 32 34  1  0  0  0  0
 33 34  2  0  0  0  0
 33 35  1  0  0  0  0
 34 31  1  0  0  0  0
 35 29  2  0  0  0  0
 36 37  1  0  0  0  0
M  END
>  <MODEL>
7

>  <REMARK>
 VINA RESULT:      -7.7      4.031      8.115
  Name = 
  2 active torsions:
  status: ('A' for Active; 'I' for Inactive)
    1  A    between atoms: C_4  and  C_37
    2  A    between atoms: C_23  and  C_30
                            x       y       z     vdW  Elec       q    Type
                         _______ _______ _______ _____ _____    ______ ____

>  <TORSDO>
F 2

$$$$
=
 OpenBabel11112417113D

 37 43  0  0  1  0  0  0  0  0999 V2000
  188.9050  175.1540  143.1440 C   0  0  0  0  0  2  0  0  0  0  0  0
  189.6480  173.0210  138.3920 C   0  0  0  0  0  0  0  0  0  0  0  0
  190.6500  171.7570  142.4110 C   0  0  1  0  0  3  0  0  0  0  0  0
  188.4700  176.4170  143.8850 C   0  0  2  0  0  3  0  0  0  0  0  0
  193.1810  174.4610  143.4040 O   0  0  0  0  0  0  0  0  0  0  0  0
  190.5070  171.2080  139.9350 C   0  0  1  0  0  3  0  0  0  0  0  0
  191.1450  173.1240  142.8990 C   0  0  1  0  0  3  0  0  0  0  0  0
  190.5060  175.9190  145.4250 C   0  0  0  0  0  0  0  0  0  0  0  0
  189.9290  172.0320  141.0930 C   0  0  2  0  0  3  0  0  0  0  0  0
  192.6470  173.1560  143.2820 C   0  0  2  0  0  3  0  0  0  0  0  0
  190.4400  169.7910  140.2720 N   0  0  0  0  0  2  0  0  0  0  0  0
  189.1700  176.5990  145.2420 C   0  0  0  0  0  2  0  0  0  0  0  0
  189.8960  173.4840  140.8340 N   0  0  2  0  0  0  0  0  0  0  0  0
  188.1940  173.4390  138.2920 C   0  0  0  0  0  1  0  0  0  0  0  0
  192.3420  170.2040  143.5870 C   0  0  0  0  0  2  0  0  0  0  0  0
  191.3010  169.4690  141.4250 C   0  0  0  0  0  2  0  0  0  0  0  0
  190.3480  173.8510  139.4820 C   0  0  0  0  0  2  0  0  0  0  0  0
  191.4660  175.7870  144.3580 N   0  0  0  0  0  0  0  0  0  0  0  0
  192.7070  175.0530  144.5940 C   0  0  0  0  0  2  0  0  0  0  0  0
  191.7560  170.6850  142.2560 C   0  0  1  0  0  3  0  0  0  0  0  0
  190.8030  174.1180  141.7840 C   0  0  1  0  0  3  0  0  0  0  0  0
  189.7180  171.5120  138.6700 C   0  0  0  0  0  2  0  0  0  0  0  0
  193.0070  172.2410  144.4780 C   0  0  1  0  0  3  0  0  0  0  0  0
  190.3230  173.3020  137.0660 C   0  0  0  0  0  1  0  0  0  0  0  0
  191.1910  176.3030  143.0220 C   0  0  0  0  0  2  0  0  0  0  0  0
  190.7850  175.4750  146.5700 O   0  0  0  0  0  0  0  0  0  0  0  0
  190.1680  175.4140  142.3110 C   0  0  2  0  0  3  0  0  0  0  0  0
  192.1550  171.1220  144.6420 O   0  0  0  0  0  0  0  0  0  0  0  0
  195.3460  172.3170  143.5880 C   0  0  0  0  0  3  0  0  0  0  0  0
  194.4710  171.9220  144.6070 C   0  0  0  0  0  0  0  0  0  0  0  0
  194.9750  171.2630  145.7370 C   0  0  0  0  0  3  0  0  0  0  0  0
  196.8260  170.3530  146.9330 F   0  0  0  0  0  0  0  0  0  0  0  0
  197.2120  171.3830  144.8180 C   0  0  0  0  0  3  0  0  0  0  0  0
  196.3430  170.9920  145.8410 C   0  0  0  0  0  0  0  0  0  0  0  0
  196.7140  172.0470  143.6930 C   0  0  0  0  0  3  0  0  0  0  0  0
  186.2880  176.0550  142.8670 N   0  0  0  0  0  1  0  0  0  0  0  0
  186.9670  176.4110  144.1010 C   0  0  0  0  0  2  0  0  0  0  0  0
  1  4  1  0  0  0  0
  2 22  1  0  0  0  0
  2 17  1  0  0  0  0
  3  7  1  0  0  0  0
  4 37  1  0  0  0  0
  4 12  1  0  0  0  0
  5 19  1  0  0  0  0
  6 11  1  0  0  0  0
  6  9  1  0  0  0  0
  7 10  1  0  0  0  0
  8 26  2  0  0  0  0
  9  3  1  0  0  0  0
 10  5  1  0  0  0  0
 10 23  1  0  0  0  0
 11 16  1  0  0  0  0
 12  8  1  0  0  0  0
 13  9  1  0  0  0  0
 13 21  1  0  0  0  0
 14  2  1  0  0  0  0
 15 28  1  0  0  0  0
 16 20  1  0  0  0  0
 17 13  1  0  0  0  0
 18 19  1  0  0  0  0
 18  8  1  0  0  0  0
 20  3  1  0  0  0  0
 20 15  1  0  0  0  0
 21 27  1  0  0  0  0
 21  7  1  0  0  0  0
 22  6  1  0  0  0  0
 23 30  1  0  0  0  0
 23 28  1  0  0  0  0
 24  2  1  0  0  0  0
 25 18  1  0  0  0  0
 27 25  1  0  0  0  0
 27  1  1  0  0  0  0
 29 35  2  0  0  0  0
 29 30  1  0  0  0  0
 30 31  2  0  0  0  0
 31 34  1  0  0  0  0
 33 34  2  0  0  0  0
 34 32  1  0  0  0  0
 35 33  1  0  0  0  0
 36 37  1  0  0  0  0
M  END
>  <MODEL>
8

>  <REMARK>
 VINA RESULT:      -7.3      3.743      8.327
  Name = 
  2 active torsions:
  status: ('A' for Active; 'I' for Inactive)
    1  A    between atoms: C_4  and  C_37
    2  A    between atoms: C_23  and  C_30
                            x       y       z     vdW  Elec       q    Type
                         _______ _______ _______ _____ _____    ______ ____

>  <TORSDO>
F 2

$$$$
=
 OpenBabel11112417113D

 37 43  0  0  1  0  0  0  0  0999 V2000
  189.4260  175.5130  142.1270 C   0  0  0  0  0  2  0  0  0  0  0  0
  191.2060  176.0070  147.0540 C   0  0  0  0  0  0  0  0  0  0  0  0
  193.1550  175.7830  143.1930 C   0  0  1  0  0  3  0  0  0  0  0  0
  188.1910  175.2270  141.2740 C   0  0  2  0  0  3  0  0  0  0  0  0
  192.2430  172.2120  142.1340 O   0  0  0  0  0  0  0  0  0  0  0  0
  193.3310  176.2030  145.6930 C   0  0  1  0  0  3  0  0  0  0  0  0
  192.2890  174.6490  142.6330 C   0  0  1  0  0  3  0  0  0  0  0  0
  189.8020  173.7350  139.8800 C   0  0  0  0  0  0  0  0  0  0  0  0
  192.4330  176.2640  144.4490 C   0  0  2  0  0  3  0  0  0  0  0  0
  193.0700  173.3460  142.3250 C   0  0  2  0  0  3  0  0  0  0  0  0
  194.5340  176.9920  145.4570 N   0  0  0  0  0  2  0  0  0  0  0  0
  188.5170  174.5270  139.9450 C   0  0  0  0  0  2  0  0  0  0  0  0
  191.1560  175.5420  144.6000 N   0  0  2  0  0  0  0  0  0  0  0  0
  190.0920  177.0350  147.0490 C   0  0  0  0  0  1  0  0  0  0  0  0
  195.4560  175.1330  142.2210 C   0  0  0  0  0  2  0  0  0  0  0  0
  195.3540  176.4160  144.3750 C   0  0  0  0  0  2  0  0  0  0  0  0
  190.9560  174.9730  145.9420 C   0  0  0  0  0  2  0  0  0  0  0  0
  190.3140  172.9880  141.0000 N   0  0  0  0  0  0  0  0  0  0  0  0
  191.6000  172.3050  140.8820 C   0  0  0  0  0  2  0  0  0  0  0  0
  194.6260  175.3930  143.4820 C   0  0  1  0  0  3  0  0  0  0  0  0
  191.1660  174.4330  143.6530 C   0  0  1  0  0  3  0  0  0  0  0  0
  192.5530  176.7270  146.8900 C   0  0  0  0  0  2  0  0  0  0  0  0
  194.1410  173.5050  141.2170 C   0  0  1  0  0  3  0  0  0  0  0  0
  191.1970  175.2910  148.3880 C   0  0  0  0  0  1  0  0  0  0  0  0
  189.6140  172.9630  142.2800 C   0  0  0  0  0  2  0  0  0  0  0  0
  190.4250  173.7200  138.7850 O   0  0  0  0  0  0  0  0  0  0  0  0
  189.7810  174.3020  143.0020 C   0  0  2  0  0  3  0  0  0  0  0  0
  194.6710  174.8130  141.0940 O   0  0  0  0  0  0  0  0  0  0  0  0
  195.8460  172.1460  139.9870 C   0  0  0  0  0  3  0  0  0  0  0  0
  195.1800  172.4170  141.1870 C   0  0  0  0  0  0  0  0  0  0  0  0
  195.5070  171.6920  142.3420 C   0  0  0  0  0  3  0  0  0  0  0  0
  196.7990  169.9980  143.4100 F   0  0  0  0  0  0  0  0  0  0  0  0
  197.1470  170.4250  141.0910 C   0  0  0  0  0  3  0  0  0  0  0  0
  196.4870  170.6970  142.2930 C   0  0  0  0  0  0  0  0  0  0  0  0
  196.8280  171.1500  139.9390 C   0  0  0  0  0  3  0  0  0  0  0  0
  188.1000  177.6330  141.6370 N   0  0  0  0  0  1  0  0  0  0  0  0
  187.4410  176.5150  140.9840 C   0  0  0  0  0  2  0  0  0  0  0  0
  1 27  1  0  0  0  0
  2 24  1  0  0  0  0
  3 20  1  0  0  0  0
  3  9  1  0  0  0  0
  4  1  1  0  0  0  0
  5 10  1  0  0  0  0
  6 22  1  0  0  0  0
  7  3  1  0  0  0  0
  7 21  1  0  0  0  0
  8 12  1  0  0  0  0
  8 18  1  0  0  0  0
  9 13  1  0  0  0  0
  9  6  1  0  0  0  0
 10  7  1  0  0  0  0
 11  6  1  0  0  0  0
 12  4  1  0  0  0  0
 13 17  1  0  0  0  0
 14  2  1  0  0  0  0
 15 20  1  0  0  0  0
 16 11  1  0  0  0  0
 17  2  1  0  0  0  0
 18 25  1  0  0  0  0
 19 18  1  0  0  0  0
 19  5  1  0  0  0  0
 20 16  1  0  0  0  0
 21 13  1  0  0  0  0
 22  2  1  0  0  0  0
 23 10  1  0  0  0  0
 25 27  1  0  0  0  0
 26  8  2  0  0  0  0
 27 21  1  0  0  0  0
 28 23  1  0  0  0  0
 28 15  1  0  0  0  0
 29 30  1  0  0  0  0
 30 23  1  0  0  0  0
 30 31  2  0  0  0  0
 33 34  2  0  0  0  0
 34 31  1  0  0  0  0
 34 32  1  0  0  0  0
 35 29  2  0  0  0  0
 35 33  1  0  0  0  0
 37  4  1  0  0  0  0
 37 36  1  0  0  0  0
M  END
>  <MODEL>
9

>  <REMARK>
 VINA RESULT:      -7.3      3.944      7.332
  Name = 
  2 active torsions:
  status: ('A' for Active; 'I' for Inactive)
    1  A    between atoms: C_4  and  C_37
    2  A    between atoms: C_23  and  C_30
                            x       y       z     vdW  Elec       q    Type
                         _______ _______ _______ _____ _____    ______ ____

>  <TORSDO>
F 2

$$$$
