=
 OpenBabel11112416313D

 32 37  0  0  1  0  0  0  0  0999 V2000
  195.0240  175.7160  144.8620 C   0  0  0  0  0  2  0  0  0  0  0  0
  189.4160  175.5420  145.3650 C   0  0  1  0  0  3  0  0  0  0  0  0
  190.1810  172.6960  141.3930 C   0  0  0  0  0  2  0  0  0  0  0  0
  188.8990  173.2140  140.7490 C   0  0  0  0  0  2  0  0  0  0  0  0
  187.7010  177.4270  145.3880 C   0  0  1  0  0  3  0  0  0  0  0  0
  186.6080  178.0840  144.5910 C   0  0  0  0  0  0  0  0  0  0  0  0
  191.8500  175.9960  145.6800 C   0  0  1  0  0  3  0  0  0  0  0  0
  190.9360  173.6780  145.4950 C   0  0  0  0  0  2  0  0  0  0  0  0
  185.2190  178.5460  142.8960 N   0  0  0  0  0  0  0  0  0  0  0  0
  193.4010  174.0010  145.7600 C   0  0  0  0  0  2  0  0  0  0  0  0
  190.0460  172.7050  142.9120 C   0  0  0  0  0  2  0  0  0  0  0  0
  189.6890  174.1720  144.8840 N   0  0  2  0  0  0  0  0  0  0  0  0
  189.7640  174.1290  143.4080 C   0  0  2  0  0  3  0  0  0  0  0  0
  188.0680  176.0140  143.2790 C   0  0  1  0  0  3  0  0  0  0  0  0
  184.9960  179.5890  143.8890 C   0  0  0  0  0  3  0  0  0  0  0  0
  193.9520  176.6700  144.3510 C   0  0  0  0  0  2  0  0  0  0  0  0
  192.1300  174.5790  145.1670 C   0  0  2  0  0  3  0  0  0  0  0  0
  185.9410  179.2850  144.9650 N   0  0  0  0  0  0  0  0  0  0  0  0
  192.9850  177.0110  145.4800 C   0  0  0  0  0  2  0  0  0  0  0  0
  194.5650  174.2580  144.8130 C   0  0  2  0  0  3  0  0  0  0  0  0
  188.5890  174.6220  141.2490 C   0  0  0  0  0  2  0  0  0  0  0  0
  188.4470  174.6200  142.7730 C   0  0  1  0  0  3  0  0  0  0  0  0
  186.6820  176.4100  142.7520 C   0  0  0  0  0  2  0  0  0  0  0  0
  190.5670  176.5140  145.0510 C   0  0  0  0  0  2  0  0  0  0  0  0
  187.2760  177.2930  146.8390 C   0  0  0  0  0  1  0  0  0  0  0  0
  184.3670  178.2910  141.7500 C   0  0  0  0  0  1  0  0  0  0  0  0
  188.0720  176.0400  144.8200 C   0  0  1  0  0  3  0  0  0  0  0  0
  186.2160  177.6770  143.4030 C   0  0  0  0  0  0  0  0  0  0  0  0
  195.6730  173.3840  145.1710 N   0  0  0  0  0  2  0  0  0  0  0  0
  196.5240  172.7800  144.1960 C   0  0  0  0  0  0  0  0  0  0  0  0
  196.3270  172.9660  142.9660 O   0  0  0  0  0  0  0  0  0  0  0  0
  197.6510  171.9190  144.6380 C   0  0  0  0  0  1  0  0  0  0  0  0
  2 24  1  6  0  0  0
  3 11  1  0  0  0  0
  4 21  1  0  0  0  0
  4  3  1  0  0  0  0
  5 25  1  1  0  0  0
  6 18  1  0  0  0  0
  6  5  1  0  0  0  0
  7 24  1  6  0  0  0
  9 28  1  0  0  0  0
  9 15  1  0  0  0  0
 12  2  1  0  0  0  0
 12  8  1  1  0  0  0
 13 11  1  1  0  0  0
 13 12  1  0  0  0  0
 14 23  1  1  0  0  0
 14 27  1  0  0  0  0
 15 18  2  0  0  0  0
 16  1  1  0  0  0  0
 16 19  1  0  0  0  0
 17  8  1  1  0  0  0
 17  7  1  0  0  0  0
 17 10  1  0  0  0  0
 19  7  1  0  0  0  0
 20  1  1  0  0  0  0
 20 29  1  1  0  0  0
 20 10  1  0  0  0  0
 22 21  1  6  0  0  0
 22 14  1  0  0  0  0
 22 13  1  0  0  0  0
 23 28  1  0  0  0  0
 26  9  1  0  0  0  0
 27  2  1  0  0  0  0
 27  5  1  0  0  0  0
 28  6  2  0  0  0  0
 30 32  1  0  0  0  0
 30 29  1  0  0  0  0
 31 30  2  0  0  0  0
M  END
>  <MODEL>
1

>  <REMARK>
 VINA RESULT:      -8.7      0.000      0.000
  Name = 
  1 active torsions:
  status: ('A' for Active; 'I' for Inactive)
    1  A    between atoms: C_20  and  N_29
                            x       y       z     vdW  Elec       q    Type
                         _______ _______ _______ _____ _____    ______ ____

>  <TORSDO>
F 1

$$$$
=
 OpenBabel11112416313D

 32 37  0  0  1  0  0  0  0  0999 V2000
  186.6950  177.1610  146.4580 C   0  0  0  0  0  2  0  0  0  0  0  0
  191.7350  176.2810  144.1010 C   0  0  1  0  0  3  0  0  0  0  0  0
  188.8510  173.1720  141.5540 C   0  0  0  0  0  2  0  0  0  0  0  0
  189.9830  172.1520  141.4790 C   0  0  0  0  0  2  0  0  0  0  0  0
  193.9420  175.5540  145.1460 C   0  0  1  0  0  3  0  0  0  0  0  0
  194.9120  174.4110  145.2640 C   0  0  0  0  0  0  0  0  0  0  0  0
  189.8420  177.1060  145.5030 C   0  0  1  0  0  3  0  0  0  0  0  0
  189.7520  177.1020  143.0070 C   0  0  0  0  0  2  0  0  0  0  0  0
  195.8070  172.3710  145.0300 N   0  0  0  0  0  0  0  0  0  0  0  0
  187.7700  177.9100  144.2990 C   0  0  0  0  0  2  0  0  0  0  0  0
  189.4220  174.5860  141.6030 C   0  0  0  0  0  2  0  0  0  0  0  0
  190.8530  176.1250  142.9250 N   0  0  2  0  0  0  0  0  0  0  0  0
  190.3360  174.7440  142.8250 C   0  0  2  0  0  3  0  0  0  0  0  0
  192.4820  173.8770  143.8680 C   0  0  1  0  0  3  0  0  0  0  0  0
  196.6760  173.0830  145.9570 C   0  0  0  0  0  3  0  0  0  0  0  0
  187.8380  176.2440  146.8740 C   0  0  0  0  0  2  0  0  0  0  0  0
  188.9280  176.9300  144.2860 C   0  0  2  0  0  3  0  0  0  0  0  0
  196.0480  174.3950  146.1220 N   0  0  0  0  0  0  0  0  0  0  0  0
  189.1500  177.0220  146.8710 C   0  0  0  0  0  2  0  0  0  0  0  0
  186.5550  177.2510  144.9380 C   0  0  2  0  0  3  0  0  0  0  0  0
  190.9150  172.3100  142.6760 C   0  0  0  0  0  2  0  0  0  0  0  0
  191.4900  173.7280  142.7110 C   0  0  1  0  0  3  0  0  0  0  0  0
  193.6950  172.9640  143.6480 C   0  0  0  0  0  2  0  0  0  0  0  0
  190.9780  176.1000  145.4290 C   0  0  0  0  0  2  0  0  0  0  0  0
  194.6970  176.8560  144.9440 C   0  0  0  0  0  1  0  0  0  0  0  0
  196.1290  171.1110  144.3870 C   0  0  0  0  0  1  0  0  0  0  0  0
  192.9430  175.3430  143.9880 C   0  0  1  0  0  3  0  0  0  0  0  0
  194.7590  173.2500  144.6620 C   0  0  0  0  0  0  0  0  0  0  0  0
  185.3640  178.0170  144.6010 N   0  0  0  0  0  2  0  0  0  0  0  0
  184.7360  177.9400  143.3210 C   0  0  0  0  0  0  0  0  0  0  0  0
  185.2130  177.2100  142.4130 O   0  0  0  0  0  0  0  0  0  0  0  0
  183.5080  178.7340  143.0570 C   0  0  0  0  0  1  0  0  0  0  0  0
  1 16  1  0  0  0  0
  2 24  1  1  0  0  0
  3 11  1  0  0  0  0
  4  3  1  0  0  0  0
  4 21  1  0  0  0  0
  5 25  1  6  0  0  0
  5  6  1  0  0  0  0
  6 18  1  0  0  0  0
  7 24  1  1  0  0  0
  7 19  1  0  0  0  0
  9 15  1  0  0  0  0
 10 20  1  0  0  0  0
 12  8  1  1  0  0  0
 12  2  1  0  0  0  0
 13 11  1  6  0  0  0
 13 12  1  0  0  0  0
 14 23  1  6  0  0  0
 14 27  1  0  0  0  0
 15 18  2  0  0  0  0
 17  8  1  6  0  0  0
 17 10  1  0  0  0  0
 17  7  1  0  0  0  0
 19 16  1  0  0  0  0
 20 29  1  1  0  0  0
 20  1  1  0  0  0  0
 22 21  1  1  0  0  0
 22 13  1  0  0  0  0
 22 14  1  0  0  0  0
 23 28  1  0  0  0  0
 26  9  1  0  0  0  0
 27  2  1  0  0  0  0
 27  5  1  0  0  0  0
 28  9  1  0  0  0  0
 28  6  2  0  0  0  0
 30 29  1  0  0  0  0
 31 30  2  0  0  0  0
 32 30  1  0  0  0  0
M  END
>  <MODEL>
2

>  <REMARK>
 VINA RESULT:      -8.6      2.560      8.074
  Name = 
  1 active torsions:
  status: ('A' for Active; 'I' for Inactive)
    1  A    between atoms: C_20  and  N_29
                            x       y       z     vdW  Elec       q    Type
                         _______ _______ _______ _____ _____    ______ ____

>  <TORSDO>
F 1

$$$$
=
 OpenBabel11112416313D

 32 37  0  0  1  0  0  0  0  0999 V2000
  187.5840  176.4560  146.8830 C   0  0  0  0  0  2  0  0  0  0  0  0
  192.5050  175.2420  144.4240 C   0  0  1  0  0  3  0  0  0  0  0  0
  189.2740  173.0010  141.4230 C   0  0  0  0  0  2  0  0  0  0  0  0
  190.2520  171.8530  141.1920 C   0  0  0  0  0  2  0  0  0  0  0  0
  194.5630  174.0570  145.3470 C   0  0  1  0  0  3  0  0  0  0  0  0
  195.3600  172.7840  145.2870 C   0  0  0  0  0  0  0  0  0  0  0  0
  190.7140  176.1020  145.9350 C   0  0  1  0  0  3  0  0  0  0  0  0
  190.6810  176.4930  143.4680 C   0  0  0  0  0  2  0  0  0  0  0  0
  195.9660  170.6980  144.7410 N   0  0  0  0  0  0  0  0  0  0  0  0
  188.8030  177.3670  144.8670 C   0  0  0  0  0  2  0  0  0  0  0  0
  190.0350  174.2950  141.6910 C   0  0  0  0  0  2  0  0  0  0  0  0
  191.6370  175.3940  143.2370 N   0  0  2  0  0  0  0  0  0  0  0  0
  190.9330  174.1330  142.9240 C   0  0  2  0  0  3  0  0  0  0  0  0
  192.9130  172.8200  143.8230 C   0  0  1  0  0  3  0  0  0  0  0  0
  196.9050  171.1290  145.7690 C   0  0  0  0  0  3  0  0  0  0  0  0
  188.5780  175.3330  147.1540 C   0  0  0  0  0  2  0  0  0  0  0  0
  189.8130  176.2460  144.7040 C   0  0  2  0  0  3  0  0  0  0  0  0
  196.4630  172.4760  146.1330 N   0  0  0  0  0  0  0  0  0  0  0  0
  189.9850  175.9090  147.2730 C   0  0  0  0  0  2  0  0  0  0  0  0
  187.4930  176.7970  145.3950 C   0  0  2  0  0  3  0  0  0  0  0  0
  191.1700  171.6930  142.4000 C   0  0  0  0  0  2  0  0  0  0  0  0
  191.9370  172.9920  142.6550 C   0  0  1  0  0  3  0  0  0  0  0  0
  193.9910  171.7890  143.4650 C   0  0  0  0  0  2  0  0  0  0  0  0
  191.6990  174.9680  145.7070 C   0  0  0  0  0  2  0  0  0  0  0  0
  195.4980  175.2540  145.3500 C   0  0  0  0  0  1  0  0  0  0  0  0
  196.1240  169.5190  143.9110 C   0  0  0  0  0  1  0  0  0  0  0  0
  193.5710  174.1700  144.1690 C   0  0  1  0  0  3  0  0  0  0  0  0
  195.0610  171.7630  144.5130 C   0  0  0  0  0  0  0  0  0  0  0  0
  186.4300  177.7670  145.1800 N   0  0  0  0  0  2  0  0  0  0  0  0
  185.5320  177.6920  144.0710 C   0  0  0  0  0  0  0  0  0  0  0  0
  185.6470  176.7790  143.2110 O   0  0  0  0  0  0  0  0  0  0  0  0
  184.4540  178.7050  143.9290 C   0  0  0  0  0  1  0  0  0  0  0  0
  1 16  1  0  0  0  0
  2 24  1  1  0  0  0
  3 11  1  0  0  0  0
  4  3  1  0  0  0  0
  4 21  1  0  0  0  0
  5 25  1  6  0  0  0
  6  5  1  0  0  0  0
  6 18  1  0  0  0  0
  7 24  1  6  0  0  0
  7 19  1  0  0  0  0
  9 15  1  0  0  0  0
 10 20  1  0  0  0  0
 12  8  1  1  0  0  0
 12  2  1  0  0  0  0
 13 11  1  6  0  0  0
 13 12  1  0  0  0  0
 14 23  1  6  0  0  0
 14 27  1  0  0  0  0
 15 18  2  0  0  0  0
 16 19  1  0  0  0  0
 17  8  1  6  0  0  0
 17 10  1  0  0  0  0
 17  7  1  0  0  0  0
 20 29  1  1  0  0  0
 20  1  1  0  0  0  0
 22 21  1  1  0  0  0
 22 13  1  0  0  0  0
 22 14  1  0  0  0  0
 23 28  1  0  0  0  0
 26  9  1  0  0  0  0
 27  2  1  0  0  0  0
 27  5  1  0  0  0  0
 28  9  1  0  0  0  0
 28  6  2  0  0  0  0
 30 29  1  0  0  0  0
 31 30  2  0  0  0  0
 32 30  1  0  0  0  0
M  END
>  <MODEL>
3

>  <REMARK>
 VINA RESULT:      -8.2      2.575      8.213
  Name = 
  1 active torsions:
  status: ('A' for Active; 'I' for Inactive)
    1  A    between atoms: C_20  and  N_29
                            x       y       z     vdW  Elec       q    Type
                         _______ _______ _______ _____ _____    ______ ____

>  <TORSDO>
F 1

$$$$
=
 OpenBabel11112416313D

 32 37  0  0  1  0  0  0  0  0999 V2000
  195.2860  174.3780  143.9440 C   0  0  0  0  0  2  0  0  0  0  0  0
  189.7150  174.6980  144.7150 C   0  0  1  0  0  3  0  0  0  0  0  0
  190.0230  172.2080  140.4520 C   0  0  0  0  0  2  0  0  0  0  0  0
  188.7740  172.9110  139.9270 C   0  0  0  0  0  2  0  0  0  0  0  0
  188.2030  176.7280  145.0070 C   0  0  1  0  0  3  0  0  0  0  0  0
  187.1510  177.5650  144.3350 C   0  0  0  0  0  0  0  0  0  0  0  0
  192.1940  174.8800  144.9470 C   0  0  1  0  0  3  0  0  0  0  0  0
  191.0430  172.6920  144.5850 C   0  0  0  0  0  2  0  0  0  0  0  0
  185.7470  178.3290  142.7660 N   0  0  0  0  0  0  0  0  0  0  0  0
  193.5370  172.7460  144.7540 C   0  0  0  0  0  2  0  0  0  0  0  0
  189.9530  172.0760  141.9690 C   0  0  0  0  0  2  0  0  0  0  0  0
  189.8270  173.3640  144.0890 N   0  0  2  0  0  0  0  0  0  0  0  0
  189.8370  173.4640  142.6150 C   0  0  2  0  0  3  0  0  0  0  0  0
  188.3370  175.5080  142.7560 C   0  0  1  0  0  3  0  0  0  0  0  0
  185.6720  179.2820  143.8650 C   0  0  0  0  0  3  0  0  0  0  0  0
  194.2960  175.4780  143.5830 C   0  0  0  0  0  2  0  0  0  0  0  0
  192.3070  173.5010  144.2860 C   0  0  2  0  0  3  0  0  0  0  0  0
  186.6250  178.7810  144.8560 N   0  0  0  0  0  0  0  0  0  0  0  0
  193.4170  175.7950  144.7880 C   0  0  0  0  0  2  0  0  0  0  0  0
  194.6810  172.9840  143.7770 C   0  0  2  0  0  3  0  0  0  0  0  0
  188.6300  174.2840  140.5760 C   0  0  0  0  0  2  0  0  0  0  0  0
  188.5520  174.1410  142.0980 C   0  0  1  0  0  3  0  0  0  0  0  0
  186.9780  176.0870  142.3410 C   0  0  0  0  0  2  0  0  0  0  0  0
  190.9460  175.5810  144.4370 C   0  0  0  0  0  2  0  0  0  0  0  0
  187.8270  176.4900  146.4590 C   0  0  0  0  0  1  0  0  0  0  0  0
  184.8260  178.2750  141.6460 C   0  0  0  0  0  1  0  0  0  0  0  0
  188.4070  175.3760  144.2900 C   0  0  1  0  0  3  0  0  0  0  0  0
  186.6700  177.3200  143.1340 C   0  0  0  0  0  0  0  0  0  0  0  0
  195.7080  171.9750  143.9920 N   0  0  0  0  0  2  0  0  0  0  0  0
  196.5440  171.9620  145.1500 C   0  0  0  0  0  0  0  0  0  0  0  0
  196.4360  172.8550  146.0320 O   0  0  0  0  0  0  0  0  0  0  0  0
  197.5560  170.8860  145.3140 C   0  0  0  0  0  1  0  0  0  0  0  0
  2 24  1  6  0  0  0
  3 11  1  0  0  0  0
  4  3  1  0  0  0  0
  4 21  1  0  0  0  0
  5 25  1  1  0  0  0
  6 18  1  0  0  0  0
  6  5  1  0  0  0  0
  7 24  1  6  0  0  0
  9 28  1  0  0  0  0
  9 15  1  0  0  0  0
 12  8  1  1  0  0  0
 12  2  1  0  0  0  0
 13 11  1  6  0  0  0
 13 12  1  0  0  0  0
 14 23  1  1  0  0  0
 14 27  1  0  0  0  0
 15 18  2  0  0  0  0
 16  1  1  0  0  0  0
 16 19  1  0  0  0  0
 17  8  1  1  0  0  0
 17 10  1  0  0  0  0
 17  7  1  0  0  0  0
 19  7  1  0  0  0  0
 20  1  1  0  0  0  0
 20 29  1  1  0  0  0
 20 10  1  0  0  0  0
 22 21  1  6  0  0  0
 22 13  1  0  0  0  0
 22 14  1  0  0  0  0
 23 28  1  0  0  0  0
 26  9  1  0  0  0  0
 27  2  1  0  0  0  0
 27  5  1  0  0  0  0
 28  6  2  0  0  0  0
 29 30  1  0  0  0  0
 30 32  1  0  0  0  0
 30 31  2  0  0  0  0
M  END
>  <MODEL>
4

>  <REMARK>
 VINA RESULT:      -7.5      1.181      1.250
  Name = 
  1 active torsions:
  status: ('A' for Active; 'I' for Inactive)
    1  A    between atoms: C_20  and  N_29
                            x       y       z     vdW  Elec       q    Type
                         _______ _______ _______ _____ _____    ______ ____

>  <TORSDO>
F 1

$$$$
=
 OpenBabel11112416313D

 32 37  0  0  1  0  0  0  0  0999 V2000
  187.3380  178.0890  143.2720 C   0  0  0  0  0  2  0  0  0  0  0  0
  191.1510  173.9430  143.2030 C   0  0  1  0  0  3  0  0  0  0  0  0
  192.7950  176.7910  146.8980 C   0  0  0  0  0  2  0  0  0  0  0  0
  194.2400  176.4920  146.5130 C   0  0  0  0  0  2  0  0  0  0  0  0
  192.6690  173.1270  141.3260 C   0  0  1  0  0  3  0  0  0  0  0  0
  194.0930  173.0910  140.8440 C   0  0  0  0  0  0  0  0  0  0  0  0
  189.1990  175.4280  142.7430 C   0  0  1  0  0  3  0  0  0  0  0  0
  189.6810  174.5230  145.0210 C   0  0  0  0  0  2  0  0  0  0  0  0
  196.2980  173.4670  140.7520 N   0  0  0  0  0  0  0  0  0  0  0  0
  187.7190  176.0410  144.7000 C   0  0  0  0  0  2  0  0  0  0  0  0
  191.9010  175.6090  146.5390 C   0  0  0  0  0  2  0  0  0  0  0  0
  191.0760  174.2200  144.6530 N   0  0  2  0  0  0  0  0  0  0  0  0
  191.9810  175.3250  145.0330 C   0  0  2  0  0  3  0  0  0  0  0  0
  193.5840  174.6300  143.1910 C   0  0  1  0  0  3  0  0  0  0  0  0
  195.9570  172.7950  139.5050 C   0  0  0  0  0  3  0  0  0  0  0  0
  188.6000  177.9150  142.4370 C   0  0  0  0  0  2  0  0  0  0  0  0
  189.1320  175.7230  144.2450 C   0  0  2  0  0  3  0  0  0  0  0  0
  194.5080  172.5970  139.5750 N   0  0  0  0  0  0  0  0  0  0  0  0
  188.6260  176.5190  141.8260 C   0  0  0  0  0  2  0  0  0  0  0  0
  187.5110  177.5490  144.6920 C   0  0  2  0  0  3  0  0  0  0  0  0
  194.3360  176.1850  145.0220 C   0  0  0  0  0  2  0  0  0  0  0  0
  193.4430  174.9920  144.6720 C   0  0  1  0  0  3  0  0  0  0  0  0
  195.0130  174.1560  142.8950 C   0  0  0  0  0  2  0  0  0  0  0  0
  190.6350  175.1190  142.3540 C   0  0  0  0  0  2  0  0  0  0  0  0
  192.0150  171.7730  141.1150 C   0  0  0  0  0  1  0  0  0  0  0  0
  197.6480  173.6750  141.2440 C   0  0  0  0  0  1  0  0  0  0  0  0
  192.5750  173.5280  142.8140 C   0  0  1  0  0  3  0  0  0  0  0  0
  195.1070  173.6090  141.5040 C   0  0  0  0  0  0  0  0  0  0  0  0
  186.3330  177.8710  145.4850 N   0  0  0  0  0  2  0  0  0  0  0  0
  186.3870  178.0720  146.8980 C   0  0  0  0  0  0  0  0  0  0  0  0
  187.4730  177.9510  147.5240 O   0  0  0  0  0  0  0  0  0  0  0  0
  185.1470  178.4220  147.6380 C   0  0  0  0  0  1  0  0  0  0  0  0
  1 20  1  0  0  0  0
  2 24  1  6  0  0  0
  2 12  1  0  0  0  0
  4  3  1  0  0  0  0
  5 25  1  1  0  0  0
  5 27  1  0  0  0  0
  6  5  1  0  0  0  0
  6 28  2  0  0  0  0
  7 19  1  6  0  0  0
  7 17  1  0  0  0  0
  9 26  1  0  0  0  0
  9 28  1  0  0  0  0
 11  3  1  0  0  0  0
 12  8  1  6  0  0  0
 12 13  1  0  0  0  0
 13 11  1  1  0  0  0
 14 23  1  1  0  0  0
 14 22  1  0  0  0  0
 15 18  2  0  0  0  0
 15  9  1  0  0  0  0
 16  1  1  0  0  0  0
 17 10  1  1  0  0  0
 17  8  1  0  0  0  0
 18  6  1  0  0  0  0
 19 16  1  0  0  0  0
 20 10  1  0  0  0  0
 20 29  1  1  0  0  0
 21  4  1  0  0  0  0
 22 21  1  6  0  0  0
 22 13  1  0  0  0  0
 24  7  1  0  0  0  0
 27 14  1  0  0  0  0
 27  2  1  0  0  0  0
 28 23  1  0  0  0  0
 29 30  1  0  0  0  0
 30 31  2  0  0  0  0
 30 32  1  0  0  0  0
M  END
>  <MODEL>
5

>  <REMARK>
 VINA RESULT:      -7.4      3.065      8.403
  Name = 
  1 active torsions:
  status: ('A' for Active; 'I' for Inactive)
    1  A    between atoms: C_20  and  N_29
                            x       y       z     vdW  Elec       q    Type
                         _______ _______ _______ _____ _____    ______ ____

>  <TORSDO>
F 1

$$$$
=
 OpenBabel11112416313D

 32 37  0  0  1  0  0  0  0  0999 V2000
  184.3790  178.3370  144.7200 C   0  0  0  0  0  2  0  0  0  0  0  0
  189.6900  177.2600  143.1820 C   0  0  1  0  0  3  0  0  0  0  0  0
  187.3260  173.2010  141.6300 C   0  0  0  0  0  2  0  0  0  0  0  0
  188.5310  172.3370  141.9900 C   0  0  0  0  0  2  0  0  0  0  0  0
  191.8220  177.1530  144.5720 C   0  0  1  0  0  3  0  0  0  0  0  0
  192.8550  176.2210  145.1420 C   0  0  0  0  0  0  0  0  0  0  0  0
  187.6040  178.2990  144.0770 C   0  0  1  0  0  3  0  0  0  0  0  0
  187.7770  177.4620  141.7300 C   0  0  0  0  0  2  0  0  0  0  0  0
  193.9170  174.3240  145.6790 N   0  0  0  0  0  0  0  0  0  0  0  0
  185.6160  178.4390  142.5210 C   0  0  0  0  0  2  0  0  0  0  0  0
  187.7820  174.6030  141.2400 C   0  0  0  0  0  2  0  0  0  0  0  0
  188.9500  176.6330  142.0660 N   0  0  2  0  0  0  0  0  0  0  0  0
  188.5490  175.2510  142.4010 C   0  0  2  0  0  3  0  0  0  0  0  0
  190.6310  175.0060  143.8330 C   0  0  1  0  0  3  0  0  0  0  0  0
  194.6290  175.3890  146.3720 C   0  0  0  0  0  3  0  0  0  0  0  0
  185.5360  177.7340  145.5060 C   0  0  0  0  0  2  0  0  0  0  0  0
  186.8390  177.6370  142.9260 C   0  0  2  0  0  3  0  0  0  0  0  0
  193.8930  176.6090  146.0360 N   0  0  0  0  0  0  0  0  0  0  0  0
  186.7800  178.6000  145.3370 C   0  0  0  0  0  2  0  0  0  0  0  0
  184.3930  177.9050  143.2540 C   0  0  2  0  0  3  0  0  0  0  0  0
  189.3180  172.9780  143.1280 C   0  0  0  0  0  2  0  0  0  0  0  0
  189.7800  174.3800  142.7240 C   0  0  1  0  0  3  0  0  0  0  0  0
  191.9250  174.2030  144.0250 C   0  0  0  0  0  2  0  0  0  0  0  0
  188.8130  177.4500  144.4330 C   0  0  0  0  0  2  0  0  0  0  0  0
  192.4960  178.3870  143.9980 C   0  0  0  0  0  1  0  0  0  0  0  0
  194.3970  172.9640  145.5260 C   0  0  0  0  0  1  0  0  0  0  0  0
  190.9680  176.4690  143.4830 C   0  0  1  0  0  3  0  0  0  0  0  0
  192.8520  174.9180  144.9590 C   0  0  0  0  0  0  0  0  0  0  0  0
  183.1910  178.3880  142.5900 N   0  0  0  0  0  2  0  0  0  0  0  0
  182.9510  178.1940  141.1950 C   0  0  0  0  0  0  0  0  0  0  0  0
  183.7980  177.6070  140.4720 O   0  0  0  0  0  0  0  0  0  0  0  0
  181.6890  178.6940  140.5910 C   0  0  0  0  0  1  0  0  0  0  0  0
  1 16  1  0  0  0  0
  2 27  1  0  0  0  0
  2 24  1  1  0  0  0
  3  4  1  0  0  0  0
  4 21  1  0  0  0  0
  5 25  1  6  0  0  0
  5  6  1  0  0  0  0
  6 18  1  0  0  0  0
  7 24  1  1  0  0  0
  7 19  1  0  0  0  0
  9 15  1  0  0  0  0
 10 17  1  0  0  0  0
 10 20  1  0  0  0  0
 11  3  1  0  0  0  0
 12  8  1  1  0  0  0
 12 13  1  0  0  0  0
 12  2  1  0  0  0  0
 13 11  1  6  0  0  0
 13 22  1  0  0  0  0
 14 23  1  6  0  0  0
 17  8  1  6  0  0  0
 17  7  1  0  0  0  0
 18 15  2  0  0  0  0
 19 16  1  0  0  0  0
 20 29  1  6  0  0  0
 20  1  1  0  0  0  0
 22 21  1  1  0  0  0
 22 14  1  0  0  0  0
 23 28  1  0  0  0  0
 26  9  1  0  0  0  0
 27 14  1  0  0  0  0
 27  5  1  0  0  0  0
 28  6  2  0  0  0  0
 28  9  1  0  0  0  0
 30 29  1  0  0  0  0
 31 30  2  0  0  0  0
 32 30  1  0  0  0  0
M  END
>  <MODEL>
6

>  <REMARK>
 VINA RESULT:      -7.2      3.001      8.217
  Name = 
  1 active torsions:
  status: ('A' for Active; 'I' for Inactive)
    1  A    between atoms: C_20  and  N_29
                            x       y       z     vdW  Elec       q    Type
                         _______ _______ _______ _____ _____    ______ ____

>  <TORSDO>
F 1

$$$$
=
 OpenBabel11112416313D

 32 37  0  0  1  0  0  0  0  0999 V2000
  187.2210  178.2030  142.6320 C   0  0  0  0  0  2  0  0  0  0  0  0
  190.9030  174.1390  143.9210 C   0  0  1  0  0  3  0  0  0  0  0  0
  191.2020  177.0920  147.8780 C   0  0  0  0  0  2  0  0  0  0  0  0
  192.6980  176.8170  147.9950 C   0  0  0  0  0  2  0  0  0  0  0  0
  192.9640  173.3210  142.6660 C   0  0  1  0  0  3  0  0  0  0  0  0
  194.4670  173.3060  142.6790 C   0  0  0  0  0  0  0  0  0  0  0  0
  189.1890  175.5740  142.8090 C   0  0  1  0  0  3  0  0  0  0  0  0
  188.9090  174.7230  145.1410 C   0  0  0  0  0  2  0  0  0  0  0  0
  196.5760  173.7280  143.3050 N   0  0  0  0  0  0  0  0  0  0  0  0
  187.1410  176.1910  144.1570 C   0  0  0  0  0  2  0  0  0  0  0  0
  190.4920  175.8840  147.2750 C   0  0  0  0  0  2  0  0  0  0  0  0
  190.3520  174.4420  145.2580 N   0  0  2  0  0  0  0  0  0  0  0  0
  191.0660  175.5740  145.8860 C   0  0  2  0  0  3  0  0  0  0  0  0
  193.1950  174.8790  144.6900 C   0  0  1  0  0  3  0  0  0  0  0  0
  196.6710  173.0250  142.0330 C   0  0  0  0  0  3  0  0  0  0  0  0
  188.6890  178.0410  142.2610 C   0  0  0  0  0  2  0  0  0  0  0  0
  188.6290  175.8960  144.1990 C   0  0  2  0  0  3  0  0  0  0  0  0
  195.2830  172.7970  141.6290 N   0  0  0  0  0  0  0  0  0  0  0  0
  188.9330  176.6340  141.7280 C   0  0  0  0  0  2  0  0  0  0  0  0
  186.9250  177.6940  144.0440 C   0  0  2  0  0  3  0  0  0  0  0  0
  193.2820  176.4830  146.6260 C   0  0  0  0  0  2  0  0  0  0  0  0
  192.5700  175.2650  146.0330 C   0  0  1  0  0  3  0  0  0  0  0  0
  194.6480  174.4290  144.8910 C   0  0  0  0  0  2  0  0  0  0  0  0
  190.6770  175.2870  142.9200 C   0  0  0  0  0  2  0  0  0  0  0  0
  192.4350  171.9490  142.2870 C   0  0  0  0  0  1  0  0  0  0  0  0
  197.6850  173.9740  144.2070 C   0  0  0  0  0  1  0  0  0  0  0  0
  192.3810  173.7480  144.0300 C   0  0  1  0  0  3  0  0  0  0  0  0
  195.2010  173.8590  143.6210 C   0  0  0  0  0  0  0  0  0  0  0  0
  185.5480  178.0060  144.3980 N   0  0  0  0  0  2  0  0  0  0  0  0
  185.1490  178.3230  145.7330 C   0  0  0  0  0  0  0  0  0  0  0  0
  185.9870  178.3200  146.6730 O   0  0  0  0  0  0  0  0  0  0  0  0
  183.7280  178.6550  146.0150 C   0  0  0  0  0  1  0  0  0  0  0  0
  1 20  1  0  0  0  0
  2 24  1  6  0  0  0
  2 27  1  0  0  0  0
  2 12  1  0  0  0  0
  3  4  1  0  0  0  0
  5 25  1  1  0  0  0
  5  6  1  0  0  0  0
  5 27  1  0  0  0  0
  6 28  2  0  0  0  0
  7 19  1  6  0  0  0
  7 24  1  0  0  0  0
  7 17  1  0  0  0  0
  9 28  1  0  0  0  0
  9 26  1  0  0  0  0
 11  3  1  0  0  0  0
 12  8  1  6  0  0  0
 12 13  1  0  0  0  0
 13 22  1  0  0  0  0
 13 11  1  1  0  0  0
 14 23  1  1  0  0  0
 14 22  1  0  0  0  0
 15  9  1  0  0  0  0
 16  1  1  0  0  0  0
 17 10  1  6  0  0  0
 17  8  1  0  0  0  0
 18 15  2  0  0  0  0
 18  6  1  0  0  0  0
 19 16  1  0  0  0  0
 20 10  1  0  0  0  0
 20 29  1  6  0  0  0
 21  4  1  0  0  0  0
 22 21  1  6  0  0  0
 27 14  1  0  0  0  0
 28 23  1  0  0  0  0
 29 30  1  0  0  0  0
 30 32  1  0  0  0  0
 30 31  2  0  0  0  0
M  END
>  <MODEL>
7

>  <REMARK>
 VINA RESULT:      -7.1      2.817      8.587
  Name = 
  1 active torsions:
  status: ('A' for Active; 'I' for Inactive)
    1  A    between atoms: C_20  and  N_29
                            x       y       z     vdW  Elec       q    Type
                         _______ _______ _______ _____ _____    ______ ____

>  <TORSDO>
F 1

$$$$
=
 OpenBabel11112416313D

 32 37  0  0  1  0  0  0  0  0999 V2000
  186.5470  178.4700  142.8770 C   0  0  0  0  0  2  0  0  0  0  0  0
  189.9340  174.0350  142.1090 C   0  0  1  0  0  3  0  0  0  0  0  0
  192.5480  176.7910  145.2780 C   0  0  0  0  0  2  0  0  0  0  0  0
  193.8490  176.3740  144.5990 C   0  0  0  0  0  2  0  0  0  0  0  0
  190.9440  173.0790  139.9740 C   0  0  1  0  0  3  0  0  0  0  0  0
  192.2220  172.9240  139.1980 C   0  0  0  0  0  0  0  0  0  0  0  0
  188.0450  175.6640  142.0370 C   0  0  1  0  0  3  0  0  0  0  0  0
  188.9410  174.7520  144.1840 C   0  0  0  0  0  2  0  0  0  0  0  0
  194.3770  173.1240  138.6220 N   0  0  0  0  0  0  0  0  0  0  0  0
  187.0750  176.4160  144.2490 C   0  0  0  0  0  2  0  0  0  0  0  0
  191.5120  175.6780  145.1550 C   0  0  0  0  0  2  0  0  0  0  0  0
  190.1970  174.3350  143.5330 N   0  0  2  0  0  0  0  0  0  0  0  0
  191.2420  175.3700  143.6760 C   0  0  2  0  0  3  0  0  0  0  0  0
  192.3510  174.5280  141.5530 C   0  0  1  0  0  3  0  0  0  0  0  0
  193.7240  172.4650  137.4990 C   0  0  0  0  0  3  0  0  0  0  0  0
  187.5800  178.1860  141.7940 C   0  0  0  0  0  2  0  0  0  0  0  0
  188.3280  175.9820  143.5100 C   0  0  2  0  0  3  0  0  0  0  0  0
  192.3140  172.3830  137.8850 N   0  0  0  0  0  0  0  0  0  0  0  0
  187.3690  176.7840  141.2340 C   0  0  0  0  0  2  0  0  0  0  0  0
  186.9830  177.9360  144.2420 C   0  0  2  0  0  3  0  0  0  0  0  0
  193.5950  176.0410  143.1330 C   0  0  0  0  0  2  0  0  0  0  0  0
  192.5620  174.9180  143.0190 C   0  0  1  0  0  3  0  0  0  0  0  0
  193.6420  173.9380  140.9710 C   0  0  0  0  0  2  0  0  0  0  0  0
  189.3350  175.2370  141.3580 C   0  0  0  0  0  2  0  0  0  0  0  0
  190.1610  171.7770  139.9490 C   0  0  0  0  0  1  0  0  0  0  0  0
  195.8120  173.2300  138.8050 C   0  0  0  0  0  1  0  0  0  0  0  0
  191.2050  173.5040  141.4350 C   0  0  1  0  0  3  0  0  0  0  0  0
  193.3910  173.3690  139.6080 C   0  0  0  0  0  0  0  0  0  0  0  0
  186.0330  178.3600  145.2590 N   0  0  0  0  0  2  0  0  0  0  0  0
  186.3190  178.2910  146.6570 C   0  0  0  0  0  0  0  0  0  0  0  0
  187.4170  177.8310  147.0670 O   0  0  0  0  0  0  0  0  0  0  0  0
  185.3090  178.7660  147.6380 C   0  0  0  0  0  1  0  0  0  0  0  0
  1 20  1  0  0  0  0
  2 24  1  6  0  0  0
  2 12  1  0  0  0  0
  4  3  1  0  0  0  0
  5 25  1  1  0  0  0
  5 27  1  0  0  0  0
  6 28  2  0  0  0  0
  6  5  1  0  0  0  0
  7 19  1  6  0  0  0
  7 17  1  0  0  0  0
  9 26  1  0  0  0  0
  9 28  1  0  0  0  0
 11  3  1  0  0  0  0
 12 13  1  0  0  0  0
 12  8  1  6  0  0  0
 13 11  1  1  0  0  0
 14 23  1  1  0  0  0
 14 22  1  0  0  0  0
 15 18  2  0  0  0  0
 15  9  1  0  0  0  0
 16  1  1  0  0  0  0
 17  8  1  1  0  0  0
 17 10  1  0  0  0  0
 18  6  1  0  0  0  0
 19 16  1  0  0  0  0
 20 10  1  0  0  0  0
 20 29  1  1  0  0  0
 21  4  1  0  0  0  0
 22 21  1  6  0  0  0
 22 13  1  0  0  0  0
 24  7  1  0  0  0  0
 27 14  1  0  0  0  0
 27  2  1  0  0  0  0
 28 23  1  0  0  0  0
 29 30  1  0  0  0  0
 30 31  2  0  0  0  0
 30 32  1  0  0  0  0
M  END
>  <MODEL>
8

>  <REMARK>
 VINA RESULT:      -6.9      3.414      8.210
  Name = 
  1 active torsions:
  status: ('A' for Active; 'I' for Inactive)
    1  A    between atoms: C_20  and  N_29
                            x       y       z     vdW  Elec       q    Type
                         _______ _______ _______ _____ _____    ______ ____

>  <TORSDO>
F 1

$$$$
=
 OpenBabel11112416313D

 32 37  0  0  1  0  0  0  0  0999 V2000
  186.6730  178.6610  142.6780 C   0  0  0  0  0  2  0  0  0  0  0  0
  188.7200  173.7640  140.7910 C   0  0  1  0  0  3  0  0  0  0  0  0
  190.9120  174.1620  145.2070 C   0  0  0  0  0  2  0  0  0  0  0  0
  192.1830  173.5220  144.6570 C   0  0  0  0  0  2  0  0  0  0  0  0
  190.0160  173.2260  138.6640 C   0  0  1  0  0  3  0  0  0  0  0  0
  191.3700  172.8520  138.1290 C   0  0  0  0  0  0  0  0  0  0  0  0
  187.4900  175.9200  141.0530 C   0  0  1  0  0  3  0  0  0  0  0  0
  187.3880  174.1070  142.7690 C   0  0  0  0  0  2  0  0  0  0  0  0
  193.5610  172.3900  138.0690 N   0  0  0  0  0  0  0  0  0  0  0  0
  186.1480  176.2410  143.1720 C   0  0  0  0  0  2  0  0  0  0  0  0
  189.6910  173.6280  144.4660 C   0  0  0  0  0  2  0  0  0  0  0  0
  188.6090  173.4740  142.2360 N   0  0  2  0  0  0  0  0  0  0  0  0
  189.8100  173.9320  142.9660 C   0  0  2  0  0  3  0  0  0  0  0  0
  191.2260  173.4510  140.9140 C   0  0  1  0  0  3  0  0  0  0  0  0
  193.1230  172.4220  136.6800 C   0  0  0  0  0  3  0  0  0  0  0  0
  187.8620  178.3660  141.7720 C   0  0  0  0  0  2  0  0  0  0  0  0
  187.3890  175.6220  142.5530 C   0  0  2  0  0  3  0  0  0  0  0  0
  191.7010  172.7630  136.7470 N   0  0  0  0  0  0  0  0  0  0  0  0
  187.4410  177.4050  140.6660 C   0  0  0  0  0  2  0  0  0  0  0  0
  186.5000  177.5990  143.7640 C   0  0  2  0  0  3  0  0  0  0  0  0
  192.3050  173.7930  143.1610 C   0  0  0  0  0  2  0  0  0  0  0  0
  191.0810  173.2460  142.4240 C   0  0  1  0  0  3  0  0  0  0  0  0
  192.4080  172.6330  140.3790 C   0  0  0  0  0  2  0  0  0  0  0  0
  188.7480  175.2740  140.4960 C   0  0  0  0  0  2  0  0  0  0  0  0
  188.9410  172.4000  137.9790 C   0  0  0  0  0  1  0  0  0  0  0  0
  194.8390  171.8800  138.5280 C   0  0  0  0  0  1  0  0  0  0  0  0
  189.9280  173.0340  140.1930 C   0  0  1  0  0  3  0  0  0  0  0  0
  192.4340  172.6650  138.8820 C   0  0  0  0  0  0  0  0  0  0  0  0
  185.4470  178.0060  144.6830 N   0  0  0  0  0  2  0  0  0  0  0  0
  185.5470  177.8280  146.0960 C   0  0  0  0  0  0  0  0  0  0  0  0
  186.5600  177.2800  146.6060 O   0  0  0  0  0  0  0  0  0  0  0  0
  184.4410  178.2910  146.9740 C   0  0  0  0  0  1  0  0  0  0  0  0
  1 20  1  0  0  0  0
  2 24  1  1  0  0  0
  2 12  1  0  0  0  0
  4  3  1  0  0  0  0
  5 25  1  6  0  0  0
  5 27  1  0  0  0  0
  6  5  1  0  0  0  0
  6 28  2  0  0  0  0
  7 24  1  1  0  0  0
  7 17  1  0  0  0  0
  9 26  1  0  0  0  0
  9 28  1  0  0  0  0
 10 20  1  0  0  0  0
 11  3  1  0  0  0  0
 12  8  1  1  0  0  0
 12 13  1  0  0  0  0
 13 11  1  1  0  0  0
 14 23  1  6  0  0  0
 14 22  1  0  0  0  0
 15 18  2  0  0  0  0
 15  9  1  0  0  0  0
 16  1  1  0  0  0  0
 17  8  1  6  0  0  0
 17 10  1  0  0  0  0
 18  6  1  0  0  0  0
 19  7  1  0  0  0  0
 19 16  1  0  0  0  0
 20 29  1  1  0  0  0
 21  4  1  0  0  0  0
 22 13  1  0  0  0  0
 22 21  1  1  0  0  0
 27  2  1  0  0  0  0
 27 14  1  0  0  0  0
 28 23  1  0  0  0  0
 29 30  1  0  0  0  0
 30 31  2  0  0  0  0
 30 32  1  0  0  0  0
M  END
>  <MODEL>
9

>  <REMARK>
 VINA RESULT:      -6.3      3.611      8.359
  Name = 
  1 active torsions:
  status: ('A' for Active; 'I' for Inactive)
    1  A    between atoms: C_20  and  N_29
                            x       y       z     vdW  Elec       q    Type
                         _______ _______ _______ _____ _____    ______ ____

>  <TORSDO>
F 1

$$$$
