=
 OpenBabel11112417093D

 37 44  0  0  1  0  0  0  0  0999 V2000
  191.8530  176.2050  145.0620 O   0  0  0  0  0  0  0  0  0  0  0  0
  193.3970  172.8110  141.5270 C   0  0  0  0  0  0  0  0  0  0  0  0
  189.6650  174.5770  141.7810 C   0  0  0  0  0  0  0  0  0  0  0  0
  192.7840  176.1880  146.0520 N   0  0  0  0  0  0  0  0  0  0  0  0
  188.4260  175.8260  145.0060 C   0  0  0  0  0  3  0  0  0  0  0  0
  191.1380  173.1990  140.4580 N   0  0  0  0  0  0  0  0  0  0  0  0
  189.6030  175.0380  143.0710 N   0  0  0  0  0  0  0  0  0  0  0  0
  190.7310  176.5470  147.3730 C   0  0  0  0  0  0  0  0  0  0  0  0
  190.8070  173.8700  141.5800 C   0  0  0  0  0  0  0  0  0  0  0  0
  188.5590  175.7470  143.6660 C   0  0  0  0  0  0  0  0  0  0  0  0
  190.2680  173.2070  139.4080 C   0  0  0  0  0  3  0  0  0  0  0  0
  192.2080  176.7950  147.2510 C   0  0  0  0  0  2  0  0  0  0  0  0
  191.5340  173.8870  142.6850 C   0  0  0  0  0  0  0  0  0  0  0  0
  194.2390  173.9300  140.9470 C   0  0  0  0  0  1  0  0  0  0  0  0
  187.6150  175.4450  140.6140 C   0  0  0  0  0  3  0  0  0  0  0  0
  189.0640  173.9390  139.4830 C   0  0  0  0  0  3  0  0  0  0  0  0
  192.7810  173.2700  142.7480 O   0  0  0  0  0  0  0  0  0  0  0  0
  190.1110  175.1840  147.1730 C   0  0  1  0  0  3  0  0  0  0  0  0
  189.2970  175.2000  145.9170 N   0  0  0  0  0  0  0  0  0  0  0  0
  188.7240  174.6460  140.6520 C   0  0  0  0  0  0  0  0  0  0  0  0
  190.8130  174.5980  143.6190 C   0  0  0  0  0  0  0  0  0  0  0  0
  192.3520  172.3620  140.4600 C   0  0  0  0  0  2  0  0  0  0  0  0
  187.5300  176.4380  142.9460 C   0  0  0  0  0  0  0  0  0  0  0  0
  194.3060  171.6420  141.8420 C   0  0  0  0  0  1  0  0  0  0  0  0
  190.5180  174.3940  146.0980 C   0  0  1  0  0  3  0  0  0  0  0  0
  190.0140  177.4760  147.7030 O   0  0  0  0  0  0  0  0  0  0  0  0
  191.4240  174.8760  144.9650 C   0  0  2  0  0  3  0  0  0  0  0  0
  187.1370  176.2540  141.6200 C   0  0  0  0  0  3  0  0  0  0  0  0
  186.6510  178.7770  143.1830 C   0  0  0  0  0  3  0  0  0  0  0  0
  186.6830  177.4510  143.6380 C   0  0  0  0  0  0  0  0  0  0  0  0
  185.9030  177.0860  144.7510 C   0  0  0  0  0  3  0  0  0  0  0  0
  184.3270  177.6590  146.5250 N   0  0  0  0  0  1  0  0  0  0  0  0
  185.0830  179.3560  144.9360 C   0  0  0  0  0  3  0  0  0  0  0  0
  185.1120  178.0370  145.4000 C   0  0  0  0  0  0  0  0  0  0  0  0
  185.8520  179.7260  143.8290 C   0  0  0  0  0  3  0  0  0  0  0  0
  194.9630  176.2170  144.9690 C   0  0  0  0  0  1  0  0  0  0  0  0
  193.8760  177.0480  145.6280 C   0  0  0  0  0  2  0  0  0  0  0  0
  1  4  1  0  0  0  0
  2 24  1  0  0  0  0
  2 17  1  0  0  0  0
  3  7  1  0  0  0  0
  4 12  1  0  0  0  0
  5 19  1  0  0  0  0
  6 22  1  0  0  0  0
  6  9  1  0  0  0  0
  7 21  1  0  0  0  0
  7 10  1  0  0  0  0
  8 26  2  0  0  0  0
  9  3  2  0  0  0  0
  9 13  1  0  0  0  0
 10  5  2  0  0  0  0
 11 16  2  0  0  0  0
 11  6  1  0  0  0  0
 12  8  1  0  0  0  0
 13 17  1  0  0  0  0
 13 21  2  0  0  0  0
 14  2  1  0  0  0  0
 15 20  2  0  0  0  0
 15 28  1  0  0  0  0
 16 20  1  0  0  0  0
 18  8  1  6  0  0  0
 19 18  1  0  0  0  0
 20  3  1  0  0  0  0
 22  2  1  0  0  0  0
 23 30  1  0  0  0  0
 23 10  1  0  0  0  0
 25 19  1  6  0  0  0
 25 18  1  0  0  0  0
 27 21  1  6  0  0  0
 27  1  1  0  0  0  0
 27 25  1  0  0  0  0
 28 23  2  0  0  0  0
 29 30  2  0  0  0  0
 29 35  1  0  0  0  0
 30 31  1  0  0  0  0
 31 34  2  0  0  0  0
 33 34  1  0  0  0  0
 34 32  1  0  0  0  0
 35 33  2  0  0  0  0
 36 37  1  0  0  0  0
 37  4  1  0  0  0  0
M  END
>  <MODEL>
1

>  <REMARK>
 VINA RESULT:      -8.7      0.000      0.000
  Name = 
  2 active torsions:
  status: ('A' for Active; 'I' for Inactive)
    1  A    between atoms: N_4  and  C_37
    2  A    between atoms: C_23  and  C_30
                            x       y       z     vdW  Elec       q    Type
                         _______ _______ _______ _____ _____    ______ ____

>  <TORSDO>
F 2

$$$$
=
 OpenBabel11112417093D

 37 44  0  0  1  0  0  0  0  0999 V2000
  189.7220  174.1790  142.2150 O   0  0  0  0  0  0  0  0  0  0  0  0
  187.0400  177.0050  145.5660 C   0  0  0  0  0  0  0  0  0  0  0  0
  190.9530  175.7340  145.9930 C   0  0  0  0  0  0  0  0  0  0  0  0
  188.8280  173.6860  141.3180 N   0  0  0  0  0  0  0  0  0  0  0  0
  192.1280  172.7380  144.2210 C   0  0  0  0  0  3  0  0  0  0  0  0
  189.1960  177.1260  146.8830 N   0  0  0  0  0  0  0  0  0  0  0  0
  191.0670  174.7010  145.0980 N   0  0  0  0  0  0  0  0  0  0  0  0
  190.4010  171.7910  141.4720 C   0  0  0  0  0  0  0  0  0  0  0  0
  189.6740  176.1870  146.0420 C   0  0  0  0  0  0  0  0  0  0  0  0
  192.2050  173.9440  144.8210 C   0  0  0  0  0  0  0  0  0  0  0  0
  190.0470  177.6940  147.7840 C   0  0  0  0  0  3  0  0  0  0  0  0
  189.4410  172.5620  140.6110 C   0  0  0  0  0  2  0  0  0  0  0  0
  188.9380  175.5190  145.1690 C   0  0  0  0  0  0  0  0  0  0  0  0
  187.1840  178.1490  144.5820 C   0  0  0  0  0  1  0  0  0  0  0  0
  193.2620  176.1520  146.8950 C   0  0  0  0  0  3  0  0  0  0  0  0
  191.4120  177.3330  147.8050 C   0  0  0  0  0  3  0  0  0  0  0  0
  187.5890  175.8070  144.9790 O   0  0  0  0  0  0  0  0  0  0  0  0
  190.0700  171.3550  142.8800 C   0  0  1  0  0  3  0  0  0  0  0  0
  190.9180  172.1290  143.8410 N   0  0  0  0  0  0  0  0  0  0  0  0
  191.9100  176.3580  146.9200 C   0  0  0  0  0  0  0  0  0  0  0  0
  189.7730  174.5960  144.5750 C   0  0  0  0  0  0  0  0  0  0  0  0
  187.7470  177.3960  146.9000 C   0  0  0  0  0  2  0  0  0  0  0  0
  193.5440  174.3380  145.1450 C   0  0  0  0  0  0  0  0  0  0  0  0
  185.5660  176.7910  145.8380 C   0  0  0  0  0  1  0  0  0  0  0  0
  189.4520  172.2540  143.7510 C   0  0  1  0  0  3  0  0  0  0  0  0
  191.4700  171.4560  140.9900 O   0  0  0  0  0  0  0  0  0  0  0  0
  189.2460  173.7400  143.4570 C   0  0  2  0  0  3  0  0  0  0  0  0
  193.9570  175.2910  146.0770 C   0  0  0  0  0  3  0  0  0  0  0  0
  195.0720  173.9760  143.1870 C   0  0  0  0  0  3  0  0  0  0  0  0
  194.7020  173.6560  144.5010 C   0  0  0  0  0  0  0  0  0  0  0  0
  195.4400  172.6880  145.2070 C   0  0  0  0  0  3  0  0  0  0  0  0
  197.2640  171.0690  145.3230 N   0  0  0  0  0  1  0  0  0  0  0  0
  196.8880  172.3770  143.2920 C   0  0  0  0  0  3  0  0  0  0  0  0
  196.5250  172.0480  144.6020 C   0  0  0  0  0  0  0  0  0  0  0  0
  196.1630  173.3400  142.5850 C   0  0  0  0  0  3  0  0  0  0  0  0
  187.8160  175.8700  140.9610 C   0  0  0  0  0  1  0  0  0  0  0  0
  188.5930  174.7260  140.3320 C   0  0  0  0  0  2  0  0  0  0  0  0
  2 24  1  0  0  0  0
  2 22  1  0  0  0  0
  3  9  2  0  0  0  0
  3 20  1  0  0  0  0
  4  1  1  0  0  0  0
  5 10  2  0  0  0  0
  6 22  1  0  0  0  0
  6 11  1  0  0  0  0
  7  3  1  0  0  0  0
  9  6  1  0  0  0  0
 10  7  1  0  0  0  0
 10 23  1  0  0  0  0
 11 16  2  0  0  0  0
 12  4  1  0  0  0  0
 12  8  1  0  0  0  0
 13  9  1  0  0  0  0
 14  2  1  0  0  0  0
 15 20  2  0  0  0  0
 17 13  1  0  0  0  0
 17  2  1  0  0  0  0
 18  8  1  6  0  0  0
 18 25  1  0  0  0  0
 18 19  1  0  0  0  0
 19  5  1  0  0  0  0
 20 16  1  0  0  0  0
 21  7  1  0  0  0  0
 21 13  2  0  0  0  0
 23 28  2  0  0  0  0
 25 19  1  1  0  0  0
 26  8  2  0  0  0  0
 27  1  1  6  0  0  0
 27 25  1  0  0  0  0
 27 21  1  0  0  0  0
 28 15  1  0  0  0  0
 29 30  1  0  0  0  0
 30 23  1  0  0  0  0
 30 31  2  0  0  0  0
 33 34  2  0  0  0  0
 34 31  1  0  0  0  0
 34 32  1  0  0  0  0
 35 29  2  0  0  0  0
 35 33  1  0  0  0  0
 37 36  1  0  0  0  0
 37  4  1  0  0  0  0
M  END
>  <MODEL>
2

>  <REMARK>
 VINA RESULT:      -8.5      2.461      8.152
  Name = 
  2 active torsions:
  status: ('A' for Active; 'I' for Inactive)
    1  A    between atoms: N_4  and  C_37
    2  A    between atoms: C_23  and  C_30
                            x       y       z     vdW  Elec       q    Type
                         _______ _______ _______ _____ _____    ______ ____

>  <TORSDO>
F 2

$$$$
=
 OpenBabel11112417093D

 37 44  0  0  1  0  0  0  0  0999 V2000
  188.3580  176.0010  141.2920 O   0  0  0  0  0  0  0  0  0  0  0  0
  186.2150  177.6430  145.6640 C   0  0  0  0  0  0  0  0  0  0  0  0
  190.0740  176.2290  145.1920 C   0  0  0  0  0  0  0  0  0  0  0  0
  187.3470  175.8410  140.3970 N   0  0  0  0  0  0  0  0  0  0  0  0
  190.8820  173.9450  142.4300 C   0  0  0  0  0  3  0  0  0  0  0  0
  188.5030  177.2920  146.6830 N   0  0  0  0  0  0  0  0  0  0  0  0
  190.0320  175.5390  144.0070 N   0  0  0  0  0  0  0  0  0  0  0  0
  188.8190  173.9690  139.7500 C   0  0  0  0  0  0  0  0  0  0  0  0
  188.8350  176.6660  145.5350 C   0  0  0  0  0  0  0  0  0  0  0  0
  191.0900  174.8910  143.3690 C   0  0  0  0  0  0  0  0  0  0  0  0
  189.4770  177.5230  147.6080 C   0  0  0  0  0  3  0  0  0  0  0  0
  187.8160  174.9950  139.3010 C   0  0  0  0  0  2  0  0  0  0  0  0
  187.9730  176.3300  144.5890 C   0  0  0  0  0  0  0  0  0  0  0  0
  186.3160  179.0410  145.0860 C   0  0  0  0  0  1  0  0  0  0  0  0
  192.4860  176.2900  145.8960 C   0  0  0  0  0  3  0  0  0  0  0  0
  190.8130  177.1490  147.3490 C   0  0  0  0  0  3  0  0  0  0  0  0
  186.6300  176.6890  144.6640 O   0  0  0  0  0  0  0  0  0  0  0  0
  188.6170  173.1080  140.9750 C   0  0  1  0  0  3  0  0  0  0  0  0
  189.6050  173.5140  142.0240 N   0  0  0  0  0  0  0  0  0  0  0  0
  191.1590  176.5030  146.1480 C   0  0  0  0  0  0  0  0  0  0  0  0
  188.6860  175.6330  143.6370 C   0  0  0  0  0  0  0  0  0  0  0  0
  187.0820  177.5690  146.9580 C   0  0  0  0  0  2  0  0  0  0  0  0
  192.4760  175.1340  143.6400 C   0  0  0  0  0  0  0  0  0  0  0  0
  184.7700  177.3800  146.0280 C   0  0  0  0  0  1  0  0  0  0  0  0
  188.1470  173.6890  142.1540 C   0  0  1  0  0  3  0  0  0  0  0  0
  189.8090  173.7880  139.0620 O   0  0  0  0  0  0  0  0  0  0  0  0
  187.9950  175.1930  142.3760 C   0  0  2  0  0  3  0  0  0  0  0  0
  193.0400  175.7270  144.7690 C   0  0  0  0  0  3  0  0  0  0  0  0
  194.4690  173.7200  143.0660 C   0  0  0  0  0  3  0  0  0  0  0  0
  193.5190  174.6750  142.6780 C   0  0  0  0  0  0  0  0  0  0  0  0
  193.5560  175.1910  141.3700 C   0  0  0  0  0  3  0  0  0  0  0  0
  194.5670  175.2910  139.1490 N   0  0  0  0  0  1  0  0  0  0  0  0
  195.4770  173.8060  140.8650 C   0  0  0  0  0  3  0  0  0  0  0  0
  194.5350  174.7620  140.4700 C   0  0  0  0  0  0  0  0  0  0  0  0
  195.4440  173.2860  142.1620 C   0  0  0  0  0  3  0  0  0  0  0  0
  186.0700  177.8890  140.7040 C   0  0  0  0  0  1  0  0  0  0  0  0
  187.0660  177.1480  139.8300 C   0  0  0  0  0  2  0  0  0  0  0  0
  2 24  1  0  0  0  0
  2 22  1  0  0  0  0
  3  9  2  0  0  0  0
  3 20  1  0  0  0  0
  4  1  1  0  0  0  0
  5 10  2  0  0  0  0
  6 22  1  0  0  0  0
  6 11  1  0  0  0  0
  7  3  1  0  0  0  0
  9  6  1  0  0  0  0
 10 23  1  0  0  0  0
 10  7  1  0  0  0  0
 12  8  1  0  0  0  0
 12  4  1  0  0  0  0
 13 17  1  0  0  0  0
 13  9  1  0  0  0  0
 14  2  1  0  0  0  0
 15 20  2  0  0  0  0
 16 11  2  0  0  0  0
 17  2  1  0  0  0  0
 18  8  1  6  0  0  0
 18 19  1  0  0  0  0
 18 25  1  0  0  0  0
 19  5  1  0  0  0  0
 20 16  1  0  0  0  0
 21  7  1  0  0  0  0
 21 13  2  0  0  0  0
 23 28  2  0  0  0  0
 25 19  1  1  0  0  0
 25 27  1  0  0  0  0
 26  8  2  0  0  0  0
 27  1  1  6  0  0  0
 27 21  1  0  0  0  0
 28 15  1  0  0  0  0
 30 29  1  0  0  0  0
 30 23  1  0  0  0  0
 31 30  2  0  0  0  0
 32 34  1  0  0  0  0
 33 35  1  0  0  0  0
 34 33  2  0  0  0  0
 34 31  1  0  0  0  0
 35 29  2  0  0  0  0
 37  4  1  0  0  0  0
 37 36  1  0  0  0  0
M  END
>  <MODEL>
3

>  <REMARK>
 VINA RESULT:      -8.4      2.190      8.024
  Name = 
  2 active torsions:
  status: ('A' for Active; 'I' for Inactive)
    1  A    between atoms: N_4  and  C_37
    2  A    between atoms: C_23  and  C_30
                            x       y       z     vdW  Elec       q    Type
                         _______ _______ _______ _____ _____    ______ ____

>  <TORSDO>
F 2

$$$$
=
 OpenBabel11112417093D

 37 44  0  0  1  0  0  0  0  0999 V2000
  190.7500  173.2870  141.1510 O   0  0  0  0  0  0  0  0  0  0  0  0
  187.4560  176.6980  143.1290 C   0  0  0  0  0  0  0  0  0  0  0  0
  190.7680  175.0920  145.0170 C   0  0  0  0  0  0  0  0  0  0  0  0
  190.1730  172.7960  140.0220 N   0  0  0  0  0  0  0  0  0  0  0  0
  192.0880  171.8260  143.9740 C   0  0  0  0  0  3  0  0  0  0  0  0
  189.0070  176.7380  145.1260 N   0  0  0  0  0  0  0  0  0  0  0  0
  191.0520  173.9660  144.2870 N   0  0  0  0  0  0  0  0  0  0  0  0
  191.3290  170.7790  140.8480 C   0  0  0  0  0  0  0  0  0  0  0  0
  189.6240  175.6730  144.5730 C   0  0  0  0  0  0  0  0  0  0  0  0
  192.1060  173.0740  144.4860 C   0  0  0  0  0  0  0  0  0  0  0  0
  189.5540  177.3070  146.2380 C   0  0  0  0  0  3  0  0  0  0  0  0
  190.8430  171.5500  139.6540 C   0  0  0  0  0  2  0  0  0  0  0  0
  189.1610  174.9970  143.5350 C   0  0  0  0  0  0  0  0  0  0  0  0
  188.0850  177.7150  142.1960 C   0  0  0  0  0  1  0  0  0  0  0  0
  192.6460  175.3660  146.6650 C   0  0  0  0  0  3  0  0  0  0  0  0
  190.7650  176.8150  146.7720 C   0  0  0  0  0  3  0  0  0  0  0  0
  188.0150  175.3980  142.8530 O   0  0  0  0  0  0  0  0  0  0  0  0
  190.4700  170.5260  142.0650 C   0  0  1  0  0  3  0  0  0  0  0  0
  191.0200  171.3060  143.2190 N   0  0  0  0  0  0  0  0  0  0  0  0
  191.4100  175.7090  146.1880 C   0  0  0  0  0  0  0  0  0  0  0  0
  190.0230  173.9380  143.3400 C   0  0  0  0  0  0  0  0  0  0  0  0
  187.6940  177.1520  144.6020 C   0  0  0  0  0  2  0  0  0  0  0  0
  193.2840  173.3630  145.2480 C   0  0  0  0  0  0  0  0  0  0  0  0
  185.9660  176.6630  142.8630 C   0  0  0  0  0  1  0  0  0  0  0  0
  189.7090  171.5670  142.5980 C   0  0  1  0  0  3  0  0  0  0  0  0
  192.4460  170.2910  140.8060 O   0  0  0  0  0  0  0  0  0  0  0  0
  189.8160  173.0280  142.1600 C   0  0  2  0  0  3  0  0  0  0  0  0
  193.4650  174.3600  146.2070 C   0  0  0  0  0  3  0  0  0  0  0  0
  195.5070  172.8490  144.2000 C   0  0  0  0  0  3  0  0  0  0  0  0
  194.4960  172.5050  145.1090 C   0  0  0  0  0  0  0  0  0  0  0  0
  194.6400  171.3450  145.8910 C   0  0  0  0  0  3  0  0  0  0  0  0
  195.9100  169.3670  146.5520 N   0  0  0  0  0  1  0  0  0  0  0  0
  196.7790  170.8940  144.8520 C   0  0  0  0  0  3  0  0  0  0  0  0
  195.7740  170.5400  145.7580 C   0  0  0  0  0  0  0  0  0  0  0  0
  196.6460  172.0470  144.0740 C   0  0  0  0  0  3  0  0  0  0  0  0
  189.2810  173.7570  137.9730 C   0  0  0  0  0  1  0  0  0  0  0  0
  190.4370  173.7470  138.9570 C   0  0  0  0  0  2  0  0  0  0  0  0
  2 22  1  0  0  0  0
  3 20  1  0  0  0  0
  4  1  1  0  0  0  0
  5 10  2  0  0  0  0
  6 11  1  0  0  0  0
  7 10  1  0  0  0  0
  7  3  1  0  0  0  0
  9  3  2  0  0  0  0
  9  6  1  0  0  0  0
 10 23  1  0  0  0  0
 11 16  2  0  0  0  0
 12  4  1  0  0  0  0
 12  8  1  0  0  0  0
 13  9  1  0  0  0  0
 14  2  1  0  0  0  0
 17  2  1  0  0  0  0
 17 13  1  0  0  0  0
 18  8  1  6  0  0  0
 18 25  1  0  0  0  0
 18 19  1  0  0  0  0
 19  5  1  0  0  0  0
 20 15  2  0  0  0  0
 20 16  1  0  0  0  0
 21 13  2  0  0  0  0
 21  7  1  0  0  0  0
 22  6  1  0  0  0  0
 23 28  2  0  0  0  0
 24  2  1  0  0  0  0
 25 19  1  1  0  0  0
 26  8  2  0  0  0  0
 27  1  1  6  0  0  0
 27 25  1  0  0  0  0
 27 21  1  0  0  0  0
 28 15  1  0  0  0  0
 29 30  1  0  0  0  0
 30 23  1  0  0  0  0
 30 31  2  0  0  0  0
 33 34  2  0  0  0  0
 34 31  1  0  0  0  0
 34 32  1  0  0  0  0
 35 29  2  0  0  0  0
 35 33  1  0  0  0  0
 36 37  1  0  0  0  0
 37  4  1  0  0  0  0
M  END
>  <MODEL>
4

>  <REMARK>
 VINA RESULT:      -8.4      2.691      8.125
  Name = 
  2 active torsions:
  status: ('A' for Active; 'I' for Inactive)
    1  A    between atoms: N_4  and  C_37
    2  A    between atoms: C_23  and  C_30
                            x       y       z     vdW  Elec       q    Type
                         _______ _______ _______ _____ _____    ______ ____

>  <TORSDO>
F 2

$$$$
=
 OpenBabel11112417093D

 37 44  0  0  1  0  0  0  0  0999 V2000
  191.8460  175.8430  145.3470 O   0  0  0  0  0  0  0  0  0  0  0  0
  193.9010  172.0550  142.5490 C   0  0  0  0  0  0  0  0  0  0  0  0
  190.2560  173.8990  141.8970 C   0  0  0  0  0  0  0  0  0  0  0  0
  192.5730  175.9200  146.4930 N   0  0  0  0  0  0  0  0  0  0  0  0
  188.4790  175.5160  144.6760 C   0  0  0  0  0  3  0  0  0  0  0  0
  191.9000  172.3590  141.0330 N   0  0  0  0  0  0  0  0  0  0  0  0
  189.9690  174.5000  143.0960 N   0  0  0  0  0  0  0  0  0  0  0  0
  190.3230  176.4560  147.3520 C   0  0  0  0  0  0  0  0  0  0  0  0
  191.3890  173.1560  141.9940 C   0  0  0  0  0  0  0  0  0  0  0  0
  188.8590  175.2870  143.4030 C   0  0  0  0  0  0  0  0  0  0  0  0
  191.2440  172.2660  139.8410 C   0  0  0  0  0  3  0  0  0  0  0  0
  191.8040  176.6640  147.4890 C   0  0  0  0  0  2  0  0  0  0  0  0
  191.8950  173.2820  143.2090 C   0  0  0  0  0  0  0  0  0  0  0  0
  194.8790  173.0900  142.0260 C   0  0  0  0  0  1  0  0  0  0  0  0
  188.4960  174.6660  140.2750 C   0  0  0  0  0  3  0  0  0  0  0  0
  190.0750  173.0220  139.6070 C   0  0  0  0  0  3  0  0  0  0  0  0
  193.0840  172.6560  143.5740 O   0  0  0  0  0  0  0  0  0  0  0  0
  189.7010  175.0890  147.1810 C   0  0  1  0  0  3  0  0  0  0  0  0
  189.1390  174.9800  145.7970 N   0  0  0  0  0  0  0  0  0  0  0  0
  189.5470  173.8580  140.6080 C   0  0  0  0  0  0  0  0  0  0  0  0
  191.0380  174.1040  143.9090 C   0  0  0  0  0  0  0  0  0  0  0  0
  193.0600  171.5080  141.3550 C   0  0  0  0  0  2  0  0  0  0  0  0
  188.0110  175.9110  142.4310 C   0  0  0  0  0  0  0  0  0  0  0  0
  194.6920  170.9140  143.1530 C   0  0  0  0  0  1  0  0  0  0  0  0
  190.2740  174.1790  146.2920 C   0  0  1  0  0  3  0  0  0  0  0  0
  189.5910  177.4270  147.4380 O   0  0  0  0  0  0  0  0  0  0  0  0
  191.3940  174.5190  145.3100 C   0  0  2  0  0  3  0  0  0  0  0  0
  187.8680  175.5890  141.0810 C   0  0  0  0  0  3  0  0  0  0  0  0
  187.5220  178.0140  143.7130 C   0  0  0  0  0  3  0  0  0  0  0  0
  187.0860  177.0080  142.8370 C   0  0  0  0  0  0  0  0  0  0  0  0
  185.7700  177.0490  142.3430 C   0  0  0  0  0  3  0  0  0  0  0  0
  183.5740  178.1090  142.2220 N   0  0  0  0  0  1  0  0  0  0  0  0
  185.3490  179.0770  143.5970 C   0  0  0  0  0  3  0  0  0  0  0  0
  184.9040  178.0760  142.7260 C   0  0  0  0  0  0  0  0  0  0  0  0
  186.6560  179.0450  144.0890 C   0  0  0  0  0  3  0  0  0  0  0  0
  194.8920  175.7990  145.7660 C   0  0  0  0  0  1  0  0  0  0  0  0
  193.7560  176.7100  146.1980 C   0  0  0  0  0  2  0  0  0  0  0  0
  1  4  1  0  0  0  0
  2 24  1  0  0  0  0
  2 17  1  0  0  0  0
  3  9  2  0  0  0  0
  3  7  1  0  0  0  0
  4 12  1  0  0  0  0
  5 19  1  0  0  0  0
  6 22  1  0  0  0  0
  6  9  1  0  0  0  0
  7 10  1  0  0  0  0
  7 21  1  0  0  0  0
  8 26  2  0  0  0  0
  8 12  1  0  0  0  0
  9 13  1  0  0  0  0
 10  5  2  0  0  0  0
 11  6  1  0  0  0  0
 13 17  1  0  0  0  0
 13 21  2  0  0  0  0
 14  2  1  0  0  0  0
 15 20  2  0  0  0  0
 15 28  1  0  0  0  0
 16 11  2  0  0  0  0
 16 20  1  0  0  0  0
 18  8  1  6  0  0  0
 19 18  1  0  0  0  0
 20  3  1  0  0  0  0
 22  2  1  0  0  0  0
 23 30  1  0  0  0  0
 23 10  1  0  0  0  0
 25 19  1  6  0  0  0
 25 18  1  0  0  0  0
 27 21  1  6  0  0  0
 27  1  1  0  0  0  0
 27 25  1  0  0  0  0
 28 23  2  0  0  0  0
 29 35  1  0  0  0  0
 30 29  2  0  0  0  0
 31 34  2  0  0  0  0
 31 30  1  0  0  0  0
 32 34  1  0  0  0  0
 33 35  2  0  0  0  0
 34 33  1  0  0  0  0
 36 37  1  0  0  0  0
 37  4  1  0  0  0  0
M  END
>  <MODEL>
5

>  <REMARK>
 VINA RESULT:      -8.3      1.191      1.328
  Name = 
  2 active torsions:
  status: ('A' for Active; 'I' for Inactive)
    1  A    between atoms: N_4  and  C_37
    2  A    between atoms: C_23  and  C_30
                            x       y       z     vdW  Elec       q    Type
                         _______ _______ _______ _____ _____    ______ ____

>  <TORSDO>
F 2

$$$$
=
 OpenBabel11112417093D

 37 44  0  0  1  0  0  0  0  0999 V2000
  192.3520  171.7690  142.3030 O   0  0  0  0  0  0  0  0  0  0  0  0
  197.0960  173.1710  140.9130 C   0  0  0  0  0  0  0  0  0  0  0  0
  194.4840  175.3330  143.2830 C   0  0  0  0  0  0  0  0  0  0  0  0
  192.0120  170.7120  141.5180 N   0  0  0  0  0  0  0  0  0  0  0  0
  190.8600  174.7980  143.0040 C   0  0  0  0  0  3  0  0  0  0  0  0
  196.7300  175.1700  142.4190 N   0  0  0  0  0  0  0  0  0  0  0  0
  193.2570  174.7790  143.0160 N   0  0  0  0  0  0  0  0  0  0  0  0
  189.8280  171.8430  141.7210 C   0  0  0  0  0  0  0  0  0  0  0  0
  195.4380  174.7880  142.4860 C   0  0  0  0  0  0  0  0  0  0  0  0
  192.0320  175.1250  143.5850 C   0  0  0  0  0  0  0  0  0  0  0  0
  197.1510  176.1970  143.2100 C   0  0  0  0  0  3  0  0  0  0  0  0
  190.5610  170.5410  141.5620 C   0  0  0  0  0  2  0  0  0  0  0  0
  194.8950  173.8500  141.7270 C   0  0  0  0  0  0  0  0  0  0  0  0
  197.5970  172.1130  141.8760 C   0  0  0  0  0  1  0  0  0  0  0  0
  194.1360  176.9590  145.1680 C   0  0  0  0  0  3  0  0  0  0  0  0
  196.2590  176.8200  144.1100 C   0  0  0  0  0  3  0  0  0  0  0  0
  195.6570  173.0970  140.8380 O   0  0  0  0  0  0  0  0  0  0  0  0
  190.1460  173.0670  140.8960 C   0  0  1  0  0  3  0  0  0  0  0  0
  190.7590  174.1070  141.7820 N   0  0  0  0  0  0  0  0  0  0  0  0
  194.9140  176.4140  144.1830 C   0  0  0  0  0  0  0  0  0  0  0  0
  193.5510  173.8270  142.0330 C   0  0  0  0  0  0  0  0  0  0  0  0
  197.6000  174.5670  141.3920 C   0  0  0  0  0  2  0  0  0  0  0  0
  191.8800  175.8590  144.8070 C   0  0  0  0  0  0  0  0  0  0  0  0
  197.6770  172.8850  139.5450 C   0  0  0  0  0  1  0  0  0  0  0  0
  191.4770  173.4300  140.6870 C   0  0  1  0  0  3  0  0  0  0  0  0
  188.9010  171.8930  142.5120 O   0  0  0  0  0  0  0  0  0  0  0  0
  192.6690  172.7880  141.3970 C   0  0  2  0  0  3  0  0  0  0  0  0
  192.8210  176.6660  145.4470 C   0  0  0  0  0  3  0  0  0  0  0  0
  190.2880  174.9020  146.4960 C   0  0  0  0  0  3  0  0  0  0  0  0
  190.5700  175.8670  145.5180 C   0  0  0  0  0  0  0  0  0  0  0  0
  189.6050  176.8470  145.2200 C   0  0  0  0  0  3  0  0  0  0  0  0
  187.4060  177.8470  145.5760 N   0  0  0  0  0  1  0  0  0  0  0  0
  188.1060  175.8880  146.8610 C   0  0  0  0  0  3  0  0  0  0  0  0
  188.3770  176.8530  145.8850 C   0  0  0  0  0  0  0  0  0  0  0  0
  189.0600  174.9140  147.1660 C   0  0  0  0  0  3  0  0  0  0  0  0
  192.7730  169.7370  143.6130 C   0  0  0  0  0  1  0  0  0  0  0  0
  192.5950  169.5260  142.1190 C   0  0  0  0  0  2  0  0  0  0  0  0
  2 22  1  0  0  0  0
  2 14  1  0  0  0  0
  3 20  1  0  0  0  0
  4 12  1  0  0  0  0
  4 37  1  0  0  0  0
  4  1  1  0  0  0  0
  5 10  2  0  0  0  0
  6  9  1  0  0  0  0
  6 11  1  0  0  0  0
  7  3  1  0  0  0  0
  7 10  1  0  0  0  0
  8 26  2  0  0  0  0
  9  3  2  0  0  0  0
 10 23  1  0  0  0  0
 11 16  2  0  0  0  0
 12  8  1  0  0  0  0
 13 21  2  0  0  0  0
 13  9  1  0  0  0  0
 15 28  1  0  0  0  0
 16 20  1  0  0  0  0
 17  2  1  0  0  0  0
 17 13  1  0  0  0  0
 18  8  1  1  0  0  0
 18 19  1  0  0  0  0
 19  5  1  0  0  0  0
 20 15  2  0  0  0  0
 21  7  1  0  0  0  0
 22  6  1  0  0  0  0
 23 28  2  0  0  0  0
 23 30  1  0  0  0  0
 24  2  1  0  0  0  0
 25 18  1  0  0  0  0
 25 27  1  0  0  0  0
 25 19  1  1  0  0  0
 27 21  1  1  0  0  0
 27  1  1  0  0  0  0
 29 35  1  0  0  0  0
 30 29  2  0  0  0  0
 31 30  1  0  0  0  0
 31 34  2  0  0  0  0
 32 34  1  0  0  0  0
 33 35  2  0  0  0  0
 34 33  1  0  0  0  0
 37 36  1  0  0  0  0
M  END
>  <MODEL>
6

>  <REMARK>
 VINA RESULT:      -8.0      2.790      5.811
  Name = 
  2 active torsions:
  status: ('A' for Active; 'I' for Inactive)
    1  A    between atoms: N_4  and  C_37
    2  A    between atoms: C_23  and  C_30
                            x       y       z     vdW  Elec       q    Type
                         _______ _______ _______ _____ _____    ______ ____

>  <TORSDO>
F 2

$$$$
=
 OpenBabel11112417093D

 37 44  0  0  1  0  0  0  0  0999 V2000
  190.6500  173.9000  141.6070 O   0  0  0  0  0  0  0  0  0  0  0  0
  189.8970  175.3240  146.4860 C   0  0  0  0  0  0  0  0  0  0  0  0
  193.4880  175.3690  144.4340 C   0  0  0  0  0  0  0  0  0  0  0  0
  189.5290  173.2380  141.2160 N   0  0  0  0  0  0  0  0  0  0  0  0
  194.0100  173.1260  141.5720 C   0  0  0  0  0  3  0  0  0  0  0  0
  192.3320  176.0070  146.4520 N   0  0  0  0  0  0  0  0  0  0  0  0
  193.2740  174.5300  143.3700 N   0  0  0  0  0  0  0  0  0  0  0  0
  191.2530  171.9580  140.0000 C   0  0  0  0  0  0  0  0  0  0  0  0
  192.4160  175.3700  145.2660 C   0  0  0  0  0  0  0  0  0  0  0  0
  194.1660  174.2200  142.3440 C   0  0  0  0  0  0  0  0  0  0  0  0
  193.4060  176.7250  146.8880 C   0  0  0  0  0  3  0  0  0  0  0  0
  189.8350  172.4570  140.0180 C   0  0  0  0  0  2  0  0  0  0  0  0
  191.4700  174.5930  144.7660 C   0  0  0  0  0  0  0  0  0  0  0  0
  189.1980  176.5490  145.9290 C   0  0  0  0  0  1  0  0  0  0  0  0
  195.7400  176.4230  144.0660 C   0  0  0  0  0  3  0  0  0  0  0  0
  194.5660  176.8310  146.0910 C   0  0  0  0  0  3  0  0  0  0  0  0
  190.2380  174.4420  145.3980 O   0  0  0  0  0  0  0  0  0  0  0  0
  191.9020  171.2930  141.1910 C   0  0  1  0  0  3  0  0  0  0  0  0
  192.9650  172.1970  141.7330 N   0  0  0  0  0  0  0  0  0  0  0  0
  194.6490  176.1720  144.8510 C   0  0  0  0  0  0  0  0  0  0  0  0
  191.9740  174.0620  143.5980 C   0  0  0  0  0  0  0  0  0  0  0  0
  191.1460  175.7850  147.2990 C   0  0  0  0  0  2  0  0  0  0  0  0
  195.3250  174.9950  142.0120 C   0  0  0  0  0  0  0  0  0  0  0  0
  188.9410  174.6120  147.4190 C   0  0  0  0  0  1  0  0  0  0  0  0
  191.7340  171.8430  142.4620 C   0  0  1  0  0  3  0  0  0  0  0  0
  191.8830  172.0440  138.9600 O   0  0  0  0  0  0  0  0  0  0  0  0
  191.0900  173.2020  142.7380 C   0  0  2  0  0  3  0  0  0  0  0  0
  195.9920  175.9280  142.8070 C   0  0  0  0  0  3  0  0  0  0  0  0
  197.3070  174.2830  140.6450 C   0  0  0  0  0  3  0  0  0  0  0  0
  196.0040  174.8020  140.6990 C   0  0  0  0  0  0  0  0  0  0  0  0
  195.3450  175.1320  139.5010 C   0  0  0  0  0  3  0  0  0  0  0  0
  195.3090  175.2910  137.0650 N   0  0  0  0  0  1  0  0  0  0  0  0
  197.2810  174.4310  138.2270 C   0  0  0  0  0  3  0  0  0  0  0  0
  195.9840  174.9520  138.2720 C   0  0  0  0  0  0  0  0  0  0  0  0
  197.9410  174.0960  139.4130 C   0  0  0  0  0  3  0  0  0  0  0  0
  187.9980  174.9290  142.0620 C   0  0  0  0  0  1  0  0  0  0  0  0
  188.5530  174.2400  140.8270 C   0  0  0  0  0  2  0  0  0  0  0  0
  2 22  1  0  0  0  0
  2 24  1  0  0  0  0
  3 20  1  0  0  0  0
  3  9  2  0  0  0  0
  4  1  1  0  0  0  0
  5 19  1  0  0  0  0
  5 10  2  0  0  0  0
  6 11  1  0  0  0  0
  6 22  1  0  0  0  0
  7 21  1  0  0  0  0
  7  3  1  0  0  0  0
  8 12  1  0  0  0  0
  9  6  1  0  0  0  0
 10  7  1  0  0  0  0
 12  4  1  0  0  0  0
 13  9  1  0  0  0  0
 13 17  1  0  0  0  0
 14  2  1  0  0  0  0
 15 20  2  0  0  0  0
 16 11  2  0  0  0  0
 17  2  1  0  0  0  0
 18  8  1  6  0  0  0
 18 19  1  0  0  0  0
 18 25  1  0  0  0  0
 20 16  1  0  0  0  0
 21 13  2  0  0  0  0
 23 10  1  0  0  0  0
 23 28  2  0  0  0  0
 25 19  1  6  0  0  0
 25 27  1  0  0  0  0
 26  8  2  0  0  0  0
 27  1  1  6  0  0  0
 27 21  1  0  0  0  0
 28 15  1  0  0  0  0
 29 30  1  0  0  0  0
 30 23  1  0  0  0  0
 31 30  2  0  0  0  0
 32 34  1  0  0  0  0
 33 34  2  0  0  0  0
 33 35  1  0  0  0  0
 34 31  1  0  0  0  0
 35 29  2  0  0  0  0
 37  4  1  0  0  0  0
 37 36  1  0  0  0  0
M  END
>  <MODEL>
7

>  <REMARK>
 VINA RESULT:      -8.0      2.651      8.401
  Name = 
  2 active torsions:
  status: ('A' for Active; 'I' for Inactive)
    1  A    between atoms: N_4  and  C_37
    2  A    between atoms: C_23  and  C_30
                            x       y       z     vdW  Elec       q    Type
                         _______ _______ _______ _____ _____    ______ ____

>  <TORSDO>
F 2

$$$$
=
 OpenBabel11112417093D

 37 44  0  0  1  0  0  0  0  0999 V2000
  190.9400  175.8280  145.6010 O   0  0  0  0  0  0  0  0  0  0  0  0
  187.2490  177.0920  142.2570 C   0  0  0  0  0  0  0  0  0  0  0  0
  190.2930  174.3590  141.6480 C   0  0  0  0  0  0  0  0  0  0  0  0
  190.9050  176.7590  146.5910 N   0  0  0  0  0  0  0  0  0  0  0  0
  193.4320  174.6340  143.5370 C   0  0  0  0  0  3  0  0  0  0  0  0
  188.2390  175.2880  140.7880 N   0  0  0  0  0  0  0  0  0  0  0  0
  191.2240  174.6800  142.6030 N   0  0  0  0  0  0  0  0  0  0  0  0
  193.3320  176.3340  146.4600 C   0  0  0  0  0  0  0  0  0  0  0  0
  189.2700  175.2510  141.6570 C   0  0  0  0  0  0  0  0  0  0  0  0
  192.4360  174.0360  142.8520 C   0  0  0  0  0  0  0  0  0  0  0  0
  188.1890  174.3570  139.7930 C   0  0  0  0  0  3  0  0  0  0  0  0
  192.1650  176.7090  147.3300 C   0  0  0  0  0  2  0  0  0  0  0  0
  189.4660  176.1330  142.6240 C   0  0  0  0  0  0  0  0  0  0  0  0
  186.2980  176.3150  143.1470 C   0  0  0  0  0  1  0  0  0  0  0  0
  191.0910  172.2370  140.5600 C   0  0  0  0  0  3  0  0  0  0  0  0
  189.1760  173.3520  139.7020 C   0  0  0  0  0  3  0  0  0  0  0  0
  188.5450  177.1450  142.8860 O   0  0  0  0  0  0  0  0  0  0  0  0
  193.5850  176.9680  145.1120 C   0  0  1  0  0  3  0  0  0  0  0  0
  193.3550  175.9460  144.0420 N   0  0  0  0  0  0  0  0  0  0  0  0
  190.2460  173.3120  140.6150 C   0  0  0  0  0  0  0  0  0  0  0  0
  190.6640  175.8040  143.2200 C   0  0  0  0  0  0  0  0  0  0  0  0
  187.2910  176.4140  140.8530 C   0  0  0  0  0  2  0  0  0  0  0  0
  192.7610  172.7130  142.4080 C   0  0  0  0  0  0  0  0  0  0  0  0
  186.7160  178.5010  142.1040 C   0  0  0  0  0  1  0  0  0  0  0  0
  192.5220  177.1480  144.2260 C   0  0  1  0  0  3  0  0  0  0  0  0
  194.1370  175.5250  146.8880 O   0  0  0  0  0  0  0  0  0  0  0  0
  191.1200  176.5730  144.4300 C   0  0  2  0  0  3  0  0  0  0  0  0
  192.1610  171.9770  141.3860 C   0  0  0  0  0  3  0  0  0  0  0  0
  195.1460  171.9280  142.3560 C   0  0  0  0  0  3  0  0  0  0  0  0
  193.9080  171.9800  143.0160 C   0  0  0  0  0  0  0  0  0  0  0  0
  193.7640  171.3370  144.2590 C   0  0  0  0  0  3  0  0  0  0  0  0
  194.6830  170.0000  146.0830 N   0  0  0  0  0  1  0  0  0  0  0  0
  196.0700  170.6060  144.1630 C   0  0  0  0  0  3  0  0  0  0  0  0
  194.8390  170.6480  144.8260 C   0  0  0  0  0  0  0  0  0  0  0  0
  196.2230  171.2450  142.9300 C   0  0  0  0  0  3  0  0  0  0  0  0
  189.4660  174.9160  147.2640 C   0  0  0  0  0  1  0  0  0  0  0  0
  189.8580  176.3610  147.5160 C   0  0  0  0  0  2  0  0  0  0  0  0
  1  4  1  0  0  0  0
  2 17  1  0  0  0  0
  2 14  1  0  0  0  0
  3  9  2  0  0  0  0
  3  7  1  0  0  0  0
  4 12  1  0  0  0  0
  4 37  1  0  0  0  0
  5 19  1  0  0  0  0
  6 22  1  0  0  0  0
  6  9  1  0  0  0  0
  7 10  1  0  0  0  0
  7 21  1  0  0  0  0
  8 26  2  0  0  0  0
  8 12  1  0  0  0  0
  9 13  1  0  0  0  0
 10  5  2  0  0  0  0
 11  6  1  0  0  0  0
 13 17  1  0  0  0  0
 13 21  2  0  0  0  0
 15 20  2  0  0  0  0
 15 28  1  0  0  0  0
 16 11  2  0  0  0  0
 16 20  1  0  0  0  0
 18  8  1  1  0  0  0
 19 18  1  0  0  0  0
 20  3  1  0  0  0  0
 22  2  1  0  0  0  0
 23 10  1  0  0  0  0
 23 30  1  0  0  0  0
 24  2  1  0  0  0  0
 25 19  1  6  0  0  0
 25 27  1  0  0  0  0
 25 18  1  0  0  0  0
 27 21  1  6  0  0  0
 27  1  1  0  0  0  0
 28 23  2  0  0  0  0
 29 35  2  0  0  0  0
 29 30  1  0  0  0  0
 30 31  2  0  0  0  0
 31 34  1  0  0  0  0
 33 34  2  0  0  0  0
 34 32  1  0  0  0  0
 35 33  1  0  0  0  0
 36 37  1  0  0  0  0
M  END
>  <MODEL>
8

>  <REMARK>
 VINA RESULT:      -8.0      2.081      6.674
  Name = 
  2 active torsions:
  status: ('A' for Active; 'I' for Inactive)
    1  A    between atoms: N_4  and  C_37
    2  A    between atoms: C_23  and  C_30
                            x       y       z     vdW  Elec       q    Type
                         _______ _______ _______ _____ _____    ______ ____

>  <TORSDO>
F 2

$$$$
=
 OpenBabel11112417093D

 37 44  0  0  1  0  0  0  0  0999 V2000
  192.4140  175.4930  145.3550 O   0  0  0  0  0  0  0  0  0  0  0  0
  188.4090  176.8630  142.4420 C   0  0  0  0  0  0  0  0  0  0  0  0
  190.6340  173.3940  142.0930 C   0  0  0  0  0  0  0  0  0  0  0  0
  192.7840  176.5980  146.0540 N   0  0  0  0  0  0  0  0  0  0  0  0
  194.1010  173.2920  143.3050 C   0  0  0  0  0  3  0  0  0  0  0  0
  188.6710  174.5910  141.3640 N   0  0  0  0  0  0  0  0  0  0  0  0
  191.7970  173.6770  142.7640 N   0  0  0  0  0  0  0  0  0  0  0  0
  194.9870  175.5660  145.6470 C   0  0  0  0  0  0  0  0  0  0  0  0
  189.8390  174.4920  142.0320 C   0  0  0  0  0  0  0  0  0  0  0  0
  192.8800  172.8230  142.9740 C   0  0  0  0  0  0  0  0  0  0  0  0
  188.2180  173.5060  140.6740 C   0  0  0  0  0  3  0  0  0  0  0  0
  194.1400  176.4010  146.5640 C   0  0  0  0  0  2  0  0  0  0  0  0
  190.4130  175.4890  142.6840 C   0  0  0  0  0  0  0  0  0  0  0  0
  187.5400  176.5640  143.6480 C   0  0  0  0  0  1  0  0  0  0  0  0
  190.7320  170.9550  141.4940 C   0  0  0  0  0  3  0  0  0  0  0  0
  188.9390  172.2920  140.6940 C   0  0  0  0  0  3  0  0  0  0  0  0
  189.7950  176.7300  142.8150 O   0  0  0  0  0  0  0  0  0  0  0  0
  195.0600  175.8020  144.1560 C   0  0  1  0  0  3  0  0  0  0  0  0
  194.4010  174.6590  143.4490 N   0  0  0  0  0  0  0  0  0  0  0  0
  190.1530  172.1900  141.3980 C   0  0  0  0  0  0  0  0  0  0  0  0
  191.6230  175.0120  143.1430 C   0  0  0  0  0  0  0  0  0  0  0  0
  188.0050  175.9030  141.2810 C   0  0  0  0  0  2  0  0  0  0  0  0
  192.8280  171.3970  142.8510 C   0  0  0  0  0  0  0  0  0  0  0  0
  188.1480  178.2900  142.0090 C   0  0  0  0  0  1  0  0  0  0  0  0
  193.8870  176.0410  143.4400 C   0  0  1  0  0  3  0  0  0  0  0  0
  195.6880  174.6970  146.1380 O   0  0  0  0  0  0  0  0  0  0  0  0
  192.4780  175.8910  144.0140 C   0  0  2  0  0  3  0  0  0  0  0  0
  191.8830  170.6260  142.1730 C   0  0  0  0  0  3  0  0  0  0  0  0
  194.9270  170.0380  142.6200 C   0  0  0  0  0  3  0  0  0  0  0  0
  193.9100  170.5540  143.4370 C   0  0  0  0  0  0  0  0  0  0  0  0
  193.9260  170.2730  144.8150 C   0  0  0  0  0  3  0  0  0  0  0  0
  194.9460  169.2020  146.7580 N   0  0  0  0  0  1  0  0  0  0  0  0
  195.9510  168.9750  144.5410 C   0  0  0  0  0  3  0  0  0  0  0  0
  194.9390  169.4820  145.3620 C   0  0  0  0  0  0  0  0  0  0  0  0
  195.9450  169.2530  143.1710 C   0  0  0  0  0  3  0  0  0  0  0  0
  191.4730  175.2980  147.6380 C   0  0  0  0  0  1  0  0  0  0  0  0
  191.9080  176.6880  147.2090 C   0  0  0  0  0  2  0  0  0  0  0  0
  1  4  1  0  0  0  0
  2 17  1  0  0  0  0
  2 14  1  0  0  0  0
  3  7  1  0  0  0  0
  4 12  1  0  0  0  0
  4 37  1  0  0  0  0
  5 19  1  0  0  0  0
  6  9  1  0  0  0  0
  7 10  1  0  0  0  0
  7 21  1  0  0  0  0
  8 26  2  0  0  0  0
  8 12  1  0  0  0  0
  9  3  2  0  0  0  0
  9 13  1  0  0  0  0
 10  5  2  0  0  0  0
 11 16  2  0  0  0  0
 11  6  1  0  0  0  0
 13 17  1  0  0  0  0
 13 21  2  0  0  0  0
 15 28  1  0  0  0  0
 16 20  1  0  0  0  0
 18  8  1  1  0  0  0
 19 18  1  0  0  0  0
 20 15  2  0  0  0  0
 20  3  1  0  0  0  0
 22  6  1  0  0  0  0
 22  2  1  0  0  0  0
 23 10  1  0  0  0  0
 23 30  1  0  0  0  0
 24  2  1  0  0  0  0
 25 19  1  6  0  0  0
 25 27  1  0  0  0  0
 25 18  1  0  0  0  0
 27 21  1  6  0  0  0
 27  1  1  0  0  0  0
 28 23  2  0  0  0  0
 29 35  2  0  0  0  0
 29 30  1  0  0  0  0
 30 31  2  0  0  0  0
 31 34  1  0  0  0  0
 33 34  2  0  0  0  0
 34 32  1  0  0  0  0
 35 33  1  0  0  0  0
 37 36  1  0  0  0  0
M  END
>  <MODEL>
9

>  <REMARK>
 VINA RESULT:      -7.9      2.436      7.018
  Name = 
  2 active torsions:
  status: ('A' for Active; 'I' for Inactive)
    1  A    between atoms: N_4  and  C_37
    2  A    between atoms: C_23  and  C_30
                            x       y       z     vdW  Elec       q    Type
                         _______ _______ _______ _____ _____    ______ ____

>  <TORSDO>
F 2

$$$$
