=
 OpenBabel11112416383D

 32 37  0  0  1  0  0  0  0  0999 V2000
  194.2420  175.6370  146.0990 C   0  0  0  0  0  2  0  0  0  0  0  0
  189.6060  173.7190  143.9320 C   0  0  1  0  0  3  0  0  0  0  0  0
  189.8280  171.3800  139.6430 C   0  0  0  0  0  3  0  0  0  0  0  0
  188.8660  172.2380  139.1060 C   0  0  0  0  0  3  0  0  0  0  0  0
  188.2430  175.9130  144.0650 C   0  0  0  0  0  0  0  0  0  0  0  0
  187.4860  176.8870  143.4150 C   0  0  0  0  0  0  0  0  0  0  0  0
  191.4660  175.0350  144.9110 N   0  0  2  0  0  0  0  0  0  0  0  0
  191.7990  173.9600  142.7120 C   0  0  0  0  0  2  0  0  0  0  0  0
  186.4290  177.8930  141.6530 N   0  0  0  0  0  0  0  0  0  0  0  0
  193.5660  175.3590  143.6450 C   0  0  0  0  0  2  0  0  0  0  0  0
  190.3670  171.6380  140.9060 C   0  0  0  0  0  3  0  0  0  0  0  0
  190.5910  173.0590  142.9530 C   0  0  2  0  0  3  0  0  0  0  0  0
  189.9360  172.7460  141.6430 C   0  0  0  0  0  0  0  0  0  0  0  0
  188.4950  174.7730  141.9060 C   0  0  0  0  0  0  0  0  0  0  0  0
  186.1120  178.7370  142.7980 C   0  0  0  0  0  3  0  0  0  0  0  0
  193.0180  176.3130  146.1330 O   0  0  0  0  0  0  0  0  0  0  0  0
  192.4550  174.3810  144.0280 C   0  0  1  0  0  3  0  0  0  0  0  0
  186.8120  178.0790  144.0080 C   0  0  0  0  0  3  0  0  0  0  0  0
  192.0680  175.2910  146.2180 C   0  0  0  0  0  2  0  0  0  0  0  0
  194.7120  175.4010  144.6620 C   0  0  1  0  0  3  0  0  0  0  0  0
  188.4380  173.3510  139.8330 C   0  0  0  0  0  3  0  0  0  0  0  0
  188.9680  173.6170  141.1060 C   0  0  0  0  0  0  0  0  0  0  0  0
  187.7100  175.7700  141.2960 C   0  0  0  0  0  3  0  0  0  0  0  0
  190.3800  174.0960  145.1970 C   0  0  0  0  0  2  0  0  0  0  0  0
  188.4080  175.9910  145.4420 O   0  0  0  0  0  1  0  0  0  0  0  0
  185.9530  178.1210  140.3000 C   0  0  0  0  0  1  0  0  0  0  0  0
  188.8070  174.8560  143.2960 C   0  0  0  0  0  0  0  0  0  0  0  0
  187.2390  176.8200  142.0770 C   0  0  0  0  0  0  0  0  0  0  0  0
  195.6610  176.4400  144.2890 N   0  0  0  0  0  2  0  0  0  0  0  0
  196.7750  176.2080  143.4240 C   0  0  0  0  0  0  0  0  0  0  0  0
  197.0200  175.0270  142.9600 N   0  0  0  0  0  2  0  0  0  0  0  0
  197.6810  177.3350  143.0780 C   0  0  0  0  0  1  0  0  0  0  0  0
  1 16  1  0  0  0  0
  2 24  1  1  0  0  0
  3 11  1  0  0  0  0
  4  3  2  0  0  0  0
  4 21  1  0  0  0  0
  5 25  1  0  0  0  0
  6 18  1  0  0  0  0
  6  5  1  0  0  0  0
  7 24  1  1  0  0  0
  7 19  1  0  0  0  0
  9 28  1  0  0  0  0
  9 15  1  0  0  0  0
 10 17  1  0  0  0  0
 10 20  1  0  0  0  0
 11 13  2  0  0  0  0
 12  8  1  6  0  0  0
 12  2  1  0  0  0  0
 13 12  1  0  0  0  0
 14 27  1  0  0  0  0
 15 18  2  0  0  0  0
 16 19  1  0  0  0  0
 17  8  1  6  0  0  0
 17  7  1  0  0  0  0
 20 29  1  6  0  0  0
 20  1  1  0  0  0  0
 21 22  2  0  0  0  0
 22 13  1  0  0  0  0
 22 14  1  0  0  0  0
 23 14  2  0  0  0  0
 23 28  1  0  0  0  0
 26  9  1  0  0  0  0
 27  2  1  0  0  0  0
 27  5  2  0  0  0  0
 28  6  2  0  0  0  0
 30 29  1  0  0  0  0
 31 30  2  0  0  0  0
 32 30  1  0  0  0  0
M  END
>  <MODEL>
1

>  <REMARK>
 VINA RESULT:      -7.9      0.000      0.000
  Name = 
  1 active torsions:
  status: ('A' for Active; 'I' for Inactive)
    1  A    between atoms: C_20  and  N_29
                            x       y       z     vdW  Elec       q    Type
                         _______ _______ _______ _____ _____    ______ ____

>  <TORSDO>
F 1

$$$$
=
 OpenBabel11112416383D

 32 37  0  0  1  0  0  0  0  0999 V2000
  190.6500  170.5390  138.9150 C   0  0  0  0  0  2  0  0  0  0  0  0
  189.6420  173.0980  143.6380 C   0  0  1  0  0  3  0  0  0  0  0  0
  187.0780  177.2610  143.5350 C   0  0  0  0  0  3  0  0  0  0  0  0
  188.0890  177.9210  144.2360 C   0  0  0  0  0  3  0  0  0  0  0  0
  192.0790  173.1790  144.5010 C   0  0  0  0  0  0  0  0  0  0  0  0
  193.1540  173.9340  144.9660 C   0  0  0  0  0  0  0  0  0  0  0  0
  190.5860  171.9810  141.6350 N   0  0  2  0  0  0  0  0  0  0  0  0
  189.3460  174.0970  141.3430 C   0  0  0  0  0  2  0  0  0  0  0  0
  194.2630  175.8270  145.6160 N   0  0  0  0  0  0  0  0  0  0  0  0
  190.3870  173.0380  139.4080 C   0  0  0  0  0  2  0  0  0  0  0  0
  187.2840  175.9590  143.0710 C   0  0  0  0  0  3  0  0  0  0  0  0
  188.7350  173.9500  142.7340 C   0  0  2  0  0  3  0  0  0  0  0  0
  188.4970  175.3080  143.3180 C   0  0  0  0  0  0  0  0  0  0  0  0
  190.7940  175.2610  144.3050 C   0  0  0  0  0  0  0  0  0  0  0  0
  195.2170  174.7490  145.8460 C   0  0  0  0  0  3  0  0  0  0  0  0
  191.5710  170.6530  139.9620 O   0  0  0  0  0  0  0  0  0  0  0  0
  189.6890  172.7370  140.7350 C   0  0  1  0  0  3  0  0  0  0  0  0
  194.4930  173.4530  145.4180 C   0  0  0  0  0  3  0  0  0  0  0  0
  190.7800  170.6300  141.1150 C   0  0  0  0  0  2  0  0  0  0  0  0
  190.2410  171.9130  138.3780 C   0  0  1  0  0  3  0  0  0  0  0  0
  189.3060  177.2790  144.4780 C   0  0  0  0  0  3  0  0  0  0  0  0
  189.5230  175.9690  144.0220 C   0  0  0  0  0  0  0  0  0  0  0  0
  191.9010  175.9810  144.7960 C   0  0  0  0  0  3  0  0  0  0  0  0
  189.9150  171.7750  142.9200 C   0  0  0  0  0  2  0  0  0  0  0  0
  192.1950  171.7940  144.4500 O   0  0  0  0  0  1  0  0  0  0  0  0
  194.5120  177.2280  145.9050 C   0  0  0  0  0  1  0  0  0  0  0  0
  190.8860  173.8500  144.1110 C   0  0  0  0  0  0  0  0  0  0  0  0
  193.0680  175.2870  145.0990 C   0  0  0  0  0  0  0  0  0  0  0  0
  191.0340  172.2230  137.1970 N   0  0  0  0  0  2  0  0  0  0  0  0
  190.5530  172.0430  135.8630 C   0  0  0  0  0  0  0  0  0  0  0  0
  189.3820  171.5430  135.6410 N   0  0  0  0  0  2  0  0  0  0  0  0
  191.4240  172.4080  134.7150 C   0  0  0  0  0  1  0  0  0  0  0  0
  1 16  1  0  0  0  0
  2 24  1  6  0  0  0
  2 27  1  0  0  0  0
  3  4  1  0  0  0  0
  4 21  2  0  0  0  0
  5  6  1  0  0  0  0
  6 28  2  0  0  0  0
  6 18  1  0  0  0  0
  7 19  1  6  0  0  0
  7 24  1  0  0  0  0
  9 15  1  0  0  0  0
  9 26  1  0  0  0  0
 11 13  1  0  0  0  0
 11  3  2  0  0  0  0
 12  8  1  6  0  0  0
 12 13  1  0  0  0  0
 12  2  1  0  0  0  0
 13 22  2  0  0  0  0
 14 23  2  0  0  0  0
 16 19  1  0  0  0  0
 17 10  1  6  0  0  0
 17  8  1  0  0  0  0
 17  7  1  0  0  0  0
 18 15  2  0  0  0  0
 20 29  1  6  0  0  0
 20  1  1  0  0  0  0
 20 10  1  0  0  0  0
 22 14  1  0  0  0  0
 22 21  1  0  0  0  0
 23 28  1  0  0  0  0
 25  5  1  0  0  0  0
 27 14  1  0  0  0  0
 27  5  2  0  0  0  0
 28  9  1  0  0  0  0
 30 29  1  0  0  0  0
 31 30  2  0  0  0  0
 32 30  1  0  0  0  0
M  END
>  <MODEL>
2

>  <REMARK>
 VINA RESULT:      -7.4      3.315      7.124
  Name = 
  1 active torsions:
  status: ('A' for Active; 'I' for Inactive)
    1  A    between atoms: C_20  and  N_29
                            x       y       z     vdW  Elec       q    Type
                         _______ _______ _______ _____ _____    ______ ____

>  <TORSDO>
F 1

$$$$
=
 OpenBabel11112416383D

 32 37  0  0  1  0  0  0  0  0999 V2000
  192.1160  174.1440  143.2880 C   0  0  0  0  0  2  0  0  0  0  0  0
  188.6300  178.2290  144.3050 C   0  0  1  0  0  3  0  0  0  0  0  0
  185.9940  178.0770  148.4210 C   0  0  0  0  0  3  0  0  0  0  0  0
  184.8130  178.2250  147.6910 C   0  0  0  0  0  3  0  0  0  0  0  0
  187.3780  178.1710  142.0430 C   0  0  0  0  0  0  0  0  0  0  0  0
  186.1730  178.0620  141.3500 C   0  0  0  0  0  0  0  0  0  0  0  0
  189.9490  176.3290  143.4110 N   0  0  2  0  0  0  0  0  0  0  0  0
  188.6690  176.0100  145.4990 C   0  0  0  0  0  2  0  0  0  0  0  0
  183.9080  177.8540  141.0990 N   0  0  0  0  0  0  0  0  0  0  0  0
  189.8780  174.1250  144.5320 C   0  0  0  0  0  2  0  0  0  0  0  0
  187.2060  177.8730  147.7560 C   0  0  0  0  0  3  0  0  0  0  0  0
  188.5350  177.5210  145.6670 C   0  0  2  0  0  3  0  0  0  0  0  0
  187.2440  177.8320  146.3590 C   0  0  0  0  0  0  0  0  0  0  0  0
  186.1100  177.9630  144.1340 C   0  0  0  0  0  0  0  0  0  0  0  0
  184.4150  177.9810  139.7380 C   0  0  0  0  0  3  0  0  0  0  0  0
  191.3210  174.7620  142.3160 O   0  0  0  0  0  0  0  0  0  0  0  0
  189.9320  175.6420  144.7200 C   0  0  1  0  0  3  0  0  0  0  0  0
  185.9470  178.1270  139.8760 C   0  0  0  0  0  3  0  0  0  0  0  0
  191.2280  176.0890  142.7470 C   0  0  0  0  0  2  0  0  0  0  0  0
  191.2620  173.4860  144.3740 C   0  0  1  0  0  3  0  0  0  0  0  0
  184.8440  178.1760  146.2950 C   0  0  0  0  0  3  0  0  0  0  0  0
  186.0560  177.9780  145.6160 C   0  0  0  0  0  0  0  0  0  0  0  0
  184.9160  177.8750  143.3920 C   0  0  0  0  0  3  0  0  0  0  0  0
  189.9250  177.7760  143.6270 C   0  0  0  0  0  2  0  0  0  0  0  0
  188.5510  178.3940  141.3310 O   0  0  0  0  0  1  0  0  0  0  0  0
  182.5060  177.7200  141.4500 C   0  0  0  0  0  1  0  0  0  0  0  0
  187.3650  178.0700  143.4620 C   0  0  0  0  0  0  0  0  0  0  0  0
  184.9880  177.9100  142.0040 C   0  0  0  0  0  0  0  0  0  0  0  0
  191.1160  172.0680  144.0770 N   0  0  0  0  0  2  0  0  0  0  0  0
  192.1950  171.1350  144.1650 C   0  0  0  0  0  0  0  0  0  0  0  0
  193.3870  171.5260  144.4770 N   0  0  0  0  0  2  0  0  0  0  0  0
  191.9490  169.7000  143.8650 C   0  0  0  0  0  1  0  0  0  0  0  0
  1 20  1  0  0  0  0
  2 24  1  6  0  0  0
  2 12  1  0  0  0  0
  4  3  2  0  0  0  0
  5 27  1  0  0  0  0
  6 28  1  0  0  0  0
  6  5  2  0  0  0  0
  7 19  1  1  0  0  0
  7 24  1  0  0  0  0
  7 17  1  0  0  0  0
  9 26  1  0  0  0  0
  9 28  1  0  0  0  0
 11  3  1  0  0  0  0
 12  8  1  6  0  0  0
 12 13  1  0  0  0  0
 13 11  2  0  0  0  0
 14 22  1  0  0  0  0
 15 18  2  0  0  0  0
 15  9  1  0  0  0  0
 16 19  1  0  0  0  0
 16  1  1  0  0  0  0
 17 10  1  6  0  0  0
 17  8  1  0  0  0  0
 18  6  1  0  0  0  0
 20 29  1  6  0  0  0
 20 10  1  0  0  0  0
 21  4  1  0  0  0  0
 22 21  2  0  0  0  0
 22 13  1  0  0  0  0
 23 14  1  0  0  0  0
 25  5  1  0  0  0  0
 27 14  2  0  0  0  0
 27  2  1  0  0  0  0
 28 23  2  0  0  0  0
 29 30  1  0  0  0  0
 30 31  2  0  0  0  0
 32 30  1  0  0  0  0
M  END
>  <MODEL>
3

>  <REMARK>
 VINA RESULT:      -7.3      3.363      5.804
  Name = 
  1 active torsions:
  status: ('A' for Active; 'I' for Inactive)
    1  A    between atoms: C_20  and  N_29
                            x       y       z     vdW  Elec       q    Type
                         _______ _______ _______ _____ _____    ______ ____

>  <TORSDO>
F 1

$$$$
=
 OpenBabel11112416383D

 32 37  0  0  1  0  0  0  0  0999 V2000
  189.6820  177.9060  145.0400 C   0  0  0  0  0  2  0  0  0  0  0  0
  192.3410  174.2400  141.9810 C   0  0  1  0  0  3  0  0  0  0  0  0
  189.7820  171.5820  138.7730 C   0  0  0  0  0  3  0  0  0  0  0  0
  190.2850  170.4010  139.3230 C   0  0  0  0  0  3  0  0  0  0  0  0
  193.5490  173.0100  143.9090 C   0  0  0  0  0  0  0  0  0  0  0  0
  193.8180  171.8160  144.5770 C   0  0  0  0  0  0  0  0  0  0  0  0
  191.3350  175.6460  143.7590 N   0  0  2  0  0  0  0  0  0  0  0  0
  189.8410  174.3650  142.2670 C   0  0  0  0  0  2  0  0  0  0  0  0
  193.7220  169.5640  144.9710 N   0  0  0  0  0  0  0  0  0  0  0  0
  188.8850  175.6620  144.0990 C   0  0  0  0  0  2  0  0  0  0  0  0
  190.0320  172.8070  139.3970 C   0  0  0  0  0  3  0  0  0  0  0  0
  190.9790  174.1660  141.2710 C   0  0  2  0  0  3  0  0  0  0  0  0
  190.7980  172.8570  140.5660 C   0  0  0  0  0  0  0  0  0  0  0  0
  192.1430  171.7360  142.3510 C   0  0  0  0  0  0  0  0  0  0  0  0
  194.6200  170.0750  145.9990 C   0  0  0  0  0  3  0  0  0  0  0  0
  190.7190  177.0930  145.5090 O   0  0  0  0  0  0  0  0  0  0  0  0
  190.0230  175.6490  143.0770 C   0  0  1  0  0  3  0  0  0  0  0  0
  194.7070  171.5990  145.7560 C   0  0  0  0  0  3  0  0  0  0  0  0
  191.5580  176.9400  144.4010 C   0  0  0  0  0  2  0  0  0  0  0  0
  188.4950  177.0730  144.5520 C   0  0  1  0  0  3  0  0  0  0  0  0
  191.0440  170.4450  140.4960 C   0  0  0  0  0  3  0  0  0  0  0  0
  191.3070  171.6700  141.1280 C   0  0  0  0  0  0  0  0  0  0  0  0
  192.4580  170.5520  143.0470 C   0  0  0  0  0  3  0  0  0  0  0  0
  192.3980  175.5590  142.7560 C   0  0  0  0  0  2  0  0  0  0  0  0
  194.1750  174.1770  144.3290 O   0  0  0  0  0  1  0  0  0  0  0  0
  193.3680  168.1660  144.8030 C   0  0  0  0  0  1  0  0  0  0  0  0
  192.6540  172.9900  142.8020 C   0  0  0  0  0  0  0  0  0  0  0  0
  193.2830  170.6340  144.1640 C   0  0  0  0  0  0  0  0  0  0  0  0
  187.4980  176.9900  145.6090 N   0  0  0  0  0  2  0  0  0  0  0  0
  186.0900  177.0490  145.3640 C   0  0  0  0  0  0  0  0  0  0  0  0
  185.6320  177.2280  144.1690 N   0  0  0  0  0  2  0  0  0  0  0  0
  185.1430  176.9330  146.5040 C   0  0  0  0  0  1  0  0  0  0  0  0
  1 16  1  0  0  0  0
  2 24  1  1  0  0  0
  2 27  1  0  0  0  0
  3  4  2  0  0  0  0
  3 11  1  0  0  0  0
  4 21  1  0  0  0  0
  5 25  1  0  0  0  0
  5  6  1  0  0  0  0
  6 18  1  0  0  0  0
  7 24  1  6  0  0  0
  7 19  1  0  0  0  0
  9 15  1  0  0  0  0
 10 20  1  0  0  0  0
 11 13  2  0  0  0  0
 12  2  1  0  0  0  0
 12  8  1  1  0  0  0
 13 22  1  0  0  0  0
 13 12  1  0  0  0  0
 14 27  1  0  0  0  0
 14 23  2  0  0  0  0
 17  8  1  1  0  0  0
 17  7  1  0  0  0  0
 17 10  1  0  0  0  0
 18 15  2  0  0  0  0
 19 16  1  0  0  0  0
 20  1  1  0  0  0  0
 20 29  1  1  0  0  0
 21 22  2  0  0  0  0
 22 14  1  0  0  0  0
 23 28  1  0  0  0  0
 26  9  1  0  0  0  0
 27  5  2  0  0  0  0
 28  6  2  0  0  0  0
 28  9  1  0  0  0  0
 30 29  1  0  0  0  0
 30 32  1  0  0  0  0
 31 30  2  0  0  0  0
M  END
>  <MODEL>
4

>  <REMARK>
 VINA RESULT:      -7.1      2.769      6.988
  Name = 
  1 active torsions:
  status: ('A' for Active; 'I' for Inactive)
    1  A    between atoms: C_20  and  N_29
                            x       y       z     vdW  Elec       q    Type
                         _______ _______ _______ _____ _____    ______ ____

>  <TORSDO>
F 1

$$$$
=
 OpenBabel11112416383D

 32 37  0  0  1  0  0  0  0  0999 V2000
  189.2110  177.8500  144.4100 C   0  0  0  0  0  2  0  0  0  0  0  0
  192.5170  174.1560  142.1080 C   0  0  1  0  0  3  0  0  0  0  0  0
  190.7980  169.6440  141.3390 C   0  0  0  0  0  3  0  0  0  0  0  0
  191.8750  169.0950  142.0370 C   0  0  0  0  0  3  0  0  0  0  0  0
  194.5190  174.4490  143.7200 C   0  0  0  0  0  0  0  0  0  0  0  0
  195.4230  173.8770  144.6140 C   0  0  0  0  0  0  0  0  0  0  0  0
  191.3880  175.8710  143.4980 N   0  0  2  0  0  0  0  0  0  0  0  0
  190.3430  173.6440  143.2750 C   0  0  0  0  0  2  0  0  0  0  0  0
  196.4220  172.1930  145.7980 N   0  0  0  0  0  0  0  0  0  0  0  0
  189.3170  175.3120  144.7300 C   0  0  0  0  0  2  0  0  0  0  0  0
  190.6030  171.0280  141.3290 C   0  0  0  0  0  3  0  0  0  0  0  0
  191.2160  173.3390  142.0610 C   0  0  2  0  0  3  0  0  0  0  0  0
  191.4920  171.8690  142.0050 C   0  0  0  0  0  0  0  0  0  0  0  0
  193.5350  172.2230  143.4040 C   0  0  0  0  0  0  0  0  0  0  0  0
  197.1910  173.3830  146.1380 C   0  0  0  0  0  3  0  0  0  0  0  0
  190.5740  177.7240  144.6990 O   0  0  0  0  0  0  0  0  0  0  0  0
  190.1010  175.1460  143.4280 C   0  0  1  0  0  3  0  0  0  0  0  0
  196.5410  174.5410  145.3480 C   0  0  0  0  0  3  0  0  0  0  0  0
  191.1420  177.3120  143.4890 C   0  0  0  0  0  2  0  0  0  0  0  0
  188.4450  176.5720  144.7560 C   0  0  1  0  0  3  0  0  0  0  0  0
  192.7620  169.9300  142.7220 C   0  0  0  0  0  3  0  0  0  0  0  0
  192.5800  171.3220  142.7140 C   0  0  0  0  0  0  0  0  0  0  0  0
  194.4800  171.6860  144.2990 C   0  0  0  0  0  3  0  0  0  0  0  0
  192.1430  175.6320  142.2670 C   0  0  0  0  0  2  0  0  0  0  0  0
  194.6330  175.8000  143.4120 O   0  0  0  0  0  1  0  0  0  0  0  0
  196.6990  170.8580  146.2980 C   0  0  0  0  0  1  0  0  0  0  0  0
  193.5170  173.6250  143.1360 C   0  0  0  0  0  0  0  0  0  0  0  0
  195.3960  172.5450  144.8970 C   0  0  0  0  0  0  0  0  0  0  0  0
  187.8340  176.7180  146.0690 N   0  0  0  0  0  2  0  0  0  0  0  0
  186.4580  177.0570  146.2590 C   0  0  0  0  0  0  0  0  0  0  0  0
  185.6890  177.2980  145.2480 N   0  0  0  0  0  2  0  0  0  0  0  0
  185.9130  177.1630  147.6380 C   0  0  0  0  0  1  0  0  0  0  0  0
  1 16  1  0  0  0  0
  1 20  1  0  0  0  0
  2 24  1  1  0  0  0
  2 27  1  0  0  0  0
  3  4  1  0  0  0  0
  4 21  2  0  0  0  0
  5  6  1  0  0  0  0
  6 28  2  0  0  0  0
  6 18  1  0  0  0  0
  7 24  1  6  0  0  0
  9 15  1  0  0  0  0
  9 26  1  0  0  0  0
 10 20  1  0  0  0  0
 11  3  2  0  0  0  0
 11 13  1  0  0  0  0
 12  2  1  0  0  0  0
 12  8  1  1  0  0  0
 13 12  1  0  0  0  0
 13 22  2  0  0  0  0
 14 23  2  0  0  0  0
 17  8  1  1  0  0  0
 17  7  1  0  0  0  0
 17 10  1  0  0  0  0
 18 15  2  0  0  0  0
 19  7  1  0  0  0  0
 19 16  1  0  0  0  0
 20 29  1  1  0  0  0
 22 21  1  0  0  0  0
 22 14  1  0  0  0  0
 23 28  1  0  0  0  0
 25  5  1  0  0  0  0
 27 14  1  0  0  0  0
 27  5  2  0  0  0  0
 28  9  1  0  0  0  0
 29 30  1  0  0  0  0
 30 32  1  0  0  0  0
 31 30  2  0  0  0  0
M  END
>  <MODEL>
5

>  <REMARK>
 VINA RESULT:      -7.1      2.676      7.365
  Name = 
  1 active torsions:
  status: ('A' for Active; 'I' for Inactive)
    1  A    between atoms: C_20  and  N_29
                            x       y       z     vdW  Elec       q    Type
                         _______ _______ _______ _____ _____    ______ ____

>  <TORSDO>
F 1

$$$$
=
 OpenBabel11112416383D

 32 37  0  0  1  0  0  0  0  0999 V2000
  189.9480  171.7210  138.9200 C   0  0  0  0  0  2  0  0  0  0  0  0
  190.6510  172.3700  144.3010 C   0  0  1  0  0  3  0  0  0  0  0  0
  189.7360  176.7550  146.2610 C   0  0  0  0  0  3  0  0  0  0  0  0
  191.0100  176.7860  146.8310 C   0  0  0  0  0  3  0  0  0  0  0  0
  193.0630  171.4440  144.4370 C   0  0  0  0  0  0  0  0  0  0  0  0
  194.3930  171.6350  144.8060 C   0  0  0  0  0  0  0  0  0  0  0  0
  190.8190  171.9280  141.8670 N   0  0  2  0  0  0  0  0  0  0  0  0
  190.3750  174.2350  142.6280 C   0  0  0  0  0  2  0  0  0  0  0  0
  196.1850  172.7420  145.7010 N   0  0  0  0  0  0  0  0  0  0  0  0
  190.6630  173.7910  140.2470 C   0  0  0  0  0  2  0  0  0  0  0  0
  189.3960  175.7400  145.3630 C   0  0  0  0  0  3  0  0  0  0  0  0
  189.9750  173.7200  144.0080 C   0  0  2  0  0  3  0  0  0  0  0  0
  190.3240  174.7450  145.0410 C   0  0  0  0  0  0  0  0  0  0  0  0
  192.5810  173.6950  145.2870 C   0  0  0  0  0  0  0  0  0  0  0  0
  196.7210  171.4480  145.2980 C   0  0  0  0  0  3  0  0  0  0  0  0
  191.0010  171.1590  139.6510 O   0  0  0  0  0  0  0  0  0  0  0  0
  190.1180  173.1890  141.5430 C   0  0  1  0  0  3  0  0  0  0  0  0
  195.5300  170.6730  144.6910 C   0  0  0  0  0  3  0  0  0  0  0  0
  190.4410  170.8950  140.9050 C   0  0  0  0  0  2  0  0  0  0  0  0
  189.9720  173.2490  138.9910 C   0  0  1  0  0  3  0  0  0  0  0  0
  191.9450  175.7990  146.5070 C   0  0  0  0  0  3  0  0  0  0  0  0
  191.6130  174.7720  145.6100 C   0  0  0  0  0  0  0  0  0  0  0  0
  193.9320  173.8360  145.6600 C   0  0  0  0  0  3  0  0  0  0  0  0
  190.3260  171.4190  143.1470 C   0  0  0  0  0  2  0  0  0  0  0  0
  192.6750  170.2180  143.9110 O   0  0  0  0  0  1  0  0  0  0  0  0
  196.9530  173.7910  146.3470 C   0  0  0  0  0  1  0  0  0  0  0  0
  192.1380  172.5090  144.6290 C   0  0  0  0  0  0  0  0  0  0  0  0
  194.8110  172.7930  145.3880 C   0  0  0  0  0  0  0  0  0  0  0  0
  190.6300  173.7760  137.8040 N   0  0  0  0  0  2  0  0  0  0  0  0
  189.9240  174.4160  136.7370 C   0  0  0  0  0  0  0  0  0  0  0  0
  188.6360  174.5170  136.7610 N   0  0  0  0  0  2  0  0  0  0  0  0
  190.6810  174.9450  135.5730 C   0  0  0  0  0  1  0  0  0  0  0  0
  1 20  1  0  0  0  0
  1 16  1  0  0  0  0
  2 24  1  6  0  0  0
  2 27  1  0  0  0  0
  3  4  1  0  0  0  0
  5 27  2  0  0  0  0
  5  6  1  0  0  0  0
  6 28  2  0  0  0  0
  7 19  1  6  0  0  0
  7 24  1  0  0  0  0
  9 26  1  0  0  0  0
 11  3  2  0  0  0  0
 12  8  1  6  0  0  0
 12  2  1  0  0  0  0
 12 13  1  0  0  0  0
 13 11  1  0  0  0  0
 13 22  2  0  0  0  0
 14 22  1  0  0  0  0
 14 23  2  0  0  0  0
 15  9  1  0  0  0  0
 16 19  1  0  0  0  0
 17 10  1  6  0  0  0
 17  7  1  0  0  0  0
 17  8  1  0  0  0  0
 18  6  1  0  0  0  0
 18 15  2  0  0  0  0
 20 29  1  6  0  0  0
 20 10  1  0  0  0  0
 21  4  2  0  0  0  0
 22 21  1  0  0  0  0
 25  5  1  0  0  0  0
 27 14  1  0  0  0  0
 28 23  1  0  0  0  0
 28  9  1  0  0  0  0
 30 31  2  0  0  0  0
 30 29  1  0  0  0  0
 32 30  1  0  0  0  0
M  END
>  <MODEL>
6

>  <REMARK>
 VINA RESULT:      -7.0      3.466      7.942
  Name = 
  1 active torsions:
  status: ('A' for Active; 'I' for Inactive)
    1  A    between atoms: C_20  and  N_29
                            x       y       z     vdW  Elec       q    Type
                         _______ _______ _______ _____ _____    ______ ____

>  <TORSDO>
F 1

$$$$
=
 OpenBabel11112416383D

 32 37  0  0  1  0  0  0  0  0999 V2000
  197.9410  172.5820  143.6050 C   0  0  0  0  0  2  0  0  0  0  0  0
  193.3170  175.4810  143.8830 C   0  0  1  0  0  3  0  0  0  0  0  0
  190.6900  175.2950  148.0030 C   0  0  0  0  0  3  0  0  0  0  0  0
  189.5530  174.9240  147.2830 C   0  0  0  0  0  3  0  0  0  0  0  0
  192.2410  174.6030  141.7010 C   0  0  0  0  0  0  0  0  0  0  0  0
  191.1600  173.9920  141.0670 C   0  0  0  0  0  0  0  0  0  0  0  0
  195.1980  173.9570  143.3470 N   0  0  2  0  0  0  0  0  0  0  0  0
  193.9950  173.6560  145.4830 C   0  0  0  0  0  2  0  0  0  0  0  0
  189.0850  173.0400  140.9080 N   0  0  0  0  0  0  0  0  0  0  0  0
  195.7710  172.0990  144.8760 C   0  0  0  0  0  2  0  0  0  0  0  0
  191.9320  175.3600  147.3660 C   0  0  0  0  0  3  0  0  0  0  0  0
  193.3910  175.0520  145.3580 C   0  0  2  0  0  3  0  0  0  0  0  0
  192.0390  175.0670  146.0030 C   0  0  0  0  0  0  0  0  0  0  0  0
  191.0150  174.4100  143.8180 C   0  0  0  0  0  0  0  0  0  0  0  0
  189.5840  173.0590  139.5380 C   0  0  0  0  0  3  0  0  0  0  0  0
  197.0350  172.7220  142.5490 O   0  0  0  0  0  0  0  0  0  0  0  0
  195.3410  173.5620  144.7650 C   0  0  1  0  0  3  0  0  0  0  0  0
  190.9870  173.7010  139.6130 C   0  0  0  0  0  3  0  0  0  0  0  0
  196.5150  174.0090  142.7160 C   0  0  0  0  0  2  0  0  0  0  0  0
  197.2910  171.9080  144.8150 C   0  0  1  0  0  3  0  0  0  0  0  0
  189.6560  174.6220  145.9220 C   0  0  0  0  0  3  0  0  0  0  0  0
  190.8970  174.6890  145.2700 C   0  0  0  0  0  0  0  0  0  0  0  0
  189.9400  173.8120  143.1320 C   0  0  0  0  0  3  0  0  0  0  0  0
  194.7160  175.3370  143.2790 C   0  0  0  0  0  2  0  0  0  0  0  0
  193.3140  175.0440  140.9360 O   0  0  0  0  0  1  0  0  0  0  0  0
  187.7810  172.5420  141.3070 C   0  0  0  0  0  1  0  0  0  0  0  0
  192.2000  174.7750  143.1130 C   0  0  0  0  0  0  0  0  0  0  0  0
  190.0550  173.6030  141.7620 C   0  0  0  0  0  0  0  0  0  0  0  0
  197.6060  170.4870  144.8020 N   0  0  0  0  0  2  0  0  0  0  0  0
  197.3160  169.6110  145.8940 C   0  0  0  0  0  0  0  0  0  0  0  0
  196.7900  170.0620  146.9850 N   0  0  0  0  0  2  0  0  0  0  0  0
  197.6530  168.1670  145.7840 C   0  0  0  0  0  1  0  0  0  0  0  0
  1 20  1  0  0  0  0
  2 24  1  6  0  0  0
  2 12  1  0  0  0  0
  4  3  2  0  0  0  0
  5 27  1  0  0  0  0
  6  5  2  0  0  0  0
  6 28  1  0  0  0  0
  7 19  1  6  0  0  0
  7 17  1  0  0  0  0
  9 26  1  0  0  0  0
  9 28  1  0  0  0  0
 11  3  1  0  0  0  0
 12  8  1  6  0  0  0
 12 13  1  0  0  0  0
 13 11  2  0  0  0  0
 14 22  1  0  0  0  0
 15 18  2  0  0  0  0
 15  9  1  0  0  0  0
 16 19  1  0  0  0  0
 16  1  1  0  0  0  0
 17 10  1  6  0  0  0
 17  8  1  0  0  0  0
 18  6  1  0  0  0  0
 20 29  1  6  0  0  0
 20 10  1  0  0  0  0
 21  4  1  0  0  0  0
 22 21  2  0  0  0  0
 22 13  1  0  0  0  0
 23 14  1  0  0  0  0
 24  7  1  0  0  0  0
 25  5  1  0  0  0  0
 27 14  2  0  0  0  0
 27  2  1  0  0  0  0
 28 23  2  0  0  0  0
 29 30  1  0  0  0  0
 30 31  2  0  0  0  0
 32 30  1  0  0  0  0
M  END
>  <MODEL>
7

>  <REMARK>
 VINA RESULT:      -6.9      3.381      5.852
  Name = 
  1 active torsions:
  status: ('A' for Active; 'I' for Inactive)
    1  A    between atoms: C_20  and  N_29
                            x       y       z     vdW  Elec       q    Type
                         _______ _______ _______ _____ _____    ______ ____

>  <TORSDO>
F 1

$$$$
=
 OpenBabel11112416383D

 32 37  0  0  1  0  0  0  0  0999 V2000
  191.3940  177.1100  144.5530 C   0  0  0  0  0  2  0  0  0  0  0  0
  196.4440  175.5410  143.1740 C   0  0  1  0  0  3  0  0  0  0  0  0
  197.4880  174.9410  138.4350 C   0  0  0  0  0  3  0  0  0  0  0  0
  197.9410  173.6430  138.6810 C   0  0  0  0  0  3  0  0  0  0  0  0
  196.5920  173.4820  144.7330 C   0  0  0  0  0  0  0  0  0  0  0  0
  196.8110  172.1140  144.8830 C   0  0  0  0  0  0  0  0  0  0  0  0
  194.1540  175.8290  144.0820 N   0  0  2  0  0  0  0  0  0  0  0  0
  194.4380  175.5140  141.6480 C   0  0  0  0  0  2  0  0  0  0  0  0
  197.3110  169.9840  144.2140 N   0  0  0  0  0  0  0  0  0  0  0  0
  192.1910  175.6810  142.5840 C   0  0  0  0  0  2  0  0  0  0  0  0
  196.8550  175.6650  139.4490 C   0  0  0  0  0  3  0  0  0  0  0  0
  195.9220  175.8520  141.7620 C   0  0  2  0  0  3  0  0  0  0  0  0
  196.6840  175.0980  140.7160 C   0  0  0  0  0  0  0  0  0  0  0  0
  196.9760  173.2070  142.3250 C   0  0  0  0  0  0  0  0  0  0  0  0
  197.1540  169.8840  145.6600 C   0  0  0  0  0  3  0  0  0  0  0  0
  192.1460  176.1650  145.2600 O   0  0  0  0  0  0  0  0  0  0  0  0
  193.6230  176.1920  142.7500 C   0  0  1  0  0  3  0  0  0  0  0  0
  196.8170  171.3130  146.1430 C   0  0  0  0  0  3  0  0  0  0  0  0
  193.4660  176.6020  145.1130 C   0  0  0  0  0  2  0  0  0  0  0  0
  191.1350  176.6570  143.1140 C   0  0  1  0  0  3  0  0  0  0  0  0
  197.7650  173.0690  139.9420 C   0  0  0  0  0  3  0  0  0  0  0  0
  197.1350  173.7880  140.9700 C   0  0  0  0  0  0  0  0  0  0  0  0
  197.2080  171.8320  142.5270 C   0  0  0  0  0  3  0  0  0  0  0  0
  195.5470  176.2680  144.1790 C   0  0  0  0  0  2  0  0  0  0  0  0
  196.3700  174.2600  145.8640 O   0  0  0  0  0  1  0  0  0  0  0  0
  197.6590  168.8760  143.3420 C   0  0  0  0  0  1  0  0  0  0  0  0
  196.6220  174.0430  143.4260 C   0  0  0  0  0  0  0  0  0  0  0  0
  197.0990  171.3190  143.8150 C   0  0  0  0  0  0  0  0  0  0  0  0
  189.8170  176.0440  143.0320 N   0  0  0  0  0  2  0  0  0  0  0  0
  188.6840  176.7010  142.4580 C   0  0  0  0  0  0  0  0  0  0  0  0
  188.7720  177.9120  142.0160 N   0  0  0  0  0  2  0  0  0  0  0  0
  187.3800  175.9890  142.3950 C   0  0  0  0  0  1  0  0  0  0  0  0
  1 16  1  0  0  0  0
  2 27  1  0  0  0  0
  2 24  1  1  0  0  0
  3  4  2  0  0  0  0
  3 11  1  0  0  0  0
  4 21  1  0  0  0  0
  5  6  1  0  0  0  0
  5 25  1  0  0  0  0
  6 18  1  0  0  0  0
  7 24  1  6  0  0  0
  7 19  1  0  0  0  0
  9 15  1  0  0  0  0
 10 17  1  0  0  0  0
 10 20  1  0  0  0  0
 11 13  2  0  0  0  0
 12  8  1  1  0  0  0
 12  2  1  0  0  0  0
 13 22  1  0  0  0  0
 13 12  1  0  0  0  0
 14 23  2  0  0  0  0
 14 27  1  0  0  0  0
 15 18  2  0  0  0  0
 17  8  1  6  0  0  0
 17  7  1  0  0  0  0
 19 16  1  0  0  0  0
 20 29  1  1  0  0  0
 20  1  1  0  0  0  0
 21 22  2  0  0  0  0
 22 14  1  0  0  0  0
 23 28  1  0  0  0  0
 26  9  1  0  0  0  0
 27  5  2  0  0  0  0
 28  9  1  0  0  0  0
 28  6  2  0  0  0  0
 30 29  1  0  0  0  0
 31 30  2  0  0  0  0
 32 30  1  0  0  0  0
M  END
>  <MODEL>
8

>  <REMARK>
 VINA RESULT:      -6.8      3.563      8.484
  Name = 
  1 active torsions:
  status: ('A' for Active; 'I' for Inactive)
    1  A    between atoms: C_20  and  N_29
                            x       y       z     vdW  Elec       q    Type
                         _______ _______ _______ _____ _____    ______ ____

>  <TORSDO>
F 1

$$$$
=
 OpenBabel11112416383D

 32 37  0  0  1  0  0  0  0  0999 V2000
  186.5610  175.7090  143.1740 C   0  0  0  0  0  2  0  0  0  0  0  0
  191.4060  173.1860  143.0080 C   0  0  1  0  0  3  0  0  0  0  0  0
  194.9580  174.7590  145.9780 C   0  0  0  0  0  3  0  0  0  0  0  0
  195.8230  174.9120  144.8920 C   0  0  0  0  0  3  0  0  0  0  0  0
  191.7800  173.3490  140.4540 C   0  0  0  0  0  0  0  0  0  0  0  0
  192.5850  173.7560  139.3910 C   0  0  0  0  0  0  0  0  0  0  0  0
  189.2870  174.4030  142.5860 N   0  0  2  0  0  0  0  0  0  0  0  0
  190.9530  175.4070  144.1090 C   0  0  0  0  0  2  0  0  0  0  0  0
  194.4260  174.6650  138.3810 N   0  0  0  0  0  0  0  0  0  0  0  0
  188.9120  176.6360  143.5820 C   0  0  0  0  0  2  0  0  0  0  0  0
  193.6110  174.4570  145.7630 C   0  0  0  0  0  3  0  0  0  0  0  0
  191.6620  174.0630  144.2450 C   0  0  2  0  0  3  0  0  0  0  0  0
  193.1260  174.2940  144.4610 C   0  0  0  0  0  0  0  0  0  0  0  0
  193.4750  174.2460  141.9850 C   0  0  0  0  0  0  0  0  0  0  0  0
  193.6000  174.1940  137.2760 C   0  0  0  0  0  3  0  0  0  0  0  0
  187.1770  175.2640  142.0000 O   0  0  0  0  0  0  0  0  0  0  0  0
  189.4660  175.2280  143.8010 C   0  0  1  0  0  3  0  0  0  0  0  0
  192.3460  173.5700  137.9290 C   0  0  0  0  0  3  0  0  0  0  0  0
  187.8680  174.1130  142.3930 C   0  0  0  0  0  2  0  0  0  0  0  0
  187.4160  176.7540  143.8940 C   0  0  1  0  0  3  0  0  0  0  0  0
  195.3420  174.7580  143.5900 C   0  0  0  0  0  3  0  0  0  0  0  0
  193.9920  174.4500  143.3610 C   0  0  0  0  0  0  0  0  0  0  0  0
  194.2630  174.6230  140.8800 C   0  0  0  0  0  3  0  0  0  0  0  0
  189.8930  173.0890  142.8040 C   0  0  0  0  0  2  0  0  0  0  0  0
  190.6050  172.6560  140.1880 O   0  0  0  0  0  1  0  0  0  0  0  0
  195.7220  175.3020  138.2320 C   0  0  0  0  0  1  0  0  0  0  0  0
  192.2000  173.6400  141.7830 C   0  0  0  0  0  0  0  0  0  0  0  0
  193.7780  174.3780  139.6000 C   0  0  0  0  0  0  0  0  0  0  0  0
  186.9460  178.0860  143.5420 N   0  0  0  0  0  2  0  0  0  0  0  0
  185.9720  178.7990  144.3090 C   0  0  0  0  0  0  0  0  0  0  0  0
  185.4210  178.2610  145.3470 N   0  0  0  0  0  2  0  0  0  0  0  0
  185.5660  180.1660  143.8880 C   0  0  0  0  0  1  0  0  0  0  0  0
  1 20  1  0  0  0  0
  2 24  1  6  0  0  0
  2 12  1  0  0  0  0
  4  3  2  0  0  0  0
  5 27  1  0  0  0  0
  6 28  1  0  0  0  0
  6  5  2  0  0  0  0
  7 19  1  1  0  0  0
  7 24  1  0  0  0  0
  7 17  1  0  0  0  0
  9 28  1  0  0  0  0
 10 20  1  0  0  0  0
 11  3  1  0  0  0  0
 12  8  1  6  0  0  0
 12 13  1  0  0  0  0
 13 11  2  0  0  0  0
 14 22  1  0  0  0  0
 15 18  2  0  0  0  0
 15  9  1  0  0  0  0
 16 19  1  0  0  0  0
 16  1  1  0  0  0  0
 17 10  1  6  0  0  0
 17  8  1  0  0  0  0
 18  6  1  0  0  0  0
 20 29  1  6  0  0  0
 21  4  1  0  0  0  0
 22 21  2  0  0  0  0
 22 13  1  0  0  0  0
 23 14  1  0  0  0  0
 25  5  1  0  0  0  0
 26  9  1  0  0  0  0
 27 14  2  0  0  0  0
 27  2  1  0  0  0  0
 28 23  2  0  0  0  0
 29 30  1  0  0  0  0
 30 31  2  0  0  0  0
 32 30  1  0  0  0  0
M  END
>  <MODEL>
9

>  <REMARK>
 VINA RESULT:      -6.5      2.813      7.420
  Name = 
  1 active torsions:
  status: ('A' for Active; 'I' for Inactive)
    1  A    between atoms: C_20  and  N_29
                            x       y       z     vdW  Elec       q    Type
                         _______ _______ _______ _____ _____    ______ ____

>  <TORSDO>
F 1

$$$$
