=
 OpenBabel11112417373D

 28 32  0  0  1  0  0  0  0  0999 V2000
  190.8220  173.1180  143.6000 C   0  0  0  0  0  0  0  0  0  0  0  0
  189.3920  174.3960  146.9610 O   0  0  0  0  0  0  0  0  0  0  0  0
  187.0600  176.5220  140.0490 O   0  0  0  0  0  0  0  0  0  0  0  0
  193.2220  174.5530  143.8080 C   0  0  0  0  0  3  0  0  0  0  0  0
  187.7420  177.5570  142.0610 N   0  0  0  0  0  0  0  0  0  0  0  0
  189.5610  172.3260  143.4460 C   0  0  0  0  0  2  0  0  0  0  0  0
  190.1350  176.6280  147.6840 O   0  0  0  0  0  0  0  0  0  0  0  0
  189.1990  175.8760  146.7810 S   0  0  0  0  0  0  0  0  0  0  0  0
  186.7040  176.8160  146.1510 C   0  0  0  0  0  0  0  0  0  0  0  0
  189.5080  176.3490  145.0980 C   0  0  2  0  0  3  0  0  0  0  0  0
  188.4250  172.6490  139.9690 O   0  0  0  0  0  0  0  0  0  0  0  0
  189.0740  175.8990  142.8530 C   0  0  2  0  0  3  0  0  0  0  0  0
  187.1400  177.2390  145.0010 N   0  0  0  0  0  0  0  0  0  0  0  0
  187.5760  176.3020  147.1540 N   0  0  0  0  0  2  0  0  0  0  0  0
  188.5120  172.9080  141.1980 C   0  0  0  0  0  0  0  0  0  0  0  0
  190.7940  174.4910  143.9170 C   0  0  0  0  0  0  0  0  0  0  0  0
  187.7360  176.4960  141.1120 C   0  0  0  0  0  0  0  0  0  0  0  0
  185.2410  176.8190  146.4090 C   0  0  0  0  0  1  0  0  0  0  0  0
  187.7850  174.0960  141.7410 C   0  0  0  0  0  2  0  0  0  0  0  0
  192.0010  175.2020  144.0040 C   0  0  0  0  0  3  0  0  0  0  0  0
  192.0510  172.4760  143.4040 C   0  0  0  0  0  3  0  0  0  0  0  0
  193.2470  173.1890  143.5120 C   0  0  0  0  0  3  0  0  0  0  0  0
  189.3000  172.0600  142.0370 N   0  0  0  0  0  2  0  0  0  0  0  0
  188.5820  177.0870  143.1030 C   0  0  2  0  0  3  0  0  0  0  0  0
  188.6140  175.3550  141.5330 C   0  0  2  0  0  3  0  0  0  0  0  0
  188.5300  177.4120  144.5550 C   0  0  2  0  0  3  0  0  0  0  0  0
  186.7460  178.6100  142.1670 C   0  0  0  0  0  1  0  0  0  0  0  0
  189.4760  175.1920  144.0920 C   0  0  1  0  0  3  0  0  0  0  0  0
  1 16  1  0  0  0  0
  3 17  2  0  0  0  0
  4 20  1  0  0  0  0
  5 27  1  0  0  0  0
  5 24  1  0  0  0  0
  6  1  1  0  0  0  0
  8  2  2  0  0  0  0
  8 14  1  0  0  0  0
  8  7  2  0  0  0  0
  9 18  1  0  0  0  0
  9 14  1  0  0  0  0
 10  8  1  1  0  0  0
 11 15  2  0  0  0  0
 12 24  1  0  0  0  0
 12 28  1  0  0  0  0
 13  9  2  0  0  0  0
 15 19  1  0  0  0  0
 15 23  1  0  0  0  0
 16 20  2  0  0  0  0
 16 28  1  0  0  0  0
 17 25  1  0  0  0  0
 17  5  1  0  0  0  0
 21 22  1  0  0  0  0
 21  1  2  0  0  0  0
 22  4  2  0  0  0  0
 23  6  1  0  0  0  0
 24 26  1  0  0  0  0
 25 19  1  0  0  0  0
 25 12  1  0  0  0  0
 26 13  1  0  0  0  0
 26 10  1  0  0  0  0
 28 10  1  0  0  0  0
M  END
>  <MODEL>
1

>  <REMARK>
 VINA RESULT:      -8.1      0.000      0.000
  Name = 
  0 active torsions:
  status: ('A' for Active; 'I' for Inactive)
                            x       y       z     vdW  Elec       q    Type
                         _______ _______ _______ _____ _____    ______ ____

>  <TORSDO>
F 0

$$$$
=
 OpenBabel11112417373D

 28 32  0  0  1  0  0  0  0  0999 V2000
  186.4720  178.1790  144.3660 C   0  0  0  0  0  0  0  0  0  0  0  0
  189.9340  178.2910  146.0920 O   0  0  0  0  0  0  0  0  0  0  0  0
  188.0610  173.9010  140.1800 O   0  0  0  0  0  0  0  0  0  0  0  0
  185.2130  176.8050  146.4600 C   0  0  0  0  0  3  0  0  0  0  0  0
  189.0630  173.6420  142.3040 N   0  0  0  0  0  0  0  0  0  0  0  0
  187.0970  178.9210  143.2240 C   0  0  0  0  0  2  0  0  0  0  0  0
  190.4420  176.4450  147.6380 O   0  0  0  0  0  0  0  0  0  0  0  0
  190.3810  176.8590  146.1950 S   0  0  0  0  0  0  0  0  0  0  0  0
  192.1150  175.8770  144.3160 C   0  0  0  0  0  0  0  0  0  0  0  0
  189.2600  175.7890  145.3290 C   0  0  2  0  0  3  0  0  0  0  0  0
  185.9190  177.4050  140.0950 O   0  0  0  0  0  0  0  0  0  0  0  0
  188.0930  175.4070  143.3480 C   0  0  2  0  0  3  0  0  0  0  0  0
  191.2100  175.0420  143.8970 N   0  0  0  0  0  0  0  0  0  0  0  0
  191.9330  176.6790  145.4790 N   0  0  0  0  0  2  0  0  0  0  0  0
  186.6730  177.6090  141.0810 C   0  0  0  0  0  0  0  0  0  0  0  0
  187.0680  177.0210  144.9030 C   0  0  0  0  0  0  0  0  0  0  0  0
  188.1960  174.2810  141.3730 C   0  0  0  0  0  0  0  0  0  0  0  0
  193.3610  176.0410  143.5230 C   0  0  0  0  0  1  0  0  0  0  0  0
  187.8740  176.7390  141.2680 C   0  0  0  0  0  2  0  0  0  0  0  0
  186.4210  176.3330  145.9410 C   0  0  0  0  0  3  0  0  0  0  0  0
  185.2610  178.6450  144.8910 C   0  0  0  0  0  3  0  0  0  0  0  0
  184.6350  177.9630  145.9370 C   0  0  0  0  0  3  0  0  0  0  0  0
  186.3610  178.6660  141.9930 N   0  0  0  0  0  2  0  0  0  0  0  0
  188.9410  174.4190  143.4840 C   0  0  2  0  0  3  0  0  0  0  0  0
  187.4820  175.4520  141.9790 C   0  0  2  0  0  3  0  0  0  0  0  0
  189.9530  174.6500  144.5510 C   0  0  2  0  0  3  0  0  0  0  0  0
  190.1610  172.7500  141.9700 C   0  0  0  0  0  1  0  0  0  0  0  0
  188.3500  176.4970  144.3180 C   0  0  1  0  0  3  0  0  0  0  0  0
  1 21  2  0  0  0  0
  1 16  1  0  0  0  0
  2  8  2  0  0  0  0
  3 17  2  0  0  0  0
  5 24  1  0  0  0  0
  6  1  1  0  0  0  0
  8  7  2  0  0  0  0
  9 14  1  0  0  0  0
 10  8  1  6  0  0  0
 11 15  2  0  0  0  0
 12 24  1  0  0  0  0
 12 28  1  0  0  0  0
 13  9  2  0  0  0  0
 13 26  1  0  0  0  0
 14  8  1  0  0  0  0
 15 19  1  0  0  0  0
 15 23  1  0  0  0  0
 16 20  2  0  0  0  0
 17 25  1  0  0  0  0
 17  5  1  0  0  0  0
 18  9  1  0  0  0  0
 19 25  1  0  0  0  0
 20  4  1  0  0  0  0
 21 22  1  0  0  0  0
 22  4  2  0  0  0  0
 23  6  1  0  0  0  0
 24 26  1  0  0  0  0
 25 12  1  0  0  0  0
 26 10  1  0  0  0  0
 27  5  1  0  0  0  0
 28 16  1  0  0  0  0
 28 10  1  0  0  0  0
M  END
>  <MODEL>
2

>  <REMARK>
 VINA RESULT:      -8.1      1.758      5.356
  Name = 
  0 active torsions:
  status: ('A' for Active; 'I' for Inactive)
                            x       y       z     vdW  Elec       q    Type
                         _______ _______ _______ _____ _____    ______ ____

>  <TORSDO>
F 0

$$$$
=
 OpenBabel11112417373D

 28 32  0  0  1  0  0  0  0  0999 V2000
  191.6020  173.1920  144.6420 C   0  0  0  0  0  0  0  0  0  0  0  0
  189.6740  175.0830  147.4140 O   0  0  0  0  0  0  0  0  0  0  0  0
  187.9850  175.1350  140.0070 O   0  0  0  0  0  0  0  0  0  0  0  0
  193.8170  174.9110  144.6880 C   0  0  0  0  0  3  0  0  0  0  0  0
  188.3270  176.7100  141.7350 N   0  0  0  0  0  0  0  0  0  0  0  0
  190.4470  172.2420  144.5850 C   0  0  0  0  0  2  0  0  0  0  0  0
  190.1170  177.4960  147.5990 O   0  0  0  0  0  0  0  0  0  0  0  0
  189.3670  176.4380  146.8410 S   0  0  0  0  0  0  0  0  0  0  0  0
  186.8870  176.8870  145.7660 C   0  0  0  0  0  0  0  0  0  0  0  0
  189.8270  176.5120  145.1280 C   0  0  2  0  0  3  0  0  0  0  0  0
  189.7030  171.5550  141.0560 O   0  0  0  0  0  0  0  0  0  0  0  0
  189.7040  175.4720  143.0460 C   0  0  2  0  0  3  0  0  0  0  0  0
  187.4140  177.0600  144.5900 N   0  0  0  0  0  0  0  0  0  0  0  0
  187.6790  176.7450  146.9420 N   0  0  0  0  0  2  0  0  0  0  0  0
  189.6200  172.1190  142.1780 C   0  0  0  0  0  0  0  0  0  0  0  0
  191.4090  174.5870  144.5890 C   0  0  0  0  0  0  0  0  0  0  0  0
  188.5300  175.4540  141.0970 C   0  0  0  0  0  0  0  0  0  0  0  0
  185.4100  176.7780  145.8820 C   0  0  0  0  0  1  0  0  0  0  0  0
  188.7270  173.3090  142.3270 C   0  0  0  0  0  2  0  0  0  0  0  0
  192.5270  175.4370  144.5970 C   0  0  0  0  0  3  0  0  0  0  0  0
  192.9000  172.6740  144.7320 C   0  0  0  0  0  3  0  0  0  0  0  0
  194.0030  173.5290  144.7580 C   0  0  0  0  0  3  0  0  0  0  0  0
  190.3790  171.6060  143.2770 N   0  0  0  0  0  2  0  0  0  0  0  0
  189.0770  176.6160  142.9340 C   0  0  2  0  0  3  0  0  0  0  0  0
  189.4540  174.5660  141.8760 C   0  0  2  0  0  3  0  0  0  0  0  0
  188.8250  177.2820  144.2410 C   0  0  2  0  0  3  0  0  0  0  0  0
  187.2320  177.6290  141.4740 C   0  0  0  0  0  1  0  0  0  0  0  0
  190.0210  175.1470  144.4570 C   0  0  1  0  0  3  0  0  0  0  0  0
  1 21  1  0  0  0  0
  3 17  2  0  0  0  0
  4 22  1  0  0  0  0
  5 24  1  0  0  0  0
  6  1  1  0  0  0  0
  8 14  1  0  0  0  0
  8  2  2  0  0  0  0
  8  7  2  0  0  0  0
  9 18  1  0  0  0  0
  9 14  1  0  0  0  0
 10  8  1  1  0  0  0
 11 15  2  0  0  0  0
 12 28  1  0  0  0  0
 13  9  2  0  0  0  0
 15 19  1  0  0  0  0
 15 23  1  0  0  0  0
 16 20  1  0  0  0  0
 16  1  2  0  0  0  0
 17  5  1  0  0  0  0
 17 25  1  0  0  0  0
 20  4  2  0  0  0  0
 21 22  2  0  0  0  0
 23  6  1  0  0  0  0
 24 12  1  0  0  0  0
 24 26  1  0  0  0  0
 25 19  1  0  0  0  0
 25 12  1  0  0  0  0
 26 13  1  0  0  0  0
 26 10  1  0  0  0  0
 27  5  1  0  0  0  0
 28 16  1  0  0  0  0
 28 10  1  0  0  0  0
M  END
>  <MODEL>
3

>  <REMARK>
 VINA RESULT:      -7.9      1.080      1.141
  Name = 
  0 active torsions:
  status: ('A' for Active; 'I' for Inactive)
                            x       y       z     vdW  Elec       q    Type
                         _______ _______ _______ _____ _____    ______ ____

>  <TORSDO>
F 0

$$$$
=
 OpenBabel11112417373D

 28 32  0  0  1  0  0  0  0  0999 V2000
  188.5920  175.9510  145.5350 C   0  0  0  0  0  0  0  0  0  0  0  0
  188.8810  173.2630  142.7650 O   0  0  0  0  0  0  0  0  0  0  0  0
  194.6920  176.8840  146.0600 O   0  0  0  0  0  0  0  0  0  0  0  0
  187.6330  177.9500  143.8180 C   0  0  0  0  0  3  0  0  0  0  0  0
  193.9380  176.4140  143.8700 N   0  0  0  0  0  0  0  0  0  0  0  0
  189.0940  174.9150  146.4930 C   0  0  0  0  0  2  0  0  0  0  0  0
  189.3170  174.0860  140.4880 O   0  0  0  0  0  0  0  0  0  0  0  0
  189.9350  173.7680  141.8200 S   0  0  0  0  0  0  0  0  0  0  0  0
  192.4910  172.8120  142.0570 C   0  0  0  0  0  0  0  0  0  0  0  0
  190.7080  175.2290  142.4670 C   0  0  2  0  0  3  0  0  0  0  0  0
  191.5660  176.5000  148.6970 O   0  0  0  0  0  0  0  0  0  0  0  0
  191.7200  176.2240  144.3150 C   0  0  2  0  0  3  0  0  0  0  0  0
  192.9190  173.9980  142.3760 N   0  0  0  0  0  0  0  0  0  0  0  0
  191.1560  172.5770  141.6170 N   0  0  0  0  0  2  0  0  0  0  0  0
  191.1260  175.8570  147.7080 C   0  0  0  0  0  0  0  0  0  0  0  0
  189.2560  176.2100  144.3190 C   0  0  0  0  0  0  0  0  0  0  0  0
  193.7460  176.6480  145.2610 C   0  0  0  0  0  0  0  0  0  0  0  0
  193.4090  171.6540  142.2070 C   0  0  0  0  0  1  0  0  0  0  0  0
  192.0780  175.4320  146.6370 C   0  0  0  0  0  2  0  0  0  0  0  0
  188.7760  177.2230  143.4750 C   0  0  0  0  0  3  0  0  0  0  0  0
  187.4480  176.6850  145.8710 C   0  0  0  0  0  3  0  0  0  0  0  0
  186.9680  177.6780  145.0150 C   0  0  0  0  0  3  0  0  0  0  0  0
  189.7300  175.5530  147.6380 N   0  0  0  0  0  2  0  0  0  0  0  0
  192.6340  176.1470  143.3800 C   0  0  2  0  0  3  0  0  0  0  0  0
  192.3010  176.5710  145.6540 C   0  0  2  0  0  3  0  0  0  0  0  0
  192.2320  175.2900  142.2310 C   0  0  2  0  0  3  0  0  0  0  0  0
  195.1900  176.0410  143.2350 C   0  0  0  0  0  1  0  0  0  0  0  0
  190.5060  175.4500  143.9700 C   0  0  1  0  0  3  0  0  0  0  0  0
  1 21  1  0  0  0  0
  1  6  1  0  0  0  0
  4 22  1  0  0  0  0
  5 17  1  0  0  0  0
  6 23  1  0  0  0  0
  7  8  2  0  0  0  0
  8  2  2  0  0  0  0
  9 18  1  0  0  0  0
  9 13  2  0  0  0  0
 10  8  1  1  0  0  0
 10 28  1  0  0  0  0
 12 25  1  0  0  0  0
 14  8  1  0  0  0  0
 14  9  1  0  0  0  0
 15 11  2  0  0  0  0
 16  1  2  0  0  0  0
 17 25  1  0  0  0  0
 17  3  2  0  0  0  0
 19 15  1  0  0  0  0
 20  4  2  0  0  0  0
 20 16  1  0  0  0  0
 22 21  2  0  0  0  0
 23 15  1  0  0  0  0
 24  5  1  0  0  0  0
 24 12  1  0  0  0  0
 25 19  1  0  0  0  0
 26 13  1  0  0  0  0
 26 10  1  0  0  0  0
 26 24  1  0  0  0  0
 27  5  1  0  0  0  0
 28 12  1  0  0  0  0
 28 16  1  0  0  0  0
M  END
>  <MODEL>
4

>  <REMARK>
 VINA RESULT:      -7.8      2.659      6.562
  Name = 
  0 active torsions:
  status: ('A' for Active; 'I' for Inactive)
                            x       y       z     vdW  Elec       q    Type
                         _______ _______ _______ _____ _____    ______ ____

>  <TORSDO>
F 0

$$$$
=
 OpenBabel11112417373D

 28 32  0  0  1  0  0  0  0  0999 V2000
  188.3310  177.4250  144.5150 C   0  0  0  0  0  0  0  0  0  0  0  0
  191.9780  176.7980  145.6490 O   0  0  0  0  0  0  0  0  0  0  0  0
  188.1340  172.6550  140.5710 O   0  0  0  0  0  0  0  0  0  0  0  0
  187.1850  176.5190  146.9070 C   0  0  0  0  0  3  0  0  0  0  0  0
  189.4130  172.2850  142.5240 N   0  0  0  0  0  0  0  0  0  0  0  0
  188.8950  177.9270  143.2210 C   0  0  0  0  0  2  0  0  0  0  0  0
  192.3190  174.9780  147.2690 O   0  0  0  0  0  0  0  0  0  0  0  0
  192.0980  175.3100  145.8200 S   0  0  0  0  0  0  0  0  0  0  0  0
  193.2010  173.8310  143.7950 C   0  0  0  0  0  0  0  0  0  0  0  0
  190.6270  174.4930  145.2530 C   0  0  2  0  0  3  0  0  0  0  0  0
  186.8660  176.5600  140.4830 O   0  0  0  0  0  0  0  0  0  0  0  0
  189.0710  174.2900  143.5300 C   0  0  2  0  0  3  0  0  0  0  0  0
  192.0690  173.2160  143.6100 N   0  0  0  0  0  0  0  0  0  0  0  0
  193.4160  174.7190  144.8880 N   0  0  0  0  0  2  0  0  0  0  0  0
  187.8100  176.6330  141.3130 C   0  0  0  0  0  0  0  0  0  0  0  0
  188.7340  176.1910  145.0620 C   0  0  0  0  0  0  0  0  0  0  0  0
  188.5630  173.0600  141.6850 C   0  0  0  0  0  0  0  0  0  0  0  0
  194.2900  173.6430  142.8020 C   0  0  0  0  0  1  0  0  0  0  0  0
  188.7950  175.5120  141.3900 C   0  0  0  0  0  2  0  0  0  0  0  0
  188.1420  175.7400  146.2520 C   0  0  0  0  0  3  0  0  0  0  0  0
  187.3710  178.1990  145.1780 C   0  0  0  0  0  3  0  0  0  0  0  0
  186.8030  177.7500  146.3720 C   0  0  0  0  0  3  0  0  0  0  0  0
  187.9140  177.7860  142.1540 N   0  0  0  0  0  2  0  0  0  0  0  0
  189.6830  173.1350  143.6260 C   0  0  2  0  0  3  0  0  0  0  0  0
  188.2530  174.4020  142.2780 C   0  0  2  0  0  3  0  0  0  0  0  0
  190.8930  173.1780  144.4910 C   0  0  2  0  0  3  0  0  0  0  0  0
  190.2010  171.1370  142.1090 C   0  0  0  0  0  1  0  0  0  0  0  0
  189.7380  175.3400  144.3350 C   0  0  1  0  0  3  0  0  0  0  0  0
  1 16  2  0  0  0  0
  1 21  1  0  0  0  0
  2  8  2  0  0  0  0
  3 17  2  0  0  0  0
  5 24  1  0  0  0  0
  6  1  1  0  0  0  0
  8  7  2  0  0  0  0
  9 14  1  0  0  0  0
 10  8  1  6  0  0  0
 11 15  2  0  0  0  0
 12 24  1  0  0  0  0
 12 28  1  0  0  0  0
 13  9  2  0  0  0  0
 13 26  1  0  0  0  0
 14  8  1  0  0  0  0
 15 19  1  0  0  0  0
 15 23  1  0  0  0  0
 16 20  1  0  0  0  0
 17 25  1  0  0  0  0
 17  5  1  0  0  0  0
 18  9  1  0  0  0  0
 19 25  1  0  0  0  0
 20  4  2  0  0  0  0
 21 22  2  0  0  0  0
 22  4  1  0  0  0  0
 23  6  1  0  0  0  0
 24 26  1  0  0  0  0
 25 12  1  0  0  0  0
 26 10  1  0  0  0  0
 27  5  1  0  0  0  0
 28 16  1  0  0  0  0
 28 10  1  0  0  0  0
M  END
>  <MODEL>
5

>  <REMARK>
 VINA RESULT:      -7.8      1.794      5.311
  Name = 
  0 active torsions:
  status: ('A' for Active; 'I' for Inactive)
                            x       y       z     vdW  Elec       q    Type
                         _______ _______ _______ _____ _____    ______ ____

>  <TORSDO>
F 0

$$$$
=
 OpenBabel11112417373D

 28 32  0  0  1  0  0  0  0  0999 V2000
  185.8900  176.8870  143.7390 C   0  0  0  0  0  0  0  0  0  0  0  0
  187.4020  173.8120  141.9410 O   0  0  0  0  0  0  0  0  0  0  0  0
  190.5190  177.5010  147.8070 O   0  0  0  0  0  0  0  0  0  0  0  0
  186.4370  178.6710  141.6460 C   0  0  0  0  0  3  0  0  0  0  0  0
  191.1680  176.7660  145.6570 N   0  0  0  0  0  0  0  0  0  0  0  0
  185.5690  175.9730  144.8810 C   0  0  0  0  0  2  0  0  0  0  0  0
  189.2230  174.2650  140.3490 O   0  0  0  0  0  0  0  0  0  0  0  0
  188.8690  174.1060  141.8010 S   0  0  0  0  0  0  0  0  0  0  0  0
  190.6130  173.0360  143.6230 C   0  0  0  0  0  0  0  0  0  0  0  0
  189.2950  175.5940  142.6700 C   0  0  2  0  0  3  0  0  0  0  0  0
  186.4210  177.7020  148.0050 O   0  0  0  0  0  0  0  0  0  0  0  0
  189.1260  176.7820  144.6680 C   0  0  2  0  0  3  0  0  0  0  0  0
  190.9230  174.2270  144.0450 N   0  0  0  0  0  0  0  0  0  0  0  0
  189.7900  172.8230  142.4800 N   0  0  0  0  0  2  0  0  0  0  0  0
  186.5760  176.9520  147.0070 C   0  0  0  0  0  0  0  0  0  0  0  0
  187.1770  176.9240  143.1670 C   0  0  0  0  0  0  0  0  0  0  0  0
  190.2170  177.2110  146.6180 C   0  0  0  0  0  0  0  0  0  0  0  0
  191.0870  171.8560  144.3920 C   0  0  0  0  0  1  0  0  0  0  0  0
  187.9100  176.3160  146.7780 C   0  0  0  0  0  2  0  0  0  0  0  0
  187.4430  177.8320  142.1300 C   0  0  0  0  0  3  0  0  0  0  0  0
  184.8870  177.7320  143.2490 C   0  0  0  0  0  3  0  0  0  0  0  0
  185.1580  178.6190  142.2040 C   0  0  0  0  0  3  0  0  0  0  0  0
  185.4740  176.7290  146.1220 N   0  0  0  0  0  2  0  0  0  0  0  0
  190.3960  176.5120  144.4950 C   0  0  2  0  0  3  0  0  0  0  0  0
  188.8310  177.2830  146.0510 C   0  0  2  0  0  3  0  0  0  0  0  0
  190.6480  175.5240  143.4110 C   0  0  2  0  0  3  0  0  0  0  0  0
  192.4850  176.2260  145.9500 C   0  0  0  0  0  1  0  0  0  0  0  0
  188.2660  176.0440  143.7140 C   0  0  1  0  0  3  0  0  0  0  0  0
  1  6  1  0  0  0  0
  4 20  2  0  0  0  0
  4 22  1  0  0  0  0
  5 27  1  0  0  0  0
  5 17  1  0  0  0  0
  6 23  1  0  0  0  0
  7  8  2  0  0  0  0
  8  2  2  0  0  0  0
  8 14  1  0  0  0  0
  9 13  2  0  0  0  0
  9 18  1  0  0  0  0
 10  8  1  1  0  0  0
 10 26  1  0  0  0  0
 10 28  1  0  0  0  0
 12 25  1  0  0  0  0
 14  9  1  0  0  0  0
 15 11  2  0  0  0  0
 16 28  1  0  0  0  0
 16  1  2  0  0  0  0
 17  3  2  0  0  0  0
 19 15  1  0  0  0  0
 20 16  1  0  0  0  0
 21  1  1  0  0  0  0
 22 21  2  0  0  0  0
 23 15  1  0  0  0  0
 24 12  1  0  0  0  0
 24  5  1  0  0  0  0
 25 17  1  0  0  0  0
 25 19  1  0  0  0  0
 26 13  1  0  0  0  0
 26 24  1  0  0  0  0
 28 12  1  0  0  0  0
M  END
>  <MODEL>
6

>  <REMARK>
 VINA RESULT:      -7.7      2.219      6.311
  Name = 
  0 active torsions:
  status: ('A' for Active; 'I' for Inactive)
                            x       y       z     vdW  Elec       q    Type
                         _______ _______ _______ _____ _____    ______ ____

>  <TORSDO>
F 0

$$$$
=
 OpenBabel11112417373D

 28 32  0  0  1  0  0  0  0  0999 V2000
  188.9310  176.5940  145.3510 C   0  0  0  0  0  0  0  0  0  0  0  0
  192.7840  176.9230  145.2140 O   0  0  0  0  0  0  0  0  0  0  0  0
  188.4000  173.8310  139.8340 O   0  0  0  0  0  0  0  0  0  0  0  0
  188.9410  174.5430  147.2630 C   0  0  0  0  0  3  0  0  0  0  0  0
  190.3370  173.2550  141.0580 N   0  0  0  0  0  0  0  0  0  0  0  0
  188.8720  177.6930  144.3350 C   0  0  0  0  0  2  0  0  0  0  0  0
  194.0720  174.8850  145.7070 O   0  0  0  0  0  0  0  0  0  0  0  0
  193.2830  175.6180  144.6590 S   0  0  0  0  0  0  0  0  0  0  0  0
  193.8890  175.4610  141.9930 C   0  0  0  0  0  0  0  0  0  0  0  0
  191.9250  174.6020  144.1350 C   0  0  2  0  0  3  0  0  0  0  0  0
  186.3560  176.7910  141.8180 O   0  0  0  0  0  0  0  0  0  0  0  0
  189.9430  174.5030  142.9130 C   0  0  2  0  0  3  0  0  0  0  0  0
  192.9320  174.6000  141.8120 N   0  0  0  0  0  0  0  0  0  0  0  0
  194.2770  175.9090  143.2880 N   0  0  0  0  0  2  0  0  0  0  0  0
  187.4930  176.8860  142.3510 C   0  0  0  0  0  0  0  0  0  0  0  0
  189.7630  175.4710  145.1710 C   0  0  0  0  0  0  0  0  0  0  0  0
  189.0960  173.9290  140.8800 C   0  0  0  0  0  0  0  0  0  0  0  0
  194.5660  176.0410  140.8040 C   0  0  0  0  0  1  0  0  0  0  0  0
  188.6620  176.2350  141.6850 C   0  0  0  0  0  2  0  0  0  0  0  0
  189.7490  174.4440  146.1270 C   0  0  0  0  0  3  0  0  0  0  0  0
  188.1240  176.6850  146.4920 C   0  0  0  0  0  3  0  0  0  0  0  0
  188.1320  175.6660  147.4470 C   0  0  0  0  0  3  0  0  0  0  0  0
  187.6320  177.6130  143.5750 N   0  0  0  0  0  2  0  0  0  0  0  0
  190.7870  173.6860  142.3320 C   0  0  2  0  0  3  0  0  0  0  0  0
  188.7300  174.7650  142.0700 C   0  0  2  0  0  3  0  0  0  0  0  0
  192.1850  173.8350  142.8210 C   0  0  2  0  0  3  0  0  0  0  0  0
  191.1590  172.6910  140.0000 C   0  0  0  0  0  1  0  0  0  0  0  0
  190.6040  175.3530  143.9300 C   0  0  1  0  0  3  0  0  0  0  0  0
  1 21  1  0  0  0  0
  3 17  2  0  0  0  0
  4 22  1  0  0  0  0
  5 24  1  0  0  0  0
  6  1  1  0  0  0  0
  8  2  2  0  0  0  0
  8  7  2  0  0  0  0
  9 14  1  0  0  0  0
 10  8  1  6  0  0  0
 11 15  2  0  0  0  0
 12 28  1  0  0  0  0
 13  9  2  0  0  0  0
 13 26  1  0  0  0  0
 14  8  1  0  0  0  0
 15 23  1  0  0  0  0
 16  1  2  0  0  0  0
 16 20  1  0  0  0  0
 17  5  1  0  0  0  0
 17 25  1  0  0  0  0
 18  9  1  0  0  0  0
 19 25  1  0  0  0  0
 19 15  1  0  0  0  0
 20  4  2  0  0  0  0
 21 22  2  0  0  0  0
 23  6  1  0  0  0  0
 24 26  1  0  0  0  0
 24 12  1  0  0  0  0
 25 12  1  0  0  0  0
 26 10  1  0  0  0  0
 27  5  1  0  0  0  0
 28 10  1  0  0  0  0
 28 16  1  0  0  0  0
M  END
>  <MODEL>
7

>  <REMARK>
 VINA RESULT:      -7.7      2.591      5.333
  Name = 
  0 active torsions:
  status: ('A' for Active; 'I' for Inactive)
                            x       y       z     vdW  Elec       q    Type
                         _______ _______ _______ _____ _____    ______ ____

>  <TORSDO>
F 0

$$$$
=
 OpenBabel11112417373D

 28 32  0  0  1  0  0  0  0  0999 V2000
  187.4150  177.0660  144.3420 C   0  0  0  0  0  0  0  0  0  0  0  0
  187.4410  173.7250  142.3880 O   0  0  0  0  0  0  0  0  0  0  0  0
  193.4740  177.0250  145.6210 O   0  0  0  0  0  0  0  0  0  0  0  0
  187.1010  178.6660  142.0610 C   0  0  0  0  0  3  0  0  0  0  0  0
  192.8910  176.1230  143.5160 N   0  0  0  0  0  0  0  0  0  0  0  0
  187.5750  176.2550  145.5910 C   0  0  0  0  0  2  0  0  0  0  0  0
  188.2970  173.8170  140.0830 O   0  0  0  0  0  0  0  0  0  0  0  0
  188.6790  173.7650  141.5350 S   0  0  0  0  0  0  0  0  0  0  0  0
  190.9310  172.4770  142.4120 C   0  0  0  0  0  0  0  0  0  0  0  0
  189.6650  175.1880  141.9290 C   0  0  2  0  0  3  0  0  0  0  0  0
  190.0590  177.9160  147.7230 O   0  0  0  0  0  0  0  0  0  0  0  0
  190.6480  176.4500  143.6230 C   0  0  2  0  0  3  0  0  0  0  0  0
  191.5610  173.6110  142.5020 N   0  0  0  0  0  0  0  0  0  0  0  0
  189.6360  172.3690  141.8290 N   0  0  0  0  0  2  0  0  0  0  0  0
  189.6080  177.1190  146.8590 C   0  0  0  0  0  0  0  0  0  0  0  0
  188.2520  176.8680  143.2260 C   0  0  0  0  0  0  0  0  0  0  0  0
  192.5960  176.7520  144.7590 C   0  0  0  0  0  0  0  0  0  0  0  0
  191.5600  171.2590  142.9860 C   0  0  0  0  0  1  0  0  0  0  0  0
  190.5650  176.2610  146.0940 C   0  0  0  0  0  2  0  0  0  0  0  0
  188.0960  177.6850  142.0950 C   0  0  0  0  0  3  0  0  0  0  0  0
  186.4210  178.0510  144.2990 C   0  0  0  0  0  3  0  0  0  0  0  0
  186.2620  178.8460  143.1620 C   0  0  0  0  0  3  0  0  0  0  0  0
  188.1970  177.0550  146.6360 N   0  0  0  0  0  2  0  0  0  0  0  0
  191.6250  175.9660  142.8970 C   0  0  2  0  0  3  0  0  0  0  0  0
  191.1330  177.0370  144.9160 C   0  0  2  0  0  3  0  0  0  0  0  0
  191.1840  174.9160  141.9390 C   0  0  2  0  0  3  0  0  0  0  0  0
  194.1000  175.3800  143.2040 C   0  0  0  0  0  1  0  0  0  0  0  0
  189.3440  175.8360  143.2810 C   0  0  1  0  0  3  0  0  0  0  0  0
  1  6  1  0  0  0  0
  4 20  2  0  0  0  0
  4 22  1  0  0  0  0
  5 17  1  0  0  0  0
  6 23  1  0  0  0  0
  7  8  2  0  0  0  0
  8 14  1  0  0  0  0
  8  2  2  0  0  0  0
  9 13  2  0  0  0  0
  9 18  1  0  0  0  0
 10  8  1  1  0  0  0
 10 26  1  0  0  0  0
 10 28  1  0  0  0  0
 12 25  1  0  0  0  0
 14  9  1  0  0  0  0
 15 11  2  0  0  0  0
 16 28  1  0  0  0  0
 16  1  2  0  0  0  0
 17 25  1  0  0  0  0
 17  3  2  0  0  0  0
 19 15  1  0  0  0  0
 20 16  1  0  0  0  0
 21  1  1  0  0  0  0
 22 21  2  0  0  0  0
 23 15  1  0  0  0  0
 24  5  1  0  0  0  0
 24 12  1  0  0  0  0
 25 19  1  0  0  0  0
 26 13  1  0  0  0  0
 26 24  1  0  0  0  0
 27  5  1  0  0  0  0
 28 12  1  0  0  0  0
M  END
>  <MODEL>
8

>  <REMARK>
 VINA RESULT:      -7.6      2.223      6.356
  Name = 
  0 active torsions:
  status: ('A' for Active; 'I' for Inactive)
                            x       y       z     vdW  Elec       q    Type
                         _______ _______ _______ _____ _____    ______ ____

>  <TORSDO>
F 0

$$$$
=
 OpenBabel11112417373D

 28 32  0  0  1  0  0  0  0  0999 V2000
  188.8020  176.2520  144.1600 C   0  0  0  0  0  0  0  0  0  0  0  0
  192.4080  177.5320  144.7380 O   0  0  0  0  0  0  0  0  0  0  0  0
  190.4970  170.5900  142.3100 O   0  0  0  0  0  0  0  0  0  0  0  0
  188.1910  176.0410  146.8880 C   0  0  0  0  0  3  0  0  0  0  0  0
  191.8610  171.5440  143.9870 N   0  0  0  0  0  0  0  0  0  0  0  0
  189.0760  176.3550  142.6910 C   0  0  0  0  0  2  0  0  0  0  0  0
  193.5090  176.7910  146.8090 O   0  0  0  0  0  0  0  0  0  0  0  0
  193.1360  176.4000  145.4070 S   0  0  0  0  0  0  0  0  0  0  0  0
  194.7020  174.7490  143.8820 C   0  0  0  0  0  0  0  0  0  0  0  0
  192.1210  174.9450  145.4590 C   0  0  2  0  0  3  0  0  0  0  0  0
  187.7270  173.3550  141.0610 O   0  0  0  0  0  0  0  0  0  0  0  0
  190.7460  173.5030  144.2500 C   0  0  2  0  0  3  0  0  0  0  0  0
  193.9210  173.7430  144.1470 N   0  0  0  0  0  0  0  0  0  0  0  0
  194.5570  176.0150  144.5200 N   0  0  0  0  0  2  0  0  0  0  0  0
  188.5770  174.1000  141.6160 C   0  0  0  0  0  0  0  0  0  0  0  0
  189.6920  175.5890  145.0290 C   0  0  0  0  0  0  0  0  0  0  0  0
  190.7470  171.5390  143.1010 C   0  0  0  0  0  0  0  0  0  0  0  0
  195.7470  174.5910  142.8380 C   0  0  0  0  0  1  0  0  0  0  0  0
  189.9390  173.5560  141.9060 C   0  0  0  0  0  2  0  0  0  0  0  0
  189.3680  175.4770  146.3900 C   0  0  0  0  0  3  0  0  0  0  0  0
  187.6240  176.8140  144.6680 C   0  0  0  0  0  3  0  0  0  0  0  0
  187.3210  176.7120  146.0270 C   0  0  0  0  0  3  0  0  0  0  0  0
  188.2150  175.4430  141.9510 N   0  0  0  0  0  2  0  0  0  0  0  0
  191.7820  172.8010  144.6380 C   0  0  2  0  0  3  0  0  0  0  0  0
  189.9250  172.7870  143.2180 C   0  0  2  0  0  3  0  0  0  0  0  0
  192.8880  173.6340  145.1860 C   0  0  2  0  0  3  0  0  0  0  0  0
  193.0430  170.7060  143.8730 C   0  0  0  0  0  1  0  0  0  0  0  0
  190.9390  174.9530  144.4820 C   0  0  1  0  0  3  0  0  0  0  0  0
  1 21  2  0  0  0  0
  1 16  1  0  0  0  0
  2  8  2  0  0  0  0
  3 17  2  0  0  0  0
  5 24  1  0  0  0  0
  6  1  1  0  0  0  0
  8  7  2  0  0  0  0
  9 13  2  0  0  0  0
  9 14  1  0  0  0  0
 10  8  1  6  0  0  0
 11 15  2  0  0  0  0
 12 28  1  0  0  0  0
 12 24  1  0  0  0  0
 13 26  1  0  0  0  0
 14  8  1  0  0  0  0
 15 19  1  0  0  0  0
 15 23  1  0  0  0  0
 16 20  2  0  0  0  0
 17 25  1  0  0  0  0
 17  5  1  0  0  0  0
 18  9  1  0  0  0  0
 19 25  1  0  0  0  0
 20  4  1  0  0  0  0
 21 22  1  0  0  0  0
 22  4  2  0  0  0  0
 23  6  1  0  0  0  0
 24 26  1  0  0  0  0
 25 12  1  0  0  0  0
 26 10  1  0  0  0  0
 27  5  1  0  0  0  0
 28 16  1  0  0  0  0
 28 10  1  0  0  0  0
M  END
>  <MODEL>
9

>  <REMARK>
 VINA RESULT:      -7.4      2.616      5.728
  Name = 
  0 active torsions:
  status: ('A' for Active; 'I' for Inactive)
                            x       y       z     vdW  Elec       q    Type
                         _______ _______ _______ _____ _____    ______ ____

>  <TORSDO>
F 0

$$$$
