=
 OpenBabel11112416573D

 31 35  0  0  1  0  0  0  0  0999 V2000
  185.2150  178.2120  146.0870 C   0  0  0  0  0  0  0  0  0  0  0  0
  187.6540  176.6330  143.6130 C   0  0  0  0  0  0  0  0  0  0  0  0
  187.1270  176.8150  142.3070 C   0  0  0  0  0  0  0  0  0  0  0  0
  185.5330  177.7660  140.7440 C   0  0  0  0  0  0  0  0  0  0  0  0
  187.0550  177.2300  144.8520 C   0  0  0  0  0  0  0  0  0  0  0  0
  185.9900  178.2630  147.2030 N   0  0  0  0  0  0  0  0  0  0  0  0
  186.0060  177.6170  142.0500 C   0  0  0  0  0  3  0  0  0  0  0  0
  189.4080  175.5900  145.1250 C   0  0  1  0  0  3  0  0  0  0  0  0
  183.8160  178.7100  146.1320 C   0  0  0  0  0  1  0  0  0  0  0  0
  188.8870  175.4010  141.4180 C   0  0  0  0  0  3  0  0  0  0  0  0
  184.1300  178.7650  140.4350 Cl  0  0  0  0  0  0  0  0  0  0  0  0
  189.2430  176.8110  146.0310 C   0  0  0  0  0  2  0  0  0  0  0  0
  188.8280  175.8520  143.7540 C   0  0  0  0  0  0  0  0  0  0  0  0
  185.7320  177.6940  144.8990 C   0  0  0  0  0  3  0  0  0  0  0  0
  186.1610  177.1390  139.7160 N   0  0  0  0  0  0  0  0  0  0  0  0
  187.8220  177.2740  146.0320 C   0  0  0  0  0  0  0  0  0  0  0  0
  187.2720  177.8120  147.1970 C   0  0  0  0  0  3  0  0  0  0  0  0
  189.3860  175.2490  142.6690 N   0  0  0  0  0  0  0  0  0  0  0  0
  187.7590  176.1870  141.2110 C   0  0  0  0  0  0  0  0  0  0  0  0
  187.2550  176.3590  139.9210 C   0  0  0  0  0  3  0  0  0  0  0  0
  191.0690  174.8330  147.3070 O   0  0  0  0  0  0  0  0  0  0  0  0
  191.6100  174.8810  146.1700 C   0  0  0  0  0  0  0  0  0  0  0  0
  190.8210  175.2420  145.0300 N   0  0  0  0  0  2  0  0  0  0  0  0
  195.7420  173.8220  145.6200 C   0  0  0  0  0  0  0  0  0  0  0  0
  193.3920  173.2620  145.5900 C   0  0  0  0  0  3  0  0  0  0  0  0
  193.8400  176.9090  146.6360 C   0  0  0  0  0  1  0  0  0  0  0  0
  197.0680  173.4560  145.4360 O   0  0  0  0  0  1  0  0  0  0  0  0
  194.7250  172.8920  145.4040 C   0  0  0  0  0  3  0  0  0  0  0  0
  194.0920  175.5030  146.2090 C   0  0  0  0  0  0  0  0  0  0  0  0
  193.0500  174.5630  145.9930 C   0  0  0  0  0  0  0  0  0  0  0  0
  195.4250  175.1210  146.0200 C   0  0  0  0  0  3  0  0  0  0  0  0
  1  9  1  0  0  0  0
  1  6  1  0  0  0  0
  2 13  1  0  0  0  0
  2  5  1  0  0  0  0
  3  2  2  0  0  0  0
  4  7  2  0  0  0  0
  5 14  1  0  0  0  0
  5 16  2  0  0  0  0
  7  3  1  0  0  0  0
  8 23  1  6  0  0  0
  8 12  1  0  0  0  0
 10 18  1  0  0  0  0
 11  4  1  0  0  0  0
 12 16  1  0  0  0  0
 13  8  1  0  0  0  0
 14  1  2  0  0  0  0
 15 20  2  0  0  0  0
 15  4  1  0  0  0  0
 16 17  1  0  0  0  0
 17  6  2  0  0  0  0
 18 13  2  0  0  0  0
 19 10  2  0  0  0  0
 19  3  1  0  0  0  0
 20 19  1  0  0  0  0
 22 21  2  0  0  0  0
 23 22  1  0  0  0  0
 24 31  1  0  0  0  0
 25 30  2  0  0  0  0
 27 24  1  0  0  0  0
 28 25  1  0  0  0  0
 28 24  2  0  0  0  0
 29 26  1  0  0  0  0
 30 22  1  0  0  0  0
 30 29  1  0  0  0  0
 31 29  2  0  0  0  0
M  END
>  <MODEL>
1

>  <REMARK>
 VINA RESULT:      -9.2      0.000      0.000
  Name = 
  2 active torsions:
  status: ('A' for Active; 'I' for Inactive)
    1  A    between atoms: C_5  and  C_30
    2  A    between atoms: C_10  and  N_16
                            x       y       z     vdW  Elec       q    Type
                         _______ _______ _______ _____ _____    ______ ____

>  <TORSDO>
F 2

$$$$
=
 OpenBabel11112416573D

 31 35  0  0  1  0  0  0  0  0999 V2000
  186.1910  177.5520  141.2200 C   0  0  0  0  0  0  0  0  0  0  0  0
  188.0880  177.2540  144.5170 C   0  0  0  0  0  0  0  0  0  0  0  0
  187.2320  177.7070  145.5550 C   0  0  0  0  0  0  0  0  0  0  0  0
  185.0790  178.4440  146.3980 C   0  0  0  0  0  0  0  0  0  0  0  0
  187.6640  177.0880  143.0880 C   0  0  0  0  0  0  0  0  0  0  0  0
  186.9750  176.7900  140.4110 N   0  0  0  0  0  0  0  0  0  0  0  0
  185.8790  178.0070  145.3400 C   0  0  0  0  0  3  0  0  0  0  0  0
  190.3910  176.4700  143.7840 C   0  0  1  0  0  3  0  0  0  0  0  0
  184.9780  178.2120  140.6710 C   0  0  0  0  0  1  0  0  0  0  0  0
  189.0720  177.5410  147.1260 C   0  0  0  0  0  3  0  0  0  0  0  0
  183.3930  178.8210  146.1180 Cl  0  0  0  0  0  0  0  0  0  0  0  0
  189.6820  175.6210  142.7290 C   0  0  0  0  0  2  0  0  0  0  0  0
  189.4240  176.9190  144.8550 C   0  0  0  0  0  0  0  0  0  0  0  0
  186.5230  177.7150  142.5650 C   0  0  0  0  0  3  0  0  0  0  0  0
  185.6080  178.5780  147.6420 N   0  0  0  0  0  0  0  0  0  0  0  0
  188.4680  176.3270  142.2180 C   0  0  0  0  0  0  0  0  0  0  0  0
  188.0940  176.1780  140.8800 C   0  0  0  0  0  3  0  0  0  0  0  0
  189.8740  177.0940  146.1280 N   0  0  0  0  0  0  0  0  0  0  0  0
  187.7430  177.8480  146.8640 C   0  0  0  0  0  0  0  0  0  0  0  0
  186.9120  178.2910  147.8950 C   0  0  0  0  0  3  0  0  0  0  0  0
  193.0860  176.5090  142.8760 O   0  0  0  0  0  0  0  0  0  0  0  0
  192.8260  175.7590  143.8550 C   0  0  0  0  0  0  0  0  0  0  0  0
  191.4890  175.7080  144.3660 N   0  0  0  0  0  2  0  0  0  0  0  0
  195.8580  173.2530  145.5940 C   0  0  0  0  0  0  0  0  0  0  0  0
  194.0890  173.6330  143.9940 C   0  0  0  0  0  3  0  0  0  0  0  0
  194.5660  176.7450  146.1580 C   0  0  0  0  0  1  0  0  0  0  0  0
  196.8300  172.4250  146.1380 O   0  0  0  0  0  1  0  0  0  0  0  0
  195.0660  172.7990  144.5400 C   0  0  0  0  0  3  0  0  0  0  0  0
  194.6970  175.3850  145.5600 C   0  0  0  0  0  0  0  0  0  0  0  0
  193.8850  174.9320  144.4880 C   0  0  0  0  0  0  0  0  0  0  0  0
  195.6740  174.5400  146.1000 C   0  0  0  0  0  3  0  0  0  0  0  0
  1 14  1  0  0  0  0
  2 13  2  0  0  0  0
  2  3  1  0  0  0  0
  3 19  1  0  0  0  0
  4 15  2  0  0  0  0
  5  2  1  0  0  0  0
  6 17  1  0  0  0  0
  6  1  2  0  0  0  0
  7  3  2  0  0  0  0
  7  4  1  0  0  0  0
  8 23  1  1  0  0  0
  8 13  1  0  0  0  0
  9  1  1  0  0  0  0
 11  4  1  0  0  0  0
 12  8  1  0  0  0  0
 13 18  1  0  0  0  0
 14  5  2  0  0  0  0
 15 20  1  0  0  0  0
 16 12  1  0  0  0  0
 16  5  1  0  0  0  0
 17 16  2  0  0  0  0
 18 10  2  0  0  0  0
 19 10  1  0  0  0  0
 19 20  2  0  0  0  0
 21 22  2  0  0  0  0
 22 23  1  0  0  0  0
 22 30  1  0  0  0  0
 24 31  1  0  0  0  0
 24 27  1  0  0  0  0
 25 30  2  0  0  0  0
 25 28  1  0  0  0  0
 28 24  2  0  0  0  0
 29 31  2  0  0  0  0
 29 26  1  0  0  0  0
 30 29  1  0  0  0  0
M  END
>  <MODEL>
2

>  <REMARK>
 VINA RESULT:      -8.9      1.827      4.208
  Name = 
  2 active torsions:
  status: ('A' for Active; 'I' for Inactive)
    1  A    between atoms: C_5  and  C_30
    2  A    between atoms: C_10  and  N_16
                            x       y       z     vdW  Elec       q    Type
                         _______ _______ _______ _____ _____    ______ ____

>  <TORSDO>
F 2

$$$$
=
 OpenBabel11112416573D

 31 35  0  0  1  0  0  0  0  0999 V2000
  185.0700  178.2670  146.0820 C   0  0  0  0  0  0  0  0  0  0  0  0
  187.5300  176.7690  143.5790 C   0  0  0  0  0  0  0  0  0  0  0  0
  186.9890  176.9450  142.2780 C   0  0  0  0  0  0  0  0  0  0  0  0
  185.3570  177.8630  140.7340 C   0  0  0  0  0  0  0  0  0  0  0  0
  186.9250  177.3430  144.8260 C   0  0  0  0  0  0  0  0  0  0  0  0
  185.8530  178.3330  147.1920 N   0  0  0  0  0  0  0  0  0  0  0  0
  185.8440  177.7180  142.0350 C   0  0  0  0  0  3  0  0  0  0  0  0
  189.3240  175.7650  145.0710 C   0  0  1  0  0  3  0  0  0  0  0  0
  183.6580  178.7270  146.1410 C   0  0  0  0  0  1  0  0  0  0  0  0
  188.7780  175.5840  141.3670 C   0  0  0  0  0  3  0  0  0  0  0  0
  183.9250  178.8250  140.4420 Cl  0  0  0  0  0  0  0  0  0  0  0  0
  189.1340  176.9760  145.9850 C   0  0  0  0  0  2  0  0  0  0  0  0
  188.7260  176.0190  143.7060 C   0  0  0  0  0  0  0  0  0  0  0  0
  185.5910  177.7710  144.8860 C   0  0  0  0  0  3  0  0  0  0  0  0
  185.9930  177.2580  139.6970 N   0  0  0  0  0  0  0  0  0  0  0  0
  187.7010  177.4000  146.0000 C   0  0  0  0  0  0  0  0  0  0  0  0
  187.1450  177.9160  147.1730 C   0  0  0  0  0  3  0  0  0  0  0  0
  189.2920  175.4380  142.6130 N   0  0  0  0  0  0  0  0  0  0  0  0
  187.6280  176.3410  141.1730 C   0  0  0  0  0  0  0  0  0  0  0  0
  187.1090  176.5070  139.8880 C   0  0  0  0  0  3  0  0  0  0  0  0
  190.9370  174.6820  147.1490 O   0  0  0  0  0  0  0  0  0  0  0  0
  191.5080  174.9230  146.0510 C   0  0  0  0  0  0  0  0  0  0  0  0
  190.7450  175.4550  144.9630 N   0  0  0  0  0  2  0  0  0  0  0  0
  195.7360  174.2850  145.5890 C   0  0  0  0  0  0  0  0  0  0  0  0
  193.8670  175.6250  146.3260 C   0  0  0  0  0  3  0  0  0  0  0  0
  192.5950  172.3900  144.7430 C   0  0  0  0  0  1  0  0  0  0  0  0
  197.1050  174.1020  145.4510 O   0  0  0  0  0  1  0  0  0  0  0  0
  195.2440  175.4430  146.1890 C   0  0  0  0  0  3  0  0  0  0  0  0
  193.4690  173.4800  145.2610 C   0  0  0  0  0  0  0  0  0  0  0  0
  192.9580  174.6570  145.8690 C   0  0  0  0  0  0  0  0  0  0  0  0
  194.8520  173.3090  145.1280 C   0  0  0  0  0  3  0  0  0  0  0  0
  1  9  1  0  0  0  0
  1  6  1  0  0  0  0
  2 13  1  0  0  0  0
  2  5  1  0  0  0  0
  3  2  2  0  0  0  0
  4  7  2  0  0  0  0
  5 14  1  0  0  0  0
  5 16  2  0  0  0  0
  7  3  1  0  0  0  0
  8 23  1  6  0  0  0
  8 12  1  0  0  0  0
 10 18  1  0  0  0  0
 11  4  1  0  0  0  0
 12 16  1  0  0  0  0
 13  8  1  0  0  0  0
 14  1  2  0  0  0  0
 15 20  2  0  0  0  0
 15  4  1  0  0  0  0
 16 17  1  0  0  0  0
 17  6  2  0  0  0  0
 18 13  2  0  0  0  0
 19 10  2  0  0  0  0
 19  3  1  0  0  0  0
 20 19  1  0  0  0  0
 22 21  2  0  0  0  0
 23 22  1  0  0  0  0
 24 28  1  0  0  0  0
 26 29  1  0  0  0  0
 27 24  1  0  0  0  0
 28 25  2  0  0  0  0
 29 30  2  0  0  0  0
 30 22  1  0  0  0  0
 30 25  1  0  0  0  0
 31 29  1  0  0  0  0
 31 24  2  0  0  0  0
M  END
>  <MODEL>
3

>  <REMARK>
 VINA RESULT:      -8.9      0.374      1.278
  Name = 
  2 active torsions:
  status: ('A' for Active; 'I' for Inactive)
    1  A    between atoms: C_5  and  C_30
    2  A    between atoms: C_10  and  N_16
                            x       y       z     vdW  Elec       q    Type
                         _______ _______ _______ _____ _____    ______ ____

>  <TORSDO>
F 2

$$$$
=
 OpenBabel11112416573D

 31 35  0  0  1  0  0  0  0  0999 V2000
  195.5640  174.1280  145.5770 C   0  0  0  0  0  0  0  0  0  0  0  0
  192.0830  173.4250  144.1800 C   0  0  0  0  0  0  0  0  0  0  0  0
  192.0950  172.1220  143.6170 C   0  0  0  0  0  0  0  0  0  0  0  0
  193.1350  169.9700  143.1990 C   0  0  0  0  0  0  0  0  0  0  0  0
  193.2250  174.0190  144.9500 C   0  0  0  0  0  0  0  0  0  0  0  0
  195.3060  175.2140  146.3530 N   0  0  0  0  0  0  0  0  0  0  0  0
  193.1780  171.2440  143.7690 C   0  0  0  0  0  3  0  0  0  0  0  0
  190.8600  175.6180  144.5630 C   0  0  1  0  0  3  0  0  0  0  0  0
  196.9450  173.5880  145.4900 C   0  0  0  0  0  1  0  0  0  0  0  0
  189.8670  172.4990  142.7360 C   0  0  0  0  0  3  0  0  0  0  0  0
  194.4940  168.8840  143.3890 Cl  0  0  0  0  0  0  0  0  0  0  0  0
  191.6210  175.7240  145.8850 C   0  0  0  0  0  2  0  0  0  0  0  0
  190.9120  174.2090  144.0200 C   0  0  0  0  0  0  0  0  0  0  0  0
  194.5320  173.5170  144.8640 C   0  0  0  0  0  3  0  0  0  0  0  0
  192.0410  169.5730  142.4980 N   0  0  0  0  0  0  0  0  0  0  0  0
  192.9980  175.1610  145.7420 C   0  0  0  0  0  0  0  0  0  0  0  0
  194.0550  175.7350  146.4510 C   0  0  0  0  0  3  0  0  0  0  0  0
  189.8640  173.7360  143.2920 N   0  0  0  0  0  0  0  0  0  0  0  0
  190.9710  171.6700  142.8910 C   0  0  0  0  0  0  0  0  0  0  0  0
  190.9670  170.3900  142.3340 C   0  0  0  0  0  3  0  0  0  0  0  0
  189.9140  178.2930  144.3500 O   0  0  0  0  0  0  0  0  0  0  0  0
  189.0660  177.4110  144.6520 C   0  0  0  0  0  0  0  0  0  0  0  0
  189.4790  176.0440  144.7600 N   0  0  0  0  0  2  0  0  0  0  0  0
  184.9700  178.4170  145.4950 C   0  0  0  0  0  0  0  0  0  0  0  0
  187.1620  177.6970  146.2100 C   0  0  0  0  0  3  0  0  0  0  0  0
  187.1620  178.2890  142.4360 C   0  0  0  0  0  1  0  0  0  0  0  0
  183.6520  178.7360  145.7920 O   0  0  0  0  0  1  0  0  0  0  0  0
  185.8370  178.0170  146.5110 C   0  0  0  0  0  3  0  0  0  0  0  0
  186.7540  178.1770  143.8660 C   0  0  0  0  0  0  0  0  0  0  0  0
  187.6440  177.7680  144.8930 C   0  0  0  0  0  0  0  0  0  0  0  0
  185.4280  178.4970  144.1790 C   0  0  0  0  0  3  0  0  0  0  0  0
  1  6  1  0  0  0  0
  2  5  1  0  0  0  0
  3  7  1  0  0  0  0
  3  2  2  0  0  0  0
  4 11  1  0  0  0  0
  4  7  2  0  0  0  0
  5 16  2  0  0  0  0
  6 17  2  0  0  0  0
  8 23  1  1  0  0  0
  8 12  1  0  0  0  0
  9  1  1  0  0  0  0
 10 19  2  0  0  0  0
 10 18  1  0  0  0  0
 13  2  1  0  0  0  0
 13  8  1  0  0  0  0
 14  5  1  0  0  0  0
 14  1  2  0  0  0  0
 15  4  1  0  0  0  0
 16 12  1  0  0  0  0
 16 17  1  0  0  0  0
 18 13  2  0  0  0  0
 19  3  1  0  0  0  0
 20 15  2  0  0  0  0
 20 19  1  0  0  0  0
 21 22  2  0  0  0  0
 22 23  1  0  0  0  0
 22 30  1  0  0  0  0
 24 27  1  0  0  0  0
 24 28  1  0  0  0  0
 25 28  2  0  0  0  0
 26 29  1  0  0  0  0
 29 31  1  0  0  0  0
 29 30  2  0  0  0  0
 30 25  1  0  0  0  0
 31 24  2  0  0  0  0
M  END
>  <MODEL>
4

>  <REMARK>
 VINA RESULT:      -8.1      3.946      8.448
  Name = 
  2 active torsions:
  status: ('A' for Active; 'I' for Inactive)
    1  A    between atoms: C_5  and  C_30
    2  A    between atoms: C_10  and  N_16
                            x       y       z     vdW  Elec       q    Type
                         _______ _______ _______ _____ _____    ______ ____

>  <TORSDO>
F 2

$$$$
=
 OpenBabel11112416573D

 31 35  0  0  1  0  0  0  0  0999 V2000
  186.7350  177.0050  140.8560 C   0  0  0  0  0  0  0  0  0  0  0  0
  188.1470  175.8450  144.2050 C   0  0  0  0  0  0  0  0  0  0  0  0
  187.3630  176.4300  145.2350 C   0  0  0  0  0  0  0  0  0  0  0  0
  185.4430  177.6860  146.0240 C   0  0  0  0  0  0  0  0  0  0  0  0
  187.8290  175.9500  142.7430 C   0  0  0  0  0  0  0  0  0  0  0  0
  187.3390  176.1270  140.0130 N   0  0  0  0  0  0  0  0  0  0  0  0
  186.1790  177.1350  144.9730 C   0  0  0  0  0  3  0  0  0  0  0  0
  190.1870  174.4910  143.5280 C   0  0  1  0  0  3  0  0  0  0  0  0
  185.8190  178.0430  140.3150 C   0  0  0  0  0  1  0  0  0  0  0  0
  188.9220  175.5780  146.8850 C   0  0  0  0  0  3  0  0  0  0  0  0
  183.9690  178.5690  145.6870 Cl  0  0  0  0  0  0  0  0  0  0  0  0
  189.3670  173.9940  142.3370 C   0  0  0  0  0  2  0  0  0  0  0  0
  189.2930  175.1000  144.5830 C   0  0  0  0  0  0  0  0  0  0  0  0
  186.9710  176.9330  142.2290 C   0  0  0  0  0  3  0  0  0  0  0  0
  185.8680  177.5380  147.3060 N   0  0  0  0  0  0  0  0  0  0  0  0
  188.4590  175.0720  141.8400 C   0  0  0  0  0  0  0  0  0  0  0  0
  188.1860  175.1690  140.4740 C   0  0  0  0  0  3  0  0  0  0  0  0
  189.6520  175.0120  145.8930 N   0  0  0  0  0  0  0  0  0  0  0  0
  187.7670  176.2880  146.5800 C   0  0  0  0  0  0  0  0  0  0  0  0
  187.0050  176.8550  147.6030 C   0  0  0  0  0  3  0  0  0  0  0  0
  192.8200  173.7630  142.7360 O   0  0  0  0  0  0  0  0  0  0  0  0
  192.2790  173.0590  143.6320 C   0  0  0  0  0  0  0  0  0  0  0  0
  190.9600  173.3860  144.0830 N   0  0  0  0  0  2  0  0  0  0  0  0
  194.4140  169.8020  145.4560 C   0  0  0  0  0  0  0  0  0  0  0  0
  193.8990  172.1540  145.2720 C   0  0  0  0  0  3  0  0  0  0  0  0
  191.8680  170.1810  142.7090 C   0  0  0  0  0  1  0  0  0  0  0  0
  195.1150  168.7680  146.0610 O   0  0  0  0  0  1  0  0  0  0  0  0
  194.6040  171.1160  145.8820 C   0  0  0  0  0  3  0  0  0  0  0  0
  192.8050  170.5600  143.8040 C   0  0  0  0  0  0  0  0  0  0  0  0
  192.9930  171.9020  144.2300 C   0  0  0  0  0  0  0  0  0  0  0  0
  193.5180  169.5270  144.4220 C   0  0  0  0  0  3  0  0  0  0  0  0
  1 14  1  0  0  0  0
  2 13  2  0  0  0  0
  2  3  1  0  0  0  0
  3 19  1  0  0  0  0
  4 15  2  0  0  0  0
  5  2  1  0  0  0  0
  6 17  1  0  0  0  0
  6  1  2  0  0  0  0
  7  3  2  0  0  0  0
  7  4  1  0  0  0  0
  8 23  1  1  0  0  0
  8 13  1  0  0  0  0
  9  1  1  0  0  0  0
 11  4  1  0  0  0  0
 12  8  1  0  0  0  0
 13 18  1  0  0  0  0
 14  5  2  0  0  0  0
 15 20  1  0  0  0  0
 16 12  1  0  0  0  0
 16  5  1  0  0  0  0
 17 16  2  0  0  0  0
 18 10  2  0  0  0  0
 19 10  1  0  0  0  0
 19 20  2  0  0  0  0
 21 22  2  0  0  0  0
 22 23  1  0  0  0  0
 22 30  1  0  0  0  0
 24 28  1  0  0  0  0
 24 27  1  0  0  0  0
 25 28  2  0  0  0  0
 26 29  1  0  0  0  0
 29 30  2  0  0  0  0
 29 31  1  0  0  0  0
 30 25  1  0  0  0  0
 31 24  2  0  0  0  0
M  END
>  <MODEL>
5

>  <REMARK>
 VINA RESULT:      -8.1      2.422      4.887
  Name = 
  2 active torsions:
  status: ('A' for Active; 'I' for Inactive)
    1  A    between atoms: C_5  and  C_30
    2  A    between atoms: C_10  and  N_16
                            x       y       z     vdW  Elec       q    Type
                         _______ _______ _______ _____ _____    ______ ____

>  <TORSDO>
F 2

$$$$
=
 OpenBabel11112416573D

 31 35  0  0  1  0  0  0  0  0999 V2000
  191.7820  175.8730  146.3370 C   0  0  0  0  0  0  0  0  0  0  0  0
  189.4360  174.6740  143.5760 C   0  0  0  0  0  0  0  0  0  0  0  0
  189.9060  173.4130  143.1230 C   0  0  0  0  0  0  0  0  0  0  0  0
  191.3590  171.4760  143.2820 C   0  0  0  0  0  0  0  0  0  0  0  0
  190.0100  175.4130  144.7480 C   0  0  0  0  0  0  0  0  0  0  0  0
  191.0360  176.8710  146.8810 N   0  0  0  0  0  0  0  0  0  0  0  0
  190.9390  172.7170  143.7670 C   0  0  0  0  0  3  0  0  0  0  0  0
  187.8310  176.6240  143.3030 C   0  0  1  0  0  3  0  0  0  0  0  0
  193.1280  175.5680  146.8870 C   0  0  0  0  0  1  0  0  0  0  0  0
  188.2650  173.4610  141.3380 C   0  0  0  0  0  3  0  0  0  0  0  0
  192.6530  170.6180  144.0900 Cl  0  0  0  0  0  0  0  0  0  0  0  0
  187.9040  176.7980  144.8200 C   0  0  0  0  0  2  0  0  0  0  0  0
  188.3450  175.2640  142.8890 C   0  0  0  0  0  0  0  0  0  0  0  0
  191.2830  175.1320  145.2650 C   0  0  0  0  0  3  0  0  0  0  0  0
  190.7660  170.9370  142.1860 N   0  0  0  0  0  0  0  0  0  0  0  0
  189.2750  176.4710  145.3190 C   0  0  0  0  0  0  0  0  0  0  0  0
  189.8040  177.1790  146.4000 C   0  0  0  0  0  3  0  0  0  0  0  0
  187.8170  174.6570  141.7920 N   0  0  0  0  0  0  0  0  0  0  0  0
  189.3070  172.8150  141.9930 C   0  0  0  0  0  0  0  0  0  0  0  0
  189.7570  171.5750  141.5370 C   0  0  0  0  0  3  0  0  0  0  0  0
  186.7550  179.0410  142.2580 O   0  0  0  0  0  0  0  0  0  0  0  0
  185.9680  178.0610  142.3520 C   0  0  0  0  0  0  0  0  0  0  0  0
  186.4550  176.8120  142.8570 N   0  0  0  0  0  2  0  0  0  0  0  0
  181.8890  178.3620  141.0230 C   0  0  0  0  0  0  0  0  0  0  0  0
  184.2180  177.8770  140.6090 C   0  0  0  0  0  3  0  0  0  0  0  0
  183.7420  178.9230  144.2520 C   0  0  0  0  0  1  0  0  0  0  0  0
  180.5800  178.4520  140.5700 O   0  0  0  0  0  1  0  0  0  0  0  0
  182.9030  177.9660  140.1520 C   0  0  0  0  0  3  0  0  0  0  0  0
  183.5060  178.5810  142.8200 C   0  0  0  0  0  0  0  0  0  0  0  0
  184.5460  178.1800  141.9400 C   0  0  0  0  0  0  0  0  0  0  0  0
  182.1910  178.6670  142.3510 C   0  0  0  0  0  3  0  0  0  0  0  0
  1  6  1  0  0  0  0
  1  9  1  0  0  0  0
  2  5  1  0  0  0  0
  3  2  1  0  0  0  0
  3  7  1  0  0  0  0
  4  7  2  0  0  0  0
  4 11  1  0  0  0  0
  5 14  1  0  0  0  0
  5 16  2  0  0  0  0
  8 23  1  1  0  0  0
  8 12  1  0  0  0  0
 10 18  2  0  0  0  0
 10 19  1  0  0  0  0
 12 16  1  0  0  0  0
 13  8  1  0  0  0  0
 13  2  2  0  0  0  0
 14  1  2  0  0  0  0
 15  4  1  0  0  0  0
 16 17  1  0  0  0  0
 17  6  2  0  0  0  0
 18 13  1  0  0  0  0
 19  3  2  0  0  0  0
 20 19  1  0  0  0  0
 20 15  2  0  0  0  0
 21 22  2  0  0  0  0
 22 23  1  0  0  0  0
 24 31  1  0  0  0  0
 25 30  2  0  0  0  0
 27 24  1  0  0  0  0
 28 25  1  0  0  0  0
 28 24  2  0  0  0  0
 29 26  1  0  0  0  0
 30 22  1  0  0  0  0
 30 29  1  0  0  0  0
 31 29  2  0  0  0  0
M  END
>  <MODEL>
6

>  <REMARK>
 VINA RESULT:      -8.0      4.176      8.510
  Name = 
  2 active torsions:
  status: ('A' for Active; 'I' for Inactive)
    1  A    between atoms: C_5  and  C_30
    2  A    between atoms: C_10  and  N_16
                            x       y       z     vdW  Elec       q    Type
                         _______ _______ _______ _____ _____    ______ ____

>  <TORSDO>
F 2

$$$$
=
 OpenBabel11112416573D

 31 35  0  0  1  0  0  0  0  0999 V2000
  185.5750  177.8460  146.6090 C   0  0  0  0  0  0  0  0  0  0  0  0
  187.7160  176.8370  143.6170 C   0  0  0  0  0  0  0  0  0  0  0  0
  186.9550  177.0670  142.4400 C   0  0  0  0  0  0  0  0  0  0  0  0
  185.0170  177.9370  141.2680 C   0  0  0  0  0  0  0  0  0  0  0  0
  187.2750  177.2340  144.9940 C   0  0  0  0  0  0  0  0  0  0  0  0
  186.5190  177.8980  147.5850 N   0  0  0  0  0  0  0  0  0  0  0  0
  185.7210  177.7330  142.4570 C   0  0  0  0  0  3  0  0  0  0  0  0
  189.8140  175.9030  144.7030 C   0  0  1  0  0  3  0  0  0  0  0  0
  184.1560  178.1480  146.9320 C   0  0  0  0  0  1  0  0  0  0  0  0
  188.6870  175.9860  141.1290 C   0  0  0  0  0  3  0  0  0  0  0  0
  183.4750  178.7650  141.3010 Cl  0  0  0  0  0  0  0  0  0  0  0  0
  189.6670  177.0030  145.7540 C   0  0  0  0  0  2  0  0  0  0  0  0
  188.9800  176.2090  143.4800 C   0  0  0  0  0  0  0  0  0  0  0  0
  185.9350  177.5120  145.3030 C   0  0  0  0  0  3  0  0  0  0  0  0
  185.5260  177.4940  140.0890 N   0  0  0  0  0  0  0  0  0  0  0  0
  188.2240  177.2710  146.0340 C   0  0  0  0  0  0  0  0  0  0  0  0
  187.8240  177.6230  147.3250 C   0  0  0  0  0  3  0  0  0  0  0  0
  189.4090  175.7880  142.2590 N   0  0  0  0  0  0  0  0  0  0  0  0
  187.4570  176.6310  141.1940 C   0  0  0  0  0  0  0  0  0  0  0  0
  186.7220  176.8510  140.0280 C   0  0  0  0  0  3  0  0  0  0  0  0
  191.4970  173.7510  145.4940 O   0  0  0  0  0  0  0  0  0  0  0  0
  192.0210  174.6530  144.7860 C   0  0  0  0  0  0  0  0  0  0  0  0
  191.2200  175.7550  144.3450 N   0  0  0  0  0  2  0  0  0  0  0  0
  196.1300  174.3830  143.5450 C   0  0  0  0  0  0  0  0  0  0  0  0
  193.7860  173.8980  143.2220 C   0  0  0  0  0  3  0  0  0  0  0  0
  194.2560  175.9390  146.4170 C   0  0  0  0  0  1  0  0  0  0  0  0
  197.4480  174.2810  143.1240 O   0  0  0  0  0  1  0  0  0  0  0  0
  195.1110  173.7950  142.7970 C   0  0  0  0  0  3  0  0  0  0  0  0
  194.4980  175.1830  145.1540 C   0  0  0  0  0  0  0  0  0  0  0  0
  193.4530  174.5870  144.4000 C   0  0  0  0  0  0  0  0  0  0  0  0
  195.8230  175.0740  144.7180 C   0  0  0  0  0  3  0  0  0  0  0  0
  1  9  1  0  0  0  0
  1  6  1  0  0  0  0
  2  5  1  0  0  0  0
  3  7  1  0  0  0  0
  3  2  2  0  0  0  0
  4 11  1  0  0  0  0
  4  7  2  0  0  0  0
  5 14  1  0  0  0  0
  5 16  2  0  0  0  0
  8 23  1  6  0  0  0
  8 12  1  0  0  0  0
 10 19  2  0  0  0  0
 10 18  1  0  0  0  0
 12 16  1  0  0  0  0
 13  2  1  0  0  0  0
 13  8  1  0  0  0  0
 14  1  2  0  0  0  0
 15  4  1  0  0  0  0
 16 17  1  0  0  0  0
 17  6  2  0  0  0  0
 18 13  2  0  0  0  0
 19  3  1  0  0  0  0
 20 15  2  0  0  0  0
 20 19  1  0  0  0  0
 22 21  2  0  0  0  0
 23 22  1  0  0  0  0
 24 31  1  0  0  0  0
 25 30  2  0  0  0  0
 27 24  1  0  0  0  0
 28 25  1  0  0  0  0
 28 24  2  0  0  0  0
 29 26  1  0  0  0  0
 30 22  1  0  0  0  0
 30 29  1  0  0  0  0
 31 29  2  0  0  0  0
M  END
>  <MODEL>
7

>  <REMARK>
 VINA RESULT:      -8.0      1.235      1.247
  Name = 
  2 active torsions:
  status: ('A' for Active; 'I' for Inactive)
    1  A    between atoms: C_5  and  C_30
    2  A    between atoms: C_10  and  N_16
                            x       y       z     vdW  Elec       q    Type
                         _______ _______ _______ _____ _____    ______ ____

>  <TORSDO>
F 2

$$$$
=
 OpenBabel11112416573D

 31 35  0  0  1  0  0  0  0  0999 V2000
  191.2790  176.7880  147.5090 C   0  0  0  0  0  0  0  0  0  0  0  0
  188.7260  176.3650  144.7040 C   0  0  0  0  0  0  0  0  0  0  0  0
  187.5340  177.0320  145.0960 C   0  0  0  0  0  0  0  0  0  0  0  0
  186.2670  178.4780  146.5750 C   0  0  0  0  0  0  0  0  0  0  0  0
  190.0100  176.4150  145.4780 C   0  0  0  0  0  0  0  0  0  0  0  0
  192.4180  176.4180  146.8660 N   0  0  0  0  0  0  0  0  0  0  0  0
  187.4640  177.8420  146.2390 C   0  0  0  0  0  3  0  0  0  0  0  0
  189.9330  174.8590  143.0540 C   0  0  1  0  0  3  0  0  0  0  0  0
  191.3300  177.1930  148.9370 C   0  0  0  0  0  1  0  0  0  0  0  0
  186.4060  176.1230  143.1510 C   0  0  0  0  0  3  0  0  0  0  0  0
  186.1880  179.4830  148.0070 Cl  0  0  0  0  0  0  0  0  0  0  0  0
  191.2090  175.6230  143.4060 C   0  0  0  0  0  2  0  0  0  0  0  0
  188.7060  175.6210  143.4980 C   0  0  0  0  0  0  0  0  0  0  0  0
  190.0610  176.7900  146.8280 C   0  0  0  0  0  3  0  0  0  0  0  0
  185.1670  178.3190  145.7950 N   0  0  0  0  0  0  0  0  0  0  0  0
  191.2050  176.0130  144.8490 C   0  0  0  0  0  0  0  0  0  0  0  0
  192.4050  176.0370  145.5620 C   0  0  0  0  0  3  0  0  0  0  0  0
  187.5550  175.5060  142.7810 N   0  0  0  0  0  0  0  0  0  0  0  0
  186.3730  176.8990  144.3040 C   0  0  0  0  0  0  0  0  0  0  0  0
  185.1950  177.5500  144.6750 C   0  0  0  0  0  3  0  0  0  0  0  0
  189.3360  172.3620  141.8280 O   0  0  0  0  0  0  0  0  0  0  0  0
  189.6000  173.3250  141.0590 C   0  0  0  0  0  0  0  0  0  0  0  0
  189.8950  174.6110  141.6170 N   0  0  0  0  0  2  0  0  0  0  0  0
  189.4940  172.8990  136.7810 C   0  0  0  0  0  0  0  0  0  0  0  0
  188.6030  173.7910  138.8410 C   0  0  0  0  0  3  0  0  0  0  0  0
  191.6740  171.6440  139.5830 C   0  0  0  0  0  1  0  0  0  0  0  0
  189.4380  172.7760  135.4000 O   0  0  0  0  0  1  0  0  0  0  0  0
  188.5450  173.6690  137.4520 C   0  0  0  0  0  3  0  0  0  0  0  0
  190.5680  172.3660  138.8920 C   0  0  0  0  0  0  0  0  0  0  0  0
  189.6050  173.1480  139.5850 C   0  0  0  0  0  0  0  0  0  0  0  0
  190.5000  172.2510  137.4990 C   0  0  0  0  0  3  0  0  0  0  0  0
  1  9  1  0  0  0  0
  2  3  1  0  0  0  0
  2  5  1  0  0  0  0
  3  7  1  0  0  0  0
  4 11  1  0  0  0  0
  5 14  1  0  0  0  0
  6  1  1  0  0  0  0
  7  4  2  0  0  0  0
  8 23  1  6  0  0  0
  8 12  1  0  0  0  0
  8 13  1  0  0  0  0
 10 19  1  0  0  0  0
 12 16  1  0  0  0  0
 13  2  2  0  0  0  0
 14  1  2  0  0  0  0
 15  4  1  0  0  0  0
 16  5  2  0  0  0  0
 16 17  1  0  0  0  0
 17  6  2  0  0  0  0
 18 10  2  0  0  0  0
 18 13  1  0  0  0  0
 19 20  1  0  0  0  0
 19  3  2  0  0  0  0
 20 15  2  0  0  0  0
 22 23  1  0  0  0  0
 22 21  2  0  0  0  0
 24 28  2  0  0  0  0
 24 31  1  0  0  0  0
 25 30  2  0  0  0  0
 27 24  1  0  0  0  0
 28 25  1  0  0  0  0
 29 26  1  0  0  0  0
 29 30  1  0  0  0  0
 30 22  1  0  0  0  0
 31 29  2  0  0  0  0
M  END
>  <MODEL>
8

>  <REMARK>
 VINA RESULT:      -7.9      3.775      6.526
  Name = 
  2 active torsions:
  status: ('A' for Active; 'I' for Inactive)
    1  A    between atoms: C_5  and  C_30
    2  A    between atoms: C_10  and  N_16
                            x       y       z     vdW  Elec       q    Type
                         _______ _______ _______ _____ _____    ______ ____

>  <TORSDO>
F 2

$$$$
=
 OpenBabel11112416573D

 31 35  0  0  1  0  0  0  0  0999 V2000
  194.2430  175.1990  145.3170 C   0  0  0  0  0  0  0  0  0  0  0  0
  191.1570  173.9970  143.4230 C   0  0  0  0  0  0  0  0  0  0  0  0
  191.3570  172.6320  143.0850 C   0  0  0  0  0  0  0  0  0  0  0  0
  192.5860  170.5440  143.2120 C   0  0  0  0  0  0  0  0  0  0  0  0
  192.0860  174.7940  144.2890 C   0  0  0  0  0  0  0  0  0  0  0  0
  193.7720  176.3580  145.8500 N   0  0  0  0  0  0  0  0  0  0  0  0
  192.4390  171.8850  143.5720 C   0  0  0  0  0  3  0  0  0  0  0  0
  189.7530  176.1040  143.2190 C   0  0  1  0  0  3  0  0  0  0  0  0
  195.6440  174.7780  145.5760 C   0  0  0  0  0  1  0  0  0  0  0  0
  189.3300  172.6800  141.7540 C   0  0  0  0  0  3  0  0  0  0  0  0
  193.9430  169.6220  143.8220 Cl  0  0  0  0  0  0  0  0  0  0  0  0
  190.2290  176.4660  144.6260 C   0  0  0  0  0  2  0  0  0  0  0  0
  189.9960  174.6420  142.9250 C   0  0  0  0  0  0  0  0  0  0  0  0
  193.4110  174.4030  144.5290 C   0  0  0  0  0  3  0  0  0  0  0  0
  191.6790  169.9550  142.3910 N   0  0  0  0  0  0  0  0  0  0  0  0
  191.6380  176.0130  144.8350 C   0  0  0  0  0  0  0  0  0  0  0  0
  192.4980  176.7740  145.6290 C   0  0  0  0  0  3  0  0  0  0  0  0
  189.1440  173.9780  142.0980 N   0  0  0  0  0  0  0  0  0  0  0  0
  190.4290  171.9830  142.2410 C   0  0  0  0  0  0  0  0  0  0  0  0
  190.6120  170.6410  141.9020 C   0  0  0  0  0  3  0  0  0  0  0  0
  188.6980  178.2890  141.7340 O   0  0  0  0  0  0  0  0  0  0  0  0
  187.8680  177.5530  142.3330 C   0  0  0  0  0  0  0  0  0  0  0  0
  188.3380  176.4290  143.0850 N   0  0  0  0  0  2  0  0  0  0  0  0
  183.6520  178.3320  141.9900 C   0  0  0  0  0  0  0  0  0  0  0  0
  185.7770  177.7230  141.0170 C   0  0  0  0  0  3  0  0  0  0  0  0
  186.2000  178.3440  144.7620 C   0  0  0  0  0  1  0  0  0  0  0  0
  182.2930  178.5790  141.8530 O   0  0  0  0  0  1  0  0  0  0  0  0
  184.4110  177.9700  140.8770 C   0  0  0  0  0  3  0  0  0  0  0  0
  185.6290  178.2010  143.3920 C   0  0  0  0  0  0  0  0  0  0  0  0
  186.4110  177.8320  142.2650 C   0  0  0  0  0  0  0  0  0  0  0  0
  184.2600  178.4460  143.2400 C   0  0  0  0  0  3  0  0  0  0  0  0
  1  9  1  0  0  0  0
  1  6  1  0  0  0  0
  2  5  1  0  0  0  0
  3  2  1  0  0  0  0
  3  7  1  0  0  0  0
  4  7  2  0  0  0  0
  4 11  1  0  0  0  0
  5 14  1  0  0  0  0
  5 16  2  0  0  0  0
  8 23  1  1  0  0  0
  8 12  1  0  0  0  0
 10 18  2  0  0  0  0
 10 19  1  0  0  0  0
 12 16  1  0  0  0  0
 13  8  1  0  0  0  0
 13  2  2  0  0  0  0
 14  1  2  0  0  0  0
 15  4  1  0  0  0  0
 16 17  1  0  0  0  0
 17  6  2  0  0  0  0
 18 13  1  0  0  0  0
 19  3  2  0  0  0  0
 20 19  1  0  0  0  0
 20 15  2  0  0  0  0
 21 22  2  0  0  0  0
 22 23  1  0  0  0  0
 24 31  1  0  0  0  0
 25 30  2  0  0  0  0
 27 24  1  0  0  0  0
 28 25  1  0  0  0  0
 28 24  2  0  0  0  0
 29 26  1  0  0  0  0
 30 22  1  0  0  0  0
 30 29  1  0  0  0  0
 31 29  2  0  0  0  0
M  END
>  <MODEL>
9

>  <REMARK>
 VINA RESULT:      -7.7      4.149      8.471
  Name = 
  2 active torsions:
  status: ('A' for Active; 'I' for Inactive)
    1  A    between atoms: C_5  and  C_30
    2  A    between atoms: C_10  and  N_16
                            x       y       z     vdW  Elec       q    Type
                         _______ _______ _______ _____ _____    ______ ____

>  <TORSDO>
F 2

$$$$
