=
 OpenBabel11112417413D

 28 32  0  0  1  0  0  0  0  0999 V2000
  186.8100  178.2810  144.5090 C   0  0  0  0  0  0  0  0  0  0  0  0
  190.1880  177.9720  145.1310 F   0  0  0  0  0  0  0  0  0  0  0  0
  188.1660  173.6110  140.9680 O   0  0  0  0  0  0  0  0  0  0  0  0
  185.3660  177.5680  146.8090 C   0  0  0  0  0  3  0  0  0  0  0  0
  189.9740  174.1720  142.4780 C   0  0  2  0  0  3  0  0  0  0  0  0
  187.4640  178.7030  143.2300 C   0  0  0  0  0  2  0  0  0  0  0  0
  189.2550  177.7640  147.2890 C   0  0  0  0  0  1  0  0  0  0  0  0
  190.0340  177.0810  146.1810 C   0  0  1  0  0  0  0  0  0  0  0  0
  192.1360  175.6970  146.1350 C   0  0  0  0  0  0  0  0  0  0  0  0
  189.3000  175.7930  145.7200 C   0  0  2  0  0  3  0  0  0  0  0  0
  186.4220  177.4540  139.9260 C   0  0  0  0  0  1  0  0  0  0  0  0
  188.7690  176.1530  143.3600 C   0  0  1  0  0  3  0  0  0  0  0  0
  191.6040  174.8460  145.3150 N   0  0  0  0  0  0  0  0  0  0  0  0
  191.3520  176.7470  146.7000 N   0  0  0  0  0  2  0  0  0  0  0  0
  187.1150  177.3680  141.1970 N   0  0  0  0  0  0  0  0  0  0  0  0
  187.0900  177.0510  145.1660 C   0  0  0  0  0  0  0  0  0  0  0  0
  188.6430  174.3650  141.8580 C   0  0  0  0  0  0  0  0  0  0  0  0
  193.5540  175.5360  146.5460 C   0  0  0  0  0  1  0  0  0  0  0  0
  186.7680  176.0750  141.7700 C   0  0  0  0  0  2  0  0  0  0  0  0
  186.3460  176.7120  146.3060 C   0  0  0  0  0  3  0  0  0  0  0  0
  185.8240  179.1310  145.0280 C   0  0  0  0  0  3  0  0  0  0  0  0
  185.1090  178.7820  146.1740 C   0  0  0  0  0  3  0  0  0  0  0  0
  186.5440  178.4010  142.0510 C   0  0  0  0  0  2  0  0  0  0  0  0
  190.0890  175.3660  143.4350 C   0  0  1  0  0  3  0  0  0  0  0  0
  187.9460  175.4760  142.3790 N   0  0  0  0  0  0  0  0  0  0  0  0
  190.2080  174.8890  144.8760 C   0  0  2  0  0  3  0  0  0  0  0  0
  191.0590  174.2710  141.4240 C   0  0  0  0  0  1  0  0  0  0  0  0
  188.1470  176.0480  144.7440 C   0  0  2  0  0  3  0  0  0  0  0  0
  1 21  2  0  0  0  0
  1 16  1  0  0  0  0
  2  8  1  0  0  0  0
  3 17  2  0  0  0  0
  5 27  1  6  0  0  0
  5 24  1  0  0  0  0
  6  1  1  0  0  0  0
  8 14  1  0  0  0  0
  8  7  1  1  0  0  0
  9 18  1  0  0  0  0
  9 14  1  0  0  0  0
 10  8  1  0  0  0  0
 11 15  1  0  0  0  0
 12 24  1  0  0  0  0
 12 28  1  0  0  0  0
 13  9  2  0  0  0  0
 15 19  1  0  0  0  0
 15 23  1  0  0  0  0
 16 20  2  0  0  0  0
 17 25  1  0  0  0  0
 17  5  1  0  0  0  0
 19 25  1  0  0  0  0
 20  4  1  0  0  0  0
 21 22  1  0  0  0  0
 22  4  2  0  0  0  0
 23  6  1  0  0  0  0
 24 26  1  0  0  0  0
 25 12  1  0  0  0  0
 26 13  1  0  0  0  0
 26 10  1  0  0  0  0
 28 16  1  0  0  0  0
 28 10  1  0  0  0  0
M  END
>  <MODEL>
1

>  <REMARK>
 VINA RESULT:      -9.3      0.000      0.000
  Name = 
  0 active torsions:
  status: ('A' for Active; 'I' for Inactive)
                            x       y       z     vdW  Elec       q    Type
                         _______ _______ _______ _____ _____    ______ ____

>  <TORSDO>
F 0

$$$$
=
 OpenBabel11112417413D

 28 32  0  0  1  0  0  0  0  0999 V2000
  187.6290  177.6820  144.8480 C   0  0  0  0  0  0  0  0  0  0  0  0
  191.0620  177.5650  145.1660 F   0  0  0  0  0  0  0  0  0  0  0  0
  188.9340  173.1390  141.1270 O   0  0  0  0  0  0  0  0  0  0  0  0
  186.4390  176.8600  147.2540 C   0  0  0  0  0  3  0  0  0  0  0  0
  190.8330  173.7890  142.4820 C   0  0  2  0  0  3  0  0  0  0  0  0
  188.1420  178.1550  143.5250 C   0  0  0  0  0  2  0  0  0  0  0  0
  190.3370  177.2780  147.3940 C   0  0  0  0  0  1  0  0  0  0  0  0
  191.0530  176.6550  146.2110 C   0  0  1  0  0  0  0  0  0  0  0  0
  193.2190  175.3980  145.9580 C   0  0  0  0  0  0  0  0  0  0  0  0
  190.3570  175.3320  145.7960 C   0  0  2  0  0  3  0  0  0  0  0  0
  186.8850  176.8840  140.3040 C   0  0  0  0  0  1  0  0  0  0  0  0
  189.5990  175.6850  143.4980 C   0  0  1  0  0  3  0  0  0  0  0  0
  192.6670  174.5260  145.1740 N   0  0  0  0  0  0  0  0  0  0  0  0
  192.4290  176.3930  146.6070 N   0  0  0  0  0  2  0  0  0  0  0  0
  187.6920  176.8250  141.5080 N   0  0  0  0  0  0  0  0  0  0  0  0
  188.0370  176.4620  145.4580 C   0  0  0  0  0  0  0  0  0  0  0  0
  189.4430  173.9100  141.9840 C   0  0  0  0  0  0  0  0  0  0  0  0
  194.6750  175.3170  146.2410 C   0  0  0  0  0  1  0  0  0  0  0  0
  187.4730  175.5070  142.0890 C   0  0  0  0  0  2  0  0  0  0  0  0
  187.4180  176.0680  146.6540 C   0  0  0  0  0  3  0  0  0  0  0  0
  186.6470  178.4660  145.4660 C   0  0  0  0  0  3  0  0  0  0  0  0
  186.0570  178.0630  146.6640 C   0  0  0  0  0  3  0  0  0  0  0  0
  187.1400  177.8120  142.4260 C   0  0  0  0  0  2  0  0  0  0  0  0
  190.9640  174.9770  143.4440 C   0  0  1  0  0  3  0  0  0  0  0  0
  188.7330  174.9720  142.5820 N   0  0  0  0  0  0  0  0  0  0  0  0
  191.2370  174.4920  144.8610 C   0  0  2  0  0  3  0  0  0  0  0  0
  191.8130  173.9630  141.3380 C   0  0  0  0  0  1  0  0  0  0  0  0
  189.1090  175.5290  144.9290 C   0  0  2  0  0  3  0  0  0  0  0  0
  1 16  2  0  0  0  0
  1 21  1  0  0  0  0
  2  8  1  0  0  0  0
  3 17  2  0  0  0  0
  5 27  1  6  0  0  0
  5 24  1  0  0  0  0
  6  1  1  0  0  0  0
  8 14  1  0  0  0  0
  8  7  1  1  0  0  0
  9 18  1  0  0  0  0
  9 14  1  0  0  0  0
 10  8  1  0  0  0  0
 11 15  1  0  0  0  0
 12 28  1  0  0  0  0
 13  9  2  0  0  0  0
 15 19  1  0  0  0  0
 15 23  1  0  0  0  0
 16 20  1  0  0  0  0
 17  5  1  0  0  0  0
 17 25  1  0  0  0  0
 19 25  1  0  0  0  0
 20  4  2  0  0  0  0
 21 22  2  0  0  0  0
 22  4  1  0  0  0  0
 23  6  1  0  0  0  0
 24 12  1  0  0  0  0
 24 26  1  0  0  0  0
 25 12  1  0  0  0  0
 26 13  1  0  0  0  0
 26 10  1  0  0  0  0
 28 16  1  0  0  0  0
 28 10  1  0  0  0  0
M  END
>  <MODEL>
2

>  <REMARK>
 VINA RESULT:      -8.7      0.964      1.062
  Name = 
  0 active torsions:
  status: ('A' for Active; 'I' for Inactive)
                            x       y       z     vdW  Elec       q    Type
                         _______ _______ _______ _____ _____    ______ ____

>  <TORSDO>
F 0

$$$$
=
 OpenBabel11112417413D

 28 32  0  0  1  0  0  0  0  0999 V2000
  190.3260  175.6310  143.7010 C   0  0  0  0  0  0  0  0  0  0  0  0
  188.2040  177.7560  142.0040 F   0  0  0  0  0  0  0  0  0  0  0  0
  186.2950  176.8400  148.0000 O   0  0  0  0  0  0  0  0  0  0  0  0
  190.0990  173.0410  142.6410 C   0  0  0  0  0  3  0  0  0  0  0  0
  185.5730  177.6150  145.8210 C   0  0  2  0  0  3  0  0  0  0  0  0
  190.5500  176.9670  144.3370 C   0  0  0  0  0  2  0  0  0  0  0  0
  188.1580  175.8160  140.6600 C   0  0  0  0  0  1  0  0  0  0  0  0
  187.3640  176.7500  141.5530 C   0  0  1  0  0  0  0  0  0  0  0  0
  185.1190  177.8660  141.3380 C   0  0  0  0  0  0  0  0  0  0  0  0
  186.7450  175.9640  142.7400 C   0  0  2  0  0  3  0  0  0  0  0  0
  190.5940  177.4820  147.9840 C   0  0  0  0  0  1  0  0  0  0  0  0
  187.7130  176.9540  144.7560 C   0  0  1  0  0  3  0  0  0  0  0  0
  184.8180  177.5870  142.5680 N   0  0  0  0  0  0  0  0  0  0  0  0
  186.3120  177.3520  140.7480 N   0  0  0  0  0  2  0  0  0  0  0  0
  189.9510  177.2980  146.6970 N   0  0  0  0  0  0  0  0  0  0  0  0
  189.0400  175.0410  143.5460 C   0  0  0  0  0  0  0  0  0  0  0  0
  186.5300  177.0040  146.7730 C   0  0  0  0  0  0  0  0  0  0  0  0
  184.1770  178.6660  140.5130 C   0  0  0  0  0  1  0  0  0  0  0  0
  188.9530  176.2520  146.8790 C   0  0  0  0  0  2  0  0  0  0  0  0
  188.9550  173.7410  143.0260 C   0  0  0  0  0  3  0  0  0  0  0  0
  191.4640  174.9160  143.3080 C   0  0  0  0  0  3  0  0  0  0  0  0
  191.3540  173.6310  142.7760 C   0  0  0  0  0  3  0  0  0  0  0  0
  190.9710  176.7870  145.7920 C   0  0  0  0  0  2  0  0  0  0  0  0
  186.3540  177.6300  144.5010 C   0  0  1  0  0  3  0  0  0  0  0  0
  187.7370  176.6030  146.1610 N   0  0  0  0  0  0  0  0  0  0  0  0
  185.6540  176.7750  143.4540 C   0  0  2  0  0  3  0  0  0  0  0  0
  185.2650  179.0410  146.2350 C   0  0  0  0  0  1  0  0  0  0  0  0
  187.7200  175.7020  143.8920 C   0  0  2  0  0  3  0  0  0  0  0  0
  1  6  1  0  0  0  0
  4 22  2  0  0  0  0
  4 20  1  0  0  0  0
  5 27  1  1  0  0  0
  5 17  1  0  0  0  0
  6 23  1  0  0  0  0
  8  7  1  6  0  0  0
  8  2  1  0  0  0  0
  8 10  1  0  0  0  0
  9 13  2  0  0  0  0
 10 26  1  0  0  0  0
 10 28  1  0  0  0  0
 12 25  1  0  0  0  0
 13 26  1  0  0  0  0
 14  9  1  0  0  0  0
 14  8  1  0  0  0  0
 15 19  1  0  0  0  0
 15 11  1  0  0  0  0
 16  1  1  0  0  0  0
 16 28  1  0  0  0  0
 17  3  2  0  0  0  0
 18  9  1  0  0  0  0
 20 16  2  0  0  0  0
 21  1  2  0  0  0  0
 22 21  1  0  0  0  0
 23 15  1  0  0  0  0
 24 12  1  0  0  0  0
 24  5  1  0  0  0  0
 25 17  1  0  0  0  0
 25 19  1  0  0  0  0
 26 24  1  0  0  0  0
 28 12  1  0  0  0  0
M  END
>  <MODEL>
3

>  <REMARK>
 VINA RESULT:      -8.6      2.255      6.481
  Name = 
  0 active torsions:
  status: ('A' for Active; 'I' for Inactive)
                            x       y       z     vdW  Elec       q    Type
                         _______ _______ _______ _____ _____    ______ ____

>  <TORSDO>
F 0

$$$$
=
 OpenBabel11112417413D

 28 32  0  0  1  0  0  0  0  0999 V2000
  190.7990  174.6770  142.0140 C   0  0  0  0  0  0  0  0  0  0  0  0
  189.0530  177.6320  142.3470 F   0  0  0  0  0  0  0  0  0  0  0  0
  190.6400  175.2020  148.0040 O   0  0  0  0  0  0  0  0  0  0  0  0
  189.0880  172.6890  141.0120 C   0  0  0  0  0  3  0  0  0  0  0  0
  189.1720  176.7840  146.9050 C   0  0  2  0  0  3  0  0  0  0  0  0
  191.8110  175.6500  142.5300 C   0  0  0  0  0  2  0  0  0  0  0  0
  187.5580  176.3000  141.0990 C   0  0  0  0  0  1  0  0  0  0  0  0
  187.8070  177.0290  142.4050 C   0  0  1  0  0  0  0  0  0  0  0  0
  186.4260  178.5920  143.8130 C   0  0  0  0  0  0  0  0  0  0  0  0
  187.7200  176.0410  143.5990 C   0  0  2  0  0  3  0  0  0  0  0  0
  194.0670  174.9100  145.3460 C   0  0  0  0  0  1  0  0  0  0  0  0
  189.9280  176.0860  144.6490 C   0  0  1  0  0  3  0  0  0  0  0  0
  186.7850  177.9900  144.9040 N   0  0  0  0  0  0  0  0  0  0  0  0
  186.7970  178.0670  142.5390 N   0  0  0  0  0  2  0  0  0  0  0  0
  192.8030  175.2990  144.7510 N   0  0  0  0  0  0  0  0  0  0  0  0
  189.5380  174.4500  142.6340 C   0  0  0  0  0  0  0  0  0  0  0  0
  190.1910  175.7100  146.9420 C   0  0  0  0  0  0  0  0  0  0  0  0
  185.5590  179.7950  143.8880 C   0  0  0  0  0  1  0  0  0  0  0  0
  191.7770  174.4820  145.3860 C   0  0  0  0  0  2  0  0  0  0  0  0
  188.7080  173.4420  142.1230 C   0  0  0  0  0  3  0  0  0  0  0  0
  191.1650  173.9120  140.8980 C   0  0  0  0  0  3  0  0  0  0  0  0
  190.3150  172.9280  140.3950 C   0  0  0  0  0  3  0  0  0  0  0  0
  192.8700  174.9160  143.3470 C   0  0  0  0  0  2  0  0  0  0  0  0
  189.0220  177.0730  145.4060 C   0  0  1  0  0  3  0  0  0  0  0  0
  190.6000  175.2940  145.6580 N   0  0  0  0  0  0  0  0  0  0  0  0
  187.6030  176.7770  144.9420 C   0  0  2  0  0  3  0  0  0  0  0  0
  189.6970  178.0240  147.6020 C   0  0  0  0  0  1  0  0  0  0  0  0
  188.9910  175.2170  143.8230 C   0  0  2  0  0  3  0  0  0  0  0  0
  1  6  1  0  0  0  0
  1 16  1  0  0  0  0
  2  8  1  0  0  0  0
  4 20  1  0  0  0  0
  5 17  1  0  0  0  0
  5 27  1  1  0  0  0
  6 23  1  0  0  0  0
  8  7  1  6  0  0  0
  8 14  1  0  0  0  0
  8 10  1  0  0  0  0
  9 18  1  0  0  0  0
  9 13  2  0  0  0  0
 10 28  1  0  0  0  0
 10 26  1  0  0  0  0
 12 24  1  0  0  0  0
 12 25  1  0  0  0  0
 13 26  1  0  0  0  0
 14  9  1  0  0  0  0
 15 11  1  0  0  0  0
 15 19  1  0  0  0  0
 16 28  1  0  0  0  0
 17  3  2  0  0  0  0
 19 25  1  0  0  0  0
 20 16  2  0  0  0  0
 21  1  2  0  0  0  0
 22 21  1  0  0  0  0
 22  4  2  0  0  0  0
 23 15  1  0  0  0  0
 24  5  1  0  0  0  0
 25 17  1  0  0  0  0
 26 24  1  0  0  0  0
 28 12  1  0  0  0  0
M  END
>  <MODEL>
4

>  <REMARK>
 VINA RESULT:      -8.2      2.144      6.245
  Name = 
  0 active torsions:
  status: ('A' for Active; 'I' for Inactive)
                            x       y       z     vdW  Elec       q    Type
                         _______ _______ _______ _____ _____    ______ ____

>  <TORSDO>
F 0

$$$$
=
 OpenBabel11112417413D

 28 32  0  0  1  0  0  0  0  0999 V2000
  190.2850  174.4610  144.0110 C   0  0  0  0  0  0  0  0  0  0  0  0
  187.6920  175.6330  145.9600 F   0  0  0  0  0  0  0  0  0  0  0  0
  186.9880  177.3180  139.8690 O   0  0  0  0  0  0  0  0  0  0  0  0
  192.6510  175.8090  144.6930 C   0  0  0  0  0  3  0  0  0  0  0  0
  186.2540  177.8090  142.1240 C   0  0  2  0  0  3  0  0  0  0  0  0
  189.0980  173.6610  143.5720 C   0  0  0  0  0  2  0  0  0  0  0  0
  189.5830  176.5700  147.0170 C   0  0  0  0  0  1  0  0  0  0  0  0
  188.3010  176.8430  146.2530 C   0  0  1  0  0  0  0  0  0  0  0  0
  186.3840  178.4380  146.5910 C   0  0  0  0  0  0  0  0  0  0  0  0
  188.6050  177.6450  144.9590 C   0  0  2  0  0  3  0  0  0  0  0  0
  188.2090  173.1490  140.0340 C   0  0  0  0  0  1  0  0  0  0  0  0
  187.8730  176.2140  143.1160 C   0  0  1  0  0  3  0  0  0  0  0  0
  186.3600  178.7380  145.3310 N   0  0  0  0  0  0  0  0  0  0  0  0
  187.4170  177.6070  147.1200 N   0  0  0  0  0  2  0  0  0  0  0  0
  188.2620  173.9010  141.2740 N   0  0  0  0  0  0  0  0  0  0  0  0
  190.2980  175.8830  144.0640 C   0  0  0  0  0  0  0  0  0  0  0  0
  187.0880  177.1240  141.1100 C   0  0  0  0  0  0  0  0  0  0  0  0
  185.3710  179.0220  147.5070 C   0  0  0  0  0  1  0  0  0  0  0  0
  188.7650  175.2250  140.9330 C   0  0  0  0  0  2  0  0  0  0  0  0
  191.4960  176.5330  144.3940 C   0  0  0  0  0  3  0  0  0  0  0  0
  191.4520  173.7490  144.3150 C   0  0  0  0  0  3  0  0  0  0  0  0
  192.6280  174.4160  144.6590 C   0  0  0  0  0  3  0  0  0  0  0  0
  189.2600  173.2490  142.1120 C   0  0  0  0  0  2  0  0  0  0  0  0
  186.7280  177.1880  143.4450 C   0  0  1  0  0  3  0  0  0  0  0  0
  188.0280  176.2370  141.6760 N   0  0  0  0  0  0  0  0  0  0  0  0
  187.3330  178.2510  144.3510 C   0  0  2  0  0  3  0  0  0  0  0  0
  184.7920  177.4720  141.9100 C   0  0  0  0  0  1  0  0  0  0  0  0
  189.1080  176.7850  143.7960 C   0  0  2  0  0  3  0  0  0  0  0  0
  1 16  2  0  0  0  0
  1 21  1  0  0  0  0
  2  8  1  0  0  0  0
  3 17  2  0  0  0  0
  5 27  1  6  0  0  0
  5 24  1  0  0  0  0
  6  1  1  0  0  0  0
  8  7  1  1  0  0  0
  8 14  1  0  0  0  0
  9 14  1  0  0  0  0
  9 18  1  0  0  0  0
 10  8  1  0  0  0  0
 11 15  1  0  0  0  0
 12 24  1  0  0  0  0
 12 28  1  0  0  0  0
 13  9  2  0  0  0  0
 15 23  1  0  0  0  0
 16 20  1  0  0  0  0
 17 25  1  0  0  0  0
 17  5  1  0  0  0  0
 19 15  1  0  0  0  0
 19 25  1  0  0  0  0
 20  4  2  0  0  0  0
 21 22  2  0  0  0  0
 22  4  1  0  0  0  0
 23  6  1  0  0  0  0
 24 26  1  0  0  0  0
 25 12  1  0  0  0  0
 26 10  1  0  0  0  0
 26 13  1  0  0  0  0
 28 16  1  0  0  0  0
 28 10  1  0  0  0  0
M  END
>  <MODEL>
5

>  <REMARK>
 VINA RESULT:      -8.0      2.061      5.058
  Name = 
  0 active torsions:
  status: ('A' for Active; 'I' for Inactive)
                            x       y       z     vdW  Elec       q    Type
                         _______ _______ _______ _____ _____    ______ ____

>  <TORSDO>
F 0

$$$$
=
 OpenBabel11112417413D

 28 32  0  0  1  0  0  0  0  0999 V2000
  193.0450  174.4040  145.3340 C   0  0  0  0  0  0  0  0  0  0  0  0
  189.8010  174.6990  146.4660 F   0  0  0  0  0  0  0  0  0  0  0  0
  190.0170  173.9090  140.1600 O   0  0  0  0  0  0  0  0  0  0  0  0
  194.3670  176.8630  145.6350 C   0  0  0  0  0  3  0  0  0  0  0  0
  188.6010  174.6360  141.9860 C   0  0  2  0  0  3  0  0  0  0  0  0
  192.4590  173.0410  145.1420 C   0  0  0  0  0  2  0  0  0  0  0  0
  190.7870  176.7020  147.2310 C   0  0  0  0  0  1  0  0  0  0  0  0
  189.7480  176.0750  146.3200 C   0  0  1  0  0  0  0  0  0  0  0  0
  187.3210  176.5600  145.8630 C   0  0  0  0  0  0  0  0  0  0  0  0
  190.0020  176.4920  144.8470 C   0  0  2  0  0  3  0  0  0  0  0  0
  192.7930  171.1250  142.0140 C   0  0  0  0  0  1  0  0  0  0  0  0
  190.4320  174.4080  143.6420 C   0  0  1  0  0  3  0  0  0  0  0  0
  187.4920  176.4160  144.5860 N   0  0  0  0  0  0  0  0  0  0  0  0
  188.4370  176.5360  146.7520 N   0  0  0  0  0  2  0  0  0  0  0  0
  192.2100  172.1410  142.8690 N   0  0  0  0  0  0  0  0  0  0  0  0
  192.4450  175.5950  144.8380 C   0  0  0  0  0  0  0  0  0  0  0  0
  189.8720  174.1720  141.3840 C   0  0  0  0  0  0  0  0  0  0  0  0
  185.9620  176.8250  146.3980 C   0  0  0  0  0  1  0  0  0  0  0  0
  192.1770  173.3700  142.0870 C   0  0  0  0  0  2  0  0  0  0  0  0
  193.1320  176.8080  144.9890 C   0  0  0  0  0  3  0  0  0  0  0  0
  194.2850  174.4770  145.9820 C   0  0  0  0  0  3  0  0  0  0  0  0
  194.9410  175.6970  146.1380 C   0  0  0  0  0  3  0  0  0  0  0  0
  193.1420  172.3410  143.9710 C   0  0  0  0  0  2  0  0  0  0  0  0
  188.9420  174.7520  143.4780 C   0  0  1  0  0  3  0  0  0  0  0  0
  190.9210  174.0680  142.3220 N   0  0  0  0  0  0  0  0  0  0  0  0
  188.7920  176.1910  143.9510 C   0  0  2  0  0  3  0  0  0  0  0  0
  187.5230  173.5860  141.8010 C   0  0  0  0  0  1  0  0  0  0  0  0
  191.0970  175.6790  144.1480 C   0  0  2  0  0  3  0  0  0  0  0  0
  1 21  1  0  0  0  0
  3 17  2  0  0  0  0
  4 22  1  0  0  0  0
  5 27  1  1  0  0  0
  5 24  1  0  0  0  0
  6  1  1  0  0  0  0
  8  2  1  0  0  0  0
  8 14  1  0  0  0  0
  8  7  1  1  0  0  0
  9 18  1  0  0  0  0
  9 14  1  0  0  0  0
 10  8  1  0  0  0  0
 11 15  1  0  0  0  0
 12 28  1  0  0  0  0
 13  9  2  0  0  0  0
 15 23  1  0  0  0  0
 16 20  1  0  0  0  0
 16  1  2  0  0  0  0
 17  5  1  0  0  0  0
 17 25  1  0  0  0  0
 19 25  1  0  0  0  0
 19 15  1  0  0  0  0
 20  4  2  0  0  0  0
 21 22  2  0  0  0  0
 23  6  1  0  0  0  0
 24 12  1  0  0  0  0
 24 26  1  0  0  0  0
 25 12  1  0  0  0  0
 26 13  1  0  0  0  0
 26 10  1  0  0  0  0
 28 16  1  0  0  0  0
 28 10  1  0  0  0  0
M  END
>  <MODEL>
6

>  <REMARK>
 VINA RESULT:      -7.7      2.182      5.742
  Name = 
  0 active torsions:
  status: ('A' for Active; 'I' for Inactive)
                            x       y       z     vdW  Elec       q    Type
                         _______ _______ _______ _____ _____    ______ ____

>  <TORSDO>
F 0

$$$$
=
 OpenBabel11112417413D

 28 32  0  0  1  0  0  0  0  0999 V2000
  186.6100  176.7730  143.4890 C   0  0  0  0  0  0  0  0  0  0  0  0
  188.6700  174.0080  143.5190 F   0  0  0  0  0  0  0  0  0  0  0  0
  190.2170  178.1300  148.1070 O   0  0  0  0  0  0  0  0  0  0  0  0
  187.1150  178.2910  141.1820 C   0  0  0  0  0  3  0  0  0  0  0  0
  191.0280  176.2340  146.8360 C   0  0  2  0  0  3  0  0  0  0  0  0
  186.2350  176.0440  144.7410 C   0  0  0  0  0  2  0  0  0  0  0  0
  188.9650  174.8340  141.3280 C   0  0  0  0  0  1  0  0  0  0  0  0
  189.6170  174.5560  142.6690 C   0  0  1  0  0  0  0  0  0  0  0  0
  191.7770  173.4610  143.3550 C   0  0  0  0  0  0  0  0  0  0  0  0
  190.2120  175.8620  143.2600 C   0  0  2  0  0  3  0  0  0  0  0  0
  185.8930  177.7010  148.0130 C   0  0  0  0  0  1  0  0  0  0  0  0
  189.0280  176.2230  145.3700 C   0  0  1  0  0  3  0  0  0  0  0  0
  192.0110  174.3830  144.2350 N   0  0  0  0  0  0  0  0  0  0  0  0
  190.6720  173.5760  142.4590 N   0  0  0  0  0  2  0  0  0  0  0  0
  186.6380  177.1020  146.9220 N   0  0  0  0  0  0  0  0  0  0  0  0
  187.9460  177.1370  143.1610 C   0  0  0  0  0  0  0  0  0  0  0  0
  190.0570  177.3010  147.1710 C   0  0  0  0  0  0  0  0  0  0  0  0
  192.7080  172.3110  143.2290 C   0  0  0  0  0  1  0  0  0  0  0  0
  187.7000  178.0400  146.5830 C   0  0  0  0  0  2  0  0  0  0  0  0
  188.1700  177.9070  142.0100 C   0  0  0  0  0  3  0  0  0  0  0  0
  185.5620  177.1650  142.6460 C   0  0  0  0  0  3  0  0  0  0  0  0
  185.8110  177.9150  141.4960 C   0  0  0  0  0  3  0  0  0  0  0  0
  185.7280  177.0320  145.7870 C   0  0  0  0  0  2  0  0  0  0  0  0
  190.3430  175.4880  145.6830 C   0  0  1  0  0  3  0  0  0  0  0  0
  188.9330  177.3120  146.3190 N   0  0  0  0  0  0  0  0  0  0  0  0
  191.1810  175.5760  144.4150 C   0  0  2  0  0  3  0  0  0  0  0  0
  191.1910  175.2910  148.0120 C   0  0  0  0  0  1  0  0  0  0  0  0
  189.1810  176.7580  143.9540 C   0  0  2  0  0  3  0  0  0  0  0  0
  1  6  1  0  0  0  0
  4 22  2  0  0  0  0
  4 20  1  0  0  0  0
  5 17  1  0  0  0  0
  5 27  1  1  0  0  0
  6 23  1  0  0  0  0
  8  7  1  6  0  0  0
  8 10  1  0  0  0  0
  8  2  1  0  0  0  0
  9 13  2  0  0  0  0
 10 28  1  0  0  0  0
 10 26  1  0  0  0  0
 12 24  1  0  0  0  0
 12 25  1  0  0  0  0
 13 26  1  0  0  0  0
 14  8  1  0  0  0  0
 14  9  1  0  0  0  0
 15 11  1  0  0  0  0
 16  1  1  0  0  0  0
 16 28  1  0  0  0  0
 17  3  2  0  0  0  0
 18  9  1  0  0  0  0
 19 15  1  0  0  0  0
 20 16  2  0  0  0  0
 21  1  2  0  0  0  0
 22 21  1  0  0  0  0
 23 15  1  0  0  0  0
 24  5  1  0  0  0  0
 25 19  1  0  0  0  0
 25 17  1  0  0  0  0
 26 24  1  0  0  0  0
 28 12  1  0  0  0  0
M  END
>  <MODEL>
7

>  <REMARK>
 VINA RESULT:      -7.6      2.598      4.725
  Name = 
  0 active torsions:
  status: ('A' for Active; 'I' for Inactive)
                            x       y       z     vdW  Elec       q    Type
                         _______ _______ _______ _____ _____    ______ ____

>  <TORSDO>
F 0

$$$$
=
 OpenBabel11112417413D

 28 32  0  0  1  0  0  0  0  0999 V2000
  189.0500  176.8680  144.6720 C   0  0  0  0  0  0  0  0  0  0  0  0
  192.4310  176.7340  144.0060 F   0  0  0  0  0  0  0  0  0  0  0  0
  189.1220  172.9930  140.0710 O   0  0  0  0  0  0  0  0  0  0  0  0
  188.5380  175.6600  147.1530 C   0  0  0  0  0  3  0  0  0  0  0  0
  191.3420  173.4350  140.9320 C   0  0  2  0  0  3  0  0  0  0  0  0
  189.1960  177.5520  143.3490 C   0  0  0  0  0  2  0  0  0  0  0  0
  192.3370  176.0870  146.2730 C   0  0  0  0  0  1  0  0  0  0  0  0
  192.6780  175.6680  144.8560 C   0  0  1  0  0  0  0  0  0  0  0  0
  194.6460  174.4890  143.8210 C   0  0  0  0  0  0  0  0  0  0  0  0
  191.8480  174.4220  144.4480 C   0  0  2  0  0  3  0  0  0  0  0  0
  187.0600  176.8010  140.4440 C   0  0  0  0  0  1  0  0  0  0  0  0
  190.5020  175.1320  142.5340 C   0  0  1  0  0  3  0  0  0  0  0  0
  193.8690  173.7480  143.0940 N   0  0  0  0  0  0  0  0  0  0  0  0
  194.0990  175.3600  144.8110 N   0  0  0  0  0  2  0  0  0  0  0  0
  188.1640  176.5580  141.3530 N   0  0  0  0  0  0  0  0  0  0  0  0
  189.5670  175.5700  144.9460 C   0  0  0  0  0  0  0  0  0  0  0  0
  189.8740  173.6210  140.8630 C   0  0  0  0  0  0  0  0  0  0  0  0
  196.1190  174.3770  143.6740 C   0  0  0  0  0  1  0  0  0  0  0  0
  188.0650  175.1620  141.7580 C   0  0  0  0  0  2  0  0  0  0  0  0
  189.2850  174.9840  146.1890 C   0  0  0  0  0  3  0  0  0  0  0  0
  188.3030  177.5330  145.6520 C   0  0  0  0  0  3  0  0  0  0  0  0
  188.0510  176.9380  146.8870 C   0  0  0  0  0  3  0  0  0  0  0  0
  187.9200  177.3800  142.5300 C   0  0  0  0  0  2  0  0  0  0  0  0
  191.7740  174.4550  141.9950 C   0  0  1  0  0  3  0  0  0  0  0  0
  189.3930  174.5660  141.7940 N   0  0  0  0  0  0  0  0  0  0  0  0
  192.4080  173.7510  143.1860 C   0  0  2  0  0  3  0  0  0  0  0  0
  191.9760  173.7990  139.6040 C   0  0  0  0  0  1  0  0  0  0  0  0
  190.4180  174.7430  144.0020 C   0  0  2  0  0  3  0  0  0  0  0  0
  1 16  2  0  0  0  0
  1 21  1  0  0  0  0
  2  8  1  0  0  0  0
  3 17  2  0  0  0  0
  5 27  1  6  0  0  0
  5 24  1  0  0  0  0
  6  1  1  0  0  0  0
  8  7  1  1  0  0  0
  9 14  1  0  0  0  0
 10  8  1  0  0  0  0
 11 15  1  0  0  0  0
 12 28  1  0  0  0  0
 13 26  1  0  0  0  0
 13  9  2  0  0  0  0
 14  8  1  0  0  0  0
 15 19  1  0  0  0  0
 15 23  1  0  0  0  0
 16 20  1  0  0  0  0
 17  5  1  0  0  0  0
 17 25  1  0  0  0  0
 18  9  1  0  0  0  0
 19 25  1  0  0  0  0
 20  4  2  0  0  0  0
 21 22  2  0  0  0  0
 22  4  1  0  0  0  0
 23  6  1  0  0  0  0
 24 12  1  0  0  0  0
 24 26  1  0  0  0  0
 25 12  1  0  0  0  0
 26 10  1  0  0  0  0
 28 10  1  0  0  0  0
 28 16  1  0  0  0  0
M  END
>  <MODEL>
8

>  <REMARK>
 VINA RESULT:      -7.6      1.867      2.774
  Name = 
  0 active torsions:
  status: ('A' for Active; 'I' for Inactive)
                            x       y       z     vdW  Elec       q    Type
                         _______ _______ _______ _____ _____    ______ ____

>  <TORSDO>
F 0

$$$$
=
 OpenBabel11112417413D

 28 32  0  0  1  0  0  0  0  0999 V2000
  189.1600  176.4400  144.4680 C   0  0  0  0  0  0  0  0  0  0  0  0
  192.6000  176.2750  144.6450 F   0  0  0  0  0  0  0  0  0  0  0  0
  190.1700  171.2440  141.6100 O   0  0  0  0  0  0  0  0  0  0  0  0
  188.0760  176.1190  147.0380 C   0  0  0  0  0  3  0  0  0  0  0  0
  192.1500  172.0750  142.7300 C   0  0  2  0  0  3  0  0  0  0  0  0
  189.6150  176.6420  143.0570 C   0  0  0  0  0  2  0  0  0  0  0  0
  191.9840  176.4320  146.9180 C   0  0  0  0  0  1  0  0  0  0  0  0
  192.6250  175.5770  145.8420 C   0  0  1  0  0  0  0  0  0  0  0  0
  194.7460  174.2270  145.7300 C   0  0  0  0  0  0  0  0  0  0  0  0
  191.8780  174.2220  145.7150 C   0  0  2  0  0  3  0  0  0  0  0  0
  188.1670  174.8330  140.1940 C   0  0  0  0  0  1  0  0  0  0  0  0
  191.0120  174.1650  143.4280 C   0  0  1  0  0  3  0  0  0  0  0  0
  194.1350  173.2420  145.1500 N   0  0  0  0  0  0  0  0  0  0  0  0
  194.0120  175.3510  146.2160 N   0  0  0  0  0  2  0  0  0  0  0  0
  189.0330  174.9740  141.3490 N   0  0  0  0  0  0  0  0  0  0  0  0
  189.5710  175.3430  145.2770 C   0  0  0  0  0  0  0  0  0  0  0  0
  190.7400  172.1440  142.2830 C   0  0  0  0  0  0  0  0  0  0  0  0
  196.2120  174.1540  145.9560 C   0  0  0  0  0  1  0  0  0  0  0  0
  188.8140  173.7950  142.1760 C   0  0  0  0  0  2  0  0  0  0  0  0
  189.0040  175.1980  146.5520 C   0  0  0  0  0  3  0  0  0  0  0  0
  188.2280  177.3560  144.9720 C   0  0  0  0  0  3  0  0  0  0  0  0
  187.6920  177.2020  146.2500 C   0  0  0  0  0  3  0  0  0  0  0  0
  188.5510  176.1320  142.0890 C   0  0  0  0  0  2  0  0  0  0  0  0
  192.3570  173.4160  143.4460 C   0  0  1  0  0  3  0  0  0  0  0  0
  190.0850  173.3210  142.7030 N   0  0  0  0  0  0  0  0  0  0  0  0
  192.6910  173.1950  144.9140 C   0  0  2  0  0  3  0  0  0  0  0  0
  193.0750  172.0010  141.5310 C   0  0  0  0  0  1  0  0  0  0  0  0
  190.5930  174.2940  144.8850 C   0  0  2  0  0  3  0  0  0  0  0  0
  1 21  2  0  0  0  0
  1 16  1  0  0  0  0
  2  8  1  0  0  0  0
  3 17  2  0  0  0  0
  5 27  1  6  0  0  0
  5 24  1  0  0  0  0
  6  1  1  0  0  0  0
  8 14  1  0  0  0  0
  8  7  1  1  0  0  0
  9 18  1  0  0  0  0
  9 14  1  0  0  0  0
 10  8  1  0  0  0  0
 11 15  1  0  0  0  0
 12 24  1  0  0  0  0
 12 28  1  0  0  0  0
 13  9  2  0  0  0  0
 15 23  1  0  0  0  0
 15 19  1  0  0  0  0
 16 20  2  0  0  0  0
 17 25  1  0  0  0  0
 17  5  1  0  0  0  0
 19 25  1  0  0  0  0
 20  4  1  0  0  0  0
 21 22  1  0  0  0  0
 22  4  2  0  0  0  0
 23  6  1  0  0  0  0
 24 26  1  0  0  0  0
 25 12  1  0  0  0  0
 26 13  1  0  0  0  0
 26 10  1  0  0  0  0
 28 16  1  0  0  0  0
 28 10  1  0  0  0  0
M  END
>  <MODEL>
9

>  <REMARK>
 VINA RESULT:      -7.6      2.122      3.039
  Name = 
  0 active torsions:
  status: ('A' for Active; 'I' for Inactive)
                            x       y       z     vdW  Elec       q    Type
                         _______ _______ _______ _____ _____    ______ ____

>  <TORSDO>
F 0

$$$$
