=
 OpenBabel11112418093D

 34 38  0  0  1  0  0  0  0  0999 V2000
  188.0260  176.9200  145.9730 C   0  0  2  0  0  3  0  0  0  0  0  0
  190.3460  177.0540  146.6240 O   0  0  0  0  0  0  0  0  0  0  0  0
  185.6610  176.7390  145.1560 C   0  0  0  0  0  2  0  0  0  0  0  0
  189.9770  176.7140  144.3390 C   0  0  2  0  0  3  0  0  0  0  0  0
  191.5610  174.4940  142.9030 C   0  0  0  0  0  2  0  0  0  0  0  0
  188.9170  175.9090  143.5480 C   0  0  1  0  0  3  0  0  0  0  0  0
  190.8360  175.8570  146.3200 O   0  0  0  0  0  0  0  0  0  0  0  0
  191.2940  174.4730  144.4030 C   0  0  2  0  0  3  0  0  0  0  0  0
  187.0660  177.2260  144.8190 C   0  0  2  0  0  3  0  0  0  0  0  0
  187.5440  176.6220  143.4870 C   0  0  1  0  0  3  0  0  0  0  0  0
  186.1310  177.1390  147.5890 C   0  0  0  0  0  2  0  0  0  0  0  0
  190.2600  174.3010  142.1430 C   0  0  0  0  0  2  0  0  0  0  0  0
  185.1710  177.4170  146.4340 C   0  0  0  0  0  2  0  0  0  0  0  0
  189.4180  175.5660  142.1470 C   0  0  0  0  0  2  0  0  0  0  0  0
  191.1010  175.8950  144.9450 C   0  0  1  0  0  3  0  0  0  0  0  0
  187.5380  177.6200  147.2400 C   0  0  0  0  0  2  0  0  0  0  0  0
  189.4410  177.3740  145.5990 C   0  0  1  0  0  3  0  0  0  0  0  0
  187.3770  177.5000  142.3900 O   0  0  0  0  0  0  0  0  0  0  0  0
  186.1640  177.2030  141.7490 C   0  0  0  0  0  2  0  0  0  0  0  0
  185.7630  179.3860  142.6330 O   0  0  0  0  0  1  0  0  0  0  0  0
  185.2590  178.4220  141.7570 C   0  0  2  0  0  3  0  0  0  0  0  0
  183.8400  178.0200  142.1590 C   0  0  1  0  0  3  0  0  0  0  0  0
  183.4100  178.7780  143.2510 O   0  0  0  0  0  1  0  0  0  0  0  0
  182.8720  178.2020  141.0020 C   0  0  0  0  0  2  0  0  0  0  0  0
  181.4900  178.5620  141.5160 C   0  0  1  0  0  3  0  0  0  0  0  0
  180.9580  179.5840  140.7090 O   0  0  0  0  0  0  0  0  0  0  0  0
  180.4790  178.2840  140.4740 C   0  0  0  0  0  2  0  0  0  0  0  0
  192.4660  173.8110  145.1080 C   0  0  0  0  0  2  0  0  0  0  0  0
  193.7650  174.5130  144.7480 C   0  0  0  0  0  2  0  0  0  0  0  0
  194.5800  174.8020  146.0030 C   0  0  1  0  0  3  0  0  0  0  0  0
  196.0940  172.9480  145.6820 O   0  0  0  0  0  1  0  0  0  0  0  0
  196.0260  174.3320  145.8630 C   0  0  0  0  0  2  0  0  0  0  0  0
  194.4730  176.2560  146.4740 C   0  0  0  0  0  2  0  0  0  0  0  0
  194.3920  177.2470  145.3210 C   0  0  0  0  0  1  0  0  0  0  0  0
  1 16  1  1  0  0  0
  3 13  1  0  0  0  0
  4 15  1  0  0  0  0
  4 17  1  0  0  0  0
  5  8  1  0  0  0  0
  6  4  1  0  0  0  0
  7  2  1  0  0  0  0
  8 15  1  0  0  0  0
  8 28  1  0  0  0  0
  9  3  1  0  0  0  0
  9  1  1  0  0  0  0
 10  6  1  0  0  0  0
 10  9  1  0  0  0  0
 12 14  1  0  0  0  0
 12  5  1  0  0  0  0
 13 11  1  0  0  0  0
 14  6  1  0  0  0  0
 15  7  1  0  0  0  0
 16 11  1  0  0  0  0
 17  1  1  0  0  0  0
 17  2  1  0  0  0  0
 18 10  1  0  0  0  0
 19 21  1  0  0  0  0
 19 18  1  0  0  0  0
 21 22  1  0  0  0  0
 21 20  1  0  0  0  0
 22 23  1  0  0  0  0
 24 25  1  0  0  0  0
 24 22  1  0  0  0  0
 26 25  1  0  0  0  0
 27 26  1  0  0  0  0
 27 25  1  0  0  0  0
 29 28  1  0  0  0  0
 29 30  1  0  0  0  0
 30 33  1  0  0  0  0
 31 32  1  0  0  0  0
 32 30  1  0  0  0  0
 34 33  1  0  0  0  0
M  END
>  <MODEL>
1

>  <REMARK>
 VINA RESULT:      -7.0      0.000      0.000
  Name = 
  11 active torsions:
  status: ('A' for Active; 'I' for Inactive)
    1  A    between atoms: C_3  and  C_16
    2  A    between atoms: C_3  and  C_19
    3  A    between atoms: C_5  and  O_11
    4  A    between atoms: C_5  and  C_19
    5  A    between atoms: C_8  and  C_16
    6  A    between atoms: O_11  and  C_20
    7  A    between atoms: C_17  and  C_28
    8  A    between atoms: C_28  and  C_29
    9  A    between atoms: C_29  and  C_32
   10  A    between atoms: C_31  and  C_32
   11  A    between atoms: C_32  and  C_34
                            x       y       z     vdW  Elec       q    Type
                         _______ _______ _______ _____ _____    ______ ____

>  <TORSDO>
F 11

$$$$
=
 OpenBabel11112418093D

 34 38  0  0  1  0  0  0  0  0999 V2000
  191.3920  174.3850  142.9380 C   0  0  2  0  0  3  0  0  0  0  0  0
  190.2970  176.4730  142.4230 O   0  0  0  0  0  0  0  0  0  0  0  0
  192.4940  172.2380  143.6210 C   0  0  0  0  0  2  0  0  0  0  0  0
  190.5450  176.0220  144.7050 C   0  0  2  0  0  3  0  0  0  0  0  0
  188.1010  176.3650  146.5500 C   0  0  0  0  0  2  0  0  0  0  0  0
  190.4820  174.7180  145.5380 C   0  0  1  0  0  3  0  0  0  0  0  0
  189.0780  176.3330  142.9310 O   0  0  0  0  0  0  0  0  0  0  0  0
  187.9700  176.0980  145.0570 C   0  0  2  0  0  3  0  0  0  0  0  0
  192.2990  173.7080  143.9710 C   0  0  2  0  0  3  0  0  0  0  0  0
  191.7630  173.8580  145.4050 C   0  0  1  0  0  3  0  0  0  0  0  0
  192.2260  172.8050  141.1900 C   0  0  0  0  0  2  0  0  0  0  0  0
  188.6760  175.1440  147.2470 C   0  0  0  0  0  2  0  0  0  0  0  0
  193.1090  172.1140  142.2280 C   0  0  0  0  0  2  0  0  0  0  0  0
  190.1710  175.0140  147.0030 C   0  0  0  0  0  2  0  0  0  0  0  0
  189.2040  176.6040  144.3000 C   0  0  1  0  0  3  0  0  0  0  0  0
  192.0280  174.2750  141.5540 C   0  0  0  0  0  2  0  0  0  0  0  0
  191.1700  175.8500  143.3300 C   0  0  1  0  0  3  0  0  0  0  0  0
  192.7760  174.1510  146.3480 O   0  0  0  0  0  0  0  0  0  0  0  0
  193.9060  174.6320  145.6680 C   0  0  0  0  0  2  0  0  0  0  0  0
  193.3430  176.4380  147.1260 O   0  0  0  0  0  1  0  0  0  0  0  0
  194.2950  175.9970  146.2050 C   0  0  2  0  0  3  0  0  0  0  0  0
  194.4320  176.9950  145.0550 C   0  0  1  0  0  3  0  0  0  0  0  0
  195.3170  178.0190  145.4010 O   0  0  0  0  0  1  0  0  0  0  0  0
  194.9190  176.3080  143.7890 C   0  0  0  0  0  2  0  0  0  0  0  0
  196.3740  176.6490  143.5260 C   0  0  1  0  0  3  0  0  0  0  0  0
  197.1660  175.5270  143.8290 O   0  0  0  0  0  0  0  0  0  0  0  0
  196.9120  175.7670  142.4680 C   0  0  0  0  0  2  0  0  0  0  0  0
  186.7260  176.7960  144.5330 C   0  0  0  0  0  2  0  0  0  0  0  0
  186.7400  178.2650  144.9230 C   0  0  0  0  0  2  0  0  0  0  0  0
  185.3320  178.8470  144.8590 C   0  0  1  0  0  3  0  0  0  0  0  0
  185.1370  178.8280  142.4520 O   0  0  0  0  0  1  0  0  0  0  0  0
  184.5670  178.3510  143.6350 C   0  0  0  0  0  2  0  0  0  0  0  0
  184.5450  178.6740  146.1610 C   0  0  0  0  0  2  0  0  0  0  0  0
  185.4070  178.8510  147.4030 C   0  0  0  0  0  1  0  0  0  0  0  0
  1 16  1  6  0  0  0
  1 17  1  0  0  0  0
  1  9  1  0  0  0  0
  2  7  1  0  0  0  0
  2 17  1  0  0  0  0
  3  9  1  0  0  0  0
  4  6  1  0  0  0  0
  5 12  1  0  0  0  0
  6 14  1  0  0  0  0
  7 15  1  0  0  0  0
  8  5  1  0  0  0  0
  9 10  1  0  0  0  0
 10  6  1  0  0  0  0
 10 18  1  0  0  0  0
 11 16  1  0  0  0  0
 11 13  1  0  0  0  0
 13  3  1  0  0  0  0
 14 12  1  0  0  0  0
 15  4  1  0  0  0  0
 15  8  1  0  0  0  0
 17  4  1  0  0  0  0
 19 21  1  0  0  0  0
 19 18  1  0  0  0  0
 21 20  1  0  0  0  0
 22 23  1  0  0  0  0
 22 21  1  0  0  0  0
 24 22  1  0  0  0  0
 25 24  1  0  0  0  0
 25 26  1  0  0  0  0
 27 25  1  0  0  0  0
 27 26  1  0  0  0  0
 28 29  1  0  0  0  0
 28  8  1  0  0  0  0
 30 29  1  0  0  0  0
 30 33  1  0  0  0  0
 31 32  1  0  0  0  0
 32 30  1  0  0  0  0
 33 34  1  0  0  0  0
M  END
>  <MODEL>
2

>  <REMARK>
 VINA RESULT:      -6.9      2.129      9.175
  Name = 
  11 active torsions:
  status: ('A' for Active; 'I' for Inactive)
    1  A    between atoms: C_3  and  C_16
    2  A    between atoms: C_3  and  C_19
    3  A    between atoms: C_5  and  O_11
    4  A    between atoms: C_5  and  C_19
    5  A    between atoms: C_8  and  C_16
    6  A    between atoms: O_11  and  C_20
    7  A    between atoms: C_17  and  C_28
    8  A    between atoms: C_28  and  C_29
    9  A    between atoms: C_29  and  C_32
   10  A    between atoms: C_31  and  C_32
   11  A    between atoms: C_32  and  C_34
                            x       y       z     vdW  Elec       q    Type
                         _______ _______ _______ _____ _____    ______ ____

>  <TORSDO>
F 11

$$$$
=
 OpenBabel11112418093D

 34 38  0  0  1  0  0  0  0  0999 V2000
  189.3010  175.2120  142.8770 C   0  0  2  0  0  3  0  0  0  0  0  0
  189.9450  172.9690  143.4930 O   0  0  0  0  0  0  0  0  0  0  0  0
  188.7230  177.5950  142.3500 C   0  0  0  0  0  2  0  0  0  0  0  0
  190.6730  174.6440  144.9550 C   0  0  2  0  0  3  0  0  0  0  0  0
  193.6240  174.6460  145.8420 C   0  0  0  0  0  2  0  0  0  0  0  0
  191.1590  176.0980  144.7380 C   0  0  1  0  0  3  0  0  0  0  0  0
  191.2720  172.9870  143.4400 O   0  0  0  0  0  0  0  0  0  0  0  0
  193.1580  173.9980  144.5450 C   0  0  2  0  0  3  0  0  0  0  0  0
  188.9390  176.5790  143.4660 C   0  0  2  0  0  3  0  0  0  0  0  0
  189.9980  177.0840  144.4620 C   0  0  1  0  0  3  0  0  0  0  0  0
  187.9440  175.7420  140.8460 C   0  0  0  0  0  2  0  0  0  0  0  0
  193.4670  176.1540  145.7540 C   0  0  0  0  0  2  0  0  0  0  0  0
  187.6070  177.1160  141.4230 C   0  0  0  0  0  2  0  0  0  0  0  0
  192.0150  176.5740  145.9090 C   0  0  0  0  0  2  0  0  0  0  0  0
  191.6910  173.5620  144.6470 C   0  0  1  0  0  3  0  0  0  0  0  0
  188.1690  174.7330  141.9700 C   0  0  0  0  0  2  0  0  0  0  0  0
  189.5590  174.2150  144.0130 C   0  0  1  0  0  3  0  0  0  0  0  0
  189.4340  177.6780  145.6160 O   0  0  0  0  0  0  0  0  0  0  0  0
  188.0480  177.4520  145.6140 C   0  0  0  0  0  2  0  0  0  0  0  0
  188.0680  175.5830  147.1020 O   0  0  0  0  0  1  0  0  0  0  0  0
  187.6110  176.8950  146.9560 C   0  0  2  0  0  3  0  0  0  0  0  0
  186.0880  176.9490  147.0760 C   0  0  1  0  0  3  0  0  0  0  0  0
  185.7050  177.9470  147.9750 O   0  0  0  0  0  1  0  0  0  0  0  0
  185.4410  177.2070  145.7250 C   0  0  0  0  0  2  0  0  0  0  0  0
  184.5360  178.4220  145.7920 C   0  0  1  0  0  3  0  0  0  0  0  0
  185.1630  179.4940  145.1320 O   0  0  0  0  0  0  0  0  0  0  0  0
  184.1430  178.8320  144.4270 C   0  0  0  0  0  2  0  0  0  0  0  0
  194.0320  172.7900  144.2500 C   0  0  0  0  0  2  0  0  0  0  0  0
  194.0370  171.8390  145.4350 C   0  0  0  0  0  2  0  0  0  0  0  0
  195.4680  171.5200  145.8560 C   0  0  1  0  0  3  0  0  0  0  0  0
  195.3640  169.2960  146.7910 O   0  0  0  0  0  1  0  0  0  0  0  0
  195.7940  170.0380  145.6880 C   0  0  0  0  0  2  0  0  0  0  0  0
  196.5090  172.4330  145.2030 C   0  0  0  0  0  2  0  0  0  0  0  0
  197.0860  173.4590  146.1680 C   0  0  0  0  0  1  0  0  0  0  0  0
  1 16  1  6  0  0  0
  1  9  1  0  0  0  0
  1 17  1  0  0  0  0
  2 17  1  0  0  0  0
  3  9  1  0  0  0  0
  6  4  1  0  0  0  0
  6 14  1  0  0  0  0
  7  2  1  0  0  0  0
  7 15  1  0  0  0  0
  8 15  1  0  0  0  0
  8  5  1  0  0  0  0
  9 10  1  0  0  0  0
 10  6  1  0  0  0  0
 10 18  1  0  0  0  0
 11 13  1  0  0  0  0
 11 16  1  0  0  0  0
 12  5  1  0  0  0  0
 12 14  1  0  0  0  0
 13  3  1  0  0  0  0
 15  4  1  0  0  0  0
 17  4  1  0  0  0  0
 19 18  1  0  0  0  0
 19 21  1  0  0  0  0
 21 22  1  0  0  0  0
 21 20  1  0  0  0  0
 22 23  1  0  0  0  0
 24 25  1  0  0  0  0
 24 22  1  0  0  0  0
 26 25  1  0  0  0  0
 27 26  1  0  0  0  0
 27 25  1  0  0  0  0
 28  8  1  0  0  0  0
 28 29  1  0  0  0  0
 29 30  1  0  0  0  0
 32 30  1  0  0  0  0
 32 31  1  0  0  0  0
 33 30  1  0  0  0  0
 33 34  1  0  0  0  0
M  END
>  <MODEL>
3

>  <REMARK>
 VINA RESULT:      -6.8      2.347      4.513
  Name = 
  11 active torsions:
  status: ('A' for Active; 'I' for Inactive)
    1  A    between atoms: C_3  and  C_16
    2  A    between atoms: C_3  and  C_19
    3  A    between atoms: C_5  and  O_11
    4  A    between atoms: C_5  and  C_19
    5  A    between atoms: C_8  and  C_16
    6  A    between atoms: O_11  and  C_20
    7  A    between atoms: C_17  and  C_28
    8  A    between atoms: C_28  and  C_29
    9  A    between atoms: C_29  and  C_32
   10  A    between atoms: C_31  and  C_32
   11  A    between atoms: C_32  and  C_34
                            x       y       z     vdW  Elec       q    Type
                         _______ _______ _______ _____ _____    ______ ____

>  <TORSDO>
F 11

$$$$
=
 OpenBabel11112418093D

 34 38  0  0  1  0  0  0  0  0999 V2000
  189.6040  173.4100  142.5510 C   0  0  2  0  0  3  0  0  0  0  0  0
  190.5850  172.4630  144.5420 O   0  0  0  0  0  0  0  0  0  0  0  0
  188.5460  174.5170  140.5640 C   0  0  0  0  0  2  0  0  0  0  0  0
  189.3730  174.4360  144.8780 C   0  0  2  0  0  3  0  0  0  0  0  0
  190.6550  176.6890  146.5430 C   0  0  0  0  0  2  0  0  0  0  0  0
  189.1870  175.7190  144.0310 C   0  0  1  0  0  3  0  0  0  0  0  0
  191.4460  173.3890  144.9500 O   0  0  0  0  0  0  0  0  0  0  0  0
  191.4800  175.6370  145.8140 C   0  0  2  0  0  3  0  0  0  0  0  0
  188.4030  174.2200  142.0520 C   0  0  2  0  0  3  0  0  0  0  0  0
  188.2070  175.5220  142.8490 C   0  0  1  0  0  3  0  0  0  0  0  0
  189.8310  172.3790  140.2850 C   0  0  0  0  0  2  0  0  0  0  0  0
  189.9590  177.5900  145.5370 C   0  0  0  0  0  2  0  0  0  0  0  0
  188.6500  173.2080  139.7830 C   0  0  0  0  0  2  0  0  0  0  0  0
  188.7630  176.8980  144.9030 C   0  0  0  0  0  2  0  0  0  0  0  0
  190.6810  174.3390  145.6390 C   0  0  1  0  0  3  0  0  0  0  0  0
  189.6850  172.0940  141.7780 C   0  0  0  0  0  2  0  0  0  0  0  0
  189.4660  173.1600  144.0570 C   0  0  1  0  0  3  0  0  0  0  0  0
  186.8510  175.7880  143.1500 O   0  0  0  0  0  0  0  0  0  0  0  0
  186.4140  176.8700  142.3680 C   0  0  0  0  0  2  0  0  0  0  0  0
  184.3950  178.0670  141.9240 O   0  0  0  0  0  1  0  0  0  0  0  0
  185.1230  177.4320  142.9330 C   0  0  2  0  0  3  0  0  0  0  0  0
  185.4270  178.4070  144.0700 C   0  0  1  0  0  3  0  0  0  0  0  0
  184.6580  179.5660  143.9390 O   0  0  0  0  0  1  0  0  0  0  0  0
  185.1590  177.7690  145.4240 C   0  0  0  0  0  2  0  0  0  0  0  0
  185.7350  178.6230  146.5380 C   0  0  1  0  0  3  0  0  0  0  0  0
  184.8610  178.5840  147.6390 O   0  0  0  0  0  0  0  0  0  0  0  0
  186.0120  177.7830  147.7220 C   0  0  0  0  0  2  0  0  0  0  0  0
  192.7450  175.3560  146.6100 C   0  0  0  0  0  2  0  0  0  0  0  0
  193.7930  176.4190  146.3260 C   0  0  0  0  0  2  0  0  0  0  0  0
  195.0040  175.8010  145.6350 C   0  0  1  0  0  3  0  0  0  0  0  0
  196.1570  173.7250  145.1980 O   0  0  0  0  0  1  0  0  0  0  0  0
  194.9620  174.2760  145.6690 C   0  0  0  0  0  2  0  0  0  0  0  0
  195.2470  176.3560  144.2290 C   0  0  0  0  0  2  0  0  0  0  0  0
  194.1530  175.9730  143.2430 C   0  0  0  0  0  1  0  0  0  0  0  0
  1 16  1  6  0  0  0
  1 17  1  0  0  0  0
  2  7  1  0  0  0  0
  3  9  1  0  0  0  0
  4 15  1  0  0  0  0
  6  4  1  0  0  0  0
  6 14  1  0  0  0  0
  7 15  1  0  0  0  0
  8  5  1  0  0  0  0
  8 28  1  0  0  0  0
  9  1  1  0  0  0  0
  9 10  1  0  0  0  0
 10 18  1  0  0  0  0
 10  6  1  0  0  0  0
 11 16  1  0  0  0  0
 12  5  1  0  0  0  0
 13 11  1  0  0  0  0
 13  3  1  0  0  0  0
 14 12  1  0  0  0  0
 15  8  1  0  0  0  0
 17  2  1  0  0  0  0
 17  4  1  0  0  0  0
 19 21  1  0  0  0  0
 19 18  1  0  0  0  0
 20 21  1  0  0  0  0
 21 22  1  0  0  0  0
 22 24  1  0  0  0  0
 23 22  1  0  0  0  0
 24 25  1  0  0  0  0
 25 26  1  0  0  0  0
 25 27  1  0  0  0  0
 26 27  1  0  0  0  0
 29 28  1  0  0  0  0
 30 32  1  0  0  0  0
 30 29  1  0  0  0  0
 31 32  1  0  0  0  0
 33 30  1  0  0  0  0
 34 33  1  0  0  0  0
M  END
>  <MODEL>
4

>  <REMARK>
 VINA RESULT:      -6.8      2.085      4.503
  Name = 
  11 active torsions:
  status: ('A' for Active; 'I' for Inactive)
    1  A    between atoms: C_3  and  C_16
    2  A    between atoms: C_3  and  C_19
    3  A    between atoms: C_5  and  O_11
    4  A    between atoms: C_5  and  C_19
    5  A    between atoms: C_8  and  C_16
    6  A    between atoms: O_11  and  C_20
    7  A    between atoms: C_17  and  C_28
    8  A    between atoms: C_28  and  C_29
    9  A    between atoms: C_29  and  C_32
   10  A    between atoms: C_31  and  C_32
   11  A    between atoms: C_32  and  C_34
                            x       y       z     vdW  Elec       q    Type
                         _______ _______ _______ _____ _____    ______ ____

>  <TORSDO>
F 11

$$$$
=
 OpenBabel11112418093D

 34 38  0  0  1  0  0  0  0  0999 V2000
  192.2020  175.5890  145.4480 C   0  0  2  0  0  3  0  0  0  0  0  0
  190.3990  174.8890  146.8910 O   0  0  0  0  0  0  0  0  0  0  0  0
  193.9750  176.3210  143.8310 C   0  0  0  0  0  2  0  0  0  0  0  0
  189.8690  174.9720  144.6140 C   0  0  2  0  0  3  0  0  0  0  0  0
  187.2740  176.3950  143.7560 C   0  0  0  0  0  2  0  0  0  0  0  0
  190.2900  175.9200  143.4650 C   0  0  1  0  0  3  0  0  0  0  0  0
  189.4770  175.8320  146.7370 O   0  0  0  0  0  0  0  0  0  0  0  0
  187.9950  176.7180  145.0580 C   0  0  2  0  0  3  0  0  0  0  0  0
  192.7760  175.4030  144.0390 C   0  0  2  0  0  3  0  0  0  0  0  0
  191.7200  175.6340  142.9440 C   0  0  1  0  0  3  0  0  0  0  0  0
  194.4830  176.1740  146.2850 C   0  0  0  0  0  2  0  0  0  0  0  0
  188.1170  176.8400  142.5730 C   0  0  0  0  0  2  0  0  0  0  0  0
  195.0480  176.0150  144.8740 C   0  0  0  0  0  2  0  0  0  0  0  0
  189.2760  175.8880  142.3240 C   0  0  0  0  0  2  0  0  0  0  0  0
  188.8040  175.5120  145.5500 C   0  0  1  0  0  3  0  0  0  0  0  0
  193.2760  175.2590  146.4820 C   0  0  0  0  0  2  0  0  0  0  0  0
  190.9710  174.6930  145.6230 C   0  0  1  0  0  3  0  0  0  0  0  0
  191.7930  174.6870  141.8960 O   0  0  0  0  0  0  0  0  0  0  0  0
  192.2010  173.4520  142.4240 C   0  0  0  0  0  2  0  0  0  0  0  0
  190.9550  171.7450  143.5380 O   0  0  0  0  0  1  0  0  0  0  0  0
  191.0670  172.4480  142.3360 C   0  0  2  0  0  3  0  0  0  0  0  0
  191.3050  171.4870  141.1720 C   0  0  1  0  0  3  0  0  0  0  0  0
  190.9910  170.1780  141.5470 O   0  0  0  0  0  1  0  0  0  0  0  0
  190.4770  171.8810  139.9590 C   0  0  0  0  0  2  0  0  0  0  0  0
  189.2250  172.6220  140.3880 C   0  0  1  0  0  3  0  0  0  0  0  0
  189.0820  173.7710  139.5890 O   0  0  0  0  0  0  0  0  0  0  0  0
  188.2640  172.6750  139.2650 C   0  0  0  0  0  2  0  0  0  0  0  0
  186.9700  177.1120  146.1100 C   0  0  0  0  0  2  0  0  0  0  0  0
  185.5650  176.8100  145.6180 C   0  0  0  0  0  2  0  0  0  0  0  0
  184.6880  178.0540  145.7130 C   0  0  1  0  0  3  0  0  0  0  0  0
  184.8330  178.6180  148.0560 O   0  0  0  0  0  1  0  0  0  0  0  0
  185.1960  179.0290  146.7710 C   0  0  0  0  0  2  0  0  0  0  0  0
  184.4410  178.7260  144.3580 C   0  0  0  0  0  2  0  0  0  0  0  0
  185.4160  179.8600  144.0730 C   0  0  0  0  0  1  0  0  0  0  0  0
  1 17  1  0  0  0  0
  1 16  1  1  0  0  0
  3  9  1  0  0  0  0
  3 13  1  0  0  0  0
  4 15  1  0  0  0  0
  4 17  1  0  0  0  0
  5  8  1  0  0  0  0
  6  4  1  0  0  0  0
  7  2  1  0  0  0  0
  8 15  1  0  0  0  0
  8 28  1  0  0  0  0
  9  1  1  0  0  0  0
 10  6  1  0  0  0  0
 10  9  1  0  0  0  0
 11 16  1  0  0  0  0
 12  5  1  0  0  0  0
 13 11  1  0  0  0  0
 14 12  1  0  0  0  0
 14  6  1  0  0  0  0
 15  7  1  0  0  0  0
 17  2  1  0  0  0  0
 18 19  1  0  0  0  0
 18 10  1  0  0  0  0
 21 19  1  0  0  0  0
 21 20  1  0  0  0  0
 22 23  1  0  0  0  0
 22 21  1  0  0  0  0
 24 25  1  0  0  0  0
 24 22  1  0  0  0  0
 26 25  1  0  0  0  0
 27 26  1  0  0  0  0
 27 25  1  0  0  0  0
 29 30  1  0  0  0  0
 29 28  1  0  0  0  0
 30 32  1  0  0  0  0
 32 31  1  0  0  0  0
 33 30  1  0  0  0  0
 34 33  1  0  0  0  0
M  END
>  <MODEL>
5

>  <REMARK>
 VINA RESULT:      -6.8      2.987      7.715
  Name = 
  11 active torsions:
  status: ('A' for Active; 'I' for Inactive)
    1  A    between atoms: C_3  and  C_16
    2  A    between atoms: C_3  and  C_19
    3  A    between atoms: C_5  and  O_11
    4  A    between atoms: C_5  and  C_19
    5  A    between atoms: C_8  and  C_16
    6  A    between atoms: O_11  and  C_20
    7  A    between atoms: C_17  and  C_28
    8  A    between atoms: C_28  and  C_29
    9  A    between atoms: C_29  and  C_32
   10  A    between atoms: C_31  and  C_32
   11  A    between atoms: C_32  and  C_34
                            x       y       z     vdW  Elec       q    Type
                         _______ _______ _______ _____ _____    ______ ____

>  <TORSDO>
F 11

$$$$
=
 OpenBabel11112418093D

 34 38  0  0  1  0  0  0  0  0999 V2000
  189.7790  174.6330  143.1950 C   0  0  2  0  0  3  0  0  0  0  0  0
  189.3510  176.7960  142.2140 O   0  0  0  0  0  0  0  0  0  0  0  0
  190.1820  172.4430  144.3500 C   0  0  0  0  0  2  0  0  0  0  0  0
  189.2440  176.7300  144.5500 C   0  0  2  0  0  3  0  0  0  0  0  0
  186.8190  178.0150  145.9530 C   0  0  0  0  0  2  0  0  0  0  0  0
  188.7470  175.6620  145.5560 C   0  0  1  0  0  3  0  0  0  0  0  0
  188.0960  177.0650  142.5580 O   0  0  0  0  0  0  0  0  0  0  0  0
  186.7660  177.5160  144.5150 C   0  0  2  0  0  3  0  0  0  0  0  0
  190.3630  173.9540  144.4380 C   0  0  2  0  0  3  0  0  0  0  0  0
  189.7510  174.4990  145.7410 C   0  0  1  0  0  3  0  0  0  0  0  0
  190.3160  172.5970  141.8480 C   0  0  0  0  0  2  0  0  0  0  0  0
  186.9690  176.8390  146.9030 C   0  0  0  0  0  2  0  0  0  0  0  0
  190.8720  171.9120  143.0950 C   0  0  0  0  0  2  0  0  0  0  0  0
  188.3880  176.2940  146.8980 C   0  0  0  0  0  2  0  0  0  0  0  0
  188.1590  177.5450  143.8730 C   0  0  1  0  0  3  0  0  0  0  0  0
  190.4920  174.1110  141.9490 C   0  0  0  0  0  2  0  0  0  0  0  0
  189.9290  176.1530  143.3210 C   0  0  1  0  0  3  0  0  0  0  0  0
  190.7100  174.6970  146.7620 O   0  0  0  0  0  0  0  0  0  0  0  0
  191.9830  174.8010  146.1790 C   0  0  0  0  0  2  0  0  0  0  0  0
  191.8480  176.7790  147.5120 O   0  0  0  0  0  1  0  0  0  0  0  0
  192.7210  175.9980  146.7510 C   0  0  2  0  0  3  0  0  0  0  0  0
  193.3350  176.8250  145.6220 C   0  0  1  0  0  3  0  0  0  0  0  0
  194.5650  177.3560  146.0200 O   0  0  0  0  0  1  0  0  0  0  0  0
  193.5260  175.9850  144.3690 C   0  0  0  0  0  2  0  0  0  0  0  0
  195.0020  175.7800  144.0860 C   0  0  1  0  0  3  0  0  0  0  0  0
  195.3750  174.4970  144.5260 O   0  0  0  0  0  0  0  0  0  0  0  0
  195.1800  174.6550  143.1430 C   0  0  0  0  0  2  0  0  0  0  0  0
  185.8160  178.3950  143.7170 C   0  0  0  0  0  2  0  0  0  0  0  0
  184.8170  177.5390  142.9570 C   0  0  0  0  0  2  0  0  0  0  0  0
  184.1350  178.3580  141.8660 C   0  0  1  0  0  3  0  0  0  0  0  0
  185.9480  178.2890  140.2730 O   0  0  0  0  0  1  0  0  0  0  0  0
  184.6060  177.9540  140.4720 C   0  0  0  0  0  2  0  0  0  0  0  0
  182.6090  178.3820  141.9920 C   0  0  0  0  0  2  0  0  0  0  0  0
  181.9020  178.2300  140.6530 C   0  0  0  0  0  1  0  0  0  0  0  0
  1 16  1  6  0  0  0
  1 17  1  0  0  0  0
  1  9  1  0  0  0  0
  2  7  1  0  0  0  0
  2 17  1  0  0  0  0
  3  9  1  0  0  0  0
  4  6  1  0  0  0  0
  5 12  1  0  0  0  0
  6 10  1  0  0  0  0
  6 14  1  0  0  0  0
  7 15  1  0  0  0  0
  8  5  1  0  0  0  0
  9 10  1  0  0  0  0
 10 18  1  0  0  0  0
 11 16  1  0  0  0  0
 11 13  1  0  0  0  0
 13  3  1  0  0  0  0
 14 12  1  0  0  0  0
 15  8  1  0  0  0  0
 15  4  1  0  0  0  0
 17  4  1  0  0  0  0
 19 21  1  0  0  0  0
 19 18  1  0  0  0  0
 21 20  1  0  0  0  0
 22 23  1  0  0  0  0
 22 21  1  0  0  0  0
 24 22  1  0  0  0  0
 25 24  1  0  0  0  0
 25 26  1  0  0  0  0
 27 25  1  0  0  0  0
 27 26  1  0  0  0  0
 28  8  1  0  0  0  0
 29 28  1  0  0  0  0
 30 33  1  0  0  0  0
 30 29  1  0  0  0  0
 31 32  1  0  0  0  0
 32 30  1  0  0  0  0
 34 33  1  0  0  0  0
M  END
>  <MODEL>
6

>  <REMARK>
 VINA RESULT:      -6.8      1.803      9.023
  Name = 
  11 active torsions:
  status: ('A' for Active; 'I' for Inactive)
    1  A    between atoms: C_3  and  C_16
    2  A    between atoms: C_3  and  C_19
    3  A    between atoms: C_5  and  O_11
    4  A    between atoms: C_5  and  C_19
    5  A    between atoms: C_8  and  C_16
    6  A    between atoms: O_11  and  C_20
    7  A    between atoms: C_17  and  C_28
    8  A    between atoms: C_28  and  C_29
    9  A    between atoms: C_29  and  C_32
   10  A    between atoms: C_31  and  C_32
   11  A    between atoms: C_32  and  C_34
                            x       y       z     vdW  Elec       q    Type
                         _______ _______ _______ _____ _____    ______ ____

>  <TORSDO>
F 11

$$$$
=
 OpenBabel11112418093D

 34 38  0  0  1  0  0  0  0  0999 V2000
  189.3180  174.9140  143.0760 C   0  0  2  0  0  3  0  0  0  0  0  0
  190.2120  172.8060  143.8380 O   0  0  0  0  0  0  0  0  0  0  0  0
  188.4540  177.1720  142.4070 C   0  0  0  0  0  2  0  0  0  0  0  0
  190.4520  174.5830  145.3400 C   0  0  2  0  0  3  0  0  0  0  0  0
  193.2090  175.0590  146.6320 C   0  0  0  0  0  2  0  0  0  0  0  0
  190.7300  176.0950  145.1530 C   0  0  1  0  0  3  0  0  0  0  0  0
  191.5130  173.0350  143.9700 O   0  0  0  0  0  0  0  0  0  0  0  0
  193.0400  174.3390  145.3010 C   0  0  2  0  0  3  0  0  0  0  0  0
  188.6660  176.2100  143.5700 C   0  0  2  0  0  3  0  0  0  0  0  0
  189.4790  176.8820  144.6900 C   0  0  1  0  0  3  0  0  0  0  0  0
  188.1990  175.2120  140.8610 C   0  0  0  0  0  2  0  0  0  0  0  0
  192.8320  176.5230  146.4800 C   0  0  0  0  0  2  0  0  0  0  0  0
  187.5710  176.5170  141.3470 C   0  0  0  0  0  2  0  0  0  0  0  0
  191.3240  176.7070  146.4180 C   0  0  0  0  0  2  0  0  0  0  0  0
  191.6610  173.6760  145.2080 C   0  0  1  0  0  3  0  0  0  0  0  0
  188.4170  174.2570  142.0330 C   0  0  0  0  0  2  0  0  0  0  0  0
  189.5650  173.9780  144.2640 C   0  0  1  0  0  3  0  0  0  0  0  0
  188.6710  177.3840  145.7370 O   0  0  0  0  0  0  0  0  0  0  0  0
  187.4250  176.7380  145.7010 C   0  0  0  0  0  2  0  0  0  0  0  0
  186.2910  176.5370  147.7940 O   0  0  0  0  0  1  0  0  0  0  0  0
  186.4770  177.3810  146.6960 C   0  0  2  0  0  3  0  0  0  0  0  0
  185.1400  177.6900  146.0240 C   0  0  1  0  0  3  0  0  0  0  0  0
  184.7820  179.0230  146.2400 O   0  0  0  0  0  1  0  0  0  0  0  0
  185.2030  177.4170  144.5300 C   0  0  0  0  0  2  0  0  0  0  0  0
  184.4990  178.5170  143.7580 C   0  0  1  0  0  3  0  0  0  0  0  0
  185.3690  179.0020  142.7640 O   0  0  0  0  0  0  0  0  0  0  0  0
  184.3570  178.1230  142.3400 C   0  0  0  0  0  2  0  0  0  0  0  0
  194.1260  173.2840  145.1640 C   0  0  0  0  0  2  0  0  0  0  0  0
  194.9240  173.5100  143.8910 C   0  0  0  0  0  2  0  0  0  0  0  0
  194.9070  174.9850  143.5050 C   0  0  1  0  0  3  0  0  0  0  0  0
  197.2280  174.7510  144.1320 O   0  0  0  0  0  1  0  0  0  0  0  0
  196.2210  175.6790  143.8540 C   0  0  0  0  0  2  0  0  0  0  0  0
  194.4750  175.2280  142.0560 C   0  0  0  0  0  2  0  0  0  0  0  0
  192.9710  175.4040  141.9080 C   0  0  0  0  0  1  0  0  0  0  0  0
  1 16  1  6  0  0  0
  1  9  1  0  0  0  0
  1 17  1  0  0  0  0
  2  7  1  0  0  0  0
  2 17  1  0  0  0  0
  3  9  1  0  0  0  0
  6  4  1  0  0  0  0
  6 14  1  0  0  0  0
  7 15  1  0  0  0  0
  8  5  1  0  0  0  0
  9 10  1  0  0  0  0
 10  6  1  0  0  0  0
 10 18  1  0  0  0  0
 11 13  1  0  0  0  0
 11 16  1  0  0  0  0
 12  5  1  0  0  0  0
 13  3  1  0  0  0  0
 14 12  1  0  0  0  0
 15  8  1  0  0  0  0
 15  4  1  0  0  0  0
 17  4  1  0  0  0  0
 19 18  1  0  0  0  0
 19 21  1  0  0  0  0
 21 20  1  0  0  0  0
 22 23  1  0  0  0  0
 22 21  1  0  0  0  0
 24 22  1  0  0  0  0
 25 24  1  0  0  0  0
 26 25  1  0  0  0  0
 27 26  1  0  0  0  0
 27 25  1  0  0  0  0
 28  8  1  0  0  0  0
 29 28  1  0  0  0  0
 30 32  1  0  0  0  0
 30 29  1  0  0  0  0
 32 31  1  0  0  0  0
 33 30  1  0  0  0  0
 34 33  1  0  0  0  0
M  END
>  <MODEL>
7

>  <REMARK>
 VINA RESULT:      -6.7      1.948      4.085
  Name = 
  11 active torsions:
  status: ('A' for Active; 'I' for Inactive)
    1  A    between atoms: C_3  and  C_16
    2  A    between atoms: C_3  and  C_19
    3  A    between atoms: C_5  and  O_11
    4  A    between atoms: C_5  and  C_19
    5  A    between atoms: C_8  and  C_16
    6  A    between atoms: O_11  and  C_20
    7  A    between atoms: C_17  and  C_28
    8  A    between atoms: C_28  and  C_29
    9  A    between atoms: C_29  and  C_32
   10  A    between atoms: C_31  and  C_32
   11  A    between atoms: C_32  and  C_34
                            x       y       z     vdW  Elec       q    Type
                         _______ _______ _______ _____ _____    ______ ____

>  <TORSDO>
F 11

$$$$
=
 OpenBabel11112418093D

 34 38  0  0  1  0  0  0  0  0999 V2000
  191.7660  175.3250  145.5620 C   0  0  2  0  0  3  0  0  0  0  0  0
  189.9230  176.3790  146.7090 O   0  0  0  0  0  0  0  0  0  0  0  0
  193.5820  174.1780  144.2660 C   0  0  0  0  0  2  0  0  0  0  0  0
  189.3140  174.9530  144.9570 C   0  0  2  0  0  3  0  0  0  0  0  0
  187.2710  175.9600  142.8800 C   0  0  0  0  0  2  0  0  0  0  0  0
  189.9500  174.6390  143.5810 C   0  0  1  0  0  3  0  0  0  0  0  0
  189.3470  177.1280  145.7760 O   0  0  0  0  0  0  0  0  0  0  0  0
  188.1330  176.9040  143.7070 C   0  0  2  0  0  3  0  0  0  0  0  0
  192.1650  174.0490  144.8140 C   0  0  2  0  0  3  0  0  0  0  0  0
  191.1770  173.7020  143.6870 C   0  0  1  0  0  3  0  0  0  0  0  0
  194.1600  175.6930  146.1820 C   0  0  0  0  0  2  0  0  0  0  0  0
  188.1410  175.1820  141.9080 C   0  0  0  0  0  2  0  0  0  0  0  0
  194.5580  174.4350  145.4120 C   0  0  0  0  0  2  0  0  0  0  0  0
  188.9140  174.0770  142.6100 C   0  0  0  0  0  2  0  0  0  0  0  0
  188.5380  176.2550  145.0370 C   0  0  1  0  0  3  0  0  0  0  0  0
  192.7360  175.5600  146.7190 C   0  0  0  0  0  2  0  0  0  0  0  0
  190.3250  175.1970  146.0660 C   0  0  1  0  0  3  0  0  0  0  0  0
  190.8780  172.3210  143.6180 O   0  0  0  0  0  0  0  0  0  0  0  0
  191.5510  171.7630  142.5190 C   0  0  0  0  0  2  0  0  0  0  0  0
  190.5540  169.6780  141.9140 O   0  0  0  0  0  1  0  0  0  0  0  0
  190.5660  171.0420  141.6170 C   0  0  2  0  0  3  0  0  0  0  0  0
  190.9320  171.2700  140.1510 C   0  0  1  0  0  3  0  0  0  0  0  0
  190.4590  170.2190  139.3610 O   0  0  0  0  0  1  0  0  0  0  0  0
  190.3620  172.5840  139.6420 C   0  0  0  0  0  2  0  0  0  0  0  0
  189.1630  172.3330  138.7470 C   0  0  1  0  0  3  0  0  0  0  0  0
  187.9910  172.6500  139.4580 O   0  0  0  0  0  0  0  0  0  0  0  0
  188.4330  173.5980  138.5190 C   0  0  0  0  0  2  0  0  0  0  0  0
  187.3550  178.1820  143.9780 C   0  0  0  0  0  2  0  0  0  0  0  0
  185.8680  177.8840  144.0760 C   0  0  0  0  0  2  0  0  0  0  0  0
  185.3450  178.2350  145.4650 C   0  0  1  0  0  3  0  0  0  0  0  0
  183.7380  179.3910  144.0820 O   0  0  0  0  0  1  0  0  0  0  0  0
  184.0510  179.0410  145.3980 C   0  0  0  0  0  2  0  0  0  0  0  0
  185.2420  177.0240  146.3970 C   0  0  0  0  0  2  0  0  0  0  0  0
  186.1090  177.1590  147.6410 C   0  0  0  0  0  1  0  0  0  0  0  0
  1 17  1  0  0  0  0
  1 16  1  1  0  0  0
  3  9  1  0  0  0  0
  3 13  1  0  0  0  0
  4 15  1  0  0  0  0
  4 17  1  0  0  0  0
  5  8  1  0  0  0  0
  6 10  1  0  0  0  0
  6  4  1  0  0  0  0
  7  2  1  0  0  0  0
  8 28  1  0  0  0  0
  8 15  1  0  0  0  0
  9  1  1  0  0  0  0
 10  9  1  0  0  0  0
 11 16  1  0  0  0  0
 12 14  1  0  0  0  0
 12  5  1  0  0  0  0
 13 11  1  0  0  0  0
 14  6  1  0  0  0  0
 15  7  1  0  0  0  0
 17  2  1  0  0  0  0
 18 10  1  0  0  0  0
 19 18  1  0  0  0  0
 21 20  1  0  0  0  0
 21 19  1  0  0  0  0
 22 21  1  0  0  0  0
 23 22  1  0  0  0  0
 24 22  1  0  0  0  0
 25 26  1  0  0  0  0
 25 24  1  0  0  0  0
 27 25  1  0  0  0  0
 27 26  1  0  0  0  0
 28 29  1  0  0  0  0
 29 30  1  0  0  0  0
 30 33  1  0  0  0  0
 31 32  1  0  0  0  0
 32 30  1  0  0  0  0
 33 34  1  0  0  0  0
M  END
>  <MODEL>
8

>  <REMARK>
 VINA RESULT:      -6.7      2.925      7.808
  Name = 
  11 active torsions:
  status: ('A' for Active; 'I' for Inactive)
    1  A    between atoms: C_3  and  C_16
    2  A    between atoms: C_3  and  C_19
    3  A    between atoms: C_5  and  O_11
    4  A    between atoms: C_5  and  C_19
    5  A    between atoms: C_8  and  C_16
    6  A    between atoms: O_11  and  C_20
    7  A    between atoms: C_17  and  C_28
    8  A    between atoms: C_28  and  C_29
    9  A    between atoms: C_29  and  C_32
   10  A    between atoms: C_31  and  C_32
   11  A    between atoms: C_32  and  C_34
                            x       y       z     vdW  Elec       q    Type
                         _______ _______ _______ _____ _____    ______ ____

>  <TORSDO>
F 11

$$$$
=
 OpenBabel11112418093D

 34 38  0  0  1  0  0  0  0  0999 V2000
  192.1200  175.8430  145.8800 C   0  0  2  0  0  3  0  0  0  0  0  0
  194.1500  177.1500  145.8660 O   0  0  0  0  0  0  0  0  0  0  0  0
  190.0350  174.4570  145.7450 C   0  0  0  0  0  2  0  0  0  0  0  0
  193.4230  176.4280  143.7630 C   0  0  2  0  0  3  0  0  0  0  0  0
  195.4650  175.1050  141.8710 C   0  0  0  0  0  2  0  0  0  0  0  0
  192.7360  175.1310  143.2700 C   0  0  1  0  0  3  0  0  0  0  0  0
  195.0690  176.3130  145.3980 O   0  0  0  0  0  0  0  0  0  0  0  0
  195.6390  175.1220  143.3840 C   0  0  2  0  0  3  0  0  0  0  0  0
  190.8750  175.5210  145.0480 C   0  0  2  0  0  3  0  0  0  0  0  0
  191.2270  175.0820  143.6160 C   0  0  1  0  0  3  0  0  0  0  0  0
  190.8540  175.2960  147.9640 C   0  0  0  0  0  2  0  0  0  0  0  0
  194.2840  174.2270  141.4950 C   0  0  0  0  0  2  0  0  0  0  0  0
  189.6210  174.9490  147.1310 C   0  0  0  0  0  2  0  0  0  0  0  0
  192.9610  174.9210  141.7750 C   0  0  0  0  0  2  0  0  0  0  0  0
  194.9170  176.3240  144.0050 C   0  0  1  0  0  3  0  0  0  0  0  0
  191.6950  176.3550  147.2550 C   0  0  0  0  0  2  0  0  0  0  0  0
  192.9760  176.8800  145.1430 C   0  0  1  0  0  3  0  0  0  0  0  0
  190.3740  175.6440  142.6380 O   0  0  0  0  0  0  0  0  0  0  0  0
  189.9150  176.8900  143.0960 C   0  0  0  0  0  2  0  0  0  0  0  0
  188.1880  177.6230  141.6170 O   0  0  0  0  0  1  0  0  0  0  0  0
  188.4220  177.0160  142.8530 C   0  0  2  0  0  3  0  0  0  0  0  0
  187.7730  177.8210  143.9780 C   0  0  1  0  0  3  0  0  0  0  0  0
  186.7690  178.6490  143.4680 O   0  0  0  0  0  1  0  0  0  0  0  0
  187.1850  176.9040  145.0380 C   0  0  0  0  0  2  0  0  0  0  0  0
  186.2140  177.6650  145.9210 C   0  0  1  0  0  3  0  0  0  0  0  0
  185.1920  176.7900  146.3320 O   0  0  0  0  0  0  0  0  0  0  0  0
  186.1960  177.0720  147.2750 C   0  0  0  0  0  2  0  0  0  0  0  0
  197.1220  175.1890  143.7140 C   0  0  0  0  0  2  0  0  0  0  0  0
  197.4780  174.1430  144.7580 C   0  0  0  0  0  2  0  0  0  0  0  0
  196.6390  172.8860  144.5600 C   0  0  1  0  0  3  0  0  0  0  0  0
  197.5930  170.7490  145.1580 O   0  0  0  0  0  1  0  0  0  0  0  0
  197.4910  171.6940  144.1330 C   0  0  0  0  0  2  0  0  0  0  0  0
  195.7320  172.5680  145.7540 C   0  0  0  0  0  2  0  0  0  0  0  0
  194.2590  172.5000  145.3770 C   0  0  0  0  0  1  0  0  0  0  0  0
  1 16  1  1  0  0  0
  3 13  1  0  0  0  0
  4 15  1  0  0  0  0
  4 17  1  0  0  0  0
  5  8  1  0  0  0  0
  6 10  1  0  0  0  0
  6  4  1  0  0  0  0
  7  2  1  0  0  0  0
  8 28  1  0  0  0  0
  8 15  1  0  0  0  0
  9  3  1  0  0  0  0
  9  1  1  0  0  0  0
 10  9  1  0  0  0  0
 12 14  1  0  0  0  0
 12  5  1  0  0  0  0
 13 11  1  0  0  0  0
 14  6  1  0  0  0  0
 15  7  1  0  0  0  0
 16 11  1  0  0  0  0
 17  2  1  0  0  0  0
 17  1  1  0  0  0  0
 18 19  1  0  0  0  0
 18 10  1  0  0  0  0
 20 21  1  0  0  0  0
 21 19  1  0  0  0  0
 21 22  1  0  0  0  0
 22 24  1  0  0  0  0
 23 22  1  0  0  0  0
 24 25  1  0  0  0  0
 25 26  1  0  0  0  0
 25 27  1  0  0  0  0
 26 27  1  0  0  0  0
 28 29  1  0  0  0  0
 30 29  1  0  0  0  0
 30 33  1  0  0  0  0
 32 30  1  0  0  0  0
 32 31  1  0  0  0  0
 34 33  1  0  0  0  0
M  END
>  <MODEL>
9

>  <REMARK>
 VINA RESULT:      -6.7      3.059      4.569
  Name = 
  11 active torsions:
  status: ('A' for Active; 'I' for Inactive)
    1  A    between atoms: C_3  and  C_16
    2  A    between atoms: C_3  and  C_19
    3  A    between atoms: C_5  and  O_11
    4  A    between atoms: C_5  and  C_19
    5  A    between atoms: C_8  and  C_16
    6  A    between atoms: O_11  and  C_20
    7  A    between atoms: C_17  and  C_28
    8  A    between atoms: C_28  and  C_29
    9  A    between atoms: C_29  and  C_32
   10  A    between atoms: C_31  and  C_32
   11  A    between atoms: C_32  and  C_34
                            x       y       z     vdW  Elec       q    Type
                         _______ _______ _______ _____ _____    ______ ____

>  <TORSDO>
F 11

$$$$
