=
 OpenBabel11112417593D

 34 40  0  0  1  0  0  0  0  0999 V2000
  190.1140  176.7390  146.4040 C   0  0  0  0  0  0  0  0  0  0  0  0
  187.5200  176.9610  146.8190 C   0  0  0  0  0  2  0  0  0  0  0  0
  195.5460  176.2880  142.5860 C   0  0  2  0  0  3  0  0  0  0  0  0
  192.4810  176.4570  145.8450 C   0  0  0  0  0  0  0  0  0  0  0  0
  193.1100  176.1850  143.5050 C   0  0  0  0  0  0  0  0  0  0  0  0
  193.6710  175.5220  141.3010 O   0  0  0  0  0  0  0  0  0  0  0  0
  196.2630  176.5160  141.2650 C   0  0  0  0  0  1  0  0  0  0  0  0
  195.5830  174.8980  144.7290 C   0  0  0  0  0  2  0  0  0  0  0  0
  188.4020  176.7040  144.6730 C   0  0  0  0  0  0  0  0  0  0  0  0
  186.6510  176.9040  141.9450 C   0  0  0  0  0  2  0  0  0  0  0  0
  191.7920  176.2700  143.1680 N   0  0  0  0  0  0  0  0  0  0  0  0
  194.9230  176.1360  145.3290 C   0  0  0  0  0  2  0  0  0  0  0  0
  189.4240  176.5440  143.6590 N   0  0  0  0  0  0  0  0  0  0  0  0
  186.3700  177.1050  145.8230 C   0  0  0  0  0  2  0  0  0  0  0  0
  193.4870  176.2610  144.8770 C   0  0  0  0  0  0  0  0  0  0  0  0
  196.2640  175.2090  143.3930 C   0  0  0  0  0  2  0  0  0  0  0  0
  186.5170  177.6110  143.3030 C   0  0  2  0  0  3  0  0  0  0  0  0
  191.1300  176.5470  145.4450 C   0  0  0  0  0  0  0  0  0  0  0  0
  194.0840  175.9780  142.4040 C   0  0  0  0  0  0  0  0  0  0  0  0
  190.8020  176.4470  144.0820 C   0  0  0  0  0  0  0  0  0  0  0  0
  191.7820  176.7540  148.1620 C   0  0  0  0  0  3  0  0  0  0  0  0
  187.8820  176.0100  141.8080 C   0  0  0  0  0  2  0  0  0  0  0  0
  192.7910  176.5620  147.2130 C   0  0  0  0  0  3  0  0  0  0  0  0
  189.1420  176.7410  142.2350 C   0  0  0  0  0  2  0  0  0  0  0  0
  186.9240  176.6800  144.4560 C   0  0  1  0  0  3  0  0  0  0  0  0
  190.4470  176.8420  147.7590 C   0  0  0  0  0  3  0  0  0  0  0  0
  188.7130  176.8100  145.9510 C   0  0  0  0  0  0  0  0  0  0  0  0
  185.0840  178.1140  143.4380 C   0  0  0  0  0  2  0  0  0  0  0  0
  184.2720  177.5090  142.4750 O   0  0  0  0  0  0  0  0  0  0  0  0
  182.4380  177.6920  139.9930 O   0  0  0  0  0  0  0  0  0  0  0  0
  182.1640  178.5420  142.1850 C   0  0  0  0  0  2  0  0  0  0  0  0
  183.6240  178.5690  141.8360 C   0  0  2  0  0  3  0  0  0  0  0  0
  181.4790  178.1990  140.8810 C   0  0  0  0  0  2  0  0  0  0  0  0
  183.6330  178.3320  140.3440 C   0  0  0  0  0  2  0  0  0  0  0  0
  1 26  1  0  0  0  0
  3  7  1  6  0  0  0
  3 16  1  0  0  0  0
  4 23  2  0  0  0  0
  5 15  2  0  0  0  0
  6 19  2  0  0  0  0
  8 12  1  0  0  0  0
  9 27  2  0  0  0  0
 10 17  1  0  0  0  0
 11  5  1  0  0  0  0
 11 20  2  0  0  0  0
 13 20  1  0  0  0  0
 13  9  1  0  0  0  0
 14  2  1  0  0  0  0
 15 12  1  0  0  0  0
 15  4  1  0  0  0  0
 16  8  1  0  0  0  0
 17 28  1  1  0  0  0
 17 25  1  0  0  0  0
 18  4  1  0  0  0  0
 18  1  2  0  0  0  0
 19  3  1  0  0  0  0
 19  5  1  0  0  0  0
 20 18  1  0  0  0  0
 22 10  1  0  0  0  0
 22 24  1  0  0  0  0
 23 21  1  0  0  0  0
 24 13  1  0  0  0  0
 25  9  1  0  0  0  0
 25 14  1  1  0  0  0
 26 21  2  0  0  0  0
 27  1  1  0  0  0  0
 27  2  1  0  0  0  0
 29 28  1  0  0  0  0
 30 34  1  0  0  0  0
 30 33  1  0  0  0  0
 32 31  1  0  0  0  0
 32 29  1  1  0  0  0
 33 31  1  0  0  0  0
 34 32  1  0  0  0  0
M  END
>  <MODEL>
1

>  <REMARK>
 VINA RESULT:      -9.1      0.000      0.000
  Name = 
  3 active torsions:
  status: ('A' for Active; 'I' for Inactive)
    1  A    between atoms: C_17  and  C_28
    2  A    between atoms: C_28  and  O_29
    3  A    between atoms: O_29  and  C_32
                            x       y       z     vdW  Elec       q    Type
                         _______ _______ _______ _____ _____    ______ ____

>  <TORSDO>
F 3

$$$$
=
 OpenBabel11112417593D

 34 40  0  0  1  0  0  0  0  0999 V2000
  192.1630  176.2160  145.6110 C   0  0  0  0  0  0  0  0  0  0  0  0
  189.7470  176.3150  146.6620 C   0  0  0  0  0  2  0  0  0  0  0  0
  196.4910  175.3620  140.6280 C   0  0  2  0  0  3  0  0  0  0  0  0
  194.3340  176.0070  144.4990 C   0  0  0  0  0  0  0  0  0  0  0  0
  194.3960  175.2710  142.1750 C   0  0  0  0  0  0  0  0  0  0  0  0
  194.4800  174.1800  140.0740 O   0  0  0  0  0  0  0  0  0  0  0  0
  196.8220  175.3460  139.1450 C   0  0  0  0  0  1  0  0  0  0  0  0
  197.2460  174.4940  142.9100 C   0  0  0  0  0  2  0  0  0  0  0  0
  190.0970  175.6570  144.4490 C   0  0  0  0  0  0  0  0  0  0  0  0
  187.7150  175.1010  142.3130 C   0  0  0  0  0  2  0  0  0  0  0  0
  193.0360  175.1720  142.1970 N   0  0  0  0  0  0  0  0  0  0  0  0
  196.5930  175.7770  143.4130 C   0  0  0  0  0  2  0  0  0  0  0  0
  190.8490  175.3570  143.2480 N   0  0  0  0  0  0  0  0  0  0  0  0
  188.3780  176.1400  146.0060 C   0  0  0  0  0  2  0  0  0  0  0  0
  195.0870  175.6810  143.3510 C   0  0  0  0  0  0  0  0  0  0  0  0
  197.5270  174.5520  141.4050 C   0  0  0  0  0  2  0  0  0  0  0  0
  187.8270  176.0800  143.4910 C   0  0  2  0  0  3  0  0  0  0  0  0
  192.9270  175.8970  144.4700 C   0  0  0  0  0  0  0  0  0  0  0  0
  195.0860  174.9030  140.9130 C   0  0  0  0  0  0  0  0  0  0  0  0
  192.2890  175.4680  143.2930 C   0  0  0  0  0  0  0  0  0  0  0  0
  194.1960  176.7570  146.8140 C   0  0  0  0  0  3  0  0  0  0  0  0
  188.9850  174.3010  142.0240 C   0  0  0  0  0  2  0  0  0  0  0  0
  194.9560  176.4400  145.6840 C   0  0  0  0  0  3  0  0  0  0  0  0
  190.2000  175.2080  141.9430 C   0  0  0  0  0  2  0  0  0  0  0  0
  188.6290  175.4660  144.6490 C   0  0  1  0  0  3  0  0  0  0  0  0
  192.8030  176.6450  146.7790 C   0  0  0  0  0  3  0  0  0  0  0  0
  190.6970  176.0710  145.5500 C   0  0  0  0  0  0  0  0  0  0  0  0
  186.4170  176.4830  143.9100 C   0  0  0  0  0  2  0  0  0  0  0  0
  186.1070  177.7440  143.3930 O   0  0  0  0  0  0  0  0  0  0  0  0
  183.9110  179.5900  144.5450 O   0  0  0  0  0  0  0  0  0  0  0  0
  185.2320  177.9230  145.5830 C   0  0  0  0  0  2  0  0  0  0  0  0
  186.0460  178.5830  144.5080 C   0  0  2  0  0  3  0  0  0  0  0  0
  183.9920  178.7820  145.6880 C   0  0  0  0  0  2  0  0  0  0  0  0
  185.2400  179.8130  144.1620 C   0  0  0  0  0  2  0  0  0  0  0  0
  1 26  1  0  0  0  0
  3  7  1  6  0  0  0
  3 19  1  0  0  0  0
  3 16  1  0  0  0  0
  4 23  2  0  0  0  0
  5 11  1  0  0  0  0
  5 15  2  0  0  0  0
  6 19  2  0  0  0  0
  8 12  1  0  0  0  0
  9 25  1  0  0  0  0
  9 27  2  0  0  0  0
 10 17  1  0  0  0  0
 11 20  2  0  0  0  0
 13 20  1  0  0  0  0
 13  9  1  0  0  0  0
 14  2  1  0  0  0  0
 15 12  1  0  0  0  0
 15  4  1  0  0  0  0
 16  8  1  0  0  0  0
 17 28  1  1  0  0  0
 17 25  1  0  0  0  0
 18  4  1  0  0  0  0
 18  1  2  0  0  0  0
 19  5  1  0  0  0  0
 20 18  1  0  0  0  0
 22 10  1  0  0  0  0
 23 21  1  0  0  0  0
 24 22  1  0  0  0  0
 24 13  1  0  0  0  0
 25 14  1  1  0  0  0
 26 21  2  0  0  0  0
 27  1  1  0  0  0  0
 27  2  1  0  0  0  0
 29 28  1  0  0  0  0
 30 33  1  0  0  0  0
 31 33  1  0  0  0  0
 32 29  1  6  0  0  0
 32 31  1  0  0  0  0
 34 32  1  0  0  0  0
 34 30  1  0  0  0  0
M  END
>  <MODEL>
2

>  <REMARK>
 VINA RESULT:      -8.7      2.070      2.736
  Name = 
  3 active torsions:
  status: ('A' for Active; 'I' for Inactive)
    1  A    between atoms: C_17  and  C_28
    2  A    between atoms: C_28  and  O_29
    3  A    between atoms: O_29  and  C_32
                            x       y       z     vdW  Elec       q    Type
                         _______ _______ _______ _____ _____    ______ ____

>  <TORSDO>
F 3

$$$$
=
 OpenBabel11112417593D

 34 40  0  0  1  0  0  0  0  0999 V2000
  187.3580  176.1700  140.9280 C   0  0  0  0  0  0  0  0  0  0  0  0
  188.4990  174.5110  139.2270 C   0  0  0  0  0  2  0  0  0  0  0  0
  186.3000  178.7540  146.9690 C   0  0  2  0  0  3  0  0  0  0  0  0
  186.3360  177.5820  142.6480 C   0  0  0  0  0  0  0  0  0  0  0  0
  186.8920  177.1700  144.9870 C   0  0  0  0  0  0  0  0  0  0  0  0
  187.1140  176.5170  147.2530 O   0  0  0  0  0  0  0  0  0  0  0  0
  186.7480  179.0190  148.3970 C   0  0  0  0  0  1  0  0  0  0  0  0
  184.2460  178.6010  145.4570 C   0  0  0  0  0  2  0  0  0  0  0  0
  188.8670  174.3550  141.5270 C   0  0  0  0  0  0  0  0  0  0  0  0
  191.0220  172.3480  142.8970 C   0  0  0  0  0  2  0  0  0  0  0  0
  187.6950  176.1440  144.5880 N   0  0  0  0  0  0  0  0  0  0  0  0
  185.2310  179.0380  144.3780 C   0  0  0  0  0  2  0  0  0  0  0  0
  188.7420  174.7060  142.9260 N   0  0  0  0  0  0  0  0  0  0  0  0
  189.5680  173.4430  139.4560 C   0  0  0  0  0  2  0  0  0  0  0  0
  186.1690  177.9130  144.0090 C   0  0  0  0  0  0  0  0  0  0  0  0
  184.7810  178.8840  146.8640 C   0  0  0  0  0  2  0  0  0  0  0  0
  191.0220  173.0870  141.5510 C   0  0  2  0  0  3  0  0  0  0  0  0
  187.1860  176.5140  142.2850 C   0  0  0  0  0  0  0  0  0  0  0  0
  186.7910  177.4310  146.4440 C   0  0  0  0  0  0  0  0  0  0  0  0
  187.8640  175.7960  143.2850 C   0  0  0  0  0  0  0  0  0  0  0  0
  185.8410  177.9480  140.2890 C   0  0  0  0  0  3  0  0  0  0  0  0
  189.8420  172.6810  143.8090 C   0  0  0  0  0  2  0  0  0  0  0  0
  185.6680  178.2910  141.6340 C   0  0  0  0  0  3  0  0  0  0  0  0
  189.6570  174.1820  143.9430 C   0  0  0  0  0  2  0  0  0  0  0  0
  189.6030  173.1820  140.9680 C   0  0  1  0  0  3  0  0  0  0  0  0
  186.6830  176.8910  139.9370 C   0  0  0  0  0  3  0  0  0  0  0  0
  188.2390  175.0380  140.5880 C   0  0  0  0  0  0  0  0  0  0  0  0
  191.9890  172.3700  140.6150 C   0  0  0  0  0  2  0  0  0  0  0  0
  193.2520  172.9640  140.6850 O   0  0  0  0  0  0  0  0  0  0  0  0
  195.1700  175.1430  139.6220 O   0  0  0  0  0  0  0  0  0  0  0  0
  193.1580  174.2800  138.7220 C   0  0  0  0  0  2  0  0  0  0  0  0
  193.0610  174.2670  140.2200 C   0  0  2  0  0  3  0  0  0  0  0  0
  194.4200  175.0660  138.4400 C   0  0  0  0  0  2  0  0  0  0  0  0
  194.2240  175.1270  140.6550 C   0  0  0  0  0  2  0  0  0  0  0  0
  1 18  1  0  0  0  0
  2 14  1  0  0  0  0
  2 27  1  0  0  0  0
  3  7  1  1  0  0  0
  4 15  1  0  0  0  0
  5 19  1  0  0  0  0
  8 16  1  0  0  0  0
  9 13  1  0  0  0  0
 10 22  1  0  0  0  0
 11  5  1  0  0  0  0
 12  8  1  0  0  0  0
 13 20  1  0  0  0  0
 13 24  1  0  0  0  0
 15 12  1  0  0  0  0
 15  5  2  0  0  0  0
 16  3  1  0  0  0  0
 17 28  1  6  0  0  0
 17 10  1  0  0  0  0
 18  4  2  0  0  0  0
 18 20  1  0  0  0  0
 19  3  1  0  0  0  0
 19  6  2  0  0  0  0
 20 11  2  0  0  0  0
 21 23  2  0  0  0  0
 22 24  1  0  0  0  0
 23  4  1  0  0  0  0
 25 14  1  6  0  0  0
 25  9  1  0  0  0  0
 25 17  1  0  0  0  0
 26 21  1  0  0  0  0
 26  1  2  0  0  0  0
 27  1  1  0  0  0  0
 27  9  2  0  0  0  0
 28 29  1  0  0  0  0
 30 34  1  0  0  0  0
 31 32  1  0  0  0  0
 32 34  1  0  0  0  0
 32 29  1  1  0  0  0
 33 31  1  0  0  0  0
 33 30  1  0  0  0  0
M  END
>  <MODEL>
3

>  <REMARK>
 VINA RESULT:      -8.6      3.432      8.688
  Name = 
  3 active torsions:
  status: ('A' for Active; 'I' for Inactive)
    1  A    between atoms: C_17  and  C_28
    2  A    between atoms: C_28  and  O_29
    3  A    between atoms: O_29  and  C_32
                            x       y       z     vdW  Elec       q    Type
                         _______ _______ _______ _____ _____    ______ ____

>  <TORSDO>
F 3

$$$$
=
 OpenBabel11112417593D

 34 40  0  0  1  0  0  0  0  0999 V2000
  187.1340  176.3810  140.8640 C   0  0  0  0  0  0  0  0  0  0  0  0
  188.1740  174.7800  139.0460 C   0  0  0  0  0  2  0  0  0  0  0  0
  186.3720  178.7160  147.0490 C   0  0  2  0  0  3  0  0  0  0  0  0
  186.2080  177.7320  142.6850 C   0  0  0  0  0  0  0  0  0  0  0  0
  186.8540  177.2110  144.9780 C   0  0  0  0  0  0  0  0  0  0  0  0
  187.1590  176.4560  147.2020 O   0  0  0  0  0  0  0  0  0  0  0  0
  186.8830  178.9120  148.4670 C   0  0  0  0  0  1  0  0  0  0  0  0
  184.2550  178.6590  145.6200 C   0  0  0  0  0  2  0  0  0  0  0  0
  188.6350  174.5190  141.3200 C   0  0  0  0  0  0  0  0  0  0  0  0
  190.8110  172.4220  142.5110 C   0  0  0  0  0  2  0  0  0  0  0  0
  187.6220  176.1900  144.5020 N   0  0  0  0  0  0  0  0  0  0  0  0
  185.2010  179.1280  144.5210 C   0  0  0  0  0  2  0  0  0  0  0  0
  188.5740  174.8110  142.7370 N   0  0  0  0  0  0  0  0  0  0  0  0
  189.2330  173.6870  139.1840 C   0  0  0  0  0  2  0  0  0  0  0  0
  186.1040  178.0060  144.0640 C   0  0  0  0  0  0  0  0  0  0  0  0
  184.8530  178.8730  147.0140 C   0  0  0  0  0  2  0  0  0  0  0  0
  190.7670  173.2190  141.1980 C   0  0  2  0  0  3  0  0  0  0  0  0
  187.0240  176.6680  142.2400 C   0  0  0  0  0  0  0  0  0  0  0  0
  186.8180  177.4100  146.4480 C   0  0  0  0  0  0  0  0  0  0  0  0
  187.7300  175.8970  143.1790 C   0  0  0  0  0  0  0  0  0  0  0  0
  185.6220  178.2080  140.3670 C   0  0  0  0  0  3  0  0  0  0  0  0
  189.6750  172.7330  143.4850 C   0  0  0  0  0  2  0  0  0  0  0  0
  185.5100  178.4950  141.7310 C   0  0  0  0  0  3  0  0  0  0  0  0
  189.5220  174.2290  143.6910 C   0  0  0  0  0  2  0  0  0  0  0  0
  189.3280  173.3600  140.6810 C   0  0  1  0  0  3  0  0  0  0  0  0
  186.4300  177.1540  139.9340 C   0  0  0  0  0  3  0  0  0  0  0  0
  187.9810  175.2520  140.4380 C   0  0  0  0  0  0  0  0  0  0  0  0
  191.6830  172.5280  140.1920 C   0  0  0  0  0  2  0  0  0  0  0  0
  191.5570  171.1410  140.3050 O   0  0  0  0  0  0  0  0  0  0  0  0
  191.6980  168.3160  139.0590 O   0  0  0  0  0  0  0  0  0  0  0  0
  190.2200  170.1180  138.6440 C   0  0  0  0  0  2  0  0  0  0  0  0
  191.5720  170.6720  138.9900 C   0  0  2  0  0  3  0  0  0  0  0  0
  190.4600  168.6330  138.4820 C   0  0  0  0  0  2  0  0  0  0  0  0
  192.4790  169.4680  138.9000 C   0  0  0  0  0  2  0  0  0  0  0  0
  1 18  1  0  0  0  0
  2 14  1  0  0  0  0
  2 27  1  0  0  0  0
  3  7  1  1  0  0  0
  4 15  1  0  0  0  0
  5 19  1  0  0  0  0
  8 16  1  0  0  0  0
  9 13  1  0  0  0  0
 10 22  1  0  0  0  0
 11  5  1  0  0  0  0
 12  8  1  0  0  0  0
 13 20  1  0  0  0  0
 13 24  1  0  0  0  0
 15 12  1  0  0  0  0
 15  5  2  0  0  0  0
 16  3  1  0  0  0  0
 17 28  1  6  0  0  0
 17 10  1  0  0  0  0
 18  4  2  0  0  0  0
 18 20  1  0  0  0  0
 19  3  1  0  0  0  0
 19  6  2  0  0  0  0
 20 11  2  0  0  0  0
 21 23  2  0  0  0  0
 22 24  1  0  0  0  0
 23  4  1  0  0  0  0
 25 14  1  6  0  0  0
 25 17  1  0  0  0  0
 25  9  1  0  0  0  0
 26 21  1  0  0  0  0
 26  1  2  0  0  0  0
 27  1  1  0  0  0  0
 27  9  2  0  0  0  0
 28 29  1  0  0  0  0
 31 32  1  0  0  0  0
 32 29  1  1  0  0  0
 33 31  1  0  0  0  0
 33 30  1  0  0  0  0
 34 32  1  0  0  0  0
 34 30  1  0  0  0  0
M  END
>  <MODEL>
4

>  <REMARK>
 VINA RESULT:      -8.4      4.052      8.776
  Name = 
  3 active torsions:
  status: ('A' for Active; 'I' for Inactive)
    1  A    between atoms: C_17  and  C_28
    2  A    between atoms: C_28  and  O_29
    3  A    between atoms: O_29  and  C_32
                            x       y       z     vdW  Elec       q    Type
                         _______ _______ _______ _____ _____    ______ ____

>  <TORSDO>
F 3

$$$$
=
 OpenBabel11112417593D

 34 40  0  0  1  0  0  0  0  0999 V2000
  189.6600  174.4510  144.8360 C   0  0  0  0  0  0  0  0  0  0  0  0
  191.5800  172.7020  144.3840 C   0  0  0  0  0  2  0  0  0  0  0  0
  184.3800  178.1180  143.1160 C   0  0  2  0  0  3  0  0  0  0  0  0
  187.8760  176.1120  145.0660 C   0  0  0  0  0  0  0  0  0  0  0  0
  186.5790  176.7210  143.0920 C   0  0  0  0  0  0  0  0  0  0  0  0
  185.6040  177.5990  141.1200 O   0  0  0  0  0  0  0  0  0  0  0  0
  183.1780  178.3780  142.2230 C   0  0  0  0  0  1  0  0  0  0  0  0
  186.0290  179.2360  144.7160 C   0  0  0  0  0  2  0  0  0  0  0  0
  190.1750  173.4510  142.6770 C   0  0  0  0  0  0  0  0  0  0  0  0
  190.1660  172.2440  139.6610 C   0  0  0  0  0  2  0  0  0  0  0  0
  187.3370  175.8570  142.3590 N   0  0  0  0  0  0  0  0  0  0  0  0
  186.0770  177.8500  145.3480 C   0  0  0  0  0  2  0  0  0  0  0  0
  189.0980  174.2020  142.0670 N   0  0  0  0  0  0  0  0  0  0  0  0
  191.9050  171.8950  143.1270 C   0  0  0  0  0  2  0  0  0  0  0  0
  186.8490  176.8830  144.4820 C   0  0  0  0  0  0  0  0  0  0  0  0
  184.8000  179.4090  143.8180 C   0  0  0  0  0  2  0  0  0  0  0  0
  190.4490  171.5950  141.0250 C   0  0  2  0  0  3  0  0  0  0  0  0
  188.6280  175.2240  144.2660 C   0  0  0  0  0  0  0  0  0  0  0  0
  185.5250  177.4800  142.3750 C   0  0  0  0  0  0  0  0  0  0  0  0
  188.3400  175.1120  142.8950 C   0  0  0  0  0  0  0  0  0  0  0  0
  189.2000  175.4410  146.9990 C   0  0  0  0  0  3  0  0  0  0  0  0
  189.7130  173.7020  139.7300 C   0  0  0  0  0  2  0  0  0  0  0  0
  188.1760  176.2100  146.4360 C   0  0  0  0  0  3  0  0  0  0  0  0
  188.5860  173.8820  140.7310 C   0  0  0  0  0  2  0  0  0  0  0  0
  191.1580  172.5760  141.9710 C   0  0  1  0  0  3  0  0  0  0  0  0
  189.9410  174.5650  146.2020 C   0  0  0  0  0  3  0  0  0  0  0  0
  190.4370  173.5480  143.9670 C   0  0  0  0  0  0  0  0  0  0  0  0
  191.2610  170.3250  140.7860 C   0  0  0  0  0  2  0  0  0  0  0  0
  191.9680  170.4280  139.5850 O   0  0  0  0  0  0  0  0  0  0  0  0
  190.0970  168.7690  137.7670 O   0  0  0  0  0  0  0  0  0  0  0  0
  192.4290  169.1580  137.6440 C   0  0  0  0  0  2  0  0  0  0  0  0
  192.0210  169.1240  139.0880 C   0  0  2  0  0  3  0  0  0  0  0  0
  191.1970  168.6900  136.9010 C   0  0  0  0  0  2  0  0  0  0  0  0
  190.6250  168.5490  139.0460 C   0  0  0  0  0  2  0  0  0  0  0  0
  1 26  1  0  0  0  0
  3  7  1  6  0  0  0
  3 16  1  0  0  0  0
  4 23  2  0  0  0  0
  5 15  2  0  0  0  0
  6 19  2  0  0  0  0
  8 12  1  0  0  0  0
  9 27  2  0  0  0  0
 10 22  1  0  0  0  0
 10 17  1  0  0  0  0
 11 20  2  0  0  0  0
 11  5  1  0  0  0  0
 13  9  1  0  0  0  0
 13 20  1  0  0  0  0
 14  2  1  0  0  0  0
 15  4  1  0  0  0  0
 15 12  1  0  0  0  0
 16  8  1  0  0  0  0
 17 28  1  6  0  0  0
 17 25  1  0  0  0  0
 18  1  2  0  0  0  0
 18  4  1  0  0  0  0
 19  5  1  0  0  0  0
 19  3  1  0  0  0  0
 20 18  1  0  0  0  0
 22 24  1  0  0  0  0
 23 21  1  0  0  0  0
 24 13  1  0  0  0  0
 25  9  1  0  0  0  0
 25 14  1  1  0  0  0
 26 21  2  0  0  0  0
 27  2  1  0  0  0  0
 27  1  1  0  0  0  0
 29 28  1  0  0  0  0
 30 34  1  0  0  0  0
 31 32  1  0  0  0  0
 32 29  1  6  0  0  0
 33 31  1  0  0  0  0
 33 30  1  0  0  0  0
 34 32  1  0  0  0  0
M  END
>  <MODEL>
5

>  <REMARK>
 VINA RESULT:      -8.4      4.307      8.386
  Name = 
  3 active torsions:
  status: ('A' for Active; 'I' for Inactive)
    1  A    between atoms: C_17  and  C_28
    2  A    between atoms: C_28  and  O_29
    3  A    between atoms: O_29  and  C_32
                            x       y       z     vdW  Elec       q    Type
                         _______ _______ _______ _____ _____    ______ ____

>  <TORSDO>
F 3

$$$$
=
 OpenBabel11112417593D

 34 40  0  0  1  0  0  0  0  0999 V2000
  187.7300  175.8810  141.1470 C   0  0  0  0  0  0  0  0  0  0  0  0
  189.0880  174.1090  139.7450 C   0  0  0  0  0  2  0  0  0  0  0  0
  185.9420  178.9680  146.7650 C   0  0  2  0  0  3  0  0  0  0  0  0
  186.4920  177.4110  142.6030 C   0  0  0  0  0  0  0  0  0  0  0  0
  186.7860  177.2300  145.0170 C   0  0  0  0  0  0  0  0  0  0  0  0
  186.7620  176.7910  147.3450 O   0  0  0  0  0  0  0  0  0  0  0  0
  186.2200  179.3750  148.2030 C   0  0  0  0  0  1  0  0  0  0  0  0
  184.0770  178.6180  145.0540 C   0  0  0  0  0  2  0  0  0  0  0  0
  189.1950  174.1730  142.0770 C   0  0  0  0  0  0  0  0  0  0  0  0
  191.2190  172.3630  143.8590 C   0  0  0  0  0  2  0  0  0  0  0  0
  187.6490  176.1960  144.8080 N   0  0  0  0  0  0  0  0  0  0  0  0
  185.1700  178.9850  144.0560 C   0  0  0  0  0  2  0  0  0  0  0  0
  188.9050  174.6450  143.4140 N   0  0  0  0  0  0  0  0  0  0  0  0
  190.1440  173.0980  140.1900 C   0  0  0  0  0  2  0  0  0  0  0  0
  186.1650  177.8590  143.9000 C   0  0  0  0  0  0  0  0  0  0  0  0
  184.4440  179.0430  146.4790 C   0  0  0  0  0  2  0  0  0  0  0  0
  191.3580  172.9770  142.4580 C   0  0  2  0  0  3  0  0  0  0  0  0
  187.3980  176.3410  142.4380 C   0  0  0  0  0  0  0  0  0  0  0  0
  186.5160  177.6190  146.4240 C   0  0  0  0  0  0  0  0  0  0  0  0
  187.9710  175.7370  143.5700 C   0  0  0  0  0  0  0  0  0  0  0  0
  186.2620  177.5480  140.1800 C   0  0  0  0  0  3  0  0  0  0  0  0
  189.9360  172.7420  144.5990 C   0  0  0  0  0  2  0  0  0  0  0  0
  185.9300  178.0060  141.4590 C   0  0  0  0  0  3  0  0  0  0  0  0
  189.7090  174.2430  144.5710 C   0  0  0  0  0  2  0  0  0  0  0  0
  190.0130  172.9760  141.7150 C   0  0  1  0  0  3  0  0  0  0  0  0
  187.1580  176.4880  140.0240 C   0  0  0  0  0  3  0  0  0  0  0  0
  188.6660  174.7490  141.0140 C   0  0  0  0  0  0  0  0  0  0  0  0
  192.4390  172.2060  141.7070 C   0  0  0  0  0  2  0  0  0  0  0  0
  193.6550  172.3000  142.3890 O   0  0  0  0  0  0  0  0  0  0  0  0
  196.0780  173.9740  143.3300 O   0  0  0  0  0  0  0  0  0  0  0  0
  195.4630  173.2190  141.1720 C   0  0  0  0  0  2  0  0  0  0  0  0
  194.2150  173.5040  141.9570 C   0  0  2  0  0  3  0  0  0  0  0  0
  196.5770  173.7690  142.0350 C   0  0  0  0  0  2  0  0  0  0  0  0
  194.7220  174.2760  143.1530 C   0  0  0  0  0  2  0  0  0  0  0  0
  1 18  1  0  0  0  0
  2 14  1  0  0  0  0
  2 27  1  0  0  0  0
  3  7  1  1  0  0  0
  4 15  1  0  0  0  0
  5 19  1  0  0  0  0
  8 16  1  0  0  0  0
  9 13  1  0  0  0  0
 10 22  1  0  0  0  0
 11  5  1  0  0  0  0
 12  8  1  0  0  0  0
 13 20  1  0  0  0  0
 13 24  1  0  0  0  0
 15 12  1  0  0  0  0
 15  5  2  0  0  0  0
 16  3  1  0  0  0  0
 17 28  1  6  0  0  0
 17 10  1  0  0  0  0
 18  4  2  0  0  0  0
 18 20  1  0  0  0  0
 19  3  1  0  0  0  0
 19  6  2  0  0  0  0
 20 11  2  0  0  0  0
 21 23  2  0  0  0  0
 23  4  1  0  0  0  0
 24 22  1  0  0  0  0
 25 14  1  6  0  0  0
 25  9  1  0  0  0  0
 25 17  1  0  0  0  0
 26 21  1  0  0  0  0
 26  1  2  0  0  0  0
 27  1  1  0  0  0  0
 27  9  2  0  0  0  0
 28 29  1  0  0  0  0
 31 32  1  0  0  0  0
 31 33  1  0  0  0  0
 32 29  1  1  0  0  0
 32 34  1  0  0  0  0
 33 30  1  0  0  0  0
 34 30  1  0  0  0  0
M  END
>  <MODEL>
6

>  <REMARK>
 VINA RESULT:      -8.1      3.159      9.101
  Name = 
  3 active torsions:
  status: ('A' for Active; 'I' for Inactive)
    1  A    between atoms: C_17  and  C_28
    2  A    between atoms: C_28  and  O_29
    3  A    between atoms: O_29  and  C_32
                            x       y       z     vdW  Elec       q    Type
                         _______ _______ _______ _____ _____    ______ ____

>  <TORSDO>
F 3

$$$$
=
 OpenBabel11112417593D

 34 40  0  0  1  0  0  0  0  0999 V2000
  189.6030  174.5310  144.9360 C   0  0  0  0  0  0  0  0  0  0  0  0
  191.5360  172.7930  144.4980 C   0  0  0  0  0  2  0  0  0  0  0  0
  184.3140  178.1680  143.1770 C   0  0  2  0  0  3  0  0  0  0  0  0
  187.8070  176.1810  145.1530 C   0  0  0  0  0  0  0  0  0  0  0  0
  186.5220  176.7840  143.1690 C   0  0  0  0  0  0  0  0  0  0  0  0
  185.5560  177.6570  141.1910 O   0  0  0  0  0  0  0  0  0  0  0  0
  183.1170  178.4210  142.2750 C   0  0  0  0  0  1  0  0  0  0  0  0
  185.9440  179.2940  144.7910 C   0  0  0  0  0  2  0  0  0  0  0  0
  190.1400  173.5350  142.7800 C   0  0  0  0  0  0  0  0  0  0  0  0
  190.1610  172.3300  139.7640 C   0  0  0  0  0  2  0  0  0  0  0  0
  187.2900  175.9240  142.4420 N   0  0  0  0  0  0  0  0  0  0  0  0
  185.9950  177.9080  145.4230 C   0  0  0  0  0  2  0  0  0  0  0  0
  189.0630  174.2800  142.1620 N   0  0  0  0  0  0  0  0  0  0  0  0
  191.8750  171.9900  143.2430 C   0  0  0  0  0  2  0  0  0  0  0  0
  186.7800  176.9460  144.5610 C   0  0  0  0  0  0  0  0  0  0  0  0
  184.7210  179.4600  143.8830 C   0  0  0  0  0  2  0  0  0  0  0  0
  190.4380  171.6810  141.1290 C   0  0  2  0  0  3  0  0  0  0  0  0
  188.5700  175.2980  144.3580 C   0  0  0  0  0  0  0  0  0  0  0  0
  185.4680  177.5370  142.4450 C   0  0  0  0  0  0  0  0  0  0  0  0
  188.2930  175.1850  142.9850 C   0  0  0  0  0  0  0  0  0  0  0  0
  189.1200  175.5170  147.0960 C   0  0  0  0  0  3  0  0  0  0  0  0
  189.6990  173.7850  139.8300 C   0  0  0  0  0  2  0  0  0  0  0  0
  188.0960  176.2800  146.5250 C   0  0  0  0  0  3  0  0  0  0  0  0
  188.5640  173.9570  140.8230 C   0  0  0  0  0  2  0  0  0  0  0  0
  191.1340  172.6660  142.0810 C   0  0  1  0  0  3  0  0  0  0  0  0
  189.8720  174.6450  146.3040 C   0  0  0  0  0  3  0  0  0  0  0  0
  190.3910  173.6330  144.0720 C   0  0  0  0  0  0  0  0  0  0  0  0
  191.2590  170.4170  140.8960 C   0  0  0  0  0  2  0  0  0  0  0  0
  192.2920  170.6770  139.9910 O   0  0  0  0  0  0  0  0  0  0  0  0
  195.0080  170.2250  141.3970 O   0  0  0  0  0  0  0  0  0  0  0  0
  193.0040  168.9670  141.4610 C   0  0  0  0  0  2  0  0  0  0  0  0
  193.1460  169.5780  140.0970 C   0  0  2  0  0  3  0  0  0  0  0  0
  194.3360  169.2350  142.1270 C   0  0  0  0  0  2  0  0  0  0  0  0
  194.5790  170.0560  140.0740 C   0  0  0  0  0  2  0  0  0  0  0  0
  1 26  1  0  0  0  0
  3  7  1  6  0  0  0
  3 16  1  0  0  0  0
  4 23  2  0  0  0  0
  5 15  2  0  0  0  0
  6 19  2  0  0  0  0
  8 12  1  0  0  0  0
  9 27  2  0  0  0  0
 10 22  1  0  0  0  0
 10 17  1  0  0  0  0
 11 20  2  0  0  0  0
 11  5  1  0  0  0  0
 13  9  1  0  0  0  0
 13 20  1  0  0  0  0
 14  2  1  0  0  0  0
 15  4  1  0  0  0  0
 15 12  1  0  0  0  0
 16  8  1  0  0  0  0
 17 28  1  6  0  0  0
 17 25  1  0  0  0  0
 18  1  2  0  0  0  0
 18  4  1  0  0  0  0
 19  5  1  0  0  0  0
 19  3  1  0  0  0  0
 20 18  1  0  0  0  0
 22 24  1  0  0  0  0
 23 21  1  0  0  0  0
 24 13  1  0  0  0  0
 25  9  1  0  0  0  0
 25 14  1  1  0  0  0
 26 21  2  0  0  0  0
 27  2  1  0  0  0  0
 27  1  1  0  0  0  0
 29 28  1  0  0  0  0
 30 33  1  0  0  0  0
 31 33  1  0  0  0  0
 32 29  1  1  0  0  0
 32 31  1  0  0  0  0
 34 32  1  0  0  0  0
 34 30  1  0  0  0  0
M  END
>  <MODEL>
7

>  <REMARK>
 VINA RESULT:      -8.1      3.682      8.666
  Name = 
  3 active torsions:
  status: ('A' for Active; 'I' for Inactive)
    1  A    between atoms: C_17  and  C_28
    2  A    between atoms: C_28  and  O_29
    3  A    between atoms: O_29  and  C_32
                            x       y       z     vdW  Elec       q    Type
                         _______ _______ _______ _____ _____    ______ ____

>  <TORSDO>
F 3

$$$$
=
 OpenBabel11112417593D

 34 40  0  0  1  0  0  0  0  0999 V2000
  190.0920  175.4650  146.1120 C   0  0  0  0  0  0  0  0  0  0  0  0
  192.4550  174.5030  146.7740 C   0  0  0  0  0  2  0  0  0  0  0  0
  185.5970  177.8800  141.8390 C   0  0  2  0  0  3  0  0  0  0  0  0
  187.9820  176.4440  145.3460 C   0  0  0  0  0  0  0  0  0  0  0  0
  187.8110  177.2000  143.0330 C   0  0  0  0  0  0  0  0  0  0  0  0
  187.7780  178.2910  140.9310 O   0  0  0  0  0  0  0  0  0  0  0  0
  185.0600  178.0390  140.4260 C   0  0  0  0  0  1  0  0  0  0  0  0
  185.5690  178.9140  144.1750 C   0  0  0  0  0  2  0  0  0  0  0  0
  192.0080  175.2850  144.6200 C   0  0  0  0  0  0  0  0  0  0  0  0
  194.0590  175.0100  142.1170 C   0  0  0  0  0  2  0  0  0  0  0  0
  189.1040  176.8140  142.8390 N   0  0  0  0  0  0  0  0  0  0  0  0
  185.8040  177.4740  144.6190 C   0  0  0  0  0  2  0  0  0  0  0  0
  191.2270  175.8520  143.5410 N   0  0  0  0  0  0  0  0  0  0  0  0
  193.6760  174.1990  145.9050 C   0  0  0  0  0  2  0  0  0  0  0  0
  187.2180  177.0350  144.3180 C   0  0  0  0  0  0  0  0  0  0  0  0
  185.0480  178.9870  142.7360 C   0  0  0  0  0  2  0  0  0  0  0  0
  193.8020  174.1100  143.3350 C   0  0  2  0  0  3  0  0  0  0  0  0
  189.3160  176.0530  145.0920 C   0  0  0  0  0  0  0  0  0  0  0  0
  187.1000  177.8110  141.8820 C   0  0  0  0  0  0  0  0  0  0  0  0
  189.8660  176.2530  143.8140 C   0  0  0  0  0  0  0  0  0  0  0  0
  188.2190  175.6490  147.6380 C   0  0  0  0  0  3  0  0  0  0  0  0
  193.1200  176.2100  141.9990 C   0  0  0  0  0  2  0  0  0  0  0  0
  187.4470  176.2340  146.6290 C   0  0  0  0  0  3  0  0  0  0  0  0
  191.6690  175.7890  142.1450 C   0  0  0  0  0  2  0  0  0  0  0  0
  193.4610  174.9440  144.5800 C   0  0  1  0  0  3  0  0  0  0  0  0
  189.5380  175.2660  147.3810 C   0  0  0  0  0  3  0  0  0  0  0  0
  191.4860  175.0870  145.8160 C   0  0  0  0  0  0  0  0  0  0  0  0
  195.0300  173.2290  143.5420 C   0  0  0  0  0  2  0  0  0  0  0  0
  196.1860  174.0140  143.5450 O   0  0  0  0  0  0  0  0  0  0  0  0
  197.1910  173.4130  146.4070 O   0  0  0  0  0  0  0  0  0  0  0  0
  196.5500  171.9570  144.6550 C   0  0  0  0  0  2  0  0  0  0  0  0
  197.1830  173.1800  144.0580 C   0  0  2  0  0  3  0  0  0  0  0  0
  196.8160  172.0890  146.1380 C   0  0  0  0  0  2  0  0  0  0  0  0
  197.8350  173.8530  145.2430 C   0  0  0  0  0  2  0  0  0  0  0  0
  1 26  1  0  0  0  0
  3  7  1  6  0  0  0
  3 19  1  0  0  0  0
  3 16  1  0  0  0  0
  4 23  2  0  0  0  0
  5 15  2  0  0  0  0
  6 19  2  0  0  0  0
  8 12  1  0  0  0  0
  9 27  2  0  0  0  0
 10 17  1  0  0  0  0
 11  5  1  0  0  0  0
 11 20  2  0  0  0  0
 13 20  1  0  0  0  0
 13  9  1  0  0  0  0
 14  2  1  0  0  0  0
 15 12  1  0  0  0  0
 15  4  1  0  0  0  0
 16  8  1  0  0  0  0
 17 28  1  1  0  0  0
 17 25  1  0  0  0  0
 18  4  1  0  0  0  0
 18  1  2  0  0  0  0
 19  5  1  0  0  0  0
 20 18  1  0  0  0  0
 22 10  1  0  0  0  0
 22 24  1  0  0  0  0
 23 21  1  0  0  0  0
 24 13  1  0  0  0  0
 25  9  1  0  0  0  0
 25 14  1  1  0  0  0
 26 21  2  0  0  0  0
 27  1  1  0  0  0  0
 27  2  1  0  0  0  0
 28 29  1  0  0  0  0
 31 33  1  0  0  0  0
 32 29  1  1  0  0  0
 32 31  1  0  0  0  0
 32 34  1  0  0  0  0
 33 30  1  0  0  0  0
 34 30  1  0  0  0  0
M  END
>  <MODEL>
8

>  <REMARK>
 VINA RESULT:      -8.0      2.184      8.945
  Name = 
  3 active torsions:
  status: ('A' for Active; 'I' for Inactive)
    1  A    between atoms: C_17  and  C_28
    2  A    between atoms: C_28  and  O_29
    3  A    between atoms: O_29  and  C_32
                            x       y       z     vdW  Elec       q    Type
                         _______ _______ _______ _____ _____    ______ ____

>  <TORSDO>
F 3

$$$$
=
 OpenBabel11112417593D

 34 40  0  0  1  0  0  0  0  0999 V2000
  188.7540  176.2090  146.4010 C   0  0  0  0  0  0  0  0  0  0  0  0
  190.9000  175.5940  147.8040 C   0  0  0  0  0  2  0  0  0  0  0  0
  185.4540  177.4910  140.7650 C   0  0  2  0  0  3  0  0  0  0  0  0
  186.8800  176.8500  144.9610 C   0  0  0  0  0  0  0  0  0  0  0  0
  187.2980  177.2200  142.5870 C   0  0  0  0  0  0  0  0  0  0  0  0
  187.7750  177.9650  140.3900 O   0  0  0  0  0  0  0  0  0  0  0  0
  185.3090  177.3780  139.2570 C   0  0  0  0  0  1  0  0  0  0  0  0
  184.7460  178.8660  142.7990 C   0  0  0  0  0  2  0  0  0  0  0  0
  191.0080  175.9870  145.5050 C   0  0  0  0  0  0  0  0  0  0  0  0
  193.6670  175.5270  143.6990 C   0  0  0  0  0  2  0  0  0  0  0  0
  188.6140  176.9350  142.8010 N   0  0  0  0  0  0  0  0  0  0  0  0
  184.9270  177.5410  143.5320 C   0  0  0  0  0  2  0  0  0  0  0  0
  190.5170  176.3020  144.1800 N   0  0  0  0  0  0  0  0  0  0  0  0
  192.3230  175.2780  147.3440 C   0  0  0  0  0  2  0  0  0  0  0  0
  186.3910  177.2000  143.6850 C   0  0  0  0  0  0  0  0  0  0  0  0
  184.6280  178.6660  141.2850 C   0  0  0  0  0  2  0  0  0  0  0  0
  193.1400  174.8050  144.9480 C   0  0  2  0  0  3  0  0  0  0  0  0
  188.2510  176.5560  145.1300 C   0  0  0  0  0  0  0  0  0  0  0  0
  186.8920  177.5740  141.2040 C   0  0  0  0  0  0  0  0  0  0  0  0
  189.1130  176.6080  144.0210 C   0  0  0  0  0  0  0  0  0  0  0  0
  186.5330  176.4460  147.3400 C   0  0  0  0  0  3  0  0  0  0  0  0
  192.7340  176.5980  143.1370 C   0  0  0  0  0  2  0  0  0  0  0  0
  186.0320  176.7910  146.0810 C   0  0  0  0  0  3  0  0  0  0  0  0
  191.3210  176.0670  142.9770 C   0  0  0  0  0  2  0  0  0  0  0  0
  192.4340  175.7850  145.8990 C   0  0  1  0  0  3  0  0  0  0  0  0
  187.8910  176.1570  147.5000 C   0  0  0  0  0  3  0  0  0  0  0  0
  190.1940  175.9260  146.5430 C   0  0  0  0  0  0  0  0  0  0  0  0
  194.3110  174.0890  145.6140 C   0  0  0  0  0  2  0  0  0  0  0  0
  194.7060  172.9960  144.8380 O   0  0  0  0  0  0  0  0  0  0  0  0
  197.6220  173.0470  143.8130 O   0  0  0  0  0  0  0  0  0  0  0  0
  196.6870  173.7950  145.8550 C   0  0  0  0  0  2  0  0  0  0  0  0
  195.9240  172.5890  145.3880 C   0  0  2  0  0  3  0  0  0  0  0  0
  197.8780  173.8610  144.9260 C   0  0  0  0  0  2  0  0  0  0  0  0
  196.7980  172.0210  144.2950 C   0  0  0  0  0  2  0  0  0  0  0  0
  1 27  1  0  0  0  0
  1 26  1  0  0  0  0
  3  7  1  6  0  0  0
  3 19  1  0  0  0  0
  3 16  1  0  0  0  0
  4 18  1  0  0  0  0
  4 23  2  0  0  0  0
  5 11  1  0  0  0  0
  5 15  2  0  0  0  0
  6 19  2  0  0  0  0
  8 12  1  0  0  0  0
  9 25  1  0  0  0  0
  9 27  2  0  0  0  0
 10 17  1  0  0  0  0
 11 20  2  0  0  0  0
 12 15  1  0  0  0  0
 13  9  1  0  0  0  0
 14  2  1  0  0  0  0
 15  4  1  0  0  0  0
 16  8  1  0  0  0  0
 17 28  1  1  0  0  0
 17 25  1  0  0  0  0
 18  1  2  0  0  0  0
 19  5  1  0  0  0  0
 20 13  1  0  0  0  0
 20 18  1  0  0  0  0
 21 26  2  0  0  0  0
 22 10  1  0  0  0  0
 23 21  1  0  0  0  0
 24 22  1  0  0  0  0
 24 13  1  0  0  0  0
 25 14  1  1  0  0  0
 27  2  1  0  0  0  0
 29 28  1  0  0  0  0
 30 34  1  0  0  0  0
 30 33  1  0  0  0  0
 32 29  1  6  0  0  0
 32 31  1  0  0  0  0
 33 31  1  0  0  0  0
 34 32  1  0  0  0  0
M  END
>  <MODEL>
9

>  <REMARK>
 VINA RESULT:      -8.0      2.079      8.875
  Name = 
  3 active torsions:
  status: ('A' for Active; 'I' for Inactive)
    1  A    between atoms: C_17  and  C_28
    2  A    between atoms: C_28  and  O_29
    3  A    between atoms: O_29  and  C_32
                            x       y       z     vdW  Elec       q    Type
                         _______ _______ _______ _____ _____    ______ ____

>  <TORSDO>
F 3

$$$$
